data_functionalizedCrystal
_audit_creation_method	'MofGen! by Chris Wilmer'
_symmetry_space_group_name_H-M	'P1'
_symmetry_Int_Tables_number	1
_symmetry_cell_setting	triclinic
loop_
_symmetry_equiv_pos_as_xyz
  x,y,z
_cell_length_a	10.654550
_cell_length_b	16.109301
_cell_length_c	9.730223
_cell_angle_alpha	89.997247
_cell_angle_beta	89.996251
_cell_angle_gamma	83.973192
loop_
_atom_site_label
_atom_site_type_symbol
_atom_site_fract_x
_atom_site_fract_y
_atom_site_fract_z
O1	O	1.666250	0.116770	-0.114408
O2	O	1.300620	0.127896	-0.114386
O3	O	1.493479	0.001362	-0.114384
O4	O	1.473391	0.243304	-0.114410
O5	O	1.493477	0.001365	0.114196
O6	O	1.300618	0.127899	0.114194
O7	O	1.666248	0.116773	0.114172
Zn8	Zn	1.483433	0.122337	0.150475
Zn9	Zn	1.483436	0.122332	-0.150689
O10	O	1.473389	0.243307	0.114170
C11	C	1.253832	0.127080	-0.000093
C12	C	1.114422	0.124636	-0.000085
C13	C	1.033926	0.199138	-0.000113
C14	C	0.902936	0.196836	-0.000136
C15	C	0.932952	0.045526	-0.000109
C16	C	1.063939	0.047828	-0.000076
C17	C	1.016595	0.286496	-0.000135
C18	C	0.885606	0.284194	-0.000158
C19	C	1.492665	-0.029616	-0.000093
C20	C	1.490225	-0.121926	-0.000091
C21	C	1.598991	-0.343552	-0.000119
C22	C	1.596689	-0.430286	-0.000130
C23	C	1.367868	-0.411772	-0.000111
C24	C	1.370172	-0.325040	-0.000110
C25	C	1.485737	-0.290932	-0.000107
C26	C	1.481131	-0.464399	-0.000119
C27	C	1.478634	-0.558440	-0.000131
C28	C	1.488234	-0.196885	-0.000097
C29	C	1.713036	0.117589	-0.000124
C30	C	1.852446	0.120033	-0.000141
C31	C	1.474204	0.274286	-0.000124
C32	C	1.476643	0.366595	-0.000135
N33	N	1.483440	0.122339	0.356011
N34	N	1.483438	0.122324	-0.356225
C35	C	1.568859	0.066329	0.427939
C36	C	1.568856	0.066319	0.571822
C37	C	1.398010	0.178336	0.571837
C38	C	1.398008	0.178342	0.427957
C39	C	1.667500	0.001659	0.427931
C40	C	1.667497	0.001649	0.571814
H41	H	0.839575	0.310596	0.098523
H42	H	0.843427	0.317108	-0.095829
H43	H	1.693091	-0.315785	-0.000119
O44	O	1.782295	0.018744	0.618565
C45	C	1.767836	0.091918	0.699012
H46	H	1.667155	0.102127	0.739979
H47	H	1.787826	0.147615	0.633268
C48	C	1.984702	0.070281	0.770044
C49	C	1.861046	0.082816	0.820369
H50	H	2.042202	0.064669	0.844899
H51	H	1.994446	0.020984	0.715841
H52	H	2.001342	0.116698	0.715256
H53	H	1.844403	0.036394	0.875140
H54	H	1.851302	0.132105	0.874584
H55	H	1.328442	0.223942	0.369395
H56	H	1.129476	-0.012838	-0.000033
O57	O	1.260033	-0.274038	-0.000036
C58	C	1.157539	-0.322738	-0.000062
H59	H	1.189431	-0.387280	0.043213
H60	H	1.122115	-0.329113	-0.109721
C61	C	1.011180	-0.200870	0.036434
C62	C	1.050348	-0.280138	0.089596
H63	H	0.945056	-0.174591	0.091733
H64	H	1.080231	-0.168058	0.036446
H65	H	0.981669	-0.206193	-0.054948
H66	H	1.079873	-0.274814	0.180968
H67	H	0.981299	-0.312948	0.089601
O68	O	0.883701	-0.029011	-0.000169
C69	C	0.750827	-0.015069	-0.000163
H70	H	0.720049	0.049633	-0.043452
H71	H	0.714342	-0.019306	0.109491
C72	C	0.734348	-0.160989	-0.036640
C73	C	0.696545	-0.081523	-0.089818
H74	H	0.700863	-0.201982	-0.091937
H75	H	0.823868	-0.170383	-0.036638
H76	H	0.703941	-0.164507	0.054738
H77	H	0.726966	-0.078002	-0.181188
H78	H	0.607029	-0.072130	-0.089837
H79	H	1.273779	-0.439553	-0.000111
H80	H	1.045462	0.320662	0.095527
H81	H	1.688912	-0.473126	-0.000143
O82	O	1.314978	0.232622	0.641882
C83	C	1.237511	0.187610	0.725080
H84	H	1.287561	0.122859	0.746625
H85	H	1.144706	0.181392	0.669633
C86	C	1.149171	0.313840	0.835297
C87	C	1.210649	0.234313	0.861768
H88	H	1.132596	0.342650	0.919610
H89	H	1.201359	0.344166	0.779241
H90	H	1.071841	0.308646	0.789088
H91	H	1.287984	0.239508	0.907961
H92	H	1.158474	0.203989	0.917835
O93	O	1.642719	-0.074542	0.381412
C94	C	1.523588	-0.092043	0.429868
H95	H	1.463892	-0.031086	0.455436
H96	H	1.536264	-0.132358	0.526175
C97	C	1.530294	-0.213914	0.286763
C98	C	1.456970	-0.139045	0.318155
H99	H	1.489201	-0.242910	0.217857
H100	H	1.610556	-0.202125	0.254120
H101	H	1.540851	-0.247500	0.367029
H102	H	1.446427	-0.105456	0.237894
H103	H	1.376703	-0.150829	0.350781
O104	O	1.775942	0.025940	0.374856
C105	C	1.790922	0.107533	0.419732
H106	H	1.735114	0.121177	0.518586
H107	H	1.754648	0.154247	0.337187
C108	C	2.000216	0.098368	0.325309
C109	C	1.931681	0.115123	0.446729
H110	H	2.087043	0.103052	0.341956
H111	H	1.990123	0.043398	0.295069
H112	H	1.969974	0.137299	0.256533
H113	H	1.961913	0.076186	0.515497
H114	H	1.941782	0.170087	0.476981
O115	O	1.631880	-0.070324	0.625111
C116	C	1.523092	-0.052054	0.706655
H117	H	1.471345	0.010170	0.673056
H118	H	1.551688	-0.048070	0.819171
C119	C	1.499089	-0.197955	0.730391
C120	C	1.435526	-0.121534	0.689117
H121	H	1.445075	-0.240815	0.719579
H122	H	1.572384	-0.210265	0.675457
H123	H	1.522915	-0.194624	0.824151
H124	H	1.411715	-0.124863	0.595354
H125	H	1.362225	-0.109226	0.744034
H126	H	1.051874	0.314310	-0.098825
