data_functionalizedCrystal
_audit_creation_method	'MofGen! by Chris Wilmer'
_symmetry_space_group_name_H-M	'P1'
_symmetry_Int_Tables_number	1
_symmetry_cell_setting	triclinic
loop_
_symmetry_equiv_pos_as_xyz
  x,y,z
_cell_length_a	23.096457
_cell_length_b	23.096457
_cell_length_c	17.052832
_cell_angle_alpha	53.478154
_cell_angle_beta	77.683059
_cell_angle_gamma	59.998275
loop_
_atom_site_label
_atom_site_type_symbol
_atom_site_fract_x
_atom_site_fract_y
_atom_site_fract_z
Zr1	Zr	0.574341	0.633761	-0.105346
O2	O	0.502071	0.754551	-0.233503
O3	O	0.596497	0.512972	-0.066062
O4	O	0.622864	0.633763	-0.233512
O5	O	0.454903	0.633759	0.066038
O6	O	0.718145	0.633765	-0.233517
O7	O	0.475705	0.633760	-0.066052
O8	O	0.670980	0.417691	0.066022
O9	O	0.502069	0.849832	-0.233501
O10	O	0.677052	0.562656	-0.049308
O11	O	0.590421	0.562654	0.049273
O12	O	0.621464	0.704870	-0.147878
O13	O	0.534834	0.704868	-0.049297
Zr14	Zr	0.693128	0.633762	0.105315
Zr15	Zr	0.726303	0.633764	-0.105354
Zr16	Zr	0.541166	0.633760	0.105323
Zr17	Zr	0.574337	0.785724	-0.105342
Zr18	Zr	0.693132	0.481800	0.105311
O19	O	0.670971	0.754552	0.066030
O20	O	0.718142	0.754555	-0.233514
O21	O	0.454900	0.754549	0.066041
O22	O	0.765397	0.512973	0.233472
O23	O	0.812568	0.512975	-0.066073
O24	O	0.549326	0.512969	0.233483
O25	O	0.812565	0.633765	-0.066069
O26	O	0.644605	0.633761	0.233481
O27	O	0.549323	0.633759	0.233486
O28	O	0.791764	0.633764	0.066021
O29	O	0.622859	0.849834	-0.233507
O30	O	0.644610	0.417690	0.233475
O31	O	0.765400	0.417692	0.233469
O32	O	0.791770	0.417693	0.066015
O33	O	0.475699	0.849831	-0.066047
O34	O	0.596489	0.849833	-0.066053
O35	O	0.646004	0.562654	0.147847
O36	O	0.732635	0.562656	0.049266
O37	O	0.677048	0.704870	-0.049304
O38	O	0.590417	0.704868	0.049277
C39	C	0.633739	0.443680	-0.000021
C40	C	0.633741	0.379168	-0.000022
C41	C	0.678954	-0.081349	-0.051458
C42	C	0.678953	-0.020729	-0.051467
C43	C	0.633734	0.009582	-0.000008
C44	C	0.588500	-0.020716	0.051443
C45	C	0.588497	-0.081329	0.051442
N46	N	0.625699	0.071975	0.083733
N47	N	0.625706	0.129554	0.083731
C48	C	0.633739	0.192208	-0.000005
N49	N	0.641778	0.195100	-0.083739
N50	N	0.641774	0.137514	-0.083736
C51	C	0.633732	0.075308	-0.000002
C52	C	0.678966	0.288234	-0.051468
C53	C	0.678961	0.348859	-0.051480
C54	C	0.588511	0.348865	0.051439
C55	C	0.588513	0.288247	0.051441
C56	C	0.633744	0.257933	-0.000010
C57	C	0.443653	0.633759	-0.000006
C58	C	0.379141	0.633758	-0.000003
C59	C	0.377852	0.559525	0.051441
C60	C	0.317236	0.559524	0.051445
C61	C	0.257912	0.633760	-0.000013
C62	C	0.259203	0.708002	-0.051459
C63	C	0.319817	0.708001	-0.051454
N64	N	0.148303	0.689017	-0.083761
N65	N	0.090724	0.689013	-0.083764
C66	C	0.075282	0.633767	-0.000031
N67	N	0.119600	0.578513	0.083704
N68	N	0.177186	0.578514	0.083706
C69	C	0.192182	0.633769	-0.000024
C70	C	0.008268	0.559528	0.051422
C71	C	-0.052351	0.559530	0.051429
C72	C	-0.110383	0.708010	-0.051485
C73	C	-0.049765	0.708006	-0.051482
C74	C	0.009558	0.633763	-0.000031
C75	C	0.823816	0.633765	-0.000025
C76	C	0.888328	0.633766	-0.000029
C77	C	0.675232	0.633764	-0.263531
C78	C	0.689315	0.633765	-0.352965
C79	C	0.633730	0.823844	-0.000011
C80	C	0.633728	0.888356	-0.000009
C81	C	0.519044	0.633756	-0.605047
C82	C	0.505812	0.633750	-0.521015
C83	C	0.551686	0.633754	-0.478999
C84	C	0.610795	0.633763	-0.521022
C85	C	0.624031	0.633763	-0.605058
C86	C	0.656674	0.633761	-0.479009
C87	C	0.715782	0.633770	-0.521033
C88	C	0.729015	0.633770	-0.605060
C89	C	0.683141	0.633766	-0.647077
C90	C	0.643438	0.633761	-0.394974
C91	C	0.748425	0.633768	-0.394984
C92	C	0.761657	0.633774	-0.479016
C93	C	0.592237	0.633760	0.263499
C94	C	0.578153	0.633759	0.352934
C95	C	0.823821	0.443683	-0.000030
C96	C	0.888335	0.379172	-0.000035
C97	C	0.592242	0.443678	0.263494
C98	C	0.578160	0.379165	0.352927
C99	C	0.782324	0.443681	0.263485
C100	C	0.832754	0.379169	0.352914
C101	C	0.485145	0.823843	-0.263516
C102	C	0.434715	0.888355	-0.352946
C103	C	0.443648	0.823841	-0.000001
C104	C	0.379134	0.888352	0.000004
C105	C	0.675227	0.823846	-0.263526
C106	C	0.689309	0.888359	-0.352959
C107	C	0.889618	0.348877	-0.051501
C108	C	0.950233	0.288270	-0.051525
C109	C	1.009562	0.257956	-0.000078
C110	C	1.008277	0.288257	0.051390
C111	C	0.947664	0.348867	0.051408
C112	C	0.600559	0.348869	0.446389
C113	C	0.587324	0.288261	0.530429
C114	C	0.551693	0.257945	0.521005
C115	C	0.529290	0.288247	0.427533
C116	C	0.542522	0.348858	0.343495
C117	C	0.901663	0.348875	0.343453
C118	C	0.949054	0.288268	0.427474
C119	C	0.927535	0.257952	0.520954
C120	C	0.858619	0.288252	0.530414
C121	C	0.811229	0.348862	0.446394
C122	C	0.365806	0.918656	-0.343484
C123	C	0.318415	0.979282	-0.427505
C124	C	0.339934	1.009602	-0.520986
C125	C	0.408850	0.979297	-0.530445
C126	C	0.456240	0.918677	-0.446426
C127	C	0.377852	0.918653	0.051461
C128	C	0.317241	0.979277	0.051462
C129	C	0.257912	1.009593	0.000011
C130	C	0.259197	0.979289	-0.051452
C131	C	0.319808	0.918671	-0.051458
C132	C	0.724943	0.918655	-0.343502
C133	C	0.738187	0.979264	-0.427526
C134	C	0.715793	1.009579	-0.521005
C135	C	0.680158	0.979277	-0.530459
C136	C	0.666919	0.918665	-0.446436
H137	H	0.551690	0.373548	0.093332
H138	H	0.777148	0.633768	-0.639269
H139	H	0.524282	0.373517	0.267397
H140	H	0.210883	1.003982	-0.093342
H141	H	0.320861	0.768451	-0.093343
H142	H	0.743180	0.893982	-0.267395
H143	H	0.809784	0.633781	-0.513242
H144	H	0.919197	0.373549	0.267344
H145	H	0.056569	0.499075	0.093337
H146	H	0.715794	0.263554	-0.093367
H147	H	0.841106	0.263560	0.606537
H148	H	0.715782	-0.106028	-0.093355
H149	H	0.262303	1.003946	-0.419784
H150	H	0.301339	1.058963	-0.589392
H151	H	0.715787	0.373529	-0.093382
H152	H	0.841317	0.373558	-0.093408
H153	H	0.426364	1.003991	-0.606567
H154	H	0.540911	0.633749	-0.410576
H155	H	0.661928	1.003969	-0.606580
H156	H	0.726578	1.058933	-0.589414
H157	H	0.320842	0.894001	-0.093358
H158	H	1.005166	0.263603	0.419754
H159	H	0.540923	0.208592	0.589441
H160	H	0.951266	0.263606	-0.093436
H161	H	0.785781	0.633769	-0.360773
H162	H	-0.048718	0.768454	-0.093380
H163	H	1.058913	0.208603	-0.000099
H164	H	1.056592	0.263566	0.093276
H165	H	0.512349	0.894005	-0.454141
H166	H	0.316207	1.003940	0.093373
H167	H	0.208563	1.058952	0.000025
H168	H	0.500278	0.263555	0.419874
H169	H	0.966130	0.208599	0.589361
H170	H	0.946627	0.373525	0.093323
H171	H	0.629572	0.373545	0.454082
H172	H	0.426153	0.499071	0.093330
H173	H	0.605571	0.263597	0.606530
H174	H	0.755120	0.373520	0.454112
H175	H	0.551681	0.003969	0.093339
H176	H	0.426154	0.893974	0.093365
H177	H	0.767201	1.003930	-0.419809
H178	H	0.693911	0.633774	-0.715505
H179	H	0.348272	0.893974	-0.267375
H180	H	-0.053395	0.499079	0.093327
H181	H	0.637901	0.894005	-0.454149
H182	H	0.316187	0.499074	0.093337
H183	H	0.715782	0.003941	-0.093364
H184	H	0.457687	0.633741	-0.486802
H185	H	0.210897	0.768444	-0.093356
H186	H	0.551688	0.263578	0.093341
H187	H	0.551667	-0.105994	0.093339
H188	H	-0.158684	0.768453	-0.093384
H189	H	0.481700	0.633746	-0.639258
H190	H	0.595311	0.633753	-0.360766
