data_functionalizedCrystal
_audit_creation_method	'MofGen! by Chris Wilmer'
_symmetry_space_group_name_H-M	'P1'
_symmetry_Int_Tables_number	1
_symmetry_cell_setting	triclinic
loop_
_symmetry_equiv_pos_as_xyz
  x,y,z
_cell_length_a	10.654541
_cell_length_b	15.995350
_cell_length_c	9.130307
_cell_angle_alpha	89.998938
_cell_angle_beta	89.999822
_cell_angle_gamma	83.988152
loop_
_atom_site_label
_atom_site_type_symbol
_atom_site_fract_x
_atom_site_fract_y
_atom_site_fract_z
O1	O	1.666303	0.117592	-0.121747
O2	O	1.300677	0.128798	-0.121759
O3	O	1.493484	0.001365	-0.121751
O4	O	1.473495	0.245024	-0.121754
O5	O	1.493478	0.001364	0.121848
O6	O	1.300671	0.128797	0.121840
O7	O	1.666296	0.117590	0.121852
Cu8	Cu	1.483483	0.123193	0.144089
Cu9	Cu	1.483490	0.123195	-0.143995
O10	O	1.473489	0.245023	0.121845
C11	C	1.253887	0.127975	0.000039
C12	C	1.114475	0.125514	0.000034
C13	C	1.084514	0.277895	0.000014
C14	C	1.004039	0.352926	-0.000002
C15	C	0.873052	0.350609	-0.000003
C16	C	0.822537	0.273253	0.000016
C17	C	0.903011	0.198222	0.000032
C18	C	1.034000	0.200547	0.000029
C19	C	0.932972	0.045843	0.000063
C20	C	1.063961	0.048158	0.000054
C21	C	0.882458	-0.031513	0.000082
C22	C	0.962933	-0.106546	0.000087
C23	C	1.093928	-0.104226	0.000087
C24	C	1.144435	-0.026873	0.000070
C25	C	1.492655	-0.029835	0.000046
C26	C	1.490177	-0.122800	0.000037
C27	C	1.481280	-0.460599	0.000042
C28	C	1.343966	-0.413961	-0.000509
C29	C	1.346444	-0.317257	0.000040
C30	C	1.485693	-0.293013	0.000039
C31	C	1.553418	-0.333698	0.139146
C32	C	1.549968	-0.430354	0.139262
C33	C	1.552812	-0.430694	-0.137756
C34	C	1.552779	-0.333749	-0.139594
C35	C	1.488195	-0.198301	0.000042
C36	C	1.478783	-0.555311	0.000049
C37	C	1.713087	0.118413	0.000051
C38	C	1.852498	0.120874	0.000047
C39	C	1.474318	0.276223	0.000045
C40	C	1.476796	0.369188	0.000044
N41	N	1.483487	0.123192	0.346712
N42	N	1.483496	0.123190	-0.346618
C43	C	1.654287	0.010383	0.346709
C44	C	1.739695	-0.046019	0.423374
C45	C	1.739708	-0.046019	0.576707
C46	C	1.654300	0.010387	0.653379
C47	C	1.568892	0.066788	0.576714
C48	C	1.568891	0.066785	0.423377
C49	C	1.398088	0.179592	0.576717
C50	C	1.398079	0.179598	0.423384
C51	C	1.312680	0.235998	0.653389
C52	C	1.227276	0.292405	0.576724
C53	C	1.227268	0.292404	0.423381
C54	C	1.312671	0.236000	0.346718
H55	H	0.921792	-0.169523	0.000102
H56	H	0.807528	0.411706	-0.000006
H57	H	1.654296	0.010385	0.221856
C58	C	1.274532	-0.279269	-0.134664
H59	H	1.275960	-0.219982	-0.134513
H60	H	1.189599	-0.292253	-0.131230
H61	H	1.313692	-0.302132	-0.221365
C62	C	1.689974	-0.312229	-0.150931
H63	H	1.728153	-0.337645	-0.236224
H64	H	1.735748	-0.332786	-0.066803
H65	H	1.690663	-0.252980	-0.156772
C66	C	0.678454	0.270705	0.000025
H67	H	0.637762	0.326469	0.000010
H68	H	0.654356	0.242043	0.084977
H69	H	0.654353	0.242040	-0.084930
H70	H	1.507920	-0.451494	-0.243190
H71	H	1.191169	0.279789	-0.000017
H72	H	1.654053	-0.461868	-0.138691
H73	H	1.503264	-0.306787	-0.242501
H74	H	0.775800	-0.033395	0.000089
C75	C	1.182446	-0.186759	0.000107
H76	H	1.267694	-0.174304	0.000113
H77	H	1.167131	-0.218452	-0.084830
H78	H	1.167131	-0.218435	0.085077
H79	H	1.809231	-0.091946	0.360934
H80	H	1.654306	0.010376	0.778231
H81	H	1.157713	0.338330	0.360968
C82	C	1.489859	-0.295742	0.278994
H83	H	1.422061	-0.255111	0.252906
H84	H	1.549832	-0.269656	0.335281
H85	H	1.458443	-0.339049	0.335061
C86	C	1.288516	-0.024317	0.000074
H87	H	1.307070	0.032498	0.000072
H88	H	1.323691	-0.051937	-0.084863
H89	H	1.323674	-0.051922	0.085044
H90	H	1.650782	-0.462017	0.145572
C91	C	1.312695	0.235999	0.822051
H92	H	1.375801	0.194337	0.856732
H93	H	1.232443	0.224038	0.856753
H94	H	1.329877	0.289630	0.856722
H95	H	1.045183	0.415908	-0.000014
H96	H	1.809250	-0.091950	0.639128
C97	C	1.274043	-0.280025	0.134971
H98	H	1.275299	-0.220725	0.135760
H99	H	1.312981	-0.303280	0.221504
H100	H	1.189163	-0.293088	0.130878
C101	C	1.133342	0.354443	0.661062
H102	H	1.145583	0.346365	0.763361
H103	H	1.049534	0.344831	0.635937
H104	H	1.146979	0.410415	0.635938
H105	H	1.289086	-0.432811	-0.100265
C106	C	1.270148	-0.440848	0.133502
H107	H	1.322650	-0.480369	0.189790
H108	H	1.197859	-0.465812	0.101521
H109	H	1.244418	-0.392944	0.191893
C110	C	1.691621	-0.313822	0.146147
H111	H	1.730790	-0.339022	0.231068
H112	H	1.694028	-0.254671	0.150314
H113	H	1.735315	-0.335530	0.061375
C114	C	1.483232	-0.455469	0.279722
H115	H	1.458475	-0.406620	0.336171
H116	H	1.539334	-0.493114	0.335342
H117	H	1.410691	-0.482152	0.254300
C118	C	1.312665	0.235995	0.178056
H119	H	1.375755	0.194321	0.143380
H120	H	1.329832	0.289618	0.143356
H121	H	1.232404	0.224023	0.143379
