data_functionalizedCrystal
_audit_creation_method	'MofGen! by Chris Wilmer'
_symmetry_space_group_name_H-M	'P1'
_symmetry_Int_Tables_number	1
_symmetry_cell_setting	triclinic
loop_
_symmetry_equiv_pos_as_xyz
  x,y,z
_cell_length_a	12.827893
_cell_length_b	12.594516
_cell_length_c	12.827885
_cell_angle_alpha	89.971946
_cell_angle_beta	89.980728
_cell_angle_gamma	90.016213
loop_
_atom_site_label
_atom_site_type_symbol
_atom_site_fract_x
_atom_site_fract_y
_atom_site_fract_z
Zn1	Zn	1.597665	-0.423686	-0.590861
Zn2	Zn	1.930998	-0.090353	-0.257528
Zn3	Zn	2.264331	0.242981	0.075805
Zn4	Zn	1.597557	-0.601702	-0.416127
Zn5	Zn	1.930890	-0.268369	-0.082794
Zn6	Zn	2.264224	0.064965	0.250540
Zn7	Zn	1.422906	-0.423738	-0.416135
Zn8	Zn	1.756240	-0.090405	-0.082802
Zn9	Zn	2.089573	0.242928	0.250532
Zn10	Zn	1.422889	-0.601623	-0.590827
Zn11	Zn	1.756223	-0.268290	-0.257493
Zn12	Zn	2.089556	0.065043	0.075840
O13	O	1.510254	-0.512687	-0.503487
O14	O	1.843588	-0.179354	-0.170154
O15	O	2.176921	0.153979	0.163179
O16	O	1.743887	-0.447311	-0.567693
O17	O	2.077220	-0.113978	-0.234360
O18	O	2.410553	0.219355	0.098973
O19	O	1.574351	-0.578150	-0.269892
O20	O	1.907684	-0.244816	0.063442
O21	O	2.241018	0.088517	0.396775
O22	O	1.446140	-0.274786	-0.439330
O23	O	1.779474	0.058548	-0.105997
O24	O	2.112807	0.391881	0.227336
O25	O	1.743807	-0.578099	-0.439317
O26	O	2.077141	-0.244765	-0.105983
O27	O	2.410474	0.088568	0.227350
O28	O	1.574535	-0.274747	-0.567701
O29	O	1.907868	0.058586	-0.234368
O30	O	2.241202	0.391920	0.098965
O31	O	1.446036	-0.447400	-0.269898
O32	O	1.779369	-0.114067	0.063436
O33	O	2.112703	0.219266	0.396769
O34	O	1.276668	-0.447324	-0.439297
O35	O	1.610001	-0.113991	-0.105964
O36	O	1.943335	0.219342	0.227370
O37	O	1.446112	-0.577965	-0.737067
O38	O	1.779445	-0.244631	-0.403734
O39	O	2.112779	0.088702	-0.070401
O40	O	1.276656	-0.578016	-0.567642
O41	O	1.609989	-0.244682	-0.234309
O42	O	1.943322	0.088651	0.099024
O43	O	1.574519	-0.447235	-0.737093
O44	O	1.907852	-0.113902	-0.403759
O45	O	2.241185	0.219432	-0.070426
O46	O	1.574335	-0.750637	-0.439283
O47	O	1.907668	-0.417304	-0.105950
O48	O	2.241001	-0.083971	0.227383
O49	O	1.446007	-0.750580	-0.567635
O50	O	1.779341	-0.417246	-0.234301
O51	O	2.112674	-0.083913	0.099032
C52	C	1.238744	-0.512668	-0.503468
C53	C	1.572078	-0.179335	-0.170134
C54	C	1.905411	0.153999	0.163199
C55	C	1.122591	-0.512685	-0.503484
C56	C	1.455925	-0.179352	-0.170150
C57	C	1.789258	0.153982	0.163183
C58	C	0.950723	-0.577320	-0.439893
C59	C	1.284057	-0.243986	-0.106560
C60	C	1.617390	0.089347	0.226774
C61	C	1.070774	-0.577303	-0.439875
C62	C	1.404107	-0.243970	-0.106541
C63	C	1.737440	0.089363	0.226792
C64	C	1.510186	-0.789228	-0.503477
C65	C	1.843519	-0.455895	-0.170144
C66	C	2.176853	-0.122562	0.163189
C67	C	1.510252	-0.907534	-0.503508
C68	C	1.843585	-0.574201	-0.170174
C69	C	2.176919	-0.240867	0.163159
C70	C	1.440448	-0.976794	-0.573269
C71	C	1.773781	-0.643461	-0.239936
C72	C	2.107115	-0.310128	0.093398
C73	C	1.414986	-1.047663	-0.477914
C74	C	1.748319	-0.714329	-0.144580
C75	C	2.081653	-0.380996	0.188753
C76	C	1.535809	-1.047464	-0.598879
C77	C	1.869143	-0.714131	-0.265546
C78	C	2.202476	-0.380798	0.067787
C79	C	1.484740	-0.976844	-0.408102
C80	C	1.818073	-0.643511	-0.074769
C81	C	2.151406	-0.310178	0.258565
C82	C	1.605607	-0.976639	-0.529132
C83	C	1.938941	-0.643306	-0.195799
C84	C	2.272274	-0.309973	0.137535
C85	C	1.580182	-1.047476	-0.433711
C86	C	1.913515	-0.714143	-0.100378
C87	C	2.246848	-0.380809	0.232956
C88	C	1.782824	-0.512708	-0.503508
C89	C	2.116158	-0.179375	-0.170175
C90	C	2.449491	0.153959	0.163159
C91	C	1.898978	-0.512717	-0.503517
C92	C	2.232311	-0.179383	-0.170183
C93	C	2.565644	0.153950	0.163150
C94	C	1.510325	-0.512585	-0.776058
C95	C	1.843659	-0.179252	-0.442724
C96	C	2.176992	0.154081	-0.109391
C97	C	1.510356	-0.512542	-0.892211
C98	C	1.843689	-0.179208	-0.558878
C99	C	2.177022	0.154125	-0.225544
C100	C	1.510352	-0.235067	-0.503521
C101	C	1.843685	0.098267	-0.170187
C102	C	2.177018	0.431600	0.163146
C103	C	1.510393	-0.116761	-0.503535
C104	C	1.843726	0.216572	-0.170201
C105	C	2.177060	0.549906	0.163132
C106	C	1.446869	-0.577158	-1.064028
C107	C	1.780203	-0.243825	-0.730694
C108	C	2.113536	0.089509	-0.397361
C109	C	1.446836	-0.577205	-0.943977
C110	C	1.780170	-0.243871	-0.610644
C111	C	2.113503	0.089462	-0.277311
C112	C	1.510244	-0.512712	-0.231978
C113	C	1.843577	-0.179379	0.101356
C114	C	2.176910	0.153954	0.434689
C115	C	1.510416	-0.512456	-0.115825
C116	C	1.843749	-0.179123	0.217508
C117	C	2.177082	0.154211	0.550842
H118	H	1.115274	-0.632618	-0.385410
H119	H	1.448607	-0.299285	-0.052076
H120	H	1.781940	0.034048	0.281257
H121	H	0.906148	-0.632636	-0.385431
H122	H	1.239481	-0.299303	-0.052098
H123	H	1.572815	0.034031	0.281235
N124	N	1.582418	-0.439157	-0.951209
N125	N	1.915751	-0.105824	-0.617876
N126	N	2.249084	0.227510	-0.284542
H127	H	1.566221	-0.363098	-0.932276
H128	H	1.899555	-0.029764	-0.598943
H129	H	2.232888	0.303569	-0.265610
H130	H	1.657064	-0.455767	-0.932254
H131	H	1.990397	-0.122434	-0.598921
H132	H	2.323731	0.210900	-0.265588
H133	H	1.392486	-0.632514	-1.108559
H134	H	1.725819	-0.299181	-0.775226
H135	H	2.059153	0.034152	-0.441892
H136	H	1.078098	-0.457377	-0.557961
H137	H	1.411431	-0.124043	-0.224627
H138	H	1.744764	0.209290	0.108706
H139	H	1.381312	-0.945758	-0.632178
H140	H	1.714645	-0.612425	-0.298845
H141	H	2.047978	-0.279091	0.034489
H142	H	1.392436	-0.632602	-0.899433
H143	H	1.725769	-0.299269	-0.566099
H144	H	2.059102	0.034064	-0.232766
N145	N	1.582462	-0.439131	-1.056850
N146	N	1.915796	-0.105798	-0.723517
N147	N	2.249129	0.227535	-0.390184
H148	H	1.539966	-0.389862	-1.011561
H149	H	1.873299	-0.056528	-0.678228
H150	H	2.206632	0.276805	-0.344894
H151	H	1.630801	-0.482538	-1.011628
H152	H	1.964135	-0.149205	-0.678295
H153	H	2.297468	0.184129	-0.344962
H154	H	1.334412	-1.078883	-0.456263
H155	H	1.667745	-0.745550	-0.122929
H156	H	2.001078	-0.412216	0.210404
N157	N	0.958013	-0.439441	-0.575662
N158	N	1.291346	-0.106108	-0.242329
N159	N	1.624679	0.227226	0.091005
H160	H	0.906987	-0.396331	-0.618125
H161	H	1.240320	-0.062998	-0.284792
H162	H	1.573654	0.270335	0.048542
H163	H	1.003286	-0.390167	-0.533159
H164	H	1.336619	-0.056833	-0.199826
H165	H	1.669953	0.276500	0.133508
N166	N	1.456063	-0.935936	-0.301247
N167	N	1.789396	-0.602603	0.032086
N168	N	2.122729	-0.269270	0.365420
H169	H	1.456156	-0.855746	-0.301903
H170	H	1.789489	-0.522412	0.031430
H171	H	2.122822	-0.189079	0.364764
H172	H	1.384340	-0.962477	-0.281807
H173	H	1.717673	-0.629144	0.051526
H174	H	2.051006	-0.295811	0.384860
H175	H	1.686164	-0.945422	-0.550829
H176	H	2.019497	-0.612089	-0.217495
H177	H	2.352830	-0.278756	0.115838
N178	N	1.658461	-1.088331	-0.355501
N179	N	1.991794	-0.754998	-0.022168
N180	N	2.325127	-0.421665	0.311165
H181	H	1.639077	-1.062503	-0.283535
H182	H	1.972410	-0.729170	0.049799
H183	H	2.305743	-0.395837	0.383132
H184	H	1.658489	-1.168515	-0.356454
H185	H	1.991822	-0.835182	-0.023121
H186	H	2.325155	-0.501849	0.310212
N187	N	1.564371	-1.088567	-0.705694
N188	N	1.897704	-0.755234	-0.372360
N189	N	2.231037	-0.421900	-0.039027
H190	H	1.511537	-1.062856	-0.758317
H191	H	1.844871	-0.729523	-0.424984
H192	H	2.178204	-0.396190	-0.091651
H193	H	1.635848	-1.061615	-0.725490
H194	H	1.969182	-0.728282	-0.392157
H195	H	2.302515	-0.394948	-0.058824
