data_functionalizedCrystal
_audit_creation_method	'MofGen! by Chris Wilmer'
_symmetry_space_group_name_H-M	'P1'
_symmetry_Int_Tables_number	1
_symmetry_cell_setting	triclinic
loop_
_symmetry_equiv_pos_as_xyz
  x,y,z
_cell_length_a	13.897449
_cell_length_b	12.759394
_cell_length_c	12.759387
_cell_angle_alpha	90.031405
_cell_angle_beta	89.981540
_cell_angle_gamma	89.983883
loop_
_atom_site_label
_atom_site_type_symbol
_atom_site_fract_x
_atom_site_fract_y
_atom_site_fract_z
Zn1	Zn	1.474700	0.418178	-0.594033
Zn2	Zn	1.474609	0.593894	-0.418351
Zn3	Zn	1.313396	0.418234	-0.418366
Zn4	Zn	1.313379	0.593819	-0.593986
O5	O	1.394021	0.506031	-0.506184
O6	O	1.609670	0.441495	-0.570742
O7	O	1.453192	0.570647	-0.271332
O8	O	1.334838	0.271205	-0.441695
O9	O	1.609602	0.570593	-0.441669
O10	O	1.453348	0.271164	-0.570757
O11	O	1.334750	0.441590	-0.271343
O12	O	1.178412	0.441517	-0.441650
O13	O	1.334810	0.570466	-0.741014
O14	O	1.178400	0.570520	-0.570677
O15	O	1.453332	0.441422	-0.741048
O16	O	1.453176	0.740905	-0.441624
O17	O	1.334721	0.740850	-0.570662
C18	C	1.393963	0.778999	-0.506159
C19	C	1.394026	0.895775	-0.506183
C20	C	1.143406	0.506017	-0.506160
C21	C	1.036193	0.506037	-0.506175
C22	C	1.394079	0.505929	-0.780218
C23	C	1.394104	0.505886	-0.896995
C24	C	0.839897	0.506040	-0.506203
C25	C	0.949130	0.506035	-0.506184
C26	C	1.645614	0.506046	-0.506209
C27	C	1.752828	0.506052	-0.506220
C28	C	1.394105	0.231998	-0.506233
C29	C	1.394141	0.115221	-0.506253
C30	C	1.517466	0.895779	-0.371916
C31	C	1.579211	0.950642	-0.304795
C32	C	1.579267	1.060363	-0.304823
C33	C	1.517574	1.115225	-0.371983
C34	C	1.455829	1.060362	-0.439104
C35	C	1.455778	0.950638	-0.439066
C36	C	1.332396	1.060358	-0.573375
C37	C	1.332333	0.950637	-0.573342
C38	C	1.270703	1.115220	-0.640534
C39	C	1.208952	1.060357	-0.707651
C40	C	1.208898	0.950629	-0.707619
C41	C	1.270589	0.895774	-0.640464
C42	C	1.517506	0.640200	-1.116408
C43	C	1.579155	0.707415	-1.061531
C44	C	1.579123	0.707455	-0.951809
C45	C	1.517433	0.640275	-0.896962
C46	C	1.455785	0.573061	-0.951839
C47	C	1.455825	0.573026	-1.061564
C48	C	1.332455	0.438671	-0.951872
C49	C	1.332491	0.438624	-1.061594
C50	C	1.270766	0.371492	-0.897025
C51	C	1.209121	0.304270	-0.951902
C52	C	1.209156	0.304232	-1.061630
C53	C	1.270842	0.371410	-1.116471
C54	C	1.394018	0.506057	-0.233217
C55	C	1.394180	0.505804	-0.116441
H56	H	1.517414	0.806438	-0.371872
H57	H	1.270544	0.806433	-0.640424
F58	F	1.143308	1.118750	-0.779125
F59	F	1.517557	0.640150	-1.233184
F60	F	1.143537	0.232694	-1.120026
F61	F	1.644987	1.118754	-0.233391
H62	H	1.629378	0.762115	-1.106200
H63	H	1.517405	0.640323	-0.807621
F64	F	1.270889	0.371370	-1.233246
H65	H	1.270741	0.371533	-0.807683
H66	H	1.517634	1.204566	-0.372009
H67	H	1.629443	0.905964	-0.250116
H68	H	1.270758	1.204561	-0.640557
H69	H	1.158621	0.905965	-0.762281
F70	F	1.644730	0.778998	-0.893404
H71	H	1.158894	0.249582	-0.907237
