data_functionalizedCrystal
_audit_creation_method	'MofGen! by Chris Wilmer'
_symmetry_space_group_name_H-M	'P1'
_symmetry_Int_Tables_number	1
_symmetry_cell_setting	triclinic
loop_
_symmetry_equiv_pos_as_xyz
  x,y,z
_cell_length_a	29.839135
_cell_length_b	29.839131
_cell_length_c	29.839125
_cell_angle_alpha	90.017709
_cell_angle_beta	90.015488
_cell_angle_gamma	90.043950
loop_
_atom_site_label
_atom_site_type_symbol
_atom_site_fract_x
_atom_site_fract_y
_atom_site_fract_z
Zn1	Zn	0.686720	-0.178886	0.254047
Zn2	Zn	1.020053	0.154447	0.587381
Zn3	Zn	1.353386	0.487781	0.920714
Zn4	Zn	0.686652	-0.253998	0.178917
Zn5	Zn	1.019985	0.079335	0.512251
Zn6	Zn	1.353318	0.412669	0.845584
Zn7	Zn	0.611602	-0.178886	0.178925
Zn8	Zn	0.944936	0.154447	0.512259
Zn9	Zn	1.278269	0.487781	0.845592
Zn10	Zn	0.611550	-0.253993	0.254014
Zn11	Zn	0.944883	0.079340	0.587347
Zn12	Zn	1.278217	0.412674	0.920681
O13	O	0.649131	-0.216441	0.216476
O14	O	0.982464	0.116893	0.549809
O15	O	1.315798	0.450226	0.883143
O16	O	0.749578	-0.188852	0.244092
O17	O	1.082911	0.144482	0.577425
O18	O	1.416244	0.477815	0.910758
O19	O	0.676690	-0.244036	0.116051
O20	O	1.010023	0.089297	0.449384
O21	O	1.343356	0.422630	0.782718
O22	O	0.621617	-0.116019	0.188908
O23	O	0.954950	0.217314	0.522241
O24	O	1.288284	0.550648	0.855574
O25	O	0.749528	-0.244036	0.188894
O26	O	1.082861	0.089297	0.522227
O27	O	1.416195	0.422630	0.855560
O28	O	0.676805	-0.116019	0.244099
O29	O	1.010139	0.217314	0.577433
O30	O	1.343472	0.550648	0.910766
O31	O	0.621551	-0.188852	0.116057
O32	O	0.954885	0.144481	0.449390
O33	O	1.288218	0.477815	0.782724
O34	O	0.548728	-0.188847	0.188876
O35	O	0.882062	0.144486	0.522209
O36	O	1.215395	0.477819	0.855542
O37	O	0.621528	-0.244028	0.316886
O38	O	0.954861	0.089306	0.650219
O39	O	1.288195	0.422639	0.983552
O40	O	0.548690	-0.244028	0.244043
O41	O	0.882023	0.089305	0.577376
O42	O	1.215357	0.422639	0.910710
O43	O	0.676755	-0.188847	0.316910
O44	O	1.010088	0.144486	0.650243
O45	O	1.343421	0.477820	0.983577
O46	O	0.676639	-0.316865	0.188862
O47	O	1.009972	0.016469	0.522195
O48	O	1.343306	0.349802	0.855528
O49	O	0.621462	-0.316861	0.244035
O50	O	0.954796	0.016473	0.577368
O51	O	1.288129	0.349806	0.910702
C52	C	0.532408	-0.216437	0.216457
C53	C	0.865742	0.116896	0.549790
C54	C	1.199075	0.450229	0.883123
C55	C	0.482474	-0.216447	0.216459
C56	C	0.815807	0.116887	0.549793
C57	C	1.149141	0.450220	0.883126
C58	C	0.649050	-0.333163	0.216454
C59	C	0.982383	0.000170	0.549787
C60	C	1.315717	0.333503	0.883120
C61	C	0.649056	-0.383098	0.216459
C62	C	0.982390	-0.049764	0.549792
C63	C	1.315723	0.283569	0.883126
C64	C	0.677914	-0.692730	0.187789
C65	C	1.011247	-0.359397	0.521122
C66	C	1.344580	-0.026064	0.854456
C67	C	0.677969	-0.880403	0.187807
C68	C	1.011303	-0.547070	0.521140
C69	C	1.344636	-0.213737	0.854473
O70	O	0.702441	-0.904659	0.163413
O71	O	1.035774	-0.571326	0.496747
O72	O	1.369107	-0.237993	0.830080
N73	N	0.649224	-0.903883	0.216510
N74	N	0.982557	-0.570549	0.549843
N75	N	1.315891	-0.237216	0.883177
C76	C	0.620465	-0.880441	0.245213
C77	C	0.953799	-0.547108	0.578546
C78	C	1.287132	-0.213774	0.911880
O79	O	0.596020	-0.904718	0.269630
O80	O	0.929354	-0.571385	0.602964
O81	O	1.262687	-0.238051	0.936297
C82	C	0.620412	-0.692769	0.245197
C83	C	0.953746	-0.359436	0.578531
C84	C	1.287079	-0.026102	0.911864
C85	C	0.649156	-0.669292	0.216489
C86	C	0.982489	-0.335959	0.549822
C87	C	1.315823	-0.002625	0.883156
C88	C	0.706656	-0.669253	0.159084
C89	C	1.039989	-0.335920	0.492417
C90	C	1.373322	-0.002587	0.825750
C91	C	0.706640	-0.622338	0.159078
C92	C	1.039973	-0.289005	0.492411
C93	C	1.373306	0.044329	0.825744
C94	C	0.677882	-0.598900	0.187778
C95	C	1.011215	-0.265566	0.521111
C96	C	1.344549	0.067767	0.854444
C97	C	0.649140	-0.622377	0.216483
C98	C	0.982474	-0.289043	0.549817
C99	C	1.315807	0.044290	0.883150
C100	C	0.591656	-0.669328	0.273902
C101	C	0.924989	-0.335995	0.607236
C102	C	1.258323	-0.002661	0.940569
C103	C	0.591646	-0.622407	0.273897
C104	C	0.924979	-0.289074	0.607230
C105	C	1.258313	0.044260	0.940563
C106	C	0.620390	-0.598930	0.245188
C107	C	0.953723	-0.265597	0.578522
C108	C	1.287057	0.067737	0.911855
C109	C	0.620367	-0.552023	0.245177
C110	C	0.953700	-0.218689	0.578511
C111	C	1.287033	0.114644	0.911844
N112	N	0.649112	-0.528543	0.216474
N113	N	0.982445	-0.195210	0.549807
N114	N	1.315778	0.138123	0.883141
C115	C	0.677869	-0.551982	0.187774
C116	C	1.011203	-0.218648	0.521108
C117	C	1.344536	0.114685	0.854441
C118	C	0.620494	-0.978972	0.245218
C119	C	0.953828	-0.645638	0.578552
C120	C	1.287161	-0.312305	0.911885
C121	C	0.620507	-1.025889	0.245222
C122	C	0.953840	-0.692556	0.578555
C123	C	1.287174	-0.359223	0.911888
C124	C	0.678012	-1.025849	0.187816
C125	C	1.011345	-0.692515	0.521149
C126	C	1.344678	-0.359182	0.854483
C127	C	0.677997	-0.978930	0.187811
C128	C	1.011330	-0.645597	0.521144
C129	C	1.344663	-0.312263	0.854477
C130	C	0.649239	-0.955492	0.216515
C131	C	0.982573	-0.622159	0.549848
C132	C	1.315906	-0.288826	0.883182
C133	C	0.677834	-0.453456	0.187764
C134	C	1.011167	-0.120123	0.521097
C135	C	1.344500	0.213211	0.854431
C136	C	0.677814	-0.406536	0.187759
C137	C	1.011147	-0.073203	0.521093
C138	C	1.344481	0.260130	0.854426
C139	C	0.620311	-0.406581	0.245167
C140	C	0.953644	-0.073248	0.578500
C141	C	1.286978	0.260085	0.911833
C142	C	0.620329	-0.453497	0.245170
C143	C	0.953662	-0.120163	0.578503
C144	C	1.286996	0.213170	0.911836
C145	C	0.649094	-0.476933	0.216467
C146	C	0.982427	-0.143600	0.549800
C147	C	1.315761	0.189734	0.883133
O148	O	0.595912	-0.527738	0.269561
O149	O	0.929245	-0.194405	0.602895
O150	O	1.262578	0.138929	0.936228
O151	O	0.702318	-0.527697	0.163367
O152	O	1.035651	-0.194363	0.496701
O153	O	1.368984	0.138970	0.830034
C154	C	0.677930	-0.739646	0.187795
C155	C	1.011263	-0.406313	0.521128
C156	C	1.344596	-0.072979	0.854462
C157	C	0.649188	-0.763123	0.216501
C158	C	0.982521	-0.429790	0.549834
C159	C	1.315855	-0.096456	0.883167
C160	C	0.620430	-0.739684	0.245200
C161	C	0.953764	-0.406351	0.578534
C162	C	1.287097	-0.073018	0.911867
C163	C	0.649200	-0.810041	0.216504
C164	C	0.982534	-0.476707	0.549837
C165	C	1.315867	-0.143374	0.883171
C166	C	0.677958	-0.833479	0.187804
C167	C	1.011291	-0.500146	0.521137
C168	C	1.344625	-0.166813	0.854471
C169	C	0.706703	-0.810000	0.159101
C170	C	1.040037	-0.476666	0.492434
C171	C	1.373370	-0.143333	0.825768
C172	C	0.706687	-0.763084	0.159095
C173	C	1.040021	-0.429751	0.492428
C174	C	1.373354	-0.096418	0.825762
C175	C	0.591685	-0.763164	0.273904
C176	C	0.925018	-0.429830	0.607237
C177	C	1.258352	-0.096497	0.940570
C178	C	0.591703	-0.810079	0.273907
C179	C	0.925036	-0.476746	0.607240
C180	C	1.258370	-0.143413	0.940573
C181	C	0.620461	-0.833518	0.245207
C182	C	0.953794	-0.500184	0.578540
C183	C	1.287127	-0.166851	0.911874
C184	C	0.172854	-0.187750	0.245260
C185	C	0.506187	0.145584	0.578593
C186	C	0.839520	0.478917	0.911926
C187	C	-0.014819	-0.187753	0.245273
C188	C	0.318514	0.145580	0.578606
C189	C	0.651847	0.478914	0.911939
O190	O	-0.039065	-0.163344	0.269738
O191	O	0.294269	0.169990	0.603072
O192	O	0.627602	0.503323	0.936405
N193	N	-0.038311	-0.216441	0.216492
N194	N	0.295022	0.116892	0.549826
N195	N	0.628356	0.450225	0.883159
C196	C	-0.014882	-0.245129	0.187705
C197	C	0.318452	0.088204	0.521038
C198	C	0.651785	0.421538	0.854372
O199	O	-0.039169	-0.269527	0.163223
O200	O	0.294164	0.063806	0.496556
O201	O	0.627498	0.397140	0.829889
C202	C	0.172791	-0.245123	0.187690
C203	C	0.506124	0.088210	0.521024
C204	C	0.839457	0.421544	0.854357
C205	C	0.196280	-0.216436	0.216475
C206	C	0.529613	0.116897	0.549809
C207	C	0.862946	0.450231	0.883142
C208	C	0.196343	-0.159065	0.274042
C209	C	0.529676	0.174269	0.607376
C210	C	0.863009	0.507602	0.940709
C211	C	0.243258	-0.159066	0.274040
C212	C	0.576592	0.174267	0.607374
C213	C	0.909925	0.507601	0.940707
C214	C	0.266684	-0.187752	0.245256
C215	C	0.600018	0.145581	0.578590
C216	C	0.933351	0.478914	0.911923
C217	C	0.243195	-0.216437	0.216474
C218	C	0.576529	0.116896	0.549807
C219	C	0.909862	0.450229	0.883140
C220	C	0.196219	-0.273808	0.158901
C221	C	0.529553	0.059525	0.492234
C222	C	0.862886	0.392859	0.825568
C223	C	0.243140	-0.273803	0.158899
C224	C	0.576474	0.059530	0.492232
C225	C	0.909807	0.392863	0.825566
C226	C	0.266630	-0.245116	0.187684
C227	C	0.599963	0.088217	0.521018
C228	C	0.933296	0.421550	0.854351
C229	C	0.313537	-0.245125	0.187688
C230	C	0.646870	0.088208	0.521021
C231	C	0.980204	0.421542	0.854354
N232	N	0.337029	-0.216437	0.216468
N233	N	0.670362	0.116897	0.549801
N234	N	1.003695	0.450230	0.883134
C235	C	0.313602	-0.187750	0.245252
C236	C	0.646936	0.145583	0.578585
C237	C	0.980269	0.478916	0.911919
C238	C	-0.113412	-0.245130	0.187715
C239	C	0.219921	0.088203	0.521049
C240	C	0.553254	0.421536	0.854382
C241	C	-0.160330	-0.245133	0.187720
C242	C	0.173003	0.088201	0.521053
C243	C	0.506337	0.421534	0.854386
C244	C	-0.160265	-0.187756	0.245287
C245	C	0.173069	0.145578	0.578620
C246	C	0.506402	0.478911	0.911953
C247	C	-0.113346	-0.187756	0.245284
C248	C	0.219987	0.145577	0.578618
C249	C	0.553321	0.478910	0.911951
C250	C	-0.089921	-0.216442	0.216495
C251	C	0.243413	0.116891	0.549829
C252	C	0.576746	0.450225	0.883162
C253	C	0.412128	-0.187755	0.245246
C254	C	0.745462	0.145578	0.578580
C255	C	1.078795	0.478911	0.911913
C256	C	0.459048	-0.187760	0.245243
C257	C	0.792381	0.145573	0.578577
C258	C	1.125714	0.478906	0.911910
C259	C	0.458978	-0.245135	0.187675
C260	C	0.792312	0.088198	0.521008
C261	C	1.125645	0.421531	0.854342
C262	C	0.412063	-0.245132	0.187679
C263	C	0.745396	0.088201	0.521013
C264	C	1.078730	0.421535	0.854346
C265	C	0.388639	-0.216438	0.216467
C266	C	0.721972	0.116895	0.549800
C267	C	1.055306	0.450228	0.883133
O268	O	0.337811	-0.269518	0.163231
O269	O	0.671145	0.063815	0.496564
O270	O	1.004478	0.397149	0.829898
O271	O	0.337898	-0.163349	0.269724
O272	O	0.671231	0.169985	0.603057
O273	O	1.004564	0.503318	0.936390
C274	C	0.125938	-0.187749	0.245262
C275	C	0.459271	0.145585	0.578595
C276	C	0.792605	0.478918	0.911928
C277	C	0.102449	-0.216434	0.216479
C278	C	0.435782	0.116900	0.549812
C279	C	0.769116	0.450233	0.883146
C280	C	0.125875	-0.245120	0.187695
C281	C	0.459208	0.088213	0.521028
C282	C	0.792542	0.421547	0.854361
C283	C	0.055531	-0.216436	0.216483
C284	C	0.388864	0.116898	0.549817
C285	C	0.722198	0.450231	0.883150
C286	C	0.032105	-0.187749	0.245267
C287	C	0.365438	0.145584	0.578601
C288	C	0.698771	0.478917	0.911934
C289	C	0.055596	-0.159061	0.274048
C290	C	0.388930	0.174272	0.607381
C291	C	0.722263	0.507606	0.940714
C292	C	0.102512	-0.159062	0.274046
C293	C	0.435845	0.174271	0.607379
C294	C	0.769179	0.507604	0.940712
C295	C	0.102384	-0.273808	0.158915
C296	C	0.435717	0.059525	0.492248
C297	C	0.769050	0.392858	0.825581
C298	C	0.055468	-0.273805	0.158919
C299	C	0.388801	0.059528	0.492252
C300	C	0.722135	0.392862	0.825586
C301	C	0.032042	-0.245119	0.187703
C302	C	0.365375	0.088215	0.521037
C303	C	0.698708	0.421548	0.854370
C304	C	0.766309	-0.216445	0.216495
C305	C	1.099643	0.116889	0.549829
C306	C	1.432976	0.450222	0.883162
C307	C	0.816244	-0.216446	0.216504
C308	C	1.149577	0.116887	0.549837
C309	C	1.482910	0.450220	0.883170
C310	C	0.649143	-0.216437	0.333654
C311	C	0.982476	0.116897	0.666988
C312	C	1.315810	0.450230	1.000321
C313	C	0.649148	-0.216435	0.383589
C314	C	0.982482	0.116898	0.716922
C315	C	1.315815	0.450232	1.050255
C316	C	0.649225	-0.099262	0.216508
C317	C	0.982558	0.234071	0.549841
C318	C	1.315891	0.567404	0.883175
C319	C	0.649265	-0.049328	0.216522
C320	C	0.982598	0.284005	0.549855
C321	C	1.315931	0.617339	0.883189
C322	C	0.649145	-0.216412	0.099753
C323	C	0.982478	0.116921	0.433087
C324	C	1.315811	0.450254	0.766420
C325	C	0.649227	-0.216288	0.049819
C326	C	0.982560	0.117046	0.383153
C327	C	1.315893	0.450379	0.716486
C328	C	0.677935	-0.187627	0.693248
C329	C	1.011268	0.145706	1.026581
C330	C	1.344602	0.479040	1.359915
C331	C	0.677957	-0.187589	0.880921
C332	C	1.011291	0.145744	1.214254
C333	C	1.344624	0.479078	1.547588
O334	O	0.702400	-0.163138	0.905199
O335	O	1.035733	0.170195	1.238533
O336	O	1.369066	0.503529	1.571866
N337	N	0.649208	-0.216315	0.904374
N338	N	0.982541	0.117019	1.237707
N339	N	1.315875	0.450352	1.571041
C340	C	0.620449	-0.245050	0.880906
C341	C	0.953782	0.088283	1.214239
C342	C	1.287115	0.421617	1.547573
O343	O	0.595993	-0.269479	0.905160
O344	O	0.929326	0.063854	1.238494
O345	O	1.262659	0.397188	1.571827
C346	C	0.620425	-0.245086	0.693234
C347	C	0.953758	0.088247	1.026567
C348	C	1.287091	0.421581	1.359900
C349	C	0.649179	-0.216361	0.669783
C350	C	0.982512	0.116972	1.003116
C351	C	1.315846	0.450305	1.336450
C352	C	0.706687	-0.158905	0.669797
C353	C	1.040020	0.174429	1.003131
C354	C	1.373354	0.507762	1.336464
C355	C	0.706683	-0.158916	0.622882
C356	C	1.040016	0.174417	0.956215
C357	C	1.373350	0.507750	1.289549
C358	C	0.677927	-0.187650	0.599417
C359	C	1.011260	0.145683	0.932750
C360	C	1.344594	0.479016	1.266084
C361	C	0.649175	-0.216373	0.622868
C362	C	0.982508	0.116960	0.956201
C363	C	1.315842	0.450294	1.289534
C364	C	0.591663	-0.273819	0.669766
C365	C	0.924997	0.059515	1.003100
C366	C	1.258330	0.392848	1.336433
C367	C	0.591659	-0.273824	0.622845
C368	C	0.924992	0.059509	0.956179
C369	C	1.258326	0.392842	1.289512
C370	C	0.620414	-0.245100	0.599395
C371	C	0.953747	0.088234	0.932728
C372	C	1.287080	0.421567	1.266061
C373	C	0.620415	-0.245119	0.552487
C374	C	0.953748	0.088215	0.885821
C375	C	1.287081	0.421548	1.219154
N376	N	0.649164	-0.216393	0.529034
N377	N	0.982498	0.116941	0.862368
N378	N	1.315831	0.450274	1.195701
C379	C	0.677920	-0.187659	0.552499
C380	C	1.011254	0.145675	0.885833
C381	C	1.344587	0.479008	1.219166
C382	C	0.620464	-0.245030	0.979437
C383	C	0.953797	0.088303	1.312770
C384	C	1.287131	0.421637	1.646103
C385	C	0.620471	-0.245022	1.026354
C386	C	0.953804	0.088312	1.359688
C387	C	1.287137	0.421645	1.693021
C388	C	0.677979	-0.187560	1.026366
C389	C	1.011312	0.145774	1.359700
C390	C	1.344646	0.479107	1.693033
C391	C	0.677974	-0.187571	0.979448
C392	C	1.011308	0.145763	1.312781
C393	C	1.344641	0.479096	1.646114
C394	C	0.649214	-0.216304	0.955984
C395	C	0.982547	0.117029	1.289317
C396	C	1.315880	0.450363	1.622650
C397	C	0.677910	-0.187685	0.453973
C398	C	1.011243	0.145648	0.787307
C399	C	1.344576	0.478981	1.120640
C400	C	0.677904	-0.187701	0.407054
C401	C	1.011238	0.145632	0.740387
C402	C	1.344571	0.478966	1.073720
C403	C	0.620395	-0.245161	0.407046
C404	C	0.953728	0.088172	0.740379
C405	C	1.287061	0.421506	1.073712
C406	C	0.620402	-0.245147	0.453961
C407	C	0.953735	0.088186	0.787295
C408	C	1.287068	0.421519	1.120628
C409	C	0.649161	-0.216406	0.477424
C410	C	0.982494	0.116927	0.810757
C411	C	1.315827	0.450261	1.144091
O412	O	0.595982	-0.269553	0.528180
O413	O	0.929315	0.063780	0.861513
O414	O	1.262649	0.397113	1.194847
O415	O	0.702366	-0.163226	0.528237
O416	O	1.035699	0.170107	0.861570
O417	O	1.369032	0.503440	1.194903
C418	C	0.677939	-0.187616	0.740163
C419	C	1.011273	0.145718	1.073497
C420	C	1.344606	0.479051	1.406830
C421	C	0.649187	-0.216338	0.763614
C422	C	0.982521	0.116995	1.096947
C423	C	1.315854	0.450329	1.430281
C424	C	0.620431	-0.245072	0.740149
C425	C	0.953765	0.088261	1.073482
C426	C	1.287098	0.421594	1.406816
C427	C	0.649194	-0.216330	0.810532
C428	C	0.982527	0.117003	1.143865
C429	C	1.315861	0.450337	1.477199
C430	C	0.677950	-0.187596	0.833997
C431	C	1.011283	0.145738	1.167330
C432	C	1.344617	0.479071	1.500663
C433	C	0.706699	-0.158870	0.810544
C434	C	1.040033	0.174464	1.143877
C435	C	1.373366	0.507797	1.477210
C436	C	0.706695	-0.158881	0.763628
C437	C	1.040029	0.174452	1.096962
C438	C	1.373362	0.507785	1.430295
C439	C	0.591682	-0.273798	0.763602
C440	C	0.925015	0.059535	1.096935
C441	C	1.258349	0.392869	1.430269
C442	C	0.591689	-0.273785	0.810518
C443	C	0.925022	0.059549	1.143851
C444	C	1.258355	0.392882	1.477184
C445	C	0.620445	-0.245050	0.833983
C446	C	0.953778	0.088283	1.167316
C447	C	1.287111	0.421616	1.500649
H448	H	0.701220	-0.387423	0.164380
H449	H	1.034554	-0.054089	0.497713
H450	H	1.367887	0.279244	0.831047
O451	O	0.563775	-0.599619	0.301828
O452	O	0.897108	-0.266286	0.635162
O453	O	1.230441	0.067048	0.968495
C454	C	0.589323	-0.572431	0.330858
C455	C	0.922657	-0.239098	0.664191
C456	C	1.255990	0.094235	0.997525
H457	H	0.624709	-0.586530	0.333667
H458	H	0.958043	-0.253197	0.667000
H459	H	1.291376	0.080137	1.000334
H460	H	0.573052	-0.571903	0.365417
H461	H	0.906385	-0.238570	0.698750
H462	H	1.239719	0.094763	1.032083
H463	H	0.590867	-0.536877	0.316966
H464	H	0.924201	-0.203544	0.650299
H465	H	1.257534	0.129789	0.983633
O466	O	0.705867	-0.159657	1.049234
O467	O	1.039200	0.173676	1.382567
O468	O	1.372533	0.507009	1.715901
C469	C	0.699709	-0.165820	1.095672
C470	C	1.033043	0.167513	1.429006
C471	C	1.366376	0.500847	1.762339
H472	H	0.665031	-0.180540	1.102067
H473	H	0.998364	0.152793	1.435400
H474	H	1.331698	0.486127	1.768734
H475	H	0.702774	-0.132166	1.113510
H476	H	1.036108	0.201168	1.446843
H477	H	1.369441	0.534501	1.780177
H478	H	0.726343	-0.189736	1.108991
H479	H	1.059677	0.143597	1.442324
H480	H	1.393010	0.476931	1.775657
H481	H	0.596984	-0.268557	0.387932
H482	H	0.930317	0.064776	0.721266
H483	H	1.263650	0.398110	1.054599
H484	H	0.568233	-0.297218	0.603743
H485	H	0.901567	0.036115	0.937077
H486	H	1.234900	0.369448	1.270410
H487	H	0.597061	-0.268417	1.045444
H488	H	0.930394	0.064916	1.378777
H489	H	1.263727	0.398250	1.712111
H490	H	0.730115	-0.135475	0.829657
H491	H	1.063448	0.197858	1.162990
H492	H	1.396782	0.531192	1.496324
H493	H	-0.094224	-0.164396	0.268723
H494	H	0.239109	0.168937	0.602056
H495	H	0.572442	0.502271	0.935390
H496	H	0.568248	-0.297209	0.688852
H497	H	0.901582	0.036124	1.022185
H498	H	1.234915	0.369457	1.355518
O499	O	0.734559	-0.130941	0.692606
O500	O	1.067892	0.202392	1.025939
O501	O	1.401226	0.535726	1.359272
C502	C	0.709016	-0.101920	0.719754
C503	C	1.042349	0.231413	1.053087
C504	C	1.375682	0.564746	1.386420
H505	H	0.673630	-0.099148	0.705617
H506	H	1.006963	0.234185	1.038950
H507	H	1.340297	0.567518	1.372284
H508	H	0.725293	-0.067348	0.720283
H509	H	1.058626	0.265986	1.053616
H510	H	1.391960	0.599319	1.386949
H511	H	0.707469	-0.115798	0.755313
H512	H	1.040802	0.217536	1.088646
H513	H	1.374136	0.550869	1.421979
H514	H	0.596895	-0.387490	0.268532
H515	H	0.930229	-0.054157	0.601866
H516	H	1.263562	0.279176	0.935199
O517	O	0.734666	-0.692023	0.131280
O518	O	1.068000	-0.358689	0.464613
O519	O	1.401333	-0.025356	0.797946
C520	C	0.763669	-0.719111	0.156902
C521	C	1.097002	-0.385778	0.490236
C522	C	1.430335	-0.052444	0.823569
H523	H	0.766375	-0.704962	0.192293
H524	H	1.099708	-0.371629	0.525626
H525	H	1.433042	-0.038296	0.858959
H526	H	0.798267	-0.719579	0.140714
H527	H	1.131600	-0.386245	0.474048
H528	H	1.464934	-0.052912	0.807381
H529	H	0.749817	-0.754696	0.158419
H530	H	1.083151	-0.421363	0.491752
H531	H	1.416484	-0.088029	0.825085
O532	O	0.705715	-0.476271	0.159866
O533	O	1.039049	-0.142937	0.493199
O534	O	1.372382	0.190396	0.826532
C535	C	0.680174	-0.503446	0.130818
C536	C	1.013507	-0.170113	0.464151
C537	C	1.346840	0.163221	0.797484
H538	H	0.646117	-0.510507	0.146625
H539	H	0.979450	-0.177174	0.479958
H540	H	1.312784	0.156159	0.813292
H541	H	0.698492	-0.536420	0.124823
H542	H	1.031825	-0.203086	0.458157
H543	H	1.365158	0.130247	0.791490
H544	H	0.675259	-0.485386	0.097516
H545	H	1.008592	-0.152053	0.430850
H546	H	1.341925	0.181281	0.764183
H547	H	0.177102	-0.297168	0.135460
H548	H	0.510436	0.036166	0.468794
H549	H	0.843769	0.369499	0.802127
O550	O	0.734543	-0.130977	0.600062
O551	O	1.067877	0.202357	0.933395
O552	O	1.401210	0.535690	1.266728
C553	C	0.708976	-0.101956	0.572940
C554	C	1.042309	0.231377	0.906274
C555	C	1.375643	0.564710	1.239607
H556	H	0.674924	-0.117813	0.565894
H557	H	1.008258	0.215521	0.899227
H558	H	1.341591	0.548854	1.232560
H559	H	0.727277	-0.095920	0.539956
H560	H	1.060611	0.237413	0.873289
H561	H	1.393944	0.570747	1.206623
H562	H	0.704052	-0.068670	0.591040
H563	H	1.037386	0.264663	0.924373
H564	H	1.370719	0.597996	1.257706
O565	O	0.265826	-0.301714	0.130920
O566	O	0.599159	0.031619	0.464253
O567	O	0.932492	0.364953	0.797587
C568	C	0.235028	-0.327023	0.105510
C569	C	0.568362	0.006310	0.438843
C570	C	0.901695	0.339644	0.772176
H571	H	0.201589	-0.328604	0.123911
H572	H	0.534922	0.004729	0.457244
H573	H	0.868255	0.338063	0.790577
H574	H	0.248553	-0.362413	0.100651
H575	H	0.581886	-0.029080	0.433985
H576	H	0.915219	0.304253	0.767318
H577	H	0.230041	-0.310519	0.071420
H578	H	0.563374	0.022814	0.404754
H579	H	0.896708	0.356148	0.738087
O580	O	-0.183074	-0.159950	0.273269
O581	O	0.150259	0.173383	0.606602
O582	O	0.483592	0.506716	0.939936
C583	C	-0.210215	-0.185571	0.302249
C584	C	0.123118	0.147762	0.635582
C585	C	0.456452	0.481095	0.968915
H586	H	-0.217270	-0.219596	0.286347
H587	H	0.116064	0.113737	0.619680
H588	H	0.449397	0.447071	0.953013
H589	H	-0.243194	-0.167284	0.308299
H590	H	0.090139	0.166049	0.641632
H591	H	0.423472	0.499382	0.974966
H592	H	-0.192128	-0.190551	0.335534
H593	H	0.141205	0.142782	0.668867
H594	H	0.474538	0.476116	1.002200
H595	H	0.568248	-0.688435	0.297278
H596	H	0.901581	-0.355101	0.630611
H597	H	1.234914	-0.021768	0.963944
H598	H	0.701427	-1.044940	0.164447
H599	H	1.034761	-0.711607	0.497781
H600	H	1.368094	-0.378274	0.831114
O601	O	0.734609	-0.599605	0.131181
O602	O	1.067942	-0.266272	0.464514
O603	O	1.401275	0.067061	0.797847
C604	C	0.759984	-0.630362	0.105848
C605	C	1.093318	-0.297028	0.439181
C606	C	1.426651	0.036305	0.772515
H607	H	0.761528	-0.663796	0.124256
H608	H	1.094862	-0.330463	0.457590
H609	H	1.428195	0.002870	0.790923
H610	H	0.795383	-0.616776	0.101093
H611	H	1.128716	-0.283443	0.434426
H612	H	1.462050	0.049890	0.767759
H613	H	0.743562	-0.635382	0.071711
H614	H	1.076896	-0.302049	0.405044
H615	H	1.410229	0.031284	0.738377
H616	H	0.730118	-0.829092	0.135731
H617	H	1.063451	-0.495758	0.469065
H618	H	1.396784	-0.162425	0.802398
H619	H	0.568274	-0.297180	0.829607
H620	H	0.901607	0.036154	1.162940
H621	H	1.234941	0.369487	1.496274
O622	O	0.389312	-0.273016	0.159680
O623	O	0.722645	0.060317	0.493013
O624	O	1.055979	0.393650	0.826347
C625	C	0.420052	-0.298346	0.134285
C626	C	0.753386	0.034987	0.467619
C627	C	1.086719	0.368320	0.800952
H628	H	0.453511	-0.279944	0.132764
H629	H	0.786845	0.053389	0.466097
H630	H	1.120178	0.386723	0.799430
H631	H	0.406484	-0.303086	0.098880
H632	H	0.739817	0.030247	0.432214
H633	H	1.073151	0.363581	0.765547
H634	H	0.425019	-0.332491	0.150676
H635	H	0.758352	0.000843	0.484010
H636	H	1.091685	0.334176	0.817343
H637	H	0.568292	-0.829190	0.297284
H638	H	0.901626	-0.495857	0.630618
H639	H	1.234959	-0.162523	0.963951
O640	O	0.705869	-0.159830	0.476810
O641	O	1.039202	0.173503	0.810143
O642	O	1.372536	0.506836	1.143477
C643	C	0.734877	-0.185402	0.503943
C644	C	1.068210	0.147932	0.837276
C645	C	1.401543	0.481265	1.170610
H646	H	0.719005	-0.219444	0.510972
H647	H	1.052338	0.113890	0.844306
H648	H	1.385671	0.447223	1.177639
H649	H	0.740921	-0.167092	0.536935
H650	H	1.074254	0.166242	0.870269
H651	H	1.407587	0.499575	1.203602
H652	H	0.768161	-0.190347	0.485863
H653	H	1.101494	0.142986	0.819196
H654	H	1.434828	0.476320	1.152529
O655	O	0.592533	-0.956157	0.273039
O656	O	0.925867	-0.622824	0.606372
O657	O	1.259200	-0.289491	0.939705
C658	C	0.563519	-0.929068	0.247431
C659	C	0.896852	-0.595734	0.580764
C660	C	1.230186	-0.262401	0.914097
H661	H	0.579388	-0.922030	0.213402
H662	H	0.912721	-0.588697	0.546735
H663	H	1.246054	-0.255364	0.880068
H664	H	0.557471	-0.896077	0.265724
H665	H	0.890805	-0.562743	0.599057
H666	H	1.224138	-0.229410	0.932391
H667	H	0.530237	-0.947190	0.242459
H668	H	0.863571	-0.613856	0.575793
H669	H	1.196904	-0.280523	0.909126
H670	H	0.701321	-0.164310	0.387962
H671	H	1.034655	0.169024	0.721296
H672	H	1.367988	0.502357	1.054629
O673	O	0.389398	-0.159933	0.273276
O674	O	0.722732	0.173400	0.606610
O675	O	1.056065	0.506733	0.939943
C676	C	0.400884	-0.169818	0.318030
C677	C	0.734217	0.163516	0.651363
C678	C	1.067550	0.496849	0.984697
H679	H	0.413751	-0.205713	0.320227
H680	H	0.747084	0.127621	0.653560
H681	H	1.080418	0.460954	0.986893
H682	H	0.370042	-0.165981	0.340238
H683	H	0.703376	0.167353	0.673572
H684	H	1.036709	0.500686	1.006905
H685	H	0.428144	-0.145754	0.329814
H686	H	0.761477	0.187580	0.663148
H687	H	1.094811	0.520913	0.996481
O688	O	0.705918	-0.159623	0.956739
O689	O	1.039251	0.173710	1.290073
O690	O	1.372585	0.507044	1.623406
C691	C	0.731307	-0.134272	0.987517
C692	C	1.064641	0.199062	1.320850
C693	C	1.397974	0.532395	1.654183
H694	H	0.712910	-0.132713	1.020958
H695	H	1.046244	0.200620	1.354292
H696	H	1.379577	0.533953	1.687625
H697	H	0.736127	-0.098876	0.973970
H698	H	1.069460	0.234457	1.307304
H699	H	1.402794	0.567790	1.640637
H700	H	0.765414	-0.150724	0.992509
H701	H	1.098748	0.182609	1.325842
H702	H	1.432081	0.515943	1.659175
H703	H	-0.179451	-0.268497	0.164285
H704	H	0.153882	0.064836	0.497618
H705	H	0.487216	0.398169	0.830951
H706	H	0.568265	-0.297198	0.744502
H707	H	0.901599	0.036135	1.077835
H708	H	1.234932	0.369469	1.411168
H709	H	0.568268	-0.744084	0.297275
H710	H	0.901601	-0.410750	0.630609
H711	H	1.234934	-0.077417	0.963942
O712	O	0.592510	-0.272986	0.956716
O713	O	0.925843	0.060347	1.290050
O714	O	1.259176	0.393680	1.623383
C715	C	0.567132	-0.298327	0.987483
C716	C	0.900465	0.035007	1.320816
C717	C	1.233798	0.368340	1.654149
H718	H	0.585541	-0.299874	1.020927
H719	H	0.918875	0.033459	1.354260
H720	H	1.252208	0.366793	1.687594
H721	H	0.562306	-0.333726	0.973926
H722	H	0.895639	-0.000393	1.307259
H723	H	1.228973	0.332940	1.640593
H724	H	0.533027	-0.281872	0.992474
H725	H	0.866360	0.051462	1.325807
H726	H	1.199694	0.384795	1.659141
O727	O	0.481809	-0.272956	0.159729
O728	O	0.815142	0.060377	0.493062
O729	O	1.148475	0.393710	0.826395
C730	C	0.528256	-0.266808	0.165909
C731	C	0.861589	0.066525	0.499242
C732	C	1.194922	0.399858	0.832576
H733	H	0.534689	-0.232162	0.180690
H734	H	0.868023	0.101172	0.514024
H735	H	1.201356	0.434505	0.847357
H736	H	0.546076	-0.269798	0.132253
H737	H	0.879410	0.063536	0.465586
H738	H	1.212743	0.396869	0.798919
H739	H	0.541559	-0.293494	0.189781
H740	H	0.874892	0.039840	0.523114
H741	H	1.208226	0.373173	0.856448
O742	O	0.173570	-0.131151	0.301943
O743	O	0.506904	0.202183	0.635277
O744	O	0.840237	0.535516	0.968610
C745	C	0.146432	-0.102098	0.276431
C746	C	0.479766	0.231235	0.609765
C747	C	0.813099	0.564569	0.943098
H748	H	0.160554	-0.099265	0.241050
H749	H	0.493887	0.234068	0.574383
H750	H	0.827221	0.567402	0.907716
H751	H	0.145937	-0.067551	0.292748
H752	H	0.479271	0.265782	0.626081
H753	H	0.812604	0.599115	0.959415
H754	H	0.110862	-0.115984	0.274867
H755	H	0.444195	0.217349	0.608200
H756	H	0.777529	0.550683	0.941534
O757	O	0.705962	-0.956196	0.159911
O758	O	1.039295	-0.622862	0.493244
O759	O	1.372628	-0.289529	0.826578
C760	C	0.731335	-0.986950	0.134573
C761	C	1.064668	-0.653617	0.467906
C762	C	1.398001	-0.320283	0.801239
H763	H	0.732883	-1.020385	0.152980
H764	H	1.066217	-0.687052	0.486313
H765	H	1.399550	-0.353718	0.819647
H766	H	0.766732	-0.973363	0.129812
H767	H	1.100065	-0.640030	0.463145
H768	H	1.433398	-0.306696	0.796479
H769	H	0.714907	-0.991971	0.100438
H770	H	1.048240	-0.658637	0.433771
H771	H	1.381573	-0.325304	0.767105
O772	O	0.266003	-0.131152	0.302012
O773	O	0.599336	0.202181	0.635346
O774	O	0.932670	0.535515	0.968679
C775	C	0.235257	-0.105842	0.327421
C776	C	0.568591	0.227491	0.660754
C777	C	0.901924	0.560824	0.994088
H778	H	0.201809	-0.104268	0.309022
H779	H	0.535142	0.229065	0.642356
H780	H	0.868475	0.562399	0.975689
H781	H	0.248835	-0.070450	0.332273
H782	H	0.582168	0.262883	0.665607
H783	H	0.915502	0.596217	0.998940
H784	H	0.230267	-0.122342	0.361513
H785	H	0.563601	0.210991	0.694846
H786	H	0.896934	0.544325	1.028180
H787	H	0.596991	-0.268541	0.473056
H788	H	0.930325	0.064792	0.806389
H789	H	1.263658	0.398125	1.139722
O790	O	0.481885	-0.159956	0.273254
O791	O	0.815218	0.173378	0.606587
O792	O	1.148551	0.506711	0.939920
C793	C	0.509021	-0.185576	0.302217
C794	C	0.842354	0.147758	0.635550
C795	C	1.175687	0.481091	0.968883
H796	H	0.494856	-0.220963	0.304927
H797	H	0.828189	0.112370	0.638261
H798	H	1.161523	0.445704	0.971594
H799	H	0.509574	-0.169379	0.336820
H800	H	0.842907	0.163954	0.670153
H801	H	1.176240	0.497288	1.003486
H802	H	0.544574	-0.187101	0.288324
H803	H	0.877907	0.146232	0.621657
H804	H	1.211241	0.479566	0.954991
O805	O	-0.090729	-0.273042	0.159735
O806	O	0.242604	0.060291	0.493069
O807	O	0.575937	0.393625	0.826402
C808	C	-0.121530	-0.298353	0.134331
C809	C	0.211803	0.034981	0.467664
C810	C	0.545137	0.368314	0.800997
H811	H	-0.154967	-0.299932	0.152736
H812	H	0.178366	0.033401	0.486070
H813	H	0.511699	0.366735	0.819403
H814	H	-0.108007	-0.333743	0.129473
H815	H	0.225326	-0.000410	0.462806
H816	H	0.558660	0.332924	0.796139
H817	H	-0.126522	-0.281851	0.100241
H818	H	0.206811	0.051483	0.433575
H819	H	0.540145	0.384816	0.766908
O820	O	0.592567	-1.048623	0.273148
O821	O	0.925901	-0.715289	0.606481
O822	O	1.259234	-0.381956	0.939814
C823	C	0.567177	-1.017869	0.298469
C824	C	0.900511	-0.684535	0.631802
C825	C	1.233844	-0.351202	0.965135
H826	H	0.585571	-0.984405	0.300036
H827	H	0.918904	-0.651072	0.633369
H828	H	1.252237	-0.317738	0.966703
H829	H	0.562364	-1.031412	0.333863
H830	H	0.895697	-0.698079	0.667196
H831	H	1.229030	-0.364745	1.000529
H832	H	0.533068	-1.012920	0.281984
H833	H	0.866401	-0.679587	0.615317
H834	H	1.199734	-0.346253	0.948650
H835	H	0.036515	-0.135705	0.297486
H836	H	0.369848	0.197628	0.630819
H837	H	0.703181	0.530962	0.964153
H838	H	0.036347	-0.297170	0.135480
H839	H	0.369680	0.036163	0.468813
H840	H	0.703014	0.369497	0.802146
O841	O	0.592392	-0.476235	0.273097
O842	O	0.925726	-0.142902	0.606430
O843	O	1.259059	0.190431	0.939764
C844	C	0.566998	-0.445485	0.298417
C845	C	0.900331	-0.112151	0.631750
C846	C	1.233664	0.221182	0.965084
H847	H	0.585384	-0.412018	0.299981
H848	H	0.918718	-0.078684	0.633315
H849	H	1.252051	0.254649	0.966648
H850	H	0.562188	-0.459027	0.333812
H851	H	0.895521	-0.125693	0.667146
H852	H	1.228855	0.207640	1.000479
H853	H	0.532886	-0.440543	0.281933
H854	H	0.866220	-0.107210	0.615267
H855	H	1.199553	0.226123	0.948600
O856	O	0.125257	-0.131151	0.302020
O857	O	0.458590	0.202182	0.635354
O858	O	0.791923	0.535516	0.968687
C859	C	0.094511	-0.105843	0.327431
C860	C	0.427844	0.227490	0.660764
C861	C	0.761178	0.560824	0.994097
H862	H	0.061063	-0.104265	0.309031
H863	H	0.394397	0.229069	0.642364
H864	H	0.727730	0.562402	0.975697
H865	H	0.108090	-0.070452	0.332288
H866	H	0.441423	0.262881	0.665621
H867	H	0.774757	0.596215	0.998954
H868	H	0.089518	-0.122346	0.361521
H869	H	0.422852	0.210987	0.694854
H870	H	0.756185	0.544320	1.028187
O871	O	0.125115	-0.301742	0.131001
O872	O	0.458449	0.031591	0.464335
O873	O	0.791782	0.364925	0.797668
C874	C	0.113604	-0.346529	0.140736
C875	C	0.446937	-0.013196	0.474069
C876	C	0.780270	0.320138	0.807402
H877	H	0.100719	-0.348846	0.176623
H878	H	0.434052	-0.015513	0.509957
H879	H	0.767385	0.317820	0.843290
H880	H	0.144436	-0.368724	0.136823
H881	H	0.477769	-0.035391	0.470156
H882	H	0.811103	0.297943	0.803489
H883	H	0.086349	-0.358233	0.116633
H884	H	0.419682	-0.024899	0.449966
H885	H	0.753015	0.308434	0.783300
O886	O	0.734589	-0.740332	0.131147
O887	O	1.067923	-0.406999	0.464481
O888	O	1.401256	-0.073665	0.797814
C889	C	0.724799	-0.751821	0.086364
C890	C	1.058132	-0.418488	0.419697
C891	C	1.391465	-0.085154	0.753030
H892	H	0.707535	-0.785903	0.085423
H893	H	1.040868	-0.452569	0.418756
H894	H	1.374201	-0.119236	0.752089
H895	H	0.757237	-0.753407	0.066252
H896	H	1.090570	-0.420073	0.399586
H897	H	1.423904	-0.086740	0.732919
H898	H	0.701709	-0.725444	0.071203
H899	H	1.035042	-0.392111	0.404537
H900	H	1.368375	-0.058778	0.737870
O901	O	0.734640	-0.130934	0.740921
O902	O	1.067973	0.202400	1.074255
O903	O	1.401307	0.535733	1.407588
C904	C	0.760026	-0.105581	0.771701
C905	C	1.093359	0.227752	1.105034
C906	C	1.426692	0.561086	1.438368
H907	H	0.741626	-0.104023	0.805141
H908	H	1.074959	0.229310	1.138474
H909	H	1.408292	0.562644	1.471808
H910	H	0.764846	-0.070186	0.758155
H911	H	1.098179	0.263147	1.091488
H912	H	1.431512	0.596481	1.424821
H913	H	0.794133	-0.122033	0.776696
H914	H	1.127466	0.211301	1.110029
H915	H	1.460800	0.544634	1.443363
