data_functionalizedCrystal
_audit_creation_method	'MofGen! by Chris Wilmer'
_symmetry_space_group_name_H-M	'P1'
_symmetry_Int_Tables_number	1
_symmetry_cell_setting	triclinic
loop_
_symmetry_equiv_pos_as_xyz
  x,y,z
_cell_length_a	18.050591
_cell_length_b	19.121063
_cell_length_c	18.050582
_cell_angle_alpha	92.414363
_cell_angle_beta	89.978183
_cell_angle_gamma	92.465257
loop_
_atom_site_label
_atom_site_type_symbol
_atom_site_fract_x
_atom_site_fract_y
_atom_site_fract_z
Zn1	Zn	1.122683	-0.279729	-0.432630
Zn2	Zn	1.456017	0.053605	-0.099296
Zn3	Zn	1.789350	0.386938	0.234037
Zn4	Zn	1.117295	-0.397174	-0.313729
Zn5	Zn	1.450629	-0.063841	0.019604
Zn6	Zn	1.783962	0.269492	0.352938
Zn7	Zn	0.998500	-0.279733	-0.308441
Zn8	Zn	1.331834	0.053600	0.024893
Zn9	Zn	1.665167	0.386934	0.358226
Zn10	Zn	0.993155	-0.397136	-0.437863
Zn11	Zn	1.326489	-0.063802	-0.104529
Zn12	Zn	1.659822	0.269531	0.228804
O13	O	1.057909	-0.338443	-0.373165
O14	O	1.391242	-0.005110	-0.039832
O15	O	1.724575	0.328224	0.293501
O16	O	1.225892	-0.295323	-0.416880
O17	O	1.559226	0.038011	-0.083547
O18	O	1.892559	0.371344	0.249787
O19	O	1.101519	-0.381613	-0.209104
O20	O	1.434852	-0.048280	0.124230
O21	O	1.768185	0.285053	0.457563
O22	O	1.019465	-0.181448	-0.320512
O23	O	1.352799	0.151886	0.012822
O24	O	1.686132	0.485219	0.346155
O25	O	1.221934	-0.381609	-0.329524
O26	O	1.555267	-0.048276	0.003809
O27	O	1.888601	0.285058	0.337142
O28	O	1.110702	-0.181445	-0.411752
O29	O	1.444035	0.151889	-0.078419
O30	O	1.777369	0.485222	0.254914
O31	O	1.014241	-0.295330	-0.205218
O32	O	1.347574	0.038004	0.128115
O33	O	1.680907	0.371337	0.461448
O34	O	0.893867	-0.295292	-0.325586
O35	O	1.227201	0.038041	0.007747
O36	O	1.560534	0.371374	0.341081
O37	O	1.010356	-0.381543	-0.541092
O38	O	1.343689	-0.048210	-0.207759
O39	O	1.677022	0.285123	0.125574
O40	O	0.889940	-0.381548	-0.420672
O41	O	1.223274	-0.048214	-0.087338
O42	O	1.556607	0.285119	0.245995
O43	O	1.105519	-0.295285	-0.537248
O44	O	1.438852	0.038048	-0.203914
O45	O	1.772186	0.371382	0.129419
O46	O	1.096336	-0.495454	-0.334599
O47	O	1.429669	-0.162120	-0.001265
O48	O	1.763003	0.171213	0.332068
O49	O	1.005131	-0.495425	-0.425799
O50	O	1.338464	-0.162092	-0.092466
O51	O	1.671798	0.171241	0.240868
C52	C	0.864958	-0.338417	-0.373123
C53	C	1.198291	-0.005083	-0.039790
C54	C	1.531624	0.328250	0.293543
C55	C	0.782412	-0.338422	-0.373124
C56	C	1.115745	-0.005089	-0.039790
C57	C	1.449078	0.328244	0.293543
C58	C	1.049589	-0.520924	-0.381357
C59	C	1.382922	-0.187590	-0.048023
C60	C	1.716256	0.145743	0.285310
C61	C	1.046098	-0.598990	-0.384886
C62	C	1.379431	-0.265656	-0.051553
C63	C	1.712764	0.067677	0.281781
C64	C	0.585077	-0.291463	-0.321528
C65	C	0.918411	0.041871	0.011806
C66	C	1.251744	0.375204	0.345139
C67	C	0.532768	-0.355523	-0.306137
C68	C	0.866102	-0.022189	0.027197
C69	C	1.199435	0.311144	0.360530
C70	C	0.631280	-0.338444	-0.373158
C71	C	0.964614	-0.005110	-0.039825
C72	C	1.297947	0.328223	0.293509
C73	C	0.536507	-0.274406	-0.388548
C74	C	0.869840	0.058927	-0.055215
C75	C	1.203173	0.392261	0.278119
C76	C	0.485294	-0.338459	-0.373190
C77	C	0.818628	-0.005125	-0.039856
C78	C	1.151961	0.328208	0.293477
C79	C	0.580057	-0.402538	-0.357733
C80	C	0.913390	-0.069204	-0.024400
C81	C	1.246723	0.264129	0.308934
C82	C	0.583802	-0.321378	-0.440174
C83	C	0.917135	0.011956	-0.106841
C84	C	1.250468	0.345289	0.226492
C85	C	0.531513	-0.385482	-0.424811
C86	C	0.864846	-0.052149	-0.091478
C87	C	1.198179	0.281185	0.241856
C88	C	0.715379	-0.338434	-0.373138
C89	C	1.048712	-0.005101	-0.039805
C90	C	1.382046	0.328232	0.293529
C91	C	0.401197	-0.338475	-0.373210
C92	C	0.734531	-0.005142	-0.039877
C93	C	1.067864	0.328191	0.293456
C94	C	1.091980	-0.635657	-0.339100
C95	C	1.425313	-0.302323	-0.005767
C96	C	1.758647	0.031010	0.327567
C97	C	1.088701	-0.709008	-0.342423
C98	C	1.422034	-0.375675	-0.009090
C99	C	1.755368	-0.042342	0.324243
C100	C	1.039535	-0.745691	-0.391530
C101	C	1.372869	-0.412358	-0.058196
C102	C	1.706202	-0.079024	0.275137
C103	C	0.993651	-0.709019	-0.437321
C104	C	1.326985	-0.375686	-0.103987
C105	C	1.660318	-0.042352	0.229346
C106	C	0.996935	-0.635669	-0.434000
C107	C	1.330268	-0.302336	-0.100667
C108	C	1.663601	0.030998	0.232666
C109	C	1.027248	-0.967161	-0.403932
C110	C	1.360581	-0.633828	-0.070598
C111	C	1.693914	-0.300495	0.262735
C112	C	1.023966	-1.040516	-0.407247
C113	C	1.357300	-0.707183	-0.073914
C114	C	1.690633	-0.373850	0.259420
C115	C	1.119017	-1.040501	-0.312350
C116	C	1.452351	-0.707167	0.020983
C117	C	1.785684	-0.373834	0.354316
C118	C	1.122293	-0.967149	-0.309031
C119	C	1.455627	-0.633816	0.024302
C120	C	1.788960	-0.300482	0.357635
C121	C	1.076412	-0.930483	-0.354825
C122	C	1.409745	-0.597150	-0.021492
C123	C	1.743079	-0.263817	0.311842
C124	C	1.036181	-0.820668	-0.394926
C125	C	1.369514	-0.487335	-0.061593
C126	C	1.702847	-0.154001	0.271740
C127	C	1.079771	-0.855508	-0.351432
C128	C	1.413104	-0.522174	-0.018098
C129	C	1.746437	-0.188841	0.315235
C130	C	1.251613	-0.338470	-0.373208
C131	C	1.584946	-0.005136	-0.039875
C132	C	1.918280	0.328197	0.293458
C133	C	1.334158	-0.338481	-0.373227
C134	C	1.667491	-0.005148	-0.039893
C135	C	2.000825	0.328186	0.293440
C136	C	1.057942	-0.338409	-0.566870
C137	C	1.391275	-0.005076	-0.233536
C138	C	1.724609	0.328257	0.099797
C139	C	1.057956	-0.338395	-0.649415
C140	C	1.391290	-0.005062	-0.316081
C141	C	1.724623	0.328271	0.017252
C142	C	1.066281	-0.155250	-0.364958
C143	C	1.399614	0.178084	-0.031625
C144	C	1.732948	0.511417	0.301708
C145	C	1.069849	-0.077183	-0.361461
C146	C	1.403182	0.256150	-0.028128
C147	C	1.736515	0.589483	0.305206
C148	C	1.006256	-0.385226	-0.900328
C149	C	1.339590	-0.051893	-0.566995
C150	C	1.672923	0.281441	-0.233661
C151	C	0.991005	-0.321164	-0.848053
C152	C	1.324339	0.012170	-0.514720
C153	C	1.657672	0.345503	-0.181386
C154	C	1.058024	-0.338292	-0.946531
C155	C	1.391357	-0.004959	-0.613197
C156	C	1.724691	0.328375	-0.279864
C157	C	1.073207	-0.402402	-0.851726
C158	C	1.406540	-0.069068	-0.518393
C159	C	1.739873	0.264265	-0.185059
C160	C	1.057989	-0.338346	-0.800548
C161	C	1.391322	-0.005013	-0.467215
C162	C	1.724655	0.328321	-0.133881
C163	C	1.042740	-0.274195	-0.895342
C164	C	1.376073	0.059138	-0.562008
C165	C	1.709406	0.392471	-0.228675
C166	C	1.124971	-0.355477	-0.899021
C167	C	1.458304	-0.022143	-0.565687
C168	C	1.791637	0.311190	-0.232354
C169	C	1.109747	-0.291370	-0.846766
C170	C	1.443081	0.041963	-0.513433
C171	C	1.776414	0.375297	-0.180100
C172	C	1.058042	-0.338262	-1.030628
C173	C	1.391376	-0.004928	-0.697294
C174	C	1.724709	0.328405	-0.363961
C175	C	1.057971	-0.338369	-0.716452
C176	C	1.391304	-0.005036	-0.383119
C177	C	1.724638	0.328298	-0.049786
C178	C	1.057920	-0.338426	-0.180213
C179	C	1.391253	-0.005092	0.153121
C180	C	1.724587	0.328241	0.486454
C181	C	1.058059	-0.338242	-0.097659
C182	C	1.391392	-0.004909	0.235674
C183	C	1.724725	0.328425	0.569008
H184	H	0.608524	-0.251775	-0.277822
H185	H	0.941858	0.081559	0.055511
H186	H	1.275191	0.414892	0.388844
Br187	Br	0.495448	-0.379603	-0.211701
Br188	Br	0.828782	-0.046269	0.121633
Br189	Br	1.162115	0.287064	0.454966
H190	H	0.996149	-0.850543	-0.434907
H191	H	1.329482	-0.517210	-0.101574
H192	H	1.662815	-0.183877	0.231759
Br193	Br	1.189030	-0.917370	-0.242394
Br194	Br	1.522363	-0.584037	0.090939
Br195	Br	1.855697	-0.250703	0.424272
Br196	Br	0.492650	-0.451785	-0.497612
Br197	Br	0.825983	-0.118451	-0.164279
Br198	Br	1.159317	0.214882	0.169054
H199	H	1.086064	-0.456596	-0.832473
H200	H	1.419398	-0.123263	-0.499140
H201	H	1.752731	0.210070	-0.165806
H202	H	0.517242	-0.220251	-0.401527
H203	H	0.850575	0.113083	-0.068194
H204	H	1.183908	0.446416	0.265140
H205	H	0.599192	-0.456716	-0.344666
H206	H	0.932525	-0.123383	-0.011333
H207	H	1.265858	0.209951	0.322000
H208	H	0.606210	-0.306912	-0.496816
H209	H	0.939544	0.026421	-0.163483
H210	H	1.272877	0.359755	0.169850
Br211	Br	0.933270	-0.451259	-0.939412
Br212	Br	1.266603	-0.117926	-0.606079
Br213	Br	1.599937	0.215408	-0.272745
H214	H	0.953623	-0.738892	-0.477307
H215	H	1.286956	-0.405559	-0.143974
H216	H	1.620289	-0.072225	0.189360
H217	H	1.132013	-0.605794	-0.299109
H218	H	1.465346	-0.272461	0.034224
H219	H	1.798679	0.060872	0.367557
H220	H	1.156373	-1.070362	-0.275069
H221	H	1.489706	-0.737028	0.058264
H222	H	1.823039	-0.403695	0.391598
Br223	Br	1.150977	-0.758768	-0.280287
Br224	Br	1.484311	-0.425435	0.053046
Br225	Br	1.817644	-0.092102	0.386380
H226	H	0.934375	-0.306647	-0.825690
H227	H	1.267709	0.026686	-0.492357
H228	H	1.601042	0.360020	-0.159024
H229	H	0.983939	-1.070382	-0.447248
H230	H	1.317272	-0.737048	-0.113915
H231	H	1.650605	-0.403715	0.219419
H232	H	0.959573	-0.605815	-0.471285
H233	H	1.292907	-0.272482	-0.137952
H234	H	1.626240	0.060851	0.195382
Br235	Br	0.964980	-0.917410	-0.466081
Br236	Br	1.298313	-0.584076	-0.132748
Br237	Br	1.631647	-0.250743	0.200586
H238	H	1.119804	-0.825638	-0.311452
H239	H	1.453138	-0.492305	0.021881
H240	H	1.786471	-0.158972	0.355215
H241	H	1.029819	-0.219985	-0.914504
H242	H	1.363152	0.113348	-0.581171
H243	H	1.696485	0.446681	-0.247837
Br244	Br	1.182695	-0.225183	-0.807906
Br245	Br	1.516029	0.108150	-0.474573
Br246	Br	1.849362	0.441483	-0.141239
H247	H	1.181583	-0.370012	-0.921400
H248	H	1.514917	-0.036679	-0.588067
H249	H	1.848250	0.296654	-0.254734
