data_functionalizedCrystal
_audit_creation_method	'MofGen! by Chris Wilmer'
_symmetry_space_group_name_H-M	'P1'
_symmetry_Int_Tables_number	1
_symmetry_cell_setting	triclinic
loop_
_symmetry_equiv_pos_as_xyz
  x,y,z
_cell_length_a	15.298068
_cell_length_b	18.101397
_cell_length_c	15.296720
_cell_angle_alpha	80.358625
_cell_angle_beta	91.645182
_cell_angle_gamma	99.679550
loop_
_atom_site_label
_atom_site_type_symbol
_atom_site_fract_x
_atom_site_fract_y
_atom_site_fract_z
Zn1	Zn	1.253390	-0.220303	0.727346
Zn2	Zn	1.278658	-0.319761	0.580869
Zn3	Zn	1.132270	-0.213107	0.555514
Zn4	Zn	1.106889	-0.361277	0.701889
O5	O	1.192802	-0.278612	0.641405
O6	O	1.379317	-0.219133	0.729181
O7	O	1.280435	-0.285227	0.454946
O8	O	1.148384	-0.110428	0.578350
O9	O	1.397881	-0.292205	0.621565
O10	O	1.237371	-0.115714	0.704595
O11	O	1.172885	-0.206869	0.436317
O12	O	1.006328	-0.247125	0.553665
O13	O	1.105126	-0.362963	0.827826
O14	O	0.987681	-0.355985	0.661207
O15	O	1.212760	-0.259389	0.846529
O16	O	1.255825	-0.428902	0.596881
O17	O	1.129627	-0.459404	0.685794
C18	C	0.965222	-0.305280	0.601923
C19	C	0.867859	-0.316710	0.585053
C20	C	0.554688	-0.197106	0.761977
C21	C	0.646165	-0.186370	0.777831
C22	C	0.701593	-0.218954	0.729638
C23	C	0.665535	-0.262276	0.665588
C24	C	0.574049	-0.273018	0.649736
C25	C	0.720953	-0.294866	0.617398
C26	C	0.684895	-0.338188	0.553347
C27	C	0.593418	-0.348928	0.537498
C28	C	0.537990	-0.316344	0.585691
C29	C	0.812440	-0.284124	0.633249
C30	C	0.831800	-0.360036	0.521008
C31	C	0.740323	-0.370772	0.505154
C32	C	1.192734	-0.471024	0.641349
C33	C	1.192780	-0.553335	0.641369
C34	C	1.192878	-0.852426	0.641468
C35	C	1.272121	-0.801871	0.585312
C36	C	1.272324	-0.716254	0.585529
C37	C	1.192830	-0.704043	0.641418
C38	C	1.201867	-0.747495	0.738070
C39	C	1.202453	-0.833017	0.737791
C40	C	1.104280	-0.827863	0.601739
C41	C	1.105095	-0.741816	0.599758
C42	C	1.192800	-0.620184	0.641395
C43	C	1.192909	-0.936285	0.641497
C44	C	1.421270	-0.251841	0.681041
C45	C	1.518630	-0.240432	0.697932
C46	C	1.153294	-0.316610	0.869845
C47	C	1.136458	-0.332802	0.967192
C48	C	1.192890	-0.085449	0.641484
C49	C	1.192928	-0.003134	0.641517
C50	C	1.232206	-0.240703	0.413862
C51	C	1.249212	-0.224282	0.316544
C52	C	1.313164	-0.162749	1.280551
C53	C	1.328987	-0.147537	1.189089
C54	C	1.280856	-0.193851	1.133611
C55	C	1.216899	-0.255382	1.169603
C56	C	1.201078	-0.270600	1.261075
C57	C	1.168771	-0.301702	1.114134
C58	C	1.104813	-0.363233	1.150126
C59	C	1.088995	-0.378447	1.241589
C60	C	1.137127	-0.332133	1.297068
C61	C	1.184591	-0.286484	1.022662
C62	C	1.072506	-0.394335	1.003186
C63	C	1.056682	-0.409547	1.094647
H64	H	1.268523	-0.685725	0.514365
H65	H	0.776077	-0.210207	0.742548
Br66	Br	1.002214	-0.461967	1.290437
Br67	Br	1.378488	-0.099909	1.355847
Br68	Br	1.307650	-0.704216	0.791401
Br69	Br	0.695094	-0.127585	0.864759
Br70	Br	0.691377	-0.429563	0.418229
Br71	Br	0.479461	-0.152905	0.827388
Br72	Br	1.415785	-0.064036	1.140249
Br73	Br	1.381477	-0.828597	0.630831
Br74	Br	0.907015	-0.404266	0.455605
H75	H	1.092971	-0.841173	0.531645
Br76	Br	0.544484	-0.407721	0.450571
Br77	Br	0.969885	-0.493050	1.143505
Br78	Br	0.413838	-0.330908	0.564171
H79	H	1.266738	-0.848329	0.769578
H80	H	1.268544	-0.812890	0.513977
H81	H	1.146391	-0.867968	0.781943
Br82	Br	1.115657	-0.352779	1.421201
H83	H	1.338277	-0.690267	0.613086
H84	H	1.033315	-0.432049	0.958015
H85	H	1.145221	-0.741372	0.781726
Br86	Br	1.003547	-0.729249	0.660787
Br87	Br	0.861364	-0.225332	0.720173
H88	H	1.097991	-0.712453	0.528551
H89	H	1.045435	-0.862258	0.642444
Br90	Br	1.271389	-0.202982	0.973827
H91	H	1.293744	-0.181461	1.059139
