data_functionalizedCrystal
_audit_creation_method	'MofGen! by Chris Wilmer'
_symmetry_space_group_name_H-M	'P1'
_symmetry_Int_Tables_number	1
_symmetry_cell_setting	triclinic
loop_
_symmetry_equiv_pos_as_xyz
  x,y,z
_cell_length_a	17.699083
_cell_length_b	27.731996
_cell_length_c	16.176319
_cell_angle_alpha	89.999539
_cell_angle_beta	89.997690
_cell_angle_gamma	82.952202
loop_
_atom_site_label
_atom_site_type_symbol
_atom_site_fract_x
_atom_site_fract_y
_atom_site_fract_z
O1	O	1.003520	0.061119	0.068642
O2	O	1.336853	0.394453	0.401975
O3	O	1.670186	0.727786	0.735308
O4	O	0.783069	0.069072	0.068670
O5	O	1.116402	0.402406	0.402003
O6	O	1.449735	0.735739	0.735337
O7	O	0.900161	-0.005278	0.068637
O8	O	1.233495	0.328055	0.401970
O9	O	1.566828	0.661389	0.735304
O10	O	0.886427	0.135470	0.068675
O11	O	1.219760	0.468803	0.402008
O12	O	1.553094	0.802136	0.735341
O13	O	0.900150	-0.005265	-0.068856
O14	O	1.233484	0.328069	0.264477
O15	O	1.566817	0.661402	0.597811
O16	O	0.783057	0.069086	-0.068823
O17	O	1.116391	0.402419	0.264510
O18	O	1.449724	0.735752	0.597844
O19	O	1.003508	0.061133	-0.068852
O20	O	1.336842	0.394466	0.264482
O21	O	1.670175	0.727800	0.597815
Cu22	Cu	0.893282	0.065111	-0.081392
Cu23	Cu	1.226615	0.398444	0.251942
Cu24	Cu	1.559949	0.731777	0.585275
Cu25	Cu	0.893295	0.065095	0.081210
Cu26	Cu	1.226629	0.398428	0.414543
Cu27	Cu	1.559962	0.731761	0.747877
O28	O	0.886416	0.135483	-0.068819
O29	O	1.219749	0.468817	0.264515
O30	O	1.553082	0.802150	0.597848
C31	C	0.754869	0.068794	-0.000073
C32	C	1.088202	0.402127	0.333260
C33	C	1.421535	0.735461	0.666594
C34	C	0.670858	0.067939	-0.000063
C35	C	1.004192	0.401273	0.333270
C36	C	1.337525	0.734606	0.666604
C37	C	0.899874	-0.023280	-0.000112
C38	C	1.233207	0.310054	0.333221
C39	C	1.566540	0.643387	0.666554
C40	C	0.899024	-0.076939	-0.000121
C41	C	1.232357	0.256394	0.333213
C42	C	1.565691	0.589728	0.666546
C43	C	0.621840	0.111581	-0.000052
C44	C	0.955173	0.444915	0.333282
C45	C	1.288507	0.778248	0.666615
C46	C	0.542904	0.110775	-0.000063
C47	C	0.876237	0.444108	0.333271
C48	C	1.209571	0.777442	0.666604
C49	C	0.512988	0.066326	-0.000079
C50	C	0.846321	0.399660	0.333254
C51	C	1.179655	0.732993	0.666588
C52	C	0.562013	0.022681	-0.000093
C53	C	0.895346	0.356014	0.333240
C54	C	1.228679	0.689348	0.666574
C55	C	0.640947	0.023488	-0.000088
C56	C	0.974281	0.356821	0.333245
C57	C	1.307614	0.690154	0.666579
C58	C	0.243679	0.019427	-0.000114
C59	C	0.577013	0.352760	0.333219
C60	C	0.910346	0.686093	0.666553
C61	C	0.164739	0.018623	-0.000117
C62	C	0.498072	0.351957	0.333217
C63	C	0.831405	0.685290	0.666550
C64	C	0.145636	0.106714	-0.000089
C65	C	0.478969	0.440048	0.333244
C66	C	0.812303	0.773381	0.666578
C67	C	0.224571	0.107521	-0.000084
C68	C	0.557904	0.440854	0.333249
C69	C	0.891237	0.774188	0.666583
C70	C	0.273588	0.063876	-0.000102
C71	C	0.606922	0.397209	0.333231
C72	C	0.940255	0.730542	0.666565
C73	C	0.359180	0.064750	-0.000092
C74	C	0.692513	0.398084	0.333241
C75	C	1.025846	0.731417	0.666575
C76	C	0.427398	0.065451	-0.000083
C77	C	0.760732	0.398785	0.333250
C78	C	1.094065	0.732118	0.666583
C79	C	0.893683	-0.409682	0.074868
C80	C	1.227017	-0.076348	0.408201
C81	C	1.560350	0.256985	0.741535
C82	C	0.890456	-0.611352	0.074883
C83	C	1.223790	-0.278018	0.408216
C84	C	1.557123	0.055315	0.741550
O85	O	0.890012	-0.637430	0.138624
O86	O	1.223345	-0.304097	0.471957
O87	O	1.556678	0.029237	0.805290
N88	N	0.890049	-0.636563	-0.000064
N89	N	1.223383	-0.303230	0.333270
N90	N	1.556716	0.030104	0.666603
C91	C	0.890444	-0.611353	-0.075020
C92	C	1.223778	-0.278020	0.258314
C93	C	1.557111	0.055314	0.591647
O94	O	0.890016	-0.637424	-0.138766
O95	O	1.223350	-0.304090	0.194567
O96	O	1.556683	0.029243	0.527901
C97	C	0.893666	-0.409684	-0.075034
C98	C	1.226999	-0.076350	0.258300
C99	C	1.560332	0.256983	0.591633
C100	C	0.894080	-0.384476	-0.000082
C101	C	1.227414	-0.051142	0.333251
C102	C	1.560747	0.282191	0.666585
C103	C	0.894097	-0.384474	0.149814
C104	C	1.227431	-0.051140	0.483147
C105	C	1.560764	0.282193	0.816480
C106	C	0.894908	-0.334060	0.149809
C107	C	1.228241	-0.000726	0.483142
C108	C	1.561575	0.332607	0.816476
C109	C	0.895305	-0.308854	0.074859
C110	C	1.228638	0.024480	0.408192
C111	C	1.561972	0.357813	0.741526
C112	C	0.894891	-0.334062	-0.000087
C113	C	1.228225	-0.000728	0.333247
C114	C	1.561558	0.332605	0.666580
C115	C	0.894055	-0.384475	-0.149989
C116	C	1.227389	-0.051141	0.183345
C117	C	1.560722	0.282192	0.516678
C118	C	0.894859	-0.334054	-0.149986
C119	C	1.228192	-0.000720	0.183348
C120	C	1.561525	0.332613	0.516681
C121	C	0.895273	-0.308846	-0.075034
C122	C	1.228607	0.024488	0.258299
C123	C	1.561940	0.357821	0.591633
C124	C	0.896099	-0.258442	-0.075041
C125	C	1.229433	0.074892	0.258292
C126	C	1.562766	0.408225	0.591626
N127	N	0.896506	-0.233230	-0.000094
N128	N	1.229840	0.100103	0.333239
N129	N	1.563173	0.433436	0.666572
C130	C	0.896109	-0.258436	0.074856
C131	C	1.229443	0.074897	0.408189
C132	C	1.562776	0.408230	0.741522
C133	C	0.888754	-0.717233	-0.075007
C134	C	1.222088	-0.383899	0.258326
C135	C	1.555421	-0.050566	0.591660
C136	C	0.887950	-0.767650	-0.075004
C137	C	1.221284	-0.434316	0.258330
C138	C	1.554617	-0.100983	0.591663
C139	C	0.887961	-0.767645	0.074899
C140	C	1.221294	-0.434311	0.408233
C141	C	1.554628	-0.100978	0.741566
C142	C	0.888771	-0.717227	0.074895
C143	C	1.222104	-0.383894	0.408228
C144	C	1.555437	-0.050560	0.741562
C145	C	0.889161	-0.692021	-0.000060
C146	C	1.222495	-0.358688	0.333273
C147	C	1.555828	-0.025355	0.666606
C148	C	0.897813	-0.152563	0.074841
C149	C	1.231146	0.180770	0.408174
C150	C	1.564479	0.514103	0.741507
C151	C	0.898627	-0.102145	0.074829
C152	C	1.231960	0.231188	0.408163
C153	C	1.565293	0.564522	0.741496
C154	C	0.898612	-0.102154	-0.075073
C155	C	1.231945	0.231179	0.258260
C156	C	1.565279	0.564513	0.591594
C157	C	0.897802	-0.152568	-0.075062
C158	C	1.231135	0.180765	0.258271
C159	C	1.564469	0.514098	0.591604
C160	C	0.897400	-0.177771	-0.000099
C161	C	1.230733	0.155562	0.333234
C162	C	1.564066	0.488895	0.666568
O163	O	0.896536	-0.232331	-0.138748
O164	O	1.229869	0.101002	0.194585
O165	O	1.563202	0.434335	0.527918
O166	O	0.896520	-0.232356	0.138593
O167	O	1.229854	0.100978	0.471926
O168	O	1.563187	0.434311	0.805259
C169	C	0.892873	-0.460096	0.074872
C170	C	1.226206	-0.126763	0.408206
C171	C	1.559539	0.206571	0.741539
C172	C	0.892459	-0.485304	-0.000073
C173	C	1.225792	-0.151971	0.333260
C174	C	1.559125	0.181363	0.666594
C175	C	0.892856	-0.460098	-0.075023
C176	C	1.226189	-0.126765	0.258310
C177	C	1.559522	0.206569	0.591644
C178	C	0.891655	-0.535721	-0.000070
C179	C	1.224988	-0.202388	0.333264
C180	C	1.558321	0.130945	0.666597
C181	C	0.891258	-0.560927	0.074880
C182	C	1.224591	-0.227594	0.408214
C183	C	1.557924	0.105739	0.741547
C184	C	0.891665	-0.535716	0.149827
C185	C	1.224998	-0.202383	0.483160
C186	C	1.558331	0.130951	0.816494
C187	C	0.892475	-0.485302	0.149823
C188	C	1.225809	-0.151969	0.483156
C189	C	1.559142	0.181365	0.816489
C190	C	0.892449	-0.485309	-0.149970
C191	C	1.225782	-0.151976	0.183363
C192	C	1.559116	0.181357	0.516697
C193	C	0.891639	-0.535723	-0.149959
C194	C	1.224972	-0.202390	0.183374
C195	C	1.558306	0.130943	0.516707
C196	C	0.891242	-0.560929	-0.075009
C197	C	1.224575	-0.227596	0.258324
C198	C	1.557908	0.105737	0.591657
C199	C	1.031708	0.061411	-0.000107
C200	C	1.365042	0.394744	0.333227
C201	C	1.698375	0.728078	0.666560
C202	C	1.115719	0.062266	-0.000111
C203	C	1.449052	0.395599	0.333222
C204	C	1.782385	0.728933	0.666555
C205	C	0.886703	0.153485	-0.000067
C206	C	1.220037	0.486818	0.333266
C207	C	1.553370	0.820152	0.666599
C208	C	0.887553	0.207144	-0.000054
C209	C	1.220887	0.540478	0.333280
C210	C	1.554220	0.873811	0.666613
N211	N	0.893278	0.065121	-0.195757
N212	N	1.226611	0.398455	0.137577
N213	N	1.559945	0.731788	0.470910
C214	C	0.847754	0.035803	-0.761149
C215	C	1.181088	0.369136	-0.427815
C216	C	1.514421	0.702470	-0.094482
C217	C	0.847753	0.035807	-0.674602
C218	C	1.181086	0.369140	-0.341268
C219	C	1.514419	0.702473	-0.007935
C220	C	0.893299	0.065090	-0.631332
C221	C	1.226632	0.398424	-0.297999
C222	C	1.559965	0.731757	0.035335
C223	C	0.938855	0.094369	-0.674614
C224	C	1.272188	0.427702	-0.341281
C225	C	1.605521	0.761035	-0.007948
C226	C	0.938860	0.094362	-0.761160
C227	C	1.272193	0.427695	-0.427826
C228	C	1.605527	0.761029	-0.094493
C229	C	0.938836	0.094396	-0.325586
C230	C	1.272169	0.427729	0.007747
C231	C	1.605502	0.761063	0.341081
C232	C	0.938825	0.094401	-0.239034
C233	C	1.272159	0.427735	0.094299
C234	C	1.605492	0.761068	0.427632
C235	C	0.847729	0.035841	-0.239028
C236	C	1.181062	0.369174	0.094306
C237	C	1.514395	0.702507	0.427639
C238	C	0.847734	0.035834	-0.325573
C239	C	1.181067	0.369167	0.007760
C240	C	1.514400	0.702501	0.341093
C241	C	0.893293	0.065110	-0.368848
C242	C	1.226626	0.398443	-0.035515
C243	C	1.559959	0.731777	0.297819
C244	C	0.893295	0.065105	-0.462692
C245	C	1.226628	0.398438	-0.129359
C246	C	1.559962	0.731772	0.203975
C247	C	0.893293	0.065099	-0.537490
C248	C	1.226626	0.398432	-0.204156
C249	C	1.559959	0.731765	0.129177
N250	N	0.893305	0.065080	0.195575
N251	N	1.226639	0.398413	0.528909
N252	N	1.559972	0.731747	0.862242
H253	H	0.646191	0.147777	-0.000038
H254	H	0.979524	0.481110	0.333296
H255	H	1.312857	0.814443	0.666629
H256	H	0.810634	0.012001	-0.203783
H257	H	1.143968	0.345335	0.129550
H258	H	1.477301	0.678668	0.462883
Cl259	Cl	0.790462	-0.000985	-0.620201
Cl260	Cl	1.123795	0.332348	-0.286868
Cl261	Cl	1.457128	0.665682	0.046466
Cl262	Cl	0.889289	-0.685542	0.169123
Cl263	Cl	1.222623	-0.352209	0.502457
Cl264	Cl	1.555956	-0.018875	0.835790
Cl265	Cl	0.262174	0.163401	-0.000059
Cl266	Cl	0.595508	0.496735	0.333275
Cl267	Cl	0.928841	0.830068	0.666608
Cl268	Cl	0.524404	-0.033198	-0.000119
Cl269	Cl	0.857737	0.300135	0.333215
Cl270	Cl	1.191071	0.633469	0.666548
H271	H	0.810643	0.011990	-0.360799
H272	H	1.143976	0.345323	-0.027466
H273	H	1.477309	0.678657	0.305868
Cl274	Cl	0.996088	0.131218	-0.184639
Cl275	Cl	1.329421	0.464551	0.148694
Cl276	Cl	1.662754	0.797885	0.482027
Cl277	Cl	0.887457	-0.799341	0.169122
Cl278	Cl	1.220791	-0.466008	0.502455
Cl279	Cl	1.554124	-0.132674	0.835788
H280	H	0.105716	0.142252	-0.000079
H281	H	0.439049	0.475586	0.333255
H282	H	0.772383	0.808919	0.666588
Cl283	Cl	0.702571	-0.031379	-0.000106
Cl284	Cl	1.035905	0.301954	0.333228
Cl285	Cl	1.369238	0.635288	0.666561
H286	H	0.895166	-0.313533	-0.211025
H287	H	1.228499	0.019800	0.122309
H288	H	1.561832	0.353134	0.455642
H289	H	0.897471	-0.173094	-0.136094
H290	H	1.230805	0.160239	0.197239
H291	H	1.564138	0.493572	0.530573
H292	H	0.283581	-0.016112	-0.000130
H293	H	0.616914	0.317221	0.333204
H294	H	0.950247	0.650555	0.666537
Cl295	Cl	0.892942	-0.453629	-0.244203
Cl296	Cl	1.226276	-0.120296	0.089130
Cl297	Cl	1.559609	0.213038	0.422464
H298	H	0.892813	-0.464782	0.210856
H299	H	1.226146	-0.131449	0.544189
H300	H	1.559479	0.201885	0.877523
Cl301	Cl	0.895422	-0.302376	0.244039
Cl302	Cl	1.228755	0.030957	0.577373
Cl303	Cl	1.562089	0.364290	0.910706
Cl304	Cl	0.481283	0.165642	-0.000043
Cl305	Cl	0.814617	0.498975	0.333290
Cl306	Cl	1.147950	0.832309	0.666624
Cl307	Cl	0.887444	-0.799335	-0.169233
Cl308	Cl	1.220777	-0.466002	0.164101
Cl309	Cl	1.554110	-0.132668	0.497434
Cl310	Cl	0.899111	-0.070457	-0.169291
Cl311	Cl	1.232444	0.262876	0.164042
Cl312	Cl	1.565778	0.596210	0.497376
Cl313	Cl	0.127132	-0.037259	-0.000138
Cl314	Cl	0.460465	0.296074	0.333195
Cl315	Cl	0.793799	0.629407	0.666529
Cl316	Cl	0.899150	-0.070458	0.169062
Cl317	Cl	1.232483	0.262875	0.502395
Cl318	Cl	1.565817	0.596208	0.835728
H319	H	0.975932	0.118235	-0.360810
H320	H	1.309265	0.451568	-0.027476
H321	H	1.642599	0.784901	0.305857
H322	H	0.810661	0.011959	-0.796372
H323	H	1.143995	0.345293	-0.463039
H324	H	1.477328	0.678626	-0.129706
Cl325	Cl	0.897309	-0.184239	0.169082
Cl326	Cl	1.230642	0.149094	0.502415
Cl327	Cl	1.563975	0.482427	0.835748
Cl328	Cl	0.996117	0.131180	-0.620218
Cl329	Cl	1.329450	0.464514	-0.286885
Cl330	Cl	1.662783	0.797847	0.046449
Cl331	Cl	0.996130	0.131167	-0.815564
Cl332	Cl	1.329463	0.464500	-0.482231
Cl333	Cl	1.662797	0.797833	-0.148898
H334	H	0.893771	-0.404991	0.210850
H335	H	1.227104	-0.071657	0.544184
H336	H	1.560438	0.261676	0.877517
H337	H	0.889076	-0.696715	-0.136048
H338	H	1.222410	-0.363382	0.197285
H339	H	1.555743	-0.030048	0.530619
H340	H	0.893719	-0.404990	-0.211023
H341	H	1.227052	-0.071657	0.122311
H342	H	1.560385	0.261676	0.455644
H343	H	0.891307	-0.556244	-0.210999
H344	H	1.224640	-0.222911	0.122335
H345	H	1.557974	0.110423	0.455668
Cl346	Cl	0.891169	-0.567413	0.244049
Cl347	Cl	1.224502	-0.234080	0.577382
Cl348	Cl	1.557836	0.099253	0.910716
