data_functionalizedCrystal
_audit_creation_method	'MofGen! by Chris Wilmer'
_symmetry_space_group_name_H-M	'P1'
_symmetry_Int_Tables_number	1
_symmetry_cell_setting	triclinic
loop_
_symmetry_equiv_pos_as_xyz
  x,y,z
_cell_length_a	13.897449
_cell_length_b	12.594516
_cell_length_c	13.897441
_cell_angle_alpha	89.972920
_cell_angle_beta	89.978743
_cell_angle_gamma	90.012642
loop_
_atom_site_label
_atom_site_type_symbol
_atom_site_fract_x
_atom_site_fract_y
_atom_site_fract_z
Zn1	Zn	1.474722	-0.423695	-0.545467
Zn2	Zn	1.974722	0.076305	-0.045467
Zn3	Zn	1.474638	-0.601703	-0.384175
Zn4	Zn	1.974638	-0.101703	0.115825
Zn5	Zn	1.313417	-0.423741	-0.384178
Zn6	Zn	1.813417	0.076259	0.115822
Zn7	Zn	1.313409	-0.601634	-0.545420
Zn8	Zn	1.813409	-0.101634	-0.045420
O9	O	1.394046	-0.512693	-0.464810
O10	O	1.894046	-0.012693	0.035190
O11	O	1.609692	-0.447317	-0.524090
O12	O	2.109692	0.052683	-0.024090
O13	O	1.453220	-0.578144	-0.249194
O14	O	1.953220	-0.078144	0.250806
O15	O	1.334852	-0.274789	-0.405593
O16	O	1.834852	0.225211	0.094407
O17	O	1.609631	-0.578099	-0.405589
O18	O	2.109631	-0.078099	0.094411
O19	O	1.453362	-0.274755	-0.524092
O20	O	1.953362	0.225245	-0.024092
O21	O	1.334772	-0.447396	-0.249196
O22	O	1.834772	0.052604	0.250804
O23	O	1.178434	-0.447330	-0.405548
O24	O	1.678434	0.052670	0.094452
O25	O	1.334839	-0.577982	-0.680408
O26	O	1.834839	-0.077982	-0.180408
O27	O	1.178428	-0.578027	-0.524013
O28	O	1.678428	-0.078027	-0.024013
O29	O	1.453355	-0.447251	-0.680442
O30	O	1.953355	0.052749	-0.180442
O31	O	1.453213	-0.750639	-0.405544
O32	O	1.953213	-0.250639	0.094456
O33	O	1.334758	-0.750589	-0.524011
O34	O	1.834758	-0.250589	-0.024011
C35	C	1.143432	-0.512677	-0.464776
C36	C	1.643432	-0.012677	0.035224
C37	C	1.036218	-0.512695	-0.464785
C38	C	1.536218	-0.012695	0.035215
C39	C	1.394002	-0.789234	-0.464793
C40	C	1.894002	-0.289234	0.035207
C41	C	1.394071	-0.907540	-0.464818
C42	C	1.894071	-0.407540	0.035182
C43	C	0.949148	-0.512699	-0.464801
C44	C	1.449148	-0.012699	0.035199
C45	C	0.839916	-0.512706	-0.464830
C46	C	1.339916	-0.012706	0.035170
C47	C	1.458573	-0.976781	-0.400453
C48	C	1.958573	-0.476781	0.099547
C49	C	1.482143	-1.047479	-0.488495
C50	C	1.982143	-0.547479	0.011505
C51	C	1.370621	-1.047641	-0.376833
C52	C	1.870621	-0.547641	0.123167
C53	C	1.417686	-0.976679	-0.552906
C54	C	1.917686	-0.476679	-0.052906
C55	C	1.306123	-0.976835	-0.441184
C56	C	1.806123	-0.476835	0.058816
C57	C	1.329660	-1.047500	-0.529287
C58	C	1.829660	-0.547500	-0.029287
C59	C	1.645639	-0.512710	-0.464844
C60	C	2.145639	-0.012710	0.035156
C61	C	1.752853	-0.512718	-0.464859
C62	C	2.252853	-0.012718	0.035141
C63	C	1.394105	-0.512604	-0.716403
C64	C	1.894105	-0.012604	-0.216403
C65	C	1.394131	-0.512566	-0.823617
C66	C	1.894131	-0.012566	-0.323617
C67	C	1.394118	-0.235072	-0.464848
C68	C	1.894118	0.264928	0.035152
C69	C	1.394148	-0.116767	-0.464864
C70	C	1.894148	0.383233	0.035136
C71	C	1.394150	-0.512536	-0.910687
C72	C	1.894150	-0.012536	-0.410687
C73	C	1.394178	-0.512488	-1.019920
C74	C	1.894178	-0.012488	-0.519920
C75	C	1.394043	-0.512705	-0.214196
C76	C	1.894043	-0.012705	0.285804
C77	C	1.394205	-0.512444	-0.106982
C78	C	1.894205	-0.012444	0.393018
H79	H	1.513129	-0.945729	-0.346071
H80	H	2.013129	-0.445729	0.153929
H81	H	1.350756	-1.078810	-0.302405
H82	H	1.850756	-0.578810	0.197595
F83	F	1.208890	-0.936246	-0.414992
F84	F	1.708890	-0.436246	0.085008
H85	H	1.556551	-1.078513	-0.508511
H86	H	2.056551	-0.578513	-0.008511
H87	H	1.437478	-0.945641	-0.627398
H88	H	1.937478	-0.445641	-0.127398
H89	H	1.275146	-1.078356	-0.583801
H90	H	1.775146	-0.578356	-0.083801
