data_functionalizedCrystal
_audit_creation_method	'MofGen! by Chris Wilmer'
_symmetry_space_group_name_H-M	'P1'
_symmetry_Int_Tables_number	1
_symmetry_cell_setting	triclinic
loop_
_symmetry_equiv_pos_as_xyz
  x,y,z
_cell_length_a	25.639243
_cell_length_b	25.639239
_cell_length_c	14.908794
_cell_angle_alpha	86.718037
_cell_angle_beta	86.711216
_cell_angle_gamma	90.041410
loop_
_atom_site_label
_atom_site_type_symbol
_atom_site_fract_x
_atom_site_fract_y
_atom_site_fract_z
Zn1	Zn	0.782113	-0.225268	0.510130
Zn2	Zn	1.282113	0.274732	1.010130
Zn3	Zn	0.787097	-0.307632	0.359267
Zn4	Zn	1.287097	0.192368	0.859267
Zn5	Zn	0.699749	-0.220217	0.359283
Zn6	Zn	1.199749	0.279783	0.859283
Zn7	Zn	0.694636	-0.312676	0.510067
Zn8	Zn	1.194636	0.187324	1.010067
O9	O	0.740899	-0.266448	0.434687
O10	O	1.240899	0.233552	0.934687
O11	O	0.855939	-0.236196	0.490137
O12	O	1.355939	0.263804	0.990137
O13	O	0.779736	-0.291812	0.233028
O14	O	1.279736	0.208188	0.733028
O15	O	0.710729	-0.147723	0.379326
O16	O	1.210729	0.352277	0.879326
O17	O	0.859600	-0.296709	0.379299
O18	O	1.359600	0.203291	0.879299
O19	O	0.771241	-0.151434	0.490153
O20	O	1.271241	0.348566	0.990153
O21	O	0.715562	-0.227588	0.233040
O22	O	1.215562	0.272412	0.733040
O23	O	0.625907	-0.232479	0.379265
O24	O	1.125907	0.267521	0.879265
O25	O	0.702015	-0.305306	0.636316
O26	O	1.202015	0.194694	1.136316
O27	O	0.622150	-0.300408	0.490046
O28	O	1.122150	0.199592	0.990046
O29	O	0.766283	-0.241087	0.636362
O30	O	1.266283	0.258913	1.136362
O31	O	0.774778	-0.381465	0.379238
O32	O	1.274778	0.118535	0.879238
O33	O	0.706848	-0.385171	0.490031
O34	O	1.206848	0.114829	0.990031
C35	C	0.605058	-0.266443	0.434651
C36	C	1.105058	0.233557	0.934651
C37	C	0.546943	-0.266455	0.434657
C38	C	1.046943	0.233545	0.934657
C39	C	0.740812	-0.402289	0.434645
C40	C	1.240812	0.097711	0.934645
C41	C	0.740822	-0.460404	0.434658
C42	C	1.240822	0.039596	0.934658
C43	C	0.184664	-0.234995	0.492497
C44	C	0.684664	0.265005	0.992497
C45	C	0.130059	-0.234995	0.492502
C46	C	0.630059	0.265005	0.992502
O47	O	0.100195	-0.208235	0.541635
O48	O	0.600195	0.291765	1.041635
N49	N	0.104659	-0.266447	0.434712
N50	N	0.604659	0.233553	0.934712
C51	C	0.133867	-0.297899	0.376905
C52	C	0.633867	0.202101	0.876905
O53	O	0.107248	-0.324651	0.327750
O54	O	0.607248	0.175349	0.827750
C55	C	0.188470	-0.297896	0.376896
C56	C	0.688470	0.202104	0.876896
C57	C	0.213867	-0.266445	0.434696
C58	C	0.713867	0.233555	0.934696
C59	C	0.210061	-0.203546	0.550292
C60	C	0.710061	0.296454	1.050292
C61	C	0.264662	-0.203547	0.550287
C62	C	0.764662	0.296453	1.050287
C63	C	0.293865	-0.234997	0.492487
C64	C	0.793865	0.265003	0.992487
C65	C	0.268468	-0.266446	0.434692
C66	C	0.768468	0.233554	0.934692
C67	C	0.217677	-0.329344	0.319085
C68	C	0.717677	0.170656	0.819085
C69	C	0.272284	-0.329338	0.319080
C70	C	0.772284	0.170662	0.819080
C71	C	0.297681	-0.297887	0.376881
C72	C	0.797681	0.202113	0.876881
C73	C	0.352272	-0.297897	0.376887
C74	C	0.852272	0.202103	0.876887
N75	N	0.377672	-0.266444	0.434678
N76	N	0.877672	0.233556	0.934678
C77	C	0.348469	-0.234994	0.492478
C78	C	0.848469	0.265006	0.992478
C79	C	0.019195	-0.297902	0.376928
C80	C	0.519195	0.202098	0.876928
C81	C	-0.035408	-0.297908	0.376942
C82	C	0.464592	0.202092	0.876942
C83	C	-0.039211	-0.235003	0.492538
C84	C	0.460789	0.264997	0.992538
C85	C	0.015393	-0.235000	0.492528
C86	C	0.515393	0.265000	0.992528
C87	C	0.044595	-0.266449	0.434719
C88	C	0.544595	0.233551	0.934719
C89	C	0.463134	-0.234999	0.492464
C90	C	0.963134	0.265001	0.992464
C91	C	0.517740	-0.235005	0.492457
C92	C	1.017740	0.264995	0.992457
C93	C	0.521539	-0.297907	0.376858
C94	C	1.021539	0.202093	0.876858
C95	C	0.466938	-0.297904	0.376868
C96	C	0.966938	0.202096	0.876868
C97	C	0.437737	-0.266446	0.434674
C98	C	0.937737	0.233554	0.934674
O99	O	0.382171	-0.324641	0.327777
O100	O	0.882171	0.175359	0.827777
O101	O	0.375095	-0.208241	0.541617
O102	O	0.875095	0.291759	1.041617
C103	C	0.776354	-0.818829	0.377095
C104	C	1.276354	-0.318829	0.877095
C105	C	0.776374	-0.873434	0.377107
C106	C	1.276374	-0.373434	0.877107
O107	O	0.806495	-0.900021	0.328120
O108	O	1.306495	-0.400021	0.828120
N109	N	0.740989	-0.902689	0.434747
N110	N	1.240989	-0.402689	0.934747
C111	C	0.705585	-0.877338	0.492384
C112	C	1.205585	-0.377338	0.992384
O113	O	0.675489	-0.907236	0.541412
O114	O	1.175489	-0.407236	1.041412
C115	C	0.705568	-0.822734	0.492376
C116	C	1.205568	-0.322734	0.992376
C117	C	0.740952	-0.793481	0.434726
C118	C	1.240952	-0.293481	0.934726
C119	C	0.811736	-0.789576	0.319452
C120	C	1.311736	-0.289576	0.819452
C121	C	0.811715	-0.734975	0.319439
C122	C	1.311715	-0.234975	0.819439
C123	C	0.776313	-0.709627	0.377069
C124	C	1.276313	-0.209627	0.877069
C125	C	0.740931	-0.738880	0.434713
C126	C	1.240931	-0.238880	0.934713
C127	C	0.670167	-0.797383	0.550017
C128	C	1.170167	-0.297383	1.050017
C129	C	0.670153	-0.742776	0.550004
C130	C	1.170153	-0.242776	1.050004
C131	C	0.705537	-0.713523	0.492355
C132	C	1.205537	-0.213523	0.992355
C133	C	0.705509	-0.658931	0.492331
C134	C	1.205509	-0.158931	0.992331
N135	N	0.740894	-0.629675	0.434692
N136	N	1.240894	-0.129675	0.934692
C137	C	0.776296	-0.655023	0.377061
C138	C	1.276296	-0.155023	0.877061
C139	C	0.705624	-0.992009	0.492398
C140	C	1.205624	-0.492009	0.992398
C141	C	0.705638	-1.046611	0.492402
C142	C	1.205638	-0.546611	0.992402
C143	C	0.776428	-1.042703	0.377127
C144	C	1.276428	-0.542703	0.877127
C145	C	0.776411	-0.988100	0.377118
C146	C	1.276411	-0.488100	0.877118
C147	C	0.741009	-0.962753	0.434759
C148	C	1.241009	-0.462753	0.934759
C149	C	0.776250	-0.540358	0.377038
C150	C	1.276250	-0.040358	0.877038
C151	C	0.776224	-0.485752	0.377027
C152	C	1.276224	0.014248	0.877027
C153	C	0.705437	-0.489664	0.492305
C154	C	1.205437	0.010336	0.992305
C155	C	0.705460	-0.544265	0.492313
C156	C	1.205460	-0.044265	0.992313
C157	C	0.740871	-0.569610	0.434676
C158	C	1.240871	-0.069610	0.934676
O159	O	0.675404	-0.632308	0.541296
O160	O	1.175404	-0.132308	1.041296
O161	O	0.806391	-0.625119	0.328050
O162	O	1.306391	-0.125119	0.828050
C163	C	0.877271	-0.266453	0.434723
C164	C	1.377271	0.233547	0.934723
C165	C	0.935384	-0.266456	0.434739
C166	C	1.435384	0.233544	0.934739
C167	C	0.733023	-0.274322	0.669987
C168	C	1.233023	0.225678	1.169987
C169	C	0.729666	-0.277678	0.770259
C170	C	1.229666	0.222322	1.270259
C171	C	0.740999	-0.130077	0.434748
C172	C	1.240999	0.369923	0.934748
C173	C	0.741042	-0.071964	0.434774
C174	C	1.241042	0.428036	0.934774
C175	C	0.691476	-0.315836	0.911563
C176	C	1.191476	0.184164	1.411563
C177	C	0.694628	-0.312687	0.817350
C178	C	1.194628	0.187313	1.317350
C179	C	0.761553	-0.245814	0.817388
C180	C	1.261553	0.254186	1.317388
C181	C	0.758400	-0.248963	0.911601
C182	C	1.258400	0.251037	1.411601
C183	C	0.723361	-0.283976	0.958686
C184	C	1.223361	0.216024	1.458686
C185	C	0.720212	-0.287127	1.052901
C186	C	1.220212	0.212873	1.552901
C187	C	0.787133	-0.220252	1.052937
C188	C	1.287133	0.279748	1.552937
C189	C	0.790286	-0.217103	0.958724
C190	C	1.290286	0.282897	1.458724
C191	C	0.748741	-0.258617	1.200301
C192	C	1.248741	0.241383	1.700301
C193	C	0.752098	-0.255264	1.100030
C194	C	1.252098	0.244736	1.600030
H195	H	0.538415	-0.209393	0.539529
H196	H	1.038415	0.290607	1.039529
F197	F	0.682921	-0.324391	1.103011
F198	F	1.182921	0.175609	1.603011
F199	F	0.632510	-0.828505	0.611384
F200	F	1.132510	-0.328505	1.111384
F201	F	0.813886	-0.454621	0.315666
F202	F	1.313886	0.045379	0.815666
F203	F	0.660691	-0.346596	0.767202
F204	F	1.160691	0.153404	1.267202
H205	H	0.840529	-0.711160	0.272498
H206	H	1.340529	-0.211160	0.772498
F207	F	0.432064	-0.201518	0.553988
F208	F	0.932064	0.298482	1.053988
F209	F	0.667762	-0.462678	0.553640
F210	F	1.167762	0.037322	1.053640
H211	H	0.790077	-0.217306	0.779035
H212	H	1.290077	0.282694	1.279035
H213	H	0.805086	-0.560987	0.330106
H214	H	1.305086	-0.060987	0.830106
H215	H	0.285335	-0.177936	0.597353
H216	H	0.785335	0.322064	1.097353
F217	F	0.849420	-0.816545	0.258109
F218	F	1.349420	-0.316545	0.758109
H219	H	0.186289	-0.177933	0.597360
H220	H	0.686289	0.322067	1.097360
H221	H	0.197008	-0.354954	0.272017
H222	H	0.697008	0.145046	0.772017
F223	F	0.827566	-0.179833	0.908603
F224	F	1.327566	0.320167	1.408603
H225	H	0.662949	-0.344348	0.949900
H226	H	1.162949	0.155652	1.449900
F227	F	0.667791	-0.575399	0.553653
F228	F	1.167791	-0.075399	1.053653
H229	H	0.036067	-0.209389	0.539593
H230	H	0.536067	0.290611	1.039593
H231	H	0.813097	-0.194310	1.091314
H232	H	1.313097	0.305690	1.591314
F233	F	0.814071	-0.956971	0.315761
F234	F	1.314071	-0.456971	0.815761
H235	H	0.446258	-0.323520	0.329812
H236	H	0.946258	0.176480	0.829812
H237	H	-0.062998	-0.209393	0.539600
H238	H	0.437002	0.290607	1.039600
F239	F	0.814106	-1.069690	0.315789
F240	F	1.314106	-0.569690	0.815789
H241	H	-0.056081	-0.323524	0.329884
H242	H	0.443919	0.176476	0.829884
F243	F	0.667972	-1.077738	0.553750
F244	F	1.167972	-0.577738	1.053750
H245	H	0.676791	-0.971374	0.539333
H246	H	1.176791	-0.471374	1.039333
F247	F	0.050270	-0.331379	0.315400
F248	F	0.550270	0.168621	0.815400
H249	H	0.296058	-0.354947	0.272002
H250	H	0.796058	0.145053	0.772002
H251	H	0.641325	-0.722142	0.596945
H252	H	1.141325	-0.222142	1.096945
H253	H	0.545326	-0.323514	0.329801
H254	H	1.045326	0.176486	0.829801
