data_functionalizedCrystal
_audit_creation_method	'MofGen! by Chris Wilmer'
_symmetry_space_group_name_H-M	'P1'
_symmetry_Int_Tables_number	1
_symmetry_cell_setting	triclinic
loop_
_symmetry_equiv_pos_as_xyz
  x,y,z
_cell_length_a	17.038272
_cell_length_b	23.532407
_cell_length_c	15.500227
_cell_angle_alpha	92.805592
_cell_angle_beta	86.956295
_cell_angle_gamma	86.980117
loop_
_atom_site_label
_atom_site_type_symbol
_atom_site_fract_x
_atom_site_fract_y
_atom_site_fract_z
O1	O	1.040103	0.121159	-0.071851
O2	O	1.540103	0.621159	0.428149
O3	O	0.812488	0.119196	-0.071876
O4	O	1.312488	0.619196	0.428124
O5	O	0.933158	0.037607	-0.071847
O6	O	1.433158	0.537607	0.428153
O7	O	0.919432	0.202748	-0.071880
O8	O	1.419432	0.702748	0.428120
O9	O	0.925836	0.042537	0.072040
O10	O	1.425836	0.542537	0.572040
O11	O	0.805165	0.124126	0.072011
O12	O	1.305165	0.624126	0.572011
O13	O	1.032780	0.126090	0.072036
O14	O	1.532780	0.626090	0.572036
Cu15	Cu	0.918304	0.125558	0.085162
Cu16	Cu	1.418304	0.625558	0.585162
Cu17	Cu	0.926964	0.119727	-0.085001
Cu18	Cu	1.426964	0.619727	0.414999
O19	O	0.912110	0.207678	0.072007
O20	O	1.412110	0.707678	0.572007
C21	C	0.779712	0.119875	0.000065
C22	C	1.279712	0.619875	0.500065
C23	C	0.692959	0.114548	0.000056
C24	C	1.192959	0.614548	0.500056
C25	C	0.929147	0.018838	0.000099
C26	C	1.429147	0.518838	0.500099
C27	C	0.928096	-0.044434	0.000105
C28	C	1.428096	0.455566	0.500105
C29	C	0.642483	0.163453	0.000046
C30	C	1.142483	0.663453	0.500046
C31	C	0.560969	0.158445	0.000059
C32	C	1.060969	0.658445	0.500059
C33	C	0.529932	0.104532	0.000075
C34	C	1.029932	0.604532	0.500075
C35	C	0.580414	0.055624	0.000087
C36	C	1.080414	0.555624	0.500087
C37	C	0.661927	0.060632	0.000080
C38	C	1.161927	0.560632	0.500080
C39	C	0.284304	0.086837	0.000102
C40	C	0.784304	0.586837	0.500102
C41	C	0.202786	0.081832	0.000106
C42	C	0.702786	0.581832	0.500106
C43	C	0.183345	0.184654	0.000080
C44	C	0.683345	0.684654	0.500080
C45	C	0.264860	0.189658	0.000068
C46	C	0.764860	0.689658	0.500068
C47	C	0.315335	0.140750	0.000084
C48	C	0.815335	0.640750	0.500084
C49	C	0.446612	0.099412	0.000086
C50	C	0.946612	0.599412	0.500086
C51	C	0.398653	0.145871	0.000080
C52	C	0.898653	0.645871	0.500080
C53	C	0.992917	-0.440131	0.000065
C54	C	1.492917	0.059869	0.500065
C55	C	0.991941	-0.499583	0.000058
C56	C	1.491941	0.000417	0.500058
O57	O	1.052030	-0.533169	0.000033
O58	O	1.552030	-0.033169	0.500033
N59	N	0.920202	-0.525981	0.000051
N60	N	1.420202	-0.025981	0.500051
C61	C	0.849435	-0.492924	0.000042
C62	C	1.349435	0.007076	0.500042
O63	O	0.788325	-0.520836	0.000034
O64	O	1.288325	-0.020836	0.500034
C65	C	0.850412	-0.433473	0.000042
C66	C	1.350412	0.066527	0.500042
C67	C	0.922155	-0.407078	0.000058
C68	C	1.422155	0.092922	0.500058
C69	C	1.064654	-0.413736	0.000080
C70	C	1.564654	0.086264	0.500080
C71	C	1.065630	-0.354288	0.000089
C72	C	1.565630	0.145712	0.500089
C73	C	0.994868	-0.321235	0.000082
C74	C	1.494868	0.178765	0.500082
C75	C	0.923131	-0.347631	0.000067
C76	C	1.423131	0.152369	0.500067
C77	C	0.779646	-0.400418	0.000027
C78	C	1.279646	0.099582	0.500027
C79	C	0.780629	-0.340963	0.000026
C80	C	1.280629	0.159037	0.500026
C81	C	0.852372	-0.314569	0.000043
C82	C	1.352372	0.185431	0.500043
C83	C	0.853344	-0.255130	0.000068
C84	C	1.353344	0.244870	0.500068
N85	N	0.925083	-0.228732	0.000075
N86	N	1.425083	0.271268	0.500075
C87	C	0.995845	-0.261785	0.000082
C88	C	1.495845	0.238215	0.500082
C89	C	0.847388	-0.617774	0.000039
C90	C	1.347388	-0.117774	0.500039
C91	C	0.846410	-0.677223	0.000045
C92	C	1.346410	-0.177223	0.500045
C93	C	0.988916	-0.683878	0.000060
C94	C	1.488916	-0.183878	0.500060
C95	C	0.989894	-0.624428	0.000061
C96	C	1.489894	-0.124428	0.500061
C97	C	0.919127	-0.591376	0.000047
C98	C	1.419127	-0.091376	0.500047
C99	C	0.997889	-0.136940	0.000100
C100	C	1.497889	0.363060	0.500100
C101	C	0.998858	-0.077487	0.000112
C102	C	1.498858	0.422513	0.500112
C103	C	0.856352	-0.070837	0.000093
C104	C	1.356352	0.429163	0.500093
C105	C	0.855382	-0.130285	0.000085
C106	C	1.355382	0.369715	0.500085
C107	C	0.926157	-0.163336	0.000086
C108	C	1.426157	0.336664	0.500086
O109	O	0.793287	-0.221508	0.000090
O110	O	1.293287	0.278492	0.500090
O111	O	1.056945	-0.233865	0.000078
O112	O	1.556945	0.266135	0.500078
C113	C	1.065556	0.125410	0.000094
C114	C	1.565556	0.625410	0.500094
C115	C	1.152310	0.130737	0.000097
C116	C	1.652310	0.630737	0.500097
C117	C	0.916121	0.226447	0.000059
C118	C	1.416121	0.726447	0.500059
C119	C	0.917172	0.289719	0.000047
C120	C	1.417172	0.789719	0.500047
N121	N	0.912219	0.129659	0.204845
N122	N	1.412219	0.629659	0.704845
N123	N	0.933055	0.115622	-0.204685
N124	N	1.433055	0.615622	0.295315
C125	C	0.963369	0.095101	0.250134
C126	C	1.463369	0.595101	0.750134
C127	C	0.958774	0.098208	0.340706
C128	C	1.458774	0.598208	0.840706
C129	C	0.903033	0.135876	0.385987
C130	C	1.403033	0.635876	0.885987
C131	C	0.851877	0.170435	0.340691
C132	C	1.351877	0.670435	0.840691
C133	C	0.856469	0.167324	0.250121
C134	C	1.356469	0.667324	0.750121
C135	C	0.886491	0.147071	0.659450
C136	C	1.386491	0.647071	1.159450
C137	C	0.881905	0.150180	0.750026
C138	C	1.381905	0.650180	1.250026
C139	C	0.988801	0.077952	0.750034
C140	C	1.488801	0.577952	1.250034
C141	C	0.993391	0.074848	0.659462
C142	C	1.493391	0.574848	1.159462
C143	C	0.942233	0.109404	0.614175
C144	C	1.442233	0.609404	1.114175
C145	C	0.898336	0.139054	0.478566
C146	C	1.398336	0.639054	0.978566
C147	C	0.946927	0.106223	0.521598
C148	C	1.446927	0.606223	1.021598
H149	H	0.667745	0.207354	0.000033
H150	H	1.167745	0.707354	0.500033
O151	O	0.844158	0.175570	0.522652
O152	O	1.344158	0.675570	1.022652
C153	C	0.793517	0.144520	0.575042
C154	C	1.293517	0.644520	1.075042
H155	H	0.824303	0.101957	0.588610
H156	H	1.324303	0.601957	1.088610
H157	H	0.777748	0.169859	0.638731
H158	H	1.277748	0.669859	1.138731
H159	H	0.737553	0.136637	0.540153
H160	H	1.237553	0.636637	1.040153
H161	H	0.519874	0.198268	0.000051
H162	H	1.019874	0.698268	0.500051
O163	O	0.711929	-0.308794	0.000130
O164	O	1.211929	0.191206	0.500130
C165	C	0.704419	-0.271672	0.074664
C166	C	1.204419	0.228328	0.574664
H167	H	0.765162	-0.264804	0.099521
H168	H	1.265162	0.235196	0.599521
H169	H	0.675798	-0.229032	0.057903
H170	H	1.175798	0.270968	0.557903
H171	H	0.666225	-0.291163	0.126837
H172	H	1.166225	0.208837	0.626837
O173	O	1.008443	0.064561	0.384599
O174	O	1.508443	0.564561	0.884599
C175	C	0.997303	0.006823	0.362505
C176	C	1.497303	0.506823	0.862505
H177	H	0.970505	0.003161	0.296753
H178	H	1.470505	0.503161	0.796753
H179	H	1.056431	-0.018440	0.359399
H180	H	1.556431	0.481560	0.859399
H181	H	0.955966	-0.010940	0.413494
H182	H	1.455966	0.489060	0.913494
H183	H	1.122281	-0.440642	0.000083
H184	H	1.622281	0.059358	0.500083
H185	H	0.290124	0.233559	0.000045
H186	H	0.790124	0.733559	0.500045
O187	O	0.709940	-0.426026	-0.000148
O188	O	1.209940	0.073974	0.499852
C189	C	0.670632	-0.411997	-0.074668
C190	C	1.170632	0.088003	0.425332
H191	H	0.715254	-0.399387	-0.126739
H192	H	1.215254	0.100613	0.373261
H193	H	0.638932	-0.450431	-0.099696
H194	H	1.138932	0.049569	0.400304
H195	H	0.625924	-0.374830	-0.057827
H196	H	1.125924	0.125170	0.442173
O197	O	0.333411	0.039366	-0.000008
O198	O	0.833411	0.539366	0.499992
C199	C	0.384911	0.036623	-0.074543
C200	C	0.884911	0.536623	0.425457
H201	H	0.389950	0.081158	-0.099393
H202	H	0.889950	0.581158	0.400607
H203	H	0.445492	0.018954	-0.057785
H204	H	0.945492	0.518954	0.442215
H205	H	0.360936	0.007539	-0.126719
H206	H	0.860936	0.507539	0.373281
O207	O	0.134201	0.232103	0.000110
O208	O	0.634201	0.732103	0.500110
C209	C	0.055601	0.216125	0.000097
C210	C	0.555601	0.716125	0.500097
H211	H	0.051440	0.172191	0.027347
H212	H	0.551440	0.672191	0.527347
H213	H	0.016295	0.248486	0.041869
H214	H	0.516295	0.748486	0.541869
H215	H	0.035511	0.214776	-0.068931
H216	H	0.535511	0.714776	0.431069
O217	O	0.797657	0.207036	0.384541
O218	O	1.297657	0.707036	0.884541
C219	C	0.753507	0.236879	0.325142
C220	C	1.253507	0.736879	0.825142
H221	H	0.756083	0.211278	0.260590
H222	H	1.256083	0.711278	0.760590
H223	H	0.689699	0.243408	0.351316
H224	H	1.189699	0.743408	0.851316
H225	H	0.779035	0.280080	0.315491
H226	H	1.279035	0.780080	0.815491
O227	O	0.778685	-0.585605	0.000153
O228	O	1.278685	-0.085605	0.500153
C229	C	0.771180	-0.548481	0.074685
C230	C	1.271180	-0.048481	0.574685
H231	H	0.831925	-0.541610	0.099535
H232	H	1.331925	-0.041610	0.599535
H233	H	0.742555	-0.505842	0.057925
H234	H	1.242555	-0.005842	0.557925
H235	H	0.732993	-0.567971	0.126864
H236	H	1.232993	-0.067971	0.626864
O237	O	0.836766	0.180699	0.615599
O238	O	1.336766	0.680699	1.115599
C239	C	0.786574	0.214602	0.674990
C240	C	1.286574	0.714602	1.174990
H241	H	0.815343	0.219027	0.739544
H242	H	1.315343	0.719027	1.239544
H243	H	0.775620	0.258585	0.648809
H244	H	1.275620	0.758585	1.148809
H245	H	0.728175	0.193611	0.684643
H246	H	1.228175	0.693611	1.184643
O247	O	0.787543	-0.038808	0.000118
O248	O	1.287543	0.461192	0.500118
C249	C	0.724009	-0.074849	0.000077
C250	C	1.224009	0.425151	0.500077
H251	H	0.742802	-0.117273	0.027325
H252	H	1.242802	0.382727	0.527325
H253	H	0.672329	-0.053910	0.041834
H254	H	1.172329	0.446090	0.541834
H255	H	0.705521	-0.082506	-0.068960
H256	H	1.205521	0.417494	0.431040
H257	H	0.177520	0.037928	0.000118
H258	H	0.677520	0.537928	0.500118
O259	O	0.711047	0.013164	-0.000030
O260	O	1.211047	0.513164	0.499970
C261	C	0.762549	0.010423	-0.074563
C262	C	1.262549	0.510423	0.425437
H263	H	0.767578	0.054958	-0.099419
H264	H	1.267578	0.554958	0.400581
H265	H	0.823133	-0.007237	-0.057801
H266	H	1.323133	0.492763	0.442199
H267	H	0.738583	-0.018667	-0.126737
H268	H	1.238583	0.481333	0.373263
H269	H	0.814816	0.195464	0.213248
H270	H	1.314816	0.695464	0.713248
O271	O	0.550366	0.003218	-0.000014
O272	O	1.050366	0.503218	0.499986
C273	C	0.579967	-0.029382	-0.074540
C274	C	1.079967	0.470618	0.425460
H275	H	0.637648	-0.011979	-0.099389
H276	H	1.137648	0.488021	0.400611
H277	H	0.590798	-0.075667	-0.057771
H278	H	1.090798	0.424333	0.442229
H279	H	0.535393	-0.026861	-0.126722
H280	H	1.035393	0.473139	0.373278
H281	H	0.423926	0.189767	0.000072
H282	H	0.923926	0.689767	0.500072
H283	H	0.992309	0.075552	0.484727
H284	H	1.492309	0.575552	0.984727
H285	H	1.030451	0.049817	0.786915
H286	H	1.530451	0.549817	1.286915
O287	O	1.047446	0.038069	0.615712
O288	O	1.547446	0.538069	1.115712
C289	C	1.033855	-0.018059	0.638160
C290	C	1.533855	0.481941	1.138160
H291	H	0.969965	-0.020394	0.662944
H292	H	1.469965	0.479606	1.162944
H293	H	1.046122	-0.048382	0.578778
H294	H	1.546122	0.451618	1.078778
H295	H	1.074487	-0.030787	0.690907
H296	H	1.574487	0.469213	1.190907
O297	O	0.416494	0.047033	0.000244
O298	O	0.916494	0.547033	0.500244
C299	C	0.438560	0.019523	0.074754
C300	C	0.938560	0.519523	0.574754
H301	H	0.452640	0.052761	0.126836
H302	H	0.952640	0.552761	0.626836
H303	H	0.388093	-0.006232	0.099773
H304	H	0.888093	0.493768	0.599773
H305	H	0.492789	-0.010204	0.057903
H306	H	0.992789	0.489796	0.557903
O307	O	0.785748	-0.155999	-0.000038
O308	O	1.285748	0.344001	0.499962
C309	C	0.784706	-0.192717	-0.074579
C310	C	1.284706	0.307283	0.425421
H311	H	0.847688	-0.205359	-0.099418
H312	H	1.347688	0.294641	0.400582
H313	H	0.753012	-0.232543	-0.057834
H314	H	1.253012	0.267457	0.442166
H315	H	0.752576	-0.169940	-0.126759
H316	H	1.252576	0.330060	0.373241
O317	O	1.068623	-0.051940	0.000086
O318	O	1.568623	0.448060	0.500086
C319	C	1.130867	-0.093866	0.000109
C320	C	1.630867	0.406134	0.500109
H321	H	1.110664	-0.136197	-0.027139
H322	H	1.610664	0.363803	0.472861
H323	H	1.183109	-0.080445	-0.041659
H324	H	1.683109	0.419555	0.458341
H325	H	1.149159	-0.098857	0.069140
H326	H	1.649159	0.401143	0.569140
H327	H	1.055521	-0.163843	0.000098
H328	H	1.555521	0.336157	0.500098
H329	H	1.124051	-0.332803	0.000098
H330	H	1.624051	0.167197	0.500098
H331	H	1.046535	-0.710801	0.000062
H332	H	1.546535	-0.210801	0.500062
O333	O	1.059655	-0.598883	0.000029
O334	O	1.559655	-0.098883	0.500029
C335	C	1.121895	-0.640811	0.000059
C336	C	1.621895	-0.140811	0.500059
H337	H	1.101688	-0.683143	-0.027179
H338	H	1.601688	-0.183143	0.472821
H339	H	1.174138	-0.627396	-0.041712
H340	H	1.674138	-0.127396	0.458288
H341	H	1.140187	-0.645797	0.069092
H342	H	1.640187	-0.145797	0.569092
H343	H	1.008763	0.064431	0.213272
H344	H	1.508763	0.564431	0.713272
O345	O	0.776651	-0.702769	0.000001
O346	O	1.276651	-0.202769	0.500001
C347	C	0.714409	-0.660840	0.000020
C348	C	1.214409	-0.160840	0.500020
H349	H	0.737387	-0.620369	-0.027213
H350	H	1.237387	-0.120369	0.472787
H351	H	0.666417	-0.677109	-0.041762
H352	H	1.166417	-0.177109	0.458238
H353	H	0.689093	-0.651136	0.069048
H354	H	1.189093	-0.151136	0.569048
O355	O	0.827716	0.186692	0.794113
O356	O	1.327716	0.686692	1.294113
C357	C	0.777084	0.155640	0.846510
C358	C	1.277084	0.655640	1.346510
H359	H	0.807879	0.113081	0.860080
H360	H	1.307879	0.613081	1.360080
H361	H	0.761312	0.180980	0.910196
H362	H	1.261312	0.680980	1.410196
H363	H	0.721120	0.147749	0.811624
H364	H	1.221120	0.647749	1.311624
