data_functionalizedCrystal
_audit_creation_method	'MofGen! by Chris Wilmer'
_symmetry_space_group_name_H-M	'P1'
_symmetry_Int_Tables_number	1
_symmetry_cell_setting	triclinic
loop_
_symmetry_equiv_pos_as_xyz
  x,y,z
_cell_length_a	13.032891
_cell_length_b	13.032721
_cell_length_c	13.034296
_cell_angle_alpha	89.133654
_cell_angle_beta	105.185423
_cell_angle_gamma	90.903621
loop_
_atom_site_label
_atom_site_type_symbol
_atom_site_fract_x
_atom_site_fract_y
_atom_site_fract_z
Zn1	Zn	-1.642125	0.515003	-0.864476
Zn2	Zn	-1.598124	0.704044	-0.708145
Zn3	Zn	-1.441927	0.515015	-0.664358
Zn4	Zn	-1.447484	0.665664	-0.858874
O5	O	-1.532415	0.599932	-0.773963
O6	O	-1.783115	0.556137	-0.864407
O7	O	-1.556665	0.695037	-0.555506
O8	O	-1.484573	0.372852	-0.674924
O9	O	-1.750788	0.695025	-0.749551
O10	O	-1.631657	0.372843	-0.821950
O11	O	-1.441908	0.556158	-0.523336
O12	O	-1.295838	0.518942	-0.669492
O13	O	-1.494043	0.629611	-1.006448
O14	O	-1.299920	0.629623	-0.812402
O15	O	-1.637045	0.518921	-1.010564
O16	O	-1.562053	0.841115	-0.744120
O17	O	-1.451378	0.812917	-0.854860
C18	C	-1.259808	0.570119	-0.735589
C19	C	-1.143186	0.557387	-0.719199
C20	C	-1.571072	0.569984	-1.047642
C21	C	-1.587545	0.557222	-1.164267
C22	C	-1.502575	0.863877	-0.803660
C23	C	-1.489911	0.976801	-0.816413
C24	C	-1.806086	0.629861	-0.812489
C25	C	-1.922709	0.642615	-0.828906
C26	C	-0.972682	0.593422	-0.765588
C27	C	-1.093216	0.606587	-0.782526
C28	C	-1.562403	0.334956	-0.744177
C29	C	-1.575182	0.222039	-0.731484
C30	C	-1.539087	1.041064	-0.767362
C31	C	-1.525999	1.157777	-0.780542
C32	C	-1.524135	0.606299	-1.214226
C33	C	-1.541159	0.593110	-1.334765
C34	C	-1.493977	0.629696	-0.501350
C35	C	-1.477740	0.642194	-0.384721
H36	H	-0.926233	0.541556	-0.698844
C37	C	-1.387365	0.712155	-1.321958
N38	N	-1.319294	0.764847	-1.274684
C39	C	-1.631531	0.523148	-1.397530
N40	N	-1.699596	0.470450	-1.444805
H41	H	-0.969160	0.694472	-0.895658
H42	H	-1.139664	0.658447	-0.849282
C43	C	-1.609056	0.998666	-0.697445
N44	N	-1.661757	0.966733	-0.644780
H45	H	-1.654439	0.505444	-1.210735
C46	C	-1.080445	0.487319	-0.629017
N47	N	-1.033187	0.434546	-0.561092
C48	C	-1.456023	1.200170	-0.850460
N49	N	-1.403317	1.232103	-0.903119
C50	C	-1.645156	1.179648	-0.661564
N51	N	-1.697859	1.147719	-0.608900
C52	C	-1.419939	1.019199	-0.886327
N53	N	-1.367232	1.051132	-0.938986
C54	C	-1.433763	0.676253	-1.151457
N55	N	-1.365692	0.728942	-1.104180
