data_functionalizedCrystal
_audit_creation_method	'MofGen! by Chris Wilmer'
_symmetry_space_group_name_H-M	'P1'
_symmetry_Int_Tables_number	1
_symmetry_cell_setting	triclinic
loop_
_symmetry_equiv_pos_as_xyz
  x,y,z
_cell_length_a	17.000371
_cell_length_b	19.188930
_cell_length_c	15.500373
_cell_angle_alpha	86.822813
_cell_angle_beta	86.645620
_cell_angle_gamma	79.372014
loop_
_atom_site_label
_atom_site_type_symbol
_atom_site_fract_x
_atom_site_fract_y
_atom_site_fract_z
O1	O	1.052732	0.022469	0.071948
O2	O	1.552732	0.522469	0.571948
O3	O	0.820911	0.047815	0.071952
O4	O	1.320911	0.547815	0.571952
O5	O	0.943512	-0.066906	0.071933
O6	O	1.443512	0.433094	0.571933
O7	O	0.930131	0.137190	0.071967
O8	O	1.430131	0.637190	0.571967
O9	O	0.950067	-0.061520	-0.071951
O10	O	1.450067	0.438480	0.428049
O11	O	0.827466	0.053201	-0.071932
O12	O	1.327466	0.553201	0.428068
O13	O	1.059287	0.027856	-0.071936
O14	O	1.559287	0.527856	0.428064
Cu15	Cu	0.943975	0.041020	-0.085072
Cu16	Cu	1.443975	0.541020	0.414928
Cu17	Cu	0.936223	0.034650	0.085088
Cu18	Cu	1.436223	0.534650	0.585088
O19	O	0.936686	0.142576	-0.071917
O20	O	1.436686	0.642576	0.428083
C21	C	0.794530	0.051869	0.000010
C22	C	1.294530	0.551869	0.500010
C23	C	0.706157	0.055917	0.000011
C24	C	1.206157	0.555917	0.500011
C25	C	0.674349	-0.006378	-0.000001
C26	C	1.174349	0.493622	0.499999
C27	C	0.591312	-0.002570	0.000006
C28	C	1.091312	0.497430	0.500006
C29	C	0.540086	0.063533	0.000019
C30	C	1.040086	0.563533	0.500019
C31	C	0.571899	0.125833	0.000033
C32	C	1.071899	0.625833	0.500033
C33	C	0.654934	0.122025	0.000032
C34	C	1.154934	0.622025	0.500032
C35	C	0.288888	0.078244	0.000027
C36	C	0.788888	0.578244	0.500027
C37	C	0.205848	0.082048	0.000025
C38	C	0.705848	0.582048	0.500025
C39	C	0.225268	-0.046356	-0.000001
C40	C	0.725268	0.453644	0.499999
C41	C	0.308304	-0.050159	-0.000006
C42	C	0.808304	0.449841	0.499994
C43	C	0.340109	0.012141	0.000013
C44	C	0.840109	0.512141	0.500013
C45	C	0.455209	0.067427	0.000023
C46	C	0.955209	0.567427	0.500023
C47	C	0.424984	0.008246	0.000015
C48	C	0.924984	0.508246	0.500015
C49	C	0.946356	-0.090198	-0.000011
C50	C	1.446356	0.409802	0.499989
C51	C	0.945056	-0.167626	-0.000019
C52	C	1.445056	0.332374	0.499981
C53	C	1.016994	-0.216774	-0.000024
C54	C	1.516994	0.283226	0.499976
C55	C	1.015772	-0.289526	-0.000010
C56	C	1.515772	0.210474	0.499990
C57	C	0.942608	-0.313127	-0.000008
C58	C	1.442608	0.186873	0.499992
C59	C	0.870660	-0.263969	0.000002
C60	C	1.370660	0.236031	0.500002
C61	C	0.871884	-0.191219	-0.000003
C62	C	1.371884	0.308781	0.499997
N63	N	0.888913	-0.416015	-0.048974
N64	N	1.388913	0.083985	0.451026
N65	N	0.887755	-0.485126	-0.048971
N66	N	1.387755	0.014874	0.451029
C67	C	0.938915	-0.532320	0.000009
C68	C	1.438915	-0.032320	0.500009
N69	N	0.991288	-0.507793	0.048975
N70	N	1.491288	-0.007793	0.548975
N71	N	0.992449	-0.438676	0.048968
N72	N	1.492449	0.061324	0.548968
C73	C	0.941272	-0.392011	-0.000002
C74	C	1.441272	0.107989	0.499998
C75	C	1.009532	-0.660355	0.000020
C76	C	1.509532	-0.160355	0.500020
C77	C	1.008306	-0.733108	0.000039
C78	C	1.508306	-0.233108	0.500039
C79	C	0.863193	-0.707549	0.000043
C80	C	1.363193	-0.207549	0.500043
C81	C	0.864420	-0.634798	0.000032
C82	C	1.364420	-0.134798	0.500032
C83	C	0.937592	-0.611205	0.000017
C84	C	1.437592	-0.111205	0.500017
C85	C	1.085668	0.023801	0.000008
C86	C	1.585668	0.523801	0.500008
C87	C	1.174040	0.019753	0.000013
C88	C	1.674040	0.519753	0.500013
C89	C	0.933841	0.165868	0.000030
C90	C	1.433841	0.665868	0.500030
C91	C	0.935141	0.243296	0.000043
C92	C	1.435141	0.743296	0.500043
N93	N	0.949433	0.045499	-0.204753
N94	N	1.449433	0.545499	0.295247
C95	C	0.903380	0.007778	-0.250061
C96	C	1.403380	0.507778	0.249939
C97	C	0.907528	0.011173	-0.340631
C98	C	1.407528	0.511173	0.159369
C99	C	0.957733	0.052285	-0.385891
C100	C	1.457733	0.552285	0.114109
C101	C	1.003787	0.090011	-0.340577
C102	C	1.503787	0.590011	0.159423
C103	C	0.999635	0.086620	-0.250009
C104	C	1.499635	0.586620	0.249991
C105	C	0.972673	0.064499	-0.659348
C106	C	1.472673	0.564499	-0.159348
C107	C	0.976824	0.067886	-0.749923
C108	C	1.476824	0.567886	-0.249923
C109	C	0.880563	-0.010951	-0.749970
C110	C	1.380563	0.489049	-0.249970
C111	C	0.876419	-0.014342	-0.659400
C112	C	1.376419	0.485658	-0.159400
C113	C	0.922470	0.023387	-0.614094
C114	C	1.422470	0.523387	-0.114094
C115	C	0.961975	0.055754	-0.478468
C116	C	1.461975	0.555754	0.021532
C117	C	0.918223	0.019921	-0.521518
C118	C	1.418223	0.519921	-0.021518
N119	N	0.930771	0.030165	0.204769
N120	N	1.430771	0.530165	0.704769
H121	H	0.164140	0.135881	0.000031
H122	H	0.664140	0.635881	0.500031
H123	H	0.565419	-0.053298	-0.000003
H124	H	1.065419	0.446702	0.499997
O125	O	1.044330	0.123366	-0.206089
O126	O	1.544330	0.623366	0.293911
C127	C	1.023019	0.196424	-0.228196
C128	C	1.523019	0.696424	0.271804
H129	H	0.995151	0.203762	-0.293965
H130	H	1.495151	0.703762	0.206035
H131	H	1.078794	0.221750	-0.231267
H132	H	1.578794	0.721750	0.268733
H133	H	0.977883	0.222837	-0.177232
H134	H	1.477883	0.722837	0.322768
H135	H	1.074354	-0.329550	-0.000011
H136	H	1.574354	0.170450	0.499989
O137	O	1.078239	-0.780789	0.000151
O138	O	1.578239	-0.280789	0.500151
C139	C	1.119279	-0.773571	0.074672
C140	C	1.619279	-0.273571	0.574672
H141	H	1.098406	-0.718041	0.099511
H142	H	1.598406	-0.218041	0.599511
H143	H	1.186457	-0.782145	0.057903
H144	H	1.686457	-0.282145	0.557903
H145	H	1.106161	-0.814689	0.126860
H146	H	1.606161	-0.314689	0.626860
H147	H	0.811089	-0.283190	0.000005
H148	H	1.311089	0.216810	0.500005
H149	H	1.044662	0.123488	-0.377435
H150	H	1.544662	0.623488	0.122565
O151	O	1.025611	0.107883	-0.793756
O152	O	1.525611	0.607883	-0.293756
C153	C	1.065383	0.140442	-0.734348
C154	C	1.565383	0.640442	-0.234348
H155	H	1.029454	0.144113	-0.669798
H156	H	1.529454	0.644113	-0.169798
H157	H	1.071326	0.196034	-0.760510
H158	H	1.571326	0.696034	-0.260510
H159	H	1.127529	0.107508	-0.724698
H160	H	1.627529	0.607508	-0.224698
O161	O	0.801928	-0.143566	-0.000041
O162	O	1.301928	0.356434	0.499959
C163	C	0.737085	-0.179994	-0.000010
C164	C	1.237085	0.320006	0.499990
H165	H	0.758721	-0.234585	-0.027244
H166	H	1.258721	0.265415	0.472756
H167	H	0.688598	-0.148480	-0.041783
H168	H	1.188598	0.351520	0.458217
H169	H	0.711503	-0.186372	0.069021
H170	H	1.211503	0.313628	0.569021
H171	H	0.862501	-0.025702	-0.213216
H172	H	1.362501	0.474298	0.286784
H173	H	0.716053	-0.060207	-0.000015
H174	H	1.216053	0.439793	0.499985
H175	H	1.069113	-0.641145	0.000012
H176	H	1.569113	-0.141145	0.500012
H177	H	1.002855	0.089225	-0.515330
H178	H	1.502855	0.589225	-0.015330
O179	O	0.792191	-0.730585	0.000010
O180	O	1.292191	-0.230585	0.500010
C181	C	0.806534	-0.805337	0.000042
C182	C	1.306534	-0.305337	0.500042
H183	H	0.869960	-0.825241	-0.027203
H184	H	1.369960	-0.325241	0.472797
H185	H	0.761632	-0.823270	-0.041723
H186	H	1.261632	-0.323270	0.458277
H187	H	0.799606	-0.827947	0.069074
H188	H	1.299606	-0.327947	0.569074
H189	H	0.350008	-0.103987	-0.000021
H190	H	0.850008	0.396013	0.499979
H191	H	0.413491	0.121249	0.000032
H192	H	0.913491	0.621249	0.500032
O193	O	0.794597	-0.586978	-0.000087
O194	O	1.294597	-0.086978	0.499913
C195	C	0.794350	-0.541365	-0.074619
C196	C	1.294350	-0.041365	0.425381
H197	H	0.858660	-0.540636	-0.099467
H198	H	1.358660	-0.040636	0.400533
H199	H	0.763743	-0.485423	-0.057862
H200	H	1.263743	0.014577	0.442138
H201	H	0.760449	-0.561150	-0.126797
H202	H	1.260449	-0.061150	0.373203
O203	O	0.827572	-0.054162	-0.615356
O204	O	1.327572	0.445838	-0.115356
C205	C	0.770689	-0.010212	-0.563010
C206	C	1.270689	0.489788	-0.063010
H207	H	0.794678	0.039575	-0.549409
H208	H	1.294678	0.539575	-0.049409
H209	H	0.758967	-0.040123	-0.499337
H210	H	1.258967	0.459877	0.000663
H211	H	0.712428	0.005451	-0.597955
H212	H	1.212428	0.505451	-0.097955
O213	O	0.862769	-0.025539	-0.384513
O214	O	1.362769	0.474461	0.115487
C215	C	0.817554	-0.062545	-0.325151
C216	C	1.317554	0.437455	0.174849
H217	H	0.847561	-0.071046	-0.260580
H218	H	1.347561	0.428954	0.239420
H219	H	0.814016	-0.116179	-0.351340
H220	H	1.314016	0.383821	0.148660
H221	H	0.754522	-0.030336	-0.315532
H222	H	1.254522	0.469664	0.184468
O223	O	1.017445	0.101040	-0.615245
O224	O	1.517445	0.601040	-0.115245
C225	C	1.069527	0.053194	-0.562857
C226	C	1.569527	0.553194	-0.062857
H227	H	1.044321	0.002375	-0.549310
H228	H	1.544321	0.502375	-0.049310
H229	H	1.075365	0.078348	-0.499160
H230	H	1.575365	0.578348	0.000840
H231	H	1.131007	0.040170	-0.597738
H232	H	1.631007	0.540170	-0.097738
O233	O	0.474817	-0.055928	0.000117
O234	O	0.974817	0.444072	0.500117
C235	C	0.520019	-0.064769	0.074647
C236	C	1.020019	0.435231	0.574647
H237	H	0.522890	-0.010529	0.099506
H238	H	1.022890	0.489471	0.599506
H239	H	0.583285	-0.093984	0.057880
H240	H	1.083285	0.406016	0.557880
H241	H	0.490437	-0.096945	0.126819
H242	H	0.990437	0.403055	0.626819
O243	O	1.088139	-0.193979	0.000005
O244	O	1.588139	0.306021	0.500005
C245	C	1.151373	-0.252964	-0.000019
C246	C	1.651373	0.247036	0.499981
H247	H	1.127988	-0.302092	0.027226
H248	H	1.627988	0.197908	0.527226
H249	H	1.200571	-0.242440	0.041748
H250	H	1.700571	0.257560	0.541748
H251	H	1.176692	-0.262056	-0.069050
H252	H	1.676692	0.237944	0.430950
O253	O	0.194324	-0.106856	0.000142
O254	O	0.694324	0.393144	0.500142
C255	C	0.143465	-0.111275	0.074651
C256	C	0.643465	0.388725	0.574651
H257	H	0.160607	-0.077937	0.126739
H258	H	0.660607	0.422063	0.626739
H259	H	0.149970	-0.168949	0.099658
H260	H	0.649970	0.331051	0.599658
H261	H	0.078694	-0.090511	0.057807
H262	H	0.578694	0.409489	0.557807
O263	O	0.319667	0.138810	0.000159
O264	O	0.819667	0.638810	0.500159
C265	C	0.290075	0.175990	0.074697
C266	C	0.790075	0.675990	0.574697
H267	H	0.231422	0.159552	0.099532
H268	H	0.731422	0.659552	0.599532
H269	H	0.279098	0.235481	0.057951
H270	H	0.779098	0.735481	0.557951
H271	H	0.335774	0.163004	0.126879
H272	H	0.835774	0.663004	0.626879
O273	O	0.522053	0.190001	0.000161
O274	O	1.022053	0.690001	0.500161
C275	C	0.470057	0.193263	0.074690
C276	C	0.970057	0.693263	0.574690
H277	H	0.464914	0.137162	0.099524
H278	H	0.964914	0.637162	0.599524
H279	H	0.408323	0.223739	0.057932
H280	H	0.908323	0.723739	0.557932
H281	H	0.494889	0.221525	0.126877
H282	H	0.994889	0.721525	0.626877
O283	O	0.685704	0.182609	0.000004
O284	O	1.185704	0.682609	0.500004
C285	C	0.622686	0.241770	0.000036
C286	C	1.122686	0.741770	0.500036
H287	H	0.567583	0.226685	-0.027210
H288	H	1.067583	0.726685	0.472790
H289	H	0.641793	0.287137	-0.041726
H290	H	1.141793	0.787137	0.458274
H291	H	0.607724	0.259329	0.069069
H292	H	1.107724	0.759329	0.569069
O293	O	0.869403	-0.019914	-0.477463
O294	O	1.369403	0.480086	0.022537
C295	C	0.812519	0.024018	-0.425100
C296	C	1.312519	0.524018	0.074900
H297	H	0.836483	0.073821	-0.411518
H298	H	1.336483	0.573821	0.088482
H299	H	0.800836	-0.005897	-0.361418
H300	H	1.300836	0.494103	0.138582
H301	H	0.754240	0.039654	-0.460020
H302	H	1.254240	0.539654	0.039980
H303	H	0.843069	-0.041666	-0.786868
H304	H	1.343069	0.458334	-0.286868
