data_functionalizedCrystal
_audit_creation_method	'MofGen! by Chris Wilmer'
_symmetry_space_group_name_H-M	'P1'
_symmetry_Int_Tables_number	1
_symmetry_cell_setting	triclinic
loop_
_symmetry_equiv_pos_as_xyz
  x,y,z
_cell_length_a	18.101397
_cell_length_b	13.897449
_cell_length_c	13.897441
_cell_angle_alpha	90.022859
_cell_angle_beta	89.965096
_cell_angle_gamma	89.979702
loop_
_atom_site_label
_atom_site_type_symbol
_atom_site_fract_x
_atom_site_fract_y
_atom_site_fract_z
Zn1	Zn	-0.294809	-1.474684	-0.545407
Zn2	Zn	-0.418665	-1.474570	-0.384096
Zn3	Zn	-0.294841	-1.313373	-0.384119
Zn4	Zn	-0.418613	-1.313347	-0.545343
O5	O	-0.356732	-1.393994	-0.464741
O6	O	-0.311247	-1.609651	-0.524026
O7	O	-0.402275	-1.453150	-0.249118
O8	O	-0.191204	-1.334830	-0.405551
O9	O	-0.402243	-1.609567	-0.405512
O10	O	-0.191181	-1.453344	-0.524048
O11	O	-0.311302	-1.334720	-0.249135
O12	O	-0.311252	-1.178388	-0.405489
O13	O	-0.402155	-1.334785	-0.680333
O14	O	-0.402186	-1.178369	-0.523939
O15	O	-0.311197	-1.453319	-0.680380
O16	O	-0.522291	-1.453125	-0.405449
O17	O	-0.522253	-1.334675	-0.523917
C18	C	-0.356717	-1.143379	-0.464710
C19	C	-0.356729	-1.036165	-0.464720
C20	C	-0.549143	-1.393911	-0.464695
C21	C	-0.631457	-1.393964	-0.464707
C22	C	-0.930548	-1.394087	-0.464795
C23	C	-0.899216	-1.468405	-0.390059
C24	C	-0.813597	-1.468662	-0.390253
C25	C	-0.782165	-1.394026	-0.464750
C26	C	-0.813167	-1.421587	-0.566425
C27	C	-0.898812	-1.422162	-0.566018
C28	C	-0.899058	-1.292011	-0.438737
C29	C	-0.813409	-1.292515	-0.436467
C30	C	-0.698306	-1.393990	-0.464731
C31	C	-1.014407	-1.394126	-0.464821
C32	C	-0.356728	-0.839870	-0.464738
C33	C	-0.356726	-0.949103	-0.464725
C34	C	-0.163570	-1.394103	-0.464809
C35	C	-0.081256	-1.394149	-0.464838
C36	C	-0.356667	-1.394062	-0.716335
C37	C	-0.356639	-1.394091	-0.823549
C38	C	-0.356743	-0.645587	-0.464764
C39	C	-0.356735	-0.752800	-0.464750
C40	C	-0.356589	-1.394117	-1.019844
C41	C	-0.356619	-1.394100	-0.910611
C42	C	-0.356744	-1.393981	-0.214127
C43	C	-0.356563	-1.394139	-0.106914
H44	H	-0.919863	-1.451370	-0.314443
H45	H	-0.920723	-1.266939	-0.365881
H46	H	-0.792640	-1.451419	-0.314863
O47	O	-0.789264	-1.267546	-0.347243
C48	C	-0.748107	-1.181630	-0.353078
H49	H	-0.764860	-1.140313	-0.420472
H50	H	-0.686695	-1.199506	-0.356689
C51	C	-0.742896	-1.170190	-0.180759
C52	C	-0.763478	-1.119440	-0.263530
H53	H	-0.752375	-1.131830	-0.125520
H54	H	-0.770623	-1.228076	-0.176827
H55	H	-0.691721	-1.185084	-0.183782
H56	H	-0.814654	-1.104558	-0.260512
H57	H	-0.735761	-1.061551	-0.267459
O58	O	-0.788863	-1.359123	-0.634761
C59	C	-0.748224	-1.409764	-0.705016
H60	H	-0.765457	-1.488652	-0.704575
H61	H	-0.686725	-1.404054	-0.688331
C62	C	-0.742464	-1.269337	-0.805432
C63	C	-0.763634	-1.366227	-0.804896
H64	H	-0.751966	-1.242480	-0.867043
H65	H	-0.769841	-1.235218	-0.758099
H66	H	-0.691216	-1.264591	-0.791524
H67	H	-0.814883	-1.370971	-0.818792
H68	H	-0.736266	-1.400347	-0.852234
O69	O	-0.787558	-1.509576	-0.593372
C70	C	-0.815940	-1.533249	-0.684820
H71	H	-0.831927	-1.464547	-0.724480
H72	H	-0.866761	-1.580882	-0.676043
C73	C	-0.737063	-1.671952	-0.694285
C74	C	-0.756692	-1.587569	-0.742998
H75	H	-0.700518	-1.705463	-0.730171
H76	H	-0.717943	-1.656005	-0.632673
H77	H	-0.779419	-1.711634	-0.686974
H78	H	-0.714339	-1.547883	-0.750298
H79	H	-0.775804	-1.603510	-0.804613
O80	O	-0.924870	-1.558062	-0.410537
C81	C	-0.971053	-1.553914	-0.492091
H82	H	-0.956743	-1.487497	-0.536451
H83	H	-1.031200	-1.549665	-0.468081
C84	C	-0.977158	-1.726415	-0.499200
C85	C	-0.959578	-1.644845	-0.553689
H86	H	-0.970083	-1.782507	-0.537195
H87	H	-0.946046	-1.729211	-0.444254
H88	H	-1.027280	-1.722861	-0.479196
H89	H	-0.909455	-1.648395	-0.573682
H90	H	-0.990682	-1.642053	-0.608640
O91	O	-0.923632	-1.360520	-0.634771
C92	C	-0.966681	-1.411496	-0.702197
H93	H	-0.988896	-1.479949	-0.667506
H94	H	-0.931124	-1.431164	-0.767027
C95	C	-1.004443	-1.264065	-0.777745
C96	C	-1.031733	-1.348137	-0.735134
H97	H	-1.044569	-1.224983	-0.798066
H98	H	-0.975438	-1.229722	-0.732321
H99	H	-0.974812	-1.280468	-0.831764
H100	H	-1.061356	-1.331734	-0.681109
H101	H	-1.060745	-1.382477	-0.780550
O102	O	-0.787851	-1.223020	-0.496757
C103	C	-0.740904	-1.264854	-0.566132
H104	H	-0.754587	-1.344549	-0.573812
H105	H	-0.680969	-1.256479	-0.542414
C106	C	-0.735293	-1.116326	-0.654144
C107	C	-0.752103	-1.214208	-0.663583
H108	H	-0.742198	-1.085083	-0.714256
H109	H	-0.766920	-1.088140	-0.607403
H110	H	-0.685348	-1.109360	-0.634376
H111	H	-0.802050	-1.221172	-0.683338
H112	H	-0.720485	-1.242394	-0.710329
H113	H	-0.919320	-1.236638	-0.493170
O114	O	-0.789172	-1.558931	-0.410714
C115	C	-0.815413	-1.623543	-0.340375
H116	H	-0.866910	-1.592352	-0.304851
H117	H	-0.770883	-1.635352	-0.283615
C118	C	-0.771416	-1.758611	-0.431835
C119	C	-0.834670	-1.720306	-0.388209
H120	H	-0.783291	-1.818301	-0.461339
H121	H	-0.753734	-1.715081	-0.479222
H122	H	-0.734313	-1.768444	-0.384527
H123	H	-0.871767	-1.710462	-0.435519
H124	H	-0.852358	-1.763836	-0.340831
H125	H	-0.918729	-1.496775	-0.588091
