data_functionalizedCrystal
_audit_creation_method	'MofGen! by Chris Wilmer'
_symmetry_space_group_name_H-M	'P1'
_symmetry_Int_Tables_number	1
_symmetry_cell_setting	triclinic
loop_
_symmetry_equiv_pos_as_xyz
  x,y,z
_cell_length_a	10.654545
_cell_length_b	15.995292
_cell_length_c	9.130313
_cell_angle_alpha	89.998674
_cell_angle_beta	89.996934
_cell_angle_gamma	83.975848
loop_
_atom_site_label
_atom_site_type_symbol
_atom_site_fract_x
_atom_site_fract_y
_atom_site_fract_z
O1	O	1.666270	0.117587	-0.121773
O2	O	1.300641	0.128796	-0.121778
O3	O	1.493488	0.001359	-0.121778
O4	O	1.473423	0.245025	-0.121774
O5	O	1.493475	0.001355	0.121821
O6	O	1.300628	0.128792	0.121820
O7	O	1.666257	0.117584	0.121825
Cu8	Cu	1.483441	0.123188	0.144065
Cu9	Cu	1.483456	0.123192	-0.144018
O10	O	1.473409	0.245021	0.121825
C11	C	1.253847	0.127972	0.000020
C12	C	1.114436	0.125512	0.000018
C13	C	1.048940	0.124352	0.132804
C14	C	0.917952	0.122027	0.132804
C15	C	0.917967	0.122025	-0.132780
C16	C	1.048954	0.124345	-0.132779
C17	C	1.492665	-0.029843	0.000018
C18	C	1.490216	-0.122810	0.000007
C19	C	1.481216	-0.460601	0.000020
C20	C	1.620408	-0.436482	0.000566
C21	C	1.623053	-0.339791	0.000012
C22	C	1.485682	-0.293019	0.000014
C23	C	1.416100	-0.322521	-0.139089
C24	C	1.414424	-0.419322	-0.139200
C25	C	1.411567	-0.419199	0.137817
C26	C	1.416725	-0.322677	0.139650
C27	C	1.488199	-0.198308	0.000006
C28	C	1.478695	-0.555311	0.000018
C29	C	1.713050	0.118408	0.000024
C30	C	1.852461	0.120868	0.000016
C31	C	1.474233	0.276223	0.000026
C32	C	1.476681	0.369190	0.000028
N33	N	1.483439	0.123184	0.346688
N34	N	1.483468	0.123189	-0.346641
C35	C	1.568860	0.066779	0.423340
C36	C	1.568873	0.066779	0.576677
C37	C	1.398038	0.179597	0.576696
C38	C	1.398021	0.179592	0.423362
H39	H	0.864635	0.121076	-0.240899
H40	H	1.328494	0.225524	0.639140
H41	H	1.677548	-0.320451	0.099724
H42	H	1.638429	0.020848	0.639083
N43	N	1.282205	-0.281078	-0.145961
H44	H	1.239282	-0.300954	-0.236231
H45	H	1.234777	-0.296487	-0.055789
H46	H	1.328454	0.225524	0.360948
N47	N	1.283896	-0.279797	0.150788
H48	H	1.222009	-0.323490	0.149555
H49	H	1.274350	-0.246817	0.245173
N50	N	1.119610	0.125586	-0.276005
H51	H	1.058252	0.124499	-0.360132
H52	H	1.163761	0.178361	-0.281795
N53	N	1.478288	-0.454478	-0.276923
H54	H	1.553582	-0.495270	-0.249951
H55	H	1.416726	-0.484600	-0.336034
N56	N	1.483817	-0.297694	0.275974
H57	H	1.573781	-0.324849	0.275087
H58	H	1.483497	-0.234550	0.278665
N59	N	0.847310	0.120772	0.276024
H60	H	0.908787	0.121272	0.360141
H61	H	0.783358	0.171927	0.282254
H62	H	1.464430	-0.302179	-0.242610
H63	H	1.102252	0.125303	0.240936
H64	H	1.673766	-0.465189	-0.098630
N65	N	1.691477	-0.473147	0.132708
H66	H	1.634142	-0.505753	0.193502
H67	H	1.766964	-0.511968	0.099410
N68	N	1.695677	-0.314979	-0.132295
H69	H	1.726087	-0.366882	-0.190490
H70	H	1.638921	-0.275393	-0.195572
N71	N	1.279248	-0.439388	-0.147581
H72	H	1.221012	-0.385371	-0.151193
H73	H	1.267363	-0.473426	-0.238761
H74	H	1.455396	-0.447036	0.243257
H75	H	1.309111	-0.433784	0.138756
H76	H	1.638412	0.020847	0.360916
