data_functionalizedCrystal
_audit_creation_method	'MofGen! by Chris Wilmer'
_symmetry_space_group_name_H-M	'P1'
_symmetry_Int_Tables_number	1
_symmetry_cell_setting	triclinic
loop_
_symmetry_equiv_pos_as_xyz
  x,y,z
_cell_length_a	14.908506
_cell_length_b	18.215407
_cell_length_c	18.215399
_cell_angle_alpha	90.017368
_cell_angle_beta	86.729363
_cell_angle_gamma	93.317222
loop_
_atom_site_label
_atom_site_type_symbol
_atom_site_fract_x
_atom_site_fract_y
_atom_site_fract_z
Zn1	Zn	-0.359230	1.108178	0.432979
Zn2	Zn	0.140770	1.608178	0.932979
Zn3	Zn	-0.510099	1.100992	0.317016
Zn4	Zn	-0.010099	1.600992	0.817016
Zn5	Zn	-0.359252	0.985110	0.309933
Zn6	Zn	0.140748	1.485110	0.809933
Zn7	Zn	-0.510041	0.977985	0.440043
Zn8	Zn	-0.010041	1.477985	0.940043
O9	O	-0.434655	1.043066	0.374993
O10	O	0.065345	1.543066	0.874993
O11	O	-0.379258	1.210209	0.417605
O12	O	0.120742	1.710209	0.917605
O13	O	-0.490122	1.085594	0.213094
O14	O	0.009878	1.585594	0.713094
O15	O	-0.233004	1.007425	0.320335
O16	O	0.266996	1.507425	0.820335
O17	O	-0.490101	1.204929	0.332407
O18	O	0.009899	1.704929	0.832407
O19	O	-0.232988	1.097843	0.410737
O20	O	0.267012	1.597843	0.910737
O21	O	-0.379295	1.000456	0.207890
O22	O	0.120705	1.500456	0.707890
O23	O	-0.379239	0.881181	0.327185
O24	O	0.120761	1.381181	0.827185
O25	O	-0.490002	0.995281	0.542089
O26	O	0.009998	1.495281	1.042089
O27	O	-0.490023	0.875946	0.422776
O28	O	0.009977	1.375946	0.922776
O29	O	-0.379202	1.090934	0.536899
O30	O	0.120798	1.590934	1.036899
O31	O	-0.636336	1.078685	0.339256
O32	O	-0.136336	1.578685	0.839256
O33	O	-0.636293	0.988312	0.429644
O34	O	-0.136293	1.488312	0.929644
C35	C	-0.434628	0.851861	0.374979
C36	C	0.065372	1.351861	0.874979
C37	C	-0.434638	0.770062	0.374991
C38	C	0.065362	1.270062	0.874991
C39	C	-0.377041	0.584611	0.419434
C40	C	0.122959	1.084611	0.919434
C41	C	-0.377048	0.507751	0.419437
C42	C	0.122952	1.007751	0.919437
C43	C	-0.492296	0.502273	0.330566
C44	C	0.007704	1.002273	0.830566
C45	C	-0.492283	0.579131	0.330560
C46	C	0.007717	1.079131	0.830560
C47	C	-0.434656	0.620298	0.374998
C48	C	0.065344	1.120298	0.874998
C49	C	-0.434677	0.466580	0.375007
C50	C	0.065323	0.966580	0.875007
C51	C	-0.434686	0.383246	0.375010
C52	C	0.065314	0.883246	0.875010
C53	C	-0.434646	0.703637	0.374994
C54	C	0.065354	1.203637	0.874994
C55	C	-0.669049	1.031966	0.386001
C56	C	-0.169049	1.531966	0.886001
C57	C	-0.769323	1.027284	0.390735
C58	C	-0.269323	1.527284	0.890735
C59	C	-0.910666	0.973597	0.444423
C60	C	-0.410666	1.473597	0.944423
C61	C	-0.816449	0.977994	0.439980
C62	C	-0.316449	1.477994	0.939980
C63	C	-0.816421	1.072182	0.345931
C64	C	-0.316421	1.572182	0.845931
C65	C	-0.910637	1.067785	0.350374
C66	C	-0.410637	1.567785	0.850374
C67	C	-0.957756	1.018490	0.399621
C68	C	-0.457756	1.518490	0.899621
C69	C	-1.051975	1.014090	0.404059
C70	C	-0.551975	1.514090	0.904059
C71	C	-1.051945	1.108281	0.310014
C72	C	-0.551945	1.608281	0.810014
C73	C	-0.957728	1.112678	0.305572
C74	C	-0.457728	1.612678	0.805572
C75	C	-0.199347	1.054230	0.363958
C76	C	0.300653	1.554230	0.863958
C77	C	-0.099072	1.058988	0.359255
C78	C	0.400928	1.558988	0.859255
C79	C	-0.434593	1.043114	0.566943
C80	C	0.065407	1.543114	1.066943
C81	C	-0.434567	1.043134	0.648741
C82	C	0.065433	1.543134	1.148741
C83	C	-0.434684	1.235018	0.375008
C84	C	0.065316	1.735018	0.875008
C85	C	-0.434696	1.316816	0.375014
C86	C	0.065304	1.816816	0.875014
C87	C	-0.434652	1.043064	0.183787
C88	C	0.065348	1.543064	0.683787
C89	C	-0.434425	1.043198	0.101977
C90	C	0.065575	1.543198	0.601977
C91	C	-0.376819	1.092960	0.834231
C92	C	0.123181	1.592960	1.334231
C93	C	-0.376793	1.092970	0.911089
C94	C	0.123207	1.592970	1.411089
C95	C	-0.492175	0.993367	0.916482
C96	C	0.007825	1.493367	1.416482
C97	C	-0.492196	0.993354	0.839625
C98	C	0.007804	1.493354	1.339625
C99	C	-0.434519	1.043155	0.798502
C100	C	0.065481	1.543155	1.298502
C101	C	-0.434472	1.043178	0.952216
C102	C	0.065528	1.543178	1.452216
C103	C	-0.434444	1.043188	1.035548
C104	C	0.065556	1.543188	1.535548
C105	C	-0.434546	1.043144	0.715164
C106	C	0.065454	1.543144	1.215164
H107	H	-1.090338	0.973953	0.444161
H108	H	-0.590338	1.473953	0.944161
H109	H	-1.090296	1.144836	0.273533
H110	H	-0.590296	1.644836	0.773533
H111	H	-0.778044	1.112322	0.305841
H112	H	-0.278044	1.612322	0.805841
H113	H	-0.539214	0.468745	0.294387
H114	H	-0.039214	0.968745	0.794387
Cl115	Cl	-0.304592	0.636361	0.475295
Cl116	Cl	0.195408	1.136361	0.975295
Cl117	Cl	-0.304260	1.155592	0.956002
Cl118	Cl	0.195740	1.655592	1.456002
Cl119	Cl	-0.304612	0.462891	0.475300
Cl120	Cl	0.195388	0.962891	0.975300
H121	H	-0.949031	0.933460	0.484523
H122	H	-0.449031	1.433460	0.984523
Cl123	Cl	-0.564734	0.930732	0.794705
Cl124	Cl	-0.064734	1.430732	1.294705
H125	H	-0.329853	1.133509	0.800750
H126	H	0.170147	1.633509	1.300750
H127	H	-0.778110	0.941439	0.476463
H128	H	-0.278110	1.441439	0.976463
Cl129	Cl	-0.564711	0.623998	0.274685
Cl130	Cl	-0.064711	1.123998	0.774685
H131	H	-0.919353	1.152815	0.265478
H132	H	-0.419353	1.652815	0.765478
H133	H	-0.539135	0.952823	0.949974
H134	H	-0.039135	1.452823	1.449974
