data_functionalizedCrystal
_audit_creation_method	'MofGen! by Chris Wilmer'
_symmetry_space_group_name_H-M	'P1'
_symmetry_Int_Tables_number	1
_symmetry_cell_setting	triclinic
loop_
_symmetry_equiv_pos_as_xyz
  x,y,z
_cell_length_a	10.540514
_cell_length_b	10.540539
_cell_length_c	9.130307
_cell_angle_alpha	89.998824
_cell_angle_beta	89.997959
_cell_angle_gamma	84.520326
loop_
_atom_site_label
_atom_site_type_symbol
_atom_site_fract_x
_atom_site_fract_y
_atom_site_fract_z
O1	O	1.685901	0.178746	-0.121810
O2	O	1.316484	0.195635	-0.121808
O3	O	1.509620	0.002483	-0.121808
O4	O	1.492764	0.371898	-0.121811
O5	O	1.509614	0.002481	0.121791
O6	O	1.316477	0.195633	0.121790
O7	O	1.685894	0.178744	0.121789
Cu8	Cu	1.501185	0.187188	0.144032
Cu9	Cu	1.501193	0.187190	-0.144052
O10	O	1.492758	0.371896	0.121788
C11	C	1.269177	0.194374	-0.000009
C12	C	1.128227	0.190605	-0.000008
C13	C	1.057522	0.328745	-0.000013
C14	C	0.910908	0.324871	-0.000573
C15	C	0.935893	0.115479	-0.138852
C16	C	1.082433	0.120333	-0.138961
C17	C	1.082828	0.118286	0.138066
C18	C	0.935849	0.116953	0.139883
C19	C	1.508353	-0.044821	-0.000011
C20	C	1.504571	-0.185769	-0.000019
C21	C	1.359652	-0.369182	-0.000565
C22	C	1.363486	-0.222564	-0.000016
C23	C	1.572464	-0.247433	0.139088
C24	C	1.567649	-0.393977	0.139205
C25	C	1.570525	-0.394494	-0.137812
C26	C	1.571825	-0.247512	-0.139652
C27	C	1.733201	0.180004	-0.000014
C28	C	1.874151	0.183774	-0.000024
C29	C	1.494025	0.419199	-0.000012
C30	C	1.497807	0.560147	-0.000014
N31	N	1.501189	0.187186	0.346655
N32	N	1.501199	0.187183	-0.346675
C33	C	1.672282	0.016200	0.346646
C34	C	1.757837	-0.069289	0.423308
C35	C	1.757850	-0.069290	0.576641
C36	C	1.672296	0.016205	0.653316
C37	C	1.586741	0.101694	0.576654
C38	C	1.586740	0.101689	0.423317
C39	C	1.415644	0.272672	0.576663
C40	C	1.415635	0.272681	0.423330
C41	C	1.330090	0.358167	0.653338
C42	C	1.244539	0.443664	0.576676
C43	C	1.244531	0.443663	0.423333
C44	C	1.330080	0.358170	0.346668
H45	H	1.110660	0.170215	-0.243135
O46	O	1.146040	-0.014072	-0.146794
H47	H	1.205736	-0.024954	-0.246979
H48	H	1.672291	0.016203	0.221794
O49	O	1.672311	0.016205	0.818697
H50	H	1.651171	-0.078829	0.859133
O51	O	1.330103	0.358182	0.818719
H52	H	1.403977	0.284387	0.859150
O53	O	1.097555	0.401881	-0.131703
H54	H	1.141762	0.487754	-0.094566
H55	H	1.114319	0.164269	0.243326
O56	O	0.855626	0.395719	-0.133174
H57	H	0.750596	0.393208	-0.134030
H58	H	0.894851	0.166863	0.242590
O59	O	1.850105	-0.161498	0.340602
H60	H	1.909589	-0.220951	0.419672
H61	H	1.330086	0.358166	0.221815
H62	H	1.672430	-0.441729	-0.138748
O63	O	1.152289	0.535880	0.659379
H64	H	1.092799	0.595333	0.580316
O65	O	1.501174	-0.431345	0.276936
H66	H	1.402938	-0.382952	0.279366
O67	O	1.152256	0.535873	0.340647
H68	H	1.092780	0.595322	0.419729
H69	H	1.309684	-0.180804	0.099867
O70	O	0.854374	0.396028	0.131209
H71	H	0.931748	0.433528	0.195912
H72	H	1.827511	-0.138907	0.639060
H73	H	1.522148	-0.206648	-0.242559
H74	H	1.086059	0.384783	0.099527
O75	O	0.906335	-0.021792	-0.145196
H76	H	0.847179	-0.042844	-0.049241
O77	O	1.286113	-0.409176	0.130830
H78	H	1.256511	-0.324276	0.198975
H79	H	0.893289	0.162294	-0.242564
H80	H	1.525296	-0.204830	0.242607
O81	O	0.903726	-0.019249	0.151560
H82	H	0.940164	-0.073253	0.053463
H83	H	1.669115	-0.441955	0.145516
O84	O	1.708080	-0.215448	-0.150787
H85	H	1.773056	-0.304742	-0.149421
H86	H	1.130084	0.016393	0.139407
H87	H	1.676072	-0.225089	0.144260
O88	O	1.292698	-0.166118	-0.132085
H89	H	1.338607	-0.206662	-0.233340
O90	O	1.285805	-0.407074	-0.132677
H91	H	1.346773	-0.476686	-0.199359
H92	H	1.524866	-0.426042	-0.243246
