data_functionalizedCrystal
_audit_creation_method	'MofGen! by Chris Wilmer'
_symmetry_space_group_name_H-M	'P1'
_symmetry_Int_Tables_number	1
_symmetry_cell_setting	triclinic
loop_
_symmetry_equiv_pos_as_xyz
  x,y,z
_cell_length_a	14.044220
_cell_length_b	14.044220
_cell_length_c	13.101039
_cell_angle_alpha	86.332523
_cell_angle_beta	86.340132
_cell_angle_gamma	86.811122
loop_
_atom_site_label
_atom_site_type_symbol
_atom_site_fract_x
_atom_site_fract_y
_atom_site_fract_z
O1	O	1.281968	-0.225348	-0.085109
O2	O	1.781968	0.274652	0.414891
O3	O	1.005298	-0.217041	-0.085135
O4	O	1.505298	0.282959	0.414865
O5	O	1.139480	-0.082860	-0.085112
O6	O	1.639480	0.417140	0.414888
O7	O	1.147787	-0.359530	-0.085132
O8	O	1.647787	0.140470	0.414868
O9	O	1.129854	-0.092504	0.085316
O10	O	1.629854	0.407496	0.585316
O11	O	0.995673	-0.226686	0.085293
O12	O	1.495673	0.273314	0.585293
O13	O	1.272343	-0.234993	0.085319
O14	O	1.772343	0.265007	0.585319
Zn15	Zn	1.132479	-0.232371	0.112365
Zn16	Zn	1.632479	0.267629	0.612365
Zn17	Zn	1.145162	-0.219663	-0.112181
Zn18	Zn	1.645162	0.280337	0.387819
O19	O	1.138161	-0.369175	0.085296
O20	O	1.638161	0.130825	0.585296
C21	C	0.964864	-0.218228	0.000076
C22	C	1.464864	0.281772	0.500076
C23	C	0.858722	-0.207383	0.000066
C24	C	1.358722	0.292617	0.500066
C25	C	0.664383	-0.187558	0.000088
C26	C	1.164383	0.312442	0.500088
C27	C	0.613253	-0.264472	0.000087
C28	C	1.113253	0.235528	0.500087
C29	C	0.505116	-0.253441	0.000099
C30	C	1.005116	0.246559	0.500099
C31	C	0.772529	-0.198587	0.000076
C32	C	1.272529	0.301413	0.500076
C33	C	1.131031	-0.052060	0.000102
C34	C	1.631031	0.447940	0.500102
C35	C	1.120187	0.054083	0.000102
C36	C	1.620187	0.554083	0.500102
C37	C	1.312777	-0.233806	0.000106
C38	C	1.812777	0.266194	0.500106
C39	C	1.418920	-0.244651	0.000109
C40	C	1.918920	0.255349	0.500109
C41	C	1.146610	-0.399974	0.000080
C42	C	1.646610	0.100026	0.500080
C43	C	1.157455	-0.506116	0.000073
C44	C	1.657455	-0.006116	0.500073
N45	N	1.123831	-0.241043	0.265612
N46	N	1.623831	0.258957	0.765612
C47	C	1.100362	0.248421	0.000086
C48	C	1.600362	0.748421	0.500086
C49	C	1.177276	0.299551	0.000090
C50	C	1.677276	0.799551	0.500090
C51	C	1.166245	0.407688	0.000080
C52	C	1.666245	0.907688	0.500080
C53	C	1.111391	0.140275	0.000095
C54	C	1.611391	0.640275	0.500095
N55	N	1.153817	-0.210984	-0.265428
N56	N	1.653817	0.289016	0.234572
C57	C	1.112065	-0.252851	0.474653
C58	C	1.612065	0.247149	0.974653
C59	C	1.165580	-0.199179	0.525538
C60	C	1.665580	0.300821	1.025538
C61	C	1.159034	-0.205749	0.641855
C62	C	1.659034	0.294251	1.141855
C63	C	1.118610	-0.246282	0.358325
C64	C	1.618610	0.253718	0.858325
H65	H	0.650693	-0.338605	0.000077
H66	H	1.150693	0.161395	0.500077
H67	H	1.251413	0.262115	0.000028
H68	H	1.751413	0.762115	0.500028
O69	O	0.619692	-0.099131	-0.000090
O70	O	1.119692	0.400869	0.499910
C71	C	0.516519	0.017002	-0.088352
C72	C	1.016519	0.517002	0.411648
C73	C	0.567110	-0.083149	-0.088283
C74	C	1.067110	0.416851	0.411717
H75	H	0.473977	0.029948	-0.159637
H76	H	0.973977	0.529948	0.340363
H77	H	0.572031	0.073229	-0.088423
H78	H	1.072031	0.573229	0.411577
H79	H	0.466039	0.021948	-0.016992
H80	H	0.966039	0.521948	0.483008
H81	H	0.617586	-0.088188	-0.159630
H82	H	1.117586	0.411812	0.340370
H83	H	0.511545	-0.139329	-0.088158
H84	H	1.011545	0.360671	0.411842
O85	O	1.011867	0.292960	0.000216
O86	O	1.511867	0.792960	0.500216
C87	C	0.856785	0.311893	0.088539
C88	C	1.356785	0.811893	0.588539
C89	C	0.956960	0.261354	0.088503
C90	C	1.456960	0.761354	0.588503
H91	H	0.812371	0.286374	0.159922
H92	H	1.312371	0.786374	0.659922
H93	H	0.820291	0.294371	0.017264
H94	H	1.320291	0.794371	0.517264
H95	H	0.863559	0.392411	0.088485
H96	H	1.363559	0.892411	0.588485
H97	H	0.950271	0.180826	0.088593
H98	H	1.450271	0.680826	0.588593
H99	H	0.993417	0.278954	0.159771
H100	H	1.493417	0.778954	0.659771
H101	H	1.216314	-0.148295	0.481744
H102	H	1.716314	0.351705	0.981744
H103	H	1.061336	-0.303733	0.518442
H104	H	1.561336	0.196267	1.018442
