data_functionalizedCrystal
_audit_creation_method	'MofGen! by Chris Wilmer'
_symmetry_space_group_name_H-M	'P1'
_symmetry_Int_Tables_number	1
_symmetry_cell_setting	triclinic
loop_
_symmetry_equiv_pos_as_xyz
  x,y,z
_cell_length_a	18.050591
_cell_length_b	18.050589
_cell_length_c	18.050582
_cell_angle_alpha	89.972096
_cell_angle_beta	90.020922
_cell_angle_gamma	89.979091
loop_
_atom_site_label
_atom_site_type_symbol
_atom_site_fract_x
_atom_site_fract_y
_atom_site_fract_z
Zn1	Zn	1.135310	0.295786	0.420004
Zn2	Zn	1.135228	0.419969	0.295802
Zn3	Zn	1.011129	0.295789	0.295815
Zn4	Zn	1.011084	0.419930	0.419938
O5	O	1.073188	0.357868	0.357890
O6	O	1.239223	0.312274	0.403551
O7	O	1.118750	0.403514	0.191879
O8	O	1.027655	0.191864	0.312322
O9	O	1.239163	0.403511	0.312300
O10	O	1.118890	0.191862	0.403563
O11	O	1.027575	0.312279	0.191889
O12	O	0.907198	0.312241	0.312258
O13	O	1.027578	0.403444	0.523871
O14	O	0.907165	0.403447	0.403450
O15	O	1.118846	0.312236	0.523920
O16	O	1.118706	0.523888	0.312236
O17	O	1.027499	0.523860	0.403438
C18	C	0.880235	0.357841	0.357849
C19	C	0.797690	0.357847	0.357849
C20	C	1.073109	0.550820	0.357845
C21	C	1.073143	0.633366	0.357850
C22	C	1.073217	0.357835	0.551595
C23	C	1.073229	0.357821	0.634141
C24	C	0.598235	0.308191	0.308372
C25	C	0.548820	0.375927	0.290090
C26	C	0.646559	0.357869	0.357882
C27	C	0.548893	0.290157	0.376163
C28	C	0.500574	0.357885	0.357913
C29	C	0.598231	0.425641	0.339565
C30	C	0.598309	0.339825	0.425669
C31	C	0.548915	0.407607	0.407412
C32	C	0.730658	0.357859	0.357863
C33	C	0.416478	0.357903	0.357933
C34	C	1.266893	0.357897	0.357931
C35	C	1.349439	0.357909	0.357949
C36	C	1.122852	0.882181	0.308319
C37	C	1.055099	0.832843	0.290075
C38	C	1.073214	0.930487	0.357886
C39	C	1.140929	0.832742	0.376077
C40	C	1.073183	0.784502	0.357867
C41	C	1.005425	0.882237	0.339607
C42	C	1.091301	0.882140	0.425641
C43	C	1.023500	0.832825	0.407423
C44	C	1.073233	1.014585	0.357895
C45	C	1.073156	0.700405	0.357857
C46	C	1.073267	1.164163	0.357933
C47	C	1.073252	1.081617	0.357904
C48	C	1.073201	0.357848	0.164938
C49	C	1.073333	0.357652	0.082392
C50	C	1.023635	0.407353	0.833566
C51	C	1.091392	0.425511	0.882962
C52	C	1.073266	0.357765	0.785272
C53	C	1.005547	0.339586	0.882957
C54	C	1.073295	0.357711	0.931257
C55	C	1.141057	0.375958	0.833581
C56	C	1.055167	0.290002	0.833571
C57	C	1.122970	0.308134	0.882946
C58	C	1.073248	0.357797	0.701173
C59	C	1.073321	0.357679	1.015354
H60	H	0.527083	0.391202	0.232778
H61	H	0.527396	0.449673	0.449294
H62	H	1.198356	0.391377	0.811983
H63	H	1.165001	0.266177	0.904490
C64	C	0.627379	0.503031	0.318598
C65	C	0.711389	0.517315	0.314675
C66	C	0.740538	0.594702	0.293705
C67	C	0.685678	0.657807	0.276659
C68	C	0.601663	0.643525	0.280581
C69	C	0.572513	0.566137	0.301551
H70	H	0.752004	0.470599	0.327294
H71	H	0.802732	0.605274	0.290801
H72	H	0.707256	0.715094	0.261136
H73	H	0.561047	0.690240	0.267962
H74	H	0.510319	0.555566	0.304455
C75	C	1.179507	0.911466	0.251664
C76	C	1.225275	0.856722	0.204927
C77	C	1.281924	0.886010	0.148271
C78	C	1.292806	0.970042	0.138351
C79	C	1.247036	1.024791	0.185089
C80	C	1.190387	0.995504	0.241745
H81	H	1.217221	0.794512	0.212270
H82	H	1.315805	0.845480	0.113673
H83	H	1.334741	0.991722	0.096411
H84	H	1.255090	1.087001	0.177746
H85	H	1.156506	1.036033	0.276343
C86	C	1.034407	0.803582	0.212659
C87	C	1.088868	0.753673	0.170004
C88	C	1.068182	0.724415	0.092587
C89	C	0.993036	0.745067	0.057825
C90	C	0.938570	0.794979	0.100480
C91	C	0.959256	0.824236	0.177897
H92	H	1.144500	0.738382	0.195737
H93	H	1.108502	0.687467	0.061011
H94	H	0.977723	0.723409	0.000516
H95	H	0.882938	0.810269	0.074747
H96	H	0.918936	0.861185	0.209473
C97	C	0.928022	0.911474	0.318716
C98	C	0.864900	0.856687	0.301704
C99	C	0.787500	0.885926	0.280812
C100	C	0.773222	0.969952	0.276931
C101	C	0.836346	1.024745	0.293943
C102	C	0.913746	0.995506	0.314836
H103	H	0.875467	0.794481	0.304577
H104	H	0.740771	0.845364	0.268218
H105	H	0.715926	0.991597	0.261465
H106	H	0.825778	1.086951	0.291071
H107	H	0.960475	1.036067	0.327429
C108	C	0.627705	0.319165	0.503070
C109	C	0.608294	0.243462	0.537294
C110	C	0.637692	0.222792	0.614696
C111	C	0.686501	0.277827	0.657873
C112	C	0.705915	0.353535	0.623649
C113	C	0.676516	0.374205	0.546248
H114	H	0.572160	0.202718	0.505331
H115	H	0.623321	0.166748	0.640030
H116	H	0.708263	0.262526	0.715170
H117	H	0.742048	0.394280	0.655612
H118	H	0.690888	0.430249	0.520914
H119	H	0.948265	0.324232	0.904646
H120	H	0.619891	0.266226	0.266458
H121	H	1.106637	0.903811	0.482932
C122	C	0.966709	0.803725	0.464034
C123	C	0.974236	0.824334	0.546469
C124	C	0.917441	0.795232	0.603074
C125	C	0.853118	0.745521	0.577246
C126	C	0.845588	0.724909	0.494807
C127	C	0.902383	0.754011	0.438202
H128	H	1.021854	0.861135	0.565592
H129	H	0.923016	0.810490	0.664101
H130	H	0.811075	0.723977	0.619149
H131	H	0.797969	0.688108	0.475684
H132	H	0.896808	0.738753	0.377175
H133	H	1.198207	0.811002	0.391471
H134	H	0.981704	0.449342	0.811885
C135	C	0.519616	0.212791	0.397041
C136	C	0.470867	0.202887	0.466333
C137	C	0.441593	0.125520	0.487204
C138	C	0.461068	0.058056	0.438782
C139	C	0.509820	0.067958	0.369486
C140	C	0.539094	0.145325	0.348615
H141	H	0.456448	0.252829	0.502182
H142	H	0.405504	0.118190	0.538502
H143	H	0.439398	0.000784	0.454232
H144	H	0.524239	0.018016	0.333637
H145	H	0.575183	0.152655	0.297316
H146	H	1.106718	0.482794	0.904658
H147	H	1.039821	0.232736	0.811860
