data_functionalizedCrystal
_audit_creation_method	'MofGen! by Chris Wilmer'
_symmetry_space_group_name_H-M	'P1'
_symmetry_Int_Tables_number	1
_symmetry_cell_setting	triclinic
loop_
_symmetry_equiv_pos_as_xyz
  x,y,z
_cell_length_a	19.188930
_cell_length_b	19.188930
_cell_length_c	10.268362
_cell_angle_alpha	89.989600
_cell_angle_beta	89.981535
_cell_angle_gamma	83.144779
loop_
_atom_site_label
_atom_site_type_symbol
_atom_site_fract_x
_atom_site_fract_y
_atom_site_fract_z
O1	O	0.926145	0.087168	-0.108733
O2	O	1.426145	0.587168	0.391267
O3	O	0.722834	0.098902	-0.108646
O4	O	1.222834	0.598902	0.391354
O5	O	0.830356	-0.008620	-0.108667
O6	O	1.330356	0.491380	0.391333
O7	O	0.818622	0.194691	-0.108713
O8	O	1.318622	0.694691	0.391287
O9	O	0.830347	-0.008625	0.107934
O10	O	1.330347	0.491375	0.607934
O11	O	0.722824	0.098898	0.107955
O12	O	1.222824	0.598898	0.607955
O13	O	0.926136	0.087164	0.107867
O14	O	1.426136	0.587164	0.607867
Cu15	Cu	0.824479	0.093031	0.127688
Cu16	Cu	1.324479	0.593031	0.627688
Cu17	Cu	0.824490	0.093036	-0.128467
Cu18	Cu	1.324490	0.593036	0.371533
O19	O	0.818613	0.194687	0.107888
O20	O	1.318613	0.694687	0.607888
C21	C	0.696818	0.098520	-0.000334
C22	C	1.196818	0.598520	0.499666
C23	C	0.619313	0.097380	-0.000300
C24	C	1.119313	0.597380	0.499700
C25	C	0.574389	0.160470	-0.000334
C26	C	1.074389	0.660470	0.499666
C27	C	0.501566	0.159399	-0.000349
C28	C	1.001566	0.659399	0.499651
C29	C	0.473669	0.095233	-0.000354
C30	C	0.973669	0.595233	0.499646
C31	C	0.518603	0.032133	-0.000312
C32	C	1.018603	0.532133	0.499688
C33	C	0.591425	0.033207	-0.000285
C34	C	1.091425	0.533207	0.499715
N35	N	0.365692	0.046187	-0.074114
N36	N	0.865692	0.546187	0.425886
N37	N	0.296513	0.045172	-0.074143
N38	N	0.796513	0.545172	0.425857
C39	C	0.254260	0.091994	-0.000433
C40	C	0.754260	0.591994	0.499567
N41	N	0.283798	0.139882	0.073290
N42	N	0.783798	0.639882	0.573290
N43	N	0.352983	0.140899	0.073313
N44	N	0.852983	0.640899	0.573313
C45	C	0.394707	0.094062	-0.000383
C46	C	0.894707	0.594062	0.499617
C47	C	0.130372	0.153928	-0.000481
C48	C	0.630372	0.653928	0.499519
C49	C	0.057547	0.152853	-0.000487
C50	C	0.557547	0.652853	0.499513
C51	C	0.074586	0.025586	-0.000464
C52	C	0.574586	0.525586	0.499536
C53	C	0.147409	0.026662	-0.000445
C54	C	0.647409	0.526662	0.499555
C55	C	0.175298	0.090835	-0.000460
C56	C	0.675298	0.590835	0.499540
C57	C	0.829972	-0.034634	-0.000363
C58	C	1.329972	0.465366	0.499637
C59	C	0.828831	-0.112138	-0.000351
C60	C	1.328831	0.387862	0.499649
C61	C	0.891922	-0.157062	-0.000372
C62	C	1.391922	0.342938	0.499628
C63	C	0.890850	-0.229886	-0.000392
C64	C	1.390850	0.270114	0.499608
C65	C	0.826684	-0.257782	-0.000366
C66	C	1.326684	0.242218	0.499634
C67	C	0.763585	-0.212849	-0.000352
C68	C	1.263585	0.287151	0.499648
C69	C	0.764658	-0.140026	-0.000345
C70	C	1.264658	0.359974	0.499655
N71	N	0.777634	-0.365789	0.073369
N72	N	1.277634	0.134211	0.573369
N73	N	0.776618	-0.434967	0.073365
N74	N	1.276618	0.065033	0.573365
C75	C	0.823446	-0.477191	-0.000391
C76	C	1.323446	0.022809	0.499609
N77	N	0.871338	-0.447624	-0.074125
N78	N	1.371338	0.052376	0.425875
N79	N	0.872356	-0.378439	-0.074115
N80	N	1.372356	0.121561	0.425885
C81	C	0.825513	-0.336745	-0.000374
C82	C	1.325513	0.163255	0.499626
C83	C	0.885379	-0.601079	-0.000435
C84	C	1.385379	-0.101079	0.499565
C85	C	0.884305	-0.673904	-0.000464
C86	C	1.384305	-0.173904	0.499536
C87	C	0.757038	-0.656865	-0.000411
C88	C	1.257038	-0.156865	0.499589
C89	C	0.758114	-0.584042	-0.000395
C90	C	1.258114	-0.084042	0.499605
C91	C	0.822286	-0.556154	-0.000401
C92	C	1.322286	-0.056154	0.499599
C93	C	0.952151	0.087546	-0.000448
C94	C	1.452151	0.587546	0.499552
C95	C	1.029656	0.088687	-0.000490
C96	C	1.529656	0.588687	0.499510
C97	C	0.818997	0.220700	-0.000419
C98	C	1.318997	0.720700	0.499581
C99	C	0.820138	0.298204	-0.000439
C100	C	1.320138	0.798204	0.499561
N101	N	0.824476	0.093026	0.307854
N102	N	1.324476	0.593026	0.807854
N103	N	0.824498	0.093034	-0.308633
N104	N	1.324498	0.593034	0.191367
C105	C	0.824487	0.093034	0.573525
C106	C	1.324487	0.593034	1.073525
C107	C	0.824479	0.093032	0.425687
C108	C	1.324479	0.593032	0.925687
H109	H	0.628003	-0.018171	-0.000257
H110	H	1.128003	0.481829	0.499743
H111	H	0.937632	-0.578372	-0.000446
H112	H	1.437632	-0.078372	0.499554
H113	H	0.464982	0.210776	-0.000373
H114	H	0.964982	0.710776	0.499627
C115	C	0.106218	0.279617	-0.000492
C116	C	0.606218	0.779617	0.499508
C117	C	0.161033	0.224464	-0.000477
C118	C	0.661033	0.724464	0.499523
H119	H	0.125147	0.323162	-0.000481
H120	H	0.625147	0.823162	0.499519
H121	H	0.078190	0.276555	-0.076028
H122	H	0.578190	0.776555	0.423972
H123	H	0.078150	0.276542	0.075040
H124	H	0.578150	0.776542	0.575040
H125	H	0.189098	0.227536	-0.076014
H126	H	0.689098	0.727536	0.423986
H127	H	0.189073	0.227527	0.075067
H128	H	0.689073	0.727527	0.575067
C129	C	0.414536	-0.026019	-0.000367
C130	C	0.914536	0.473981	0.499633
C131	C	0.487942	-0.038399	-0.000326
C132	C	0.987942	0.461601	0.499674
H133	H	0.395609	-0.069566	-0.000379
H134	H	0.895609	0.430434	0.499621
H135	H	0.399083	-0.000057	0.075152
H136	H	0.899083	0.499943	0.575152
H137	H	0.399132	-0.000047	-0.075916
H138	H	0.899132	0.499953	0.424084
H139	H	0.503346	-0.064367	0.075229
H140	H	1.003346	0.435633	0.575229
H141	H	0.503401	-0.064372	-0.075852
H142	H	1.003401	0.435628	0.424148
H143	H	0.020970	0.204232	-0.000508
H144	H	0.520970	0.704232	0.499492
H145	H	0.183988	-0.024713	-0.000424
H146	H	0.683988	0.475287	0.499576
H147	H	0.711340	-0.235567	-0.000333
H148	H	1.211340	0.264433	0.499667
C149	C	0.956942	-0.765657	-0.111857
C150	C	1.456942	-0.265657	0.388143
C151	C	0.953662	-0.723286	-0.000497
C152	C	1.453662	-0.223286	0.499503
H153	H	0.999763	-0.796140	-0.111880
H154	H	1.499763	-0.296140	0.388120
H155	H	0.918579	-0.792691	-0.111844
H156	H	1.418579	-0.292691	0.388156
H157	H	0.954719	-0.736874	-0.187373
H158	H	1.454719	-0.236874	0.312627
H159	H	0.955879	-0.752069	0.075019
H160	H	1.455879	-0.252069	0.575019
H161	H	0.992035	-0.696250	-0.000498
H162	H	1.492035	-0.196250	0.499502
C163	C	-0.029475	-0.032568	-0.000510
C164	C	0.470525	0.467432	0.499490
C165	C	0.043931	-0.044948	-0.000477
C166	C	0.543931	0.455052	0.499523
H167	H	-0.048401	-0.076115	-0.000524
H168	H	0.451599	0.423885	0.499476
H169	H	-0.044926	-0.006608	0.075012
H170	H	0.455074	0.493392	0.575012
H171	H	-0.044882	-0.006594	-0.076055
H172	H	0.455118	0.493406	0.423945
H173	H	0.059338	-0.070917	0.075074
H174	H	0.559338	0.429083	0.575074
H175	H	0.059388	-0.070918	-0.076007
H176	H	0.559388	0.429082	0.423993
H177	H	0.704792	-0.679578	-0.000395
H178	H	1.204792	-0.179578	0.499605
H179	H	0.706738	-0.547464	-0.000371
H180	H	1.206738	-0.047464	0.499629
C181	C	1.016756	-0.239421	-0.000410
C182	C	1.516756	0.260579	0.499590
C183	C	0.960204	-0.279278	-0.000406
C184	C	1.460204	0.220722	0.499594
H185	H	1.059571	-0.269913	-0.000409
H186	H	1.559571	0.230087	0.499591
H187	H	1.014539	-0.210658	-0.075938
H188	H	1.514539	0.289342	0.424062
H189	H	1.014516	-0.210668	0.075130
H190	H	1.514516	0.289332	0.575130
H191	H	0.962441	-0.308027	-0.075951
H192	H	1.462441	0.191973	0.424049
H193	H	0.962423	-0.308053	0.075130
H194	H	1.462423	0.191947	0.575130
H195	H	0.713281	-0.103448	-0.000327
H196	H	1.213281	0.396552	0.499673
C197	C	0.550227	0.286159	-0.000356
C198	C	1.050227	0.786159	0.499644
C199	C	0.605043	0.231008	-0.000329
C200	C	1.105043	0.731008	0.499671
H201	H	0.569154	0.329705	-0.000342
H202	H	1.069154	0.829705	0.499658
H203	H	0.522203	0.283096	-0.075898
H204	H	1.022203	0.783096	0.424102
H205	H	0.522154	0.283084	0.075170
H206	H	1.022154	0.783084	0.575170
H207	H	0.633113	0.234080	-0.075860
H208	H	1.133113	0.734080	0.424140
H209	H	0.633079	0.234073	0.075220
H210	H	1.133079	0.734073	0.575220
H211	H	0.944176	-0.134360	-0.000381
H212	H	1.444176	0.365640	0.499619
