data_functionalizedCrystal
_audit_creation_method	'MofGen! by Chris Wilmer'
_symmetry_space_group_name_H-M	'P1'
_symmetry_Int_Tables_number	1
_symmetry_cell_setting	triclinic
loop_
_symmetry_equiv_pos_as_xyz
  x,y,z
_cell_length_a	27.440280
_cell_length_b	27.440279
_cell_length_c	21.606444
_cell_angle_alpha	60.004834
_cell_angle_beta	90.005497
_cell_angle_gamma	60.011417
loop_
_atom_site_label
_atom_site_type_symbol
_atom_site_fract_x
_atom_site_fract_y
_atom_site_fract_z
Zr1	Zr	0.469678	0.533227	-0.081000
O2	O	0.391889	0.634880	-0.179811
O3	O	0.493500	0.431583	-0.050729
O4	O	0.493529	0.533227	-0.179823
O5	O	0.391864	0.533232	0.051138
O6	O	0.573732	0.533218	-0.179810
O7	O	0.391860	0.533235	-0.050717
O8	O	0.573680	0.351394	0.051116
O9	O	0.391916	0.715056	-0.179789
O10	O	0.563544	0.473380	-0.037785
O11	O	0.503692	0.473385	0.038218
O12	O	0.503726	0.593058	-0.113774
O13	O	0.443875	0.593063	-0.037771
Zr14	Zr	0.597598	0.533206	0.081466
Zr15	Zr	0.597592	0.533212	-0.080980
Zr16	Zr	0.469684	0.533221	0.081446
Zr17	Zr	0.469721	0.661098	-0.080964
Zr18	Zr	0.597555	0.405335	0.081430
O19	O	0.573776	0.634851	0.051195
O20	O	0.573766	0.634859	-0.179782
O21	O	0.391898	0.634872	0.051166
O22	O	0.675387	0.431553	0.180277
O23	O	0.675378	0.431561	-0.050700
O24	O	0.493510	0.431575	0.180248
O25	O	0.675412	0.533202	-0.050671
O26	O	0.573747	0.533206	0.180289
O27	O	0.493544	0.533215	0.180276
O28	O	0.675416	0.533198	0.051183
O29	O	0.493591	0.715044	-0.179772
O30	O	0.573685	0.351390	0.180239
O31	O	0.675360	0.351378	0.180255
O32	O	0.675355	0.351382	0.051132
O33	O	0.391921	0.715051	-0.050666
O34	O	0.493596	0.715039	-0.050650
O35	O	0.563550	0.473375	0.114240
O36	O	0.623401	0.473371	0.038237
O37	O	0.563584	0.593049	-0.037752
O38	O	0.503733	0.593053	0.038251
C39	C	0.533584	0.373269	0.000189
C40	C	0.533566	0.318985	0.000174
C41	C	0.502389	0.084228	0.039911
C42	C	0.502377	0.135259	0.039901
O43	O	0.475819	0.161637	0.073656
N44	N	0.533610	0.160781	0.000218
C45	C	0.564863	0.135266	-0.039451
O46	O	0.591428	0.161661	-0.073204
C47	C	0.564877	0.084233	-0.039436
C48	C	0.533637	0.058718	0.000243
C49	C	0.471151	0.058713	0.079587
C50	C	0.471162	0.007687	0.079596
C51	C	0.502410	-0.017823	0.039928
C52	C	0.533648	0.007693	0.000252
C53	C	0.596133	0.058716	-0.079100
C54	C	0.596145	0.007679	-0.079081
C55	C	0.564905	-0.017836	-0.039402
C56	C	0.564907	-0.068843	-0.039407
N57	N	0.533674	-0.094366	0.000275
C58	C	0.502425	-0.068856	0.039943
C59	C	0.564830	0.242437	-0.039478
C60	C	0.564812	0.293473	-0.039498
C61	C	0.502327	0.293461	0.039855
C62	C	0.502342	0.242428	0.039870
C63	C	0.533596	0.216915	0.000205
C64	C	0.502450	-0.176013	0.039958
C65	C	0.502462	-0.227041	0.039960
C66	C	0.564949	-0.227027	-0.039389
C67	C	0.564935	-0.176001	-0.039395
C68	C	0.533684	-0.150497	0.000284
O69	O	0.591454	-0.095256	-0.073143
O70	O	0.475870	-0.095263	0.073699
C71	C	0.373637	0.533235	0.000208
C72	C	0.319334	0.533242	0.000199
C73	C	0.013860	0.470734	0.039919
C74	C	-0.037158	0.470731	0.039926
O75	O	-0.036991	0.417602	0.073683
N76	N	-0.093899	0.533201	0.000260
C77	C	-0.099620	0.595679	-0.039409
O78	O	-0.152567	0.648814	-0.073147
C79	C	-0.048603	0.595682	-0.039411
C80	C	0.008137	0.533208	0.000251
C81	C	0.070598	0.408265	0.079579
C82	C	0.121613	0.408269	0.079571
C83	C	0.115890	0.470743	0.039903
C84	C	0.059152	0.533212	0.000243
C85	C	-0.054325	0.658159	-0.079075
C86	C	-0.003301	0.658157	-0.079073
C87	C	0.053439	0.595683	-0.039411
C88	C	0.104444	0.595689	-0.039433
N89	N	0.161185	0.533219	0.000234
C90	C	0.166908	0.470746	0.039901
C91	C	-0.206759	0.595668	-0.039401
C92	C	-0.257776	0.595665	-0.039404
C93	C	-0.195311	0.470717	0.039932
C94	C	-0.144293	0.470720	0.039930
C95	C	-0.150018	0.533197	0.000265
C96	C	0.274040	0.470759	0.039881
C97	C	0.325057	0.470769	0.039867
C98	C	0.262587	0.595716	-0.039466
C99	C	0.211574	0.595707	-0.039456
C100	C	0.217305	0.533223	0.000224
O101	O	0.104324	0.648791	-0.073170
O102	O	0.219857	0.417619	0.073642
C103	C	0.693639	0.533198	0.000259
C104	C	0.747942	0.533192	0.000267
C105	C	0.533630	0.533224	-0.202962
C106	C	0.533627	0.533226	-0.271924
C107	C	0.533692	0.693164	0.000278
C108	C	0.533710	0.747449	0.000293
C109	C	0.502403	0.595696	-0.343988
C110	C	0.502408	0.595694	-0.408783
C111	C	0.533634	0.533221	-0.401512
C112	C	0.564862	0.470746	-0.329440
C113	C	0.564860	0.470749	-0.264647
C114	C	0.564872	0.470734	-0.590743
C115	C	0.564870	0.470736	-0.655544
C116	C	0.502420	0.595680	-0.734879
C117	C	0.502418	0.595682	-0.670086
C118	C	0.533648	0.533208	-0.598020
C119	C	0.533643	0.533210	-0.527763
C120	C	0.533636	0.533218	-0.471768
C121	C	0.533646	0.533210	0.203428
C122	C	0.533649	0.533207	0.272390
C123	C	0.693585	0.373251	0.000214
C124	C	0.747870	0.318960	0.000208
C125	C	0.533592	0.373262	0.203383
C126	C	0.533577	0.318975	0.272331
C127	C	0.693593	0.373244	0.203409
C128	C	0.747881	0.318950	0.272365
C129	C	0.373683	0.693190	-0.202943
C130	C	0.319395	0.747483	-0.271898
C131	C	0.373691	0.693183	0.000252
C132	C	0.319406	0.747474	0.000259
C133	C	0.533684	0.693171	-0.202917
C134	C	0.533699	0.747458	-0.271864
C135	C	0.742118	0.293469	-0.039485
C136	C	0.793119	0.242464	-0.039506
C137	C	0.849872	0.216947	0.000170
C138	C	0.855623	0.242442	0.039864
C139	C	0.804622	0.293450	0.039880
C140	C	0.564814	0.293477	0.344398
C141	C	0.564798	0.242475	0.409188
C142	C	0.533546	0.216970	0.401908
C143	C	0.502305	0.242474	0.329832
C144	C	0.502318	0.293478	0.265044
C145	C	0.804622	0.293451	0.265074
C146	C	0.855636	0.242444	0.329859
C147	C	0.849907	0.216933	0.401934
C148	C	0.793160	0.242437	0.409223
C149	C	0.742147	0.293447	0.344439
C150	C	0.262654	0.772988	-0.264608
C151	C	0.211640	0.824011	-0.329393
C152	C	0.217369	0.849525	-0.401468
C153	C	0.274116	0.824017	-0.408757
C154	C	0.325129	0.772999	-0.343973
C155	C	0.325158	0.772970	0.039944
C156	C	0.274157	0.823989	0.039948
C157	C	0.217404	0.849508	0.000269
C158	C	0.211653	0.824010	-0.039422
C159	C	0.262654	0.772995	-0.039429
C160	C	0.564957	0.772947	-0.264560
C161	C	0.564983	0.823948	-0.329337
C162	C	0.533748	0.849464	-0.401418
C163	C	0.502490	0.823970	-0.408721
C164	C	0.502467	0.772966	-0.343944
H165	H	0.477020	-0.247812	0.072271
H166	H	0.175827	0.891067	-0.454214
H167	H	0.278774	0.844797	-0.467448
H168	H	0.891449	0.175398	0.454680
H169	H	0.590302	0.419863	-0.532073
H170	H	0.788504	0.221659	0.467915
H171	H	0.165440	0.844771	-0.323444
H172	H	0.809314	0.314198	0.072207
H173	H	0.476987	0.646554	-0.676013
H174	H	0.371257	0.419892	0.072167
H175	H	0.476883	0.314232	0.206366
H176	H	0.891395	0.175412	0.000151
H177	H	0.476983	0.646564	-0.467459
H178	H	0.477011	0.752218	-0.349902
H179	H	0.371328	0.752233	-0.349918
H180	H	0.476992	0.646550	-0.793565
H181	H	0.165438	0.844795	-0.071727
H182	H	0.590263	0.314237	0.350341
H183	H	0.533771	0.890995	-0.454157
H184	H	0.901838	0.221659	0.072167
H185	H	0.445725	-0.013085	0.111909
H186	H	0.590300	0.419860	-0.649616
H187	H	0.533540	0.175440	0.454669
H188	H	0.445705	0.079476	0.111893
H189	H	0.477002	-0.155252	0.072266
H190	H	0.476883	0.314240	0.072155
H191	H	0.278715	0.419878	0.072192
H192	H	0.590243	0.314251	-0.071817
H193	H	0.476903	0.221657	0.072180
H194	H	0.809298	0.314215	0.206393
H195	H	0.590278	0.221671	-0.071785
H196	H	0.621572	0.079483	-0.111409
H197	H	0.371365	0.752196	0.072260
H198	H	0.257937	0.646581	-0.071765
H199	H	0.590291	0.419880	-0.323525
H200	H	0.621598	-0.013093	-0.111380
H201	H	0.257962	0.752237	-0.071744
H202	H	0.590367	-0.155219	-0.071714
H203	H	0.590389	-0.247803	-0.071688
H204	H	0.167809	0.357396	0.111865
H205	H	0.075268	0.357389	0.111886
H206	H	0.590286	0.419879	-0.205969
H207	H	0.278852	0.844741	0.072271
H208	H	0.901837	0.221684	0.323911
H209	H	0.476861	0.221700	0.323916
H210	H	0.175881	0.891047	0.000281
H211	H	0.695948	0.314202	0.350385
H212	H	0.590240	0.221716	0.467869
H213	H	0.476971	0.646569	-0.349917
H214	H	0.590392	0.752180	-0.205874
H215	H	0.695911	0.314244	-0.071803
H216	H	0.477059	0.844752	-0.467418
H217	H	-0.098095	0.419848	0.072234
H218	H	-0.190659	0.419848	0.072230
H219	H	-0.303973	0.646538	-0.071711
H220	H	-0.211429	0.646547	-0.071705
H221	H	0.590436	0.844700	-0.323376
H222	H	-0.100517	0.709032	-0.111372
H223	H	-0.007970	0.709035	-0.111365
H224	H	0.788425	0.221711	-0.071829
H225	H	0.165373	0.646579	-0.071762
H226	H	0.257978	0.752218	-0.205927
