data_functionalizedCrystal
_audit_creation_method	'MofGen! by Chris Wilmer'
_symmetry_space_group_name_H-M	'P1'
_symmetry_Int_Tables_number	1
_symmetry_cell_setting	triclinic
loop_
_symmetry_equiv_pos_as_xyz
  x,y,z
_cell_length_a	15.944551
_cell_length_b	10.908937
_cell_length_c	10.065875
_cell_angle_alpha	96.607309
_cell_angle_beta	81.256662
_cell_angle_gamma	71.792347
loop_
_atom_site_label
_atom_site_type_symbol
_atom_site_fract_x
_atom_site_fract_y
_atom_site_fract_z
O1	O	1.106292	0.146763	-0.113348
O2	O	1.606292	0.646763	0.386652
O3	O	0.858895	0.167175	-0.113382
O4	O	1.358895	0.667175	0.386618
O5	O	1.015387	-0.029957	-0.113357
O6	O	1.515387	0.470043	0.386643
O7	O	0.949800	0.343895	-0.113374
O8	O	1.449800	0.843895	0.386626
O9	O	0.985525	0.007784	0.113627
O10	O	1.485525	0.507784	0.613627
O11	O	0.829032	0.204917	0.113601
O12	O	1.329032	0.704917	0.613601
O13	O	1.076430	0.184504	0.113635
O14	O	1.576430	0.684504	0.613635
Zn15	Zn	0.947990	0.200703	0.149657
Zn16	Zn	1.447990	0.700703	0.649657
Zn17	Zn	0.987335	0.150977	-0.149404
Zn18	Zn	1.487335	0.650977	0.350596
O19	O	0.919938	0.381636	0.113610
O20	O	1.419938	0.881636	0.613610
C21	C	0.812788	0.185198	0.000105
C22	C	1.312788	0.685198	0.500105
C23	C	0.719899	0.182654	0.000093
C24	C	1.219899	0.682654	0.500093
C25	C	1.006586	-0.058927	0.000134
C26	C	1.506586	0.441073	0.500134
C27	C	1.024841	-0.201477	0.000131
C28	C	1.524841	0.298523	0.500131
C29	C	0.977093	-0.397825	0.000120
C30	C	1.477093	0.102175	0.500120
C31	C	0.958224	-0.250492	0.000121
C32	C	1.458224	0.249508	0.500121
C33	C	0.522959	0.054391	0.000125
C34	C	1.022959	0.554391	0.500125
C35	C	0.468341	0.095346	-0.111793
C36	C	0.968341	0.595346	0.388207
C37	C	0.549813	0.178060	0.000109
C38	C	1.049813	0.678060	0.500109
C39	C	0.438918	0.132585	0.111995
C40	C	0.938918	0.632585	0.611995
C41	C	0.385520	0.173613	0.000131
C42	C	0.885520	0.673613	0.500131
C43	C	0.496431	0.219033	-0.111901
C44	C	0.996431	0.719033	0.388099
C45	C	0.467003	0.256272	0.111987
C46	C	0.967003	0.756272	0.611987
C47	C	0.412393	0.297312	0.000042
C48	C	0.912393	0.797312	0.500042
C49	C	0.644460	0.180617	0.000095
C50	C	1.144460	0.680617	0.500095
C51	C	0.290874	0.171064	0.000135
C52	C	0.790874	0.671064	0.500135
C53	C	1.122537	0.166481	0.000145
C54	C	1.622537	0.666481	0.500145
C55	C	1.215427	0.169023	0.000149
C56	C	1.715427	0.669023	0.500149
C57	C	0.928739	0.410606	0.000116
C58	C	1.428739	0.910606	0.500116
C59	C	0.910486	0.553155	0.000110
C60	C	1.410486	1.053155	0.500110
N61	N	0.921145	0.234638	0.353758
N62	N	1.421145	0.734638	0.853758
N63	N	1.014188	0.117031	-0.353505
N64	N	1.514188	0.617031	0.146495
C65	C	0.977990	0.162776	0.421546
C66	C	1.477990	0.662776	0.921546
C67	C	0.957334	0.188904	0.578710
C68	C	1.457334	0.688904	1.078710
H69	H	1.048085	-0.464931	0.000137
H70	H	1.548085	0.035069	0.500137
H71	H	0.887225	-0.183387	0.000121
H72	H	1.387225	0.316613	0.500121
F73	F	1.117641	-0.289178	0.000147
F74	F	1.617641	0.210822	0.500147
H75	H	0.521577	0.255552	-0.206622
H76	H	1.021577	0.755552	0.293378
F77	F	1.097905	0.011537	0.570286
F78	F	1.597905	0.511537	1.070286
F79	F	0.817689	-0.359135	0.000108
F80	F	1.317689	0.140865	0.500108
F81	F	0.467503	0.345150	0.235661
F82	F	0.967503	0.845150	0.735661
H83	H	1.041948	0.081903	0.363233
H84	H	1.541948	0.581903	0.863233
F85	F	0.585259	-0.079805	-0.000009
F86	F	1.085259	0.420195	0.499991
F87	F	0.405951	0.084752	0.235666
F88	F	0.905951	0.584752	0.735666
H89	H	0.857182	0.315501	0.412074
H90	H	1.357182	0.815501	0.912074
F91	F	0.467879	0.006417	-0.235463
F92	F	0.967879	0.506417	0.264537
F93	F	0.873725	0.294605	0.654922
F94	F	1.373725	0.794605	1.154922
H95	H	0.364889	0.400044	-0.000025
H96	H	0.864889	0.900044	0.499975
