data_functionalizedCrystal
_audit_creation_method	'MofGen! by Chris Wilmer'
_symmetry_space_group_name_H-M	'P1'
_symmetry_Int_Tables_number	1
_symmetry_cell_setting	triclinic
loop_
_symmetry_equiv_pos_as_xyz
  x,y,z
_cell_length_a	23.532357
_cell_length_b	23.532407
_cell_length_c	22.610064
_cell_angle_alpha	89.999018
_cell_angle_beta	89.994951
_cell_angle_gamma	82.838519
loop_
_atom_site_label
_atom_site_type_symbol
_atom_site_fract_x
_atom_site_fract_y
_atom_site_fract_z
O1	O	0.069124	0.755246	0.049154
O2	O	0.079128	0.589381	0.049165
O3	O	-0.008808	0.677330	0.049147
O4	O	0.157060	0.667297	0.049172
O5	O	-0.008785	0.677324	-0.049222
O6	O	0.079150	0.589375	-0.049205
O7	O	0.069147	0.755240	-0.049215
Zn8	Zn	0.074152	0.672307	-0.064828
Zn9	Zn	0.074123	0.672315	0.064778
O10	O	0.157082	0.667291	-0.049197
C11	C	0.078884	0.568162	-0.000019
C12	C	0.078118	0.504945	-0.000015
C13	C	0.022922	0.238788	-0.000040
C14	C	0.023633	0.298188	-0.000040
O15	O	-0.020154	0.334940	-0.000067
N16	N	0.075911	0.320805	-0.000028
C17	C	0.127480	0.284018	-0.000022
O18	O	0.172012	0.308710	-0.000012
C19	C	0.126768	0.224619	-0.000027
C20	C	0.074487	0.202006	-0.000032
C21	C	-0.029355	0.216174	-0.000046
C22	C	-0.030066	0.156778	-0.000045
C23	C	0.021499	0.119996	-0.000038
C24	C	0.073776	0.142610	-0.000032
C25	C	0.178337	0.187833	-0.000025
C26	C	0.177620	0.128431	-0.000030
C27	C	0.125339	0.105818	-0.000036
C28	C	0.124630	0.046431	-0.000023
N29	N	0.072353	0.023815	-0.000035
C30	C	0.020787	0.060597	-0.000043
C31	C	0.128971	0.408760	-0.000014
C32	C	0.129684	0.468158	-0.000005
C33	C	0.025837	0.482324	-0.000023
C34	C	0.025125	0.422925	-0.000028
C35	C	0.076694	0.386143	-0.000026
C36	C	0.019297	-0.064140	-0.000040
C37	C	0.018591	-0.123542	-0.000037
C38	C	0.122438	-0.137702	-0.000022
C39	C	0.123145	-0.078306	-0.000022
C40	C	0.071570	-0.041525	-0.000033
O41	O	0.168394	0.009644	0.000001
O42	O	-0.023737	0.035897	-0.000060
C43	C	-0.030013	0.677076	-0.000039
C44	C	-0.093232	0.676322	-0.000045
C45	C	-0.485255	0.671588	0.053608
C46	C	-0.544655	0.670871	0.053612
O47	O	-0.575381	0.670484	0.099214
N48	N	-0.574354	0.670512	-0.000009
C49	C	-0.544649	0.670865	-0.053636
O50	O	-0.575365	0.670493	-0.099244
C51	C	-0.485250	0.671578	-0.053639
C52	C	-0.455555	0.671942	-0.000015
C53	C	-0.455560	0.671952	0.107228
C54	C	-0.396165	0.672671	0.107224
C55	C	-0.366465	0.673025	0.053601
C56	C	-0.396160	0.672661	-0.000018
C57	C	-0.455546	0.671926	-0.107265
C58	C	-0.396143	0.672639	-0.107263
C59	C	-0.366448	0.673004	-0.053640
C60	C	-0.307065	0.673733	-0.053645
N61	N	-0.277366	0.674092	-0.000025
C62	C	-0.307066	0.673738	0.053598
C63	C	-0.669391	0.669366	-0.053626
C64	C	-0.728789	0.668657	-0.053624
C65	C	-0.728790	0.668662	0.053624
C66	C	-0.669391	0.669375	0.053621
C67	C	-0.639692	0.669725	-0.000005
C68	C	-0.182332	0.675247	0.053587
C69	C	-0.122932	0.675968	0.053578
C70	C	-0.122935	0.675959	-0.053669
C71	C	-0.182330	0.675241	-0.053661
C72	C	-0.212027	0.674883	-0.000028
O73	O	-0.276300	0.674119	-0.099224
O74	O	-0.276342	0.674102	0.099199
C75	C	0.178288	0.667545	-0.000010
C76	C	0.241506	0.668300	-0.000000
C77	C	0.069390	0.776459	-0.000030
C78	C	0.070156	0.839676	-0.000030
N79	N	0.074172	0.672305	-0.153280
C80	C	0.113063	0.633349	-0.438121
C81	C	0.113068	0.633347	-0.376201
O82	O	0.146160	0.600208	-0.344175
N83	N	0.074149	0.672301	-0.345233
C84	C	0.035218	0.711256	-0.376188
O85	O	0.002115	0.744389	-0.344161
C86	C	0.035210	0.711254	-0.438107
C87	C	0.074136	0.672301	-0.469071
C88	C	0.151984	0.594399	-0.469086
C89	C	0.151980	0.594401	-0.531001
C90	C	0.113053	0.633354	-0.561952
C91	C	0.074131	0.672304	-0.530987
C92	C	-0.003723	0.750205	-0.469060
C93	C	-0.003728	0.750200	-0.530983
C94	C	0.035198	0.711247	-0.561948
C95	C	0.035199	0.711259	-0.623853
N96	N	0.074118	0.672305	-0.654821
C97	C	0.113045	0.633352	-0.623871
C98	C	0.035237	0.711255	-0.246154
C99	C	0.035247	0.711260	-0.184236
C100	C	0.113096	0.633351	-0.184254
C101	C	0.113088	0.633349	-0.246173
C102	C	0.074156	0.672301	-0.277122
C103	C	0.113032	0.633361	-0.753898
C104	C	0.113025	0.633368	-0.815819
C105	C	0.035174	0.711275	-0.815796
C106	C	0.035182	0.711270	-0.753881
C107	C	0.074114	0.672308	-0.722933
O108	O	0.002123	0.744380	-0.655918
O109	O	0.146138	0.600220	-0.655905
N110	N	0.074098	0.672320	0.153230
H111	H	-0.072639	0.138372	-0.000053
O112	O	-0.364143	0.673058	0.165064
H113	H	-0.317848	0.673619	0.156063
H114	H	-0.371964	0.672915	-0.150934
O115	O	-0.084977	0.255842	-0.000053
H116	H	-0.121442	0.230128	-0.000055
H117	H	0.003556	0.742985	-0.159029
H118	H	-0.098743	0.676250	-0.097328
O119	O	-0.006752	0.753282	-0.279528
H120	H	-0.034325	0.729481	-0.307728
O121	O	-0.029783	0.522003	-0.000043
H122	H	-0.031952	0.549410	0.040046
O123	O	0.193962	0.552383	-0.564391
H124	H	0.187427	0.558923	-0.612649
O125	O	0.179532	-0.053911	-0.000015
H126	H	0.204288	-0.068708	0.040080
H127	H	-0.035433	0.781919	-0.556180
H128	H	0.164421	-0.167661	-0.000013
H129	H	0.003491	0.742994	-0.728669
H130	H	0.220910	0.206234	-0.000018
O131	O	-0.031263	0.398535	-0.000044
H132	H	-0.066996	0.434097	-0.000053
O133	O	-0.006810	0.753284	-0.849189
H134	H	0.000222	0.797638	-0.837316
H135	H	0.172256	0.486564	0.000008
O136	O	-0.487581	0.671558	0.165072
H137	H	-0.481478	0.710518	0.190783
O138	O	-0.037800	-0.147933	-0.000051
H139	H	-0.073535	-0.112373	-0.000065
O140	O	0.233243	0.088759	-0.000032
H141	H	0.235397	0.061353	0.040058
O142	O	-0.036328	-0.024473	-0.000048
H143	H	-0.072794	-0.050186	-0.000047
O144	O	0.184596	0.369088	-0.000001
H145	H	0.221063	0.394799	0.000013
O146	O	-0.214357	0.674863	0.111432
H147	H	-0.236113	0.635711	0.114008
H148	H	-0.645217	0.669672	0.097287
O149	O	-0.090901	0.676353	0.111417
H150	H	-0.121535	0.675978	0.148703
O151	O	-0.760827	0.668272	0.111464
H152	H	-0.807118	0.667707	0.102452
H153	H	0.144785	0.601631	-0.271381
O154	O	0.155023	0.591333	-0.720532
H155	H	0.131192	0.563786	-0.692326
O156	O	-0.045713	0.792213	-0.435671
H157	H	-0.072785	0.819288	-0.467605
H158	H	-0.752963	0.668369	-0.097289
O159	O	-0.637360	0.669758	-0.111469
H160	H	-0.667996	0.669396	-0.148750
H161	H	-0.479714	0.671630	-0.150931
O162	O	-0.214365	0.674850	-0.111496
H163	H	-0.183731	0.675214	-0.148783
O164	O	0.155011	0.591357	-0.849222
H165	H	0.182568	0.615174	-0.877430
O166	O	0.193977	0.552386	-0.435707
H167	H	0.221039	0.525309	-0.467651
O168	O	0.155075	0.591326	-0.150866
H169	H	0.148531	0.597869	-0.102609
