data_functionalizedCrystal
_audit_creation_method	'MofGen! by Chris Wilmer'
_symmetry_space_group_name_H-M	'P1'
_symmetry_Int_Tables_number	1
_symmetry_cell_setting	triclinic
loop_
_symmetry_equiv_pos_as_xyz
  x,y,z
_cell_length_a	21.295417
_cell_length_b	18.050591
_cell_length_c	18.050583
_cell_angle_alpha	90.022021
_cell_angle_beta	89.959541
_cell_angle_gamma	89.973488
loop_
_atom_site_label
_atom_site_type_symbol
_atom_site_fract_x
_atom_site_fract_y
_atom_site_fract_z
Zn1	Zn	-0.250631	-1.135289	-0.420010
Zn2	Zn	-0.000631	-0.885289	-0.170010
Zn3	Zn	0.249369	-0.635289	0.079990
Zn4	Zn	0.499369	-0.385289	0.329990
Zn5	Zn	-0.355917	-1.135192	-0.295811
Zn6	Zn	-0.105917	-0.885192	-0.045811
Zn7	Zn	0.144083	-0.635192	0.204189
Zn8	Zn	0.394083	-0.385192	0.454189
Zn9	Zn	-0.250659	-1.011106	-0.295821
Zn10	Zn	-0.000659	-0.761106	-0.045821
Zn11	Zn	0.249341	-0.511106	0.204179
Zn12	Zn	0.499341	-0.261106	0.454179
Zn13	Zn	-0.355859	-1.011051	-0.419946
Zn14	Zn	-0.105859	-0.761051	-0.169946
Zn15	Zn	0.144141	-0.511051	0.080054
Zn16	Zn	0.394141	-0.261051	0.330054
O17	O	-0.303267	-1.073159	-0.357897
O18	O	-0.053267	-0.823159	-0.107897
O19	O	0.196733	-0.573159	0.142103
O20	O	0.446733	-0.323159	0.392103
O21	O	-0.264610	-1.239201	-0.403557
O22	O	-0.014610	-0.989201	-0.153557
O23	O	0.235390	-0.739201	0.096443
O24	O	0.485390	-0.489201	0.346443
O25	O	-0.341991	-1.118714	-0.191887
O26	O	-0.091991	-0.868714	0.058113
O27	O	0.158009	-0.618714	0.308113
O28	O	0.408009	-0.368714	0.558113
O29	O	-0.162566	-1.027642	-0.312326
O30	O	0.087434	-0.777642	-0.062326
O31	O	0.337434	-0.527642	0.187674
O32	O	0.587434	-0.277642	0.437674
O33	O	-0.341964	-1.239130	-0.312308
O34	O	-0.091964	-0.989130	-0.062308
O35	O	0.158036	-0.739130	0.187692
O36	O	0.408036	-0.489130	0.437692
O37	O	-0.162545	-1.118879	-0.403567
O38	O	0.087455	-0.868879	-0.153567
O39	O	0.337455	-0.618879	0.096433
O40	O	0.587455	-0.368879	0.346433
O41	O	-0.264658	-1.027548	-0.191895
O42	O	-0.014658	-0.777548	0.058105
O43	O	0.235342	-0.527548	0.308105
O44	O	0.485342	-0.277548	0.558105
O45	O	-0.264601	-0.907174	-0.312264
O46	O	-0.014601	-0.657174	-0.062264
O47	O	0.235399	-0.407174	0.187736
O48	O	0.485399	-0.157174	0.437736
O49	O	-0.341864	-1.027549	-0.523879
O50	O	-0.091864	-0.777549	-0.273879
O51	O	0.158136	-0.527549	-0.023879
O52	O	0.408136	-0.277549	0.226121
O53	O	-0.341891	-0.907134	-0.403458
O54	O	-0.091891	-0.657134	-0.153458
O55	O	0.158109	-0.407134	0.096542
O56	O	0.408109	-0.157134	0.346542
O57	O	-0.264554	-1.118826	-0.523926
O58	O	-0.014554	-0.868826	-0.273926
O59	O	0.235446	-0.618826	-0.023926
O60	O	0.485446	-0.368826	0.226074
O61	O	-0.443999	-1.118661	-0.312247
O62	O	-0.193999	-0.868661	-0.062247
O63	O	0.056001	-0.618661	0.187753
O64	O	0.306001	-0.368661	0.437753
O65	O	-0.443956	-1.027455	-0.403449
O66	O	-0.193956	-0.777455	-0.153449
O67	O	0.056044	-0.527455	0.096551
O68	O	0.306044	-0.277455	0.346551
C69	C	-0.303243	-0.880207	-0.357856
C70	C	-0.053243	-0.630207	-0.107856
C71	C	0.196757	-0.380207	0.142144
C72	C	0.446757	-0.130207	0.392144
C73	C	-0.303248	-0.797662	-0.357856
C74	C	-0.053248	-0.547662	-0.107856
C75	C	0.196752	-0.297662	0.142144
C76	C	0.446752	-0.047662	0.392144
C77	C	-0.466818	-1.073062	-0.357856
C78	C	-0.216818	-0.823062	-0.107856
C79	C	0.033182	-0.573062	0.142144
C80	C	0.283182	-0.323062	0.392144
C81	C	-0.536786	-1.073088	-0.357863
C82	C	-0.286786	-0.823088	-0.107863
C83	C	-0.036786	-0.573088	0.142137
C84	C	0.213214	-0.323088	0.392137
C85	C	-0.303199	-1.073192	-0.551603
C86	C	-0.053199	-0.823192	-0.301603
C87	C	0.196801	-0.573192	-0.051603
C88	C	0.446801	-0.323192	0.198397
C89	C	-0.303171	-1.073206	-0.634148
C90	C	-0.053171	-0.823206	-0.384148
C91	C	0.196829	-0.573206	-0.134148
C92	C	0.446829	-0.323206	0.115852
C93	C	-0.569654	-1.120621	-0.310423
C94	C	-0.319654	-0.870621	-0.060423
C95	C	-0.069654	-0.620621	0.189577
C96	C	0.180346	-0.370621	0.439577
C97	C	-0.635397	-1.120656	-0.310440
C98	C	-0.385397	-0.870656	-0.060440
C99	C	-0.135397	-0.620656	0.189560
C100	C	0.114603	-0.370656	0.439560
C101	C	-0.668269	-1.073145	-0.357889
C102	C	-0.418269	-0.823145	-0.107889
C103	C	-0.168269	-0.573145	0.142111
C104	C	0.081731	-0.323145	0.392111
C105	C	-0.635393	-1.025608	-0.405338
C106	C	-0.385393	-0.775608	-0.155338
C107	C	-0.135393	-0.525608	0.094662
C108	C	0.114607	-0.275608	0.344662
C109	C	-0.569652	-1.025580	-0.405325
C110	C	-0.319652	-0.775580	-0.155325
C111	C	-0.069652	-0.525580	0.094675
C112	C	0.180348	-0.275580	0.344675
N113	N	-0.771530	-1.008178	-0.363536
N114	N	-0.521530	-0.758178	-0.113536
N115	N	-0.271530	-0.508178	0.136464
N116	N	-0.021530	-0.258178	0.386464
N117	N	-0.833981	-1.008207	-0.363544
N118	N	-0.583981	-0.758207	-0.113544
N119	N	-0.333981	-0.508207	0.136456
N120	N	-0.083981	-0.258207	0.386456
C121	C	-0.866344	-1.073228	-0.357931
C122	C	-0.616344	-0.823228	-0.107931
C123	C	-0.366344	-0.573228	0.142069
C124	C	-0.116344	-0.323228	0.392069
N125	N	-0.833895	-1.138221	-0.352296
N126	N	-0.583895	-0.888221	-0.102296
N127	N	-0.333895	-0.638221	0.147704
N128	N	-0.083895	-0.388221	0.397704
N129	N	-0.771438	-1.138191	-0.352284
N130	N	-0.521438	-0.888191	-0.102284
N131	N	-0.271438	-0.638191	0.147716
N132	N	-0.021438	-0.388191	0.397716
C133	C	-0.739554	-1.073170	-0.357908
C134	C	-0.489554	-0.823170	-0.107908
C135	C	-0.239554	-0.573170	0.142092
C136	C	0.010446	-0.323170	0.392092
C137	C	-0.970497	-1.120803	-0.310507
C138	C	-0.720497	-0.870803	-0.060507
C139	C	-0.470497	-0.620803	0.189493
C140	C	-0.220497	-0.370803	0.439493
C141	C	-1.036241	-1.120839	-0.310529
C142	C	-0.786241	-0.870839	-0.060529
C143	C	-0.536241	-0.620839	0.189471
C144	C	-0.286241	-0.370839	0.439471
C145	C	-1.036235	-1.025784	-0.405423
C146	C	-0.786235	-0.775784	-0.155423
C147	C	-0.536235	-0.525784	0.094577
C148	C	-0.286235	-0.275784	0.344577
C149	C	-0.970493	-1.025755	-0.405405
C150	C	-0.720493	-0.775755	-0.155405
C151	C	-0.470493	-0.525755	0.094595
C152	C	-0.220493	-0.275755	0.344595
C153	C	-0.937628	-1.073263	-0.357943
C154	C	-0.687628	-0.823263	-0.107943
C155	C	-0.437628	-0.573263	0.142057
C156	C	-0.187628	-0.323263	0.392057
C157	C	-0.139076	-1.073277	-0.357955
C158	C	0.110924	-0.823277	-0.107955
C159	C	0.360924	-0.573277	0.142045
C160	C	0.610924	-0.323277	0.392045
C161	C	-0.069108	-1.073328	-0.357979
C162	C	0.180892	-0.823328	-0.107979
C163	C	0.430892	-0.573328	0.142021
C164	C	0.680892	-0.323328	0.392021
C165	C	-0.303291	-1.266865	-0.357939
C166	C	-0.053291	-1.016865	-0.107939
C167	C	0.196709	-0.766865	0.142061
C168	C	0.446709	-0.516865	0.392061
C169	C	-0.303301	-1.349411	-0.357956
C170	C	-0.053301	-1.099411	-0.107956
C171	C	0.196699	-0.849411	0.142044
C172	C	0.446699	-0.599411	0.392044
C173	C	-0.261169	-0.598211	-0.308379
C174	C	-0.011169	-0.348211	-0.058379
C175	C	0.238831	-0.098211	0.191621
C176	C	0.488831	0.151789	0.441621
C177	C	-0.318588	-0.548788	-0.290098
C178	C	-0.068588	-0.298788	-0.040098
C179	C	0.181412	-0.048788	0.209902
C180	C	0.431412	0.201212	0.459902
C181	C	-0.303267	-0.646531	-0.357889
C182	C	-0.053267	-0.396531	-0.107889
C183	C	0.196733	-0.146531	0.142111
C184	C	0.446733	0.103469	0.392111
C185	C	-0.245869	-0.548872	-0.376169
C186	C	0.004131	-0.298872	-0.126169
C187	C	0.254131	-0.048872	0.123831
C188	C	0.504131	0.201128	0.373831
C189	C	-0.303281	-0.500546	-0.357921
C190	C	-0.053281	-0.250546	-0.107921
C191	C	0.196719	-0.000546	0.142079
C192	C	0.446719	0.249454	0.392079
C193	C	-0.360716	-0.598196	-0.339573
C194	C	-0.110716	-0.348196	-0.089573
C195	C	0.139284	-0.098196	0.160427
C196	C	0.389284	0.151804	0.410427
C197	C	-0.287959	-0.598284	-0.425676
C198	C	-0.037959	-0.348284	-0.175676
C199	C	0.212041	-0.098284	0.074324
C200	C	0.462041	0.151716	0.324324
C201	C	-0.345417	-0.548883	-0.407420
C202	C	-0.095417	-0.298883	-0.157420
C203	C	0.154583	-0.048883	0.092580
C204	C	0.404583	0.201117	0.342580
C205	C	-0.303259	-0.730629	-0.357870
C206	C	-0.053259	-0.480629	-0.107870
C207	C	0.196741	-0.230629	0.142130
C208	C	0.446741	0.019371	0.392130
C209	C	-0.303296	-0.416450	-0.357940
C210	C	-0.053296	-0.166450	-0.107940
C211	C	0.196704	0.083550	0.142060
C212	C	0.446704	0.333550	0.392060
C213	C	-0.261109	-1.122892	-0.833625
C214	C	-0.011109	-0.872892	-0.583625
C215	C	0.238891	-0.622892	-0.333625
C216	C	0.488891	-0.372892	-0.083625
C217	C	-0.245698	-1.055159	-0.883014
C218	C	0.004302	-0.805159	-0.633014
C219	C	0.254302	-0.555159	-0.383014
C220	C	0.504302	-0.305159	-0.133014
C221	C	-0.303160	-1.073236	-0.785279
C222	C	-0.053160	-0.823236	-0.535279
C223	C	0.196840	-0.573236	-0.285279
C224	C	0.446840	-0.323236	-0.035279
C225	C	-0.318531	-1.140996	-0.882972
C226	C	-0.068531	-0.890996	-0.632972
C227	C	0.181469	-0.640996	-0.382972
C228	C	0.431469	-0.390996	-0.132972
C229	C	-0.303148	-1.073271	-0.931264
C230	C	-0.053148	-0.823271	-0.681264
C231	C	0.196852	-0.573271	-0.431264
C232	C	0.446852	-0.323271	-0.181264
C233	C	-0.287720	-1.005467	-0.833581
C234	C	-0.037720	-0.755467	-0.583581
C235	C	0.212280	-0.505467	-0.333581
C236	C	0.462280	-0.255467	-0.083581
C237	C	-0.360579	-1.091350	-0.833534
C238	C	-0.110579	-0.841350	-0.583534
C239	C	0.139421	-0.591350	-0.333534
C240	C	0.389421	-0.341350	-0.083534
C241	C	-0.345190	-1.023570	-0.882901
C242	C	-0.095190	-0.773570	-0.632901
C243	C	0.154810	-0.523570	-0.382901
C244	C	0.404810	-0.273570	-0.132901
C245	C	-0.303165	-1.073217	-0.701181
C246	C	-0.053165	-0.823217	-0.451181
C247	C	0.196835	-0.573217	-0.201181
C248	C	0.446835	-0.323217	0.048819
C249	C	-0.303143	-1.073282	-1.015361
C250	C	-0.053143	-0.823282	-0.765361
C251	C	0.196857	-0.573282	-0.515361
C252	C	0.446857	-0.323282	-0.265361
C253	C	-0.303288	-1.073169	-0.164945
C254	C	-0.053288	-0.823169	0.085055
C255	C	0.196712	-0.573169	0.335055
C256	C	0.446712	-0.323169	0.585055
C257	C	-0.303139	-1.073299	-0.082399
C258	C	-0.053139	-0.823299	0.167601
C259	C	0.196861	-0.573299	0.417601
C260	C	0.446861	-0.323299	0.667601
H261	H	-0.542897	-1.159307	-0.271778
H262	H	-0.292897	-0.909307	-0.021778
H263	H	-0.042897	-0.659307	0.228222
H264	H	0.207103	-0.409307	0.478222
H265	H	-0.331546	-0.527049	-0.232786
H266	H	-0.081546	-0.277049	0.017214
H267	H	0.168454	-0.027049	0.267214
H268	H	0.418454	0.222951	0.517214
H269	H	-0.409277	-0.619771	-0.324062
H270	H	-0.159277	-0.369771	-0.074062
H271	H	0.090723	-0.119771	0.175938
H272	H	0.340723	0.130229	0.425938
Br273	Br	-0.925890	-1.185274	-0.246093
Br274	Br	-0.675890	-0.935274	0.003907
Br275	Br	-0.425890	-0.685274	0.253907
Br276	Br	-0.175890	-0.435274	0.503907
H277	H	-1.063001	-1.159551	-0.271899
H278	H	-0.813001	-0.909551	-0.021899
H279	H	-0.563001	-0.659551	0.228101
H280	H	-0.313001	-0.409551	0.478101
H281	H	-0.331535	-1.198285	-0.904670
H282	H	-0.081535	-0.948285	-0.654670
H283	H	0.168465	-0.698285	-0.404670
H284	H	0.418465	-0.448285	-0.154670
H285	H	-0.381065	-0.527361	-0.449303
H286	H	-0.131065	-0.277361	-0.199303
H287	H	0.118935	-0.027361	0.050697
H288	H	0.368935	0.222639	0.300697
H289	H	-0.380746	-0.981544	-0.904402
H290	H	-0.130746	-0.731544	-0.654402
H291	H	0.119254	-0.481544	-0.404402
H292	H	0.369254	-0.231544	-0.154402
H293	H	-0.274983	-0.620041	-0.482970
H294	H	-0.024983	-0.370041	-0.232970
H295	H	0.225017	-0.120041	0.017030
H296	H	0.475017	0.129959	0.267030
Br297	Br	-0.680014	-1.185170	-0.246052
Br298	Br	-0.430014	-0.935170	0.003948
Br299	Br	-0.180014	-0.685170	0.253948
Br300	Br	0.069986	-0.435170	0.503948
Br301	Br	-1.080840	-0.961310	-0.469827
Br302	Br	-0.830840	-0.711310	-0.219827
Br303	Br	-0.580840	-0.461310	0.030173
Br304	Br	-0.330840	-0.211310	0.280173
Br305	Br	-0.164957	-0.512751	-0.401913
Br306	Br	0.085043	-0.262751	-0.151913
Br307	Br	0.335043	-0.012751	0.098087
Br308	Br	0.585043	0.237249	0.348087
Br309	Br	-0.201894	-0.634313	-0.238523
Br310	Br	0.048106	-0.384313	0.011477
Br311	Br	0.298106	-0.134313	0.261477
Br312	Br	0.548106	0.115687	0.511477
H313	H	-0.225525	-1.164816	-0.811985
H314	H	0.024475	-0.914816	-0.561985
H315	H	0.274475	-0.664816	-0.311985
H316	H	0.524475	-0.414816	-0.061985
H317	H	-0.409128	-1.106680	-0.811786
H318	H	-0.159128	-0.856680	-0.561786
H319	H	0.090872	-0.606680	-0.311786
H320	H	0.340872	-0.356680	-0.061786
H321	H	-0.274658	-0.948161	-0.811976
H322	H	-0.024658	-0.698161	-0.561976
H323	H	0.225342	-0.448161	-0.311976
H324	H	0.475342	-0.198161	-0.061976
H325	H	-0.197136	-1.039849	-0.904748
H326	H	0.052864	-0.789849	-0.654748
H327	H	0.302864	-0.539849	-0.404748
H328	H	0.552864	-0.289849	-0.154748
H329	H	-0.662161	-0.986925	-0.443973
H330	H	-0.412161	-0.736925	-0.193973
H331	H	-0.162161	-0.486925	0.056027
H332	H	0.087839	-0.236925	0.306027
Br333	Br	-0.525042	-0.961067	-0.469714
Br334	Br	-0.275042	-0.711067	-0.219714
Br335	Br	-0.025042	-0.461067	0.030286
Br336	Br	0.224958	-0.211067	0.280286
H337	H	-0.943730	-0.987046	-0.444032
H338	H	-0.693730	-0.737046	-0.194032
H339	H	-0.443730	-0.487046	0.055968
H340	H	-0.193730	-0.237046	0.305968
