data_functionalizedCrystal
_audit_creation_method	'MofGen! by Chris Wilmer'
_symmetry_space_group_name_H-M	'P1'
_symmetry_Int_Tables_number	1
_symmetry_cell_setting	triclinic
loop_
_symmetry_equiv_pos_as_xyz
  x,y,z
_cell_length_a	17.699083
_cell_length_b	10.723024
_cell_length_c	16.176319
_cell_angle_alpha	89.994397
_cell_angle_beta	89.998611
_cell_angle_gamma	83.875442
loop_
_atom_site_label
_atom_site_type_symbol
_atom_site_fract_x
_atom_site_fract_y
_atom_site_fract_z
O1	O	1.005074	0.157797	-0.068628
O2	O	0.784825	0.178327	-0.068655
O3	O	0.900030	-0.013601	-0.068638
O4	O	0.889869	0.349725	-0.068646
O5	O	0.900014	-0.013613	0.068855
O6	O	0.784809	0.178315	0.068838
O7	O	1.005058	0.157785	0.068865
Cu8	Cu	0.894932	0.168049	0.081406
Cu9	Cu	0.894951	0.168063	-0.081196
O10	O	0.889853	0.349713	0.068848
C11	C	0.756616	0.177585	0.000088
C12	C	0.672584	0.175378	0.000078
C13	C	0.624673	0.288036	0.000076
C14	C	0.545717	0.285955	0.000086
C15	C	0.514672	0.171215	0.000093
C16	C	0.562589	0.058549	0.000098
C17	C	0.641544	0.060631	0.000093
C18	C	0.244173	0.050148	0.000118
C19	C	0.165212	0.048075	0.000121
C20	C	0.148346	0.275473	0.000112
C21	C	0.227301	0.277555	0.000107
C22	C	0.275210	0.164889	0.000116
C23	C	0.360824	0.167147	0.000106
C24	C	0.429060	0.168956	0.000097
C25	C	0.899283	-0.060094	0.000107
C26	C	0.897070	-0.198610	0.000104
C27	C	0.961533	-0.274698	0.000111
C28	C	0.959248	-0.417863	0.000108
C29	C	1.033268	0.158527	0.000120
C30	C	1.117300	0.160734	0.000125
C31	C	0.890601	0.396206	0.000100
C32	C	0.892813	0.534723	0.000098
N33	N	0.894924	0.168038	0.195771
N34	N	0.894965	0.168064	-0.195561
C35	C	0.945953	0.083087	0.239042
C36	C	0.945957	0.083085	0.325590
C37	C	0.894935	0.168042	0.368863
C38	C	0.843901	0.252997	0.325586
C39	C	0.843894	0.252992	0.239040
C40	C	0.843927	0.253021	0.674614
C41	C	0.843940	0.253022	0.761165
C42	C	0.945989	0.083115	0.761163
C43	C	0.945983	0.083109	0.674618
C44	C	0.894946	0.168059	0.631348
C45	C	0.894942	0.168058	0.537503
C46	C	0.894943	0.168050	0.462706
H47	H	0.537306	-0.034875	0.000115
H48	H	0.840190	-0.239457	0.000092
H49	H	0.987507	0.013911	0.360821
H50	H	1.018413	-0.233851	0.000123
H51	H	0.802389	0.322207	0.796397
N52	N	0.096682	0.397007	0.000115
H53	H	0.063542	0.401227	-0.050849
H54	H	0.063601	0.401147	0.051122
H55	H	0.283172	-0.041591	0.000126
N56	N	0.788874	0.344628	0.372263
H57	H	0.798045	0.433171	0.357190
H58	H	0.735108	0.330258	0.357196
H59	H	1.014433	-0.483241	0.000117
N60	N	1.000988	-0.008539	0.192372
H61	H	1.033314	-0.062356	0.232920
H62	H	0.971728	-0.063647	0.156471
N63	N	0.788880	0.344635	0.627950
H64	H	0.756562	0.398453	0.668499
H65	H	0.818127	0.399743	0.592027
H66	H	0.987531	0.013933	0.639387
N67	N	0.693222	-0.060877	0.000101
H68	H	0.661577	-0.133882	0.000106
H69	H	0.726350	-0.064968	-0.050869
N70	N	0.819711	-0.378683	0.000102
H71	H	0.817549	-0.324000	-0.050863
H72	H	0.775101	-0.430082	0.000129
N73	N	0.788852	0.344616	0.192370
H74	H	0.798023	0.433164	0.207419
H75	H	0.796612	0.331612	0.130992
N76	N	0.658154	0.411793	0.000058
H77	H	0.615819	0.482844	0.000060
H78	H	0.690549	0.417610	0.051025
N79	N	0.494075	0.407500	0.000153
H80	H	0.504115	0.457626	-0.050799
H81	H	0.439357	0.388734	0.000215
N82	N	0.260777	0.401316	0.000092
H83	H	0.243350	0.450659	0.051060
H84	H	0.318059	0.385443	0.000055
N85	N	0.131725	-0.075686	0.000129
H86	H	0.174056	-0.146745	0.000136
H87	H	0.099332	-0.081495	0.051100
N88	N	1.001037	-0.008516	0.807833
H89	H	0.993301	0.004370	0.869226
H90	H	0.991841	-0.097022	0.792712
