data_functionalizedCrystal
_audit_creation_method	'MofGen! by Chris Wilmer'
_symmetry_space_group_name_H-M	'P1'
_symmetry_Int_Tables_number	1
_symmetry_cell_setting	triclinic
loop_
_symmetry_equiv_pos_as_xyz
  x,y,z
_cell_length_a	14.560438
_cell_length_b	18.426585
_cell_length_c	14.560438
_cell_angle_alpha	89.999331
_cell_angle_beta	59.995857
_cell_angle_gamma	60.002691
loop_
_atom_site_label
_atom_site_type_symbol
_atom_site_fract_x
_atom_site_fract_y
_atom_site_fract_z
Zr1	Zr	1.005353	0.699116	-0.120613
O2	O	1.196958	0.583241	-0.267271
O3	O	0.813746	0.734638	-0.075646
O4	O	1.005358	0.734639	-0.267263
O5	O	1.005344	0.583240	0.075487
O6	O	1.005364	0.854064	-0.267267
O7	O	1.005346	0.583240	-0.075654
O8	O	0.662606	0.854063	0.075500
O9	O	1.348102	0.583242	-0.267280
O10	O	0.892563	0.838914	-0.056482
O11	O	0.892556	0.749788	0.056316
O12	O	1.118154	0.749789	-0.169288
O13	O	1.118147	0.660663	-0.056491
Zr14	Zr	1.005359	0.889587	0.120433
Zr15	Zr	1.005364	0.889587	-0.120619
Zr16	Zr	1.005349	0.699117	0.120439
Zr17	Zr	1.246410	0.699118	-0.120629
Zr18	Zr	0.764302	0.889586	0.120448
O19	O	1.196966	0.854066	0.075466
O20	O	1.196972	0.854066	-0.267279
O21	O	1.196952	0.583241	0.075475
O22	O	0.813755	1.005463	0.267090
O23	O	0.813761	1.005462	-0.075655
O24	O	0.813740	0.734638	0.267099
O25	O	1.005369	1.005463	-0.075667
O26	O	1.005355	0.854065	0.267083
O27	O	1.005348	0.734639	0.267087
O28	O	1.005366	1.005464	0.075473
O29	O	1.348110	0.734641	-0.267285
O30	O	0.662603	0.854063	0.267105
O31	O	0.662611	1.005462	0.267100
O32	O	0.662614	1.005462	0.075495
O33	O	1.348098	0.583242	-0.075676
O34	O	1.348106	0.734641	-0.075681
O35	O	0.892559	0.838914	0.169108
O36	O	0.892566	0.928041	0.056310
O37	O	1.118157	0.838916	-0.056496
O38	O	1.118150	0.749789	0.056301
C39	C	0.703831	0.794350	-0.000071
C40	C	0.601496	0.794349	-0.000064
C41	C	0.636708	0.728555	-0.083345
C42	C	0.540568	0.728559	-0.083373
C43	C	0.374005	0.860155	0.083169
C44	C	0.470144	0.860154	0.083192
C45	C	1.005344	0.556102	-0.000083
C46	C	1.005339	0.475243	-0.000080
C47	C	1.005378	0.179128	-0.000100
C48	C	1.005373	0.261514	-0.000097
C49	C	1.005359	0.327182	-0.000091
C50	C	1.005353	0.409574	-0.000086
C51	C	1.306882	0.794354	-0.000110
C52	C	1.409217	0.794354	-0.000116
C53	C	1.005362	0.794352	-0.301610
C54	C	1.005364	0.794351	-0.403943
C55	C	1.005369	1.032601	-0.000098
C56	C	1.005373	1.113461	-0.000100
C57	C	1.005368	0.860144	-0.452021
C58	C	1.005356	0.860147	-0.548167
C59	C	1.005341	0.728556	-0.548151
C60	C	1.005343	0.728558	-0.452002
C61	C	1.005351	0.794352	0.301429
C62	C	1.005349	0.794352	0.403762
C63	C	0.703844	1.032600	-0.000078
C64	C	0.601513	1.113459	-0.000075
C65	C	0.703826	0.794350	0.301449
C66	C	0.601489	0.794350	0.403788
C67	C	0.703838	1.032600	0.301441
C68	C	0.601506	1.113459	0.403778
C69	C	1.306874	0.556104	-0.301622
C70	C	1.409207	0.475244	-0.403958
C71	C	1.306869	0.556104	-0.000102
C72	C	1.409200	0.475245	-0.000106
C73	C	1.306887	0.794353	-0.301629
C74	C	1.409224	0.794354	-0.403969
C75	C	0.553456	1.104908	-0.058959
C76	C	0.457319	1.180876	-0.058978
C77	C	0.409234	1.265395	-0.000105
C78	C	0.457300	1.273944	0.058781
C79	C	0.553442	1.197976	0.058793
C80	C	0.553453	1.197962	0.392957
C81	C	0.457314	1.273946	0.489105
C82	C	0.409223	1.265424	0.596071
C83	C	0.457286	1.180911	0.606890
C84	C	0.553429	1.104930	0.510744
C85	C	1.457271	0.390741	-0.393138
C86	C	1.553440	0.314758	-0.489285
C87	C	1.601536	0.323280	-0.596252
C88	C	1.553467	0.407792	-0.607070
C89	C	1.457307	0.483774	-0.510924
C90	C	1.457267	0.483796	0.058768
C91	C	1.553431	0.407827	0.058761
C92	C	1.601519	0.323309	-0.000116
C93	C	1.553448	0.314760	-0.058997
C94	C	1.457292	0.390727	-0.058995
C95	C	0.553410	0.840872	0.510744
C96	C	0.457263	0.840861	0.606899
C97	C	0.457277	0.747806	0.489129
C98	C	0.553429	0.747812	0.392977
H99	H	0.569250	0.674984	-0.151190
H100	H	1.679836	0.261404	-0.674531
O101	O	0.405409	0.891042	0.722257
H102	H	0.330485	0.883213	0.787305
O103	O	0.232335	0.931128	0.172964
H104	H	0.210837	0.927900	0.256926
H105	H	1.005327	0.674988	-0.587292
O106	O	1.705193	0.241374	-0.000077
H107	H	1.730510	0.261528	0.050777
H108	H	1.005358	0.913722	-0.587308
H109	H	0.592558	1.204951	0.106750
H110	H	1.005382	0.913718	-0.412892
O111	O	0.405431	1.365104	0.122284
H112	H	0.299364	1.401930	0.187360
H113	H	1.005335	0.674981	-0.412852
H114	H	1.592616	0.245935	-0.106933
H115	H	0.330948	1.327245	-0.000122
O116	O	1.605337	0.416980	-0.722444
H117	H	1.680265	0.349943	-0.787473
H118	H	0.592594	1.204918	0.305868
O119	O	0.605225	1.013792	0.522437
H120	H	0.711291	0.976934	0.481461
O121	O	0.405470	1.365092	0.477425
H122	H	0.455049	1.358245	0.386889
H123	H	1.418159	0.383753	-0.106935
O124	O	0.432173	0.931119	0.173022
H125	H	0.324686	0.976870	0.230921
O126	O	0.305511	1.347378	0.699770
H127	H	0.280171	1.407567	0.674264
H128	H	1.592554	0.414805	0.106713
O129	O	0.405399	1.171733	0.722268
H130	H	0.454963	1.100208	0.713654
H131	H	0.592606	1.036096	-0.106914
O132	O	1.405414	0.381539	-0.277772
H133	H	1.455017	0.310008	-0.286419
O134	O	1.405451	0.574917	-0.522600
H135	H	1.455046	0.568068	-0.613136
H136	H	0.418195	1.173898	-0.106930
O137	O	1.605252	0.223612	-0.477605
H138	H	1.555624	0.230459	-0.387070
H139	H	0.592579	0.709923	0.305882
H140	H	1.418121	0.552608	0.106720
O141	O	0.605252	0.891062	0.522398
H142	H	0.649066	0.864173	0.569076
O143	O	0.778379	0.657595	-0.173150
H144	H	0.786708	0.611852	-0.231073
O145	O	0.405407	0.697640	0.477467
H146	H	0.330449	0.705466	0.562296
