data_functionalizedCrystal
_audit_creation_method	'MofGen! by Chris Wilmer'
_symmetry_space_group_name_H-M	'P1'
_symmetry_Int_Tables_number	1
_symmetry_cell_setting	triclinic
loop_
_symmetry_equiv_pos_as_xyz
  x,y,z
_cell_length_a	14.560432
_cell_length_b	20.016444
_cell_length_c	14.560432
_cell_angle_alpha	119.999552
_cell_angle_beta	90.001416
_cell_angle_gamma	60.000511
loop_
_atom_site_label
_atom_site_type_symbol
_atom_site_fract_x
_atom_site_fract_y
_atom_site_fract_z
Zr1	Zr	0.884754	0.731268	0.120478
O2	O	0.738113	0.870641	0.267117
O3	O	0.929708	0.591895	0.075532
O4	O	0.929712	0.731271	0.267127
O5	O	0.738104	0.731262	-0.075620
O6	O	1.080850	0.731274	0.267127
O7	O	0.738108	0.731264	0.075522
O8	O	1.080841	0.481956	-0.075602
O9	O	0.738113	0.980580	0.267110
O10	O	1.061672	0.649223	0.056355
O11	O	0.948877	0.649219	-0.056441
O12	O	0.948883	0.813317	0.169138
O13	O	0.836088	0.813313	0.056343
Zr14	Zr	1.125796	0.731268	-0.120575
Zr15	Zr	1.125801	0.731273	0.120478
Zr16	Zr	0.884749	0.731264	-0.120575
Zr17	Zr	0.884755	0.906609	0.120466
Zr18	Zr	1.125795	0.555927	-0.120563
O19	O	1.080843	0.870641	-0.075629
O20	O	1.080851	0.870647	0.267118
O21	O	0.738105	0.870634	-0.075629
O22	O	1.272437	0.591896	-0.267214
O23	O	1.272445	0.591902	0.075532
O24	O	0.929700	0.591889	-0.267215
O25	O	1.272446	0.731274	0.075523
O26	O	1.080838	0.731265	-0.267224
O27	O	0.929700	0.731262	-0.267225
O28	O	1.272442	0.731272	-0.075619
O29	O	0.929713	0.980584	0.267110
O30	O	1.080837	0.481952	-0.267207
O31	O	1.272437	0.481956	-0.267207
O32	O	1.272442	0.481959	-0.075602
O33	O	0.738109	0.980577	0.075504
O34	O	0.929709	0.980580	0.075505
O35	O	1.061667	0.649219	-0.169236
O36	O	1.174462	0.649224	-0.056440
O37	O	1.061673	0.813317	0.056343
O38	O	0.948878	0.813313	-0.056452
C39	C	1.005274	0.511943	-0.000033
C40	C	1.005274	0.437506	-0.000028
C41	C	1.064156	0.266239	0.058831
C42	C	1.064159	0.196291	0.058822
C43	C	0.946393	0.196300	-0.058935
C44	C	0.946397	0.266242	-0.058933
C45	C	1.005275	0.301213	-0.000043
C46	C	1.005275	0.161324	-0.000054
C47	C	1.005278	0.085483	-0.000064
C48	C	1.005274	0.377056	-0.000034
C49	C	0.703762	0.731262	-0.000049
C50	C	0.601431	0.731260	-0.000049
C51	C	0.719167	0.559945	-0.117786
C52	C	0.729958	0.474291	-0.176648
C53	C	0.633805	0.474295	-0.176645
C54	C	0.526853	0.559963	-0.117776
C55	C	0.516062	0.645617	-0.058913
C56	C	0.612223	0.645604	-0.058920
C57	C	0.398328	0.816930	0.058815
C58	C	0.494479	0.816928	0.058820
C59	C	0.291376	0.902598	0.117684
C60	C	0.280584	0.988255	0.176555
C61	C	0.376744	0.988247	0.176550
C62	C	0.483688	0.902583	0.117683
C63	C	1.306788	0.731274	-0.000048
C64	C	1.409119	0.731276	-0.000048
C65	C	1.005282	0.731274	0.301472
C66	C	1.005284	0.731275	0.403806
C67	C	1.005276	0.950593	-0.000064
C68	C	1.005276	1.025030	-0.000069
C69	C	1.171809	0.731290	0.403830
C70	C	1.255067	0.731301	0.451920
C71	C	1.255065	0.731301	0.548070
C72	C	1.171798	0.731288	0.596131
C73	C	1.088540	0.731277	0.548041
C74	C	1.088549	0.731280	0.451891
C75	C	0.922022	0.731256	0.548012
C76	C	0.922017	0.731262	0.451866
C77	C	0.838755	0.731243	0.596072
C78	C	0.755490	0.731238	0.547987
C79	C	0.755495	0.731239	0.451832
C80	C	0.838759	0.731251	0.403777
C81	C	1.005272	0.731264	0.698432
C82	C	1.005280	0.731267	0.596101
C83	C	1.306787	0.511949	-0.000033
C84	C	1.409118	0.437514	-0.000027
C85	C	1.005267	0.511938	-0.301554
C86	C	1.005265	0.437499	-0.403882
C87	C	1.306780	0.511943	-0.301554
C88	C	1.409109	0.437507	-0.403882
C89	C	0.703770	0.950593	0.301457
C90	C	0.601441	1.025029	0.403785
C91	C	0.703763	0.950587	-0.000064
C92	C	0.601432	1.025022	-0.000070
C93	C	1.005283	0.950598	0.301457
C94	C	1.005285	1.025037	0.403785
C95	C	1.398298	0.402559	0.058863
C96	C	1.494440	0.332629	0.058890
C97	C	1.601399	0.297651	0.000020
C98	C	1.612217	0.332613	-0.058872
C99	C	1.516077	0.402547	-0.058892
C100	C	1.064138	0.402542	-0.510825
C101	C	1.064132	0.332609	-0.606982
C102	C	1.005257	0.297629	-0.596195
C103	C	0.946376	0.332593	-0.489241
C104	C	0.946377	0.402530	-0.393086
C105	C	1.516051	0.402553	-0.393058
C106	C	1.612208	0.332621	-0.489197
C107	C	1.601421	0.297640	-0.596158
C108	C	1.494467	0.332601	-0.606980
C109	C	1.398312	0.402536	-0.510842
C110	C	0.494499	1.059992	0.392961
C111	C	0.398342	1.129945	0.489100
C112	C	0.409129	1.164930	0.596061
C113	C	0.516083	1.129964	0.606883
C114	C	0.612238	1.060017	0.510745
C115	C	0.612252	1.059985	-0.058950
C116	C	0.516110	1.129934	-0.058951
C117	C	0.409151	1.164914	-0.000077
C118	C	0.398333	1.129949	0.058810
C119	C	0.494474	1.060006	0.058817
C120	C	1.064172	1.059995	0.392962
C121	C	1.064196	1.129928	0.489101
C122	C	1.005327	1.164908	0.596062
C123	C	0.946439	1.129944	0.606884
C124	C	0.946422	1.060006	0.510746
H125	H	0.797465	0.559933	-0.117785
O126	O	0.282965	1.167679	0.122300
H127	H	0.273167	1.199556	0.212797
H128	H	0.898510	1.158435	0.693984
H129	H	0.699335	1.031509	-0.106899
H130	H	0.687704	0.731221	0.587120
O131	O	1.705083	0.222219	0.000049
H132	H	1.755853	0.249062	0.036903
O133	O	0.882873	0.158594	-0.122436
H134	H	0.892749	0.104092	-0.112536
H135	H	1.699316	0.304124	-0.106801
H136	H	1.005265	0.240682	-0.674500
O137	O	0.482787	1.022295	0.122319
H138	H	0.523761	1.035719	0.187409
H139	H	0.193501	1.057998	0.224476
H140	H	0.898448	0.294717	-0.106880
O141	O	1.527710	0.440273	-0.277702
H142	H	1.442889	0.494774	-0.212657
O143	O	0.882901	0.440140	-0.277782
H144	H	0.817772	0.517291	-0.231077
O145	O	0.645443	0.381910	-0.240126
H146	H	0.604460	0.377803	-0.305209
O147	O	0.665691	0.731231	0.399966
H148	H	0.607792	0.731228	0.449546
H149	H	0.817047	0.404542	-0.224581
H150	H	1.699286	0.304163	-0.480366
H151	H	1.679726	0.240695	-0.674431
H152	H	1.485701	0.304109	-0.694081
H153	H	1.524902	0.430998	-0.106854
H154	H	1.112082	0.431015	-0.519630
H155	H	0.485694	1.031511	0.305876
H156	H	1.311239	0.430987	-0.519671
O157	O	0.423150	0.559961	-0.117781
H158	H	0.372392	0.596927	-0.154640
O159	O	0.187663	0.902611	0.117703
H160	H	0.213131	0.828659	0.066897
H161	H	0.367945	1.057998	0.224469
H162	H	0.311265	1.158402	0.480267
O163	O	0.305415	1.240383	0.699751
H164	H	0.229243	1.258811	0.674243
H165	H	0.524853	1.158458	0.693982
H166	H	1.112100	0.294709	0.106781
H167	H	0.838760	0.731237	0.674359
H168	H	1.112106	0.167816	0.106761
O169	O	1.127662	0.294889	-0.722332
H170	H	1.168619	0.330951	-0.713668
O171	O	0.727584	1.022296	0.522424
H172	H	0.718918	1.058371	0.612955
H173	H	0.898465	1.031552	0.519574
O174	O	1.127688	1.022265	0.277605
H175	H	1.093685	1.080973	0.267819
O176	O	0.527789	1.167628	-0.122484
H177	H	0.618318	1.131534	-0.163437
H178	H	0.898442	0.304102	-0.480475
O179	O	0.305459	1.240327	-0.000125
H180	H	0.330963	1.258741	-0.050984
O181	O	1.127709	1.167635	0.477418
H182	H	1.168622	1.131569	0.386888
O183	O	1.005342	1.240351	0.699745
H184	H	1.042195	1.213519	0.750525
O185	O	1.282944	0.440280	0.122374
H186	H	1.236329	0.517434	0.187434
H187	H	0.561988	0.902568	0.117677
O188	O	0.838777	0.731245	0.300068
H189	H	0.758813	0.795287	0.318722
O190	O	1.171807	0.731291	0.300127
H191	H	1.243696	0.731296	0.274783
O192	O	1.344891	0.731281	0.400049
H193	H	1.304871	0.795321	0.400251
O194	O	1.344857	0.731324	0.599949
H195	H	1.428816	0.667288	0.537485
O196	O	1.171790	0.731288	0.699835
H197	H	1.243671	0.731301	0.725203
O198	O	1.482761	0.294919	0.122402
H199	H	1.392232	0.330982	0.163312
