data_functionalizedCrystal
_audit_creation_method	'MofGen! by Chris Wilmer'
_symmetry_space_group_name_H-M	'P1'
_symmetry_Int_Tables_number	1
_symmetry_cell_setting	triclinic
loop_
_symmetry_equiv_pos_as_xyz
  x,y,z
_cell_length_a	14.519731
_cell_length_b	10.489716
_cell_length_c	12.996460
_cell_angle_alpha	90.002092
_cell_angle_beta	90.005673
_cell_angle_gamma	84.108994
loop_
_atom_site_label
_atom_site_type_symbol
_atom_site_fract_x
_atom_site_fract_y
_atom_site_fract_z
O1	O	1.224758	0.167335	0.085560
O2	O	1.474758	0.417335	0.335560
O3	O	1.724758	0.667335	0.585560
O4	O	1.974758	0.917335	0.835560
O5	O	0.956389	0.186997	0.085560
O6	O	1.206389	0.436997	0.335560
O7	O	1.456389	0.686997	0.585560
O8	O	1.706389	0.936997	0.835560
O9	O	1.096692	-0.008497	0.085564
O10	O	1.346692	0.241503	0.335564
O11	O	1.596692	0.491503	0.585564
O12	O	1.846692	0.741503	0.835564
O13	O	1.084455	0.362829	0.085556
O14	O	1.334455	0.612829	0.335556
O15	O	1.584455	0.862829	0.585556
O16	O	1.834455	1.112829	0.835556
O17	O	1.096677	-0.008508	-0.085570
O18	O	1.346677	0.241492	0.164430
O19	O	1.596677	0.491492	0.414430
O20	O	1.846677	0.741492	0.664430
O21	O	0.956375	0.186986	-0.085574
O22	O	1.206375	0.436986	0.164426
O23	O	1.456375	0.686986	0.414426
O24	O	1.706375	0.936986	0.664426
O25	O	1.224743	0.167324	-0.085574
O26	O	1.474743	0.417324	0.164426
O27	O	1.724743	0.667324	0.414426
O28	O	1.974743	0.917324	0.664426
Cu29	Cu	1.090557	0.177154	-0.101200
Cu30	Cu	1.340557	0.427154	0.148800
Cu31	Cu	1.590557	0.677154	0.398800
Cu32	Cu	1.840557	0.927154	0.648800
Cu33	Cu	1.090575	0.177167	0.101186
Cu34	Cu	1.340575	0.427167	0.351186
Cu35	Cu	1.590575	0.677167	0.601186
Cu36	Cu	1.840575	0.927167	0.851186
O37	O	1.084440	0.362818	-0.085578
O38	O	1.334440	0.612818	0.164422
O39	O	1.584440	0.862818	0.414422
O40	O	1.834440	1.112818	0.664422
C41	C	0.922018	0.186070	-0.000007
C42	C	1.172018	0.436070	0.249993
C43	C	1.422018	0.686070	0.499993
C44	C	1.672018	0.936070	0.749993
C45	C	0.819623	0.183310	-0.000006
C46	C	1.069623	0.433310	0.249994
C47	C	1.319623	0.683310	0.499994
C48	C	1.569623	0.933310	0.749994
C49	C	0.736466	0.181066	-0.000002
C50	C	0.986466	0.431066	0.249998
C51	C	1.236466	0.681066	0.499998
C52	C	1.486466	0.931066	0.749998
C53	C	0.632142	0.178264	-0.000001
C54	C	0.882142	0.428264	0.249999
C55	C	1.132142	0.678264	0.499999
C56	C	1.382142	0.928264	0.749999
C57	C	0.548991	0.176039	-0.000001
C58	C	0.798991	0.426039	0.249999
C59	C	1.048991	0.676039	0.499999
C60	C	1.298991	0.926039	0.749999
C61	C	0.444661	0.173236	0.000001
C62	C	0.694661	0.423236	0.250001
C63	C	0.944661	0.673236	0.500001
C64	C	1.194661	0.923236	0.750001
C65	C	1.095765	-0.056025	-0.000000
C66	C	1.345765	0.193975	0.250000
C67	C	1.595765	0.443975	0.500000
C68	C	1.845765	0.693975	0.750000
C69	C	1.093014	-0.197628	0.000009
C70	C	1.343014	0.052372	0.250009
C71	C	1.593014	0.302372	0.500009
C72	C	1.843014	0.552372	0.750009
C73	C	1.179052	-0.296189	-0.000000
C74	C	1.429052	-0.046189	0.250000
C75	C	1.679052	0.203811	0.500000
C76	C	1.929052	0.453811	0.750000
C77	C	1.133595	-0.373075	0.084375
C78	C	1.383595	-0.123075	0.334375
C79	C	1.633595	0.126925	0.584375
C80	C	1.883595	0.376925	0.834375
C81	C	1.133561	-0.373050	-0.084350
C82	C	1.383561	-0.123050	0.165650
C83	C	1.633561	0.126950	0.415650
C84	C	1.883561	0.376950	0.665650
C85	C	1.047593	-0.272649	0.084454
C86	C	1.297593	-0.022649	0.334454
C87	C	1.547593	0.227351	0.584454
C88	C	1.797593	0.477351	0.834454
C89	C	1.047571	-0.272618	-0.084346
C90	C	1.297571	-0.022618	0.165654
C91	C	1.547571	0.227382	0.415654
C92	C	1.797571	0.477382	0.665654
C93	C	1.002051	-0.349454	0.000050
C94	C	1.252051	-0.099454	0.250050
C95	C	1.502051	0.150546	0.500050
C96	C	1.752051	0.400546	0.750050
C97	C	1.259115	0.168251	-0.000005
C98	C	1.509115	0.418251	0.249995
C99	C	1.759115	0.668251	0.499995
C100	C	2.009115	0.918251	0.749995
C101	C	1.361510	0.171012	0.000001
C102	C	1.611510	0.421012	0.250001
C103	C	1.861510	0.671012	0.500001
C104	C	2.111510	0.921012	0.750001
C105	C	1.085367	0.410346	-0.000012
C106	C	1.335367	0.660346	0.249988
C107	C	1.585367	0.910346	0.499988
C108	C	1.835367	1.160346	0.749988
C109	C	1.088118	0.551949	-0.000014
C110	C	1.338118	0.801949	0.249986
C111	C	1.588118	1.051949	0.499986
C112	C	1.838118	1.301949	0.749986
N113	N	1.090552	0.177144	-0.243547
N114	N	1.340552	0.427144	0.006453
N115	N	1.590552	0.677144	0.256453
N116	N	1.840552	0.927144	0.506453
C117	C	1.090574	0.177168	-0.663361
C118	C	1.340574	0.427168	-0.413361
C119	C	1.590574	0.677168	-0.163361
C120	C	1.840574	0.927168	0.086639
C121	C	1.090565	0.177166	-0.546556
C122	C	1.340565	0.427166	-0.296556
C123	C	1.590565	0.677166	-0.046556
C124	C	1.840565	0.927166	0.203444
C125	C	1.090563	0.177157	-0.453458
C126	C	1.340563	0.427157	-0.203458
C127	C	1.590563	0.677157	0.046542
C128	C	1.840563	0.927157	0.296542
C129	C	1.090554	0.177153	-0.336645
C130	C	1.340554	0.427153	-0.086645
C131	C	1.590554	0.677153	0.163355
C132	C	1.840554	0.927153	0.413355
N133	N	1.090588	0.177167	0.243533
N134	N	1.340588	0.427167	0.493533
N135	N	1.590588	0.677167	0.743533
N136	N	1.840588	0.927167	0.993533
H137	H	1.253891	-0.272285	0.000085
H138	H	1.503891	-0.022285	0.250085
H139	H	1.753891	0.227715	0.500085
H140	H	2.003891	0.477715	0.750085
H141	H	1.169921	-0.416941	0.155710
H142	H	1.419921	-0.166941	0.405710
H143	H	1.669921	0.083059	0.655710
H144	H	1.919921	0.333059	0.905710
H145	H	1.011277	-0.228730	-0.155683
H146	H	1.261277	0.021270	0.094317
H147	H	1.511277	0.271270	0.344317
H148	H	1.761277	0.521270	0.594317
H149	H	1.011299	-0.228966	0.155866
H150	H	1.261299	0.021034	0.405866
H151	H	1.511299	0.271034	0.655866
H152	H	1.761299	0.521034	0.905866
H153	H	1.169893	-0.416902	-0.155681
H154	H	1.419893	-0.166902	0.094319
H155	H	1.669893	0.083098	0.344319
H156	H	1.919893	0.333098	0.594319
H157	H	0.927156	-0.373112	0.000095
H158	H	1.177156	-0.123112	0.250095
H159	H	1.427156	0.126888	0.500095
H160	H	1.677156	0.376888	0.750095
