data_functionalizedCrystal
_audit_creation_method	'MofGen! by Chris Wilmer'
_symmetry_space_group_name_H-M	'P1'
_symmetry_Int_Tables_number	1
_symmetry_cell_setting	triclinic
loop_
_symmetry_equiv_pos_as_xyz
  x,y,z
_cell_length_a	9.065218
_cell_length_b	9.065218
_cell_length_c	8.140239
_cell_angle_alpha	89.998670
_cell_angle_beta	90.002649
_cell_angle_gamma	94.984115
loop_
_atom_site_label
_atom_site_type_symbol
_atom_site_fract_x
_atom_site_fract_y
_atom_site_fract_z
O1	O	1.960395	-0.216354	0.136652
O2	O	2.293729	0.116979	0.469985
O3	O	2.627062	0.450313	0.803319
O4	O	1.531111	-0.234100	0.136645
O5	O	1.864444	0.099233	0.469978
O6	O	2.197777	0.432566	0.803311
O7	O	1.754626	-0.010585	0.136645
O8	O	2.087959	0.322748	0.469979
O9	O	2.421293	0.656082	0.803312
O10	O	1.736880	-0.439870	0.136652
O11	O	2.070213	-0.106536	0.469985
O12	O	2.403546	0.226797	0.803318
O13	O	1.754619	-0.010583	-0.136582
O14	O	2.087952	0.322750	0.196751
O15	O	2.421286	0.656083	0.530085
O16	O	1.531103	-0.234099	-0.136582
O17	O	1.864437	0.099234	0.196751
O18	O	2.197770	0.432568	0.530084
O19	O	1.960388	-0.216352	-0.136575
O20	O	2.293721	0.116981	0.196758
O21	O	2.627055	0.450314	0.530092
Zn22	Zn	1.745745	-0.225225	-0.179959
Zn23	Zn	2.079078	0.108108	0.153374
Zn24	Zn	2.412411	0.441441	0.486707
Zn25	Zn	1.745754	-0.225228	0.180029
Zn26	Zn	2.079087	0.108106	0.513362
Zn27	Zn	2.412421	0.441439	0.846696
O28	O	1.736872	-0.439868	-0.136575
O29	O	2.070206	-0.106535	0.196758
O30	O	2.403539	0.226799	0.530091
C31	C	1.476120	-0.232394	0.000030
C32	C	1.809454	0.100939	0.333364
C33	C	2.142787	0.434273	0.666697
C34	C	1.312277	-0.227294	0.000028
C35	C	1.645611	0.106039	0.333361
C36	C	1.978944	0.439372	0.666694
C37	C	1.752917	0.044403	0.000034
C38	C	2.086250	0.377736	0.333368
C39	C	2.419584	0.711069	0.666701
C40	C	1.747817	0.208245	0.000042
C41	C	2.081151	0.541579	0.333375
C42	C	2.414484	0.874912	0.666709
N43	N	1.745749	-0.225223	-0.425642
N44	N	2.079082	0.108110	-0.092309
N45	N	2.412415	0.441444	0.241025
C46	C	2.015378	-0.218059	0.000043
C47	C	2.348712	0.115275	0.333376
C48	C	2.682045	0.448608	0.666710
C49	C	2.179221	-0.223158	0.000057
C50	C	2.512555	0.110175	0.333390
C51	C	2.845888	0.443508	0.666723
C52	C	1.738582	-0.494855	0.000039
C53	C	2.071915	-0.161522	0.333372
C54	C	2.405248	0.171811	0.666706
C55	C	1.743681	-0.658698	0.000042
C56	C	2.077015	-0.325365	0.333375
C57	C	2.410348	0.007968	0.666709
N58	N	1.745761	-0.225218	0.425712
N59	N	2.079095	0.108115	0.759045
N60	N	2.412428	0.441448	1.092378
