data_functionalizedCrystal
_audit_creation_method	'MofGen! by Chris Wilmer'
_symmetry_space_group_name_H-M	'P1'
_symmetry_Int_Tables_number	1
_symmetry_cell_setting	triclinic
loop_
_symmetry_equiv_pos_as_xyz
  x,y,z
_cell_length_a	29.839125
_cell_length_b	11.169417
_cell_length_c	11.169416
_cell_angle_alpha	90.011219
_cell_angle_beta	90.002356
_cell_angle_gamma	90.010559
loop_
_atom_site_label
_atom_site_type_symbol
_atom_site_fract_x
_atom_site_fract_y
_atom_site_fract_z
Zn1	Zn	-0.253997	-1.834853	0.478020
Zn2	Zn	-0.178879	-1.834774	0.678660
Zn3	Zn	-0.178884	-1.634171	0.477993
Zn4	Zn	-0.253985	-1.634146	0.678662
O5	O	-0.216436	-1.734486	0.578334
O6	O	-0.244036	-2.002792	0.504645
O7	O	-0.116013	-1.808142	0.652029
O8	O	-0.188855	-1.660835	0.310047
O9	O	-0.188847	-2.002734	0.652055
O10	O	-0.244040	-1.808275	0.310066
O11	O	-0.116016	-1.660759	0.504600
O12	O	-0.188843	-1.466218	0.504602
O13	O	-0.316854	-1.660792	0.652059
O14	O	-0.244019	-1.466200	0.652033
O15	O	-0.316863	-1.808251	0.504647
O16	O	-0.188835	-1.808117	0.846610
O17	O	-0.244015	-1.660717	0.846612
C18	C	-0.216431	-1.422661	0.578316
C19	C	-0.216439	-1.289261	0.578337
C20	C	-0.216433	-1.734438	0.890158
C21	C	-0.216446	-1.734528	1.023558
C22	C	-0.333615	-1.734527	0.578356
C23	C	-0.383549	-1.734545	0.578366
C24	C	-0.740132	-1.657847	0.654848
C25	C	-0.552459	-1.657804	0.654986
O26	O	-0.528190	-1.592474	0.720240
N27	N	-0.528994	-1.734572	0.578255
C28	C	-0.552451	-1.811350	0.501478
O29	O	-0.528187	-1.876637	0.436208
C30	C	-0.740124	-1.811386	0.501334
C31	C	-0.763585	-1.734622	0.578079
C32	C	-0.763594	-1.581088	0.731585
C33	C	-0.810509	-1.581104	0.731555
C34	C	-0.833963	-1.657879	0.654786
C35	C	-0.810501	-1.734638	0.578049
C36	C	-0.763580	-1.888158	0.424552
C37	C	-0.810501	-1.888158	0.424521
C38	C	-0.833962	-1.811394	0.501266
C39	C	-0.880870	-1.811430	0.501249
N40	N	-0.904334	-1.734662	0.577981
C41	C	-0.880881	-1.657886	0.654749
C42	C	-0.453921	-1.811328	0.501560
C43	C	-0.407003	-1.811320	0.501597
C44	C	-0.407013	-1.657772	0.655104
C45	C	-0.453932	-1.657786	0.655072
C46	C	-0.477385	-1.734560	0.578292
C47	C	-0.979406	-1.657927	0.654679
C48	C	-1.026326	-1.657953	0.654645
C49	C	-1.026311	-1.811497	0.501135
C50	C	-0.979396	-1.811475	0.501173
C51	C	-0.955945	-1.734680	0.577949
O52	O	-0.905167	-1.876715	0.436020
O53	O	-0.905153	-1.592591	0.719991
C54	C	-0.693216	-1.657831	0.654878
C55	C	-0.669754	-1.734590	0.578141
C56	C	-0.693208	-1.811365	0.501372
C57	C	-0.622837	-1.734582	0.578178
C58	C	-0.599383	-1.657807	0.654946
C59	C	-0.622847	-1.581039	0.731678
C60	C	-0.669763	-1.581055	0.731647
C61	C	-0.669744	-1.888133	0.424641
C62	C	-0.622828	-1.888112	0.424679
C63	C	-0.599375	-1.811336	0.501447
C64	C	-0.099714	-1.734514	0.578225
C65	C	-0.049780	-1.734728	0.577877
C66	C	-0.216442	-2.047528	0.578353
C67	C	-0.216445	-2.180928	0.578361
C68	C	-0.216450	-1.734566	0.265291
C69	C	-0.216455	-1.734601	0.131891
H70	H	-1.045427	-1.595442	0.717145
F71	F	-0.738620	-1.969861	0.342866
F72	F	-0.597878	-1.499333	0.813384
F73	F	-0.382038	-1.893039	0.419931
H74	H	-0.688861	-1.518545	0.794140
H75	H	-0.688835	-1.950653	0.362125
F76	F	-0.478875	-1.893070	0.419858
H77	H	-1.045416	-1.874009	0.438636
H78	H	-0.960318	-1.595382	0.717187
H79	H	-0.603730	-1.950634	0.362186
F80	F	-0.835473	-1.499399	0.813237
H81	H	-0.960292	-1.873992	0.438689
F82	F	-0.382044	-1.576063	0.736809
F83	F	-0.738640	-1.499363	0.813298
F84	F	-0.478898	-1.576082	0.736752
H85	H	-0.829593	-1.950673	0.361990
