data_functionalizedCrystal
_audit_creation_method	'MofGen! by Chris Wilmer'
_symmetry_space_group_name_H-M	'P1'
_symmetry_Int_Tables_number	1
_symmetry_cell_setting	triclinic
loop_
_symmetry_equiv_pos_as_xyz
  x,y,z
_cell_length_a	14.044220
_cell_length_b	15.944551
_cell_length_c	13.101039
_cell_angle_alpha	93.361595
_cell_angle_beta	86.340132
_cell_angle_gamma	88.343808
loop_
_atom_site_label
_atom_site_type_symbol
_atom_site_fract_x
_atom_site_fract_y
_atom_site_fract_z
O1	O	1.262927	0.198266	-0.085109
O2	O	1.512927	0.448266	0.164891
O3	O	1.762927	0.698266	0.414891
O4	O	2.012927	0.948266	0.664891
O5	O	0.986959	0.190957	-0.085135
O6	O	1.236959	0.440957	0.164865
O7	O	1.486959	0.690957	0.414865
O8	O	1.736959	0.940957	0.664865
O9	O	1.132479	0.072901	-0.085112
O10	O	1.382479	0.322901	0.164888
O11	O	1.632479	0.572901	0.414888
O12	O	1.882479	0.822901	0.664888
O13	O	1.117408	0.316322	-0.085132
O14	O	1.367408	0.566322	0.164868
O15	O	1.617408	0.816322	0.414868
O16	O	1.867408	1.066322	0.664868
O17	O	1.122038	0.081387	0.085316
O18	O	1.372038	0.331387	0.335316
O19	O	1.622038	0.581387	0.585316
O20	O	1.872038	0.831387	0.835316
O21	O	0.976518	0.199443	0.085293
O22	O	1.226518	0.449443	0.335293
O23	O	1.476518	0.699443	0.585293
O24	O	1.726518	0.949443	0.835293
O25	O	1.252486	0.206752	0.085319
O26	O	1.502486	0.456752	0.335319
O27	O	1.752486	0.706752	0.585319
O28	O	2.002486	0.956752	0.835319
Zn29	Zn	1.112845	0.204444	0.112365
Zn30	Zn	1.362845	0.454444	0.362365
Zn31	Zn	1.612845	0.704444	0.612365
Zn32	Zn	1.862845	0.954444	0.862365
Zn33	Zn	1.126601	0.193264	-0.112181
Zn34	Zn	1.376601	0.443264	0.137819
Zn35	Zn	1.626601	0.693264	0.387819
Zn36	Zn	1.876601	0.943264	0.637819
O37	O	1.106967	0.324807	0.085296
O38	O	1.356967	0.574807	0.335296
O39	O	1.606967	0.824807	0.585296
O40	O	1.856967	1.074807	0.835296
C41	C	0.946424	0.192001	0.000076
C42	C	1.196424	0.442001	0.250076
C43	C	1.446424	0.692001	0.500076
C44	C	1.696424	0.942001	0.750076
C45	C	0.841198	0.182459	0.000066
C46	C	1.091198	0.432459	0.250066
C47	C	1.341198	0.682459	0.500066
C48	C	1.591198	0.932459	0.750066
C49	C	0.648535	0.165017	0.000088
C50	C	0.898535	0.415017	0.250088
C51	C	1.148535	0.665017	0.500088
C52	C	1.398535	0.915017	0.750088
C53	C	0.590906	0.232688	0.000087
C54	C	0.840906	0.482688	0.250087
C55	C	1.090906	0.732688	0.500087
C56	C	1.340906	0.982688	0.750087
C57	C	0.483701	0.222982	0.000099
C58	C	0.733701	0.472982	0.250099
C59	C	0.983701	0.722982	0.500099
C60	C	1.233701	0.972982	0.750099
C61	C	0.755749	0.174721	0.000076
C62	C	1.005749	0.424721	0.250076
C63	C	1.255749	0.674721	0.500076
C64	C	1.505749	0.924721	0.750076
C65	C	1.126633	0.045803	0.000102
C66	C	1.376633	0.295803	0.250102
C67	C	1.626633	0.545803	0.500102
C68	C	1.876633	0.795803	0.750102
C69	C	1.124757	-0.047583	0.000102
C70	C	1.374757	0.202417	0.250102
C71	C	1.624757	0.452417	0.500102
C72	C	1.874757	0.702417	0.750102
C73	C	1.030074	-0.269531	0.000079
C74	C	1.280074	-0.019531	0.250079
C75	C	1.530074	0.230469	0.500079
C76	C	1.780074	0.480469	0.750079
C77	C	1.068894	-0.323071	0.084115
C78	C	1.318894	-0.073071	0.334115
C79	C	1.568894	0.176929	0.584115
C80	C	1.818894	0.426929	0.834115
C81	C	1.121364	-0.218563	0.000094
C82	C	1.371364	0.031437	0.250094
C83	C	1.621364	0.281437	0.500094
C84	C	1.871364	0.531437	0.750094
C85	C	1.079209	-0.331419	-0.083914
C86	C	1.329209	-0.081419	0.166086
C87	C	1.579209	0.168581	0.416086
C88	C	1.829209	0.418581	0.666086
C89	C	1.118080	-0.383723	0.000082
C90	C	1.368080	-0.133723	0.250082
C91	C	1.618080	0.116277	0.500082
C92	C	1.868080	0.366277	0.750082
C93	C	1.160204	-0.270871	0.084199
C94	C	1.410204	-0.020871	0.334199
C95	C	1.660204	0.229129	0.584199
C96	C	1.910204	0.479129	0.834199
C97	C	1.170512	-0.279217	-0.083905
C98	C	1.420512	-0.029217	0.166095
C99	C	1.670512	0.220783	0.416095
C100	C	1.920512	0.470783	0.666095
C101	C	1.209397	-0.332734	0.000151
C102	C	1.459397	-0.082734	0.250151
C103	C	1.709397	0.167266	0.500151
C104	C	1.959397	0.417266	0.750151
C105	C	1.123253	-0.123419	0.000102
C106	C	1.373253	0.126581	0.250102
C107	C	1.623253	0.376581	0.500102
C108	C	1.873253	0.626581	0.750102
C109	C	1.116197	-0.478865	0.000081
C110	C	1.366197	-0.228865	0.250081
C111	C	1.616197	0.021135	0.500081
C112	C	1.866197	0.271135	0.750081
C113	C	1.293021	0.205707	0.000106
C114	C	1.543021	0.455707	0.250106
C115	C	1.793021	0.705707	0.500106
C116	C	2.043021	0.955707	0.750106
C117	C	1.398248	0.215249	0.000108
C118	C	1.648248	0.465249	0.250108
C119	C	1.898248	0.715249	0.500108
C120	C	2.148248	0.965249	0.750108
C121	C	1.112813	0.351905	0.000079
C122	C	1.362813	0.601905	0.250079
C123	C	1.612813	0.851905	0.500079
C124	C	1.862813	1.101905	0.750079
C125	C	1.114689	0.445291	0.000072
C126	C	1.364689	0.695291	0.250072
C127	C	1.614689	0.945291	0.500072
C128	C	1.864689	1.195291	0.750072
N129	N	1.103463	0.212075	0.265612
N130	N	1.353463	0.462075	0.515612
N131	N	1.603463	0.712075	0.765612
N132	N	1.853463	0.962075	1.015612
N133	N	1.135990	0.185628	-0.265429
N134	N	1.385990	0.435628	-0.015429
N135	N	1.635990	0.685628	0.234571
N136	N	1.885990	0.935628	0.484571
C137	C	1.090699	0.222464	0.474653
C138	C	1.340699	0.472464	0.724653
C139	C	1.590699	0.722464	0.974653
C140	C	1.840699	0.972464	1.224653
C141	C	1.148750	0.175242	0.525537
C142	C	1.398750	0.425242	0.775537
C143	C	1.648750	0.675242	1.025537
C144	C	1.898750	0.925242	1.275537
C145	C	1.141649	0.181022	0.641855
C146	C	1.391649	0.431022	0.891855
C147	C	1.641649	0.681022	1.141855
C148	C	1.891649	0.931022	1.391855
C149	C	1.097800	0.216684	0.358325
C150	C	1.347800	0.466684	0.608325
C151	C	1.597800	0.716684	0.858325
C152	C	1.847800	0.966684	1.108325
H153	H	0.622082	0.297911	0.000076
H154	H	0.872082	0.547911	0.250076
H155	H	1.122082	0.797911	0.500076
H156	H	1.372082	1.047911	0.750076
Br157	Br	0.903770	-0.223468	0.000197
Br158	Br	1.153770	0.026532	0.250197
Br159	Br	1.403770	0.276532	0.500197
Br160	Br	1.653770	0.526532	0.750197
Br161	Br	0.596576	0.056312	0.000102
Br162	Br	0.846576	0.306312	0.250102
Br163	Br	1.096576	0.556312	0.500102
Br164	Br	1.346576	0.806312	0.750102
Br165	Br	0.997288	-0.355509	0.202519
Br166	Br	1.247288	-0.105509	0.452519
Br167	Br	1.497288	0.144491	0.702519
Br168	Br	1.747288	0.394491	0.952519
Br169	Br	0.998980	0.297080	0.547638
Br170	Br	1.248980	0.547080	0.797638
Br171	Br	1.498980	0.797080	1.047638
Br172	Br	1.748980	1.047080	1.297638
H173	H	1.285236	-0.360212	0.000205
H174	H	1.535236	-0.110212	0.250205
H175	H	1.785236	0.139788	0.500205
H176	H	2.035236	0.389788	0.750205
H177	H	1.194427	-0.244450	0.155322
H178	H	1.444427	0.005550	0.405322
H179	H	1.694427	0.255550	0.655322
H180	H	1.944427	0.505550	0.905322
H181	H	1.203784	0.130473	0.481744
H182	H	1.453784	0.380473	0.731744
H183	H	1.703784	0.630473	0.981744
H184	H	1.953784	0.880473	1.231744
H185	H	1.044938	-0.357926	-0.154965
H186	H	1.294938	-0.107926	0.095035
H187	H	1.544938	0.142074	0.345035
H188	H	1.794938	0.392074	0.595035
Br189	Br	1.242070	-0.246744	-0.202314
Br190	Br	1.492070	0.003256	0.047686
Br191	Br	1.742070	0.253256	0.297686
Br192	Br	1.992070	0.503256	0.547686
