data_functionalizedCrystal
_audit_creation_method	'MofGen! by Chris Wilmer'
_symmetry_space_group_name_H-M	'P1'
_symmetry_Int_Tables_number	1
_symmetry_cell_setting	triclinic
loop_
_symmetry_equiv_pos_as_xyz
  x,y,z
_cell_length_a	10.654550
_cell_length_b	8.559649
_cell_length_c	9.730223
_cell_angle_alpha	90.000781
_cell_angle_beta	89.996251
_cell_angle_gamma	77.131784
loop_
_atom_site_label
_atom_site_type_symbol
_atom_site_fract_x
_atom_site_fract_y
_atom_site_fract_z
O1	O	1.644677	0.224178	-0.114394
O2	O	1.276992	0.245537	-0.114371
O3	O	1.493228	0.002614	-0.114383
O4	O	1.428441	0.467100	-0.114382
O5	O	1.493225	0.002620	0.114197
O6	O	1.276989	0.245543	0.114209
O7	O	1.644674	0.224184	0.114186
Zn8	Zn	1.460831	0.234864	0.150489
Zn9	Zn	1.460835	0.234856	-0.150675
O10	O	1.428438	0.467106	0.114198
C11	C	1.230355	0.243972	-0.000079
C12	C	1.091396	0.239279	-0.000070
C13	C	0.997136	0.382308	-0.000090
C14	C	0.866571	0.377890	-0.000114
C15	C	0.924542	0.087401	-0.000104
C16	C	1.055103	0.091821	-0.000070
C17	C	0.963666	0.550020	-0.000101
C18	C	0.833101	0.545601	-0.000125
C19	C	1.498136	-0.056858	-0.000096
C20	C	1.512750	-0.234076	-0.000105
C21	C	1.691311	0.225749	-0.000110
C22	C	1.830270	0.230441	-0.000128
C23	C	1.423530	0.526579	-0.000092
C24	C	1.408916	0.703797	-0.000093
N25	N	1.460838	0.234869	0.356026
N26	N	1.460839	0.234839	-0.356211
C27	C	1.556605	0.127340	0.427946
C28	C	1.556604	0.127320	0.571829
C29	C	1.365062	0.342373	0.571858
C30	C	1.365060	0.342384	0.427978
C31	C	1.667193	0.003185	0.427931
C32	C	1.667192	0.003165	0.571814
H33	H	1.131848	-0.024647	-0.000034
C34	C	1.766079	0.179550	0.704506
C35	C	1.793660	0.040083	0.624536
H36	H	1.844153	0.202332	0.737058
H37	H	1.721362	0.266568	0.650281
H38	H	1.714033	0.164320	0.780430
H39	H	1.845698	0.055317	0.548606
H40	H	1.838397	-0.046956	0.678763
C41	C	1.636684	-0.505217	-0.000105
C42	C	1.647866	-0.345295	-0.000114
H43	H	1.720098	-0.573875	-0.000120
H44	H	1.591202	-0.525116	0.079608
H45	H	1.591186	-0.525123	-0.079814
H46	H	1.693356	-0.325386	0.079601
H47	H	1.693367	-0.325389	-0.079835
C48	C	1.258920	-0.088191	-0.117608
C49	C	1.273806	-0.184996	-0.000096
H50	H	1.175504	-0.019538	-0.117612
H51	H	1.322094	-0.025478	-0.117603
H52	H	1.269045	-0.153912	-0.197305
H53	H	1.263690	-0.119275	0.079602
H54	H	1.210613	-0.247715	-0.000088
C55	C	0.750139	-0.048359	-0.000150
C56	C	0.884643	-0.074679	-0.000118
H57	H	0.725513	-0.148425	-0.000169
H58	H	0.716823	0.010585	0.079551
H59	H	0.716865	0.010594	-0.079871
H60	H	0.917916	-0.133622	0.079609
H61	H	0.917973	-0.133648	-0.079827
C62	C	0.882017	0.687830	0.207344
C63	C	0.994129	0.638558	0.129043
H64	H	0.900829	0.742476	0.287073
H65	H	0.818554	0.757677	0.154187
H66	H	0.850647	0.596743	0.233892
H67	H	1.025494	0.729646	0.102485
H68	H	1.057613	0.568707	0.182210
H69	H	1.287069	0.429929	0.369421
H70	H	1.287082	0.429908	0.630457
C71	C	1.648149	-0.262874	0.487124
C72	C	1.655342	-0.162421	0.375197
H73	H	1.640824	-0.365104	0.454565
H74	H	1.723766	-0.274147	0.541343
H75	H	1.574963	-0.217505	0.541360
H76	H	1.728534	-0.207784	0.320966
H77	H	1.579717	-0.151152	0.320955
H78	H	1.754362	0.042060	0.383299
H79	H	0.993806	0.603419	-0.098789
H80	H	0.782193	0.596288	0.098559
H81	H	0.784843	0.608790	-0.095793
H82	H	1.648655	-0.112769	0.616431
