data_functionalizedCrystal
_audit_creation_method	'MofGen! by Chris Wilmer'
_symmetry_space_group_name_H-M	'P1'
_symmetry_Int_Tables_number	1
_symmetry_cell_setting	triclinic
loop_
_symmetry_equiv_pos_as_xyz
  x,y,z
_cell_length_a	6.817900
_cell_length_b	7.190334
_cell_length_c	16.255699
_cell_angle_alpha	89.349550
_cell_angle_beta	103.489404
_cell_angle_gamma	60.611776
loop_
_atom_site_label
_atom_site_type_symbol
_atom_site_fract_x
_atom_site_fract_y
_atom_site_fract_z
V1	V	-4.223188	0.665700	-0.115738
O2	O	-4.206716	0.652300	0.006951
O3	O	-4.173598	0.661847	-0.230825
O4	O	-4.260347	0.955715	-0.113349
O5	O	-4.119366	0.356397	-0.111339
V6	V	-4.695883	0.628620	-0.101135
O7	O	-4.508197	0.747038	-0.147771
O8	O	-4.861071	0.547282	-0.069102
O9	O	-4.522266	0.632473	0.013952
O10	O	-4.829752	0.642020	-0.223824
O11	O	-4.917102	0.937923	-0.105534
O12	O	-4.435517	0.338605	-0.103525
C13	C	-4.015541	0.651526	-0.258900
C14	C	-4.056853	0.650309	-0.352981
C15	C	-4.126209	1.026381	-0.109043
C16	C	-4.239964	1.267931	-0.107827
C17	C	-3.963318	0.636366	-0.575836
C18	C	-3.996249	0.464499	-0.623804
C19	C	-4.132627	0.648185	-0.525240
C20	C	-4.173338	0.817905	-0.644909
C21	C	-4.205810	0.646141	-0.691633
C22	C	-4.164940	0.476188	-0.571959
C23	C	-4.342079	0.829751	-0.593069
C24	C	-4.375118	0.657850	-0.641012
C25	C	-4.090461	0.649360	-0.429384
C26	C	-4.247983	0.644951	-0.787486
C27	C	-4.343664	0.642788	0.042022
C28	C	-4.281594	0.644019	0.136103
H29	H	-3.850477	0.310059	-0.637724
H30	H	-4.487775	0.984190	-0.579127
O31	O	-4.159862	0.303476	-0.534264
C32	C	-3.972499	-0.084080	-0.507355
C33	C	-3.978035	0.111322	-0.550105
H34	H	-3.825475	-0.239485	-0.520132
H35	H	-4.147026	-0.075687	-0.534779
H36	H	-3.940805	-0.081715	-0.435445
H37	H	-4.009639	0.109081	-0.622017
H38	H	-3.803498	0.102856	-0.522613
O39	O	-4.583103	0.668334	-0.674883
C40	C	-4.780369	0.496848	-0.752948
C41	C	-4.544689	0.484744	-0.714647
H42	H	-4.749388	0.348413	-0.785091
H43	H	-4.900415	0.648517	-0.802255
H44	H	-4.865779	0.502517	-0.699792
H45	H	-4.459078	0.478991	-0.767743
H46	H	-4.424808	0.333098	-0.665319
O47	O	-4.177976	0.990006	-0.682936
C48	C	-4.224778	1.182896	-0.814909
C49	C	-4.219556	0.987892	-0.771958
H50	H	-4.258442	1.181276	-0.886892
H51	H	-4.049492	1.173443	-0.788040
H52	H	-4.370442	1.338436	-0.801593
H53	H	-4.074002	0.832255	-0.785258
H54	H	-4.394937	0.997536	-0.798832
H55	H	-3.788750	0.627074	-0.547352
