data_functionalizedCrystal
_audit_creation_method	'MofGen! by Chris Wilmer'
_symmetry_space_group_name_H-M	'P1'
_symmetry_Int_Tables_number	1
_symmetry_cell_setting	triclinic
loop_
_symmetry_equiv_pos_as_xyz
  x,y,z
_cell_length_a	13.635800
_cell_length_b	7.076093
_cell_length_c	9.582860
_cell_angle_alpha	106.722119
_cell_angle_beta	68.793233
_cell_angle_gamma	117.701465
loop_
_atom_site_label
_atom_site_type_symbol
_atom_site_fract_x
_atom_site_fract_y
_atom_site_fract_z
V1	V	-1.798852	0.664614	0.204670
V2	V	-1.298852	1.164614	0.704670
O3	O	-1.776000	0.652365	-0.012291
O4	O	-1.276000	1.152365	0.487709
O5	O	-1.795978	0.659682	0.408189
O6	O	-1.295978	1.159682	0.908189
O7	O	-1.672008	0.954652	0.200444
O8	O	-1.172008	1.454652	0.700444
O9	O	-1.900828	0.355353	0.196891
O10	O	-1.400828	0.855353	0.696891
V11	V	-2.051202	0.627671	0.178846
V12	V	-1.551202	1.127671	0.678846
O13	O	-1.906252	0.745652	0.261317
O14	O	-1.406252	1.245652	0.761317
O15	O	-2.168900	0.546633	0.122200
O16	O	-1.668900	1.046633	0.622200
O17	O	-1.942473	0.632603	-0.024672
O18	O	-1.442473	1.132603	0.475328
O19	O	-2.132752	0.639921	0.395808
O20	O	-1.632752	1.139921	0.895808
O21	O	-2.007925	0.936933	0.186625
O22	O	-1.507925	1.436933	0.686625
O23	O	-2.066442	0.337633	0.183072
O24	O	-1.566442	0.837633	0.683072
V25	V	-1.298852	0.664614	0.204670
V26	V	-0.798852	1.164614	0.704670
O27	O	-1.276000	0.652365	-0.012291
O28	O	-0.776000	1.152365	0.487709
O29	O	-1.295978	0.659682	0.408189
O30	O	-0.795978	1.159682	0.908189
O31	O	-1.172008	0.954652	0.200444
O32	O	-0.672008	1.454652	0.700444
O33	O	-1.400828	0.355353	0.196891
O34	O	-0.900828	0.855353	0.696891
V35	V	-1.551202	0.627671	0.178846
V36	V	-1.051202	1.127671	0.678846
O37	O	-1.406252	0.745652	0.261317
O38	O	-0.906252	1.245652	0.761317
O39	O	-1.668900	0.546633	0.122200
O40	O	-1.168900	1.046633	0.622200
O41	O	-1.442473	0.632603	-0.024672
O42	O	-0.942473	1.132603	0.475328
O43	O	-1.632752	0.639921	0.395808
O44	O	-1.132752	1.139921	0.895808
O45	O	-1.507925	0.936933	0.186625
O46	O	-1.007925	1.436933	0.686625
O47	O	-1.566442	0.337633	0.183072
O48	O	-1.066442	0.837633	0.683072
C49	C	-1.568858	1.025358	0.192830
C50	C	-1.068858	1.525358	0.692830
C51	C	-1.504750	1.266919	0.190679
C52	C	-1.004750	1.766919	0.690679
C53	C	-2.001266	0.266916	0.190684
C54	C	-1.501266	0.766916	0.690684
C55	C	-2.054800	0.025353	0.192830
C56	C	-1.554800	0.525353	0.692830
C57	C	-1.726987	0.649098	0.457836
C58	C	-1.226987	1.149098	0.957836
C59	C	-1.764597	0.646998	0.624208
C60	C	-1.264597	1.146998	1.124208
C61	C	-1.843137	0.643182	-0.074311
C62	C	-1.343137	1.143182	0.425689
C63	C	-1.795142	0.645295	-0.240682
C64	C	-1.295142	1.145295	0.259318
C65	C	-1.226987	0.649098	0.457836
C66	C	-0.726987	1.149098	0.957836
C67	C	-1.264597	0.646998	0.624208
C68	C	-0.764597	1.146998	1.124208
C69	C	-1.343137	0.643182	-0.074311
C70	C	-0.843137	1.143182	0.425689
C71	C	-1.295142	0.645295	-0.240682
C72	C	-0.795142	1.145295	0.259318
