data_functionalizedCrystal
_audit_creation_method	'MofGen! by Chris Wilmer'
_symmetry_space_group_name_H-M	'P1'
_symmetry_Int_Tables_number	1
_symmetry_cell_setting	triclinic
loop_
_symmetry_equiv_pos_as_xyz
  x,y,z
_cell_length_a	17.699077
_cell_length_b	10.654550
_cell_length_c	9.730223
_cell_angle_alpha	89.998181
_cell_angle_beta	90.000360
_cell_angle_gamma	83.882760
loop_
_atom_site_label
_atom_site_type_symbol
_atom_site_fract_x
_atom_site_fract_y
_atom_site_fract_z
O1	O	1.005084	0.158765	-0.114273
O2	O	0.784836	0.179434	-0.114280
O3	O	0.900024	-0.013729	-0.114266
O4	O	0.889896	0.351927	-0.114288
O5	O	0.900022	-0.013724	0.114314
O6	O	0.784835	0.179439	0.114300
O7	O	1.005082	0.158769	0.114307
Zn8	Zn	0.894958	0.169105	0.150595
Zn9	Zn	0.894960	0.169098	-0.150569
O10	O	0.889895	0.351932	0.114292
C11	C	0.899279	-0.060511	0.000024
C12	C	0.897055	-0.199916	0.000024
C13	C	0.756634	0.178697	0.000009
C14	C	0.672601	0.176479	0.000007
C15	C	0.893913	-0.396411	0.124599
C16	C	0.896005	-0.265426	0.124616
C17	C	0.896003	-0.265394	-0.124594
C18	C	0.893905	-0.396375	-0.124610
C19	C	0.893917	-0.396429	0.268479
C20	C	0.896010	-0.265445	0.268496
C21	C	0.633126	0.175436	0.124607
C22	C	0.554171	0.173332	0.124609
C23	C	0.514690	0.172280	0.000008
C24	C	0.554171	0.173318	-0.124602
C25	C	0.633126	0.175414	-0.124602
C26	C	0.235754	0.164867	-0.124604
C27	C	0.156793	0.162776	-0.124594
C28	C	0.156798	0.162786	0.124607
C29	C	0.235754	0.164881	0.124607
C30	C	0.275228	0.165913	-0.000002
C31	C	0.360841	0.168192	-0.000003
C32	C	0.429078	0.170009	0.000007
C33	C	1.033285	0.159506	0.000015
C34	C	1.117317	0.161724	0.000008
C35	C	0.890639	0.398715	-0.000000
C36	C	0.892864	0.538119	-0.000009
N37	N	0.894963	0.169108	0.356132
N38	N	0.894962	0.169085	-0.356105
C39	C	0.945981	0.083605	0.428064
C40	C	0.945979	0.083589	0.571947
C41	C	0.843938	0.254593	0.571953
C42	C	0.843937	0.254601	0.428072
C43	C	1.004896	-0.015119	0.428062
C44	C	1.004894	-0.015135	0.571945
H45	H	0.896850	-0.212043	-0.226040
H46	H	0.522035	0.172462	0.226071
H47	H	0.522020	0.172452	-0.226053
H48	H	0.842108	-0.212794	0.313149
O49	O	0.118566	0.161827	0.245780
C50	C	0.126913	0.161985	0.492961
C51	C	0.170300	0.163099	0.355839
H52	H	0.168723	0.162986	0.581980
H53	H	0.083496	0.248873	0.499282
H54	H	0.096398	0.073171	0.499128
H55	H	0.200860	0.251855	0.349580
H56	H	0.213673	0.076151	0.349576
O57	O	0.671353	0.176488	-0.245762
C58	C	0.663024	0.176191	-0.492944
C59	C	0.619638	0.175005	-0.355827
H60	H	0.621234	0.174966	-0.581968
H61	H	0.693497	0.265042	-0.499272
H62	H	0.706478	0.089342	-0.499095
H63	H	0.576148	0.261793	-0.349584
H64	H	0.589217	0.086097	-0.349557
H65	H	0.267884	0.165704	-0.226068
O66	O	0.959844	-0.237016	0.334180
C67	C	1.096723	-0.263248	0.340365
C68	C	1.024495	-0.295523	0.265843
H69	H	1.149011	-0.310557	0.285161
H70	H	1.098487	-0.156600	0.340337
H71	H	1.096136	-0.298767	0.450840
H72	H	1.025033	-0.260085	0.155338
H73	H	1.022758	-0.402176	0.265982
O74	O	0.794302	0.337685	0.641625
C75	C	0.693120	0.507344	0.626443
C76	C	0.749281	0.413289	0.547373
H77	H	0.656716	0.568512	0.550274
H78	H	0.654978	0.453257	0.693757
H79	H	0.726131	0.569952	0.693851
H80	H	0.716331	0.350657	0.479890
H81	H	0.787422	0.467455	0.480145
O82	O	0.983000	-0.123691	0.624963
C83	C	0.941763	-0.327597	0.577200
C84	C	0.966548	-0.204729	0.516972
H85	H	0.928439	-0.393139	0.489919
H86	H	0.989553	-0.376044	0.643076
H87	H	0.888891	-0.304522	0.643209
H88	H	1.019403	-0.227694	0.450901
H89	H	0.918713	-0.156316	0.451174
H90	H	0.947817	-0.449095	0.313119
H91	H	0.802387	0.324214	0.369506
O92	O	0.274199	0.165733	0.245557
C93	C	0.371318	0.059296	0.390222
C94	C	0.327851	0.058199	0.253181
H95	H	0.414694	-0.027650	0.396444
H96	H	0.401871	0.148067	0.396473
H97	H	0.329521	0.058246	0.479256
H98	H	0.369596	0.059202	0.164069
H99	H	0.297286	-0.030565	0.247050
O100	O	1.074337	0.009160	0.618386
C101	C	1.208812	-0.057052	0.622839
C102	C	1.130222	-0.084693	0.570122
H103	H	1.254015	-0.132929	0.583863
H104	H	1.221813	0.039214	0.583776
H105	H	1.208780	-0.057018	0.740001
H106	H	1.130197	-0.084793	0.452965
H107	H	1.117253	-0.180940	0.609290
H108	H	0.893043	-0.449675	-0.226078
H109	H	0.840479	-0.420318	0.323722
H110	H	0.124650	0.161918	-0.226065
H111	H	0.665265	0.176304	0.226072
H112	H	1.059846	0.014505	0.383436
H113	H	0.991974	-0.111425	0.389013
