data_functionalizedCrystal
_audit_creation_method	'MofGen! by Chris Wilmer'
_symmetry_space_group_name_H-M	'P1'
_symmetry_Int_Tables_number	1
_symmetry_cell_setting	triclinic
loop_
_symmetry_equiv_pos_as_xyz
  x,y,z
_cell_length_a	19.805407
_cell_length_b	17.637651
_cell_length_c	19.805399
_cell_angle_alpha	78.755479
_cell_angle_beta	89.983114
_cell_angle_gamma	101.218564
loop_
_atom_site_label
_atom_site_type_symbol
_atom_site_fract_x
_atom_site_fract_y
_atom_site_fract_z
Zn1	Zn	0.980290	-0.314769	-0.328179
Zn2	Zn	1.480290	0.185231	0.171821
Zn3	Zn	0.957347	-0.446988	-0.192081
Zn4	Zn	1.457347	0.053012	0.307919
Zn5	Zn	0.867105	-0.314794	-0.214999
Zn6	Zn	1.367105	0.185206	0.285001
Zn7	Zn	0.844213	-0.446943	-0.305236
Zn8	Zn	1.344213	0.053057	0.194764
O9	O	0.912239	-0.380874	-0.260124
O10	O	1.412239	0.119126	0.239876
O11	O	1.071961	-0.332317	-0.310136
O12	O	1.571961	0.167683	0.189864
O13	O	0.945355	-0.429482	-0.100399
O14	O	1.445355	0.070518	0.399601
O15	O	0.901301	-0.204152	-0.249206
O16	O	1.401301	0.295848	0.250794
O17	O	1.055106	-0.429458	-0.210145
O18	O	1.555106	0.070542	0.289855
O19	O	0.984457	-0.204133	-0.332359
O20	O	1.484457	0.295867	0.167641
O21	O	0.879055	-0.332359	-0.117237
O22	O	1.379055	0.167641	0.382763
O23	O	0.769353	-0.332316	-0.226959
O24	O	1.269353	0.167684	0.273041
O25	O	0.862285	-0.429381	-0.403001
O26	O	1.362285	0.070619	0.096999
O27	O	0.752535	-0.429405	-0.293255
O28	O	1.252535	0.070595	0.206745
O29	O	0.962260	-0.332273	-0.419857
O30	O	1.462260	0.167727	0.080143
O31	O	0.923158	-0.557622	-0.187898
O32	O	1.423158	-0.057622	0.312102
O33	O	0.840038	-0.557588	-0.271032
O34	O	1.340038	-0.057588	0.228968
C35	C	0.736385	-0.380859	-0.260105
C36	C	1.236385	0.119141	0.239895
C37	C	0.661151	-0.380871	-0.260109
C38	C	1.161151	0.119129	0.239891
C39	C	0.876643	-0.586292	-0.224503
C40	C	1.376643	-0.086292	0.275497
C41	C	0.861477	-0.674171	-0.209287
C42	C	1.361477	-0.174171	0.290713
C43	C	0.617054	-0.431502	-0.294546
C44	C	1.117054	0.068498	0.205454
C45	C	0.546365	-0.431503	-0.294555
C46	C	1.046365	0.068497	0.205445
C47	C	0.519775	-0.380877	-0.260123
C48	C	1.019775	0.119123	0.239877
C49	C	0.563878	-0.330241	-0.225685
C50	C	1.063878	0.169759	0.274315
C51	C	0.634566	-0.330236	-0.225680
C52	C	1.134566	0.169764	0.274320
C53	C	0.278801	-0.330259	-0.225704
C54	C	0.778801	0.169741	0.274296
C55	C	0.208107	-0.330269	-0.225710
C56	C	0.708107	0.169731	0.274290
C57	C	0.190601	-0.431525	-0.294580
C58	C	0.690601	0.068475	0.205420
C59	C	0.261289	-0.431521	-0.294575
C60	C	0.761289	0.068479	0.205425
C61	C	0.305386	-0.380882	-0.260140
C62	C	0.805386	0.119118	0.239860
C63	C	0.382035	-0.380880	-0.260131
C64	C	0.882035	0.119120	0.239869
C65	C	0.443126	-0.380883	-0.260127
C66	C	0.943126	0.119117	0.239873
C67	C	1.027894	-0.962852	-0.375932
C68	C	1.527894	-0.462852	0.124068
C69	C	1.013622	-1.045428	-0.361622
C70	C	1.513622	-0.545428	0.138378
C71	C	0.927089	-1.045554	-0.274952
C72	C	1.427089	-0.545554	0.225048
C73	C	0.941357	-0.962977	-0.289251
C74	C	1.441357	-0.462977	0.210749
C75	C	0.991760	-0.921632	-0.339743
C76	C	1.491760	-0.421632	0.160257
C77	C	0.905222	-0.921757	-0.253063
C78	C	1.405222	-0.421757	0.246937
C79	C	0.919486	-0.839187	-0.267364
C80	C	1.419486	-0.339187	0.232636
C81	C	0.969885	-0.797836	-0.317855
C82	C	1.469885	-0.297836	0.182145
C83	C	1.006024	-0.839062	-0.354044
C84	C	1.506024	-0.339062	0.145956
C85	C	0.854816	-0.963103	-0.202575
C86	C	1.354816	-0.463103	0.297425
C87	C	0.818681	-0.921883	-0.166386
C88	C	1.318681	-0.421883	0.333614
C89	C	0.832948	-0.839312	-0.180684
C90	C	1.332948	-0.339312	0.319316
C91	C	0.883347	-0.797961	-0.231174
C92	C	1.383347	-0.297961	0.268826
C93	C	0.796810	-0.798086	-0.144494
C94	C	1.296810	-0.298086	0.355506
C95	C	0.811074	-0.715516	-0.158796
C96	C	1.311074	-0.215516	0.341204
C97	C	0.897611	-0.715391	-0.245476
C98	C	1.397611	-0.215391	0.254524
C99	C	1.088779	-0.380890	-0.260143
C100	C	1.588779	0.119110	0.239857
C101	C	1.164010	-0.380896	-0.260152
C102	C	1.664010	0.119104	0.239848
C103	C	0.912278	-0.380819	-0.436676
C104	C	1.412278	0.119181	0.063324
C105	C	0.912295	-0.380796	-0.511912
C106	C	1.412295	0.119204	-0.011912
C107	C	0.947992	-0.174653	-0.295898
C108	C	1.447992	0.325347	0.204102
C109	C	0.963228	-0.086774	-0.311143
C110	C	1.463228	0.413226	0.188857
C111	C	0.877785	-0.330219	-0.556024
C112	C	1.377785	0.169781	-0.056024
C113	C	0.877797	-0.330204	-0.626715
C114	C	1.377797	0.169796	-0.126715
C115	C	0.912323	-0.380761	-0.653294
C116	C	1.412323	0.119239	-0.153294
C117	C	0.946833	-0.431343	-0.609176
C118	C	1.446833	0.068657	-0.109176
C119	C	0.946817	-0.431362	-0.538485
C120	C	1.446817	0.068638	-0.038485
C121	C	0.946900	-0.431269	-0.894262
C122	C	1.446900	0.068731	-0.394262
C123	C	0.946915	-0.431245	-0.964958
C124	C	1.446915	0.068755	-0.464958
C125	C	0.877880	-0.330111	-0.982492
C126	C	1.377880	0.169889	-0.482492
C127	C	0.877864	-0.330130	-0.911802
C128	C	1.377864	0.169870	-0.411802
C129	C	0.912371	-0.380714	-0.867689
C130	C	1.412371	0.119286	-0.367689
C131	C	0.912356	-0.380731	-0.791038
C132	C	1.412356	0.119269	-0.291038
C133	C	0.912342	-0.380741	-0.729944
C134	C	1.412342	0.119259	-0.229944
C135	C	0.912249	-0.380871	-0.084268
C136	C	1.412249	0.119129	0.415732
C137	C	0.912402	-0.380672	-0.009071
C138	C	1.412402	0.119328	0.490929
H139	H	0.638698	-0.472730	-0.322582
H140	H	1.138698	0.027270	0.177418
H141	H	0.510464	-0.472732	-0.322597
H142	H	1.010464	0.027268	0.177403
Br143	Br	1.096310	-0.906733	-0.444446
Br144	Br	1.596310	-0.406733	0.055554
H145	H	1.043042	-1.078986	-0.391105
H146	H	1.543042	-0.578986	0.108895
H147	H	0.314696	-0.289032	-0.197659
H148	H	0.814696	0.210968	0.302341
H149	H	0.282934	-0.472748	-0.322610
H150	H	0.782934	0.027252	0.177390
H151	H	1.047072	-0.805398	-0.395154
H152	H	1.547072	-0.305398	0.104846
H153	H	0.542223	-0.289018	-0.197653
H154	H	1.042223	0.210982	0.302347
Br155	Br	0.993647	-0.500010	-0.478616
Br156	Br	1.493647	-0.000010	0.021384
Br157	Br	0.993683	-0.499966	-0.645244
Br158	Br	1.493683	0.000034	-0.145244
H159	H	0.975032	-0.472418	-0.986595
H160	H	1.475032	0.027582	-0.486595
H161	H	0.849675	-0.289044	-0.534391
H162	H	1.349675	0.210956	-0.034391
H163	H	0.886050	-1.079228	-0.233843
H164	H	1.386050	-0.579228	0.266157
H165	H	0.843197	-1.030337	-0.190939
H166	H	1.343197	-0.530337	0.309061
Br167	Br	0.750273	-0.978001	-0.097872
Br168	Br	1.250273	-0.478001	0.402128
H169	H	0.670470	-0.289004	-0.197642
H170	H	1.170470	0.210996	0.302358
H171	H	0.981498	-0.730603	-0.329498
H172	H	1.481498	-0.230603	0.170502
Br173	Br	0.728396	-0.854206	-0.075986
Br174	Br	1.228396	-0.354206	0.424014
H175	H	0.154689	-0.472755	-0.322621
H176	H	0.654689	0.027245	0.177379
Br177	Br	0.993736	-0.499915	-0.834405
Br178	Br	1.493736	0.000085	-0.334405
Br179	Br	0.762034	-0.659570	-0.109682
Br180	Br	1.262034	-0.159570	0.390318
Br181	Br	0.831010	-0.261509	-0.875735
Br182	Br	1.331010	0.238491	-0.375735
Br183	Br	0.172021	-0.261559	-0.178977
Br184	Br	0.672021	0.238441	0.321023
Br185	Br	0.966027	-0.659273	-0.313990
Br186	Br	1.466027	-0.159273	0.186010
Br187	Br	0.830917	-0.261604	-0.686572
Br188	Br	1.330917	0.238396	-0.186572
Br189	Br	0.831047	-0.261460	-1.042362
Br190	Br	1.331047	0.238540	-0.542362
