data_functionalizedCrystal
_audit_creation_method	'MofGen! by Chris Wilmer'
_symmetry_space_group_name_H-M	'P1'
_symmetry_Int_Tables_number	1
_symmetry_cell_setting	triclinic
loop_
_symmetry_equiv_pos_as_xyz
  x,y,z
_cell_length_a	15.297475
_cell_length_b	16.959454
_cell_length_c	15.298159
_cell_angle_alpha	80.333365
_cell_angle_beta	88.367350
_cell_angle_gamma	80.323279
loop_
_atom_site_label
_atom_site_type_symbol
_atom_site_fract_x
_atom_site_fract_y
_atom_site_fract_z
Zn1	Zn	1.253258	-0.615370	0.726606
Zn2	Zn	1.753258	-0.115370	1.226606
Zn3	Zn	1.278558	-0.729150	0.580134
Zn4	Zn	1.778558	-0.229150	1.080134
Zn5	Zn	1.132173	-0.570920	0.554851
Zn6	Zn	1.632173	-0.070920	1.054851
Zn7	Zn	1.106757	-0.721412	0.701257
Zn8	Zn	1.606757	-0.221412	1.201257
O9	O	1.192687	-0.659213	0.640712
O10	O	1.692687	-0.159213	1.140712
O11	O	1.379188	-0.652304	0.728366
O12	O	1.879188	-0.152304	1.228366
O13	O	1.280364	-0.692797	0.454210
O14	O	1.780364	-0.192797	0.954210
O15	O	1.148285	-0.466217	0.577662
O16	O	1.648285	0.033783	1.077662
O17	O	1.397776	-0.735898	0.620754
O18	O	1.897776	-0.235898	1.120754
O19	O	1.237245	-0.498874	0.703850
O20	O	1.737245	0.001126	1.203850
O21	O	1.172816	-0.576545	0.435634
O22	O	1.672816	-0.076545	0.935634
O23	O	1.006228	-0.569042	0.553082
O24	O	1.506228	-0.069042	1.053082
O25	O	1.104966	-0.722709	0.827191
O26	O	1.604966	-0.222709	1.327191
O27	O	0.987554	-0.679608	0.660647
O28	O	1.487554	-0.179608	1.160647
O29	O	1.212600	-0.644800	0.845814
O30	O	1.712600	-0.144800	1.345814
O31	O	1.255719	-0.838723	0.596174
O32	O	1.755719	-0.338723	1.096174
O33	O	1.129497	-0.833038	0.685163
O34	O	1.629497	-0.333038	1.185163
C35	C	0.965109	-0.618662	0.601371
C36	C	1.465109	-0.118662	1.101371
C37	C	0.867746	-0.601336	0.584561
C38	C	1.367746	-0.101336	1.084561
C39	C	0.554567	-0.783051	0.760855
C40	C	1.054567	-0.283051	1.260855
C41	C	0.646044	-0.799335	0.776646
C42	C	1.146044	-0.299335	1.276646
C43	C	0.701474	-0.749837	0.728627
C44	C	1.201474	-0.249837	1.228627
C45	C	0.665418	-0.684051	0.664813
C46	C	1.165418	-0.184051	1.164813
C47	C	0.573933	-0.667769	0.649015
C48	C	1.073933	-0.167769	1.149015
C49	C	0.720840	-0.634555	0.616787
C50	C	1.220840	-0.134555	1.116787
C51	C	0.684784	-0.568770	0.552973
C52	C	1.184784	-0.068770	1.052973
C53	C	0.593307	-0.552491	0.537179
C54	C	1.093307	-0.052491	1.037179
C55	C	0.537877	-0.601989	0.585198
C56	C	1.037877	-0.101989	1.085198
C57	C	0.812325	-0.650837	0.632584
C58	C	1.312325	-0.150837	1.132584
C59	C	0.831691	-0.535556	0.520744
C60	C	1.331691	-0.035556	1.020744
C61	C	0.740214	-0.519272	0.504953
C62	C	1.240214	-0.019272	1.004953
C63	C	1.192616	-0.864564	0.640685
C64	C	1.692616	-0.364564	1.140685
C65	C	1.192661	-0.952432	0.640716
C66	C	1.692661	-0.452432	1.140716
C67	C	1.127045	-1.320995	0.687057
C68	C	1.627045	-0.820995	1.187057
C69	C	1.258556	-1.326883	0.594499
C70	C	1.758556	-0.826883	1.094499
C71	C	1.258527	-1.244330	0.594486
C72	C	1.758527	-0.744330	1.094486
C73	C	1.192755	-1.200106	0.640757
C74	C	1.692755	-0.700106	1.140757
C75	C	1.127013	-1.238434	0.687043
C76	C	1.627013	-0.738434	1.187043
C77	C	1.324263	-1.205994	0.548194
C78	C	1.824263	-0.705994	1.048194
C79	C	1.324236	-1.123437	0.548178
C80	C	1.824236	-0.623437	1.048178
C81	C	1.258467	-1.079212	0.594456
C82	C	1.758467	-0.579212	1.094456
C83	C	1.192722	-1.117545	0.640743
C84	C	1.692722	-0.617545	1.140743
C85	C	1.126951	-1.073321	0.687015
C86	C	1.626951	-0.573321	1.187015
C87	C	1.061209	-1.111654	0.733309
C88	C	1.561209	-0.611654	1.233309
C89	C	1.061243	-1.194209	0.733320
C90	C	1.561243	-0.694209	1.233320
C91	C	1.258432	-0.996657	0.594444
C92	C	1.758432	-0.496657	1.094444
C93	C	1.126918	-0.990760	0.687001
C94	C	1.626918	-0.490760	1.187001
C95	C	1.421153	-0.699922	0.680208
C96	C	1.921153	-0.199922	1.180208
C97	C	1.518512	-0.717270	0.697038
C98	C	2.018512	-0.217270	1.197038
C99	C	1.153125	-0.687850	0.869172
C100	C	1.653125	-0.187850	1.369172
C101	C	1.136267	-0.700053	0.966528
C102	C	1.636267	-0.200053	1.466528
C103	C	1.192778	-0.453066	0.640763
C104	C	1.692778	0.046934	1.140763
C105	C	1.192817	-0.365219	0.640785
C106	C	1.692817	0.134781	1.140785
C107	C	1.072303	-0.746348	1.002567
C108	C	1.572303	-0.246348	1.502567
C109	C	1.056465	-0.757818	1.094038
C110	C	1.556465	-0.257818	1.594038
C111	C	1.104584	-0.722990	1.149478
C112	C	1.604584	-0.222990	1.649478
C113	C	1.168544	-0.676689	1.113440
C114	C	1.668544	-0.176689	1.613440
C115	C	1.184389	-0.665223	1.021960
C116	C	1.684389	-0.165223	1.521960
C117	C	1.216669	-0.641865	1.168872
C118	C	1.716669	-0.141865	1.668872
C119	C	1.280629	-0.595564	1.132833
C120	C	1.780629	-0.095564	1.632833
C121	C	1.296471	-0.584100	1.041363
C122	C	1.796471	-0.084100	1.541363
C123	C	1.248352	-0.618928	0.985922
C124	C	1.748352	-0.118928	1.485922
C125	C	1.200824	-0.653331	1.260351
C126	C	1.700824	-0.153331	1.760351
C127	C	1.312910	-0.572206	1.279745
C128	C	1.812910	-0.072206	1.779745
C129	C	1.328748	-0.560736	1.188274
C130	C	1.828748	-0.060736	1.688274
C131	C	1.232087	-0.630704	1.413140
C132	C	1.732087	-0.130704	1.913140
C133	C	1.248946	-0.618501	1.315784
C134	C	1.748946	-0.118501	1.815784
H135	H	0.775958	-0.763099	0.741488
H136	H	1.275958	-0.263099	1.241488
H137	H	1.091684	-0.732332	1.223958
H138	H	1.591684	-0.232332	1.723958
H139	H	0.675394	-0.852899	0.828601
H140	H	1.175394	-0.352899	1.328601
Cl141	Cl	0.484885	-0.845283	0.821195
Cl142	Cl	0.984885	-0.345283	1.321195
H143	H	0.463388	-0.588732	0.572346
H144	H	0.963388	-0.088732	1.072346
H145	H	1.004390	-0.795517	1.123374
H146	H	1.504390	-0.295517	1.623374
H147	H	1.348559	-0.546407	1.012025
H148	H	1.848559	-0.046407	1.512025
H149	H	0.876823	-0.495251	0.481641
H150	H	1.376823	0.004749	0.981641
H151	H	0.563955	-0.498931	0.485208
H152	H	1.063955	0.001069	0.985208
Cl153	Cl	1.406947	-1.261595	0.490034
Cl154	Cl	1.906947	-0.761595	0.990034
H155	H	1.380825	-0.523038	1.158918
H156	H	1.880825	-0.023038	1.658918
H157	H	1.261239	-0.609586	0.911437
H158	H	1.761239	-0.109586	1.411437
H159	H	0.710844	-0.465709	0.452995
H160	H	1.210844	0.034291	0.952995
H161	H	1.148747	-0.691030	1.289685
H162	H	1.648747	-0.191030	1.789685
H163	H	1.007653	-1.075636	0.770979
H164	H	1.507653	-0.575636	1.270979
Cl165	Cl	0.857641	-0.733535	0.712805
Cl166	Cl	1.357641	-0.233535	1.212805
Cl167	Cl	1.044232	-0.935172	0.745181
Cl168	Cl	1.544232	-0.435172	1.245181
Cl169	Cl	0.978603	-1.242404	0.791509
Cl170	Cl	1.478603	-0.742404	1.291509
H171	H	1.312100	-1.362893	0.556821
H172	H	1.812100	-0.862893	1.056821
Cl173	Cl	1.406888	-1.075256	0.489991
Cl174	Cl	1.906888	-0.575256	0.989991
H175	H	1.352093	-0.543847	1.324886
H176	H	1.852093	-0.043847	1.824886
Cl177	Cl	1.341064	-0.948467	0.536241
Cl178	Cl	1.841064	-0.448467	1.036241
Cl179	Cl	1.044406	-1.369183	0.745256
Cl180	Cl	1.544406	-0.869183	1.245256
Cl181	Cl	1.011824	-0.790130	0.932868
Cl182	Cl	1.511824	-0.290130	1.432868
