data_functionalizedCrystal
_audit_creation_method	'MofGen! by Chris Wilmer'
_symmetry_space_group_name_H-M	'P1'
_symmetry_Int_Tables_number	1
_symmetry_cell_setting	triclinic
loop_
_symmetry_equiv_pos_as_xyz
  x,y,z
_cell_length_a	6.394989
_cell_length_b	16.992694
_cell_length_c	15.455313
_cell_angle_alpha	87.142206
_cell_angle_beta	92.745973
_cell_angle_gamma	88.582967
loop_
_atom_site_label
_atom_site_type_symbol
_atom_site_fract_x
_atom_site_fract_y
_atom_site_fract_z
O1	O	0.435072	1.048122	-0.072012
O2	O	0.430202	0.819790	-0.072038
O3	O	0.129113	0.937197	-0.072025
O4	O	0.736160	0.930715	-0.072024
O5	O	0.146255	0.930482	0.072236
O6	O	0.447344	0.813075	0.072224
O7	O	0.452214	1.041407	0.072249
Cu8	Cu	0.451344	0.926628	0.085409
Cu9	Cu	0.431071	0.934569	-0.085197
O10	O	0.753302	0.924000	0.072237
C11	C	0.432511	0.787158	0.000090
C12	C	0.413829	0.699930	0.000079
C13	C	0.594077	0.651470	0.000080
C14	C	0.576513	0.569510	0.000092
C15	C	0.378698	0.536010	0.000097
C16	C	0.198437	0.584476	0.000099
C17	C	0.216003	0.666434	0.000093
C18	C	0.305891	0.291692	0.000120
C19	C	0.288338	0.209727	0.000123
C20	C	0.666416	0.194766	0.000119
C21	C	0.683964	0.276728	0.000108
C22	C	0.503704	0.325186	0.000114
N23	N	0.360740	0.452233	0.000107
N24	N	0.521664	0.408961	0.000111
C25	C	0.822766	0.928639	0.000103
C26	C	1.059654	0.932556	0.000100
C27	C	0.449904	1.074039	0.000120
C28	C	0.468586	1.161267	0.000124
N29	N	0.465602	0.921049	0.205404
N30	N	0.416798	0.940154	-0.205192
C31	C	0.337742	0.970946	0.250803
C32	C	0.348545	0.966733	0.341610
C33	C	0.487221	0.912628	0.387017
C34	C	0.615085	0.862725	0.341611
C35	C	0.604270	0.866934	0.250805
C36	C	0.533847	0.894461	0.658596
C37	C	0.544658	0.890257	0.749409
C38	C	0.278114	0.994265	0.749402
C39	C	0.267319	0.998472	0.658594
C40	C	0.395176	0.948567	0.613196
N41	N	0.498271	0.908323	0.479837
N42	N	0.384114	0.952869	0.520378
H43	H	0.813173	0.155303	0.000115
O44	O	0.751654	0.522480	-0.000064
C45	C	1.060596	0.488121	-0.074783
C46	C	0.862284	0.541418	-0.074725
H47	H	1.150119	0.503425	-0.135131
H48	H	1.014197	0.423775	-0.074829
H49	H	1.164366	0.497743	-0.014387
H50	H	0.758424	0.531865	-0.135111
H51	H	0.908833	0.605745	-0.074634
O52	O	0.096201	0.177151	-0.000020
C53	C	-0.151868	0.096721	-0.074719
C54	C	0.065738	0.133584	-0.074673
H55	H	-0.176549	0.061475	-0.135060
H56	H	-0.277795	0.145401	-0.074769
H57	H	-0.162300	0.055952	-0.014317
H58	H	0.076374	0.174346	-0.135065
H59	H	0.191562	0.084864	-0.074578
H60	H	0.154399	1.042529	0.621626
O61	O	0.679401	0.837618	0.793383
C62	C	0.942675	0.734915	0.783813
C63	C	0.790155	0.794476	0.733904
H64	H	1.032291	0.700030	0.735746
H65	H	0.850862	0.692777	0.826311
H66	H	1.057895	0.767888	0.826342
H67	H	0.674901	0.761569	0.691328
H68	H	0.882104	0.836612	0.691461
H69	H	0.159109	0.331137	0.000126
H70	H	0.727990	0.818667	0.378586
H71	H	0.755159	0.678739	0.000076
O72	O	0.224127	1.015097	0.385745
C73	C	-0.046516	1.024265	0.488306
C74	C	0.094236	0.969399	0.438366
H75	H	-0.151537	0.987340	0.530876
H76	H	-0.147618	1.063646	0.440289
H77	H	0.055531	1.062434	0.530772
H78	H	-0.007650	0.931181	0.395900
H79	H	0.195351	0.930071	0.486431
O80	O	0.040988	0.713536	0.000242
C81	C	-0.149656	0.811320	0.074950
C82	C	0.048628	0.758008	0.074895
H83	H	-0.143525	0.847302	0.135290
H84	H	-0.294126	0.773336	0.075008
H85	H	-0.158044	0.852833	0.014547
H86	H	0.057218	0.716487	0.135287
H87	H	0.193003	0.796041	0.074791
H88	H	0.037373	0.557193	0.000115
H89	H	0.224828	1.015007	0.213839
H90	H	0.637958	0.853827	0.621641
H91	H	0.174016	1.034894	0.786373
H92	H	0.845045	0.303997	0.000094
H93	H	0.708384	0.826302	0.213842
