data_functionalizedCrystal
_audit_creation_method	'MofGen! by Chris Wilmer'
_symmetry_space_group_name_H-M	'P1'
_symmetry_Int_Tables_number	1
_symmetry_cell_setting	triclinic
loop_
_symmetry_equiv_pos_as_xyz
  x,y,z
_cell_length_a	16.704494
_cell_length_b	14.560438
_cell_length_c	14.560438
_cell_angle_alpha	60.005799
_cell_angle_beta	90.000000
_cell_angle_gamma	56.631439
loop_
_atom_site_label
_atom_site_type_symbol
_atom_site_fract_x
_atom_site_fract_y
_atom_site_fract_z
Zr1	Zr	0.815232	0.909177	-0.072372
O2	O	0.680122	1.116678	-0.226949
O3	O	0.856646	0.712714	-0.025006
O4	O	0.856652	0.904301	-0.216582
O5	O	0.680115	0.925088	0.115768
O6	O	0.995908	0.887900	-0.208382
O7	O	0.680115	0.925090	-0.035373
O8	O	0.995896	0.545185	0.134313
O9	O	0.680127	1.267802	-0.226927
O10	O	0.978239	0.777194	0.001339
O11	O	0.874314	0.789433	0.108014
O12	O	0.874322	1.015002	-0.117542
O13	O	0.770397	1.027240	-0.010867
Zr14	Zr	1.037329	0.883015	0.181758
Zr15	Zr	1.037329	0.883019	-0.059294
Zr16	Zr	0.815232	0.909173	0.168680
Zr17	Zr	0.815241	1.150204	-0.072336
Zr18	Zr	1.037321	0.641988	0.181723
O19	O	0.995916	1.079478	0.134392
O20	O	0.995915	1.079484	-0.208353
O21	O	0.680122	1.116672	0.115796
O22	O	1.172440	0.675515	0.336335
O23	O	1.172439	0.675521	-0.006410
O24	O	0.856646	0.712708	0.317739
O25	O	1.172446	0.867105	-0.006381
O26	O	0.995909	0.887891	0.325968
O27	O	0.856653	0.904292	0.317768
O28	O	1.172446	0.867102	0.144759
O29	O	0.856665	1.247010	-0.216531
O30	O	0.995896	0.545182	0.325917
O31	O	1.172434	0.524390	0.336313
O32	O	1.172434	0.524393	0.144708
O33	O	0.680127	1.267799	-0.035322
O34	O	0.856665	1.247007	-0.024927
O35	O	0.978239	0.777191	0.226928
O36	O	1.082164	0.764952	0.120253
O37	O	0.978247	1.002760	0.001372
O38	O	0.874322	1.014998	0.108047
C39	C	0.926270	0.594609	0.054648
C40	C	0.926266	0.492287	0.054633
C41	C	0.849555	0.536449	-0.033106
C42	C	0.849571	0.440258	-0.033049
C43	C	1.003014	0.255742	0.142497
C44	C	1.003001	0.351932	0.142434
C45	C	0.760963	0.642978	-0.134453
C46	C	0.760979	0.546787	-0.134396
C47	C	0.648471	0.928816	0.038334
C48	C	0.554185	0.939921	0.032782
C49	C	0.485509	0.712495	0.146487
C50	C	0.396921	0.722922	0.141274
C51	C	0.288422	0.971202	0.017148
C52	C	0.377009	0.960775	0.022361
C53	C	0.475551	0.831416	0.087032
C54	C	0.564140	0.820990	0.092239
C55	C	0.455639	1.069269	-0.031880
C56	C	0.367052	1.079696	-0.037094
C57	C	1.204091	0.863376	0.071052
C58	C	1.298377	0.852272	0.076605
C59	C	0.926280	0.896101	-0.246826
C60	C	0.926280	0.896103	-0.349159
C61	C	0.926292	1.197584	0.054738
C62	C	0.926296	1.299906	0.054753
C63	C	0.872032	1.020234	-0.459291
C64	C	0.872036	1.020228	-0.555439
C65	C	0.980536	0.771948	-0.431312
C66	C	0.980538	0.771955	-0.335165
C67	C	0.809387	1.163578	-0.530956
C68	C	0.809390	1.163571	-0.627104
C69	C	0.926281	0.896091	0.356213
C70	C	0.926281	0.896089	0.458546
C71	C	1.204079	0.561889	0.071008
C72	C	1.298362	0.448462	0.076545
C73	C	0.926270	0.594604	0.356168
C74	C	0.926266	0.492280	0.458485
C75	C	1.204080	0.561884	0.372527
C76	C	1.298362	0.448455	0.480397
C77	C	0.648482	1.230309	-0.263141
C78	C	0.554199	1.343737	-0.371011
C79	C	0.648482	1.230304	0.038379
C80	C	0.554200	1.343730	0.032842
C81	C	0.926291	1.197589	-0.246782
C82	C	0.926295	1.299913	-0.349099
C83	C	1.288390	0.401586	0.017062
C84	C	1.376970	0.295023	0.022242
C85	C	1.475520	0.235333	0.086911
C86	C	1.485490	0.282219	0.146395
C87	C	1.396911	0.388786	0.141208
C88	C	1.396895	0.388798	0.475371
C89	C	1.485492	0.282233	0.576718
C90	C	1.475554	0.235319	0.683089
C91	C	1.377010	0.294986	0.688112
C92	C	1.288415	0.401556	0.586767
C93	C	0.455666	1.403406	-0.365985
C94	C	0.367069	1.510001	-0.467332
C95	C	0.377008	1.556920	-0.573703
C96	C	0.475551	1.497247	-0.578726
C97	C	0.564146	1.390660	-0.477380
C98	C	0.564172	1.390617	0.092314
C99	C	0.475592	1.497206	0.087108
C100	C	0.377041	1.556900	0.022435
C101	C	0.367071	1.510009	-0.037044
C102	C	0.455650	1.403429	-0.031844
C103	C	0.980514	0.437812	0.568627
C104	C	0.980502	0.341674	0.664761
C105	C	0.871994	0.354476	0.540598
C106	C	0.872000	0.450619	0.444466
C107	C	1.043164	0.430417	0.640312
C108	C	1.043153	0.334279	0.736446
H109	H	1.065489	0.141457	0.213982
H110	H	1.126098	0.234493	0.793516
Br111	Br	0.410439	0.561522	0.221973
Br112	Br	1.154695	0.482501	0.593608
Br113	Br	0.878261	1.225798	-0.707935
Br114	Br	1.154653	0.482575	-0.070715
Br115	Br	1.595801	0.090684	0.820621
Br116	Br	1.107125	0.291989	0.261501
H117	H	0.447516	1.365258	-0.080271
H118	H	1.123368	0.384840	0.636301
H119	H	0.844231	1.211685	-0.528919
Br120	Br	0.773670	0.746454	-0.270593
H121	H	1.368933	0.256773	0.774733
Br122	Br	0.643535	0.756271	-0.113369
Br123	Br	0.233315	1.591034	-0.124805
Br124	Br	1.619216	0.201275	0.569874
Br125	Br	0.442125	1.230673	-0.112613
H126	H	0.447554	1.365212	-0.279382
H127	H	1.405007	0.426979	0.388768
Br128	Br	0.489022	1.560936	-0.723097
H129	H	0.483730	1.535365	0.135548
Br130	Br	0.798352	0.524565	0.294986
Br131	Br	0.671144	1.266851	-0.722236
Br132	Br	0.798346	0.297934	0.521582
H133	H	0.776457	0.544932	-0.209942
Br134	Br	0.634887	0.579651	-0.127974
Br135	Br	1.363415	0.231413	-0.058490
H136	H	1.001826	0.375273	0.784941
H137	H	1.547638	0.148559	0.091126
H138	H	0.565745	0.607166	0.199152
Br139	Br	0.697875	0.645436	0.179998
H140	H	0.208177	1.076519	-0.035488
H141	H	0.286809	1.185015	-0.089743
Br142	Br	1.054158	0.603486	-0.185700
Br143	Br	0.697866	1.309687	-0.484222
Br144	Br	1.619246	0.201191	0.234158
Br145	Br	1.054169	0.603470	-0.412329
Br146	Br	0.675734	1.249514	-0.524196
H147	H	0.286840	1.558571	-0.463219
H148	H	1.405045	0.426938	0.189652
H149	H	0.304860	1.643711	-0.656216
H150	H	0.644409	1.342021	0.144984
H151	H	0.304923	1.643683	0.018211
H152	H	1.008325	0.524524	0.638292
