data_functionalizedCrystal
_audit_creation_method	'MofGen! by Chris Wilmer'
_symmetry_space_group_name_H-M	'P1'
_symmetry_Int_Tables_number	1
_symmetry_cell_setting	triclinic
loop_
_symmetry_equiv_pos_as_xyz
  x,y,z
_cell_length_a	16.625547
_cell_length_b	16.625545
_cell_length_c	19.077579
_cell_angle_alpha	87.676268
_cell_angle_beta	87.682431
_cell_angle_gamma	90.025495
loop_
_atom_site_label
_atom_site_type_symbol
_atom_site_fract_x
_atom_site_fract_y
_atom_site_fract_z
Zn1	Zn	1.250944	-0.302698	-0.398045
Zn2	Zn	1.750944	0.197302	0.101955
Zn3	Zn	1.245435	-0.442953	-0.280350
Zn4	Zn	1.745435	0.057047	0.219650
Zn5	Zn	1.110701	-0.308138	-0.280352
Zn6	Zn	1.610701	0.191862	0.219648
Zn7	Zn	1.116067	-0.437494	-0.398000
Zn8	Zn	1.616067	0.062506	0.102000
O9	O	1.180786	-0.372821	-0.339187
O10	O	1.680786	0.127179	0.160813
O11	O	1.363046	-0.321311	-0.382451
O12	O	1.863046	0.178689	0.117549
O13	O	1.223010	-0.429631	-0.181858
O14	O	1.723010	0.070369	0.318142
O15	O	1.129364	-0.194583	-0.295985
O16	O	1.629364	0.305417	0.204015
O17	O	1.358999	-0.424356	-0.295981
O18	O	1.858999	0.075644	0.204019
O19	O	1.232400	-0.190586	-0.382453
O20	O	1.732400	0.309414	0.117547
O21	O	1.124022	-0.330583	-0.181860
O22	O	1.624022	0.169417	0.318140
O23	O	0.998579	-0.325289	-0.295940
O24	O	1.498579	0.174711	0.204060
O25	O	1.138510	-0.415052	-0.496497
O26	O	1.638510	0.084948	0.003503
O27	O	1.002522	-0.420327	-0.382375
O28	O	1.502522	0.079673	0.117625
O29	O	1.237604	-0.316018	-0.496531
O30	O	1.737604	0.183982	0.003469
O31	O	1.228214	-0.555062	-0.295936
O32	O	1.728214	-0.055062	0.204064
O33	O	1.133168	-0.551052	-0.382373
O34	O	1.633168	-0.051052	0.117627
C35	C	0.971294	-0.372807	-0.339154
C36	C	1.471294	0.127193	0.160846
C37	C	0.881673	-0.372819	-0.339156
C38	C	1.381673	0.127181	0.160844
C39	C	0.808891	-0.372820	-0.339165
C40	C	1.308891	0.127180	0.160835
C41	C	0.717583	-0.372824	-0.339182
C42	C	1.217583	0.127176	0.160818
C43	C	0.644808	-0.372830	-0.339200
C44	C	1.144808	0.127170	0.160800
C45	C	0.553494	-0.372835	-0.339217
C46	C	1.053494	0.127165	0.160783
C47	C	1.180698	-0.582313	-0.339165
C48	C	1.680698	-0.082313	0.160835
C49	C	1.180735	-0.671933	-0.339179
C50	C	1.680735	-0.171933	0.160821
C51	C	1.180767	-0.744715	-0.339193
C52	C	1.680767	-0.244715	0.160807
C53	C	1.180814	-0.836022	-0.339208
C54	C	1.680814	-0.336022	0.160792
C55	C	1.180857	-0.908799	-0.339217
C56	C	1.680857	-0.408799	0.160783
C57	C	1.180903	-1.000112	-0.339232
C58	C	1.680903	-0.500112	0.160768
C59	C	1.391097	-0.372835	-0.339221
C60	C	1.891097	0.127165	0.160779
C61	C	1.480719	-0.372842	-0.339235
C62	C	1.980719	0.127158	0.160765
C63	C	1.189270	-0.364319	-0.522766
C64	C	1.689270	0.135681	-0.022766
C65	C	1.192885	-0.360696	-0.600997
C66	C	1.692885	0.139304	-0.100997
C67	C	1.180898	-0.162510	-0.339225
C68	C	1.680898	0.337490	0.160775
C69	C	1.180946	-0.072888	-0.339241
C70	C	1.680946	0.427112	0.160759
C71	C	1.218815	-0.334770	-1.041354
C72	C	1.718815	0.165230	-0.541354
C73	C	1.215413	-0.338178	-0.967848
C74	C	1.715413	0.161822	-0.467848
C75	C	1.162115	-0.391439	-0.931081
C76	C	1.662115	0.108561	-0.431081
C77	C	1.112222	-0.441302	-0.967824
C78	C	1.612222	0.058698	-0.467824
C79	C	1.115628	-0.437897	-1.041328
C80	C	1.615628	0.062103	-0.541328
C81	C	1.146398	-0.407154	-0.711244
C82	C	1.646398	0.092846	-0.211244
C83	C	1.142994	-0.410553	-0.637734
C84	C	1.642994	0.089447	-0.137734
C85	C	1.246186	-0.307430	-0.637764
C86	C	1.746186	0.192570	-0.137764
C87	C	1.249585	-0.304027	-0.711270
C88	C	1.749585	0.195973	-0.211270
C89	C	1.199695	-0.353892	-0.748006
C90	C	1.699695	0.146108	-0.248006
N91	N	1.158635	-0.394922	-0.855946
N92	N	1.658635	0.105078	-0.355946
N93	N	1.203179	-0.350412	-0.823140
N94	N	1.703179	0.149588	-0.323140
C95	C	1.172382	-0.381231	-0.156322
C96	C	1.672382	0.118769	0.343678
C97	C	1.168923	-0.384627	-0.078092
C98	C	1.668923	0.115373	0.421908
H99	H	1.262210	-0.291394	-1.071284
H100	H	1.762210	0.208606	-0.571284
C101	C	1.301068	-0.252591	-0.597353
C102	C	1.801068	0.247409	-0.097353
H103	H	1.291413	-0.262249	-0.548310
H104	H	1.791413	0.237751	-0.048310
H105	H	1.289862	-0.197855	-0.609408
H106	H	1.789862	0.302145	-0.109408
H107	H	1.355796	-0.263850	-0.609402
H108	H	1.855796	0.236150	-0.109402
C109	C	1.091528	-0.462006	-0.751648
C110	C	1.591528	0.037994	-0.251648
H111	H	1.101195	-0.452364	-0.800691
H112	H	1.601195	0.047636	-0.300691
H113	H	1.036799	-0.450766	-0.739605
H114	H	1.536799	0.049234	-0.239605
H115	H	1.102753	-0.516740	-0.739585
H116	H	1.602753	-0.016740	-0.239585
H117	H	1.068829	-0.484672	-0.937882
H118	H	1.568829	0.015328	-0.437882
H119	H	1.099573	-0.453909	-0.607801
H120	H	1.599573	0.046091	-0.107801
H121	H	1.256042	-0.297582	-0.937940
H122	H	1.756042	0.202418	-0.437940
C123	C	1.060750	-0.492738	-1.081743
C124	C	1.560750	0.007262	-0.581743
H125	H	1.070418	-0.483090	-1.130785
H126	H	1.570418	0.016910	-0.630785
H127	H	1.006022	-0.481494	-1.069698
H128	H	1.506022	0.018506	-0.569698
H129	H	1.071970	-0.547475	-1.069686
H130	H	1.571970	-0.047475	-0.569686
C131	C	1.308216	-0.245443	-0.751708
C132	C	1.808216	0.254557	-0.251708
H133	H	1.337448	-0.216242	-0.719301
H134	H	1.837448	0.283758	-0.219301
H135	H	1.278723	-0.208980	-0.780388
H136	H	1.778723	0.291020	-0.280388
H137	H	1.344661	-0.274971	-0.780378
H138	H	1.844661	0.225029	-0.280378
