data_functionalizedCrystal
_audit_creation_method	'MofGen! by Chris Wilmer'
_symmetry_space_group_name_H-M	'P1'
_symmetry_Int_Tables_number	1
_symmetry_cell_setting	triclinic
loop_
_symmetry_equiv_pos_as_xyz
  x,y,z
_cell_length_a	25.639239
_cell_length_b	25.639243
_cell_length_c	19.076919
_cell_angle_alpha	92.278295
_cell_angle_beta	92.268407
_cell_angle_gamma	90.041410
loop_
_atom_site_label
_atom_site_type_symbol
_atom_site_fract_x
_atom_site_fract_y
_atom_site_fract_z
Zn1	Zn	-0.220002	0.787362	-0.397986
Zn2	Zn	-0.303924	0.790794	-0.280288
Zn3	Zn	-0.216509	0.703446	-0.280300
Zn4	Zn	-0.307411	0.699885	-0.397937
O5	O	-0.261962	0.745372	-0.339128
O6	O	-0.231137	0.860982	-0.382388
O7	O	-0.289406	0.782134	-0.181801
O8	O	-0.143808	0.714632	-0.295937
O9	O	-0.292794	0.863504	-0.295916
O10	O	-0.146375	0.776285	-0.382401
O11	O	-0.225183	0.717960	-0.181810
O12	O	-0.228565	0.629809	-0.295890
O13	O	-0.298738	0.708563	-0.496432
O14	O	-0.295350	0.627193	-0.382317
O15	O	-0.234519	0.772832	-0.496468
O16	O	-0.377551	0.778681	-0.295869
O17	O	-0.380113	0.711890	-0.382305
C18	C	-0.261957	0.609530	-0.339100
C19	C	-0.261968	0.551416	-0.339105
C20	C	-0.229912	0.189732	-0.384229
C21	C	-0.229911	0.135127	-0.384234
O22	O	-0.202645	0.105768	-0.422565
N23	N	-0.261961	0.109132	-0.339147
C24	C	-0.294008	0.137745	-0.294049
O25	O	-0.321268	0.110620	-0.255699
C26	C	-0.294006	0.192349	-0.294041
C27	C	-0.261958	0.218340	-0.339135
C28	C	-0.197867	0.215724	-0.429319
C29	C	-0.197868	0.270324	-0.429316
C30	C	-0.229914	0.298933	-0.384222
C31	C	-0.261959	0.272941	-0.339132
C32	C	-0.326050	0.220960	-0.248940
C33	C	-0.326044	0.275567	-0.248936
C34	C	-0.293997	0.301559	-0.294030
C35	C	-0.294007	0.356150	-0.294035
N36	N	-0.261958	0.382145	-0.339121
C37	C	-0.229911	0.353537	-0.384215
C38	C	-0.294011	0.023074	-0.294067
C39	C	-0.294017	-0.031529	-0.294077
C40	C	-0.229919	-0.034143	-0.384261
C41	C	-0.229917	0.020461	-0.384254
C42	C	-0.261962	0.049069	-0.339153
C43	C	-0.229916	0.468202	-0.384204
C44	C	-0.229922	0.522807	-0.384198
C45	C	-0.294018	0.525417	-0.294012
C46	C	-0.294014	0.470816	-0.294020
C47	C	-0.261960	0.442210	-0.339118
O48	O	-0.321258	0.385544	-0.255720
O49	O	-0.202651	0.380668	-0.422551
C50	C	-0.397803	0.745285	-0.339096
C51	C	-0.455918	0.745295	-0.339105
C52	C	-0.814937	0.780235	-0.294197
C53	C	-0.869541	0.780255	-0.294207
O54	O	-0.896635	0.809872	-0.255988
N55	N	-0.898202	0.745463	-0.339175
C56	C	-0.872256	0.710652	-0.384141
O57	O	-0.901648	0.681060	-0.422391
C58	C	-0.817652	0.710635	-0.384135
C59	C	-0.788994	0.745426	-0.339159
C60	C	-0.786279	0.815023	-0.249225
C61	C	-0.731678	0.815002	-0.249215
C62	C	-0.705735	0.780193	-0.294177
C63	C	-0.734393	0.745405	-0.339149
C64	C	-0.791707	0.675827	-0.429104
C65	C	-0.737099	0.675813	-0.429095
C66	C	-0.708441	0.710604	-0.384118
C67	C	-0.653849	0.710575	-0.384100
N68	N	-0.625189	0.745367	-0.339132
C69	C	-0.651132	0.780176	-0.294170
C70	C	-0.986926	0.710691	-0.384152
C71	C	-1.041529	0.710705	-0.384155
C72	C	-1.038811	0.780309	-0.294221
C73	C	-0.984208	0.780292	-0.294215
C74	C	-0.958266	0.745483	-0.339184
C75	C	-0.536466	0.780130	-0.294152
C76	C	-0.481860	0.780104	-0.294144
C77	C	-0.484583	0.710503	-0.384080
C78	C	-0.539184	0.710526	-0.384086
C79	C	-0.565124	0.745344	-0.339120
O80	O	-0.626721	0.680974	-0.422301
O81	O	-0.621733	0.809767	-0.255933
C82	C	-0.125590	0.745473	-0.339176
C83	C	-0.067477	0.745516	-0.339196
C84	C	-0.267407	0.739917	-0.522701
C85	C	-0.269728	0.737593	-0.600930
C86	C	-0.261966	0.881744	-0.339156
C87	C	-0.261968	0.939858	-0.339168
C88	C	-0.237384	0.769960	-0.637701
C89	C	-0.239563	0.767770	-0.711205
C90	C	-0.274088	0.733214	-0.747936
C91	C	-0.306433	0.700843	-0.711159
C92	C	-0.304251	0.703031	-0.637657
C93	C	-0.284195	0.723079	-0.967762
C94	C	-0.286375	0.720894	-1.041269
C95	C	-0.219504	0.787821	-1.041310
C96	C	-0.217328	0.790008	-0.967806
C97	C	-0.249671	0.757635	-0.931036
N98	N	-0.276317	0.730975	-0.823068
N99	N	-0.247439	0.759871	-0.855905
C100	C	-0.256499	0.750836	-0.156268
C101	C	-0.254032	0.753262	-0.078041
H102	H	-0.320111	0.046363	-0.257342
C103	C	-0.536383	0.641727	-0.472985
C104	C	-0.570688	0.672284	-0.433523
H105	H	-0.555831	0.618123	-0.503513
H106	H	-0.514212	0.622647	-0.442289
H107	H	-0.515847	0.663688	-0.499924
H108	H	-0.591222	0.650323	-0.406580
H109	H	-0.592868	0.691365	-0.464223
H110	H	-0.320116	0.449652	-0.257308
C111	C	-0.322464	0.610286	-0.253962
C112	C	-0.329239	0.556871	-0.244442
H113	H	-0.344204	0.629704	-0.223353
H114	H	-0.331578	0.617828	-0.301225
H115	H	-0.287016	0.619551	-0.243754
H116	H	-0.364687	0.547604	-0.254656
H117	H	-0.320129	0.549325	-0.197169
H118	H	-0.310539	0.696726	-0.937832
H119	H	-0.203824	-0.057446	-0.420977
H120	H	-0.171771	0.291482	-0.466035
C121	C	-0.484667	0.848910	-0.205249
C122	C	-0.450360	0.818351	-0.244706
H123	H	-0.465221	0.872523	-0.174733
H124	H	-0.505196	0.826954	-0.178303
H125	H	-0.506845	0.867983	-0.235953
H126	H	-0.428185	0.799274	-0.214001
H127	H	-0.429822	0.840309	-0.271653
C128	C	-0.207583	0.862782	-0.885137
C129	C	-0.179362	0.827970	-0.927418
H130	H	-0.184140	0.886214	-0.860202
H131	H	-0.226540	0.843817	-0.852734
H132	H	-0.231200	0.881931	-0.913806
H133	H	-0.155747	0.808818	-0.898749
H134	H	-0.160396	0.846937	-0.959825
H135	H	-0.463452	0.682160	-0.420685
C136	C	-0.925883	0.640040	-0.393835
C137	C	-0.958412	0.672420	-0.433578
H138	H	-0.908280	0.616417	-0.424350
H139	H	-0.946304	0.620983	-0.363150
H140	H	-0.900998	0.660762	-0.367059
H141	H	-0.983300	0.651699	-0.460350
H142	H	-0.937990	0.691479	-0.464275
C143	C	-0.332567	0.611616	-0.733757
C144	C	-0.344383	0.662857	-0.751531
H145	H	-0.355996	0.588166	-0.758684
H146	H	-0.335897	0.608290	-0.684725
H147	H	-0.297794	0.603638	-0.745819
H148	H	-0.379155	0.670836	-0.739464
H149	H	-0.341057	0.666185	-0.800574
H150	H	-0.320120	-0.052687	-0.257365
H151	H	-1.059944	0.808654	-0.257614
C152	C	-0.204346	0.803032	-0.525048
C153	C	-0.199432	0.807944	-0.597329
H154	H	-0.180915	0.826484	-0.500127
H155	H	-0.196337	0.768271	-0.512999
H156	H	-0.239119	0.811020	-0.512997
H157	H	-0.164660	0.799952	-0.609381
H158	H	-0.207437	0.842713	-0.609383
C159	C	-0.159898	0.583972	-0.394152
C160	C	-0.194693	0.551379	-0.433767
H161	H	-0.138153	0.601611	-0.424754
H162	H	-0.138957	0.563590	-0.363544
H163	H	-0.178990	0.608825	-0.367301
H164	H	-0.175601	0.526523	-0.460615
H165	H	-0.215636	0.571762	-0.464388
C166	C	-0.389391	0.229053	-0.159781
C167	C	-0.361273	0.192400	-0.199362
H168	H	-0.411133	0.211420	-0.129168
H169	H	-0.410335	0.249427	-0.190394
H170	H	-0.365771	0.251163	-0.132927
H171	H	-0.384893	0.170292	-0.226221
H172	H	-0.340327	0.172017	-0.168745
C173	C	-0.159881	0.406564	-0.394179
C174	C	-0.194684	0.436764	-0.433780
H175	H	-0.138131	0.387159	-0.424789
H176	H	-0.178963	0.383265	-0.367336
H177	H	-0.138941	0.428790	-0.363562
H178	H	-0.215627	0.414539	-0.464394
H179	H	-0.175601	0.460066	-0.460635
C180	C	-0.597487	0.850797	-0.284475
C181	C	-0.564968	0.818409	-0.244729
H182	H	-0.615078	0.874432	-0.253963
H183	H	-0.622377	0.830085	-0.311243
H184	H	-0.577057	0.869846	-0.315169
H185	H	-0.585399	0.799358	-0.214039
H186	H	-0.540075	0.839124	-0.217950
C187	C	-0.159888	0.081617	-0.394202
C188	C	-0.194687	0.049029	-0.433818
H189	H	-0.138140	0.099254	-0.424804
H190	H	-0.138949	0.061232	-0.363596
H191	H	-0.178976	0.106472	-0.367349
H192	H	-0.175599	0.024172	-0.460668
H193	H	-0.215628	0.069416	-0.464437
H194	H	-0.213226	0.794128	-0.741141
H195	H	-0.193172	0.814176	-1.071256
H196	H	-0.330584	0.676668	-0.607718
C197	C	-0.711350	0.844091	-0.130070
C198	C	-0.700184	0.853253	-0.199783
H199	H	-0.691913	0.867711	-0.099554
H200	H	-0.702126	0.809279	-0.119721
H201	H	-0.747586	0.849077	-0.123656
H202	H	-0.663949	0.848263	-0.206198
H203	H	-0.709406	0.888073	-0.210136
C204	C	-0.987018	0.849091	-0.205321
C205	C	-0.952709	0.818538	-0.244781
H206	H	-0.967574	0.872705	-0.174805
H207	H	-1.007544	0.827132	-0.178375
H208	H	-1.009200	0.868163	-0.236023
H209	H	-0.930530	0.799462	-0.214079
H210	H	-0.932175	0.840499	-0.271728
C211	C	-0.396068	0.337216	-0.238972
C212	C	-0.361272	0.307015	-0.199362
H213	H	-0.417813	0.356631	-0.208367
H214	H	-0.417009	0.314994	-0.269581
H215	H	-0.376978	0.360510	-0.265822
H216	H	-0.380362	0.283717	-0.172515
H217	H	-0.340328	0.329238	-0.168740
C218	C	-0.352252	0.654950	-1.033850
C219	C	-0.324326	0.682905	-1.081645
H220	H	-0.375678	0.631498	-1.058778
H221	H	-0.371403	0.678565	-1.005180
H222	H	-0.328614	0.635822	-1.005184
H223	H	-0.347964	0.702036	-1.110308
H224	H	-0.305174	0.659287	-1.110327
H225	H	-0.171768	0.192436	-0.466040
H226	H	-0.807396	0.843372	-0.212612
H227	H	-0.715980	0.647468	-0.465716
H228	H	-1.064858	0.682370	-0.420773
H229	H	-0.815031	0.647494	-0.465725
