data_functionalizedCrystal
_audit_creation_method	'MofGen! by Chris Wilmer'
_symmetry_space_group_name_H-M	'P1'
_symmetry_Int_Tables_number	1
_symmetry_cell_setting	triclinic
loop_
_symmetry_equiv_pos_as_xyz
  x,y,z
_cell_length_a	6.817900
_cell_length_b	11.102188
_cell_length_c	12.908943
_cell_angle_alpha	94.412855
_cell_angle_beta	100.860631
_cell_angle_gamma	108.603875
loop_
_atom_site_label
_atom_site_type_symbol
_atom_site_fract_x
_atom_site_fract_y
_atom_site_fract_z
V1	V	-4.022079	-0.174252	-0.328682
O2	O	-3.982824	0.010006	-0.322425
O3	O	-3.999459	-0.347083	-0.326434
O4	O	-3.959852	-0.170856	-0.472032
O5	O	-4.022705	-0.167442	-0.175820
V6	V	-4.504159	-0.152298	-0.310398
O7	O	-4.286505	-0.222412	-0.368789
O8	O	-4.689930	-0.104138	-0.270292
O9	O	-4.303573	0.020533	-0.312646
O10	O	-4.660810	-0.336556	-0.316655
O11	O	-4.620929	-0.159109	-0.463261
O12	O	-4.343179	-0.155694	-0.167049
C13	C	-3.851178	-0.389238	-0.321249
C14	C	-3.913878	-0.530525	-0.320367
C15	C	-3.909436	-0.579219	-0.223415
C16	C	-3.968371	-0.711974	-0.222590
C17	C	-4.036181	-0.747332	-0.415677
C18	C	-3.977261	-0.614579	-0.416501
C19	C	-4.125514	-0.876300	-0.108860
C20	C	-4.121037	-0.924996	-0.011902
C21	C	-3.954612	-0.862161	0.076448
C22	C	-3.792614	-0.750629	0.067846
C23	C	-3.797077	-0.701940	-0.029113
C24	C	-3.963547	-0.764774	-0.117461
C25	C	-3.820097	-0.450249	-0.530225
C26	C	-3.824545	-0.401557	-0.627184
C27	C	-3.990960	-0.464390	-0.715543
C28	C	-4.152933	-0.575927	-0.706950
C29	C	-4.148486	-0.624619	-0.609990
C30	C	-3.982070	-0.561776	-0.521632
C31	C	-3.800655	-0.164441	-0.506972
C32	C	-3.831231	-0.162807	-0.624161
C33	C	-4.253820	-0.172350	-0.855107
C34	C	-4.282559	-0.170816	-0.965217
C35	C	-3.917446	-0.158196	-0.954491
C36	C	-3.888707	-0.159730	-0.844381
C37	C	-4.056903	-0.166809	-0.794694
C38	C	-4.028166	-0.168352	-0.684583
C39	C	-3.663052	-0.155723	-0.673858
C40	C	-3.691791	-0.154189	-0.783968
C41	C	-4.115196	0.062681	-0.317829
C42	C	-4.031734	0.203967	-0.318718
C43	C	-4.165720	-0.162113	-0.132103
C44	C	-4.114381	-0.163741	-0.014913
H45	H	-3.950972	-0.901819	0.155393
H46	H	-3.857827	-0.510784	-0.145136
O47	O	-3.658385	-0.389417	-0.444359
C48	C	-3.367105	-0.404717	-0.313937
C49	C	-3.550211	-0.473769	-0.411150
H50	H	-3.279567	-0.472877	-0.287072
H51	H	-3.433911	-0.373487	-0.246066
H52	H	-3.252183	-0.316621	-0.336756
H53	H	-3.665200	-0.561911	-0.388433
H54	H	-3.483254	-0.504903	-0.478994
O55	O	-3.471944	-0.150599	-0.615125
C56	C	-3.281025	-0.255797	-0.499091
C57	C	-3.497573	-0.261688	-0.565512
H58	H	-3.301664	-0.345614	-0.458979
H59	H	-3.215192	-0.166997	-0.435609
H60	H	-3.165861	-0.250452	-0.553582
H61	H	-3.612893	-0.267081	-0.511106
H62	H	-3.563231	-0.350474	-0.629003
H63	H	-3.780515	-0.152423	-0.994965
H64	H	-4.261058	-0.927462	-0.180791
H65	H	-4.288436	-0.627093	-0.778900
H66	H	-4.165124	-0.174122	-0.644130
O67	O	-3.995384	-0.416918	-0.809658
C68	C	-4.007126	-0.237649	-0.901627
C69	C	-4.002157	-0.291258	-0.794983
H70	H	-4.012557	-0.136036	-0.889793
H71	H	-4.153944	-0.301631	-0.963322
H72	H	-3.858386	-0.235570	-0.930704
H73	H	-4.150794	-0.293340	-0.765810
H74	H	-3.855242	-0.227260	-0.733356
H75	H	-4.390778	-0.178127	-0.814653
H76	H	-4.442905	-0.175328	-1.014402
H77	H	-3.657089	-0.699484	0.139789
O78	O	-3.639626	-0.593558	-0.037280
C79	C	-3.313352	-0.425781	0.052033
C80	C	-3.491547	-0.548505	0.061429
H81	H	-3.193560	-0.389334	0.131821
H82	H	-3.384341	-0.348857	0.029129
H83	H	-3.230157	-0.448353	-0.011845
H84	H	-3.574808	-0.526057	0.125314
H85	H	-3.420433	-0.625392	0.084279
O86	O	-4.097696	-0.829159	-0.508957
C87	C	-4.218624	-1.049345	-0.593266
C88	C	-4.148965	-0.956823	-0.487546
H89	H	-4.260136	-1.152582	-0.575993
H90	H	-4.083596	-1.027108	-0.637011
H91	H	-4.363866	-1.036833	-0.645074
H92	H	-4.003771	-0.969284	-0.435656
H93	H	-4.284117	-0.979084	-0.443885
O94	O	-4.306047	-0.732947	-0.601809
C95	C	-4.632174	-0.900812	-0.691170
C96	C	-4.453907	-0.778130	-0.700577
H97	H	-4.751740	-0.937395	-0.771018
H98	H	-4.715655	-0.878304	-0.627401
H99	H	-4.561002	-0.977618	-0.668136
H100	H	-4.524907	-0.701268	-0.723645
H101	H	-4.370448	-0.800741	-0.764319
H102	H	-3.554856	-0.148421	-0.824438
H103	H	-4.252952	-1.015807	-0.004905
H104	H	-3.692632	-0.310745	-0.634179
