data_functionalizedCrystal
_audit_creation_method	'MofGen! by Chris Wilmer'
_symmetry_space_group_name_H-M	'P1'
_symmetry_Int_Tables_number	1
_symmetry_cell_setting	triclinic
loop_
_symmetry_equiv_pos_as_xyz
  x,y,z
_cell_length_a	31.640172
_cell_length_b	12.478028
_cell_length_c	12.477989
_cell_angle_alpha	61.136725
_cell_angle_beta	90.004035
_cell_angle_gamma	57.048189
loop_
_atom_site_label
_atom_site_type_symbol
_atom_site_fract_x
_atom_site_fract_y
_atom_site_fract_z
Zr1	Zr	-0.129080	1.421228	0.849354
O2	O	-0.199973	1.642592	0.668808
O3	O	-0.101556	1.183882	0.919451
O4	O	-0.198075	1.428261	0.898181
O5	O	-0.033907	1.398238	0.690078
O6	O	-0.203165	1.451988	1.062336
O7	O	-0.103455	1.398213	0.690078
O8	O	-0.030511	1.014839	1.100385
O9	O	-0.206561	1.835388	0.652029
O10	O	-0.100614	1.305132	1.054034
O11	O	-0.044912	1.287443	0.931527
O12	O	-0.158550	1.575168	0.906484
O13	O	-0.102849	1.557479	0.783977
Zr14	Zr	-0.026279	1.459109	1.111163
Zr15	Zr	-0.137199	1.459069	1.111163
Zr16	Zr	-0.018160	1.421267	0.849355
Zr17	Zr	-0.139588	1.728714	0.822595
Zr18	Zr	-0.015771	1.151623	1.137923
O19	O	-0.053803	1.696454	1.041066
O20	O	-0.211517	1.696398	1.041066
O21	O	-0.042259	1.642648	0.668808
O22	O	0.044614	1.237744	1.291710
O23	O	-0.113100	1.237688	1.291710
O24	O	0.056158	1.183938	0.919452
O25	O	-0.121452	1.482098	1.270439
O26	O	0.042716	1.452075	1.062337
O27	O	0.047806	1.428348	0.898182
O28	O	-0.051904	1.482123	1.270440
O29	O	-0.213015	1.865467	0.860132
O30	O	0.057656	1.014870	1.100385
O31	O	0.051202	1.044949	1.308489
O32	O	-0.036964	1.044918	1.308488
O33	O	-0.118395	1.835419	0.652030
O34	O	-0.124848	1.865498	0.860133
O35	O	0.003191	1.305169	1.054034
O36	O	-0.052510	1.322857	1.176541
O37	O	-0.110447	1.592893	1.028991
O38	O	-0.054745	1.575205	0.906484
C39	C	-0.064536	1.055550	1.013731
C40	C	-0.060076	0.925014	1.025091
C41	C	-0.216424	1.440119	0.980259
C42	C	-0.263512	1.440102	0.980258
C43	C	-0.585793	1.581142	0.903249
C44	C	-0.762789	1.581170	0.903248
O45	O	-0.811397	1.701056	0.837789
N46	N	-0.754677	1.440215	0.980265
C47	C	-0.702311	1.299244	1.057295
O48	O	-0.699472	1.179355	1.122813
C49	C	-0.525316	1.299217	1.057302
C50	C	-0.533432	1.440180	0.980270
C51	C	-0.593907	1.722093	0.826224
C52	C	-0.549660	1.722084	0.826220
C53	C	-0.497299	1.581123	0.903240
C54	C	-0.489185	1.440171	0.980265
C55	C	-0.472951	1.158248	1.134338
C56	C	-0.428702	1.158255	1.134336
C57	C	-0.436819	1.299218	1.057303
C58	C	-0.392577	1.299200	1.057282
N59	N	-0.400690	1.440156	0.980264
C60	C	-0.453050	1.581117	0.903244
C61	C	-0.795238	1.299267	1.057284
C62	C	-0.839486	1.299273	1.057280
C63	C	-0.899962	1.581201	0.903235
C64	C	-0.855712	1.581192	0.903232
C65	C	-0.803350	1.440222	0.980266
C66	C	-0.360126	1.581086	0.903239
C67	C	-0.315873	1.581064	0.903238
C68	C	-0.255401	1.299138	1.057288
C69	C	-0.299651	1.299158	1.057285
C70	C	-0.352015	1.440146	0.980257
O71	O	-0.343956	1.179380	1.122717
O72	O	-0.455878	1.700991	0.837757
C73	C	-0.630040	1.581151	0.903253
C74	C	-0.621926	1.440199	0.980278
C75	C	-0.569565	1.299238	1.057299
C76	C	-0.666174	1.440205	0.980275
C77	C	-0.718535	1.581166	0.903254
C78	C	-0.726647	1.722122	0.826237
C79	C	-0.682400	1.722112	0.826233
C80	C	-0.561453	1.158283	1.134316
C81	C	-0.605702	1.158304	1.134313
C82	C	-0.658063	1.299265	1.057293
C83	C	0.061065	1.440217	0.980259
C84	C	0.108153	1.440234	0.980259
C85	C	-0.067524	1.392834	0.652776
C86	C	-0.064077	1.376769	0.541631
C87	C	-0.090823	1.824786	0.946787
C88	C	-0.095283	1.955322	0.935427
C89	C	-0.087835	1.487502	1.307742
C90	C	-0.091282	1.503567	1.418886
C91	C	-0.074692	1.102884	1.341214
C92	C	-0.073678	0.988413	1.463719
C93	C	0.074208	1.055599	1.013731
C94	C	0.125757	0.925080	1.025092
C95	C	0.064052	1.102934	1.341214
C96	C	0.112155	0.988479	1.463719
C97	C	-0.219411	1.777403	0.619304
C98	C	-0.267514	1.891857	0.496799
C99	C	-0.080667	1.777452	0.619304
C100	C	-0.081681	1.891923	0.496799
C101	C	-0.229567	1.824737	0.946786
C102	C	-0.281116	1.955256	0.935426
C103	C	0.175079	0.873040	1.094374
C104	C	0.223519	0.750420	1.105042
C105	C	0.222635	0.679835	1.046435
C106	C	0.173308	0.731886	0.977143
C107	C	0.124869	0.854512	0.966468
C108	C	0.105668	0.943965	1.585207
C109	C	0.150861	0.836442	1.700322
C110	C	0.202539	0.773426	1.693947
C111	C	0.209025	0.817950	1.572445
C112	C	0.163832	0.925480	1.457333
C113	C	-0.261028	1.936386	0.375309
C114	C	-0.306221	2.043948	0.260191
C115	C	-0.357900	2.106970	0.266566
C116	C	-0.364385	2.062438	0.388068
C117	C	-0.319193	1.954887	0.503183
C118	C	-0.280215	2.025804	0.994050
C119	C	-0.328647	2.148428	0.983401
C120	C	-0.377979	2.200509	0.914120
C121	C	-0.378879	2.129949	0.855496
C122	C	-0.330447	2.007320	0.866153
H123	H	-0.402759	1.695892	0.840517
H124	H	-0.128841	1.081137	0.849970
C125	C	0.304124	0.644866	1.692156
C126	C	0.265833	0.748657	1.565453
H127	H	0.339196	0.602075	1.687840
H128	H	0.297259	0.699003	1.731356
H129	H	0.301890	0.563115	1.743195
H130	H	0.268064	0.830415	1.514417
H131	H	0.272700	0.694519	1.526235
H132	H	-0.117911	0.964951	1.358563
C133	C	0.080116	0.823819	0.841156
C134	C	0.070655	0.911688	0.890327
H135	H	0.046646	0.859108	0.794155
H136	H	0.099519	0.835977	0.784207
H137	H	0.100592	0.716779	0.911765
H138	H	0.050182	1.018727	0.819716
H139	H	0.051244	0.899543	0.947279
H140	H	-0.518821	1.043493	1.197040
H141	H	-0.419052	2.172372	0.799088
H142	H	-0.556275	1.836871	0.763497
H143	H	-0.417411	2.300363	0.905452
C144	C	-0.123038	1.651587	0.510835
C145	C	-0.126284	1.666715	0.391797
H146	H	-0.144645	1.752311	0.494111
H147	H	-0.135648	1.596109	0.559551
H148	H	-0.086620	1.596103	0.559562
H149	H	-0.162702	1.722190	0.343073
H150	H	-0.113676	1.722216	0.343060
H151	H	-0.038151	1.255914	0.561689
H152	H	0.263678	0.708055	1.161470
H153	H	-0.052861	0.952061	1.562721
H154	H	0.175809	0.930497	1.142101
C155	C	0.024543	0.975417	1.538595
C156	C	0.048856	1.013232	1.592171
H157	H	-0.010531	1.018176	1.542890
H158	H	0.021957	1.017300	1.449786
H159	H	0.045713	0.865126	1.586791
H160	H	0.027689	1.123524	1.543969
H161	H	0.051440	0.971356	1.680995
C162	C	0.225874	0.896344	1.342528
C163	C	0.170969	0.974382	1.323796
H164	H	0.230281	0.926525	1.260089
H165	H	0.239964	0.922750	1.384157
H166	H	0.244610	0.786831	1.396026
H167	H	0.152233	1.083896	1.270305
H168	H	0.156872	0.947987	1.282147
C169	C	0.035352	0.719603	1.137982
C170	C	-0.014770	0.755162	1.140471
H171	H	0.063321	0.614747	1.209216
H172	H	0.038543	0.731929	1.057845
H173	H	0.038188	0.788004	1.145218
H174	H	-0.017608	0.686768	1.133225
H175	H	-0.017962	0.742821	1.220628
C176	C	-0.880453	1.174070	1.125685
C177	C	-0.830561	1.144321	1.141942
H178	H	-0.874939	1.078403	1.177952
H179	H	-0.901917	1.240337	1.151896
H180	H	-0.898334	1.223623	1.036179
H181	H	-0.812682	1.094777	1.231446
H182	H	-0.809088	1.078028	1.115738
H183	H	0.145571	0.800202	1.799243
C184	C	-0.208089	1.928984	0.237318
C185	C	-0.204226	1.867149	0.368276
H186	H	-0.173023	1.886258	0.232970
H187	H	-0.224599	1.903361	0.200991
H188	H	-0.229258	2.039270	0.189185
H189	H	-0.183061	1.756864	0.416408
H190	H	-0.187709	1.892761	0.404621
C191	C	-0.739914	1.020593	1.209538
C192	C	-0.737682	1.144296	1.141955
H193	H	-0.704382	0.924921	1.261799
H194	H	-0.760221	1.034824	1.264185
H195	H	-0.756647	1.018129	1.148458
H196	H	-0.720953	1.146768	1.203036
H197	H	-0.717367	1.130062	1.087304
H198	H	-0.394694	2.194544	0.172822
C199	C	-0.380103	1.859746	0.750973
C200	C	-0.324797	1.736022	0.818565
H201	H	-0.385612	1.955406	0.698710
H202	H	-0.394312	1.845523	0.696326
H203	H	-0.397891	1.862229	0.812048
H204	H	-0.307010	1.733532	0.757489
H205	H	-0.310582	1.750249	0.873215
C206	C	-0.359153	2.041769	0.666374
C207	C	-0.331453	1.929826	0.801669
H208	H	-0.359776	1.993935	0.626557
H209	H	-0.395046	2.122238	0.650150
H210	H	-0.341414	2.085033	0.630659
H211	H	-0.349193	1.886570	0.837387
H212	H	-0.295552	1.849328	0.817904
C213	C	-0.459484	2.235496	0.268359
C214	C	-0.421193	2.131708	0.395062
H215	H	-0.494554	2.278246	0.272679
H216	H	-0.457262	2.317262	0.217334
H217	H	-0.452607	2.181356	0.229145
H218	H	-0.428067	2.185850	0.434273
H219	H	-0.423417	2.049930	0.446107
H220	H	-0.862326	1.695977	0.840504
C221	C	-0.649225	2.000751	0.673946
C222	C	-0.651460	1.877055	0.741544
H223	H	-0.684755	2.096421	0.621653
H224	H	-0.632503	2.003245	0.735008
H225	H	-0.628906	1.986485	0.619316
H226	H	-0.671776	1.891315	0.796182
H227	H	-0.668190	1.874564	0.680475
H228	H	-0.324480	1.918632	0.602102
C229	C	-0.197386	1.986473	0.986261
C230	C	-0.225992	1.968570	1.070214
H231	H	-0.163915	1.951149	1.033289
H232	H	-0.190984	1.926897	0.952887
H233	H	-0.217858	2.093523	0.915680
H234	H	-0.205523	1.861518	1.140789
H235	H	-0.232393	2.028145	1.103608
H236	H	-0.942603	1.695976	0.840516
H237	H	-0.466332	1.043461	1.197068
C238	C	-0.373372	0.879579	1.286611
C239	C	-0.371145	1.003290	1.219009
H240	H	-0.337839	0.783913	1.338875
H241	H	-0.393679	0.893814	1.341258
H242	H	-0.390103	0.877098	1.225542
H243	H	-0.354418	1.005779	1.280079
H244	H	-0.350830	0.989052	1.164358
H245	H	-0.293041	1.184372	1.119994
H246	H	-0.212762	1.184370	1.119992
C247	C	-0.814130	1.897990	0.822180
C248	C	-0.784209	1.877073	0.741579
H249	H	-0.849665	1.993650	0.769922
H250	H	-0.815625	1.814042	0.868042
H251	H	-0.797396	1.900489	0.883227
H252	H	-0.800941	1.874562	0.680538
H253	H	-0.782716	1.961043	0.695696
C254	C	-0.541470	0.879624	1.286603
C255	C	-0.596776	1.003344	1.218998
H256	H	-0.535962	0.783967	1.338893
H257	H	-0.523681	0.877114	1.225546
H258	H	-0.527263	0.893876	1.341237
H259	H	-0.610982	0.989098	1.164356
H260	H	-0.614572	1.005851	1.280062
H261	H	-0.300930	2.080186	0.161272
H262	H	-0.689016	1.836899	0.763505
H263	H	0.262081	0.579987	1.055137
H264	H	0.172596	0.674398	0.929428
H265	H	0.239333	0.685869	1.787689
H266	H	-0.327904	2.205865	1.031139
