data_functionalizedCrystal
_audit_creation_method	'MofGen! by Chris Wilmer'
_symmetry_space_group_name_H-M	'P1'
_symmetry_Int_Tables_number	1
_symmetry_cell_setting	triclinic
loop_
_symmetry_equiv_pos_as_xyz
  x,y,z
_cell_length_a	12.594517
_cell_length_b	12.759394
_cell_length_c	12.594510
_cell_angle_alpha	89.964924
_cell_angle_beta	90.022787
_cell_angle_gamma	89.985363
loop_
_atom_site_label
_atom_site_type_symbol
_atom_site_fract_x
_atom_site_fract_y
_atom_site_fract_z
Zn1	Zn	1.627291	0.418181	0.601852
Zn2	Zn	1.627181	0.593909	0.423870
Zn3	Zn	1.449291	0.418244	0.423880
Zn4	Zn	1.449281	0.593818	0.601800
O5	O	1.538261	0.506038	0.512850
O6	O	1.776222	0.441504	0.578259
O7	O	1.603542	0.570670	0.274925
O8	O	1.472953	0.271214	0.447515
O9	O	1.776142	0.570610	0.447496
O10	O	1.603729	0.271168	0.578270
O11	O	1.472846	0.441610	0.274933
O12	O	1.300344	0.441522	0.447465
O13	O	1.472937	0.570456	0.750752
O14	O	1.300337	0.570516	0.578181
O15	O	1.603720	0.441416	0.750791
O16	O	1.603533	0.740918	0.447446
O17	O	1.472830	0.740851	0.578170
C18	C	1.261720	0.506017	0.512819
C19	C	1.143415	0.506033	0.512831
C20	C	1.538339	0.505919	0.790471
C21	C	1.538373	0.505868	0.908777
C22	C	1.538197	0.779005	0.512825
C23	C	1.538267	0.895782	0.512849
C24	C	1.074134	0.435778	0.441870
C25	C	1.003325	0.531614	0.415688
C26	C	1.003425	0.410243	0.539031
C27	C	1.074163	0.601920	0.486598
C28	C	1.074270	0.480485	0.609986
C29	C	1.003492	0.576388	0.583841
C30	C	1.815882	0.506060	0.512882
C31	C	1.934187	0.506069	0.512896
C32	C	1.538354	0.232005	0.512899
C33	C	1.538394	0.115228	0.512920
C34	C	1.674470	0.895798	0.376828
C35	C	1.742599	0.950667	0.308830
C36	C	1.742661	1.060388	0.308859
C37	C	1.674590	1.115244	0.376895
C38	C	1.606461	1.060375	0.444893
C39	C	1.606403	0.950651	0.444855
C40	C	1.470265	1.060359	0.580919
C41	C	1.470195	0.950638	0.580886
C42	C	1.402193	1.115214	0.648955
C43	C	1.334057	1.060346	0.716950
C44	C	1.333997	0.950618	0.716917
C45	C	1.402066	0.895769	0.648884
C46	C	1.538244	0.506081	0.236309
C47	C	1.538417	0.505836	0.118004
C48	C	1.609531	0.435662	1.048815
C49	C	1.635521	0.531528	0.977992
C50	C	1.512430	0.410013	0.978028
C51	C	1.564457	0.601752	1.048740
C52	C	1.441322	0.480172	1.048782
C53	C	1.467275	0.576105	0.977992
H54	H	0.972164	0.553246	0.333553
O55	O	1.808869	0.897429	0.242849
C56	C	1.914957	0.924155	0.266182
H57	H	1.920318	0.954231	0.351228
H58	H	1.967506	0.851965	0.257026
H59	H	1.942834	0.987877	0.209161
O60	O	1.395628	0.647136	0.941167
C61	C	1.423383	0.748007	0.977414
H62	H	1.511693	0.750007	0.997193
H63	H	1.405487	0.808075	0.912793
H64	H	1.375412	0.767507	1.051563
O65	O	1.267908	1.113468	0.783135
C66	C	1.207734	1.041516	0.843122
H67	H	1.251276	0.963259	0.846818
H68	H	1.196365	1.073151	0.926985
H69	H	1.126906	1.029957	0.804073
O70	O	0.966533	0.647280	0.655456
C71	C	0.854593	0.645942	0.655303
H72	H	0.825440	0.567307	0.623789
H73	H	0.824185	0.657770	0.739694
H74	H	0.823637	0.711664	0.602305
H75	H	1.798143	1.105062	0.253494
O76	O	1.590749	0.698546	1.085453
C77	C	1.609133	0.766263	0.998888
H78	H	1.566030	0.735237	0.925772
H79	H	1.578260	0.847911	1.018806
H80	H	1.697974	0.770400	0.982089
H81	H	1.359254	0.458417	1.079902
O82	O	0.966481	0.313507	0.565319
C83	C	1.002451	0.239679	0.490241
H84	H	1.076949	0.270750	0.449620
H85	H	1.021562	0.162704	0.532099
H86	H	0.937931	0.225882	0.428296
O87	O	1.733517	0.557276	0.940935
C88	C	1.808283	0.483096	0.977035
H89	H	1.765984	0.406590	0.996928
H90	H	1.869715	0.468380	0.912281
H91	H	1.849607	0.514334	1.051085
H92	H	1.105106	0.682968	0.464374
H93	H	1.105456	0.458824	0.692096
O94	O	1.674570	0.789215	0.376691
C95	C	1.749233	0.752565	0.302039
H96	H	1.811466	0.815756	0.287205
H97	H	1.789564	0.679094	0.334162
H98	H	1.707047	0.733207	0.224388
H99	H	1.674656	1.204585	0.376922
H100	H	1.402253	1.204556	0.648978
O101	O	1.267969	0.897272	0.783086
C102	C	1.328502	0.833673	0.851842
H103	H	1.412349	0.866664	0.858492
H104	H	1.289974	0.832387	0.933724
H105	H	1.332132	0.750543	0.818911
H106	H	1.490471	0.328964	0.946963
H107	H	1.402017	0.806428	0.648844
O108	O	1.681282	0.364806	1.085788
C109	C	1.654735	0.264086	1.048231
H110	H	1.604663	0.271581	0.973185
H111	H	1.730466	0.218776	1.029508
H112	H	1.607611	0.220455	1.111628
O113	O	1.111097	0.365085	0.370052
C114	C	1.074918	0.392425	0.267762
H115	H	1.055058	0.479573	0.265606
H116	H	1.139612	0.374819	0.207051
H117	H	1.000832	0.344992	0.247914
