data_functionalizedCrystal
_audit_creation_method	'MofGen! by Chris Wilmer'
_symmetry_space_group_name_H-M	'P1'
_symmetry_Int_Tables_number	1
_symmetry_cell_setting	triclinic
loop_
_symmetry_equiv_pos_as_xyz
  x,y,z
_cell_length_a	19.805407
_cell_length_b	16.120484
_cell_length_c	19.805399
_cell_angle_alpha	92.869501
_cell_angle_beta	89.983114
_cell_angle_gamma	92.925608
loop_
_atom_site_label
_atom_site_type_symbol
_atom_site_fract_x
_atom_site_fract_y
_atom_site_fract_z
Zn1	Zn	1.021057	-0.331915	-0.396377
Zn2	Zn	1.521057	0.168085	0.103623
Zn3	Zn	1.015239	-0.471337	-0.288925
Zn4	Zn	1.515239	0.028663	0.211075
Zn5	Zn	0.907876	-0.331942	-0.283202
Zn6	Zn	1.407876	0.168058	0.216798
Zn7	Zn	0.902099	-0.471289	-0.402070
Zn8	Zn	1.402099	0.028711	0.097930
O9	O	0.961568	-0.401621	-0.342643
O10	O	1.461568	0.098379	0.157357
O11	O	1.115002	-0.350419	-0.382135
O12	O	1.615002	0.149581	0.117865
O13	O	1.000980	-0.452877	-0.193450
O14	O	1.500980	0.047123	0.306550
O15	O	0.927742	-0.215272	-0.293437
O16	O	1.427742	0.284728	0.206563
O17	O	1.110727	-0.452851	-0.303191
O18	O	1.610727	0.047149	0.196809
O19	O	1.010896	-0.215253	-0.376586
O20	O	1.510896	0.284747	0.123414
O21	O	0.922101	-0.350464	-0.189246
O22	O	1.422101	0.149536	0.310754
O23	O	0.812394	-0.350418	-0.298958
O24	O	1.312394	0.149582	0.201042
O25	O	0.917896	-0.452770	-0.496030
O26	O	1.417896	0.047230	0.003970
O27	O	0.808149	-0.452796	-0.386289
O28	O	1.308149	0.047204	0.113711
O29	O	1.005294	-0.350373	-0.491847
O30	O	1.505294	0.149627	0.008153
O31	O	0.995378	-0.587997	-0.308711
O32	O	1.495378	-0.087997	0.191289
O33	O	0.912255	-0.587962	-0.391838
O34	O	1.412255	-0.087962	0.108162
C35	C	0.785713	-0.401605	-0.342621
C36	C	1.285713	0.098395	0.157379
C37	C	0.710480	-0.401618	-0.342628
C38	C	1.210480	0.098382	0.157372
C39	C	0.952577	-0.618229	-0.351528
C40	C	1.452577	-0.118229	0.148472
C41	C	0.948792	-0.710895	-0.355352
C42	C	1.448792	-0.210895	0.144648
C43	C	0.672940	-0.455007	-0.388035
C44	C	1.172940	0.044993	0.111965
C45	C	0.602252	-0.455008	-0.388044
C46	C	1.102252	0.044992	0.111956
C47	C	0.569104	-0.401625	-0.342643
C48	C	1.069104	0.098375	0.157357
C49	C	0.606649	-0.348230	-0.297235
C50	C	1.106649	0.151770	0.202765
C51	C	0.677336	-0.348225	-0.297229
C52	C	1.177336	0.151775	0.202771
C53	C	0.321575	-0.348249	-0.297258
C54	C	0.821575	0.151751	0.202742
C55	C	0.250882	-0.348260	-0.297266
C56	C	0.750882	0.151740	0.202734
C57	C	0.246490	-0.455032	-0.388073
C58	C	0.746490	0.044968	0.111927
C59	C	0.317178	-0.455027	-0.388067
C60	C	0.817178	0.044973	0.111933
C61	C	0.354717	-0.401630	-0.342661
C62	C	0.854717	0.098370	0.157339
C63	C	0.431365	-0.401628	-0.342652
C64	C	0.931365	0.098372	0.157348
C65	C	0.492457	-0.401630	-0.342649
C66	C	0.992457	0.098370	0.157351
C67	C	0.941887	-0.880557	-0.362347
C68	C	1.441887	-0.380557	0.137653
C69	C	0.981370	-0.921844	-0.322951
C70	C	1.481370	-0.421844	0.177049
C71	C	0.977528	-1.016250	-0.326843
C72	C	1.477528	-0.516250	0.173157
C73	C	0.945728	-0.786143	-0.358456
C74	C	1.445728	-0.286143	0.141544
C75	C	1.138110	-0.401638	-0.342666
C76	C	1.638110	0.098362	0.157334
C77	C	1.213342	-0.401645	-0.342676
C78	C	1.713342	0.098355	0.157324
C79	C	0.961600	-0.401563	-0.519184
C80	C	1.461600	0.098437	-0.019184
C81	C	0.961614	-0.401538	-0.594415
C82	C	1.461614	0.098462	-0.094415
C83	C	0.970612	-0.184167	-0.333738
C84	C	1.470612	0.315833	0.166262
C85	C	0.974467	-0.091501	-0.329944
C86	C	1.474467	0.408499	0.170056
C87	C	0.920554	-0.348207	-0.627569
C88	C	1.420554	0.151793	-0.127569
C89	C	0.920564	-0.348191	-0.698257
C90	C	1.420564	0.151809	-0.198257
C91	C	0.961638	-0.401502	-0.735789
C92	C	1.461638	0.098498	-0.235789
C93	C	1.002699	-0.454840	-0.702630
C94	C	1.502699	0.045160	-0.202630
C95	C	1.002685	-0.454860	-0.631944
C96	C	1.502685	0.045140	-0.131944
C97	C	1.002756	-0.454762	-0.987700
C98	C	1.502756	0.045238	-0.487700
C99	C	1.002768	-0.454736	-1.058391
C100	C	1.502768	0.045264	-0.558391
C101	C	0.920635	-0.348093	-1.054013
C102	C	1.420635	0.151907	-0.554013
C103	C	0.920621	-0.348113	-0.983327
C104	C	1.420621	0.151887	-0.483327
C105	C	0.961679	-0.401453	-0.950174
C106	C	1.461679	0.098547	-0.450174
C107	C	0.961667	-0.401471	-0.873527
C108	C	1.461667	0.098529	-0.373527
C109	C	0.961654	-0.401481	-0.812435
C110	C	1.461654	0.098519	-0.312435
C111	C	0.961577	-0.401618	-0.166787
C112	C	1.461577	0.098382	0.333213
C113	C	0.961705	-0.401408	-0.091547
C114	C	1.461705	0.098592	0.408453
H115	H	0.699924	-0.498481	-0.425003
H116	H	1.199924	0.001519	0.074997
Br117	Br	0.728285	-0.275762	-0.235607
Br118	Br	1.228285	0.224238	0.264393
H119	H	0.887201	-0.304663	-1.081015
H120	H	1.387201	0.195337	-0.581015
Br121	Br	0.362160	-0.527483	-0.449681
Br122	Br	0.862160	-0.027483	0.050319
Br123	Br	0.195541	-0.527503	-0.449696
Br124	Br	0.695541	-0.027503	0.050304
H125	H	0.223896	-0.304783	-0.260295
H126	H	0.723896	0.195217	0.239705
H127	H	0.571690	-0.498483	-0.425018
H128	H	1.071690	0.001517	0.074982
H129	H	0.887126	-0.304766	-0.725248
H130	H	1.387126	0.195234	-0.225248
H131	H	1.036139	-0.498251	-0.733195
H132	H	1.536139	0.001749	-0.233195
H133	H	1.036126	-0.498281	-0.604950
H134	H	1.536126	0.001719	-0.104950
Br135	Br	0.880740	-0.939813	-0.423431
Br136	Br	1.380740	-0.439813	0.076569
Br137	Br	0.864813	-0.275845	-0.576639
Br138	Br	1.364813	0.224155	-0.076639
H139	H	0.887176	-0.304698	-0.952771
H140	H	1.387176	0.195302	-0.452771
H141	H	1.036217	-0.498152	-1.088949
H142	H	1.536217	0.001848	-0.588949
H143	H	0.352131	-0.304776	-0.260280
H144	H	0.852131	0.195224	0.239720
H145	H	1.036181	-0.498204	-0.960716
H146	H	1.536181	0.001796	-0.460716
Br147	Br	1.042520	-0.862590	-0.261860
Br148	Br	1.542520	-0.362590	0.238140
H149	H	0.579655	-0.304761	-0.260271
H150	H	1.079655	0.195239	0.239729
