data_functionalizedCrystal
_audit_creation_method	'MofGen! by Chris Wilmer'
_symmetry_space_group_name_H-M	'P1'
_symmetry_Int_Tables_number	1
_symmetry_cell_setting	triclinic
loop_
_symmetry_equiv_pos_as_xyz
  x,y,z
_cell_length_a	14.908520
_cell_length_b	14.908618
_cell_length_c	14.908308
_cell_angle_alpha	89.826377
_cell_angle_beta	96.360765
_cell_angle_gamma	89.795563
loop_
_atom_site_label
_atom_site_type_symbol
_atom_site_fract_x
_atom_site_fract_y
_atom_site_fract_z
Zn1	Zn	-0.470652	-1.316646	-0.613103
Zn2	Zn	-0.613291	-1.316544	-0.470467
Zn3	Zn	-0.453326	-1.176016	-0.453158
Zn4	Zn	-0.612215	-1.157638	-0.612056
O5	O	-0.537371	-1.241711	-0.537196
O6	O	-0.497274	-1.441990	-0.601863
O7	O	-0.585271	-1.305552	-0.341978
O8	O	-0.329434	-1.202405	-0.467570
O9	O	-0.602070	-1.441915	-0.497069
O10	O	-0.342163	-1.305725	-0.585080
O11	O	-0.467746	-1.202306	-0.329262
O12	O	-0.466702	-1.048221	-0.466555
O13	O	-0.600236	-1.171082	-0.738387
O14	O	-0.583437	-1.034719	-0.583296
O15	O	-0.496231	-1.287905	-0.739156
O16	O	-0.739338	-1.287731	-0.496054
O17	O	-0.738548	-1.170983	-0.600079
C18	C	-0.523073	-1.008966	-0.522934
C19	C	-0.516980	-0.909394	-0.516856
C20	C	-0.771665	-1.227375	-0.549852
C21	C	-0.871904	-1.221322	-0.555302
C22	C	-0.627255	-0.708275	-0.626851
C23	C	-0.621533	-0.614718	-0.621143
C24	C	-0.499808	-0.628721	-0.499737
C25	C	-0.505531	-0.722278	-0.505445
C26	C	-0.569257	-0.762052	-0.569003
C27	C	-0.574984	-0.855610	-0.574706
C28	C	-0.453255	-0.869612	-0.453305
C29	C	-0.447533	-0.776055	-0.447597
C30	C	-1.061038	-1.331630	-0.457322
C31	C	-1.155221	-1.325946	-0.462440
C32	C	-1.154456	-1.204275	-0.570660
C33	C	-1.060273	-1.209959	-0.565542
C34	C	-1.013567	-1.273638	-0.508870
C35	C	-0.919381	-1.279317	-0.503748
C36	C	-0.918619	-1.157651	-0.611973
C37	C	-1.012802	-1.151967	-0.617090
C38	C	-0.302164	-1.256126	-0.524511
C39	C	-0.201933	-1.262269	-0.519106
C40	C	-0.550046	-1.227455	-0.772407
C41	C	-0.555448	-1.221379	-0.872640
C42	C	-0.551718	-0.475366	-0.551507
C43	C	-0.557812	-0.574937	-0.557587
C44	C	-0.457275	-1.331609	-1.061790
C45	C	-0.462347	-1.325904	-1.155968
C46	C	-0.570659	-1.204260	-1.155175
C47	C	-0.565587	-1.209965	-1.060997
C48	C	-0.508894	-1.273643	-1.014308
C49	C	-0.503827	-1.279352	-0.920129
C50	C	-0.612133	-1.157704	-0.919337
C51	C	-0.617205	-1.151999	-1.013515
C52	C	-0.524683	-1.255968	-0.302899
C53	C	-0.519038	-1.262232	-0.202664
H54	H	-0.626874	-0.887992	-0.626457
O55	O	-0.390710	-0.927627	-0.390904
H56	H	-0.401173	-0.913007	-0.319842
O57	O	-0.695984	-0.751184	-0.695397
H58	H	-0.735351	-0.698070	-0.734667
H59	H	-0.420312	-1.373104	-1.194624
H60	H	-0.668759	-0.570936	-0.668250
H61	H	-0.879957	-1.110427	-0.653944
O62	O	-0.378816	-0.733136	-0.379046
H63	H	-0.309995	-0.754457	-0.391888
O64	O	-0.631787	-1.135569	-1.205536
H65	H	-0.626635	-1.141341	-1.279000
O66	O	-0.678344	-1.083315	-1.063875
H67	H	-0.728998	-1.117998	-1.111713
O68	O	-0.667776	-1.095163	-0.868101
H69	H	-0.648947	-1.024716	-0.881043
H70	H	-0.411119	-1.383462	-1.023775
H71	H	-1.050843	-1.100124	-0.663233
H72	H	-0.457666	-1.331203	-0.882116
H73	H	-0.447920	-0.596321	-0.447996
O74	O	-0.869000	-1.348000	-0.442633
H75	H	-0.917837	-1.387378	-0.407658
O76	O	-1.206412	-1.388506	-0.406841
H77	H	-1.254227	-1.429018	-0.452368
O78	O	-1.204836	-1.135587	-0.631770
H79	H	-1.278302	-1.141375	-0.626659
H80	H	-1.023008	-1.383474	-0.411171
