data_functionalizedCrystal
_audit_creation_method	'MofGen! by Chris Wilmer'
_symmetry_space_group_name_H-M	'P1'
_symmetry_Int_Tables_number	1
_symmetry_cell_setting	triclinic
loop_
_symmetry_equiv_pos_as_xyz
  x,y,z
_cell_length_a	6.817900
_cell_length_b	11.168121
_cell_length_c	16.015572
_cell_angle_alpha	76.765931
_cell_angle_beta	104.485554
_cell_angle_gamma	108.508496
loop_
_atom_site_label
_atom_site_type_symbol
_atom_site_fract_x
_atom_site_fract_y
_atom_site_fract_z
V1	V	-3.999072	-0.050929	-0.269395
O2	O	-3.960769	0.129811	-0.264259
O3	O	-3.976115	-0.223478	-0.267560
O4	O	-3.927036	0.005739	-0.386884
O5	O	-4.010187	-0.100993	-0.144109
V6	V	-4.482466	-0.035914	-0.254409
O7	O	-4.260614	-0.083867	-0.302268
O8	O	-4.671122	-0.002977	-0.221536
O9	O	-4.282217	0.136635	-0.256244
O10	O	-4.638166	-0.216654	-0.259545
O11	O	-4.588748	0.014149	-0.379695
O12	O	-4.331295	-0.092583	-0.136920
C13	C	-3.828070	-0.267288	-0.263312
C14	C	-3.890428	-0.407989	-0.262594
C15	C	-3.765464	0.025102	-0.415521
C16	C	-3.788019	0.070293	-0.511569
C17	C	-4.091383	-0.474945	-0.266372
C18	C	-4.155839	-0.620367	-0.265631
C19	C	-4.135798	-0.330821	-0.889218
C20	C	-4.156989	-0.288316	-0.979466
C21	C	-4.047576	-0.068411	-0.954750
C22	C	-4.026364	-0.110897	-0.864498
C23	C	-4.070481	-0.242103	-0.831740
C24	C	-3.961048	-0.022180	-0.807020
C25	C	-3.939849	-0.064663	-0.716776
C26	C	-3.983967	-0.195864	-0.684011
C27	C	-4.049283	-0.284587	-0.741497
C28	C	-3.916947	0.109026	-0.839780
C29	C	-3.851630	0.197743	-0.782302
C30	C	-3.830416	0.155261	-0.692056
C31	C	-3.874533	0.024060	-0.659291
C32	C	-3.765100	0.243983	-0.634571
C33	C	-3.743901	0.201500	-0.544327
C34	C	-3.853335	-0.018424	-0.569047
C35	C	-4.093605	0.180437	-0.260490
C36	C	-4.010484	0.321139	-0.261213
C37	C	-4.156211	-0.111952	-0.108278
C38	C	-4.112894	-0.157137	-0.012230
H39	H	-4.215712	-0.424608	-0.270160
H40	H	-4.327987	-0.677934	-0.268855
H41	H	-3.838327	-0.621305	-0.257976
N42	N	-4.183332	-0.472336	-0.853875
H43	H	-4.227912	-0.522098	-0.903979
H44	H	-4.300803	-0.497675	-0.819956
H45	H	-3.766103	-0.458324	-0.258816
H46	H	-3.889232	-0.125265	-0.542374
N47	N	-3.717532	0.385490	-0.669916
H48	H	-3.566039	0.429085	-0.645826
H49	H	-3.813927	0.423151	-0.651787
H50	H	-3.690716	0.273743	-0.497526
N51	N	-3.999989	0.073101	-0.990080
H52	H	-4.130223	0.092725	-1.029957
H53	H	-3.882406	0.098445	-1.023940
H54	H	-3.966709	-0.230452	-0.610529
H55	H	-4.085180	-0.391428	-0.714823
H56	H	-4.210170	-0.360570	-1.026264
N57	N	-3.939780	0.154850	-0.937114
H58	H	-3.901930	0.251428	-0.949145
H59	H	-4.090259	0.118909	-0.966637
N60	N	-3.804058	0.339253	-0.817637
H61	H	-3.827400	0.352707	-0.883528
H62	H	-3.652571	0.382752	-0.793479
