data_functionalizedCrystal
_audit_creation_method	'MofGen! by Chris Wilmer'
_symmetry_space_group_name_H-M	'P1'
_symmetry_Int_Tables_number	1
_symmetry_cell_setting	triclinic
loop_
_symmetry_equiv_pos_as_xyz
  x,y,z
_cell_length_a	17.639617
_cell_length_b	19.120786
_cell_length_c	17.640968
_cell_angle_alpha	76.872907
_cell_angle_beta	70.333968
_cell_angle_gamma	103.101889
loop_
_atom_site_label
_atom_site_type_symbol
_atom_site_fract_x
_atom_site_fract_y
_atom_site_fract_z
Zn1	Zn	1.360110	0.094961	-0.726972
Zn2	Zn	1.323069	-0.055544	-0.580050
Zn3	Zn	1.190732	0.034118	-0.557573
Zn4	Zn	1.213163	-0.055474	-0.689937
O5	O	1.271768	0.004515	-0.638633
O6	O	1.472078	0.100430	-0.732389
O7	O	1.280625	-0.069142	-0.460187
O8	O	1.219315	0.142671	-0.586137
O9	O	1.444864	-0.010145	-0.624446
O10	O	1.343756	0.187372	-0.710594
O11	O	1.183398	-0.003268	-0.443673
O12	O	1.076826	-0.003200	-0.550225
O13	O	1.257545	-0.010026	-0.811732
O14	O	1.093306	-0.069023	-0.647473
O15	O	1.365506	0.100498	-0.838942
O16	O	1.302375	-0.156017	-0.588535
O17	O	1.221628	-0.155965	-0.669268
C18	C	1.054760	-0.042707	-0.592392
C19	C	0.961926	-0.062921	-0.572628
C20	C	0.727478	0.158145	-0.788983
C21	C	0.640242	0.139129	-0.770394
C22	C	0.611903	0.024105	-0.657849
C23	C	0.699139	0.043110	-0.676431
C24	C	0.756920	0.110132	-0.741998
C25	C	0.728581	-0.004904	-0.629446
C26	C	0.815809	0.014102	-0.648024
C27	C	0.873595	0.081122	-0.713587
C28	C	0.844149	0.129137	-0.760577
C29	C	0.670797	-0.071922	-0.563875
C30	C	0.700239	-0.119936	-0.516890
C31	C	0.787469	-0.100933	-0.535472
C32	C	0.845256	-0.033913	-0.601035
C33	C	0.816916	-0.148949	-0.488482
C34	C	0.904144	-0.129943	-0.507060
C35	C	0.932484	-0.014908	-0.619613
C36	C	1.260443	-0.182036	-0.627345
C37	C	1.255680	-0.261820	-0.622560
C38	C	1.318202	-0.275969	-0.685145
C39	C	1.313723	-0.350935	-0.680649
C40	C	1.246726	-0.411753	-0.613565
C41	C	1.184198	-0.397601	-0.550977
C42	C	1.188674	-0.322635	-0.555476
C43	C	1.229969	-0.639267	-0.596739
C44	C	1.225500	-0.714236	-0.592243
C45	C	1.355025	-0.667566	-0.721917
C46	C	1.359497	-0.592601	-0.726408
C47	C	1.296967	-0.578456	-0.663822
C48	C	1.242148	-0.488381	-0.608967
C49	C	1.301542	-0.501828	-0.668424
C50	C	1.489625	0.051921	-0.685056
C51	C	1.582462	0.072123	-0.704839
C52	C	1.318159	0.052031	-0.856491
C53	C	1.337929	0.072279	-0.949329
C54	C	1.283165	0.191804	-0.649989
C55	C	1.288022	0.271615	-0.654828
C56	C	1.121929	-0.148847	-1.183834
C57	C	1.140523	-0.129808	-1.271074
C58	C	1.252934	-0.014729	-1.299394
C59	C	1.234346	-0.033757	-1.212155
C60	C	1.168844	-0.100817	-1.154381
C61	C	1.281261	0.014274	-1.182702
C62	C	1.262678	-0.004755	-1.095471
C63	C	1.197180	-0.071813	-1.037692
C64	C	1.150260	-0.119846	-1.067150
C65	C	1.346768	0.081331	-1.240478
C66	C	1.393682	0.129361	-1.211025
C67	C	1.375095	0.110336	-1.123791
C68	C	1.309597	0.043277	-1.066013
C69	C	1.422015	0.158368	-1.094334
C70	C	1.403431	0.139339	-1.007102
C71	C	1.291014	0.024249	-0.978782
C72	C	1.225609	-0.042753	-0.421637
C73	C	1.206014	-0.062763	-0.328846
H74	H	0.774529	0.212719	-0.842378
H75	H	0.979534	0.039666	-0.673007
O76	O	1.058207	-0.213918	-1.127665
C77	C	0.996004	-0.195794	-1.068175
H78	H	0.999882	-0.134628	-1.096782
H79	H	0.929939	-0.235966	-1.051927
H80	H	1.007892	-0.202130	-1.007712
H81	H	1.372761	-0.226454	-0.739769
H82	H	0.599768	-0.087382	-0.548733
H83	H	0.653182	-0.174503	-0.463503
O84	O	0.611791	0.185838	-0.816152
C85	C	0.681496	0.249075	-0.877991
H86	H	0.742503	0.233831	-0.892289
H87	H	0.670777	0.265512	-0.938907
H88	H	0.687572	0.299017	-0.852782
O89	O	1.374559	-0.364545	-0.741484
C90	C	1.434648	-0.294791	-0.801661
H91	H	1.433457	-0.248188	-0.771281
H92	H	1.501069	-0.300121	-0.823328
H93	H	1.418011	-0.279660	-0.859036
H94	H	1.475352	0.212964	-1.141386
O95	O	0.555754	-0.041056	-0.594268
C96	C	0.512590	-0.088118	-0.628182
H97	H	0.552618	-0.072561	-0.699285
H98	H	0.501805	-0.150160	-0.594323
H99	H	0.448445	-0.079689	-0.618360
H100	H	1.182054	-0.087307	-0.966664
H101	H	1.096902	-0.174440	-1.020103
O102	O	1.449058	0.186097	-0.978624
C103	C	1.510869	0.249357	-1.048323
H104	H	1.490059	0.257967	-1.103371
H105	H	1.517848	0.302370	-1.028441
H106	H	1.574681	0.238891	-1.069518
O107	O	1.094837	-0.176536	-1.299536
C108	C	1.033057	-0.239814	-1.229838
H109	H	1.018705	-0.224596	-1.168823
H110	H	0.972153	-0.256298	-1.240561
H111	H	1.058352	-0.289714	-1.223771
H112	H	0.769857	-0.203513	-0.435092
O113	O	1.316508	0.050399	-1.355629
C114	C	1.322868	0.056886	-1.438941
H115	H	1.259520	0.021940	-1.435702
H116	H	1.338865	0.119134	-1.476561
H117	H	1.375360	0.034830	-1.471929
H118	H	1.361898	0.096820	-1.311507
H119	H	0.928115	-0.169041	-0.468801
H120	H	1.447017	0.183960	-1.258076
O121	O	1.424619	-0.533613	-0.791649
C122	C	1.478858	-0.562176	-0.845912
H123	H	1.442062	-0.622458	-0.838287
H124	H	1.503034	-0.524202	-0.914916
H125	H	1.535335	-0.562966	-0.828414
H126	H	0.891199	0.183711	-0.813971
O127	O	0.958363	0.099619	-0.731794
C128	C	1.003426	0.104860	-0.816892
H129	H	0.964145	0.116606	-0.855053
H130	H	1.066912	0.153194	-0.846190
H131	H	1.015660	0.049020	-0.818247
H132	H	1.356089	-0.452309	-0.723047
H133	H	1.405933	-0.679092	-0.772872
O134	O	1.160334	-0.773229	-0.527040
C135	C	1.106112	-0.744670	-0.472753
H136	H	1.113665	-0.684399	-0.509546
H137	H	1.037109	-0.782662	-0.448472
H138	H	1.123716	-0.743856	-0.416346
O139	O	1.169171	-0.625497	-0.536042
C140	C	1.127894	-0.583537	-0.574642
H141	H	1.135342	-0.592895	-0.637959
H142	H	1.057243	-0.603338	-0.530733
H143	H	1.157718	-0.520449	-0.586447
H144	H	1.129644	-0.447124	-0.496358
H145	H	1.237656	-0.030346	-0.931735
O146	O	1.127829	-0.308983	-0.494694
C147	C	1.047348	-0.341498	-0.494054
H148	H	1.049181	-0.389302	-0.522517
H149	H	0.996943	-0.365401	-0.425618
H150	H	1.030843	-0.296085	-0.533509
O151	O	1.177092	-0.547396	-0.543695
C152	C	1.178801	-0.543268	-0.465468
H153	H	1.213795	-0.482198	-0.473870
H154	H	1.110716	-0.562057	-0.415274
H155	H	1.213270	-0.582211	-0.444003
