data_functionalizedCrystal
_audit_creation_method	'MofGen! by Chris Wilmer'
_symmetry_space_group_name_H-M	'P1'
_symmetry_Int_Tables_number	1
_symmetry_cell_setting	triclinic
loop_
_symmetry_equiv_pos_as_xyz
  x,y,z
_cell_length_a	14.519709
_cell_length_b	10.654541
_cell_length_c	9.730217
_cell_angle_alpha	90.000068
_cell_angle_beta	89.995799
_cell_angle_gamma	95.917963
loop_
_atom_site_label
_atom_site_type_symbol
_atom_site_fract_x
_atom_site_fract_y
_atom_site_fract_z
O1	O	0.129520	-1.666593	-0.114251
O2	O	0.141863	-1.300995	-0.114263
O3	O	0.001504	-1.493488	-0.114245
O4	O	0.269880	-1.474101	-0.114270
O5	O	0.001502	-1.493482	0.114335
O6	O	0.141862	-1.300990	0.114317
O7	O	0.129519	-1.666587	0.114329
Zn8	Zn	0.135690	-1.483787	0.150615
Zn9	Zn	0.135692	-1.483795	-0.150549
O10	O	0.269879	-1.474095	0.114310
C11	C	-0.032862	-1.492581	0.000046
C12	C	-0.135257	-1.489874	0.000046
C13	C	0.140957	-1.254203	0.000025
C14	C	0.138247	-1.114786	0.000021
C15	C	0.130425	-1.713380	0.000037
C16	C	0.133135	-1.852797	0.000033
C17	C	-0.510204	-1.479906	0.000010
C18	C	-0.405882	-1.482674	0.000021
C19	C	-0.322734	-1.484890	0.000030
C20	C	-0.218405	-1.487658	0.000037
C21	C	0.304244	-1.475002	0.000017
C22	C	0.406639	-1.477709	0.000007
N23	N	0.135689	-1.483791	0.356151
C24	C	0.306085	-1.085201	-0.000012
C25	C	0.388727	-1.004912	-0.000034
C26	C	0.386175	-0.873919	-0.000035
C27	C	0.300972	-0.823213	-0.000010
C28	C	0.218330	-0.903502	0.000012
C29	C	0.220891	-1.034496	0.000009
C30	C	0.050493	-0.933086	0.000055
C31	C	0.053043	-1.064080	0.000046
C32	C	-0.034710	-0.882380	0.000080
C33	C	-0.117354	-0.962669	0.000092
C34	C	-0.114798	-1.093670	0.000091
C35	C	-0.029599	-1.144369	0.000068
N36	N	0.135686	-1.483801	-0.356086
C37	C	0.011436	-1.654312	0.356159
C38	C	-0.050687	-1.739581	0.428102
C39	C	-0.050688	-1.739594	0.571982
C40	C	0.011440	-1.654326	0.643921
C41	C	0.073564	-1.569057	0.571978
C42	C	0.073559	-1.569056	0.428095
C43	C	0.197810	-1.398532	0.571971
C44	C	0.197816	-1.398523	0.428091
C45	C	0.259938	-1.313264	0.643910
C46	C	0.322067	-1.227999	0.571967
C47	C	0.322066	-1.227991	0.428078
C48	C	0.259940	-1.313254	0.356147
H49	H	0.458098	-1.046212	-0.000051
O50	O	-0.117711	-1.831509	0.350493
H51	H	-0.078486	-1.892628	0.284918
O52	O	-0.026837	-1.285653	0.000077
H53	H	-0.062385	-1.326567	0.093255
H54	H	0.011438	-1.654321	0.239004
H55	H	0.298901	-0.716550	0.000005
H56	H	-0.101277	-1.809023	0.630559
O57	O	-0.203935	-1.180268	0.000117
H58	H	-0.263604	-1.122997	0.000126
H59	H	0.453470	-0.808546	-0.000043
O60	O	0.259949	-1.313277	0.799095
H61	H	0.206323	-1.386905	0.837040
O62	O	-0.037470	-0.741095	0.000089
H63	H	-0.001933	-0.700169	-0.093091
H64	H	0.011428	-1.654332	0.761076
O65	O	0.389074	-1.136043	0.649551
H66	H	0.378637	-1.150378	0.761685
H67	H	0.372650	-1.158550	0.369509
O68	O	0.259928	-1.313247	0.200962
H69	H	0.328958	-1.333476	0.163000
O70	O	0.308833	-1.226488	-0.000007
H71	H	0.345729	-1.254649	-0.093178
O72	O	-0.209245	-0.907985	0.000124
H73	H	-0.197135	-0.803409	0.000122
