data_functionalizedCrystal
_audit_creation_method	'MofGen! by Chris Wilmer'
_symmetry_space_group_name_H-M	'P1'
_symmetry_Int_Tables_number	1
_symmetry_cell_setting	triclinic
loop_
_symmetry_equiv_pos_as_xyz
  x,y,z
_cell_length_a	13.032831
_cell_length_b	16.625546
_cell_length_c	13.032268
_cell_angle_alpha	82.855386
_cell_angle_beta	89.113023
_cell_angle_gamma	82.826778
loop_
_atom_site_label
_atom_site_type_symbol
_atom_site_fract_x
_atom_site_fract_y
_atom_site_fract_z
Zn1	Zn	1.498429	-0.544521	0.780776
Zn2	Zn	1.831763	-0.211187	1.114110
Zn3	Zn	2.165096	0.122146	1.447443
Zn4	Zn	1.520160	-0.664651	0.608784
Zn5	Zn	1.853494	-0.331318	0.942117
Zn6	Zn	2.186827	0.002015	1.275450
Zn7	Zn	1.348291	-0.510838	0.587021
Zn8	Zn	1.681624	-0.177505	0.920354
Zn9	Zn	2.014957	0.155828	1.253688
Zn10	Zn	1.326409	-0.660292	0.758909
Zn11	Zn	1.659742	-0.326958	1.092243
Zn12	Zn	1.993076	0.006375	1.425576
O13	O	1.423322	-0.595075	0.683873
O14	O	1.756656	-0.261742	1.017206
O15	O	2.089989	0.071591	1.350539
O16	O	1.645231	-0.576377	0.776220
O17	O	1.978564	-0.243044	1.109554
O18	O	2.311898	0.090290	1.442887
O19	O	1.515614	-0.631976	0.461981
O20	O	1.848947	-0.298642	0.795315
O21	O	2.182280	0.034691	1.128648
O22	O	1.368270	-0.402484	0.612767
O23	O	1.701603	-0.069151	0.946100
O24	O	2.034937	0.264182	1.279434
O25	O	1.661197	-0.664636	0.649858
O26	O	1.994530	-0.331303	0.983191
O27	O	2.327864	0.002030	1.316525
O28	O	1.478576	-0.427231	0.755118
O29	O	1.811909	-0.093897	1.088452
O30	O	2.145243	0.239436	1.421785
O31	O	1.389342	-0.518970	0.445992
O32	O	1.722675	-0.185637	0.779326
O33	O	2.056008	0.147697	1.112659
O34	O	1.201469	-0.514743	0.591563
O35	O	1.534802	-0.181410	0.924897
O36	O	1.868136	0.151924	1.258230
O37	O	1.330976	-0.657206	0.905725
O38	O	1.664309	-0.323873	1.239059
O39	O	1.997642	0.009460	1.572392
O40	O	1.185392	-0.624546	0.717849
O41	O	1.518726	-0.291212	1.051182
O42	O	1.852059	0.042121	1.384515
O43	O	1.457358	-0.572150	0.921791
O44	O	1.790692	-0.238816	1.255125
O45	O	2.124025	0.094517	1.588458
O46	O	1.494396	-0.776895	0.628654
O47	O	1.827729	-0.443562	0.961988
O48	O	2.161063	-0.110228	1.295321
O49	O	1.352048	-0.773692	0.738951
O50	O	1.685381	-0.440359	1.072284
O51	O	2.018714	-0.107025	1.405618
C52	C	1.156114	-0.565517	0.649972
C53	C	1.489447	-0.232184	0.983305
C54	C	1.822781	0.101150	1.316639
C55	C	1.041798	-0.552893	0.635494
C56	C	1.375131	-0.219560	0.968827
C57	C	1.708465	0.113774	1.302160
C58	C	0.982917	-0.601664	0.691429
C59	C	1.316251	-0.268331	1.024762
C60	C	1.649584	0.065003	1.358096
C61	C	0.864766	-0.588618	0.676466
C62	C	1.198099	-0.255285	1.009800
C63	C	1.531432	0.078049	1.343133
C64	C	1.423230	-0.804552	0.683817
C65	C	1.756564	-0.471219	1.017151
C66	C	2.089897	-0.137885	1.350484
C67	C	1.423281	-0.894180	0.683840
C68	C	1.756614	-0.560847	1.017173
C69	C	2.089948	-0.227513	1.350506
C70	C	1.423447	-1.222385	0.683970
C71	C	1.756780	-0.889051	1.017303
C72	C	2.090113	-0.555718	1.350636
C73	C	1.423397	-1.131068	0.683936
C74	C	1.756730	-0.797735	1.017269
C75	C	2.090064	-0.464401	1.350603
C76	C	1.423363	-1.058285	0.683904
C77	C	1.756696	-0.724952	1.017237
C78	C	2.090030	-0.391619	1.350571
C79	C	1.423315	-0.966963	0.683872
C80	C	1.756648	-0.633630	1.017205
C81	C	2.089981	-0.300296	1.350538
C82	C	1.691574	-0.624750	0.717906
C83	C	2.024907	-0.291417	1.051239
C84	C	2.358241	0.041917	1.384573
C85	C	1.805887	-0.637396	0.732409
C86	C	2.139220	-0.304062	1.065742
C87	C	2.472554	0.029271	1.399076
C88	C	1.389302	-0.617949	0.952117
C89	C	1.722635	-0.284616	1.285451
C90	C	2.055969	0.048718	1.618784
C91	C	1.374805	-0.627696	1.066427
C92	C	1.708138	-0.294363	1.399761
C93	C	2.041471	0.038970	1.733094
C94	C	1.423440	-0.384786	0.683954
C95	C	1.756773	-0.051453	1.017288
C96	C	2.090106	0.281881	1.350621
C97	C	1.423490	-0.295173	0.683989
C98	C	1.756823	0.038160	1.017322
C99	C	2.090156	0.371493	1.350656
C100	C	1.457270	-0.572239	0.416679
C101	C	1.790603	-0.238906	0.750012
C102	C	2.123936	0.094427	1.083346
C103	C	1.471966	-0.562287	0.302395
C104	C	1.805300	-0.228954	0.635728
C105	C	2.138633	0.104380	0.969062
C106	C	1.430873	-0.589958	1.125339
C107	C	1.764206	-0.256624	1.458673
C108	C	2.097539	0.076709	1.792006
C109	C	1.415890	-0.600031	1.243485
C110	C	1.749224	-0.266698	1.576818
C111	C	2.082557	0.066636	1.910151
H112	H	1.004736	-0.501477	0.576533
H113	H	1.338069	-0.168144	0.909866
H114	H	1.671403	0.165189	1.243199
C115	C	1.551804	-0.508559	1.252393
C116	C	1.885137	-0.175226	1.585726
C117	C	2.218470	0.158108	1.919060
H118	H	1.585031	-0.486185	1.304676
H119	H	1.918365	-0.152851	1.638009
H120	H	2.251698	0.180482	1.971342
H121	H	1.601873	-0.540807	1.216155
H122	H	1.935207	-0.207474	1.549488
H123	H	2.268540	0.125860	1.882822
H124	H	1.517750	-0.465526	1.205510
H125	H	1.851083	-0.132193	1.538843
H126	H	2.184417	0.201140	1.872177
H127	H	1.019978	-0.653074	0.750398
H128	H	1.353312	-0.319741	1.083731
H129	H	1.686645	0.013592	1.417065
C130	C	1.294977	-0.681423	1.116442
C131	C	1.628310	-0.348090	1.449775
C132	C	1.961644	-0.014757	1.783108
H133	H	1.295386	-0.681151	1.189289
H134	H	1.628719	-0.347818	1.522622
H135	H	1.962053	-0.014485	1.855955
H136	H	1.228090	-0.660500	1.090126
H137	H	1.561424	-0.327167	1.423459
H138	H	1.894757	0.006167	1.756793
H139	H	1.312221	-0.735776	1.100776
H140	H	1.645554	-0.402442	1.434109
H141	H	1.978888	-0.069109	1.767443
H142	H	0.827708	-0.537199	0.617501
H143	H	1.161042	-0.203865	0.950834
H144	H	1.494375	0.129468	1.284168
C145	C	0.855939	-0.706870	0.812052
C146	C	1.189272	-0.373537	1.145385
C147	C	1.522606	-0.040203	1.478718
H148	H	0.928786	-0.706536	0.811649
H149	H	1.262119	-0.373203	1.144982
H150	H	1.595452	-0.039869	1.478315
H151	H	0.829643	-0.699145	0.878981
H152	H	1.162977	-0.365812	1.212314
H153	H	1.496310	-0.032479	1.545648
H154	H	0.840280	-0.757800	0.794637
H155	H	1.173614	-0.424466	1.127970
H156	H	1.506947	-0.091133	1.461303
H157	H	1.489963	-0.550187	1.088309
H158	H	1.823296	-0.216854	1.421642
H159	H	2.156630	0.116479	1.754976
C160	C	1.336058	-0.653761	1.293494
C161	C	1.669392	-0.320427	1.626828
C162	C	2.002725	0.012906	1.960161
H163	H	1.336468	-0.653489	1.366341
H164	H	1.669801	-0.320156	1.699675
H165	H	2.003134	0.013178	2.033008
H166	H	1.269172	-0.632838	1.267179
H167	H	1.602505	-0.299504	1.600512
H168	H	1.935839	0.033829	1.933846
H169	H	1.353303	-0.708113	1.277829
H170	H	1.686636	-0.374780	1.611162
H171	H	2.019969	-0.041447	1.944496
