data_functionalizedCrystal
_audit_creation_method	'MofGen! by Chris Wilmer'
_symmetry_space_group_name_H-M	'P1'
_symmetry_Int_Tables_number	1
_symmetry_cell_setting	triclinic
loop_
_symmetry_equiv_pos_as_xyz
  x,y,z
_cell_length_a	9.065215
_cell_length_b	10.654550
_cell_length_c	8.140239
_cell_angle_alpha	89.997641
_cell_angle_beta	89.997810
_cell_angle_gamma	84.749800
loop_
_atom_site_label
_atom_site_type_symbol
_atom_site_fract_x
_atom_site_fract_y
_atom_site_fract_z
O1	O	1.959394	0.184140	-0.136590
O2	O	1.530026	0.199249	-0.136597
O3	O	1.754582	0.008995	-0.136587
O4	O	1.734838	0.374395	-0.136600
O5	O	1.754569	0.008992	0.136640
O6	O	1.530013	0.199247	0.136630
O7	O	1.959381	0.184138	0.136637
Zn8	Zn	1.744695	0.191692	0.180014
Zn9	Zn	1.744712	0.191695	-0.179974
O10	O	1.734825	0.374393	0.136628
C11	C	1.475041	0.197797	0.000016
C12	C	1.311221	0.193458	0.000013
C13	C	1.753126	-0.037810	0.000024
C14	C	1.748789	-0.177271	0.000019
C15	C	1.881003	-0.256234	0.000026
C16	C	1.876919	-0.387271	0.000014
C17	C	1.608393	-0.360369	-0.000005
C18	C	1.612479	-0.229334	-0.000005
C19	C	2.017313	-0.204170	0.000049
C20	C	2.149539	-0.283135	0.000058
C21	C	2.145454	-0.414172	0.000047
C22	C	2.009144	-0.466244	0.000026
C23	C	2.014366	0.185590	0.000021
C24	C	2.178186	0.189930	0.000013
C25	C	1.736281	0.421198	0.000012
C26	C	1.740618	0.560658	0.000007
N27	N	1.744695	0.191689	0.425697
N28	N	1.744724	0.191688	-0.425657
H29	H	2.260517	-0.240728	0.000034
H30	H	2.253119	-0.478462	0.000037
H31	H	1.504818	-0.165040	-0.000009
H32	H	2.005829	-0.572945	-0.000001
C33	C	1.460556	-0.417143	0.000072
C34	C	1.485277	-0.548799	0.000120
C35	C	1.349123	-0.601140	0.000219
H36	H	1.405948	-0.390283	-0.095184
H37	H	1.406041	-0.390215	0.095389
H38	H	1.539769	-0.575716	-0.095188
H39	H	1.539862	-0.575694	0.095368
H40	H	1.294608	-0.574211	0.095536
H41	H	1.294525	-0.574271	-0.095039
H42	H	1.365878	-0.690473	0.000266
H43	H	2.020654	-0.097475	0.000064
