data_functionalizedCrystal
_audit_creation_method	'MofGen! by Chris Wilmer'
_symmetry_space_group_name_H-M	'P1'
_symmetry_Int_Tables_number	1
_symmetry_cell_setting	triclinic
loop_
_symmetry_equiv_pos_as_xyz
  x,y,z
_cell_length_a	6.817900
_cell_length_b	17.982783
_cell_length_c	17.982968
_cell_angle_alpha	95.926085
_cell_angle_beta	77.548040
_cell_angle_gamma	77.551428
loop_
_atom_site_label
_atom_site_type_symbol
_atom_site_fract_x
_atom_site_fract_y
_atom_site_fract_z
V1	V	4.009918	-0.106127	-0.237867
O2	O	4.003034	0.004365	-0.233013
O3	O	3.956470	-0.209725	-0.236553
O4	O	3.956489	-0.104816	-0.341466
O5	O	4.003015	-0.101269	-0.127374
V6	V	4.494852	-0.092872	-0.224613
O7	O	4.268082	-0.135201	-0.266940
O8	O	4.686885	-0.063798	-0.195540
O9	O	4.325093	0.010726	-0.225927
O10	O	4.619133	-0.203364	-0.229466
O11	O	4.619152	-0.097730	-0.335106
O12	O	4.325074	-0.094183	-0.121014
C13	C	3.800406	-0.234970	-0.232881
C14	C	3.837959	-0.319665	-0.232498
C15	C	3.819323	-0.348365	-0.162514
C16	C	3.854628	-0.427945	-0.162156
C17	C	3.908554	-0.478825	-0.231782
C18	C	3.927196	-0.450120	-0.301772
C19	C	3.891906	-0.370541	-0.302129
C20	C	4.069522	-0.771054	-0.300333
C21	C	4.104806	-0.850638	-0.299970
C22	C	4.032244	-0.828458	-0.160359
C23	C	3.996953	-0.748879	-0.160716
C24	C	4.015609	-0.720182	-0.230705
C25	C	3.977331	-0.633891	-0.231093
C26	C	3.946818	-0.565113	-0.231396
C27	C	3.800429	-0.101148	-0.366707
C28	C	3.837995	-0.100762	-0.451402
C29	C	4.144500	0.035967	-0.229596
C30	C	4.086185	0.120661	-0.229985
C31	C	4.037378	-0.104398	-0.495085
C32	C	4.072664	-0.104036	-0.574664
C33	C	3.908566	-0.100041	-0.610561
C34	C	3.709166	-0.096402	-0.566872
C35	C	3.673880	-0.096760	-0.487293
C36	C	3.851463	-0.094959	-0.887805
C37	C	3.886766	-0.094604	-0.967390
C38	C	4.250247	-0.102235	-0.975176
C39	C	4.214961	-0.102593	-0.895597
C40	C	4.015563	-0.098949	-0.851915
C41	C	3.977304	-0.099342	-0.765625
C42	C	3.946825	-0.099655	-0.696849
C43	C	4.144477	-0.097854	-0.095769
C44	C	4.086149	-0.098236	-0.011073
H45	H	4.017064	-0.851832	-0.103370
C46	C	3.937629	-0.692915	-0.084122
N47	N	3.892953	-0.650764	-0.026429
C48	C	4.469588	-0.106233	-1.023232
N49	N	4.634792	-0.109244	-1.059427
C50	C	3.834114	-0.459510	-0.085167
N51	N	3.818660	-0.483284	-0.027176
C52	C	3.760003	-0.292403	-0.085917
N53	N	3.715331	-0.250255	-0.028223
C54	C	4.164145	-0.906605	-0.376569
N55	N	4.208840	-0.948759	-0.434260
C56	C	4.395482	-0.106983	-0.856115
N57	N	4.531453	-0.110285	-0.826378
H58	H	4.171013	-0.107656	-0.465865
H59	H	4.084688	-0.747698	-0.357321
C60	C	3.986497	-0.506090	-0.378362
N61	N	4.031146	-0.548246	-0.436051
C62	C	3.912401	-0.338973	-0.379117
N63	N	3.927843	-0.315197	-0.437107
C64	C	3.454547	-0.092762	-0.439243
N65	N	3.289338	-0.089749	-0.403052
H66	H	4.235015	-0.106992	-0.610227
C67	C	3.528615	-0.091927	-0.606348
N68	N	3.392607	-0.088531	-0.636076
H69	H	3.753126	-0.091350	-0.996613
H70	H	3.689120	-0.092020	-0.852252
