data_functionalizedCrystal
_audit_creation_method	'MofGen! by Chris Wilmer'
_symmetry_space_group_name_H-M	'P1'
_symmetry_Int_Tables_number	1
_symmetry_cell_setting	triclinic
loop_
_symmetry_equiv_pos_as_xyz
  x,y,z
_cell_length_a	13.897448
_cell_length_b	13.897449
_cell_length_c	13.897441
_cell_angle_alpha	90.022859
_cell_angle_beta	90.028012
_cell_angle_gamma	90.019402
loop_
_atom_site_label
_atom_site_type_symbol
_atom_site_fract_x
_atom_site_fract_y
_atom_site_fract_z
Zn1	Zn	0.383988	-1.474690	-0.545453
Zn2	Zn	0.545310	-1.474579	-0.384162
Zn3	Zn	0.384030	-1.313379	-0.384166
Zn4	Zn	0.545243	-1.313356	-0.545408
O5	O	0.464643	-1.394001	-0.464797
O6	O	0.405399	-1.609657	-0.524075
O7	O	0.523962	-1.453159	-0.249181
O8	O	0.249043	-1.334834	-0.405581
O9	O	0.523921	-1.609575	-0.405575
O10	O	0.249012	-1.453348	-0.524078
O11	O	0.405470	-1.334726	-0.249183
O12	O	0.405405	-1.178394	-0.405538
O13	O	0.523806	-1.334794	-0.680396
O14	O	0.523847	-1.178377	-0.524002
O15	O	0.405333	-1.453325	-0.680429
O16	O	0.680283	-1.453136	-0.405531
O17	O	0.680233	-1.334686	-0.523999
C18	C	0.464624	-1.143387	-0.464766
C19	C	0.464639	-1.036173	-0.464775
C20	C	0.464637	-0.839878	-0.464794
C21	C	0.464635	-0.949110	-0.464781
C22	C	0.715257	-1.393922	-0.464781
C23	C	0.822471	-1.393977	-0.464806
C24	C	1.018766	-1.394072	-0.464875
C25	C	0.909534	-1.394016	-0.464840
C26	C	1.213050	-1.394098	-0.464846
C27	C	1.105836	-1.394118	-0.464896
C28	C	0.464558	-1.394069	-0.716390
C29	C	0.464521	-1.394098	-0.823604
C30	C	0.464656	-0.645594	-0.464820
C31	C	0.464646	-0.752808	-0.464806
C32	C	0.464456	-1.394125	-1.019900
C33	C	0.464495	-1.394107	-0.910667
C34	C	0.464658	-1.393988	-0.214183
C35	C	0.464423	-1.394146	-0.106970
