data_functionalizedCrystal
_audit_creation_method	'MofGen! by Chris Wilmer'
_symmetry_space_group_name_H-M	'P1'
_symmetry_Int_Tables_number	1
_symmetry_cell_setting	triclinic
loop_
_symmetry_equiv_pos_as_xyz
  x,y,z
_cell_length_a	29.839134
_cell_length_b	29.839131
_cell_length_c	21.395355
_cell_angle_alpha	89.972174
_cell_angle_beta	89.963393
_cell_angle_gamma	90.027971
loop_
_atom_site_label
_atom_site_type_symbol
_atom_site_fract_x
_atom_site_fract_y
_atom_site_fract_z
Zn1	Zn	0.686793	-0.178992	-0.354422
Zn2	Zn	1.020127	0.154341	-0.021089
Zn3	Zn	1.353460	0.487674	0.312244
Zn4	Zn	0.686718	-0.254108	-0.249628
Zn5	Zn	1.020051	0.079226	0.083706
Zn6	Zn	1.353384	0.412559	0.417039
Zn7	Zn	0.611660	-0.178983	-0.249637
Zn8	Zn	0.944993	0.154350	0.083696
Zn9	Zn	1.278327	0.487684	0.417030
Zn10	Zn	0.611632	-0.254086	-0.354346
Zn11	Zn	0.944965	0.079247	-0.021013
Zn12	Zn	1.278299	0.412580	0.312321
O13	O	0.649201	-0.216542	-0.302008
O14	O	0.982534	0.116791	0.031325
O15	O	1.315867	0.450124	0.364658
O16	O	0.749651	-0.188969	-0.340549
O17	O	1.082984	0.144364	-0.007216
O18	O	1.416317	0.477697	0.326117
O19	O	0.676741	-0.244147	-0.161951
O20	O	1.010074	0.089186	0.171382
O21	O	1.343408	0.422520	0.504716
O22	O	0.621670	-0.116117	-0.263573
O23	O	0.955004	0.217216	0.069761
O24	O	1.288337	0.550550	0.403094
O25	O	0.749595	-0.244156	-0.263557
O26	O	1.082928	0.089177	0.069776
O27	O	1.416261	0.422511	0.403110
O28	O	0.676870	-0.116124	-0.340558
O29	O	1.010204	0.217209	-0.007225
O30	O	1.343537	0.550543	0.326109
O31	O	0.621597	-0.188953	-0.161958
O32	O	0.954930	0.144380	0.171375
O33	O	1.288263	0.477713	0.504709
O34	O	0.548789	-0.188933	-0.263499
O35	O	0.882123	0.144401	0.069835
O36	O	1.215456	0.477734	0.403168
O37	O	0.621622	-0.244120	-0.442034
O38	O	0.954956	0.089213	-0.108701
O39	O	1.288289	0.422546	0.224633
O40	O	0.548769	-0.244111	-0.340428
O41	O	0.882102	0.089222	-0.007095
O42	O	1.215435	0.422556	0.326239
O43	O	0.676843	-0.188949	-0.442090
O44	O	1.010176	0.144385	-0.108757
O45	O	1.343510	0.477718	0.224577
O46	O	0.676714	-0.316972	-0.263483
O47	O	1.010047	0.016361	0.069850
O48	O	1.343381	0.349695	0.403184
O49	O	0.621549	-0.316956	-0.340419
O50	O	0.954882	0.016377	-0.007086
O51	O	1.288216	0.349710	0.326248
C52	C	0.532478	-0.216519	-0.301956
C53	C	0.865812	0.116814	0.031377
C54	C	1.199145	0.450148	0.364710
C55	C	0.482544	-0.216520	-0.301949
C56	C	0.815877	0.116814	0.031384
C57	C	1.149211	0.450147	0.364718
C58	C	0.125955	-0.187768	-0.262033
C59	C	0.459288	0.145565	0.071300
C60	C	0.792622	0.478898	0.404634
C61	C	0.313628	-0.187756	-0.261995
C62	C	0.646961	0.145578	0.071338
C63	C	0.980295	0.478911	0.404672
O64	O	0.337891	-0.163272	-0.227999
O65	O	0.671224	0.170061	0.105335
O66	O	1.004558	0.503394	0.438668
N67	N	0.337099	-0.216527	-0.301981
N68	N	0.670432	0.116806	0.031353
N69	N	1.003765	0.450140	0.364686
C70	C	0.313648	-0.245301	-0.341982
C71	C	0.646982	0.088032	-0.008648
C72	C	0.980315	0.421365	0.324685
O73	O	0.337918	-0.269770	-0.375995
O74	O	0.671251	0.063564	-0.042662
O75	O	1.004584	0.396897	0.290671
C76	C	0.125976	-0.245311	-0.342022
C77	C	0.459309	0.088022	-0.008689
C78	C	0.792643	0.421355	0.324644
C79	C	0.102508	-0.216542	-0.302030
C80	C	0.435841	0.116792	0.031304
C81	C	0.769174	0.450125	0.364637
C82	C	0.102487	-0.159001	-0.222044
C83	C	0.435820	0.174333	0.111289
C84	C	0.769153	0.507666	0.444623
C85	C	0.055571	-0.159006	-0.222052
C86	C	0.388904	0.174328	0.111282
C87	C	0.722238	0.507661	0.444615
C88	C	0.032124	-0.187779	-0.262048
C89	C	0.365457	0.145554	0.071285
C90	C	0.698791	0.478888	0.404619
C91	C	0.055592	-0.216547	-0.302037
C92	C	0.388926	0.116787	0.031296
C93	C	0.722259	0.450120	0.364630
C94	C	0.102527	-0.274083	-0.382026
C95	C	0.435860	0.059250	-0.048693
C96	C	0.769193	0.392583	0.284641
C97	C	0.055606	-0.274082	-0.382034
C98	C	0.388939	0.059251	-0.048700
C99	C	0.722272	0.392584	0.284633
C100	C	0.032137	-0.245313	-0.342041
C101	C	0.365471	0.088021	-0.008708
C102	C	0.698804	0.421354	0.324626
C103	C	-0.014770	-0.245325	-0.342041
C104	C	0.318563	0.088008	-0.008708
C105	C	0.651896	0.421342	0.324626
N106	N	-0.038241	-0.216554	-0.302055
N107	N	0.295092	0.116780	0.031278
N108	N	0.628426	0.450113	0.364611
C109	C	-0.014794	-0.187781	-0.262059
C110	C	0.318539	0.145553	0.071274
C111	C	0.651873	0.478886	0.404608
C112	C	0.412179	-0.245295	-0.341956
C113	C	0.745512	0.088039	-0.008623
C114	C	1.078846	0.421372	0.324710
C115	C	0.459097	-0.245293	-0.341946
C116	C	0.792430	0.088040	-0.008612
C117	C	1.125763	0.421374	0.324721
C118	C	0.459073	-0.187747	-0.261960
C119	C	0.792407	0.145587	0.071374
C120	C	1.125740	0.478920	0.404707
C121	C	0.412154	-0.187751	-0.261968
C122	C	0.745488	0.145582	0.071365
C123	C	1.078821	0.478916	0.404699
C124	C	0.388708	-0.216523	-0.301971
C125	C	0.722042	0.116810	0.031362
C126	C	1.055375	0.450143	0.364696
C127	C	-0.113320	-0.187794	-0.262077
C128	C	0.220014	0.145539	0.071256
C129	C	0.553347	0.478873	0.404589
C130	C	-0.160239	-0.187803	-0.262086
C131	C	0.173094	0.145530	0.071247
C132	C	0.506427	0.478864	0.404580
C133	C	-0.160212	-0.245348	-0.342074
C134	C	0.173122	0.087986	-0.008741
C135	C	0.506455	0.421319	0.324592
C136	C	-0.113296	-0.245340	-0.342063
C137	C	0.220037	0.087993	-0.008730
C138	C	0.553371	0.421326	0.324604
C139	C	-0.089851	-0.216560	-0.302062
C140	C	0.243482	0.116773	0.031271
C141	C	0.576815	0.450107	0.364604
O142	O	-0.039062	-0.269792	-0.376025
O143	O	0.294271	0.063541	-0.042691
O144	O	0.627604	0.396875	0.290642
O145	O	-0.039071	-0.163309	-0.228060
O146	O	0.294262	0.170024	0.105273
O147	O	0.627595	0.503357	0.438607
C148	C	0.172870	-0.187763	-0.262026
C149	C	0.506204	0.145570	0.071308
C150	C	0.839537	0.478903	0.404641
C151	C	0.196339	-0.216531	-0.302015
C152	C	0.529672	0.116802	0.031319
C153	C	0.863005	0.450135	0.364652
C154	C	0.172892	-0.245304	-0.342011
C155	C	0.506225	0.088029	-0.008678
C156	C	0.839558	0.421362	0.324656
C157	C	0.243257	-0.216529	-0.302004
C158	C	0.576590	0.116804	0.031330
C159	C	0.909923	0.450137	0.364663
C160	C	0.266704	-0.187756	-0.262007
C161	C	0.600037	0.145577	0.071326
C162	C	0.933370	0.478910	0.404659
C163	C	0.243233	-0.158985	-0.222022
C164	C	0.576566	0.174348	0.111312
C165	C	0.909900	0.507682	0.444645
C166	C	0.196317	-0.158990	-0.222029
C167	C	0.529651	0.174343	0.111304
C168	C	0.862984	0.507676	0.444638
C169	C	0.196362	-0.274076	-0.381997
C170	C	0.529696	0.059258	-0.048663
C171	C	0.863029	0.392591	0.284670
C172	C	0.243278	-0.274068	-0.381985
C173	C	0.576611	0.059265	-0.048652
C174	C	0.909944	0.392598	0.284681
C175	C	0.266725	-0.245295	-0.341989
C176	C	0.600058	0.088038	-0.008656
C177	C	0.933392	0.421371	0.324678
C178	C	0.649132	-0.333265	-0.301955
C179	C	0.982466	0.000068	0.031378
C180	C	1.315799	0.333402	0.364711
C181	C	0.649144	-0.383199	-0.301954
C182	C	0.982477	-0.049866	0.031380
C183	C	1.315811	0.283467	0.364713
C184	C	0.677937	-0.692811	-0.342152
C185	C	1.011271	-0.359478	-0.008818
C186	C	1.344604	-0.026145	0.324515
C187	C	0.677986	-0.880484	-0.342189
C188	C	1.011319	-0.547151	-0.008856
C189	C	1.344653	-0.213818	0.324477
O190	O	0.702400	-0.904723	-0.376328
O191	O	1.035733	-0.571389	-0.042994
O192	O	1.369067	-0.238056	0.290339
N193	N	0.649277	-0.903984	-0.302078
N194	N	0.982610	-0.570651	0.031256
N195	N	1.315944	-0.237318	0.364589
C196	C	0.620552	-0.880563	-0.261957
C197	C	0.953885	-0.547230	0.071376
C198	C	1.287219	-0.213896	0.404710
O199	O	0.596131	-0.904858	-0.227845
O200	O	0.929464	-0.571524	0.105488
O201	O	1.262798	-0.238191	0.438822
C202	C	0.620501	-0.692891	-0.261923
C203	C	0.953835	-0.359558	0.071410
C204	C	1.287168	-0.026224	0.404744
C205	C	0.649215	-0.669393	-0.302033
C206	C	0.982549	-0.336060	0.031301
C207	C	1.315882	-0.002727	0.364634
C208	C	0.706649	-0.669314	-0.382258
C209	C	1.039982	-0.335981	-0.048925
C210	C	1.373315	-0.002647	0.284408
C211	C	0.706638	-0.622398	-0.382246
C212	C	1.039971	-0.289065	-0.048913
C213	C	1.373304	0.044268	0.284420
C214	C	0.677916	-0.598980	-0.342127
C215	C	1.011249	-0.265647	-0.008794
C216	C	1.344582	0.067686	0.324540
C217	C	0.649204	-0.622478	-0.302020
C218	C	0.982538	-0.289145	0.031313
C219	C	1.315871	0.044189	0.364646
C220	C	0.591774	-0.669471	-0.221806
C221	C	0.925107	-0.336137	0.111528
C222	C	1.258441	-0.002804	0.444861
C223	C	0.591763	-0.622550	-0.221802
C224	C	0.925096	-0.289216	0.111531
C225	C	1.258430	0.044117	0.444865
C226	C	0.620477	-0.599052	-0.261912
C227	C	0.953810	-0.265719	0.071422
C228	C	1.287144	0.067615	0.404755
C229	C	0.620472	-0.552145	-0.261889
C230	C	0.953805	-0.218811	0.071444
C231	C	1.287138	0.114522	0.404778
N232	N	0.649181	-0.528645	-0.302000
N233	N	0.982514	-0.195311	0.031333
N234	N	1.315847	0.138022	0.364666
C235	C	0.677903	-0.552063	-0.342120
C236	C	1.011236	-0.218729	-0.008786
C237	C	1.344569	0.114604	0.324547
C238	C	0.620581	-0.979094	-0.261977
C239	C	0.953915	-0.645760	0.071357
C240	C	1.287248	-0.312427	0.404690
C241	C	0.620594	-1.026012	-0.261984
C242	C	0.953928	-0.692678	0.071349
C243	C	1.287261	-0.359345	0.404682
C244	C	0.678028	-1.025930	-0.342218
C245	C	1.011361	-0.692596	-0.008884
C246	C	1.344695	-0.359263	0.324449
C247	C	0.678017	-0.979011	-0.342206
C248	C	1.011350	-0.645678	-0.008873
C249	C	1.344683	-0.312344	0.324460
C250	C	0.649290	-0.955594	-0.302088
C251	C	0.982623	-0.622260	0.031245
C252	C	1.315957	-0.288927	0.364578
C253	C	0.677878	-0.453537	-0.342090
C254	C	1.011211	-0.120203	-0.008757
C255	C	1.344545	0.213130	0.324576
C256	C	0.677866	-0.406617	-0.342073
C257	C	1.011199	-0.073284	-0.008740
C258	C	1.344533	0.260049	0.324594
C259	C	0.620431	-0.406703	-0.261842
C260	C	0.953764	-0.073370	0.071491
C261	C	1.287098	0.259963	0.404824
C262	C	0.620444	-0.453619	-0.261857
C263	C	0.953778	-0.120285	0.071476
C264	C	1.287111	0.213048	0.404809
C265	C	0.649170	-0.477034	-0.301986
C266	C	0.982503	-0.143701	0.031347
C267	C	1.315836	0.189632	0.364680
O268	O	0.596067	-0.527877	-0.227773
O269	O	0.929400	-0.194544	0.105560
O270	O	1.262734	0.138789	0.438893
O271	O	0.702313	-0.527760	-0.376236
O272	O	1.035646	-0.194427	-0.042903
O273	O	1.368979	0.138906	0.290431
C274	C	0.677948	-0.739727	-0.342164
C275	C	1.011281	-0.406394	-0.008831
C276	C	1.344615	-0.073060	0.324503
C277	C	0.649237	-0.763224	-0.302057
C278	C	0.982570	-0.429891	0.031276
C279	C	1.315903	-0.096558	0.364610
C280	C	0.620515	-0.739806	-0.261938
C281	C	0.953848	-0.406473	0.071395
C282	C	1.287181	-0.073140	0.404729
C283	C	0.649250	-0.810142	-0.302065
C284	C	0.982583	-0.476809	0.031269
C285	C	1.315917	-0.143476	0.364602
C286	C	0.677972	-0.833560	-0.342184
C287	C	1.011305	-0.500227	-0.008850
C288	C	1.344639	-0.166893	0.324483
C289	C	0.706681	-0.810060	-0.382295
C290	C	1.040014	-0.476727	-0.048962
C291	C	1.373348	-0.143394	0.284372
C292	C	0.706670	-0.763145	-0.382283
C293	C	1.040003	-0.429811	-0.048950
C294	C	1.373337	-0.096478	0.284384
C295	C	0.591806	-0.763306	-0.221826
C296	C	0.925139	-0.429973	0.111507
C297	C	1.258472	-0.096640	0.444840
C298	C	0.591819	-0.810222	-0.221841
C299	C	0.925153	-0.476889	0.111492
C300	C	1.258486	-0.143555	0.444825
C301	C	0.620541	-0.833640	-0.261961
C302	C	0.953875	-0.500306	0.071373
C303	C	1.287208	-0.166973	0.404706
C304	C	0.766379	-0.216566	-0.302061
C305	C	1.099712	0.116767	0.031273
C306	C	1.433046	0.450101	0.364606
C307	C	0.816314	-0.216576	-0.302083
C308	C	1.149647	0.116757	0.031250
C309	C	1.482980	0.450090	0.364584
C310	C	0.649238	-0.216533	-0.465432
C311	C	0.982571	0.116800	-0.132098
C312	C	1.315905	0.450133	0.201235
C313	C	0.649254	-0.216529	-0.535073
C314	C	0.982587	0.116804	-0.201740
C315	C	1.315921	0.450137	0.131594
C316	C	0.649282	-0.099364	-0.302075
C317	C	0.982615	0.233969	0.031258
C318	C	1.315949	0.567303	0.364592
C319	C	0.649316	-0.049429	-0.302103
C320	C	0.982650	0.283904	0.031230
C321	C	1.315983	0.617237	0.364563
C322	C	0.678006	-0.187800	-0.567816
C323	C	1.011340	0.145533	-0.234483
C324	C	1.344673	0.478866	0.098850
C325	C	0.678006	-0.187781	-0.633252
C326	C	1.011339	0.145552	-0.299918
C327	C	1.344672	0.478886	0.033415
C328	C	0.649258	-0.216499	-0.665941
C329	C	0.982591	0.116835	-0.332608
C330	C	1.315924	0.450168	0.000725
C331	C	0.620500	-0.245230	-0.633190
C332	C	0.953833	0.088104	-0.299857
C333	C	1.287166	0.421437	0.033477
C334	C	0.620498	-0.245245	-0.567756
C335	C	0.953831	0.088088	-0.234423
C336	C	1.287165	0.421422	0.098911
C337	C	0.645686	-0.256949	-0.769597
C338	C	0.979020	0.076384	-0.436263
C339	C	1.312353	0.409717	-0.102930
C340	C	0.645691	-0.256935	-0.835030
C341	C	0.979025	0.076398	-0.501696
C342	C	1.312358	0.409732	-0.168363
C343	C	0.649260	-0.216451	-0.867762
C344	C	0.982594	0.116882	-0.534429
C345	C	1.315927	0.450215	-0.201095
C346	C	0.652834	-0.175981	-0.835054
C347	C	0.986167	0.157352	-0.501720
C348	C	1.319500	0.490686	-0.168387
C349	C	0.652832	-0.175996	-0.769619
C350	C	0.986165	0.157337	-0.436286
C351	C	1.319499	0.490670	-0.102953
C352	C	0.649256	-0.216485	-0.736894
C353	C	0.982589	0.116848	-0.403560
C354	C	1.315923	0.450182	-0.070227
C355	C	0.678013	-0.187699	-0.971458
C356	C	1.011347	0.145634	-0.638125
C357	C	1.344680	0.478968	-0.304791
C358	C	0.678010	-0.187679	-1.036895
C359	C	1.011343	0.145654	-0.703561
C360	C	1.344676	0.478988	-0.370228
C361	C	0.620506	-0.245131	-1.036832
C362	C	0.953839	0.088202	-0.703499
C363	C	1.287173	0.421535	-0.370165
C364	C	0.620508	-0.245148	-0.971396
C365	C	0.953841	0.088186	-0.638063
C366	C	1.287174	0.421519	-0.304730
C367	C	0.649264	-0.216432	-0.938714
C368	C	0.982597	0.116901	-0.605380
C369	C	1.315930	0.450235	-0.272047
C370	C	0.649190	-0.216519	-0.139221
C371	C	0.982523	0.116814	0.194113
C372	C	1.315856	0.450148	0.527446
C373	C	0.649261	-0.216396	-0.069580
C374	C	0.982594	0.116937	0.263753
C375	C	1.315927	0.450270	0.597087
H376	H	0.177276	-0.297506	-0.414568
H377	H	0.510610	0.035827	-0.081235
H378	H	0.843943	0.369161	0.252099
H379	H	0.597217	-1.045139	-0.229316
H380	H	0.930551	-0.711806	0.104017
H381	H	1.263884	-0.378473	0.437350
N382	N	0.562460	-0.739386	-0.180854
N383	N	0.895793	-0.406053	0.152479
N384	N	1.229127	-0.072719	0.485812
N385	N	0.533814	-0.713220	-0.202847
N386	N	0.867148	-0.379887	0.130486
N387	N	1.200481	-0.046554	0.463819
H388	H	0.513086	-0.696329	-0.173909
H389	H	0.846419	-0.362995	0.159425
H390	H	1.179753	-0.029662	0.492758
H391	H	0.393093	-0.268726	-0.374533
H392	H	0.726427	0.064607	-0.041200
H393	H	1.059760	0.397940	0.292134
H394	H	0.701250	-0.387487	-0.374735
H395	H	1.034583	-0.054154	-0.041401
H396	H	1.367917	0.279180	0.291932
N397	N	-0.184161	-0.274742	-0.382929
N398	N	0.149173	0.058591	-0.049595
N399	N	0.482506	0.391925	0.283738
N400	N	-0.178944	-0.316193	-0.378668
N401	N	0.154389	0.017141	-0.045335
N402	N	0.487723	0.350474	0.287999
H403	H	-0.195859	-0.336952	-0.407524
H404	H	0.137475	-0.003618	-0.074191
H405	H	0.470808	0.329715	0.259142
H406	H	0.597188	-0.960031	-0.229306
H407	H	0.930521	-0.626697	0.104027
H408	H	1.263855	-0.293364	0.437360
N409	N	0.562413	-0.598630	-0.180829
N410	N	0.895746	-0.265297	0.152505
N411	N	1.229079	0.068036	0.485838
N412	N	0.520958	-0.603900	-0.184926
N413	N	0.854292	-0.270567	0.148407
N414	N	1.187625	0.062766	0.481740
H415	H	0.500230	-0.587008	-0.155989
H416	H	0.833563	-0.253675	0.177344
H417	H	1.166896	0.079659	0.510677
H418	H	0.597067	-0.472751	-0.229192
H419	H	0.930400	-0.139418	0.104142
H420	H	1.263733	0.193915	0.437475
H421	H	0.568392	-0.688594	-0.189144
H422	H	0.901725	-0.355261	0.144189
H423	H	1.235059	-0.021928	0.477523
N424	N	0.031604	-0.129605	-0.181215
N425	N	0.364937	0.203728	0.152118
N426	N	0.698271	0.537061	0.485452
N427	N	0.005454	-0.100998	-0.203345
N428	N	0.338787	0.232335	0.129988
N429	N	0.672121	0.565669	0.463322
H430	H	-0.011470	-0.080230	-0.174505
H431	H	0.321863	0.253104	0.158828
H432	H	0.655197	0.586437	0.492162
H433	H	0.730018	-0.603269	-0.414909
H434	H	1.063351	-0.269936	-0.081575
H435	H	1.396685	0.063397	0.251758
N436	N	0.736021	-0.833993	-0.423268
N437	N	1.069354	-0.500660	-0.089934
N438	N	1.402687	-0.167326	0.243399
N439	N	0.736023	-0.875883	-0.423265
N440	N	1.069356	-0.542550	-0.089931
N441	N	1.402689	-0.209217	0.243402
H442	H	0.756742	-0.892789	-0.452201
H443	H	1.090075	-0.559455	-0.118868
H444	H	1.423408	-0.226122	0.214466
N445	N	0.562487	-0.834214	-0.180858
N446	N	0.895820	-0.500881	0.152475
N447	N	1.229154	-0.167547	0.485809
N448	N	0.536846	-0.813294	-0.145043
N449	N	0.870179	-0.479960	0.188290
N450	N	1.203512	-0.146627	0.521624
H451	H	0.516128	-0.830236	-0.116102
H452	H	0.849461	-0.496903	0.217232
H453	H	1.182795	-0.163570	0.550565
H454	H	0.701418	-0.164384	-0.659917
H455	H	1.034751	0.168949	-0.326583
H456	H	1.368085	0.502283	0.006750
H457	H	0.701421	-0.164417	-0.541210
H458	H	1.034754	0.168916	-0.207876
H459	H	1.368088	0.502249	0.125457
H460	H	0.597094	-0.268509	-1.063447
H461	H	0.930428	0.064824	-0.730114
H462	H	1.263761	0.398157	-0.396780
N463	N	-0.184210	-0.158405	-0.221244
N464	N	0.149123	0.174928	0.112089
N465	N	0.482456	0.508262	0.445422
N466	N	-0.210365	-0.129801	-0.243371
N467	N	0.122968	0.203532	0.089962
N468	N	0.456302	0.536866	0.423295
H469	H	-0.227293	-0.109038	-0.214529
H470	H	0.106040	0.224295	0.118804
H471	H	0.439373	0.557629	0.452137
N472	N	0.591135	-0.274600	-0.534305
N473	N	0.924468	0.058734	-0.200972
N474	N	1.257801	0.392067	0.132361
N475	N	0.606922	-0.303240	-0.497802
N476	N	0.940255	0.030093	-0.164469
N477	N	1.273588	0.363426	0.168865
H478	H	0.586184	-0.323973	-0.474176
H479	H	0.919518	0.009360	-0.140843
H480	H	1.252851	0.342693	0.192491
H481	H	0.177214	-0.135562	-0.189463
H482	H	0.510547	0.197771	0.143870
H483	H	0.843880	0.531104	0.477203
N484	N	0.483029	-0.158346	-0.221116
N485	N	0.816362	0.174987	0.112217
N486	N	1.149695	0.508320	0.445551
N487	N	0.477812	-0.116897	-0.225395
N488	N	0.811146	0.216437	0.107938
N489	N	1.144479	0.549770	0.441271
H490	H	0.494733	-0.096131	-0.196555
H491	H	0.828066	0.237203	0.136778
H492	H	1.161400	0.570536	0.470112
H493	H	0.597047	-0.387629	-0.229176
H494	H	0.930380	-0.054296	0.104158
H495	H	1.263714	0.279038	0.437491
H496	H	0.642660	-0.289908	-0.742951
H497	H	0.975993	0.043426	-0.409618
H498	H	1.309327	0.376759	-0.076285
N499	N	0.126484	-0.303475	-0.422881
N500	N	0.459817	0.029858	-0.089548
N501	N	0.793151	0.363192	0.243785
N502	N	0.105534	-0.329158	-0.458589
N503	N	0.438868	0.004176	-0.125256
N504	N	0.772201	0.337509	0.208077
H505	H	0.122453	-0.349917	-0.487447
H506	H	0.455787	-0.016584	-0.154114
H507	H	0.789120	0.316749	0.179220
N508	N	0.735998	-0.739141	-0.423253
N509	N	1.069331	-0.405808	-0.089919
N510	N	1.402665	-0.072474	0.243414
N511	N	0.720180	-0.712950	-0.463150
N512	N	1.053513	-0.379617	-0.129817
N513	N	1.386847	-0.046283	0.203516
H514	H	0.740895	-0.695998	-0.492084
H515	H	1.074229	-0.362664	-0.158750
H516	H	1.407562	-0.029331	0.174583
N517	N	0.267195	-0.129599	-0.181166
N518	N	0.600529	0.203734	0.152168
N519	N	0.933862	0.537067	0.485501
N520	N	0.309086	-0.129604	-0.181170
N521	N	0.642419	0.203729	0.152164
N522	N	0.975753	0.537062	0.485497
H523	H	0.326012	-0.108851	-0.152319
H524	H	0.659346	0.224482	0.181015
H525	H	0.992679	0.557816	0.514348
N526	N	0.707372	-1.049847	-0.383202
N527	N	1.040705	-0.716514	-0.049868
N528	N	1.374038	-0.383181	0.283465
N529	N	0.748827	-1.044580	-0.379120
N530	N	1.082161	-0.711247	-0.045787
N531	N	1.415494	-0.377914	0.287547
H532	H	0.769549	-1.061473	-0.408066
H533	H	1.102882	-0.728140	-0.074733
H534	H	1.436216	-0.394807	0.258600
N535	N	0.656467	-0.134659	-0.736209
N536	N	0.989800	0.198674	-0.402876
N537	N	1.323134	0.532008	-0.069543
N538	N	0.625961	-0.122895	-0.699676
N539	N	0.959294	0.210438	-0.366343
N540	N	1.292628	0.543772	-0.033010
H541	H	0.628526	-0.093700	-0.676080
H542	H	0.961859	0.239634	-0.342747
H543	H	1.295192	0.572967	-0.009413
H544	H	0.597097	-0.268544	-0.944737
H545	H	0.930430	0.064789	-0.611403
H546	H	1.263764	0.398122	-0.278070
H547	H	0.655741	-0.143015	-0.861703
H548	H	0.989074	0.190318	-0.528370
H549	H	1.322407	0.523651	-0.195036
N550	N	0.707386	-0.158364	-0.938078
N551	N	1.040719	0.174970	-0.604745
N552	N	1.374053	0.508303	-0.271412
N553	N	0.733053	-0.132710	-0.967325
N554	N	1.066386	0.200624	-0.633992
N555	N	1.399720	0.533957	-0.300658
H556	H	0.753798	-0.111990	-0.943753
H557	H	1.087131	0.221343	-0.610419
H558	H	1.420464	0.554676	-0.277086
N559	N	0.388177	-0.158367	-0.221121
N560	N	0.721510	0.174967	0.112213
N561	N	1.054844	0.508300	0.445546
N562	N	0.361965	-0.174130	-0.181158
N563	N	0.695299	0.159203	0.152175
N564	N	1.028632	0.492536	0.485509
H565	H	0.345032	-0.153376	-0.152309
H566	H	0.678366	0.179957	0.181024
H567	H	1.011699	0.513291	0.514358
N568	N	0.483072	-0.274686	-0.382783
N569	N	0.816406	0.058647	-0.049449
N570	N	1.149739	0.391981	0.283884
N571	N	0.509226	-0.303291	-0.360657
N572	N	0.842560	0.030042	-0.027323
N573	N	1.175893	0.363375	0.306010
H574	H	0.526159	-0.324050	-0.389500
H575	H	0.859492	0.009283	-0.056167
H576	H	1.192825	0.342616	0.277167
H577	H	0.701422	-0.164282	-1.063553
H578	H	1.034756	0.169052	-0.730220
H579	H	1.368089	0.502385	-0.396887
N580	N	0.642012	-0.298273	-0.868428
N581	N	0.975345	0.035060	-0.535094
N582	N	1.308679	0.368393	-0.201761
N583	N	0.638797	-0.334414	-0.839197
N584	N	0.972131	-0.001081	-0.505864
N585	N	1.305464	0.332253	-0.172530
H586	H	0.636186	-0.363610	-0.862783
H587	H	0.969519	-0.030276	-0.529449
H588	H	1.302852	0.303057	-0.196116
H589	H	0.597091	-0.268610	-0.659810
H590	H	0.930425	0.064723	-0.326477
H591	H	1.263758	0.398056	0.006857
H592	H	0.036518	-0.297511	-0.414612
H593	H	0.369851	0.035822	-0.081278
H594	H	0.703185	0.369155	0.252055
H595	H	0.121572	-0.135568	-0.189474
H596	H	0.454906	0.197766	0.143859
H597	H	0.788239	0.531099	0.477193
N598	N	-0.089383	-0.158390	-0.221218
N599	N	0.243950	0.174943	0.112115
N600	N	0.577284	0.508276	0.445448
N601	N	-0.110350	-0.132708	-0.185521
N602	N	0.222984	0.200625	0.147812
N603	N	0.556317	0.533959	0.481145
H604	H	-0.093445	-0.111942	-0.156663
H605	H	0.239888	0.221391	0.176670
H606	H	0.573222	0.554724	0.510003
H607	H	-0.094187	-0.268771	-0.374624
H608	H	0.239146	0.064563	-0.041290
H609	H	0.572479	0.397896	0.292043
N610	N	0.267240	-0.303465	-0.422839
N611	N	0.600573	0.029868	-0.089506
N612	N	0.933907	0.363202	0.243828
N613	N	0.246294	-0.329151	-0.458545
N614	N	0.579627	0.004182	-0.125212
N615	N	0.912961	0.337515	0.208121
H616	H	0.263215	-0.349911	-0.487401
H617	H	0.596549	-0.016577	-0.154067
H618	H	0.929882	0.316756	0.179266
H619	H	0.730037	-0.688376	-0.414932
H620	H	1.063371	-0.355042	-0.081599
H621	H	1.396704	-0.021709	0.251735
N622	N	0.707228	-0.477444	-0.383077
N623	N	1.040561	-0.144110	-0.049744
N624	N	1.373895	0.189223	0.283590
N625	N	0.748682	-0.472168	-0.378979
N626	N	1.082015	-0.138834	-0.045645
N627	N	1.415348	0.194499	0.287688
H628	H	0.769413	-0.489051	-0.407922
H629	H	1.102746	-0.155718	-0.074589
H630	H	1.436079	0.177615	0.258744
N631	N	0.707351	-0.955018	-0.383180
N632	N	1.040684	-0.621685	-0.049846
N633	N	1.374018	-0.288351	0.283487
N634	N	0.732994	-0.975938	-0.418992
N635	N	1.066328	-0.642605	-0.085659
N636	N	1.399661	-0.309271	0.247675
H637	H	0.753713	-0.958995	-0.447932
H638	H	1.087046	-0.625662	-0.114599
H639	H	1.420380	-0.292329	0.218735
