data_functionalizedCrystal
_audit_creation_method	'MofGen! by Chris Wilmer'
_symmetry_space_group_name_H-M	'P1'
_symmetry_Int_Tables_number	1
_symmetry_cell_setting	triclinic
loop_
_symmetry_equiv_pos_as_xyz
  x,y,z
_cell_length_a	26.374263
_cell_length_b	26.373608
_cell_length_c	26.370205
_cell_angle_alpha	60.005297
_cell_angle_beta	60.010839
_cell_angle_gamma	59.993700
loop_
_atom_site_label
_atom_site_type_symbol
_atom_site_fract_x
_atom_site_fract_y
_atom_site_fract_z
O1	O	0.070152	-0.740800	0.619517
O2	O	0.570152	-0.240800	1.119517
O3	O	0.026377	-0.576764	0.499159
O4	O	0.526377	-0.076764	0.999159
O5	O	0.130245	-0.680560	0.499088
O6	O	0.630245	-0.180560	0.999088
O7	O	-0.033715	-0.637003	0.619589
O8	O	0.466285	-0.137003	1.119589
O9	O	0.164701	-0.646107	0.533470
O10	O	0.664701	-0.146107	1.033470
O11	O	0.060833	-0.542310	0.533541
O12	O	0.560833	-0.042310	1.033541
O13	O	0.104608	-0.706346	0.653899
O14	O	0.604608	-0.206346	1.153899
Cu15	Cu	0.085867	-0.621182	0.596859
Cu16	Cu	0.585867	-0.121182	1.096859
Cu17	Cu	0.045119	-0.661927	0.556199
Cu18	Cu	0.545119	-0.161927	1.056199
O19	O	0.000741	-0.602549	0.653971
O20	O	0.500741	-0.102549	1.153971
N21	N	0.114528	-0.592529	0.625461
N22	N	0.614528	-0.092529	1.125461
N23	N	0.016463	-0.690587	0.527598
N24	N	0.516463	-0.190587	1.027598
C25	C	0.181428	-0.355400	0.692330
C26	C	0.681428	0.144600	1.192330
C27	C	0.181530	-0.525690	0.862573
C28	C	0.681530	-0.025690	1.362573
C29	C	0.181440	-0.525667	0.692313
C30	C	0.681440	-0.025667	1.192313
C31	C	0.351736	-0.525673	0.692271
C32	C	0.851736	-0.025673	1.192271
C33	C	0.200174	-0.411588	0.711047
C34	C	0.700174	0.088412	1.211047
C35	C	0.200232	-0.506954	0.806384
C36	C	0.700232	-0.006954	1.306384
C37	C	0.295546	-0.506943	0.711016
C38	C	0.795546	-0.006943	1.211016
C39	C	0.200182	-0.506940	0.711037
C40	C	0.700182	-0.006940	1.211037
C41	C	0.157567	-0.283881	0.668507
C42	C	0.657567	0.216119	1.168507
C43	C	0.157587	-0.549500	0.668479
C44	C	0.657587	-0.049500	1.168479
C45	C	0.224035	-0.483107	0.734871
C46	C	0.724035	0.016893	1.234871
C47	C	0.455739	-0.507754	0.637520
C48	C	0.955739	-0.007754	1.137520
C49	C	0.520749	-0.529425	0.615835
C50	C	1.020749	-0.029425	1.115835
C51	C	0.520768	-0.634611	0.655947
C52	C	1.020768	-0.134611	1.155947
C53	C	0.455759	-0.612939	0.677633
C54	C	0.955759	-0.112939	1.177633
C55	C	0.173240	-0.251367	0.604595
C56	C	0.673240	0.248633	1.104595
C57	C	0.151546	-0.186351	0.582941
C58	C	0.651546	0.313649	1.082941
C59	C	0.098512	-0.186369	0.689113
C60	C	0.598512	0.313631	1.189113
C61	C	0.120206	-0.251385	0.710768
C62	C	0.620206	0.248615	1.210768
C63	C	0.093669	-0.533798	0.684205
C64	C	0.593669	-0.033798	1.184205
C65	C	0.071992	-0.555464	0.662532
C66	C	0.571992	-0.055464	1.162532
C67	C	0.178144	-0.608536	0.609422
C68	C	0.678144	-0.108536	1.109422
C69	C	0.199825	-0.586869	0.631088
C70	C	0.699825	-0.086869	1.131088
C71	C	0.093821	-0.533842	0.966616
C72	C	0.593821	-0.033842	1.466616
C73	C	0.072187	-0.555526	1.031630
C74	C	0.572187	-0.055526	1.531630
C75	C	0.178370	-0.608608	1.031591
C76	C	0.678370	-0.108608	1.531591
C77	C	0.200004	-0.586926	0.966576
C78	C	0.700004	-0.086926	1.466576
C79	C	0.157728	-0.549541	0.934090
C80	C	0.657728	-0.049541	1.434090
C81	C	0.423247	-0.549509	0.668416
C82	C	0.923247	-0.049509	1.168416
C83	C	-0.097522	-0.709158	0.508557
C84	C	0.402478	-0.209158	1.008557
C85	C	-0.002050	-0.709295	0.413344
C86	C	0.497950	-0.209295	0.913344
C87	C	-0.002241	-0.804604	0.508735
C88	C	0.497759	-0.304604	1.008735
C89	C	-0.002225	-0.709288	0.508793
C90	C	0.497775	-0.209288	1.008793
C91	C	-0.026009	-0.733087	0.484858
C92	C	0.473991	-0.233087	0.984858
N93	N	0.552340	-0.592538	0.625346
N94	N	1.052340	-0.092538	1.125346
O95	O	0.750867	-0.598274	0.477076
O96	O	1.250867	-0.098274	0.977076
O97	O	0.751048	-0.718989	0.640960
O98	O	1.251048	-0.218989	1.140960
O99	O	0.750981	-0.718715	0.537020
O100	O	1.250981	-0.218715	1.037020
O101	O	0.750934	-0.598547	0.581017
O102	O	1.250934	-0.098547	1.081017
O103	O	0.647701	-0.684348	0.571512
O104	O	1.147701	-0.184348	1.071512
O105	O	0.647768	-0.684622	0.675452
O106	O	1.147768	-0.184622	1.175452
O107	O	0.647587	-0.563907	0.511569
O108	O	1.147587	-0.063907	1.011569
Cu109	Cu	0.638247	-0.621127	0.596660
Cu110	Cu	1.138247	-0.121127	1.096660
Cu111	Cu	0.760388	-0.661769	0.555869
Cu112	Cu	1.260388	-0.161769	1.055869
O113	O	0.647654	-0.564181	0.615509
O114	O	1.147654	-0.064181	1.115509
N115	N	0.846295	-0.690358	0.527176
N116	N	1.346295	-0.190358	1.027176
N117	N	0.114503	-0.154778	0.625499
N118	N	0.614503	0.345222	1.125499
O119	O	-0.033701	0.043855	0.619632
O120	O	0.466299	0.543855	1.119632
O121	O	0.130190	0.043858	0.498933
O122	O	0.630190	0.543858	0.998933
O123	O	0.026233	0.043841	0.499224
O124	O	0.526233	0.543841	0.999224
O125	O	0.070257	0.043872	0.619341
O126	O	0.570257	0.543872	1.119341
O127	O	0.060690	-0.059448	0.533654
O128	O	0.560690	0.440552	1.033654
O129	O	0.164647	-0.059431	0.533363
O130	O	0.664647	0.440569	1.033363
O131	O	0.000756	-0.059434	0.654062
O132	O	0.500756	0.440566	1.154062
Cu133	Cu	0.085848	-0.068863	0.596857
Cu134	Cu	0.585848	0.431137	1.096857
Cu135	Cu	0.045099	0.053287	0.556138
Cu136	Cu	0.545099	0.553287	1.056138
O137	O	0.104714	-0.059417	0.653771
O138	O	0.604714	0.440583	1.153771
N139	N	0.016435	0.139202	0.527497
N140	N	0.516435	0.639202	1.027497
N141	N	0.114760	-0.592585	1.063190
N142	N	0.614760	-0.092585	1.563190
O143	O	0.108896	-0.740779	1.261808
O144	O	0.608896	-0.240779	1.761808
O145	O	-0.011787	-0.576838	1.261822
O146	O	0.488213	-0.076838	1.761822
O147	O	-0.011509	-0.680779	1.261780
O148	O	0.488491	-0.180779	1.761780
O149	O	0.108618	-0.636838	1.261850
O150	O	0.608618	-0.136838	1.761850
O151	O	0.022916	-0.646341	1.158496
O152	O	0.522916	-0.146341	1.658496
O153	O	0.022638	-0.542399	1.158538
O154	O	0.522638	-0.042399	1.658538
O155	O	0.143321	-0.706341	1.158524
O156	O	0.643321	-0.206341	1.658524
Cu157	Cu	0.086123	-0.621225	1.149100
Cu158	Cu	0.586123	-0.121225	1.649100
Cu159	Cu	0.045411	-0.661953	1.271246
Cu160	Cu	0.545411	-0.161953	1.771246
O161	O	0.143044	-0.602399	1.158566
O162	O	0.643044	-0.102399	1.658566
N163	N	0.016774	-0.690600	1.357156
N164	N	0.516774	-0.190600	1.857156
C165	C	0.039504	-0.538867	0.499769
C166	C	0.539504	-0.038867	0.999769
C167	C	0.168130	-0.667407	0.499680
C168	C	0.668130	-0.167407	0.999680
C169	C	0.091482	-0.744243	0.653289
C170	C	0.591482	-0.244243	1.153289
C171	C	-0.037145	-0.615703	0.653378
C172	C	0.462855	-0.115703	1.153378
C173	C	0.699429	-0.718429	0.678853
C174	C	1.199429	-0.218429	1.178853
C175	C	0.699348	-0.718091	0.550135
C176	C	1.199348	-0.218091	1.050135
C177	C	0.699202	-0.564465	0.473677
C178	C	1.199202	-0.064465	0.973677
C179	C	0.699287	-0.564805	0.602393
C180	C	1.199287	-0.064805	1.102393
C181	C	0.168023	-0.007659	0.499484
C182	C	0.668023	0.492341	0.999484
C183	C	0.039327	-0.007807	0.499887
C184	C	0.539327	0.492193	0.999887
C185	C	-0.037119	-0.007789	0.653468
C186	C	0.462881	0.492211	1.153468
C187	C	0.091620	-0.007770	0.653109
C188	C	0.591620	0.492230	1.153109
C189	C	-0.011194	-0.538964	1.210181
C190	C	0.488806	-0.038964	1.710181
C191	C	-0.010843	-0.667676	1.210109
C192	C	0.489157	-0.167676	1.710109
C193	C	0.142729	-0.744214	1.210165
C194	C	0.642729	-0.244214	1.710165
C195	C	0.142386	-0.615494	1.210214
C196	C	0.642386	-0.115494	1.710214
H197	H	0.020147	-0.542732	1.058106
H198	H	0.520147	-0.042732	1.558106
H199	H	0.699366	-0.755841	0.540718
H200	H	1.199366	-0.255841	1.040718
O201	O	0.102747	-0.007736	0.698190
O202	O	0.602747	0.492264	1.198190
C203	C	0.062167	-0.007767	0.802835
C204	C	0.562167	0.492233	1.302835
C205	C	0.049479	-0.007791	0.751831
C206	C	0.549479	0.492209	1.251831
H207	H	0.019113	-0.007825	0.846220
H208	H	0.519113	0.492175	1.346220
H209	H	0.073956	0.035472	0.785659
H210	H	0.573956	0.535472	1.285659
H211	H	0.102851	-0.050980	0.814395
H212	H	0.602851	0.449020	1.314395
H213	H	0.008787	0.035393	0.740248
H214	H	0.508787	0.535393	1.240248
H215	H	0.037727	-0.051059	0.769034
H216	H	0.537727	0.448941	1.269034
H217	H	0.215222	-0.676694	0.461838
H218	H	0.715222	-0.176694	0.961838
H219	H	-0.084239	-0.606419	0.691217
H220	H	0.415761	-0.106419	1.191217
O221	O	-0.056474	-0.482847	1.210265
O222	O	0.443526	0.017153	1.710265
C223	C	-0.160030	-0.427366	1.263782
C224	C	0.339970	0.072634	1.763782
C225	C	-0.108810	-0.490960	1.263757
C226	C	0.391190	0.009040	1.763757
H227	H	-0.202352	-0.433902	1.307032
H228	H	0.297648	0.066098	1.807032
H229	H	-0.173621	-0.405051	1.220578
H230	H	0.326379	0.094949	1.720578
H231	H	-0.142015	-0.396057	1.263771
H232	H	0.357985	0.103943	1.763771
H233	H	-0.126782	-0.522317	1.263790
H234	H	0.373218	-0.022317	1.763790
H235	H	-0.095227	-0.513225	1.306958
H236	H	0.404773	-0.013225	1.806958
O237	O	0.699515	-0.763584	0.735028
O238	O	1.199515	-0.263584	1.235028
C239	C	0.699550	-0.792443	0.837335
C240	C	1.199550	-0.292443	1.337335
C241	C	0.699468	-0.741255	0.773741
C242	C	1.199468	-0.241255	1.273741
H243	H	0.699499	-0.774404	0.868657
H244	H	1.199499	-0.274404	1.368657
H245	H	0.742804	-0.834786	0.830824
H246	H	1.242804	-0.334786	1.330824
H247	H	0.656359	-0.806022	0.859620
H248	H	1.156359	-0.306022	1.359620
H249	H	0.742630	-0.727623	0.751422
H250	H	1.242630	-0.227623	1.251422
H251	H	0.656185	-0.698946	0.780293
H252	H	1.156185	-0.198946	1.280293
O253	O	0.699159	-0.519325	0.417487
O254	O	1.199159	-0.019325	0.917487
C255	C	0.699025	-0.490433	0.315213
C256	C	1.199025	0.009567	0.815213
C257	C	0.699090	-0.541615	0.378813
C258	C	1.199090	-0.041615	0.878813
H259	H	0.698956	-0.508432	0.283932
H260	H	1.198956	-0.008432	0.783932
H261	H	0.742234	-0.476860	0.292848
H262	H	1.242234	0.023140	0.792848
H263	H	0.655788	-0.448096	0.321794
H264	H	1.155788	0.051904	0.821794
H265	H	0.742297	-0.583986	0.372287
H266	H	1.242297	-0.083986	0.872287
H267	H	0.655853	-0.555135	0.401157
H268	H	1.155853	-0.055135	0.901157
O269	O	0.166739	-0.154828	0.520840
O270	O	0.666739	0.345172	1.020840
C271	C	0.161696	-0.134889	0.423486
C272	C	0.661696	0.365111	0.923486
C273	C	0.144465	-0.170636	0.493804
C274	C	0.644465	0.329364	0.993804
H275	H	0.143684	-0.147646	0.401609
H276	H	0.643684	0.352354	0.901609
H277	H	0.214333	-0.147674	0.401516
H278	H	0.714333	0.352326	0.901516
H279	H	0.139790	-0.082843	0.415285
H280	H	0.639790	0.417157	0.915285
H281	H	0.166330	-0.222691	0.502061
H282	H	0.666330	0.277309	1.002061
H283	H	0.091824	-0.157799	0.515739
H284	H	0.591824	0.342201	1.015739
O285	O	0.102636	-0.800410	0.698444
O286	O	0.602636	-0.300410	1.198444
C287	C	0.108311	-0.856007	0.801920
C288	C	0.608311	-0.356007	1.301920
C289	C	0.095677	-0.792360	0.750832
C290	C	0.595677	-0.292360	1.250832
H291	H	0.102677	-0.849519	0.844293
H292	H	0.602677	-0.349519	1.344293
H293	H	0.157653	-0.887240	0.783834
H294	H	0.657653	-0.387240	1.283834
H295	H	0.073910	-0.878380	0.815468
H296	H	0.573910	-0.378380	1.315468
H297	H	0.130039	-0.769934	0.737262
H298	H	0.630039	-0.269934	1.237262
H299	H	0.046319	-0.761172	0.768946
H300	H	0.546319	-0.261172	1.268946
O301	O	-0.055771	-0.678959	1.210004
O302	O	0.444229	-0.178959	1.710004
C303	C	-0.084157	-0.752714	1.209922
C304	C	0.415843	-0.252714	1.709922
C305	C	-0.033216	-0.740014	1.210026
C306	C	0.466784	-0.240014	1.710026
H307	H	-0.065944	-0.802080	1.209953
H308	H	0.434056	-0.302080	1.709953
H309	H	-0.097693	-0.718355	1.166667
H310	H	0.402307	-0.218355	1.666667
H311	H	-0.126567	-0.747119	1.253116
H312	H	0.373433	-0.247119	1.753116
H313	H	0.009227	-0.745618	1.166861
H314	H	0.509227	-0.245618	1.666861
H315	H	-0.019732	-0.774371	1.253309
H316	H	0.480268	-0.274371	1.753309
O317	O	0.028076	-0.007711	0.454816
O318	O	0.528076	0.492289	0.954816
C319	C	0.022244	0.045755	0.351401
C320	C	0.522244	0.545755	0.851401
C321	C	0.034990	0.045735	0.402390
C322	C	0.534990	0.545735	0.902390
H323	H	0.027842	0.088955	0.308998
H324	H	0.527842	0.588955	0.808998
H325	H	-0.027111	0.045789	0.369578
H326	H	0.472889	0.545789	0.869578
H327	H	0.056610	0.002505	0.337866
H328	H	0.556610	0.502505	0.837866
H329	H	0.000664	0.088978	0.415948
H330	H	0.500664	0.588978	0.915948
H331	H	0.084362	0.045668	0.384185
H332	H	0.584362	0.545668	0.884185
H333	H	0.180620	-0.791296	1.210154
H334	H	0.680620	-0.291296	1.710154
H335	H	0.699278	-0.527058	0.611808
H336	H	1.199278	-0.027058	1.111808
O337	O	0.187353	-0.604172	1.210203
O338	O	0.687353	-0.104172	1.710203
C339	C	0.215742	-0.530413	1.210271
C340	C	0.715742	-0.030413	1.710271
C341	C	0.164767	-0.543148	1.210270
C342	C	0.664767	-0.043148	1.710270
H343	H	0.197497	-0.481080	1.210339
H344	H	0.697497	0.018920	1.710339
H345	H	0.258127	-0.535929	1.167039
H346	H	0.758127	-0.035929	1.667039
H347	H	0.229329	-0.564826	1.253487
H348	H	0.729329	-0.064826	1.753487
H349	H	0.151128	-0.508746	1.167084
H350	H	0.651128	-0.008746	1.667084
H351	H	0.122416	-0.537653	1.253532
H352	H	0.622416	-0.037653	1.753532
O353	O	0.224082	-0.007285	0.454219
O354	O	0.724082	0.492715	0.954219
C355	C	0.326227	-0.006803	0.425182
C356	C	0.826227	0.493197	0.925182
C357	C	0.262765	-0.007211	0.476493
C358	C	0.762765	0.492789	0.976493
H359	H	0.357524	-0.006756	0.443176
H360	H	0.857524	0.493244	0.943176
H361	H	0.319480	0.036526	0.382961
H362	H	0.819480	0.536526	0.882961
H363	H	0.348675	-0.049925	0.411433
H364	H	0.848675	0.450075	0.911433
H365	H	0.240283	0.035882	0.490295
H366	H	0.740283	0.535882	0.990295
H367	H	0.269552	-0.050568	0.518680
H368	H	0.769552	0.449432	1.018680
H369	H	0.030155	-0.491745	0.461969
H370	H	0.530155	0.008255	0.961969
H371	H	0.059391	-0.503396	0.940172
H372	H	0.559391	-0.003396	1.440172
H373	H	0.212798	-0.639038	1.058038
H374	H	0.712798	-0.139038	1.558038
O375	O	0.262101	-0.602285	0.935051
O376	O	0.762101	-0.102285	1.435051
C377	C	0.359474	-0.684705	0.915096
C378	C	0.859474	-0.184705	1.415096
C379	C	0.289162	-0.667399	0.950845
C380	C	0.789162	-0.167399	1.450845
H381	H	0.381372	-0.737349	0.927843
H382	H	0.881372	-0.237349	1.427843
H383	H	0.381432	-0.666811	0.927887
H384	H	0.881432	-0.166811	1.427887
H385	H	0.367664	-0.662759	0.863052
H386	H	0.867664	-0.162759	1.363052
H387	H	0.280917	-0.689340	1.002897
H388	H	0.780917	-0.189340	1.502897
H389	H	0.267240	-0.685282	0.938002
H390	H	0.767240	-0.185282	1.438002
O391	O	0.052556	-0.497478	0.720493
O392	O	0.552556	0.002522	1.220493
C393	C	-0.055024	-0.447147	0.770908
C394	C	0.444976	0.052853	1.270908
C395	C	-0.008531	-0.488273	0.729795
C396	C	0.491469	0.011727	1.229795
H397	H	-0.104423	-0.439703	0.778453
H398	H	0.395577	0.060297	1.278453
H399	H	-0.047592	-0.400357	0.747100
H400	H	0.452408	0.099643	1.247100
H401	H	-0.047473	-0.470975	0.817650
H402	H	0.452527	0.029025	1.317650
H403	H	-0.016055	-0.464499	0.683046
H404	H	0.483945	0.035501	1.183046
H405	H	-0.015975	-0.535060	0.753652
H406	H	0.484025	-0.035060	1.253652
O407	O	0.009907	-0.540141	0.677700
O408	O	0.509907	-0.040141	1.177700
C409	C	-0.076203	-0.490135	0.640380
C410	C	0.423797	0.009865	1.140380
C411	C	-0.005888	-0.507438	0.623116
C412	C	0.494112	-0.007438	1.123116
H413	H	-0.088994	-0.463704	0.596260
H414	H	0.411006	0.036296	1.096260
H415	H	-0.102698	-0.459675	0.670801
H416	H	0.397302	0.040325	1.170801
H417	H	-0.088966	-0.534263	0.666866
H418	H	0.411034	-0.034263	1.166866
H419	H	0.006932	-0.463345	0.596608
H420	H	0.506932	0.036655	1.096608
H421	H	0.020568	-0.537922	0.592724
H422	H	0.520568	-0.037922	1.092724
O423	O	-0.093317	-0.007670	0.698621
O424	O	0.406683	0.492330	1.198621
C425	C	-0.203796	0.045835	0.728597
C426	C	0.296204	0.545835	1.228597
C427	C	-0.140190	0.045780	0.677415
C428	C	0.359810	0.545780	1.177415
H429	H	-0.241711	0.089038	0.711466
H430	H	0.258289	0.589038	1.211466
H431	H	-0.203899	0.045887	0.771854
H432	H	0.296101	0.545887	1.271854
H433	H	-0.212869	0.002588	0.740350
H434	H	0.287131	0.502588	1.240350
H435	H	-0.131077	0.089019	0.665609
H436	H	0.368923	0.589019	1.165609
H437	H	-0.140118	0.045695	0.634190
H438	H	0.359882	0.545695	1.134190
O439	O	0.219206	-0.644746	0.573013
O440	O	0.719206	-0.144746	1.073013
C441	C	0.303309	-0.653048	0.477326
C442	C	0.803309	-0.153048	0.977326
C443	C	0.256833	-0.611974	0.518493
C444	C	0.756833	-0.111974	1.018493
H445	H	0.333750	-0.626572	0.433244
H446	H	0.833750	-0.126572	0.933244
H447	H	0.276873	-0.665827	0.464481
H448	H	0.776873	-0.165827	0.964481
H449	H	0.333739	-0.697177	0.503805
H450	H	0.833739	-0.197177	1.003805
H451	H	0.226390	-0.567819	0.492052
H452	H	0.726390	-0.067819	0.992052
H453	H	0.283306	-0.599245	0.531341
H454	H	0.783306	-0.099245	1.031341
O455	O	0.261908	-0.602010	0.615744
O456	O	0.761908	-0.102010	1.115744
C457	C	0.347952	-0.564637	0.565741
C458	C	0.847952	-0.064637	1.065741
C459	C	0.277639	-0.547406	0.583065
C460	C	0.777639	-0.047406	1.083065
H461	H	0.360691	-0.520499	0.539329
H462	H	0.860691	-0.020499	1.039329
H463	H	0.374454	-0.595037	0.535259
H464	H	0.874454	-0.095037	1.035259
H465	H	0.360759	-0.591138	0.609856
H466	H	0.860759	-0.091138	1.109856
H467	H	0.264775	-0.520883	0.538984
H468	H	0.764775	-0.020883	1.038984
H469	H	0.251176	-0.517035	0.613571
H470	H	0.751176	-0.017035	1.113571
H471	H	0.429307	-0.646943	0.702793
H472	H	0.929307	-0.146943	1.202793
H473	H	0.547237	-0.686258	0.663446
H474	H	1.047237	-0.186258	1.163446
H475	H	0.547206	-0.495421	0.590679
H476	H	1.047206	0.004579	1.090679
H477	H	0.429268	-0.456103	0.630015
H478	H	0.929268	0.043897	1.130015
H479	H	0.203661	-0.277820	0.570179
H480	H	0.703661	0.222180	1.070179
H481	H	0.068098	-0.159910	0.723527
H482	H	0.568098	0.340090	1.223527
H483	H	0.107441	-0.277854	0.762810
H484	H	0.607441	0.222146	1.262810
