data_functionalizedCrystal
_audit_creation_method	'MofGen! by Chris Wilmer'
_symmetry_space_group_name_H-M	'P1'
_symmetry_Int_Tables_number	1
_symmetry_cell_setting	triclinic
loop_
_symmetry_equiv_pos_as_xyz
  x,y,z
_cell_length_a	17.699097
_cell_length_b	14.519731
_cell_length_c	16.176319
_cell_angle_alpha	89.992219
_cell_angle_beta	89.988988
_cell_angle_gamma	83.488642
loop_
_atom_site_label
_atom_site_type_symbol
_atom_site_fract_x
_atom_site_fract_y
_atom_site_fract_z
O1	O	1.004414	0.116682	-0.068817
O2	O	1.254414	0.366682	0.181183
O3	O	1.504414	0.616682	0.431183
O4	O	1.754414	0.866682	0.681183
O5	O	0.784081	0.131842	-0.068804
O6	O	1.034081	0.381842	0.181196
O7	O	1.284081	0.631842	0.431196
O8	O	1.534081	0.881842	0.681196
O9	O	0.900081	-0.010000	-0.068803
O10	O	1.150081	0.240000	0.181197
O11	O	1.400081	0.490000	0.431197
O12	O	1.650081	0.740000	0.681197
O13	O	0.888414	0.258523	-0.068818
O14	O	1.138414	0.508523	0.181182
O15	O	1.388414	0.758523	0.431182
O16	O	1.638414	1.008523	0.681182
O17	O	0.900065	-0.010009	0.068690
O18	O	1.150065	0.239991	0.318690
O19	O	1.400065	0.489991	0.568690
O20	O	1.650065	0.739991	0.818690
O21	O	0.784065	0.131833	0.068689
O22	O	1.034065	0.381833	0.318689
O23	O	1.284065	0.631833	0.568689
O24	O	1.534065	0.881833	0.818689
O25	O	1.004398	0.116673	0.068676
O26	O	1.254398	0.366673	0.318676
O27	O	1.504398	0.616673	0.568676
O28	O	1.754398	0.866673	0.818676
Cu29	Cu	0.894230	0.124252	0.081237
Cu30	Cu	1.144230	0.374252	0.331237
Cu31	Cu	1.394230	0.624252	0.581237
Cu32	Cu	1.644230	0.874252	0.831237
Cu33	Cu	0.894249	0.124262	-0.081365
Cu34	Cu	1.144249	0.374262	0.168635
Cu35	Cu	1.394249	0.624262	0.418635
Cu36	Cu	1.644249	0.874262	0.668635
O37	O	0.888398	0.258514	0.068676
O38	O	1.138398	0.508514	0.318676
O39	O	1.388398	0.758514	0.568676
O40	O	1.638398	1.008514	0.818676
C41	C	0.755875	0.131292	-0.000056
C42	C	1.005875	0.381292	0.249944
C43	C	1.255875	0.631292	0.499944
C44	C	1.505875	0.881292	0.749944
C45	C	0.671852	0.129656	-0.000050
C46	C	0.921852	0.379656	0.249950
C47	C	1.171852	0.629656	0.499950
C48	C	1.421852	0.879656	0.749950
C49	C	0.899526	-0.044362	-0.000056
C50	C	1.149526	0.205638	0.249944
C51	C	1.399526	0.455638	0.499944
C52	C	1.649526	0.705638	0.749944
C53	C	0.897888	-0.146735	-0.000056
C54	C	1.147888	0.103265	0.249944
C55	C	1.397888	0.353265	0.499944
C56	C	1.647888	0.603265	0.749944
C57	C	0.156114	0.119634	-0.075031
C58	C	0.406114	0.369634	0.174969
C59	C	0.656114	0.619634	0.424969
C60	C	0.906114	0.869634	0.674969
C61	C	0.235062	0.121164	-0.075027
C62	C	0.485062	0.371164	0.174973
C63	C	0.735062	0.621164	0.424973
C64	C	0.985062	0.871164	0.674973
C65	C	0.274522	0.121926	-0.000076
C66	C	0.524522	0.371926	0.249924
C67	C	0.774522	0.621926	0.499924
C68	C	1.024522	0.871926	0.749924
C69	C	0.235029	0.121148	0.074876
C70	C	0.485029	0.371148	0.324876
C71	C	0.735029	0.621148	0.574876
C72	C	0.985029	0.871148	0.824876
C73	C	0.156083	0.119611	0.074871
C74	C	0.406083	0.369611	0.324871
C75	C	0.656083	0.619611	0.574871
C76	C	0.906083	0.869611	0.824871
C77	C	0.553412	0.127347	0.074897
C78	C	0.803412	0.377347	0.324897
C79	C	1.053412	0.627347	0.574897
C80	C	1.303412	0.877347	0.824897
C81	C	0.632363	0.128887	0.074897
C82	C	0.882363	0.378887	0.324897
C83	C	1.132363	0.628887	0.574897
C84	C	1.382363	0.878887	0.824897
C85	C	0.632391	0.128901	-0.075000
C86	C	0.882391	0.378901	0.175000
C87	C	1.132391	0.628901	0.425000
C88	C	1.382391	0.878901	0.675000
C89	C	0.553444	0.127363	-0.075005
C90	C	0.803444	0.377363	0.174995
C91	C	1.053444	0.627363	0.424995
C92	C	1.303444	0.877363	0.674995
C93	C	0.513960	0.126580	-0.000054
C94	C	0.763960	0.376580	0.249946
C95	C	1.013960	0.626580	0.499946
C96	C	1.263960	0.876580	0.749946
C97	C	0.428355	0.124919	-0.000059
C98	C	0.678355	0.374919	0.249941
C99	C	0.928355	0.624919	0.499941
C100	C	1.178355	0.874919	0.749941
C101	C	0.360124	0.123595	-0.000070
C102	C	0.610124	0.373595	0.249930
C103	C	0.860124	0.623595	0.499930
C104	C	1.110124	0.873595	0.749930
C105	C	0.896557	-0.229874	-0.000058
C106	C	1.146557	0.020126	0.249942
C107	C	1.396557	0.270126	0.499942
C108	C	1.646557	0.520126	0.749942
C109	C	0.894894	-0.334175	-0.000064
C110	C	1.144894	-0.084175	0.249936
C111	C	1.394894	0.165825	0.499936
C112	C	1.644894	0.415825	0.749936
C113	C	0.893574	-0.417309	-0.000069
C114	C	1.143574	-0.167309	0.249931
C115	C	1.393574	0.082691	0.499931
C116	C	1.643574	0.332691	0.749931
C117	C	0.891911	-0.521617	-0.000074
C118	C	1.141911	-0.271617	0.249926
C119	C	1.391911	-0.021617	0.499926
C120	C	1.641911	0.228383	0.749926
C121	C	1.032604	0.117222	-0.000074
C122	C	1.282604	0.367222	0.249926
C123	C	1.532604	0.617222	0.499926
C124	C	1.782604	0.867222	0.749926
C125	C	1.116627	0.118858	-0.000085
C126	C	1.366627	0.368858	0.249915
C127	C	1.616627	0.618858	0.499915
C128	C	1.866627	0.868858	0.749915
C129	C	0.888953	0.292876	-0.000073
C130	C	1.138953	0.542876	0.249927
C131	C	1.388953	0.792876	0.499927
C132	C	1.638953	1.042876	0.749927
C133	C	0.890591	0.395249	-0.000079
C134	C	1.140591	0.645249	0.249921
C135	C	1.390591	0.895249	0.499921
C136	C	1.640591	1.145249	0.749921
N137	N	0.894222	0.124244	0.195602
N138	N	1.144222	0.374244	0.445602
N139	N	1.394222	0.624244	0.695602
N140	N	1.644222	0.874244	0.945602
N141	N	0.894263	0.124263	-0.195730
N142	N	1.144263	0.374263	0.054270
N143	N	1.394263	0.624263	0.304270
N144	N	1.644263	0.874263	0.554270
C145	C	0.945602	0.061462	0.238867
C146	C	1.195602	0.311462	0.488867
C147	C	1.445602	0.561462	0.738867
C148	C	1.695602	0.811462	0.988867
C149	C	0.945606	0.061461	0.325414
C150	C	1.195606	0.311461	0.575414
C151	C	1.445606	0.561461	0.825414
C152	C	1.695606	0.811461	1.075414
C153	C	0.894233	0.124247	0.368695
C154	C	1.144233	0.374247	0.618695
C155	C	1.394233	0.624247	0.868695
C156	C	1.644233	0.874247	1.118695
C157	C	0.842847	0.187032	0.325424
C158	C	1.092847	0.437032	0.575424
C159	C	1.342847	0.687032	0.825424
C160	C	1.592847	0.937032	1.075424
C161	C	0.842840	0.187028	0.238879
C162	C	1.092840	0.437028	0.488879
C163	C	1.342840	0.687028	0.738879
C164	C	1.592840	0.937028	0.988879
C165	C	0.842873	0.187049	0.674453
C166	C	1.092873	0.437049	0.924453
C167	C	1.342873	0.687049	1.174453
C168	C	1.592873	0.937049	1.424453
C169	C	0.842886	0.187050	0.761004
C170	C	1.092886	0.437050	1.011004
C171	C	1.342886	0.687050	1.261004
C172	C	1.592886	0.937050	1.511004
C173	C	0.945639	0.061482	0.760987
C174	C	1.195639	0.311482	1.010987
C175	C	1.445639	0.561482	1.260987
C176	C	1.695639	0.811482	1.510987
C177	C	0.945632	0.061478	0.674442
C178	C	1.195632	0.311478	0.924442
C179	C	1.445632	0.561478	1.174442
C180	C	1.695632	0.811478	1.424442
C181	C	0.894244	0.124259	0.631179
C182	C	1.144244	0.374259	0.881179
C183	C	1.394244	0.624259	1.131179
C184	C	1.644244	0.874259	1.381179
C185	C	0.894240	0.124258	0.537335
C186	C	1.144240	0.374258	0.787335
C187	C	1.394240	0.624258	1.037335
C188	C	1.644240	0.874258	1.287335
C189	C	0.894240	0.124253	0.462537
C190	C	1.144240	0.374253	0.712537
C191	C	1.394240	0.624253	0.962537
C192	C	1.644240	0.874253	1.212537
H193	H	0.123991	0.119020	-0.136065
H194	H	0.373991	0.369020	0.113935
H195	H	0.623991	0.619020	0.363935
H196	H	0.873991	0.869020	0.613935
H197	H	0.987480	0.010359	0.796221
H198	H	1.237480	0.260359	1.046221
H199	H	1.487480	0.510359	1.296221
H200	H	1.737480	0.760359	1.546221
H201	H	0.521274	0.126696	0.135927
H202	H	0.771274	0.376696	0.385927
H203	H	1.021274	0.626696	0.635927
H204	H	1.271274	0.876696	0.885927
H205	H	0.267164	0.121763	0.135902
H206	H	0.517164	0.371763	0.385902
H207	H	0.767164	0.621763	0.635902
H208	H	1.017164	0.871763	0.885902
H209	H	0.664549	0.129534	-0.136029
H210	H	0.914549	0.379534	0.113971
H211	H	1.164549	0.629534	0.363971
H212	H	1.414549	0.879534	0.613971
H213	H	0.123933	0.118989	0.135900
H214	H	0.373933	0.368989	0.385900
H215	H	0.623933	0.618989	0.635900
H216	H	0.873933	0.868989	0.885900
H217	H	0.521320	0.126747	-0.136038
H218	H	0.771320	0.376747	0.113962
H219	H	1.021320	0.626747	0.363962
H220	H	1.271320	0.876747	0.613962
H221	H	0.987440	0.010338	0.203633
H222	H	1.237440	0.260338	0.453633
H223	H	1.487440	0.510338	0.703633
H224	H	1.737440	0.760338	0.953633
H225	H	0.801048	0.238180	0.796242
H226	H	1.051048	0.488180	1.046242
H227	H	1.301048	0.738180	1.296242
H228	H	1.551048	0.988180	1.546242
H229	H	0.987468	0.010355	0.639205
H230	H	1.237468	0.260355	0.889205
H231	H	1.487468	0.510355	1.139205
H232	H	1.737468	0.760355	1.389205
H233	H	0.664489	0.129507	0.135934
H234	H	0.914489	0.379507	0.385934
H235	H	1.164489	0.629507	0.635934
H236	H	1.414489	0.879507	0.885934
H237	H	0.987443	0.010339	0.360639
H238	H	1.237443	0.260339	0.610639
H239	H	1.487443	0.510339	0.860639
H240	H	1.737443	0.760339	1.110639
H241	H	0.801014	0.238150	0.360669
H242	H	1.051014	0.488150	0.610669
H243	H	1.301014	0.738150	0.860669
H244	H	1.551014	0.988150	1.110669
H245	H	0.801033	0.238169	0.639235
H246	H	1.051033	0.488169	0.889235
H247	H	1.301033	0.738169	1.139235
H248	H	1.551033	0.988169	1.389235
H249	H	0.801000	0.238150	0.203654
H250	H	1.051000	0.488150	0.453654
H251	H	1.301000	0.738150	0.703654
H252	H	1.551000	0.988150	0.953654
H253	H	0.267209	0.121790	-0.136055
H254	H	0.517209	0.371790	0.113945
H255	H	0.767209	0.621790	0.363945
H256	H	1.017209	0.871790	0.613945
