data_functionalizedCrystal
_audit_creation_method	'MofGen! by Chris Wilmer'
_symmetry_space_group_name_H-M	'P1'
_symmetry_Int_Tables_number	1
_symmetry_cell_setting	triclinic
loop_
_symmetry_equiv_pos_as_xyz
  x,y,z
_cell_length_a	11.169417
_cell_length_b	13.897447
_cell_length_c	11.169409
_cell_angle_alpha	89.965697
_cell_angle_beta	89.980487
_cell_angle_gamma	90.020779
loop_
_atom_site_label
_atom_site_type_symbol
_atom_site_fract_x
_atom_site_fract_y
_atom_site_fract_z
Zn1	Zn	1.834886	-0.383905	-0.678516
Zn2	Zn	2.334886	0.116095	-0.178516
Zn3	Zn	1.834743	-0.545240	-0.477826
Zn4	Zn	2.334743	-0.045240	0.022174
Zn5	Zn	1.634172	-0.383964	-0.477852
Zn6	Zn	2.134172	0.116036	0.022148
Zn7	Zn	1.634147	-0.545163	-0.678472
Zn8	Zn	2.134147	-0.045163	-0.178472
O9	O	1.734487	-0.464568	-0.578167
O10	O	2.234487	0.035432	-0.078167
O11	O	2.002816	-0.405314	-0.651902
O12	O	2.502816	0.094686	-0.151902
O13	O	1.808087	-0.523904	-0.309880
O14	O	2.308087	-0.023904	0.190120
O15	O	1.660867	-0.248975	-0.504499
O16	O	2.160867	0.251025	-0.004499
O17	O	2.002711	-0.523846	-0.504456
O18	O	2.502711	-0.023846	-0.004456
O19	O	1.808331	-0.248931	-0.651927
O20	O	2.308331	0.251069	-0.151927
O21	O	1.660728	-0.405416	-0.309899
O22	O	2.160728	0.094584	0.190101
O23	O	1.466219	-0.405340	-0.504457
O24	O	1.966219	0.094660	-0.004457
O25	O	1.660825	-0.523714	-0.846428
O26	O	2.160825	-0.023714	-0.346428
O27	O	1.466200	-0.523772	-0.651852
O28	O	1.966200	-0.023772	-0.151852
O29	O	1.808307	-0.405238	-0.846460
O30	O	2.308307	0.094762	-0.346460
O31	O	1.808063	-0.680212	-0.504413
O32	O	2.308063	-0.180212	-0.004413
O33	O	1.660686	-0.680155	-0.651827
O34	O	2.160686	-0.180155	-0.151827
C35	C	1.422662	-0.464555	-0.578153
C36	C	1.922662	0.035445	-0.078153
C37	C	1.289262	-0.464573	-0.578176
C38	C	1.789262	0.035427	-0.078176
C39	C	1.734389	-0.715182	-0.578139
C40	C	2.234389	-0.215182	-0.078139
C41	C	1.734457	-0.822396	-0.578167
C42	C	2.234457	-0.322396	-0.078167
C43	C	1.734515	-0.909466	-0.578194
C44	C	2.234515	-0.409466	-0.078194
C45	C	1.734599	-1.018699	-0.578225
C46	C	2.234599	-0.518699	-0.078225
C47	C	2.047529	-0.464582	-0.578181
C48	C	2.547529	0.035418	-0.078181
C49	C	2.180929	-0.464588	-0.578187
C50	C	2.680929	0.035412	-0.078187
C51	C	1.734579	-0.464461	-0.891209
C52	C	2.234579	0.035539	-0.391209
C53	C	1.734618	-0.464415	-1.024609
C54	C	2.234618	0.035585	-0.524609
C55	C	1.734617	-0.212975	-0.578221
C56	C	2.234617	0.287025	-0.078221
C57	C	1.734673	-0.105761	-0.578244
C58	C	2.234673	0.394239	-0.078244
C59	C	1.734464	-0.464605	-0.266342
C60	C	2.234464	0.035395	0.233658
C61	C	1.734657	-0.464379	-0.132943
C62	C	2.234657	0.035621	0.367057
