data_functionalizedCrystal
_audit_creation_method	'MofGen! by Chris Wilmer'
_symmetry_space_group_name_H-M	'P1'
_symmetry_Int_Tables_number	1
_symmetry_cell_setting	triclinic
loop_
_symmetry_equiv_pos_as_xyz
  x,y,z
_cell_length_a	15.712078
_cell_length_b	11.792241
_cell_length_c	14.750779
_cell_angle_alpha	77.269352
_cell_angle_beta	106.492891
_cell_angle_gamma	101.887282
loop_
_atom_site_label
_atom_site_type_symbol
_atom_site_fract_x
_atom_site_fract_y
_atom_site_fract_z
O1	O	1.131084	0.640518	-0.080054
O2	O	0.879034	0.553939	-0.080005
O3	O	1.011177	0.434547	-0.080024
O4	O	0.998941	0.759910	-0.080035
O5	O	1.048533	0.400801	0.079621
O6	O	0.916389	0.520194	0.079640
O7	O	1.168439	0.606772	0.079591
Zn8	Zn	1.048345	0.558125	0.104962
Zn9	Zn	0.999128	0.602586	-0.105377
O10	O	1.036296	0.726165	0.079610
C11	C	0.865444	0.522923	-0.000177
C12	C	0.769296	0.480766	-0.000158
C13	C	0.403858	0.838674	-0.000236
C14	C	0.313505	0.799043	-0.000259
C15	C	0.333192	0.600438	-0.000254
C16	C	0.423547	0.640053	-0.000236
C17	C	0.458873	0.759172	-0.000226
C18	C	0.478562	0.560552	-0.000226
C19	C	0.568910	0.600163	-0.000203
C20	C	0.604244	0.719276	-0.000190
C21	C	0.549221	0.798784	-0.000203
C22	C	0.443236	0.441432	-0.000229
C23	C	0.498250	0.361930	-0.000219
C24	C	0.588599	0.401543	-0.000203
C25	C	0.623933	0.520656	-0.000191
C26	C	0.643621	0.322035	-0.000191
C27	C	0.733970	0.361647	-0.000168
C28	C	0.714281	0.560267	-0.000168
C29	C	1.029086	0.375070	-0.000202
C30	C	1.026786	0.248120	-0.000202
C31	C	1.022553	0.015690	-0.000218
C32	C	1.024905	0.145030	-0.000209
C33	C	1.182029	0.637789	-0.000240
C34	C	1.278176	0.679948	-0.000265
C35	C	1.018387	0.785642	-0.000215
C36	C	1.020685	0.912593	-0.000220
N37	N	1.081941	0.527784	0.248513
N38	N	0.965539	0.632922	-0.248928
C39	C	0.871711	0.717611	0.600361
C40	C	0.895259	0.696360	0.700857
C41	C	1.012296	0.590705	0.700803
C42	C	0.988755	0.611942	0.600305
C43	C	0.918462	0.675397	0.550092
C44	C	1.035507	0.569728	0.550036
C45	C	1.011970	0.590970	0.449547
C46	C	0.941682	0.654425	0.399327
C47	C	0.894926	0.696639	0.449603
C48	C	1.105803	0.506281	0.600251
C49	C	1.152555	0.464067	0.549982
C50	C	1.129014	0.485301	0.449491
C51	C	1.058726	0.548756	0.399271
C52	C	1.175770	0.443087	0.399215
C53	C	1.152234	0.464329	0.298726
C54	C	1.035190	0.569998	0.298782
H55	H	0.977944	0.621658	0.257897
H56	H	0.304419	0.503448	-0.000251
N57	N	0.462157	0.240263	-0.000252
N58	N	0.463114	0.192439	-0.067550
H59	H	0.437624	0.106509	-0.067577
H60	H	0.677813	0.751525	-0.000168
H61	H	0.837680	0.748299	0.408718
N62	N	1.084103	0.525910	0.752113
N63	N	1.105118	0.506961	0.841835
H64	H	1.155834	0.461200	0.878072
H65	H	0.614848	0.225046	-0.000187
N66	N	0.585297	0.920468	-0.000204
N67	N	0.536168	0.991448	-0.000221
H68	H	0.561647	1.077385	-0.000220
N69	N	0.917652	0.676176	0.296680
N70	N	0.974138	0.732322	0.251809
H71	H	0.957169	0.747697	0.179314
H72	H	1.124966	0.488994	0.682076
N73	N	1.199888	0.421017	0.247386
N74	N	1.262570	0.364234	0.292229
H75	H	1.296188	0.333575	0.255971
H76	H	0.268715	0.863791	-0.000262
N77	N	0.799912	0.782431	0.549046
N78	N	0.778911	0.801388	0.459325
H79	H	0.728206	0.847165	0.423081
N80	N	0.350955	0.400950	-0.000222
N81	N	0.321965	0.413369	0.067070
H82	H	0.256793	0.384774	0.067082
H83	H	0.857183	0.730743	0.741781
N84	N	1.224362	0.399272	0.601292
N85	N	1.245376	0.380324	0.691014
H86	H	1.296092	0.334563	0.727252
H87	H	0.743045	0.657265	-0.000158
N88	N	1.247567	0.378276	0.450531
N89	N	1.232905	0.284413	0.506628
H90	H	1.283613	0.238641	0.542872
N91	N	0.439934	0.960358	-0.000237
N92	N	0.390805	1.031338	-0.000253
H93	H	0.416283	1.117275	-0.000253
H94	H	0.778764	0.296909	-0.000162
