data_functionalizedCrystal
_audit_creation_method	'MofGen! by Chris Wilmer'
_symmetry_space_group_name_H-M	'P1'
_symmetry_Int_Tables_number	1
_symmetry_cell_setting	triclinic
loop_
_symmetry_equiv_pos_as_xyz
  x,y,z
_cell_length_a	21.295418
_cell_length_b	29.839131
_cell_length_c	21.295411
_cell_angle_alpha	89.971982
_cell_angle_beta	89.956262
_cell_angle_gamma	90.051038
loop_
_atom_site_label
_atom_site_type_symbol
_atom_site_fract_x
_atom_site_fract_y
_atom_site_fract_z
Zn1	Zn	0.962335	-0.178715	-0.356206
Zn2	Zn	1.212335	0.071285	-0.106206
Zn3	Zn	1.462335	0.321285	0.143794
Zn4	Zn	1.712335	0.571285	0.393794
Zn5	Zn	0.962229	-0.253830	-0.250919
Zn6	Zn	1.212229	-0.003830	-0.000919
Zn7	Zn	1.462229	0.246170	0.249081
Zn8	Zn	1.712229	0.496170	0.499081
Zn9	Zn	0.857058	-0.178736	-0.250916
Zn10	Zn	1.107058	0.071264	-0.000916
Zn11	Zn	1.357058	0.321264	0.249084
Zn12	Zn	1.607058	0.571264	0.499084
Zn13	Zn	0.857019	-0.253839	-0.356116
Zn14	Zn	1.107019	-0.003839	-0.106116
Zn15	Zn	1.357019	0.246161	0.143884
Zn16	Zn	1.607019	0.496161	0.393884
O17	O	0.909660	-0.216280	-0.303539
O18	O	1.159660	0.033720	-0.053539
O19	O	1.409660	0.283720	0.196461
O20	O	1.659660	0.533720	0.446461
O21	O	1.050410	-0.188667	-0.342279
O22	O	1.300410	0.061333	-0.092279
O23	O	1.550410	0.311333	0.157721
O24	O	1.800410	0.561333	0.407721
O25	O	0.948250	-0.243874	-0.162829
O26	O	1.198250	0.006126	0.087171
O27	O	1.448250	0.256126	0.337171
O28	O	1.698250	0.506126	0.587171
O29	O	0.871084	-0.115866	-0.264918
O30	O	1.121084	0.134134	-0.014918
O31	O	1.371084	0.384134	0.235082
O32	O	1.621084	0.634134	0.485082
O33	O	1.050332	-0.243854	-0.264925
O34	O	1.300332	0.006146	-0.014925
O35	O	1.550332	0.256146	0.235075
O36	O	1.800332	0.506146	0.485075
O37	O	0.948431	-0.115851	-0.342275
O38	O	1.198431	0.134149	-0.092275
O39	O	1.448431	0.384149	0.157725
O40	O	1.698431	0.634149	0.407725
O41	O	0.870981	-0.188703	-0.162827
O42	O	1.120981	0.061297	0.087173
O43	O	1.370981	0.311297	0.337173
O44	O	1.620981	0.561297	0.587173
O45	O	0.768964	-0.188711	-0.264831
O46	O	1.018964	0.061289	-0.014831
O47	O	1.268964	0.311289	0.235169
O48	O	1.518964	0.561289	0.485169
O49	O	0.871017	-0.243869	-0.444217
O50	O	1.121017	0.006131	-0.194217
O51	O	1.371017	0.256131	0.055783
O52	O	1.621017	0.506131	0.305783
O53	O	0.768935	-0.243889	-0.342122
O54	O	1.018935	0.006111	-0.092122
O55	O	1.268935	0.256111	0.157878
O56	O	1.518935	0.506111	0.407878
O57	O	0.948393	-0.188675	-0.444283
O58	O	1.198393	0.061325	-0.194283
O59	O	1.448393	0.311325	0.055717
O60	O	1.698393	0.561325	0.305717
O61	O	0.948212	-0.316699	-0.264838
O62	O	1.198212	-0.066699	-0.014838
O63	O	1.448212	0.183301	0.235162
O64	O	1.698212	0.433301	0.485162
O65	O	0.870914	-0.316705	-0.342125
O66	O	1.120914	-0.066705	-0.092125
O67	O	1.370914	0.183295	0.157875
O68	O	1.620914	0.433295	0.407875
C69	C	0.746109	-0.216304	-0.303467
C70	C	0.996109	0.033696	-0.053467
C71	C	1.246109	0.283696	0.196533
C72	C	1.496109	0.533696	0.446533
C73	C	0.676141	-0.216325	-0.303451
C74	C	0.926141	0.033675	-0.053451
C75	C	1.176141	0.283675	0.196549
C76	C	1.426141	0.533675	0.446549
C77	C	0.643275	-0.245094	-0.343635
C78	C	0.893275	0.004906	-0.093635
C79	C	1.143275	0.254906	0.156365
C80	C	1.393275	0.504906	0.406365
C81	C	0.577533	-0.245083	-0.343664
C82	C	0.827533	0.004917	-0.093664
C83	C	1.077533	0.254917	0.156336
C84	C	1.327533	0.504917	0.406336
C85	C	0.544658	-0.216307	-0.303496
C86	C	0.794658	0.033693	-0.053496
C87	C	1.044658	0.283693	0.196504
C88	C	1.294658	0.533693	0.446504
C89	C	0.577531	-0.187532	-0.263308
C90	C	0.827531	0.062468	-0.013308
C91	C	1.077531	0.312468	0.236692
C92	C	1.327531	0.562468	0.486692
C93	C	0.643272	-0.187541	-0.263286
C94	C	0.893272	0.062459	-0.013286
C95	C	1.143272	0.312459	0.236714
C96	C	1.393272	0.562459	0.486714
N97	N	0.441382	-0.212791	-0.248439
N98	N	0.691382	0.037209	0.001561
N99	N	0.941382	0.287209	0.251561
N100	N	1.191382	0.537209	0.501561
N101	N	0.378931	-0.212785	-0.248462
N102	N	0.628931	0.037215	0.001538
N103	N	0.878931	0.287215	0.251538
N104	N	1.128931	0.537215	0.501538
C105	C	0.346583	-0.216279	-0.303563
C106	C	0.596583	0.033721	-0.053563
C107	C	0.846583	0.283721	0.196437
C108	C	1.096583	0.533721	0.446437
N109	N	0.379046	-0.219787	-0.358640
N110	N	0.629046	0.030213	-0.108640
N111	N	0.879046	0.280213	0.141360
N112	N	1.129046	0.530213	0.391360
N113	N	0.441504	-0.219795	-0.358616
N114	N	0.691504	0.030205	-0.108616
N115	N	0.941504	0.280205	0.141384
N116	N	1.191504	0.530205	0.391384
C117	C	0.473373	-0.216294	-0.303516
C118	C	0.723373	0.033706	-0.053516
C119	C	0.973373	0.283706	0.196484
C120	C	1.223373	0.533706	0.446484
C121	C	0.242433	-0.245037	-0.343782
C122	C	0.492433	0.004963	-0.093782
C123	C	0.742433	0.254963	0.156218
C124	C	0.992433	0.504963	0.406218
C125	C	0.176689	-0.245023	-0.343811
C126	C	0.426689	0.004977	-0.093811
C127	C	0.676689	0.254977	0.156189
C128	C	0.926689	0.504977	0.406189
C129	C	0.176689	-0.187475	-0.263450
C130	C	0.426689	0.062525	-0.013450
C131	C	0.676689	0.312525	0.236550
C132	C	0.926689	0.562525	0.486550
C133	C	0.242431	-0.187487	-0.263426
C134	C	0.492431	0.062513	-0.013426
C135	C	0.742431	0.312513	0.236574
C136	C	0.992431	0.562513	0.486574
C137	C	0.275299	-0.216271	-0.303591
C138	C	0.525299	0.033729	-0.053591
C139	C	0.775299	0.283729	0.196409
C140	C	1.025299	0.533729	0.446409
C141	C	0.909564	-0.333003	-0.303486
C142	C	1.159564	-0.083003	-0.053486
C143	C	1.409564	0.166997	0.196514
C144	C	1.659564	0.416997	0.446514
C145	C	0.909581	-0.382937	-0.303484
C146	C	1.159581	-0.132937	-0.053484
C147	C	1.409581	0.117063	0.196516
C148	C	1.659581	0.367063	0.446516
C149	C	0.949926	-0.692538	-0.343876
C150	C	1.199926	-0.442538	-0.093876
C151	C	1.449926	-0.192538	0.156124
C152	C	1.699926	0.057462	0.406124
C153	C	0.949994	-0.880211	-0.343914
C154	C	1.199994	-0.630211	-0.093914
C155	C	1.449994	-0.380211	0.156086
C156	C	1.699994	-0.130211	0.406086
O157	O	0.984203	-0.904439	-0.378217
O158	O	1.234203	-0.654439	-0.128217
O159	O	1.484203	-0.404439	0.121783
O160	O	1.734203	-0.154439	0.371783
N161	N	0.909767	-0.903722	-0.303609
N162	N	1.159767	-0.653722	-0.053609
N163	N	1.409767	-0.403722	0.196391
N164	N	1.659767	-0.153722	0.446391
C165	C	0.869517	-0.880313	-0.263295
C166	C	1.119517	-0.630313	-0.013295
C167	C	1.369517	-0.380313	0.236705
C168	C	1.619517	-0.130313	0.486705
O169	O	0.835299	-0.904617	-0.229019
O170	O	1.085299	-0.654617	0.020981
O171	O	1.335299	-0.404617	0.270981
O172	O	1.585299	-0.154617	0.520981
C173	C	0.869446	-0.692640	-0.263261
C174	C	1.119446	-0.442640	-0.013261
C175	C	1.369446	-0.192640	0.236739
C176	C	1.619446	0.057360	0.486739
C177	C	0.909680	-0.669131	-0.303564
C178	C	1.159680	-0.419131	-0.053564
C179	C	1.409680	-0.169131	0.196436
C180	C	1.659680	0.080869	0.446436
C181	C	0.990156	-0.669028	-0.384176
C182	C	1.240156	-0.419028	-0.134176
C183	C	1.490156	-0.169028	0.115824
C184	C	1.740156	0.080972	0.365824
C185	C	0.990141	-0.622113	-0.384164
C186	C	1.240141	-0.372113	-0.134164
C187	C	1.490141	-0.122113	0.115836
C188	C	1.740141	0.127887	0.365836
C189	C	0.949896	-0.598707	-0.343851
C190	C	1.199896	-0.348707	-0.093851
C191	C	1.449896	-0.098707	0.156149
C192	C	1.699896	0.151293	0.406149
C193	C	0.909665	-0.622216	-0.303551
C194	C	1.159665	-0.372216	-0.053551
C195	C	1.409665	-0.122216	0.196449
C196	C	1.659665	0.127784	0.446449
C197	C	0.829194	-0.669232	-0.222950
C198	C	1.079194	-0.419232	0.027050
C199	C	1.329194	-0.169232	0.277050
C200	C	1.579194	0.080768	0.527050
C201	C	0.829179	-0.622311	-0.222946
C202	C	1.079179	-0.372311	0.027054
C203	C	1.329179	-0.122311	0.277054
C204	C	1.579179	0.127689	0.527054
C205	C	0.869413	-0.598802	-0.263249
C206	C	1.119413	-0.348802	-0.013249
C207	C	1.369413	-0.098802	0.236751
C208	C	1.619413	0.151198	0.486751
C209	C	0.869405	-0.551894	-0.263227
C210	C	1.119405	-0.301894	-0.013227
C211	C	1.369405	-0.051894	0.236773
C212	C	1.619405	0.198106	0.486773
N213	N	0.909632	-0.528383	-0.303531
N214	N	1.159632	-0.278383	-0.053531
N215	N	1.409632	-0.028383	0.196469
N216	N	1.659632	0.221617	0.446469
C217	C	0.949877	-0.551789	-0.343844
C218	C	1.199877	-0.301789	-0.093844
C219	C	1.449877	-0.051789	0.156156
C220	C	1.699877	0.198211	0.406156
C221	C	0.869558	-0.978843	-0.263315
C222	C	1.119558	-0.728843	-0.013315
C223	C	1.369558	-0.478843	0.236685
C224	C	1.619558	-0.228843	0.486685
C225	C	0.869577	-1.025761	-0.263322
C226	C	1.119577	-0.775761	-0.013322
C227	C	1.369577	-0.525761	0.236678
C228	C	1.619577	-0.275761	0.486678
C229	C	0.950053	-1.025656	-0.343942
C230	C	1.200053	-0.775656	-0.093942
C231	C	1.450053	-0.525656	0.156058
C232	C	1.700053	-0.275656	0.406058
C233	C	0.950037	-0.978737	-0.343931
C234	C	1.200037	-0.728737	-0.093931
C235	C	1.450037	-0.478737	0.156069
C236	C	1.700037	-0.228737	0.406069
C237	C	0.909785	-0.955332	-0.303620
C238	C	1.159785	-0.705332	-0.053620
C239	C	1.409785	-0.455332	0.196380
C240	C	1.659785	-0.205332	0.446380
C241	C	0.949843	-0.453263	-0.343814
C242	C	1.199843	-0.203263	-0.093814
C243	C	1.449843	0.046737	0.156186
C244	C	1.699843	0.296737	0.406186
C245	C	0.949826	-0.406343	-0.343797
C246	C	1.199826	-0.156343	-0.093797
C247	C	1.449826	0.093657	0.156203
C248	C	1.699826	0.343657	0.406203
C249	C	0.869348	-0.406453	-0.263180
C250	C	1.119348	-0.156453	-0.013180
C251	C	1.369348	0.093547	0.236820
C252	C	1.619348	0.343547	0.486820
C253	C	0.869367	-0.453368	-0.263195
C254	C	1.119367	-0.203368	-0.013195
C255	C	1.369367	0.046632	0.236805
C256	C	1.619367	0.296632	0.486805
C257	C	0.909616	-0.476772	-0.303517
C258	C	1.159616	-0.226772	-0.053517
C259	C	1.409616	0.023228	0.196483
C260	C	1.659616	0.273228	0.446483
O261	O	0.835209	-0.527637	-0.228947
O262	O	1.085209	-0.277637	0.021053
O263	O	1.335209	-0.027637	0.271053
O264	O	1.585209	0.222363	0.521053
O265	O	0.984081	-0.527476	-0.378125
O266	O	1.234081	-0.277476	-0.128125
O267	O	1.484081	-0.027476	0.121875
O268	O	1.734081	0.222524	0.371875
C269	C	0.949941	-0.739453	-0.343888
C270	C	1.199941	-0.489453	-0.093888
C271	C	1.449941	-0.239453	0.156112
C272	C	1.699941	0.010547	0.406112
C273	C	0.909711	-0.762962	-0.303588
C274	C	1.159711	-0.512962	-0.053588
C275	C	1.409711	-0.262962	0.196412
C276	C	1.659711	-0.012962	0.446412
C277	C	0.869465	-0.739556	-0.263276
C278	C	1.119465	-0.489556	-0.013276
C279	C	1.369465	-0.239556	0.236724
C280	C	1.619465	0.010444	0.486724
C281	C	0.909729	-0.809880	-0.303596
C282	C	1.159729	-0.559880	-0.053596
C283	C	1.409729	-0.309880	0.196404
C284	C	1.659729	-0.059880	0.446404
C285	C	0.949974	-0.833286	-0.343908
C286	C	1.199974	-0.583286	-0.093908
C287	C	1.449974	-0.333286	0.156092
C288	C	1.699974	-0.083286	0.406092
C289	C	0.990201	-0.809775	-0.384213
C290	C	1.240201	-0.559775	-0.134213
C291	C	1.490201	-0.309775	0.115787
C292	C	1.740201	-0.059775	0.365787
C293	C	0.990186	-0.762859	-0.384201
C294	C	1.240186	-0.512859	-0.134201
C295	C	1.490186	-0.262859	0.115799
C296	C	1.740186	-0.012859	0.365799
C297	C	0.829238	-0.763068	-0.222971
C298	C	1.079238	-0.513068	0.027029
C299	C	1.329238	-0.263068	0.277029
C300	C	1.579238	-0.013068	0.527029
C301	C	0.829257	-0.809983	-0.222986
C302	C	1.079257	-0.559983	0.027014
C303	C	1.329257	-0.309983	0.277014
C304	C	1.579257	-0.059983	0.527014
C305	C	0.869503	-0.833389	-0.263298
C306	C	1.119503	-0.583389	-0.013298
C307	C	1.369503	-0.333389	0.236702
C308	C	1.619503	-0.083389	0.486702
C309	C	1.073851	-0.216257	-0.303612
C310	C	1.323851	0.033743	-0.053612
C311	C	1.573851	0.283743	0.196388
C312	C	1.823851	0.533743	0.446388
C313	C	1.143819	-0.216247	-0.303643
C314	C	1.393819	0.033753	-0.053643
C315	C	1.643819	0.283753	0.196357
C316	C	1.893819	0.533753	0.446357
C317	C	0.909713	-0.216271	-0.467729
C318	C	1.159713	0.033729	-0.217729
C319	C	1.409713	0.283729	0.032271
C320	C	1.659713	0.533729	0.282271
C321	C	0.909735	-0.216267	-0.537698
C322	C	1.159735	0.033733	-0.287698
C323	C	1.409735	0.283733	-0.037698
C324	C	1.659735	0.533733	0.212302
C325	C	0.909774	-0.099102	-0.303606
C326	C	1.159774	0.150898	-0.053606
C327	C	1.409774	0.400898	0.196394
C328	C	1.659774	0.650898	0.446394
C329	C	0.909822	-0.049167	-0.303635
C330	C	1.159822	0.200833	-0.053635
C331	C	1.409822	0.450833	0.196365
C332	C	1.659822	0.700833	0.446365
C333	C	0.950022	-0.187526	-0.570600
C334	C	1.200022	0.062474	-0.320600
C335	C	1.450022	0.312474	-0.070600
C336	C	1.700022	0.562474	0.179400
C337	C	0.950022	-0.187507	-0.636342
C338	C	1.200022	0.062493	-0.386342
C339	C	1.450022	0.312493	-0.136342
C340	C	1.700022	0.562493	0.113658
C341	C	0.909740	-0.216236	-0.669180
C342	C	1.159740	0.033764	-0.419180
C343	C	1.409740	0.283764	-0.169180
C344	C	1.659740	0.533764	0.080820
C345	C	0.869444	-0.244978	-0.636270
C346	C	1.119444	0.005022	-0.386270
C347	C	1.369444	0.255022	-0.136270
C348	C	1.619444	0.505022	0.113730
C349	C	0.869442	-0.244994	-0.570529
C350	C	1.119442	0.005006	-0.320529
C351	C	1.369442	0.255006	-0.070529
C352	C	1.619442	0.505006	0.179471
N353	N	0.904879	-0.255537	-0.772388
N354	N	1.154879	-0.005537	-0.522388
N355	N	1.404879	0.244463	-0.272388
N356	N	1.654879	0.494463	-0.022388
N357	N	0.904885	-0.255521	-0.834839
N358	N	1.154885	-0.005521	-0.584839
N359	N	1.404885	0.244479	-0.334839
N360	N	1.654885	0.494479	-0.084839
C361	C	0.909744	-0.216190	-0.867255
C362	C	1.159744	0.033810	-0.617255
C363	C	1.409744	0.283810	-0.367255
C364	C	1.659744	0.533810	-0.117255
N365	N	0.914609	-0.176875	-0.834860
N366	N	1.164609	0.073125	-0.584860
N367	N	1.414609	0.323125	-0.334860
N368	N	1.664609	0.573125	-0.084860
N369	N	0.914606	-0.176891	-0.772403
N370	N	1.164606	0.073109	-0.522403
N371	N	1.414606	0.323109	-0.272403
N372	N	1.664606	0.573109	-0.022403
C373	C	0.909738	-0.216222	-0.740466
C374	C	1.159738	0.033778	-0.490466
C375	C	1.409738	0.283778	-0.240466
C376	C	1.659738	0.533778	0.009534
C377	C	0.950033	-0.187426	-0.971443
C378	C	1.200033	0.062574	-0.721443
C379	C	1.450033	0.312574	-0.471443
C380	C	1.700033	0.562574	-0.221443
C381	C	0.950027	-0.187406	-1.037186
C382	C	1.200027	0.062594	-0.787186
C383	C	1.450027	0.312594	-0.537186
C384	C	1.700027	0.562594	-0.287186
C385	C	0.869453	-0.244882	-1.037113
C386	C	1.119453	0.005118	-0.787113
C387	C	1.369453	0.255118	-0.537113
C388	C	1.619453	0.505118	-0.287113
C389	C	0.869455	-0.244898	-0.971371
C390	C	1.119455	0.005102	-0.721371
C391	C	1.369455	0.255102	-0.471371
C392	C	1.619455	0.505102	-0.221371
C393	C	0.909748	-0.216171	-0.938539
C394	C	1.159748	0.033829	-0.688539
C395	C	1.409748	0.283829	-0.438539
C396	C	1.659748	0.533829	-0.188539
C397	C	0.909645	-0.216257	-0.139988
C398	C	1.159645	0.033743	0.110012
C399	C	1.409645	0.283743	0.360012
C400	C	1.659645	0.533743	0.610012
C401	C	0.909744	-0.216135	-0.070020
C402	C	1.159744	0.033865	0.179980
C403	C	1.409744	0.283865	0.429980
C404	C	1.659744	0.533865	0.679980
H405	H	0.982592	-0.387204	-0.376616
H406	H	1.232592	-0.137204	-0.126616
H407	H	1.482592	0.112796	0.123384
H408	H	1.732592	0.362796	0.373384
C409	C	0.994349	-0.155822	-0.935326
C410	C	1.244349	0.094178	-0.685326
C411	C	1.494349	0.344178	-0.435326
C412	C	1.744349	0.594178	-0.185326
N413	N	1.027729	-0.132017	-0.908125
N414	N	1.277729	0.117983	-0.658125
N415	N	1.527729	0.367983	-0.408125
N416	N	1.777729	0.617983	-0.158125
H417	H	0.982833	-0.163999	-1.063974
H418	H	1.232833	0.086001	-0.813974
H419	H	1.482833	0.336001	-0.563974
H420	H	1.732833	0.586001	-0.313974
H421	H	0.670031	-0.164112	-0.230562
H422	H	0.920031	0.085888	0.019438
H423	H	1.170031	0.335888	0.269438
H424	H	1.420031	0.585888	0.519438
C425	C	0.825131	-0.276578	-0.672393
C426	C	1.075131	-0.026578	-0.422393
C427	C	1.325131	0.223422	-0.172393
C428	C	1.575131	0.473422	0.077607
N429	N	0.791751	-0.300379	-0.699601
N430	N	1.041751	-0.050379	-0.449601
N431	N	1.291751	0.199621	-0.199601
N432	N	1.541751	0.449621	0.050399
H433	H	0.836821	-1.044898	-0.230497
H434	H	1.086821	-0.794898	0.019503
H435	H	1.336821	-0.544898	0.269503
H436	H	1.586821	-0.294898	0.519503
C437	C	1.034471	-0.835531	-0.428558
C438	C	1.284471	-0.585531	-0.178558
C439	C	1.534471	-0.335531	0.071442
C440	C	1.784471	-0.085531	0.321442
N441	N	1.067809	-0.854932	-0.461959
N442	N	1.317809	-0.604932	-0.211959
N443	N	1.567809	-0.354932	0.038041
N444	N	1.817809	-0.104932	0.288041
C445	C	0.994338	-0.155919	-0.534489
C446	C	1.244338	0.094081	-0.284489
C447	C	1.494338	0.344081	-0.034489
C448	C	1.744338	0.594081	0.215511
N449	N	1.027714	-0.132111	-0.507289
N450	N	1.277714	0.117889	-0.257289
N451	N	1.527714	0.367889	-0.007289
N452	N	1.777714	0.617889	0.242711
H453	H	0.149923	-0.164043	-0.230747
H454	H	0.399923	0.085957	0.019253
H455	H	0.649923	0.335957	0.269253
H456	H	0.899923	0.585957	0.519253
H457	H	0.836649	-0.268269	-1.063849
H458	H	1.086649	-0.018269	-0.813849
H459	H	1.336649	0.231731	-0.563849
H460	H	1.586649	0.481731	-0.313849
C461	C	0.784993	-0.835838	-0.178647
C462	C	1.034993	-0.585838	0.071353
C463	C	1.284993	-0.335838	0.321353
C464	C	1.534993	-0.085838	0.571353
N465	N	0.751650	-0.855310	-0.145256
N466	N	1.001650	-0.605310	0.104744
N467	N	1.251650	-0.355310	0.354744
N468	N	1.501650	-0.105310	0.604744
C469	C	0.994347	-0.155891	-0.672542
C470	C	1.244347	0.094109	-0.422542
C471	C	1.494347	0.344109	-0.172542
C472	C	1.744347	0.594109	0.077458
N473	N	1.027734	-0.132079	-0.699805
N474	N	1.277734	0.117921	-0.449805
N475	N	1.527734	0.367921	-0.199805
N476	N	1.777734	0.617921	0.050195
H477	H	0.550769	-0.268510	-0.376389
H478	H	0.800769	-0.018510	-0.126389
H479	H	1.050769	0.231490	0.123611
H480	H	1.300769	0.481490	0.373611
C481	C	0.278590	-0.276695	-0.387971
C482	C	0.528590	-0.026695	-0.137971
C483	C	0.778590	0.223305	0.112029
C484	C	1.028590	0.473305	0.362029
N485	N	0.305822	-0.300538	-0.421256
N486	N	0.555822	-0.050538	-0.171256
N487	N	0.805822	0.199462	0.078744
N488	N	1.055822	0.449462	0.328744
C489	C	0.825138	-0.276517	-0.935177
C490	C	1.075138	-0.026517	-0.685177
C491	C	1.325138	0.223483	-0.435177
C492	C	1.575138	0.473483	-0.185177
N493	N	0.791754	-0.300333	-0.907916
N494	N	1.041754	-0.050333	-0.657916
N495	N	1.291754	0.199667	-0.407916
N496	N	1.541754	0.449667	-0.157916
H497	H	0.269190	-0.164062	-0.230700
H498	H	0.519190	0.085938	0.019300
H499	H	0.769190	0.335938	0.269300
H500	H	1.019190	0.585938	0.519300
H501	H	1.022901	-0.602975	-0.416984
H502	H	1.272901	-0.352975	-0.166984
H503	H	1.522901	-0.102975	0.083016
H504	H	1.772901	0.147025	0.333016
C505	C	0.679426	-0.276755	-0.387820
C506	C	0.929426	-0.026755	-0.137820
C507	C	1.179426	0.223245	0.112180
C508	C	1.429426	0.473245	0.362180
N509	N	0.706656	-0.300603	-0.421101
N510	N	0.956656	-0.050603	-0.171101
N511	N	1.206656	0.199397	0.078899
N512	N	1.456656	0.449397	0.328899
H513	H	0.836632	-0.268397	-0.543740
H514	H	1.086632	-0.018397	-0.293740
H515	H	1.336632	0.231603	-0.043740
H516	H	1.586632	0.481603	0.206260
C517	C	0.994124	-0.479001	-0.388167
C518	C	1.244124	-0.229001	-0.138167
C519	C	1.494124	0.020999	0.111833
C520	C	1.744124	0.270999	0.361833
N521	N	1.027480	-0.498386	-0.421570
N522	N	1.277480	-0.248386	-0.171570
N523	N	1.527480	0.001614	0.078430
N524	N	1.777480	0.251614	0.328430
C525	C	0.541368	-0.155879	-0.219123
C526	C	0.791368	0.094121	0.030877
C527	C	1.041368	0.344121	0.280877
C528	C	1.291368	0.594121	0.530877
N529	N	0.514129	-0.132036	-0.185844
N530	N	0.764129	0.117964	0.064156
N531	N	1.014129	0.367964	0.314156
N532	N	1.264129	0.617964	0.564156
C533	C	0.140537	-0.276677	-0.388015
C534	C	0.390537	-0.026677	-0.138015
C535	C	0.640537	0.223323	0.111985
C536	C	0.890537	0.473323	0.361985
N537	N	0.113308	-0.300522	-0.421307
N538	N	0.363308	-0.050522	-0.171307
N539	N	0.613308	0.199478	0.078693
N540	N	0.863308	0.449478	0.328693
H541	H	1.022929	-0.688081	-0.417007
H542	H	1.272929	-0.438081	-0.167007
H543	H	1.522929	-0.188081	0.082993
H544	H	1.772929	0.061919	0.332993
H545	H	0.982823	-1.044721	-0.376766
H546	H	1.232823	-0.794721	-0.126766
H547	H	1.482823	-0.544721	0.123234
H548	H	1.732823	-0.294721	0.373234
C549	C	0.994295	-0.952881	-0.388269
C550	C	1.244295	-0.702881	-0.138269
C551	C	1.494295	-0.452881	0.111731
C552	C	1.744295	-0.202881	0.361731
N553	N	1.027631	-0.933409	-0.421668
N554	N	1.277631	-0.683409	-0.171668
N555	N	1.527631	-0.433409	0.078332
N556	N	1.777631	-0.183409	0.328332
H557	H	0.796431	-0.688365	-0.190131
H558	H	1.046431	-0.438365	0.059869
H559	H	1.296431	-0.188365	0.309869
H560	H	1.546431	0.061635	0.559869
C561	C	0.825269	-0.953103	-0.218972
C562	C	1.075269	-0.703103	0.031028
C563	C	1.325269	-0.453103	0.281028
C564	C	1.575269	-0.203103	0.531028
N565	N	0.791908	-0.933718	-0.185574
N566	N	1.041908	-0.683718	0.064426
N567	N	1.291908	-0.433718	0.314426
N568	N	1.541908	-0.183718	0.564426
H569	H	0.796399	-0.603256	-0.190120
H570	H	1.046399	-0.353256	0.059880
H571	H	1.296399	-0.103256	0.309880
H572	H	1.546399	0.146744	0.559880
H573	H	0.836610	-0.472510	-0.230372
H574	H	1.086610	-0.222510	0.019628
H575	H	1.336610	0.027490	0.269628
H576	H	1.586610	0.277490	0.519628
H577	H	0.836583	-0.387388	-0.230356
H578	H	1.086583	-0.137388	0.019644
H579	H	1.336583	0.112612	0.269644
H580	H	1.586583	0.362612	0.519644
H581	H	1.022948	-0.743722	-0.417019
H582	H	1.272948	-0.493722	-0.167019
H583	H	1.522948	-0.243722	0.082981
H584	H	1.772948	0.006278	0.332981
H585	H	0.796465	-0.744014	-0.190145
H586	H	1.046465	-0.494014	0.059855
H587	H	1.296465	-0.244014	0.309855
H588	H	1.546465	0.005986	0.559855
