data_functionalizedCrystal
_audit_creation_method	'MofGen! by Chris Wilmer'
_symmetry_space_group_name_H-M	'P1'
_symmetry_Int_Tables_number	1
_symmetry_cell_setting	triclinic
loop_
_symmetry_equiv_pos_as_xyz
  x,y,z
_cell_length_a	13.032831
_cell_length_b	29.839131
_cell_length_c	13.032268
_cell_angle_alpha	97.140540
_cell_angle_beta	90.886977
_cell_angle_gamma	82.845366
loop_
_atom_site_label
_atom_site_type_symbol
_atom_site_fract_x
_atom_site_fract_y
_atom_site_fract_z
Zn1	Zn	1.498202	-0.303377	-0.780727
Zn2	Zn	1.998202	0.196623	-0.280727
Zn3	Zn	1.519883	-0.370307	-0.608723
Zn4	Zn	2.019883	0.129693	-0.108723
Zn5	Zn	1.348078	-0.284611	-0.586974
Zn6	Zn	1.848078	0.215389	-0.086974
Zn7	Zn	1.326134	-0.367878	-0.758849
Zn8	Zn	1.826134	0.132122	-0.258849
O9	O	1.423074	-0.331543	-0.683818
O10	O	1.923074	0.168457	-0.183818
O11	O	1.644991	-0.321125	-0.776168
O12	O	2.144991	0.178875	-0.276168
O13	O	1.515350	-0.352102	-0.461924
O14	O	2.015350	0.147898	0.038076
O15	O	1.368102	-0.224242	-0.612730
O16	O	1.868102	0.275758	-0.112730
O17	O	1.660920	-0.370299	-0.649797
O18	O	2.160920	0.129701	-0.149797
O19	O	1.478398	-0.238029	-0.755079
O20	O	1.978398	0.261971	-0.255079
O21	O	1.389125	-0.289141	-0.445945
O22	O	1.889125	0.210859	0.054055
O23	O	1.201254	-0.286786	-0.591516
O24	O	1.701254	0.213214	-0.091516
O25	O	1.330702	-0.366159	-0.905665
O26	O	1.830702	0.133841	-0.405665
O27	O	1.185132	-0.347962	-0.717792
O28	O	1.685132	0.152038	-0.217792
O29	O	1.457120	-0.318770	-0.921739
O30	O	1.957120	0.181230	-0.421739
O31	O	1.494072	-0.432843	-0.628583
O32	O	1.994072	0.067157	-0.128583
O33	O	1.351725	-0.431059	-0.738880
O34	O	1.851725	0.068941	-0.238880
C35	C	1.155878	-0.315075	-0.649920
C36	C	1.655878	0.184925	-0.149920
C37	C	1.041567	-0.308042	-0.635443
C38	C	1.541567	0.191958	-0.135443
C39	C	0.982667	-0.335214	-0.691374
C40	C	1.482667	0.164786	-0.191374
C41	C	0.864520	-0.327945	-0.676412
C42	C	1.364520	0.172055	-0.176412
C43	C	1.422895	-0.448252	-0.683744
C44	C	1.922895	0.051748	-0.183744
C45	C	1.422908	-0.498188	-0.683758
C46	C	1.922908	0.001812	-0.183758
C47	C	1.497302	-0.808772	-0.626498
C48	C	1.997302	-0.308772	-0.126498
C49	C	1.497423	-0.996455	-0.626554
C50	C	1.997423	-0.496455	-0.126554
O51	O	1.560533	-1.021509	-0.577811
O52	O	2.060533	-0.521509	-0.077811
N53	N	1.423278	-1.019002	-0.683923
N54	N	1.923278	-0.519002	-0.183923
C55	C	1.349100	-0.994626	-0.741287
C56	C	1.849100	-0.494626	-0.241287
O57	O	1.286044	-1.018111	-0.790093
O58	O	1.786044	-0.518111	-0.290093
C59	C	1.348984	-0.806945	-0.741236
C60	C	1.848984	-0.306945	-0.241236
C61	C	1.423128	-0.784399	-0.683855
C62	C	1.923128	-0.284399	-0.183855
C63	C	1.571441	-0.786226	-0.569122
C64	C	2.071441	-0.286226	-0.069122
C65	C	1.571406	-0.739308	-0.569105
C66	C	2.071406	-0.239308	-0.069105
C67	C	1.497232	-0.714935	-0.626462
C68	C	1.997232	-0.214935	-0.126462
C69	C	1.423093	-0.737481	-0.683837
C70	C	1.923093	-0.237481	-0.183837
C71	C	1.274811	-0.782571	-0.798606
C72	C	1.774811	-0.282571	-0.298606
C73	C	1.274790	-0.735648	-0.798590
C74	C	1.774790	-0.235648	-0.298590
C75	C	1.348935	-0.713102	-0.741209
C76	C	1.848935	-0.213102	-0.241209
C77	C	1.348885	-0.666190	-0.741177
C78	C	1.848885	-0.166190	-0.241177
N79	N	1.423031	-0.643643	-0.683808
N80	N	1.923031	-0.143643	-0.183808
C81	C	1.497205	-0.668015	-0.626451
C82	C	1.997205	-0.168015	-0.126451
C83	C	1.349165	-1.093162	-0.741308
C84	C	1.849165	-0.593162	-0.241308
C85	C	1.349193	-1.140082	-0.741320
C86	C	1.849193	-0.640082	-0.241320
C87	C	1.497518	-1.141907	-0.626588
C88	C	1.997518	-0.641907	-0.126588
C89	C	1.497485	-1.094986	-0.626571
C90	C	1.997485	-0.594986	-0.126571
C91	C	1.423311	-1.070614	-0.683939
C92	C	1.923311	-0.570614	-0.183939
C93	C	1.497126	-0.569483	-0.626417
C94	C	1.997126	-0.069483	-0.126417
C95	C	1.497082	-0.522561	-0.626401
C96	C	1.997082	-0.022561	-0.126401
C97	C	1.348761	-0.520740	-0.741137
C98	C	1.848761	-0.020740	-0.241137
C99	C	1.348801	-0.567658	-0.741149
C100	C	1.848801	-0.067658	-0.241149
C101	C	1.422992	-0.592029	-0.683787
C102	C	1.922992	-0.092029	-0.183787
O103	O	1.285815	-0.641109	-0.789903
O104	O	1.785815	-0.141109	-0.289903
O105	O	1.560265	-0.644524	-0.577671
O106	O	2.060265	-0.144524	-0.077671
C107	C	1.497336	-0.855690	-0.626516
C108	C	1.997336	-0.355690	-0.126516
C109	C	1.423197	-0.878236	-0.683891
C110	C	1.923197	-0.378236	-0.183891
C111	C	1.349024	-0.853863	-0.741249
C112	C	1.849024	-0.353863	-0.241249
C113	C	1.423225	-0.925156	-0.683903
C114	C	1.923225	-0.425156	-0.183903
C115	C	1.497399	-0.949529	-0.626545
C116	C	1.997399	-0.449529	-0.126545
C117	C	1.571545	-0.926981	-0.569176
C118	C	2.071545	-0.426981	-0.069176
C119	C	1.571510	-0.880063	-0.569158
C120	C	2.071510	-0.380063	-0.069158
C121	C	1.274878	-0.876411	-0.798618
C122	C	1.774878	-0.376411	-0.298618
C123	C	1.274918	-0.923329	-0.798630
C124	C	1.774918	-0.423329	-0.298630
C125	C	1.349091	-0.947702	-0.741272
C126	C	1.849091	-0.447702	-0.241272
C127	C	1.691313	-0.348076	-0.717849
C128	C	2.191313	0.151924	-0.217849
C129	C	1.805621	-0.355122	-0.732351
C130	C	2.305621	0.144878	-0.232351
C131	C	1.389044	-0.344287	-0.952061
C132	C	1.889044	0.155713	-0.452061
C133	C	1.374543	-0.349718	-1.066370
C134	C	1.874543	0.150282	-0.566370
C135	C	1.423279	-0.214382	-0.683919
C136	C	1.923279	0.285618	-0.183919
C137	C	1.423367	-0.164454	-0.683962
C138	C	1.923367	0.335546	-0.183962
C139	C	1.430627	-0.328692	-1.125285
C140	C	1.930627	0.171308	-0.625285
C141	C	1.415640	-0.334304	-1.243430
C142	C	1.915640	0.165696	-0.743430
C143	C	1.457031	-0.318820	-0.416627
C144	C	1.957031	0.181180	0.083373
C145	C	1.471732	-0.313275	-0.302344
C146	C	1.971732	0.186725	0.197656
H147	H	1.557541	-0.589321	-0.579709
H148	H	2.057541	-0.089321	-0.079709
H149	H	1.214390	-0.715807	-0.845310
H150	H	1.714390	-0.215807	-0.345310
C151	C	1.335786	-0.364239	-1.293435
C152	C	1.835786	0.135761	-0.793435
H153	H	1.336195	-0.364088	-1.366282
H154	H	1.836195	0.135912	-0.866282
H155	H	1.268908	-0.352582	-1.267121
H156	H	1.768908	0.147418	-0.767121
H157	H	1.353007	-0.394522	-1.277764
H158	H	1.853007	0.105478	-0.777764
C159	C	1.294686	-0.379649	-1.116373
C160	C	1.794686	0.120351	-0.616373
H161	H	1.261437	-0.392110	-1.064089
H162	H	1.761437	0.107890	-0.564089
H163	H	1.328711	-0.403621	-1.163258
H164	H	1.828711	0.096379	-0.663258
H165	H	1.244625	-0.361677	-1.152607
H166	H	1.744625	0.138323	-0.652607
C167	C	1.032689	-0.373911	-0.771029
C168	C	1.532689	0.126089	-0.271029
H169	H	0.980414	-0.390014	-0.804184
H170	H	1.480414	0.109986	-0.304184
H171	H	1.079567	-0.394143	-0.736874
H172	H	1.579567	0.105857	-0.236874
H173	H	1.068932	-0.361447	-0.821187
H174	H	1.568932	0.138553	-0.321187
C175	C	0.814502	-0.289245	-0.596756
C176	C	1.314502	0.210755	-0.096756
H177	H	0.866776	-0.273138	-0.563611
H178	H	1.366776	0.226862	-0.063611
H179	H	0.778251	-0.301705	-0.546603
H180	H	1.278251	0.198295	-0.046603
H181	H	0.767630	-0.269011	-0.630924
H182	H	1.267630	0.230989	-0.130924
C183	C	1.267180	-0.493924	-0.804230
C184	C	1.767180	0.006076	-0.304230
H185	H	1.277793	-0.462753	-0.796007
H186	H	1.777793	0.037247	-0.296007
H187	H	1.200010	-0.496671	-0.780373
H188	H	1.700010	0.003329	-0.280373
H189	H	1.273427	-0.505803	-0.875251
H190	H	1.773427	-0.005803	-0.375251
C191	C	0.855636	-0.393821	-0.812011
C192	C	1.355636	0.106179	-0.312011
H193	H	0.803359	-0.409923	-0.845165
H194	H	1.303359	0.090077	-0.345165
H195	H	0.902514	-0.414054	-0.777858
H196	H	1.402514	0.085946	-0.277858
H197	H	0.891879	-0.381356	-0.862170
H198	H	1.391879	0.118644	-0.362170
C199	C	0.991545	-0.269343	-0.555792
C200	C	1.491545	0.230657	-0.055792
H201	H	1.043819	-0.253236	-0.522646
H202	H	1.543819	0.246764	-0.022646
H203	H	0.955294	-0.281803	-0.505638
H204	H	1.455294	0.218197	-0.005638
H205	H	0.944673	-0.249110	-0.589959
H206	H	1.444673	0.250890	-0.089959
H207	H	1.530841	-0.291115	-1.265323
H208	H	2.030841	0.208885	-0.765323
C209	C	1.510483	-0.298761	-1.075277
C210	C	2.010483	0.201239	-0.575277
H211	H	1.510085	-0.298919	-1.002431
H212	H	2.010085	0.201081	-0.502431
H213	H	1.493280	-0.268481	-1.090948
H214	H	1.993280	0.231519	-0.590948
H215	H	1.577362	-0.310427	-1.101592
H216	H	2.077362	0.189573	-0.601592
H217	H	1.631783	-0.720955	-0.522384
H218	H	2.131783	-0.220955	-0.022384
C219	C	1.578631	-0.497760	-0.563268
C220	C	2.078631	0.002240	-0.063268
H221	H	1.567984	-0.466323	-0.571456
H222	H	2.067984	0.033677	-0.071456
H223	H	1.645812	-0.510386	-0.587130
H224	H	2.145812	-0.010386	-0.087130
H225	H	1.572389	-0.501264	-0.492257
H226	H	2.072389	-0.001264	0.007743
C227	C	1.653034	-0.813029	-0.506017
C228	C	2.153034	-0.313029	-0.006017
H229	H	1.697172	-0.792874	-0.471844
H230	H	2.197172	-0.292874	0.028156
H231	H	1.692837	-0.835938	-0.551064
H232	H	2.192837	-0.335938	-0.051064
H233	H	1.619423	-0.826801	-0.456184
H234	H	2.119423	-0.326801	0.043816
H235	H	1.557860	-1.076632	-0.579847
H236	H	2.057860	-0.576632	-0.079847
C237	C	1.579105	-1.168722	-0.563492
C238	C	2.079105	-0.668722	-0.063492
H239	H	1.568498	-1.199895	-0.571726
H240	H	2.068498	-0.699895	-0.071726
H241	H	1.572880	-1.156845	-0.492476
H242	H	2.072880	-0.656845	0.007524
H243	H	1.646274	-1.165978	-0.587371
H244	H	2.146274	-0.665978	-0.087371
H245	H	1.288809	-1.158433	-0.788034
H246	H	1.788809	-0.658433	-0.288034
H247	H	1.288761	-1.073321	-0.788025
H248	H	1.788761	-0.573321	-0.288025
C249	C	1.193258	-0.807361	-0.861735
C250	C	1.693258	-0.307361	-0.361735
H251	H	1.149095	-0.786121	-0.895898
H252	H	1.649095	-0.286121	-0.395898
H253	H	1.153475	-0.821064	-0.816699
H254	H	1.653475	-0.321064	-0.316699
H255	H	1.226894	-0.830190	-0.911575
H256	H	1.726894	-0.330190	-0.411575
C257	C	1.267243	-0.592459	-0.804264
C258	C	1.767243	-0.092459	-0.304264
H259	H	1.223067	-0.571222	-0.838425
H260	H	1.723067	-0.071222	-0.338425
H261	H	1.227474	-0.606166	-0.759224
H262	H	1.727474	-0.106166	-0.259224
H263	H	1.300884	-0.615285	-0.854106
H264	H	1.800884	-0.115285	-0.354106
C265	C	1.653133	-0.953797	-0.506083
C266	C	2.153133	-0.453797	-0.006083
H267	H	1.642529	-0.984970	-0.514323
H268	H	2.142529	-0.484970	-0.014323
H269	H	1.646906	-0.941922	-0.435065
H270	H	2.146906	-0.441922	0.064935
H271	H	1.720301	-0.951051	-0.529960
H272	H	2.220301	-0.451051	-0.029960
H273	H	1.214531	-0.941681	-0.845354
H274	H	1.714531	-0.441681	-0.345354
H275	H	1.631885	-0.861710	-0.522433
H276	H	2.131885	-0.361710	-0.022433
H277	H	1.214477	-0.856570	-0.845327
H278	H	1.714477	-0.356570	-0.345327
