data_functionalizedCrystal
_audit_creation_method	'MofGen! by Chris Wilmer'
_symmetry_space_group_name_H-M	'P1'
_symmetry_Int_Tables_number	1
_symmetry_cell_setting	triclinic
loop_
_symmetry_equiv_pos_as_xyz
  x,y,z
_cell_length_a	17.640280
_cell_length_b	13.033304
_cell_length_c	13.032268
_cell_angle_alpha	90.922231
_cell_angle_beta	87.294217
_cell_angle_gamma	95.479665
loop_
_atom_site_label
_atom_site_type_symbol
_atom_site_fract_x
_atom_site_fract_y
_atom_site_fract_z
Zn1	Zn	-0.234117	-1.567886	-0.727854
Zn2	Zn	-0.342244	-1.621695	-0.531093
Zn3	Zn	-0.230140	-1.416567	-0.534937
Zn4	Zn	-0.373607	-1.437247	-0.673938
O5	O	-0.295027	-1.510849	-0.616955
O6	O	-0.236999	-1.715543	-0.722708
O7	O	-0.312584	-1.608349	-0.391086
O8	O	-0.125375	-1.405467	-0.584700
O9	O	-0.316440	-1.755076	-0.578149
O10	O	-0.128296	-1.516639	-0.726435
O11	O	-0.230222	-1.457643	-0.393909
O12	O	-0.260633	-1.278791	-0.532420
O13	O	-0.369893	-1.440712	-0.821608
O14	O	-0.366037	-1.293984	-0.634544
O15	O	-0.267410	-1.536691	-0.861219
O16	O	-0.451698	-1.628401	-0.525870
O17	O	-0.474740	-1.492888	-0.630817
C18	C	-0.316307	-1.249953	-0.578049
C19	C	-0.325432	-1.138344	-0.561424
C20	C	-0.290275	-1.069036	-0.625616
C21	C	-0.299705	-0.953681	-0.608435
C22	C	-0.490520	-1.568752	-0.572102
C23	C	-0.574149	-1.593612	-0.552961
C24	C	-0.909298	-1.322366	-0.762796
C25	C	-0.987876	-1.345731	-0.744778
C26	C	-0.963825	-1.486907	-0.635638
C27	C	-0.885242	-1.463557	-0.653651
C28	C	-0.857986	-1.381285	-0.717230
C29	C	-0.833930	-1.522476	-0.608084
C30	C	-0.755355	-1.499124	-0.626092
C31	C	-0.728092	-1.416854	-0.689665
C32	C	-0.779410	-1.357933	-0.735237
C33	C	-0.861189	-1.604744	-0.544500
C34	C	-0.809876	-1.663663	-0.498934
C35	C	-0.731300	-1.640316	-0.516946
C36	C	-0.704037	-1.558045	-0.580520
C37	C	-0.679981	-1.699237	-0.471375
C38	C	-0.601406	-1.675885	-0.489382
C39	C	-0.625461	-1.534694	-0.598527
C40	C	-0.098771	-1.452744	-0.662010
C41	C	-0.015138	-1.427983	-0.681210
C42	C	-0.322593	-1.485006	-0.878867
C43	C	-0.334340	-1.473993	-0.990478
C44	C	-0.273660	-0.772763	-0.656008
C45	C	-0.264543	-0.884374	-0.672635
C46	C	-0.288871	-1.516573	-1.059837
C47	C	-0.301010	-1.505192	-1.175193
C48	C	-0.267509	-1.536632	-0.356084
C49	C	-0.255535	-1.547777	-0.244551
H50	H	-0.603269	-1.467705	-0.650308
H51	H	-0.362510	-1.112280	-0.493747
C52	C	-0.190798	-1.608409	-1.209423
H53	H	-0.163843	-1.633640	-1.267898
H54	H	-0.211735	-1.664690	-1.168411
H55	H	-0.156868	-1.564290	-1.170298
H56	H	-0.832080	-1.730646	-0.447164
H57	H	-1.029654	-1.297756	-0.781903
H58	H	-0.986028	-1.553891	-0.583869
C59	C	-0.399074	-1.413370	-1.025619
H60	H	-0.398745	-1.413682	-1.098542
H61	H	-0.391780	-1.344319	-1.000943
H62	H	-0.446641	-1.444725	-0.999062
H63	H	-0.348925	-1.460301	-1.201209
C64	C	-0.240183	-1.104235	-0.717043
H65	H	-0.240421	-1.177149	-0.716600
H66	H	-0.189467	-1.073540	-0.711529
H67	H	-0.259768	-1.083741	-0.779412
H68	H	-0.336786	-0.927623	-0.540753
C69	C	-0.709971	-1.789728	-0.401440
H70	H	-0.764116	-1.795198	-0.397245
H71	H	-0.691201	-1.777928	-0.334725
H72	H	-0.693104	-1.851893	-0.429221
H73	H	-0.227455	-0.910430	-0.740312
C74	C	-0.641662	-1.391160	-0.709478
H75	H	-0.632779	-1.333720	-0.753863
H76	H	-0.620389	-1.448929	-0.740641
H77	H	-0.618497	-1.374960	-0.646148
H78	H	-0.757218	-1.290945	-0.787018
C79	C	-0.879310	-1.231879	-0.832747
H80	H	-0.921123	-1.200131	-0.857310
H81	H	-0.850106	-1.256830	-0.889278
H82	H	-0.848210	-1.182844	-0.794797
C83	C	-0.947619	-1.630433	-0.524686
H84	H	-0.956503	-1.687860	-0.480284
H85	H	-0.970787	-1.646631	-0.588009
H86	H	-0.968886	-1.572656	-0.493520
C87	C	-0.544960	-1.740696	-0.439265
H88	H	-0.572447	-1.793045	-0.398830
H89	H	-0.512859	-1.697541	-0.396777
H90	H	-0.514758	-1.771504	-0.491275
H91	H	-0.240953	-1.561447	-1.033815
