data_functionalizedCrystal
_audit_creation_method	'MofGen! by Chris Wilmer'
_symmetry_space_group_name_H-M	'P1'
_symmetry_Int_Tables_number	1
_symmetry_cell_setting	triclinic
loop_
_symmetry_equiv_pos_as_xyz
  x,y,z
_cell_length_a	16.992694
_cell_length_b	16.992695
_cell_length_c	16.053802
_cell_angle_alpha	92.741074
_cell_angle_beta	87.249047
_cell_angle_gamma	90.668223
loop_
_atom_site_label
_atom_site_type_symbol
_atom_site_fract_x
_atom_site_fract_y
_atom_site_fract_z
O1	O	1.053959	0.163815	-0.069325
O2	O	1.553959	0.663815	0.430675
O3	O	0.825560	0.161983	-0.069350
O4	O	1.325560	0.661983	0.430650
O5	O	0.938844	0.048699	-0.069331
O6	O	1.438844	0.548699	0.430669
O7	O	0.940676	0.277099	-0.069344
O8	O	1.440676	0.777099	0.430656
O9	O	0.932607	0.054907	0.069527
O10	O	1.432607	0.554907	0.569527
O11	O	0.819323	0.168191	0.069508
O12	O	1.319323	0.668191	0.569508
O13	O	1.047722	0.170023	0.069533
O14	O	1.547722	0.670023	0.569533
Zn15	Zn	0.932532	0.170093	0.091567
Zn16	Zn	1.432532	0.670093	0.591567
Zn17	Zn	0.940750	0.161913	-0.091384
Zn18	Zn	1.440750	0.661913	0.408616
O19	O	0.934438	0.283307	0.069514
O20	O	1.434438	0.783307	0.569514
C21	C	0.793082	0.162731	0.000076
C22	C	1.293082	0.662731	0.500076
C23	C	0.705597	0.155702	0.000067
C24	C	1.205597	0.655702	0.500067
C25	C	0.659607	0.223520	0.000064
C26	C	1.159607	0.723520	0.500064
C27	C	0.577405	0.216911	0.000076
C28	C	1.077405	0.716911	0.500076
C29	C	0.541197	0.142484	0.000085
C30	C	1.041197	0.642484	0.500085
C31	C	0.587193	0.074661	0.000091
C32	C	1.087193	0.574661	0.500091
C33	C	0.669393	0.081270	0.000085
C34	C	1.169393	0.581270	0.500085
C35	C	0.295881	0.115090	0.000109
C36	C	0.795881	0.615090	0.500109
C37	C	0.213676	0.108486	0.000112
C38	C	0.713676	0.608486	0.500112
C39	C	0.203893	0.250737	0.000099
C40	C	0.703893	0.750737	0.500099
C41	C	0.286095	0.257339	0.000088
C42	C	0.786095	0.757339	0.500088
C43	C	0.332084	0.189517	0.000098
C44	C	0.832084	0.689517	0.500098
N45	N	0.457174	0.135727	0.000094
N46	N	0.957174	0.635727	0.500094
N47	N	0.416105	0.196275	0.000094
N48	N	0.916105	0.696275	0.500094
C49	C	0.933370	0.022443	0.000098
C50	C	1.433370	0.522443	0.500098
C51	C	0.926341	-0.065042	0.000097
C52	C	1.426341	0.434958	0.500097
C53	C	0.994158	-0.111032	0.000105
C54	C	1.494158	0.388968	0.500105
C55	C	0.987550	-0.193233	0.000096
C56	C	1.487550	0.306767	0.500096
C57	C	0.913123	-0.229442	0.000086
C58	C	1.413123	0.270558	0.500086
C59	C	0.845300	-0.183446	0.000075
C60	C	1.345300	0.316554	0.500075
C61	C	0.851910	-0.101246	0.000078
C62	C	1.351910	0.398754	0.500078
C63	C	0.885729	-0.474757	0.000071
C64	C	1.385729	0.025243	0.500071
C65	C	0.879124	-0.556962	0.000071
C66	C	1.379124	-0.056962	0.500071
C67	C	1.021375	-0.566745	0.000091
C68	C	1.521375	-0.066745	0.500091
C69	C	1.027978	-0.484543	0.000099
C70	C	1.527978	0.015457	0.500099
C71	C	0.960155	-0.438554	0.000083
C72	C	1.460155	0.061446	0.500083
N73	N	0.906366	-0.313465	0.000079
N74	N	1.406366	0.186535	0.500079
N75	N	0.966913	-0.354533	0.000084
N76	N	1.466913	0.145467	0.500084
C77	C	1.080201	0.169275	0.000105
C78	C	1.580201	0.669275	0.500105
C79	C	1.167685	0.176304	0.000109
C80	C	1.667685	0.676304	0.500109
C81	C	0.939913	0.309563	0.000084
C82	C	1.439913	0.809563	0.500084
C83	C	0.946942	0.397047	0.000079
C84	C	1.446942	0.897047	0.500079
N85	N	0.926930	0.175675	0.216427
N86	N	1.426930	0.675675	0.716427
N87	N	0.946358	0.156325	-0.216243
N88	N	1.446358	0.656325	0.283757
C89	C	0.975152	0.127492	0.260129
C90	C	1.475152	0.627492	0.760129
C91	C	0.971241	0.131404	0.347535
C92	C	1.471241	0.631404	0.847535
C93	C	0.919110	0.183504	0.391237
C94	C	1.419110	0.683504	0.891237
C95	C	0.870883	0.231689	0.347529
C96	C	1.370883	0.731689	0.847529
C97	C	0.874791	0.227772	0.260125
C98	C	1.374791	0.727772	0.760125
C99	C	0.902039	0.200593	0.652644
C100	C	1.402039	0.700593	1.152644
C101	C	0.898136	0.204508	0.740055
C102	C	1.398136	0.704508	1.240055
C103	C	0.998493	0.104222	0.740054
C104	C	1.498493	0.604222	1.240054
C105	C	1.002400	0.100313	0.652648
C106	C	1.502400	0.600313	1.152648
C107	C	0.954169	0.148494	0.608948
C108	C	1.454169	0.648494	1.108948
N109	N	0.915113	0.187507	0.480580
N110	N	1.415113	0.687507	0.980580
N111	N	0.958163	0.144487	0.519606
N112	N	1.458163	0.644487	1.019606
H113	H	0.557705	0.014061	0.000110
H114	H	1.057705	0.514061	0.500110
H115	H	0.315571	0.317945	0.000071
H116	H	0.815571	0.817945	0.500071
H117	H	0.706838	0.026046	0.000087
H118	H	1.206838	0.526046	0.500087
N119	N	1.050504	0.052255	0.787193
N120	N	1.550504	0.552255	1.287193
H121	H	1.038621	-0.004870	0.771992
H122	H	1.538621	0.495130	1.271992
H123	H	1.107600	0.064240	0.771953
H124	H	1.607600	0.564240	1.271953
N125	N	1.023259	0.079452	0.394681
N126	N	1.523259	0.579452	0.894681
H127	H	1.058362	0.113380	0.430933
H128	H	1.558362	0.613380	0.930933
H129	H	0.989326	0.044327	0.430911
H130	H	1.489326	0.544327	0.930911
N131	N	0.778769	-0.051630	0.000086
N132	N	1.278769	0.448370	0.500086
H133	H	0.780651	-0.019602	-0.051386
H134	H	1.280651	0.480398	0.448614
H135	H	0.730650	-0.087084	0.000116
H136	H	1.230650	0.412916	0.500116
H137	H	0.835522	0.267007	0.224543
H138	H	1.335522	0.767007	0.724543
N139	N	0.814658	0.287889	0.394657
N140	N	1.314658	0.787889	0.894657
H141	H	0.758901	0.274607	0.379457
H142	H	1.258901	0.774607	0.879457
H143	H	0.819566	0.283039	0.456645
H144	H	1.319566	0.783039	0.956645
N145	N	0.698661	0.303794	0.000058
N146	N	1.198661	0.803794	0.500058
H147	H	0.734851	0.307405	-0.051420
H148	H	1.234851	0.807405	0.448580
H149	H	0.657004	0.345707	0.000091
H150	H	1.157004	0.845707	0.500091
N151	N	0.850033	0.252573	0.605519
N152	N	1.350033	0.752573	1.105519
H153	H	0.860414	0.242189	0.543517
H154	H	1.360414	0.742189	1.043517
H155	H	0.792937	0.240637	0.620808
H156	H	1.292937	0.740637	1.120808
N157	N	0.765027	-0.222502	0.000066
N158	N	1.265027	0.277498	0.500066
H159	H	0.732771	-0.203757	0.051537
H160	H	1.232771	0.296243	0.551537
H161	H	0.737459	-0.208347	-0.051446
H162	H	1.237459	0.291653	0.448554
H163	H	1.017605	0.085070	0.224552
H164	H	1.517605	0.585070	0.724552
N165	N	0.527796	0.290061	0.000166
N166	N	1.027796	0.790061	0.500166
H167	H	0.563206	0.338214	0.000185
H168	H	1.063206	0.838214	0.500185
H169	H	0.495739	0.288172	-0.051275
H170	H	0.995739	0.788172	0.448725
N171	N	0.154292	0.323885	0.000089
N172	N	0.654292	0.823885	0.500089
H173	H	0.096724	0.308408	0.000095
H174	H	0.596724	0.808408	0.500095
H175	H	0.164220	0.358400	0.051563
H176	H	0.664220	0.858400	0.551563
H177	H	1.044848	0.057889	0.617067
H178	H	1.544848	0.557889	1.117067
N179	N	0.174620	0.028207	0.000117
N180	N	0.674620	0.528207	0.500117
H181	H	0.216226	-0.013756	0.000123
H182	H	0.716226	0.486244	0.500123
H183	H	0.138419	0.024672	0.051593
H184	H	0.638419	0.524672	0.551593
N185	N	0.345478	0.041943	0.000125
N186	N	0.845478	0.541943	0.500125
H187	H	0.310064	-0.006207	0.000130
H188	H	0.810064	0.493793	0.500130
H189	H	0.382105	0.039278	-0.051350
H190	H	0.882105	0.539278	0.448650
H191	H	1.054765	-0.081557	0.000119
H192	H	1.554765	0.418443	0.500119
N193	N	0.812579	-0.425162	0.000060
N194	N	1.312579	0.074838	0.500060
H195	H	0.814461	-0.393143	-0.051418
H196	H	1.314461	0.106857	0.448582
H197	H	0.764471	-0.460630	0.000086
H198	H	1.264471	0.039370	0.500086
H199	H	1.042774	-0.230676	0.000105
H200	H	1.542774	0.269324	0.500105
N201	N	0.841913	0.260704	0.787203
N202	N	1.341913	0.760704	1.287203
H203	H	0.855155	0.316466	0.771980
H204	H	1.355155	0.816466	1.271980
H205	H	0.786175	0.247357	0.771996
H206	H	1.286175	0.747357	1.271996
N207	N	1.108259	-0.445504	0.000108
N208	N	1.608259	0.054496	0.500108
H209	H	1.140512	-0.464249	-0.051364
H210	H	1.640512	0.035751	0.448636
H211	H	1.102097	-0.386459	0.000142
H212	H	1.602097	0.113541	0.500142
N213	N	1.094521	-0.616349	0.000092
N214	N	1.594521	-0.116349	0.500092
H215	H	1.142672	-0.580938	0.000097
H216	H	1.642672	-0.080938	0.500097
H217	H	1.092569	-0.648371	0.051566
H218	H	1.592569	-0.148371	0.551566
N219	N	0.798846	-0.596019	0.000058
N220	N	1.298846	-0.096019	0.500058
H221	H	0.756883	-0.554413	0.000046
H222	H	1.256883	-0.054413	0.500046
H223	H	0.795326	-0.632211	-0.051419
H224	H	1.295326	-0.132211	0.448581
