data_functionalizedCrystal
_audit_creation_method	'MofGen! by Chris Wilmer'
_symmetry_space_group_name_H-M	'P1'
_symmetry_Int_Tables_number	1
_symmetry_cell_setting	triclinic
loop_
_symmetry_equiv_pos_as_xyz
  x,y,z
_cell_length_a	10.723024
_cell_length_b	10.723024
_cell_length_c	9.198806
_cell_angle_alpha	90.005661
_cell_angle_beta	90.000000
_cell_angle_gamma	84.467869
loop_
_atom_site_label
_atom_site_type_symbol
_atom_site_fract_x
_atom_site_fract_y
_atom_site_fract_z
O1	O	-1.657180	-0.175032	-0.120879
O2	O	-1.294028	-0.191785	-0.120884
O3	O	-1.483981	-0.001832	-0.120876
O4	O	-1.467228	-0.364985	-0.120887
O5	O	-1.483980	-0.001817	0.120909
O6	O	-1.294028	-0.191770	0.120901
O7	O	-1.657180	-0.175017	0.120906
Cu8	Cu	-1.475604	-0.183392	0.142981
Cu9	Cu	-1.475604	-0.183410	-0.142958
O10	O	-1.467227	-0.364969	0.120898
C11	C	-1.247528	-0.190558	0.000008
C12	C	-1.108974	-0.186911	0.000007
N13	N	-1.475606	-0.183413	-0.344072
C14	C	-1.482762	0.044675	0.000015
C15	C	-1.479114	0.183229	0.000010
C16	C	-1.703680	-0.176243	0.000011
C17	C	-1.842234	-0.179891	0.000003
C18	C	-1.033991	-0.293198	0.000002
C19	C	-0.890788	-0.289431	0.000001
C20	C	-1.468447	-0.411477	0.000004
C21	C	-1.472094	-0.550031	-0.000000
C22	C	-1.585401	0.258212	0.000009
C23	C	-1.581634	0.401415	0.000004
C24	C	-1.555535	-0.103480	-0.416266
C25	C	-1.555540	-0.103460	-0.583678
N26	N	-1.475612	-0.183379	0.344095
H27	H	-1.075814	-0.386984	0.000008
H28	H	-0.906659	-0.088896	-0.000003
O29	O	-1.690158	0.478324	-0.000256
C30	C	-1.694859	0.554465	-0.125462
H31	H	-1.631502	0.507261	-0.212984
H32	H	-1.795249	0.568358	-0.167497
H33	H	-1.661630	0.649344	-0.097153
H34	H	-1.067152	-0.093125	-0.000028
O35	O	-1.363565	0.373067	-0.000258
C36	C	-1.358865	0.296898	-0.125459
H37	H	-1.422223	0.344083	-0.212982
H38	H	-1.258476	0.282995	-0.167496
H39	H	-1.392095	0.202026	-0.097141
O40	O	-1.697186	0.208125	0.000077
C41	C	-1.676062	0.076294	0.000042
H42	H	-1.578910	0.046693	0.045814
H43	H	-1.749824	0.035600	0.070241
H44	H	-1.682371	0.039985	-0.115954
O45	O	-0.814109	-0.398106	-0.000069
C46	C	-0.887069	-0.500686	-0.000032
H47	H	-0.983973	-0.469961	-0.045802
H48	H	-0.839640	-0.579071	-0.070232
H49	H	-0.896591	-0.535975	0.115965
O50	O	-1.394140	-0.265098	-0.418341
C51	C	-1.461725	-0.342616	-0.506372
H52	H	-1.558955	-0.293756	-0.529010
H53	H	-1.409905	-0.361800	-0.613472
H54	H	-1.470966	-0.434972	-0.447823
O55	O	-1.367145	0.232963	0.000197
C56	C	-1.298867	0.192821	0.125438
H57	H	-1.333521	0.102201	0.167195
H58	H	-1.195091	0.175779	0.097272
H59	H	-1.312775	0.268021	0.213119
O60	O	-1.637111	-0.021674	-0.342310
C61	C	-1.615734	0.102069	-0.379335
H62	H	-1.567736	0.102440	-0.489891
H63	H	-1.708992	0.162711	-0.384358
H64	H	-1.553193	0.141117	-0.293699
O65	O	-1.636964	-0.021670	-0.657833
C66	C	-1.569301	0.055860	-0.745742
H67	H	-1.472118	0.006925	-0.768467
H68	H	-1.621123	0.075211	-0.852806
H69	H	-1.559950	0.148135	-0.687041
O70	O	-1.393913	-0.264856	-0.581700
C71	C	-1.316386	-0.197281	-0.493670
H72	H	-1.365244	-0.100055	-0.470991
H73	H	-1.297187	-0.249115	-0.386589
H74	H	-1.224037	-0.188030	-0.552241
