data_functionalizedCrystal
_audit_creation_method	'MofGen! by Chris Wilmer'
_symmetry_space_group_name_H-M	'P1'
_symmetry_Int_Tables_number	1
_symmetry_cell_setting	triclinic
loop_
_symmetry_equiv_pos_as_xyz
  x,y,z
_cell_length_a	13.635800
_cell_length_b	27.923497
_cell_length_c	10.992410
_cell_angle_alpha	84.514058
_cell_angle_beta	108.764651
_cell_angle_gamma	81.035752
loop_
_atom_site_label
_atom_site_type_symbol
_atom_site_fract_x
_atom_site_fract_y
_atom_site_fract_z
V1	V	2.032670	-0.067127	0.401439
O2	O	2.037363	0.003226	0.392927
O3	O	1.997425	-0.133102	0.399531
O4	O	2.021842	-0.066095	0.576139
O5	O	2.012777	-0.064246	0.215097
V6	V	2.274182	-0.058712	0.379050
O7	O	2.163846	-0.085587	0.450553
O8	O	2.368105	-0.040253	0.329936
O9	O	2.197824	0.007263	0.380958
O10	O	2.328188	-0.129066	0.387562
O11	O	2.352774	-0.061594	0.565392
O12	O	2.173407	-0.059745	0.204350
V13	V	2.532670	-0.067127	0.401439
O14	O	2.537363	0.003226	0.392927
O15	O	2.497425	-0.133102	0.399531
O16	O	2.521842	-0.066095	0.576139
O17	O	2.512777	-0.064246	0.215097
V18	V	2.774182	-0.058712	0.379050
O19	O	2.663846	-0.085587	0.450553
O20	O	2.868105	-0.040253	0.329936
O21	O	2.697824	0.007263	0.380958
O22	O	2.828188	-0.129066	0.387562
O23	O	2.852774	-0.061594	0.565392
O24	O	2.673407	-0.059745	0.204350
C25	C	1.916806	-0.149186	0.393415
C26	C	1.928722	-0.203121	0.393019
C27	C	1.974801	-0.530644	0.272681
C28	C	2.019613	-0.733351	0.271125
O29	O	2.001739	-0.753671	0.170790
N30	N	2.053094	-0.765625	0.388679
C31	C	2.075380	-0.747220	0.506631
O32	O	2.104896	-0.779322	0.606583
C33	C	2.030575	-0.544514	0.508186
C34	C	1.997082	-0.512241	0.390624
C35	C	1.941312	-0.498372	0.155128
C36	C	1.930104	-0.447698	0.155518
C37	C	1.952386	-0.429296	0.273461
C38	C	1.985875	-0.461568	0.391013
C39	C	2.052868	-0.526109	0.626137
C40	C	2.041666	-0.475429	0.626515
C41	C	2.008173	-0.443157	0.508953
C42	C	1.996949	-0.392491	0.509346
N43	N	1.963468	-0.360217	0.391792
C44	C	1.941186	-0.378620	0.273849
C45	C	2.098899	-0.853643	0.505806
C46	C	2.110099	-0.904319	0.505417
C47	C	2.054333	-0.890447	0.269911
C48	C	2.043126	-0.839770	0.270301
C49	C	2.065418	-0.821369	0.388252
C50	C	1.917651	-0.272201	0.274677
C51	C	1.906440	-0.221524	0.275077
C52	C	1.962213	-0.235400	0.510582
C53	C	1.973417	-0.286074	0.510183
C54	C	1.951136	-0.304472	0.392220
O55	O	2.014815	-0.372137	0.609629
O56	O	1.911694	-0.346510	0.173914
C57	C	1.986008	-0.581318	0.272291
C58	C	2.019497	-0.613589	0.389844
C59	C	2.041779	-0.595187	0.507786
C60	C	2.030697	-0.664266	0.389455
C61	C	2.008415	-0.682668	0.271513
C62	C	1.974934	-0.650394	0.153959
C63	C	1.963727	-0.599720	0.154349
C64	C	2.075260	-0.627461	0.625340
C65	C	2.086464	-0.678134	0.624941
C66	C	2.064183	-0.696536	0.506998
C67	C	1.947952	-0.063710	0.618693
C68	C	1.979668	-0.063303	0.761517
C69	C	2.110113	0.023343	0.387071
C70	C	2.087817	0.077278	0.387475
C71	C	2.078968	-0.062131	0.161789
C72	C	2.036871	-0.062536	0.018964
C73	C	2.416806	-0.149186	0.393415
C74	C	2.428722	-0.203121	0.393019
C75	C	2.447952	-0.063710	0.618693
C76	C	2.479668	-0.063303	0.761517
C77	C	1.914582	-0.059588	0.956593
C78	C	1.881580	-0.060213	0.808118
C79	C	2.061249	-0.111141	0.839224
C80	C	2.093560	-0.110718	0.987785
C81	C	2.066188	-0.018086	0.948585
C82	C	2.030916	-0.017859	0.799569
C83	C	2.610113	0.023343	0.387071
C84	C	2.587817	0.077278	0.387475
C85	C	2.578968	-0.062131	0.161789
C86	C	2.536871	-0.062536	0.018964
C87	C	2.525464	-0.230924	0.399284
C88	C	2.536679	-0.281603	0.398932
C89	C	2.451148	-0.304479	0.392306
C90	C	2.354399	-0.276673	0.386045
C91	C	2.343188	-0.225995	0.386406
C92	C	2.663569	0.105081	0.381213
C93	C	2.642626	0.155760	0.381572
C94	C	2.545934	0.178635	0.388200
C95	C	2.470176	0.150829	0.394458
C96	C	2.491117	0.100152	0.394091
C97	C	2.414582	-0.059588	0.956593
C98	C	2.381580	-0.060213	0.808118
C99	C	2.561249	-0.111141	0.839224
C100	C	2.593560	-0.110718	0.987785
C101	C	2.566188	-0.018086	0.948585
C102	C	2.530916	-0.017859	0.799569
H103	H	1.879163	-0.195249	0.179339
H104	H	1.923168	-0.513349	0.059080
O105	O	2.409408	0.070169	0.400866
H106	H	2.440199	0.031085	0.399494
H107	H	2.134984	-0.115129	0.810471
O108	O	2.299839	-0.014656	0.736872
H109	H	2.283577	0.008021	0.808401
H110	H	1.868598	-0.024954	0.974986
H111	H	2.155046	-0.019825	0.989448
H112	H	2.742307	0.086462	0.375817
H113	H	1.890479	-0.091526	1.004988
H114	H	2.595117	-0.212305	0.404672
O115	O	2.066996	-0.155297	1.049630
H116	H	2.140204	-0.178256	1.121944
O117	O	2.099282	-0.607615	0.752555
H118	H	2.124436	-0.638574	0.834220
H119	H	1.819883	-0.025816	0.754343
O120	O	2.212090	-0.116225	1.044347
H121	H	2.250545	-0.151456	1.025677
O122	O	2.658928	-0.116433	0.801154
H123	H	2.636543	-0.118403	0.695604
O124	O	2.365894	0.175508	0.401616
H125	H	2.316723	0.147666	0.405901
O126	O	2.625303	-0.017110	0.756483
H127	H	2.659539	0.015405	0.784836
H128	H	2.528897	0.219901	0.388498
H129	H	1.902839	-0.421426	0.059787
O130	O	2.122942	-0.833790	0.633019
H131	H	2.070312	-0.844990	0.684590
H132	H	2.026077	-0.144880	0.814044
H133	H	1.899506	-0.287175	0.178620
H134	H	2.527964	0.018241	0.968486
O135	O	2.353656	-0.013718	0.980970
H136	H	2.409879	0.007470	1.037807
O137	O	1.953115	0.029018	0.729633
H138	H	1.989928	0.060961	0.757047
H139	H	2.390479	-0.091526	1.004988
O140	O	2.262155	-0.301352	0.378894
H141	H	2.192993	-0.273509	0.374606
O142	O	1.828085	-0.103106	0.775769
H143	H	1.825723	-0.123486	0.866239
O144	O	2.453115	0.029020	0.729644
H145	H	2.430899	0.029633	0.623016
O146	O	2.641031	-0.311584	0.405667
H147	H	2.634474	-0.350669	0.404318
H148	H	2.341193	-0.092595	0.783711
H149	H	2.704325	0.178392	0.376477
O150	O	2.238836	-0.196008	0.379632
H151	H	2.181249	-0.220432	0.374951
H152	H	2.460292	-0.345745	0.392013
O153	O	2.007004	-0.804963	0.143504
H154	H	1.993396	-0.826278	0.061434
O155	O	2.015554	0.030037	0.974927
H156	H	1.968924	0.022807	1.038484
O157	O	2.566989	-0.155291	1.049649
H158	H	2.531226	-0.176944	0.973384
H159	H	2.036187	-0.905439	0.173877
O160	O	2.712090	-0.116221	1.044339
H161	H	2.745510	-0.149840	1.118273
O162	O	2.514668	-0.155837	0.805895
H163	H	2.433464	-0.144097	0.734052
O164	O	2.683886	-0.020378	1.002720
H165	H	2.721364	-0.052998	1.079374
O166	O	1.986276	-0.215504	0.637730
H167	H	1.933683	-0.226675	0.689394
H168	H	2.137354	-0.930591	0.601147
O169	O	2.089011	-0.560907	0.752944
H170	H	2.032102	-0.552658	0.804684
O171	O	2.065701	-0.455581	0.753736
H172	H	2.090861	-0.486538	0.835408
H173	H	2.000672	-0.312351	0.605910
O174	O	2.125289	-0.017105	0.756457
H175	H	2.185523	-0.051056	0.803745
O176	O	1.927597	-0.564914	0.027549
H177	H	1.913994	-0.586232	-0.054517
H178	H	2.113730	-0.704407	0.720681
O179	O	1.950898	-0.670246	0.026744
H180	H	1.964326	-0.710906	0.046239
