data_functionalizedCrystal
_audit_creation_method	'MofGen! by Chris Wilmer'
_symmetry_space_group_name_H-M	'P1'
_symmetry_Int_Tables_number	1
_symmetry_cell_setting	triclinic
loop_
_symmetry_equiv_pos_as_xyz
  x,y,z
_cell_length_a	15.297327
_cell_length_b	10.686220
_cell_length_c	10.686551
_cell_angle_alpha	89.691918
_cell_angle_beta	96.042164
_cell_angle_gamma	76.759735
loop_
_atom_site_label
_atom_site_type_symbol
_atom_site_fract_x
_atom_site_fract_y
_atom_site_fract_z
Zn1	Zn	-0.219505	-1.923459	-0.619215
Zn2	Zn	-0.382469	-1.870979	-0.451647
Zn3	Zn	-0.242538	-1.692454	-0.431496
Zn4	Zn	-0.380644	-1.677815	-0.676952
O5	O	-0.306289	-1.791177	-0.544828
O6	O	-0.232247	-2.094014	-0.581257
O7	O	-0.374309	-1.831461	-0.276122
O8	O	-0.113484	-1.751187	-0.423800
O9	O	-0.351976	-2.055457	-0.458146
O10	O	-0.096562	-1.920905	-0.561717
O11	O	-0.271502	-1.700299	-0.261316
O12	O	-0.269733	-1.512996	-0.479786
O13	O	-0.348866	-1.726237	-0.842146
O14	O	-0.371200	-1.502241	-0.660122
O15	O	-0.230478	-1.906710	-0.799726
O16	O	-0.508226	-1.817266	-0.514131
O17	O	-0.506885	-1.675349	-0.679662
C18	C	-0.322768	-1.461590	-0.574033
C19	C	-0.329838	-1.320589	-0.586562
C20	C	-0.540222	-1.739061	-0.605372
C21	C	-0.640291	-1.716885	-0.631305
C22	C	-0.286900	-1.820695	-0.867008
C23	C	-0.278637	-1.833273	-1.004302
C24	C	-0.925010	-1.950230	-0.359860
C25	C	-0.830990	-1.971064	-0.335489
C26	C	-0.783311	-1.907522	-0.409441
C27	C	-0.829660	-1.823141	-0.507768
C28	C	-0.923690	-1.802297	-0.532135
C29	C	-0.781991	-1.759589	-0.581716
C30	C	-0.828341	-1.675208	-0.680043
C31	C	-0.922361	-1.654369	-0.704406
C32	C	-0.970040	-1.717911	-0.630454
C33	C	-0.687961	-1.780432	-0.557349
C34	C	-0.686642	-1.632499	-0.729624
C35	C	-0.780661	-1.611665	-0.753995
C36	C	-0.071439	-1.843533	-0.484070
C37	C	0.028640	-1.865844	-0.458179
C38	C	-0.289746	-2.122050	-0.515509
C39	C	-0.282696	-2.263049	-0.503015
C40	C	-0.325535	-1.761861	-0.223877
C41	C	-0.333531	-1.749584	-0.086497
H42	H	-0.706756	-1.924489	-0.389591
H43	H	-0.793256	-2.039765	-0.255431
O44	O	-0.384384	-1.250839	-0.683487
C45	C	-0.355814	-1.298758	-0.798744
H46	H	-0.316275	-1.402930	-0.783973
H47	H	-0.310754	-1.238342	-0.835024
C48	C	-0.487446	-1.164050	-0.913732
C49	C	-0.438890	-1.292000	-0.895592
H50	H	-0.538690	-1.159877	-0.973475
H51	H	-0.506693	-1.131761	-0.836082
H52	H	-0.449887	-1.113717	-0.943960
H53	H	-0.476446	-1.342327	-0.865350
H54	H	-0.419651	-1.324297	-0.973240
H55	H	-0.225318	-1.914556	-1.038971
H56	H	-0.650232	-1.849135	-0.477290
H57	H	-0.963839	-2.001949	-0.299652
O58	O	-1.061356	-1.697813	-0.654319
C59	C	-1.083957	-1.734166	-0.777988
H60	H	-1.023877	-1.806116	-0.810142
H61	H	-1.101969	-1.645502	-0.843727
C62	C	-1.239266	-1.708084	-0.741347
C63	C	-1.165476	-1.796463	-0.780835
H64	H	-1.289553	-1.746506	-0.743106
H65	H	-1.224040	-1.683587	-0.658030
H66	H	-1.254264	-1.634203	-0.796135
H67	H	-1.150473	-1.870334	-0.726038
H68	H	-1.180702	-1.820974	-0.864143
H69	H	-0.960098	-1.585644	-0.784457
O70	O	-0.825778	-1.529854	-0.849572
C71	C	-0.871666	-1.597299	-0.937101
H72	H	-0.883505	-1.686375	-0.888722
H73	H	-0.829196	-1.627586	-1.018025
C74	C	-0.948629	-1.400327	-1.048166
C75	C	-0.963177	-1.509727	-0.988744
H76	H	-1.005075	-1.346309	-1.080027
H77	H	-0.917711	-1.354888	-0.989199
H78	H	-0.913234	-1.425583	-1.115595
H79	H	-0.998561	-1.484471	-0.921307
H80	H	-0.994103	-1.555160	-1.047701
O81	O	-0.397264	-1.652740	-1.045226
C82	C	-0.483744	-1.663292	-1.097455
H83	H	-0.481103	-1.766838	-1.125212
H84	H	-0.506235	-1.596801	-1.184376
C85	C	-0.554638	-1.497588	-0.965505
C86	C	-0.551396	-1.624767	-0.999587
H87	H	-0.596371	-1.473819	-0.905139
H88	H	-0.496375	-1.490474	-0.930320
H89	H	-0.573378	-1.442194	-1.037948
H90	H	-0.532646	-1.680160	-0.927148
H91	H	-0.609658	-1.631889	-1.034758
O92	O	-0.228212	-1.333064	-0.406205
C93	C	-0.280398	-1.390948	-0.332807
H94	H	-0.345090	-1.399452	-0.392158
H95	H	-0.298225	-1.329379	-0.248259
C96	C	-0.146476	-1.515415	-0.213774
C97	C	-0.225929	-1.525870	-0.286673
H98	H	-0.112877	-1.598638	-0.185311
H99	H	-0.111317	-1.476414	-0.263219
H100	H	-0.161344	-1.464102	-0.143326
H101	H	-0.211061	-1.577168	-0.357127
H102	H	-0.261085	-1.564882	-0.237239
H103	H	-0.647822	-1.580754	-0.789840
