data_functionalizedCrystal
_audit_creation_method	'MofGen! by Chris Wilmer'
_symmetry_space_group_name_H-M	'P1'
_symmetry_Int_Tables_number	1
_symmetry_cell_setting	triclinic
loop_
_symmetry_equiv_pos_as_xyz
  x,y,z
_cell_length_a	14.044220
_cell_length_b	10.908878
_cell_length_c	10.065875
_cell_angle_alpha	83.443480
_cell_angle_beta	80.405158
_cell_angle_gamma	103.363166
loop_
_atom_site_label
_atom_site_type_symbol
_atom_site_fract_x
_atom_site_fract_y
_atom_site_fract_z
O1	O	0.160397	1.704266	-0.113469
O2	O	0.660397	2.204266	0.386531
O3	O	0.087690	1.338731	-0.113476
O4	O	0.587690	1.838731	0.386524
O5	O	0.261162	1.516011	-0.113467
O6	O	0.761162	2.016011	0.386533
O7	O	-0.013075	1.526986	-0.113479
O8	O	0.486925	2.026986	0.386521
O9	O	0.227974	1.482219	0.113520
O10	O	0.727974	1.982219	0.613520
O11	O	0.054502	1.304939	0.113511
O12	O	0.554502	1.804939	0.613511
O13	O	0.127209	1.670473	0.113518
O14	O	0.627209	2.170473	0.613518
Zn15	Zn	0.085586	1.482341	0.149553
Zn16	Zn	0.585586	1.982341	0.649553
Zn17	Zn	0.129313	1.526864	-0.149512
Zn18	Zn	0.629313	2.026864	0.350488
O19	O	-0.046264	1.493194	0.113508
O20	O	0.453736	1.993194	0.613508
C21	C	0.064301	1.274772	0.000016
C22	C	0.564301	1.774772	0.500016
C23	C	0.044066	1.134538	0.000014
C24	C	0.544066	1.634538	0.500014
C25	C	0.117901	1.077071	0.000016
C26	C	0.617901	1.577071	0.500016
C27	C	0.096989	0.932132	0.000013
C28	C	0.596989	1.432132	0.500013
C29	C	-0.064226	1.514894	0.000013
C30	C	0.435774	2.014894	0.500013
C31	C	-0.167193	1.529222	0.000008
C32	C	0.332807	2.029222	0.500008
C33	C	-0.355726	1.555415	0.000015
C34	C	0.144274	2.055415	0.500015
C35	C	-0.429378	1.453797	0.000014
C36	C	0.070622	1.953797	0.500014
C37	C	-0.534284	1.468371	0.000018
C38	C	-0.034284	1.968371	0.500018
C39	C	-0.250810	1.540843	0.000011
C40	C	0.249190	2.040843	0.500011
C41	C	0.279126	1.494312	0.000025
C42	C	0.779126	1.994312	0.500025
C43	C	0.382094	1.479984	0.000021
C44	C	0.882094	1.979984	0.500021
C45	C	0.150598	1.734433	0.000022
C46	C	0.650598	2.234433	0.500022
C47	C	0.170834	1.874669	0.000016
C48	C	0.670834	2.374669	0.500016
N49	N	0.055746	1.451964	0.353657
N50	N	0.555746	1.951964	0.853657
N51	N	0.159162	1.557249	-0.353616
N52	N	0.659162	2.057249	0.146384
C53	C	0.118935	1.516286	0.421439
C54	C	0.618935	2.016286	0.921439
C55	C	0.095964	1.492918	0.578605
C56	C	0.595964	1.992918	1.078605
H57	H	0.249536	0.932768	0.000010
H58	H	0.749536	1.432768	0.500010
C59	C	-0.408128	1.321476	0.000022
C60	C	0.091872	1.821476	0.500022
N61	N	-0.392119	1.221815	0.000034
N62	N	0.107881	1.721815	0.500034
C63	C	0.215010	1.614032	0.342653
C64	C	0.715010	2.114032	0.842653
N65	N	0.287379	1.687649	0.283313
N66	N	0.787379	2.187649	0.783313
C67	C	-0.376983	1.687722	0.000040
C68	C	0.123017	2.187722	0.500040
N69	N	-0.393006	1.787373	0.000069
N70	N	0.106994	2.287373	0.500069
H71	H	-0.034628	1.076435	0.000004
H72	H	0.465372	1.576435	0.500004
C73	C	-0.000101	1.395140	0.657386
C74	C	0.499899	1.895140	1.157386
N75	N	-0.072456	1.321495	0.716726
N76	N	0.427544	1.821495	1.216726
C77	C	0.224216	1.155559	0.000030
C78	C	0.724216	1.655559	0.500030
N79	N	0.304294	1.214674	0.000046
N80	N	0.804294	1.714674	0.500046
H81	H	0.230275	1.629618	0.588067
H82	H	0.730275	2.129618	1.088067
H83	H	-0.015357	1.379591	0.411979
H84	H	0.484643	1.879591	0.911979
H85	H	0.018290	0.874033	0.000004
H86	H	0.518290	1.374033	0.500004
