data_functionalizedCrystal
_audit_creation_method	'MofGen! by Chris Wilmer'
_symmetry_space_group_name_H-M	'P1'
_symmetry_Int_Tables_number	1
_symmetry_cell_setting	triclinic
loop_
_symmetry_equiv_pos_as_xyz
  x,y,z
_cell_length_a	17.699083
_cell_length_b	10.654541
_cell_length_c	16.176319
_cell_angle_alpha	89.993456
_cell_angle_beta	89.998611
_cell_angle_gamma	83.883472
loop_
_atom_site_label
_atom_site_type_symbol
_atom_site_fract_x
_atom_site_fract_y
_atom_site_fract_z
O1	O	1.005088	0.158809	-0.068630
O2	O	0.784840	0.179471	-0.068657
O3	O	0.900029	-0.013688	-0.068638
O4	O	0.889899	0.351968	-0.068649
O5	O	0.900013	-0.013701	0.068855
O6	O	0.784824	0.179458	0.068836
O7	O	1.005072	0.158797	0.068863
Cu8	Cu	0.894946	0.169126	0.081404
Cu9	Cu	0.894965	0.169141	-0.081198
O10	O	0.889883	0.351956	0.068844
C11	C	0.756631	0.178724	0.000086
C12	C	0.672599	0.176503	0.000076
C13	C	0.624698	0.289883	0.000072
C14	C	0.545741	0.287789	0.000083
C15	C	0.514687	0.172313	0.000091
C16	C	0.562594	0.058924	0.000097
C17	C	0.641549	0.061020	0.000092
C18	C	0.244177	0.050470	0.000118
C19	C	0.165216	0.048383	0.000120
C20	C	0.148369	0.277239	0.000109
C21	C	0.227324	0.279335	0.000104
C22	C	0.275224	0.165946	0.000114
C23	C	0.360838	0.168219	0.000104
C24	C	0.429075	0.170039	0.000096
C25	C	0.899277	-0.060480	0.000108
C26	C	0.897053	-0.199884	0.000106
C27	C	1.034792	-0.230266	0.000134
C28	C	1.102614	-0.310947	0.000149
C29	C	1.100519	-0.441929	0.000146
C30	C	1.030596	-0.492230	0.000126
C31	C	0.962775	-0.411549	0.000110
C32	C	0.964876	-0.280566	0.000116
C33	C	0.825037	-0.381167	0.000077
C34	C	0.827130	-0.250185	0.000086
C35	C	0.755114	-0.431468	0.000056
C36	C	0.687291	-0.350786	0.000047
C37	C	0.689388	-0.219798	0.000051
C38	C	0.759308	-0.169504	0.000071
C39	C	1.033281	0.159543	0.000118
C40	C	1.117313	0.161764	0.000123
C41	C	0.890634	0.398747	0.000096
C42	C	0.892859	0.538151	0.000092
N43	N	0.894939	0.169115	0.195769
N44	N	0.894979	0.169142	-0.195563
C45	C	0.945960	0.083620	0.239042
C46	C	0.945964	0.083618	0.325589
C47	C	0.894949	0.169120	0.368862
C48	C	0.843923	0.254620	0.325583
C49	C	0.843916	0.254614	0.239037
C50	C	0.843949	0.254643	0.674611
C51	C	0.843961	0.254645	0.761163
C52	C	0.945997	0.083647	0.761162
C53	C	0.945990	0.083642	0.674617
C54	C	0.894961	0.169137	0.631346
C55	C	0.894956	0.169136	0.537502
C56	C	0.894957	0.169128	0.462704
H57	H	0.537303	-0.035099	0.000116
H58	H	0.283168	-0.041858	0.000127
O59	O	1.170599	-0.262293	0.000130
C60	C	1.230009	-0.361592	0.000161
H61	H	1.208328	-0.450503	-0.025874
H62	H	1.278789	-0.334366	-0.039748
H63	H	1.250951	-0.380203	0.066127
H64	H	0.802401	0.324258	0.639386
H65	H	1.036505	-0.123616	0.000147
H66	H	0.987545	0.014029	0.796403
H67	H	0.802368	0.324232	0.203805
H68	H	0.680549	-0.031306	0.000094
H69	H	1.155746	-0.507621	0.000152
H70	H	0.802416	0.324273	0.796394
H71	H	1.028897	-0.598883	0.000113
O72	O	0.619356	-0.399589	-0.000122
C73	C	0.577977	-0.358296	-0.071327
H74	H	0.618858	-0.331154	-0.121085
H75	H	0.545367	-0.437541	-0.095245
H76	H	0.536245	-0.272806	-0.055229
H77	H	0.802382	0.324233	0.360820
O78	O	0.753175	-0.558724	-0.000057
C79	C	0.790252	-0.610803	-0.071266
H80	H	0.831680	-0.544189	-0.094996
H81	H	0.822702	-0.705901	-0.055242
H82	H	0.746356	-0.624434	-0.121141
O83	O	0.623555	-0.141301	0.000145
C84	C	0.620616	-0.064664	0.071366
H85	H	0.680718	-0.058229	0.095126
H86	H	0.592943	0.033873	0.055347
H87	H	0.585810	-0.107662	0.121217
O88	O	0.761444	-0.042292	0.000185
C89	C	0.799889	-0.006875	0.071415
H90	H	0.838885	-0.091233	0.095167
H91	H	0.835157	0.073283	0.055410
H92	H	0.756715	0.025965	0.121266
H93	H	0.649976	0.383917	0.000065
O94	O	0.995544	0.000441	0.197138
C95	C	1.040589	-0.074999	0.253895
H96	H	1.009556	-0.076348	0.315591
H97	H	1.051610	-0.175317	0.228900
H98	H	1.097023	-0.034340	0.263089
H99	H	0.987508	0.014000	0.360821
H100	H	0.252604	0.373367	0.000094
O101	O	0.499319	0.398043	0.000042
C102	C	0.543659	0.500413	0.000050
H103	H	0.602409	0.468358	-0.025986
H104	H	0.514951	0.579841	-0.039870
H105	H	0.549472	0.535818	0.066009
O106	O	0.101760	0.387306	-0.000003
C107	C	0.055594	0.392960	-0.071218
H108	H	0.051077	0.293294	-0.094950
H109	H	-0.003491	0.439921	-0.055201
H110	H	0.081864	0.450234	-0.121088
O111	O	0.995572	0.000463	0.632711
C112	C	1.040619	-0.074981	0.689464
H113	H	1.009590	-0.076330	0.751162
H114	H	1.051638	-0.175297	0.664467
H115	H	1.097054	-0.034323	0.698655
H116	H	0.139935	-0.045657	0.000128
