data_functionalizedCrystal
_audit_creation_method	'MofGen! by Chris Wilmer'
_symmetry_space_group_name_H-M	'P1'
_symmetry_Int_Tables_number	1
_symmetry_cell_setting	triclinic
loop_
_symmetry_equiv_pos_as_xyz
  x,y,z
_cell_length_a	21.295417
_cell_length_b	12.759401
_cell_length_c	12.759393
_cell_angle_alpha	90.018292
_cell_angle_beta	89.961947
_cell_angle_gamma	89.969332
loop_
_atom_site_label
_atom_site_type_symbol
_atom_site_fract_x
_atom_site_fract_y
_atom_site_fract_z
Zn1	Zn	-0.250576	-1.606138	-0.593926
Zn2	Zn	-0.355858	-1.605984	-0.418223
Zn3	Zn	-0.250607	-1.430440	-0.418265
Zn4	Zn	-0.355812	-1.430380	-0.593864
O5	O	-0.303213	-1.518236	-0.506069
O6	O	-0.264549	-1.753139	-0.570626
O7	O	-0.341929	-1.582659	-0.271207
O8	O	-0.162514	-1.453837	-0.441611
O9	O	-0.341899	-1.753026	-0.441538
O10	O	-0.162491	-1.582921	-0.570668
O11	O	-0.264601	-1.453688	-0.271238
O12	O	-0.264556	-1.283411	-0.441551
O13	O	-0.341820	-1.453734	-0.740893
O14	O	-0.341850	-1.283367	-0.570562
O15	O	-0.264504	-1.582862	-0.740939
O16	O	-0.443942	-1.582601	-0.441478
O17	O	-0.443907	-1.453585	-0.570521
C18	C	-0.303202	-1.245268	-0.506055
C19	C	-0.303212	-1.128492	-0.506074
C20	C	-0.466765	-1.518098	-0.506011
C21	C	-0.536733	-1.518135	-0.506021
C22	C	-0.303153	-1.518308	-0.780103
C23	C	-0.303127	-1.518339	-0.896880
C24	C	-0.569597	-1.585373	-0.438898
C25	C	-0.635339	-1.585423	-0.438921
C26	C	-0.668216	-1.518215	-0.506058
C27	C	-0.635344	-1.450972	-0.573195
C28	C	-0.569603	-1.450932	-0.573177
N29	N	-0.771481	-1.426308	-0.514062
N30	N	-0.833933	-1.426349	-0.514073
C31	C	-0.866290	-1.518333	-0.506118
N32	N	-0.833838	-1.610276	-0.498130
N33	N	-0.771380	-1.610234	-0.498114
C34	C	-0.739501	-1.518251	-0.506085
C35	C	-0.970439	-1.585630	-0.439016
C36	C	-1.036183	-1.585681	-0.439047
C37	C	-1.036187	-1.451221	-0.573315
C38	C	-0.970444	-1.451179	-0.573289
C39	C	-0.937575	-1.518382	-0.506134
C40	C	-0.139023	-1.518403	-0.506151
C41	C	-0.069055	-1.518474	-0.506185
C42	C	-0.303226	-1.792269	-0.506084
C43	C	-0.303231	-1.909046	-0.506091
C44	C	-0.343523	-1.073634	-0.573139
C45	C	-0.343531	-0.963910	-0.573151
C46	C	-0.262915	-0.963911	-0.439022
C47	C	-0.262904	-1.073633	-0.439017
C48	C	-0.390068	-1.073633	-0.650574
C49	C	-0.390076	-0.963908	-0.650585
C50	C	-0.343377	-1.585498	-0.951723
C51	C	-0.343350	-1.585530	-1.061447
C52	C	-0.262823	-1.451235	-1.061475
C53	C	-0.262847	-1.451209	-0.951753
C54	C	-0.389870	-1.663029	-0.951707
C55	C	-0.389843	-1.663060	-1.061431
C56	C	-0.303228	-1.518224	-0.233102
C57	C	-0.303076	-1.518396	-0.116326
H58	H	-0.662102	-1.640180	-0.384261
H59	H	-0.376825	-1.744406	-0.921945
C60	C	-0.455097	-0.924344	-0.621252
C61	C	-0.494861	-1.009837	-0.603298
C62	C	-0.554757	-0.973432	-0.576263
H63	H	-0.471421	-0.883022	-0.676841
H64	H	-0.452430	-0.882989	-0.559485
H65	H	-0.497530	-1.051175	-0.665058
H66	H	-0.478557	-1.051168	-0.547705
H67	H	-0.552090	-0.932076	-0.514496
H68	H	-0.571075	-0.932109	-0.631856
H69	H	-0.581743	-1.031432	-0.564068
H70	H	-0.943676	-1.640354	-0.384338
H71	H	-0.377068	-1.103446	-0.731984
H72	H	-0.943685	-1.396423	-0.627944
H73	H	-0.436189	-1.633836	-0.917649
H74	H	-1.062954	-1.396504	-0.627983
C75	C	-0.671149	-1.378042	-0.645971
C76	C	-0.735757	-1.392446	-0.631600
C77	C	-0.768759	-1.325272	-0.698620
H78	H	-0.660409	-1.393307	-0.716615
H79	H	-0.660456	-1.307430	-0.630522
H80	H	-0.746446	-1.463041	-0.647056
H81	H	-0.746516	-1.377172	-0.560970
H82	H	-0.758066	-1.254661	-0.683171
H83	H	-0.758014	-1.340543	-0.769259
H84	H	-0.812599	-1.335029	-0.688871
H85	H	-0.542845	-1.396178	-0.627838
H86	H	-0.230067	-1.396531	-0.907104
H87	H	-0.372675	-0.929918	-0.727941
H88	H	-0.436354	-1.107626	-0.621279
H89	H	-0.230098	-0.919232	-0.384428
C90	C	-0.219106	-1.133004	-0.366100
C91	C	-0.183822	-1.061474	-0.307361
C92	C	-0.143472	-1.116128	-0.240169
H93	H	-0.191651	-1.175840	-0.406265
H94	H	-0.243130	-1.175755	-0.320183
H95	H	-0.159801	-1.018741	-0.353272
H96	H	-0.211261	-1.018636	-0.267174
H97	H	-0.167495	-1.158879	-0.194253
H98	H	-0.116021	-1.158962	-0.280343
H99	H	-0.119531	-1.067603	-0.200300
H100	H	-0.230028	-1.396581	-1.106166
H101	H	-0.372380	-1.740386	-1.095476
H102	H	-0.438589	-1.641221	-1.091185
H103	H	-0.542836	-1.640097	-0.384219
H104	H	-1.062939	-1.640441	-0.384389
