data_functionalizedCrystal
_audit_creation_method	'MofGen! by Chris Wilmer'
_symmetry_space_group_name_H-M	'P1'
_symmetry_Int_Tables_number	1
_symmetry_cell_setting	triclinic
loop_
_symmetry_equiv_pos_as_xyz
  x,y,z
_cell_length_a	8.597340
_cell_length_b	10.654541
_cell_length_c	7.088929
_cell_angle_alpha	83.716231
_cell_angle_beta	103.954719
_cell_angle_gamma	84.909934
loop_
_atom_site_label
_atom_site_type_symbol
_atom_site_fract_x
_atom_site_fract_y
_atom_site_fract_z
O1	O	2.103274	0.172469	0.187486
O2	O	1.638818	0.192969	0.110972
O3	O	1.881728	-0.000106	0.151001
O4	O	1.860364	0.365544	0.147458
O5	O	1.914190	-0.025967	0.474325
O6	O	1.671280	0.167108	0.434297
O7	O	2.135736	0.146608	0.510811
Cu8	Cu	1.906472	0.154497	0.502076
Cu9	Cu	1.868082	0.185080	0.119707
O10	O	1.892826	0.339684	0.470782
C11	C	1.595577	0.179278	0.262837
C12	C	1.418371	0.176995	0.233645
C13	C	1.896391	-0.059822	0.312403
C14	C	1.891701	-0.199228	0.311627
C15	C	2.182167	-0.229512	0.359503
C16	C	2.325190	-0.310145	0.383080
C17	C	2.320772	-0.441127	0.382346
C18	C	2.173315	-0.491477	0.358027
C19	C	2.030292	-0.410844	0.334449
C20	C	2.034726	-0.279861	0.335192
C21	C	1.739829	-0.380560	0.286561
C22	C	1.744244	-0.249578	0.287308
C23	C	1.592372	-0.430910	0.262241
C24	C	1.449346	-0.350278	0.238677
C25	C	1.453770	-0.219288	0.239414
C26	C	1.601221	-0.168945	0.263731
C27	C	2.178976	0.160300	0.358941
C28	C	2.356182	0.162583	0.388121
C29	C	1.878162	0.399400	0.309375
C30	C	1.882852	0.538807	0.310138
N31	N	1.933485	0.132985	0.771015
N32	N	1.841082	0.206582	-0.149230
H33	H	1.336036	0.187589	0.079040
H34	H	2.029268	0.056722	0.868455
H35	H	1.438509	0.151981	0.542716
H36	H	2.185781	-0.122862	0.360129
N37	N	1.299495	-0.132340	0.214004
H38	H	1.306878	-0.086921	0.333105
H39	H	1.282897	-0.067796	0.093329
H40	H	2.445248	-0.269136	0.402898
H41	H	1.745316	0.282849	0.753343
H42	H	2.437233	-0.506779	0.401530
H43	H	2.169729	-0.598130	0.357408
H44	H	1.588784	-0.537563	0.261634
N45	N	1.290317	-0.404576	0.212463
H46	H	1.215563	-0.365567	0.082274
H47	H	1.309356	-0.499784	0.215660
H48	H	1.604838	-0.062295	0.264345
