data_functionalizedCrystal
_audit_creation_method	'MofGen! by Chris Wilmer'
_symmetry_space_group_name_H-M	'P1'
_symmetry_Int_Tables_number	1
_symmetry_cell_setting	triclinic
loop_
_symmetry_equiv_pos_as_xyz
  x,y,z
_cell_length_a	14.519709
_cell_length_b	17.699104
_cell_length_c	16.176319
_cell_angle_alpha	89.992259
_cell_angle_beta	90.001796
_cell_angle_gamma	96.514169
loop_
_atom_site_label
_atom_site_type_symbol
_atom_site_fract_x
_atom_site_fract_y
_atom_site_fract_z
O1	O	-1.223458	0.099215	-0.068641
O2	O	-0.723458	0.599215	0.431359
O3	O	-0.954933	0.110898	-0.068666
O4	O	-0.454933	0.610898	0.431334
O5	O	-1.096772	-0.005110	-0.068645
O6	O	-0.596772	0.494890	0.431355
O7	O	-1.081619	0.215223	-0.068662
O8	O	-0.581619	0.715223	0.431338
O9	O	-1.096753	-0.005118	0.068848
O10	O	-0.596753	0.494882	0.568848
O11	O	-0.954913	0.110891	0.068827
O12	O	-0.454913	0.610891	0.568827
O13	O	-1.223439	0.099207	0.068852
O14	O	-0.723439	0.599207	0.568852
Cu15	Cu	-1.089174	0.105048	0.081394
Cu16	Cu	-0.589174	0.605048	0.581394
Cu17	Cu	-1.089197	0.105057	-0.081208
Cu18	Cu	-0.589197	0.605057	0.418792
O19	O	-1.081600	0.215215	0.068832
O20	O	-0.581600	0.715215	0.568832
C21	C	-0.920566	0.110350	0.000077
C22	C	-0.420566	0.610350	0.500077
C23	C	-0.818191	0.108718	0.000068
C24	C	-0.318191	0.608718	0.500068
C25	C	-1.096216	-0.033312	0.000101
C26	C	-0.596216	0.466688	0.500101
C27	C	-1.094578	-0.117334	0.000102
C28	C	-0.594578	0.382666	0.500102
C29	C	-1.257806	0.099755	0.000107
C30	C	-0.757806	0.599755	0.500107
C31	C	-1.360181	0.101387	0.000111
C32	C	-0.860181	0.601387	0.500111
C33	C	-0.443320	0.102711	0.000106
C34	C	0.056680	0.602711	0.500106
C35	C	-0.547621	0.104379	0.000095
C36	C	-0.047621	0.604379	0.500095
C37	C	-0.630753	0.105715	0.000086
C38	C	-0.130753	0.605715	0.500086
C39	C	-0.735060	0.107383	0.000077
C40	C	-0.235060	0.607383	0.500077
C41	C	-1.168593	-0.641993	0.000085
C42	C	-0.668593	-0.141993	0.500085
C43	C	-1.170127	-0.563045	0.000093
C44	C	-0.670127	-0.063045	0.500093
C45	C	-1.086862	-0.514666	0.000087
C46	C	-0.586862	-0.014666	0.500087
C47	C	-1.002057	-0.545238	0.000081
C48	C	-0.502057	-0.045238	0.500081
C49	C	-1.000524	-0.624185	0.000080
C50	C	-0.500524	-0.124185	0.500080
C51	C	-1.008238	-0.226855	0.000089
C52	C	-0.508238	0.273145	0.500089
C53	C	-1.009778	-0.147903	0.000088
C54	C	-0.509778	0.352097	0.500088
C55	C	-1.177842	-0.165714	0.000102
C56	C	-0.677842	0.334286	0.500102
C57	C	-1.176308	-0.244661	0.000100
C58	C	-0.676308	0.255339	0.500100
C59	C	-1.091504	-0.275227	0.000099
C60	C	-0.591504	0.224773	0.500099
C61	C	-1.089842	-0.360832	0.000093
C62	C	-0.589842	0.139168	0.500093
C63	C	-1.088523	-0.429063	0.000087
C64	C	-0.588523	0.070937	0.500087
N65	N	-1.089165	0.105042	0.195759
N66	N	-0.589165	0.605042	0.695759
C67	C	-1.082156	0.243417	0.000083
C68	C	-0.582156	0.743417	0.500083
C69	C	-1.083794	0.327439	0.000077
C70	C	-0.583794	0.827439	0.500077
N71	N	-1.089214	0.105058	-0.195573
N72	N	-0.589214	0.605058	0.304427
C73	C	-1.151990	0.053694	0.239033
C74	C	-0.651990	0.553694	0.739033
C75	C	-1.151995	0.053693	0.325580
C76	C	-0.651995	0.553693	0.825580
C77	C	-1.089178	0.105044	0.368852
C78	C	-0.589178	0.605044	0.868852
C79	C	-1.026346	0.156394	0.325572
C80	C	-0.526346	0.656394	0.825572
C81	C	-1.026338	0.156391	0.239027
C82	C	-0.526338	0.656391	0.739027
C83	C	-1.026378	0.156408	0.674601
C84	C	-0.526378	0.656408	1.174601
C85	C	-1.026393	0.156409	0.761152
C86	C	-0.526393	0.656409	1.261152
C87	C	-1.152035	0.053711	0.761153
C88	C	-0.652035	0.553711	1.261153
C89	C	-1.152026	0.053708	0.674608
C90	C	-0.652026	0.553708	1.174608
C91	C	-1.089192	0.105054	0.631336
C92	C	-0.589192	0.605054	1.131336
C93	C	-1.089186	0.105054	0.537492
C94	C	-0.589186	0.605054	1.037492
C95	C	-1.089187	0.105049	0.462694
C96	C	-0.589187	0.605049	0.962694
H97	H	-1.236397	-0.681379	0.000083
H98	H	-0.736397	-0.181379	0.500083
C99	C	-0.918185	-0.094683	0.000085
C100	C	-0.418185	0.405317	0.500085
H101	H	-0.931248	-0.043289	0.000076
H102	H	-0.431248	0.456711	0.500076
H103	H	-0.883400	-0.103964	0.048030
H104	H	-0.383400	0.396036	0.548030
H105	H	-0.883410	-0.103958	-0.047870
H106	H	-0.383410	0.396042	0.452130
H107	H	-1.203147	0.011882	0.203806
H108	H	-0.703147	0.511882	0.703806
C109	C	-1.221111	-0.002782	0.373177
C110	C	-0.721111	0.497218	0.873177
H111	H	-1.258531	-0.033356	0.335011
H112	H	-0.758531	0.466644	0.835011
H113	H	-1.188022	-0.034353	0.406951
H114	H	-0.688022	0.465647	0.906951
H115	H	-1.259440	0.024528	0.406926
H116	H	-0.759440	0.524528	0.906926
H117	H	-1.239178	-0.538161	0.000100
H118	H	-0.739178	-0.038161	0.500100
H119	H	-0.939186	-0.251731	0.000078
H120	H	-0.439186	0.248269	0.500078
C121	C	-0.957234	0.212873	0.191422
C122	C	-0.457234	0.712873	0.691422
H123	H	-0.966219	0.205512	0.133682
H124	H	-0.466219	0.705512	0.633682
H125	H	-0.967135	0.263405	0.205593
H126	H	-0.467135	0.763405	0.705593
H127	H	-0.895706	0.204534	0.205615
H128	H	-0.395706	0.704534	0.705615
H129	H	-0.975236	0.198227	0.796383
H130	H	-0.475236	0.698227	1.296383
H131	H	-0.934261	-0.505842	0.000081
H132	H	-0.434261	-0.005842	0.500081
C133	C	-0.907246	-0.657810	0.000064
C134	C	-0.407246	-0.157810	0.500064
H135	H	-0.857875	-0.617691	0.000052
H136	H	-0.357875	-0.117691	0.500052
H137	H	-0.903145	-0.688244	0.048008
H138	H	-0.403145	-0.188244	0.548008
H139	H	-0.903165	-0.688229	-0.047891
H140	H	-0.403165	-0.188229	0.452109
C141	C	-0.957270	0.212894	0.627012
C142	C	-0.457270	0.712894	1.127012
H143	H	-0.919870	0.243481	0.665181
H144	H	-0.419870	0.743481	1.165181
H145	H	-0.918936	0.185599	0.593260
H146	H	-0.418936	0.685599	1.093260
H147	H	-0.990376	0.244463	0.593242
H148	H	-0.490376	0.744463	1.093242
H149	H	-1.244111	-0.284049	0.000101
H150	H	-0.744111	0.215951	0.500101
H151	H	-1.203181	0.011896	0.639378
H152	H	-0.703181	0.511896	1.139378
H153	H	-1.203196	0.011899	0.796395
H154	H	-0.703196	0.511899	1.296395
C155	C	-0.957220	0.212858	0.373165
C156	C	-0.457220	0.712858	0.873165
H157	H	-0.919788	0.243427	0.334996
H158	H	-0.419788	0.743427	0.834996
H159	H	-0.990297	0.244436	0.406930
H160	H	-0.490297	0.744436	0.906930
H161	H	-0.918905	0.185535	0.406923
H162	H	-0.418905	0.685535	0.906923
C163	C	-1.271126	-0.132090	0.000116
C164	C	-0.771126	0.367910	0.500116
H165	H	-1.260119	-0.078144	0.000126
H166	H	-0.760119	0.421856	0.500126
H167	H	-1.305409	-0.148679	-0.047829
H168	H	-0.805409	0.351321	0.452171
H169	H	-1.305393	-0.148697	0.048071
H170	H	-0.805393	0.351303	0.548071
