data_functionalizedCrystal
_audit_creation_method	'MofGen! by Chris Wilmer'
_symmetry_space_group_name_H-M	'P1'
_symmetry_Int_Tables_number	1
_symmetry_cell_setting	triclinic
loop_
_symmetry_equiv_pos_as_xyz
  x,y,z
_cell_length_a	13.033409
_cell_length_b	13.897448
_cell_length_c	13.897441
_cell_angle_alpha	89.969401
_cell_angle_beta	97.170691
_cell_angle_gamma	82.848469
loop_
_atom_site_label
_atom_site_type_symbol
_atom_site_fract_x
_atom_site_fract_y
_atom_site_fract_z
Zn1	Zn	1.597502	-0.571054	-0.357736
Zn2	Zn	1.597387	-0.732362	-0.196451
Zn3	Zn	1.422758	-0.550634	-0.216980
Zn4	Zn	1.422738	-0.711844	-0.378218
O5	O	1.510096	-0.641474	-0.287346
O6	O	1.743708	-0.609585	-0.319178
O7	O	1.574182	-0.708297	-0.064197
O8	O	1.445995	-0.418368	-0.235671
O9	O	1.743624	-0.728098	-0.200682
O10	O	1.574378	-0.433370	-0.339084
O11	O	1.445883	-0.574782	-0.079280
O12	O	1.276534	-0.554885	-0.255532
O13	O	1.445961	-0.693127	-0.510478
O14	O	1.276520	-0.673326	-0.373993
O15	O	1.574359	-0.589689	-0.495430
O16	O	1.574163	-0.864616	-0.220543
O17	O	1.445850	-0.849541	-0.354086
C18	C	1.238613	-0.609664	-0.319213
C19	C	1.122472	-0.596079	-0.332869
C20	C	1.510020	-0.892079	-0.287327
C21	C	1.510083	-0.999300	-0.287340
C22	C	0.950608	-0.634529	-0.294352
C23	C	1.070647	-0.648574	-0.280233
C24	C	1.510193	-1.195608	-0.287388
C25	C	1.510129	-1.086368	-0.287365
C26	C	1.782639	-0.673408	-0.255356
C27	C	1.898781	-0.687017	-0.241723
C28	C	1.510170	-0.641397	-0.538931
C29	C	1.510202	-0.641364	-0.646141
C30	C	1.510201	-0.389893	-0.287383
C31	C	1.510246	-0.282684	-0.287399
C32	C	1.510230	-0.641302	-0.842433
C33	C	1.510211	-0.641339	-0.733203
C34	C	1.510083	-0.641487	-0.036734
C35	C	1.510253	-0.641272	0.070500
H36	H	0.906112	-0.579199	-0.349865
H37	H	0.943278	-0.742355	-0.186219
H38	H	1.115140	-0.703916	-0.224725
Cl39	Cl	1.053788	-0.510643	-0.418582
