data_functionalizedCrystal
_audit_creation_method	'MofGen! by Chris Wilmer'
_symmetry_space_group_name_H-M	'P1'
_symmetry_Int_Tables_number	1
_symmetry_cell_setting	triclinic
loop_
_symmetry_equiv_pos_as_xyz
  x,y,z
_cell_length_a	13.339070
_cell_length_b	13.339070
_cell_length_c	11.804365
_cell_angle_alpha	105.112168
_cell_angle_beta	74.875130
_cell_angle_gamma	115.629294
loop_
_atom_site_label
_atom_site_type_symbol
_atom_site_fract_x
_atom_site_fract_y
_atom_site_fract_z
O1	O	-1.512774	-0.534576	0.099059
O2	O	-1.197964	-0.462317	0.099053
O3	O	-1.319238	-0.341042	0.099052
O4	O	-1.391499	-0.655850	0.099060
O5	O	-1.287299	-0.372924	-0.099004
O6	O	-1.166024	-0.494199	-0.099002
O7	O	-1.480834	-0.566458	-0.098997
Cu8	Cu	-1.320513	-0.533239	-0.117083
Cu9	Cu	-1.358285	-0.495535	0.117140
O10	O	-1.359560	-0.687732	-0.098995
C11	C	-1.140878	-0.466052	0.000025
C12	C	-1.018364	-0.429669	0.000023
C13	C	-1.291062	-0.315868	0.000026
C14	C	-1.254680	-0.193353	0.000030
C15	C	-1.387736	-0.712906	0.000034
C16	C	-1.424120	-0.835420	0.000037
C17	C	-1.537920	-0.562722	0.000034
C18	C	-1.660436	-0.599104	0.000044
C19	C	-0.732981	-0.712563	0.000049
C20	C	-0.848090	-0.746750	0.000055
C21	C	-0.890664	-0.667483	0.000046
C22	C	-0.818118	-0.554023	0.000033
C23	C	-0.702998	-0.519831	0.000037
C24	C	-0.860682	-0.474750	0.000034
C25	C	-0.788135	-0.361290	0.000021
C26	C	-0.673027	-0.327105	0.000023
C27	C	-0.630453	-0.406372	0.000032
C28	C	-0.975801	-0.508942	0.000030
C29	C	-0.945819	-0.316210	0.000018
C30	C	-0.830709	-0.282023	0.000012
N31	N	-1.293954	-0.559760	-0.281824
C32	C	-1.537579	0.092035	0.000034
C33	C	-1.571765	-0.023075	0.000023
C34	C	-1.492497	-0.065650	0.000025
C35	C	-1.379036	0.006896	0.000037
C36	C	-1.344846	0.122016	0.000039
C37	C	-1.299763	-0.035669	0.000030
C38	C	-1.186303	0.036878	0.000042
C39	C	-1.152118	0.151986	0.000044
C40	C	-1.231386	0.194561	0.000042
C41	C	-1.333954	-0.150789	0.000029
C42	C	-1.141220	-0.120808	0.000033
C43	C	-1.107035	-0.005698	0.000044
C44	C	-1.448622	-0.405301	-0.655774
C45	C	-1.468712	-0.385233	-0.531113
C46	C	-1.425024	-0.428863	-0.468784
C47	C	-1.361243	-0.492564	-0.531130
C48	C	-1.341160	-0.512642	-0.655803
C49	C	-1.317561	-0.536204	-0.468814
C50	C	-1.253781	-0.599906	-0.531159
C51	C	-1.233699	-0.619979	-0.655820
C52	C	-1.277387	-0.576349	-0.718149
C53	C	-1.337645	-0.516126	-0.344140
C54	C	-1.230182	-0.623468	-0.344169
C55	C	-1.210092	-0.643536	-0.468830
N56	N	-1.384850	-0.469008	0.281880
H57	H	-0.984393	-0.695324	0.000054
C58	C	-1.512294	-0.341662	-0.290193
C59	C	-1.447093	-0.406794	-0.331754
H60	H	-1.525910	-0.328028	-0.205593
H61	H	-1.582159	-0.380980	-0.318370
H62	H	-1.473020	-0.271797	-0.318417
H63	H	-1.486372	-0.476662	-0.303538
H64	H	-1.377217	-0.367476	-0.303565
H65	H	-0.907152	-0.839127	0.000075
H66	H	-1.034858	-0.601322	0.000036
C67	C	-0.939277	-0.178838	-0.101802
C68	C	-0.992601	-0.229066	0.000008
H69	H	-0.968161	-0.125039	-0.101799
H70	H	-0.953166	-0.235151	-0.170855
H71	H	-0.860339	-0.142242	-0.101787
H72	H	-1.071538	-0.265669	-0.000012
H73	H	-0.978721	-0.172744	0.069079
C74	C	-0.973209	0.157543	0.101860
C75	C	-0.982320	0.074055	0.000048
H76	H	-0.896216	0.206782	0.101857
H77	H	-1.001681	0.123125	0.170912
H78	H	-1.015538	0.199356	0.101848
H79	H	-0.939998	0.032237	0.000065
H80	H	-0.953834	0.108476	-0.069022
H81	H	-1.076672	-0.155472	0.000029
H82	H	-1.194609	-0.658998	-0.293422
C83	C	-1.572906	-0.281145	-0.543616
C84	C	-1.538807	-0.315207	-0.462587
H85	H	-1.616175	-0.237905	-0.501307
H86	H	-1.617406	-0.345793	-0.592226
H87	H	-1.508259	-0.236619	-0.592255
H88	H	-1.603455	-0.359741	-0.413953
H89	H	-1.494305	-0.250549	-0.413956
C90	C	-1.155201	-0.698419	-0.846938
C91	C	-1.163600	-0.690008	-0.724354
H92	H	-1.111930	-0.741657	-0.889244
H93	H	-1.119419	-0.625073	-0.867368
H94	H	-1.228563	-0.734249	-0.867339
H95	H	-1.090238	-0.654169	-0.703952
H96	H	-1.199380	-0.763367	-0.703916
H97	H	-1.261027	-0.592684	-0.819658
C98	C	-1.031863	-0.660725	-0.507272
C99	C	-1.139988	-0.713557	-0.537373
H100	H	-0.988582	-0.703950	-0.549595
H101	H	-1.037575	-0.655029	-0.424118
H102	H	-0.996096	-0.587371	-0.527708
H103	H	-1.175758	-0.786908	-0.516929
H104	H	-1.134280	-0.719266	-0.620545
C105	C	-1.707741	0.118326	0.101837
C106	C	-1.624702	0.138834	0.000029
H107	H	-1.761533	0.147213	0.101827
H108	H	-1.673682	0.154467	0.170892
H109	H	-1.744337	0.039384	0.101826
H110	H	-1.588099	0.217777	0.000045
H111	H	-1.658764	0.102696	-0.069043
H112	H	-0.698307	-0.777089	0.000066
H113	H	-0.536722	-0.378543	0.000027
H114	H	-1.484195	-0.369790	-0.706530
H115	H	-0.613964	-0.234716	0.000026
H116	H	-0.771627	-0.189640	0.000011
H117	H	-1.426334	-0.209846	0.000019
H118	H	-1.520338	-0.159379	0.000017
H119	H	-1.664144	-0.082135	0.000012
H120	H	-1.389575	-0.464261	-0.293389
H121	H	-1.203558	0.288293	0.000055
H122	H	-1.059730	0.211050	0.000044
