data_functionalizedCrystal
_audit_creation_method	'MofGen! by Chris Wilmer'
_symmetry_space_group_name_H-M	'P1'
_symmetry_Int_Tables_number	1
_symmetry_cell_setting	triclinic
loop_
_symmetry_equiv_pos_as_xyz
  x,y,z
_cell_length_a	10.540539
_cell_length_b	27.732048
_cell_length_c	9.616153
_cell_angle_alpha	89.992780
_cell_angle_beta	89.995174
_cell_angle_gamma	83.584073
loop_
_atom_site_label
_atom_site_type_symbol
_atom_site_fract_x
_atom_site_fract_y
_atom_site_fract_z
O1	O	1.682934	0.068112	-0.115597
O2	O	1.313243	0.074530	-0.115616
O3	O	1.509570	0.000996	-0.115579
O4	O	1.486607	0.141645	-0.115634
O5	O	1.509544	0.000998	0.115712
O6	O	1.313216	0.074531	0.115676
O7	O	1.682908	0.068113	0.115694
Zn8	Zn	1.498058	0.071323	0.152407
Zn9	Zn	1.498093	0.071320	-0.152329
O10	O	1.486580	0.141647	0.115658
C11	C	1.265947	0.074049	0.000028
C12	C	1.125062	0.072609	0.000022
C13	C	0.944031	0.017434	0.000583
C14	C	1.090586	0.018894	0.000047
C15	C	1.062282	0.098458	-0.132062
C16	C	0.915817	0.096625	-0.132157
C17	C	0.915251	0.097720	0.130864
C18	C	1.062211	0.098214	0.132595
C19	C	1.509075	-0.017013	0.000070
C20	C	1.507623	-0.070677	0.000081
C21	C	1.614502	-0.408819	0.000015
C22	C	1.609117	-0.610513	-0.000004
O23	O	1.706850	-0.641153	-0.000060
N24	N	1.492703	-0.630369	-0.000009
C25	C	1.377627	-0.599799	-0.000018
O26	O	1.278486	-0.621317	-0.000036
C27	C	1.383013	-0.398107	-0.000008
C28	C	1.499435	-0.378253	0.000011
C29	C	1.730915	-0.388965	0.000033
C30	C	1.732260	-0.338544	0.000045
C31	C	1.617193	-0.307978	0.000040
C32	C	1.500780	-0.327832	0.000023
C33	C	1.267939	-0.367538	-0.000027
C34	C	1.269296	-0.317112	-0.000028
C35	C	1.385718	-0.297258	-0.000009
C36	C	1.387058	-0.246846	0.000031
N37	N	1.503472	-0.226989	0.000036
C38	C	1.618540	-0.257555	0.000040
C39	C	1.374807	-0.705691	-0.000020
C40	C	1.373460	-0.756114	-0.000020
C41	C	1.604950	-0.766824	-0.000009
C42	C	1.606296	-0.716400	0.000001
C43	C	1.491221	-0.685834	-0.000015
C44	C	1.621356	-0.151668	0.000068
C45	C	1.622691	-0.101243	0.000086
C46	C	1.391201	-0.090538	0.000068
C47	C	1.389865	-0.140959	0.000057
C48	C	1.504953	-0.171523	0.000052
O49	O	1.289377	-0.216177	0.000071
O50	O	1.717666	-0.236029	0.000028
C51	C	1.613157	-0.459239	0.000003
C52	C	1.496745	-0.479094	-0.000014
C53	C	1.381678	-0.448528	-0.000019
C54	C	1.495398	-0.529517	-0.000014
C55	C	1.610465	-0.560083	-0.000009
C56	C	1.726879	-0.540226	-0.000005
C57	C	1.728224	-0.489806	0.000008
C58	C	1.265264	-0.468384	-0.000023
C59	C	1.263928	-0.518805	-0.000034
C60	C	1.378995	-0.549371	-0.000030
C61	C	1.730203	0.068594	0.000048
C62	C	1.871089	0.070034	0.000044
C63	C	1.487075	0.159656	0.000005
C64	C	1.488527	0.213320	-0.000015
N65	N	1.498043	0.071324	0.360382
N66	N	1.498118	0.071316	-0.360303
C67	C	1.392711	0.110527	0.580733
C68	C	1.392932	0.110674	0.419565
C69	C	1.630268	0.082797	0.418833
C70	C	1.629691	0.083074	0.580051
C71	C	1.472477	0.020519	0.580311
C72	C	1.469416	0.020848	0.419084
H73	H	1.134072	-0.001446	0.094731
H74	H	1.823027	-0.473646	0.000022
H75	H	1.378214	0.009599	0.621048
N76	N	0.909385	-0.009167	0.119486
N77	N	0.830521	0.010327	0.205215
H78	H	0.806075	-0.008454	0.289219
N79	N	1.114564	0.074526	0.255200
N80	N	1.171204	0.097714	0.342608
H81	H	1.208170	0.080982	0.429202
H82	H	1.652437	0.120134	0.617626
N83	N	1.151747	-0.285889	-0.000073
N84	N	1.074122	-0.287931	-0.097586
H85	H	0.991104	-0.265880	-0.097620
N86	N	1.851184	-0.318269	0.000075
N87	N	1.928522	-0.327496	0.097571
H88	H	2.012520	-0.313180	0.097590
N89	N	1.725228	-0.696130	0.000026
N90	N	1.827952	-0.723433	0.000041
H91	H	1.911954	-0.709120	0.000059
H92	H	0.914752	-0.003698	-0.093599
H93	H	1.820571	-0.565122	0.000005
N94	N	1.731038	0.048662	0.628958
N95	N	1.817383	0.062395	0.703328
H96	H	1.888980	0.038098	0.737852
N97	N	1.347399	0.009944	0.371162
N98	N	1.281700	0.039212	0.294057
H99	H	1.195525	0.031512	0.260203
H100	H	1.409195	0.148361	0.380972
N101	N	1.559563	-0.017523	0.368604
N102	N	1.551149	-0.060328	0.404931
H103	H	1.614829	-0.087427	0.369289
H104	H	1.133231	-0.001590	-0.094785
N105	N	1.730976	0.047952	0.370764
N106	N	1.798294	0.022559	0.456189
H107	H	1.869419	-0.002051	0.422241
H108	H	1.549356	-0.008666	0.618442
N109	N	1.270950	-0.161245	0.000090
N110	N	1.193601	-0.152037	0.097594
H111	H	1.109617	-0.166362	0.097614
N112	N	0.853546	0.145088	-0.139694
N113	N	0.918302	0.180156	-0.144877
H114	H	0.874330	0.214383	-0.150206
N115	N	1.088153	0.147947	-0.138248
N116	N	1.051909	0.176515	-0.042014
H117	H	1.070181	0.211466	-0.046379
N118	N	1.116742	0.075940	-0.255353
N119	N	1.201772	0.040860	-0.246286
H120	H	1.240248	0.024958	-0.333357
N121	N	0.876624	0.075922	0.256481
N122	N	0.804533	0.100199	0.340068
H123	H	0.777254	0.084801	0.428781
H124	H	1.084736	0.137377	0.140555
H125	H	1.698643	-0.791720	-0.000005
H126	H	1.824622	-0.413847	0.000031
H127	H	1.717499	-0.085081	0.000105
N128	N	0.853870	0.146388	0.131966
N129	N	0.734795	0.154025	0.136261
H130	H	0.691437	0.188395	0.137030
N131	N	1.738925	-0.182877	0.000059
N132	N	1.842847	-0.165136	0.000075
H133	H	1.925882	-0.187176	0.000076
H134	H	1.171560	-0.443502	-0.000030
H135	H	1.653575	0.119438	0.378430
H136	H	0.888448	0.077519	-0.230876
N137	N	1.254549	-0.776399	-0.000009
N138	N	1.227955	-0.803344	0.097484
H139	H	1.143971	-0.817670	0.097487
N140	N	1.257240	-0.674479	-0.000036
N141	N	1.153317	-0.692221	-0.000037
H142	H	1.070283	-0.670180	-0.000043
H143	H	1.297516	-0.065642	0.000069
H144	H	1.294616	0.103771	0.380048
N145	N	1.149003	-0.387801	-0.000049
N146	N	1.046285	-0.360495	-0.000068
H147	H	0.962279	-0.374805	-0.000089
H148	H	1.169116	-0.534965	-0.000037
N149	N	1.268986	0.102013	0.629469
N150	N	1.203865	0.133689	0.699562
H151	H	1.116483	0.127676	0.734001
H152	H	1.408751	0.148000	0.621218
