data_functionalizedCrystal
_audit_creation_method	'MofGen! by Chris Wilmer'
_symmetry_space_group_name_H-M	'P1'
_symmetry_Int_Tables_number	1
_symmetry_cell_setting	triclinic
loop_
_symmetry_equiv_pos_as_xyz
  x,y,z
_cell_length_a	19.121063
_cell_length_b	13.897449
_cell_length_c	19.121595
_cell_angle_alpha	87.542018
_cell_angle_beta	90.075983
_cell_angle_gamma	92.469882
loop_
_atom_site_label
_atom_site_type_symbol
_atom_site_fract_x
_atom_site_fract_y
_atom_site_fract_z
Zn1	Zn	-0.262198	1.483152	-0.408323
Zn2	Zn	-0.384438	1.469293	-0.296079
Zn3	Zn	-0.267220	1.314692	-0.291096
Zn4	Zn	-0.379404	1.315218	-0.413274
O5	O	-0.323315	1.395589	-0.352193
O6	O	-0.278419	1.616296	-0.393448
O7	O	-0.373098	1.442765	-0.197312
O8	O	-0.168446	1.342619	-0.302490
O9	O	-0.368229	1.606114	-0.310982
O10	O	-0.164757	1.466386	-0.388616
O11	O	-0.286977	1.329180	-0.193651
O12	O	-0.282096	1.179780	-0.307290
O13	O	-0.359648	1.343515	-0.510723
O14	O	-0.364517	1.180166	-0.397053
O15	O	-0.273537	1.466896	-0.507086
O16	O	-0.481878	1.443275	-0.315782
O17	O	-0.478179	1.330076	-0.401884
C18	C	-0.323305	1.144974	-0.352168
C19	C	-0.323317	1.037759	-0.352175
C20	C	-0.323319	0.950690	-0.352187
C21	C	-0.323323	0.841459	-0.352208
C22	C	-0.505466	1.385256	-0.359927
C23	C	-0.583390	1.380925	-0.363258
C24	C	-0.621900	1.437877	-0.320032
C25	C	-0.695118	1.433809	-0.323170
C26	C	-0.729824	1.372785	-0.369531
C27	C	-0.691309	1.315831	-0.412762
C28	C	-0.618093	1.319904	-0.409627
C29	C	-0.950795	1.357541	-0.381239
C30	C	-1.024017	1.353470	-0.384369
C31	C	-1.027820	1.471450	-0.294778
C32	C	-0.954602	1.475514	-0.291644
C33	C	-0.916094	1.418564	-0.334878
C34	C	-0.804664	1.368624	-0.372738
C35	C	-0.841255	1.422730	-0.331674
C36	C	-0.140452	1.405990	-0.344445
C37	C	-0.062527	1.410422	-0.341143
C38	C	-0.315471	1.406810	-0.535054
C39	C	-0.312128	1.411592	-0.612978
C40	C	-0.323325	1.647183	-0.352219
C41	C	-0.323330	1.754397	-0.352229
C42	C	-0.355387	1.349602	-0.651481
C43	C	-0.352247	1.354103	-0.724699
C44	C	-0.305842	1.420589	-0.759412
C45	C	-0.262581	1.482586	-0.720904
C46	C	-0.265726	1.478089	-0.647687
C47	C	-0.294107	1.437385	-0.980385
C48	C	-0.290964	1.441876	-1.053606
C49	C	-0.380631	1.313393	-1.057397
C50	C	-0.383768	1.308898	-0.984179
C51	C	-0.340510	1.370898	-0.945676
C52	C	-0.302629	1.425190	-0.834253
C53	C	-0.343727	1.366302	-0.870837
C54	C	-0.331078	1.384470	-0.170042
C55	C	-0.334223	1.379886	-0.092110
H56	H	-0.593647	1.487565	-0.282277
H57	H	-0.726469	1.480185	-0.287970
H58	H	-0.926346	1.525205	-0.253894
H59	H	-1.059182	1.517817	-0.259581
H60	H	-0.586738	1.273529	-0.444827
H61	H	-0.812994	1.472421	-0.293930
H62	H	-1.052272	1.303788	-0.422134
H63	H	-0.919447	1.311168	-0.416441
H64	H	-0.253170	1.496014	-1.081867
H65	H	-0.387474	1.303625	-0.756046
H66	H	-0.719573	1.266147	-0.450513
H67	H	-0.832931	1.318935	-0.410483
H68	H	-0.224801	1.536725	-0.749173
H69	H	-0.258883	1.487870	-0.949045
H70	H	-0.264846	1.479322	-0.862525
H71	H	-0.393167	1.295450	-0.623223
H72	H	-0.230500	1.528567	-0.616338
H73	H	-0.421567	1.254773	-0.955921
H74	H	-0.415849	1.262917	-1.088753
H75	H	-0.381512	1.312172	-0.842571
