data_functionalizedCrystal
_audit_creation_method	'MofGen! by Chris Wilmer'
_symmetry_space_group_name_H-M	'P1'
_symmetry_Int_Tables_number	1
_symmetry_cell_setting	triclinic
loop_
_symmetry_equiv_pos_as_xyz
  x,y,z
_cell_length_a	19.288864
_cell_length_b	10.065875
_cell_length_c	19.288865
_cell_angle_alpha	98.753461
_cell_angle_beta	96.863755
_cell_angle_gamma	98.729957
loop_
_atom_site_label
_atom_site_type_symbol
_atom_site_fract_x
_atom_site_fract_y
_atom_site_fract_z
O1	O	0.931584	0.113949	-0.076365
O2	O	0.729315	0.113858	-0.088062
O3	O	0.836292	0.113879	0.018915
O4	O	0.824607	0.113928	-0.183341
O5	O	0.815893	-0.113113	-0.001566
O6	O	0.708916	-0.113134	-0.108542
O7	O	0.911185	-0.113043	-0.096845
Zn8	Zn	0.806812	-0.149129	-0.105946
Zn9	Zn	0.833688	0.149944	-0.078962
O10	O	0.804208	-0.113064	-0.203822
C11	C	0.693238	0.000350	-0.097927
C12	C	0.616131	0.000314	-0.096801
N13	N	0.788474	-0.353238	-0.124361
C14	C	0.571438	0.000350	-0.159566
C15	C	0.498992	0.000365	-0.158504
C16	C	0.471245	0.000371	-0.094671
C17	C	0.515948	0.000327	-0.031899
C18	C	0.588390	0.000298	-0.032964
C19	C	0.370133	0.079930	-0.037314
C20	C	0.297692	0.079967	-0.036251
C21	C	0.247807	0.000453	-0.091384
C22	C	0.270372	-0.079081	-0.147591
C23	C	0.342815	-0.079110	-0.148656
C24	C	0.392694	0.000401	-0.093509
C25	C	0.124559	0.000503	-0.153002
C26	C	0.052112	0.000510	-0.151938
C27	C	0.069070	0.000485	-0.025330
C28	C	0.141515	0.000465	-0.026397
C29	C	0.169255	0.000481	-0.090234
C30	C	0.827304	-0.421009	-0.085365
C31	C	0.813196	-0.578179	-0.099543
C32	C	0.947262	0.000468	-0.086980
C33	C	1.024370	0.000513	-0.088105
N34	N	0.852032	0.354053	-0.060541
C35	C	0.825716	0.000379	0.034551
C36	C	0.824586	0.000366	0.111653
C37	C	0.814785	0.000439	-0.219458
C38	C	0.815915	0.000461	-0.296559
C39	C	0.887355	0.000388	0.156351
C40	C	0.886297	0.000409	0.228800
C41	C	0.822462	0.000381	0.256545
C42	C	0.759685	0.000367	0.211838
C43	C	0.760746	0.000360	0.139392
C44	C	0.765135	-0.079152	0.357657
C45	C	0.764075	-0.079153	0.430101
C46	C	0.819185	0.000410	0.479993
C47	C	0.875365	0.079957	0.457433
C48	C	0.876427	0.079950	0.384986
C49	C	0.821304	0.000390	0.335100
C50	C	0.880811	0.000457	0.603250
C51	C	0.879751	0.000486	0.675701
C52	C	0.753135	0.000431	0.658735
C53	C	0.754199	0.000415	0.586288
C54	C	0.818038	0.000421	0.558549
H55	H	0.594020	0.000366	-0.211547
H56	H	0.769502	-0.636509	-0.143426
N57	N	0.954003	0.000414	0.277014
H58	H	0.948813	-0.083733	0.299861
H59	H	0.963920	0.084616	0.314997
N60	N	0.636595	0.000270	0.034740
H61	H	0.674609	0.084407	0.044713
H62	H	0.659401	-0.083942	0.029483
H63	H	0.229756	-0.143831	-0.192486
N64	N	0.705692	-0.165000	0.303856
H65	H	0.725537	-0.232997	0.271092
H66	H	0.681784	-0.104029	0.275335
N67	N	0.909906	-0.568688	-0.002410
H68	H	0.957004	-0.593439	-0.012364
H69	H	0.899645	-0.593534	0.044578
H70	H	0.744783	-0.411573	-0.168242
N71	N	0.450776	0.000425	-0.226199
H72	H	0.412758	-0.083705	-0.236176
H73	H	0.479395	0.000482	-0.266757
N74	N	0.039152	0.000475	0.043519
H75	H	-0.013523	0.000494	0.034670
H76	H	0.063096	0.084612	0.078569
N77	N	0.885178	-0.343774	-0.027232
H78	H	0.874974	-0.368604	0.019777
H79	H	0.887033	-0.242469	-0.025397
N80	N	0.423933	0.165704	0.022155
H81	H	0.473249	0.153616	0.012954
H82	H	0.415133	0.135969	0.068505
N83	N	0.956207	0.000398	0.126433
H84	H	0.995812	0.000415	0.165747
H85	H	0.966971	0.084545	0.104329
H86	H	0.922169	0.144722	0.366621
H87	H	0.920241	0.144746	0.498055
H88	H	0.707710	0.000347	0.234433
N89	N	0.949662	0.000470	0.573325
H90	H	0.989269	0.000498	0.612639
H91	H	0.960422	0.084612	0.551217
H92	H	0.718328	-0.143917	0.448464
N93	N	0.154486	0.000514	-0.221851
H94	H	0.115176	0.000527	-0.261453
H95	H	0.176597	-0.083643	-0.232641
H96	H	0.930868	0.000511	0.712095
H97	H	0.701161	0.000415	0.681325
H98	H	0.703084	0.000390	0.549892
N99	N	0.693038	0.000305	0.091175
H100	H	0.703396	0.000294	0.041071
H101	H	0.672765	0.084441	0.107712
N102	N	0.367160	-0.164894	-0.209267
H103	H	0.350686	-0.135199	-0.255277
H104	H	0.346477	-0.264096	-0.211499
N105	N	0.003893	0.000440	-0.219647
H106	H	0.032460	0.000416	-0.260249
H107	H	-0.018983	0.084566	-0.214405
H108	H	0.177906	0.000442	0.024714
H109	H	0.493353	0.000350	0.020076
N110	N	0.273356	0.165748	0.024367
H111	H	0.315948	0.216101	0.059138
H112	H	0.241790	0.104746	0.049083
