data_functionalizedCrystal
_audit_creation_method	'MofGen! by Chris Wilmer'
_symmetry_space_group_name_H-M	'P1'
_symmetry_Int_Tables_number	1
_symmetry_cell_setting	triclinic
loop_
_symmetry_equiv_pos_as_xyz
  x,y,z
_cell_length_a	25.639242
_cell_length_b	25.639240
_cell_length_c	25.639233
_cell_angle_alpha	89.974071
_cell_angle_beta	89.978417
_cell_angle_gamma	90.027658
loop_
_atom_site_label
_atom_site_type_symbol
_atom_site_fract_x
_atom_site_fract_y
_atom_site_fract_z
Zn1	Zn	0.799247	-0.208286	-0.295708
Zn2	Zn	1.132580	0.125048	0.037625
Zn3	Zn	1.465913	0.458381	0.370959
Zn4	Zn	0.799179	-0.295704	-0.208261
Zn5	Zn	1.132512	0.037629	0.125072
Zn6	Zn	1.465846	0.370962	0.458405
Zn7	Zn	0.711823	-0.208277	-0.208273
Zn8	Zn	1.045156	0.125056	0.125060
Zn9	Zn	1.378490	0.458390	0.458394
Zn10	Zn	0.711777	-0.295684	-0.295652
Zn11	Zn	1.045110	0.037649	0.037681
Zn12	Zn	1.378444	0.370983	0.371014
O13	O	0.755506	-0.251988	-0.251974
O14	O	1.088840	0.081346	0.081360
O15	O	1.422173	0.414679	0.414693
O16	O	0.872403	-0.219894	-0.284127
O17	O	1.205736	0.113439	0.049207
O18	O	1.539069	0.446773	0.382540
O19	O	0.787582	-0.284112	-0.135098
O20	O	1.120915	0.049222	0.198236
O21	O	1.454249	0.382555	0.531569
O22	O	0.723467	-0.135113	-0.219900
O23	O	1.056801	0.198220	0.113434
O24	O	1.390134	0.531554	0.446767
O25	O	0.872353	-0.284120	-0.219880
O26	O	1.205687	0.049213	0.113453
O27	O	1.539020	0.382547	0.446787
O28	O	0.787697	-0.135119	-0.284138
O29	O	1.121030	0.198214	0.049196
O30	O	1.454364	0.531548	0.382529
O31	O	0.723402	-0.219879	-0.135106
O32	O	1.056735	0.113454	0.198227
O33	O	1.390068	0.446787	0.531560
O34	O	0.638652	-0.219860	-0.219846
O35	O	0.971985	0.113474	0.113488
O36	O	1.305318	0.446807	0.446821
O37	O	0.723389	-0.284085	-0.368825
O38	O	1.056722	0.049248	-0.035491
O39	O	1.390056	0.382581	0.297842
O40	O	0.638618	-0.284077	-0.284043
O41	O	0.971951	0.049256	0.049291
O42	O	1.305285	0.382590	0.382624
O43	O	0.787653	-0.219874	-0.368866
O44	O	1.120986	0.113459	-0.035532
O45	O	1.454319	0.446792	0.297801
O46	O	0.787538	-0.368867	-0.219826
O47	O	1.120871	-0.035533	0.113508
O48	O	1.454204	0.297800	0.446841
O49	O	0.723324	-0.368852	-0.284031
O50	O	1.056657	-0.035519	0.049302
O51	O	1.389990	0.297815	0.382635
C52	C	0.619664	-0.251966	-0.251940
C53	C	0.952997	0.081368	0.081394
C54	C	1.286331	0.414701	0.414727
C55	C	0.561550	-0.251969	-0.251937
C56	C	0.894883	0.081365	0.081396
C57	C	1.228216	0.414698	0.414729
C58	C	0.755433	-0.387830	-0.251933
C59	C	1.088766	-0.054497	0.081401
C60	C	1.422099	0.278836	0.414734
C61	C	0.755449	-0.445944	-0.251933
C62	C	1.088782	-0.112611	0.081401
C63	C	1.422115	0.220722	0.414734
C64	C	0.310365	-0.218494	-0.218604
C65	C	0.643698	0.114840	0.114729
C66	C	0.977032	0.448173	0.448063
C67	C	0.364969	-0.218489	-0.218597
C68	C	0.698303	0.114844	0.114736
C69	C	1.031636	0.448178	0.448069
O70	O	0.393214	-0.189996	-0.190227
O71	O	0.726547	0.143337	0.143107
O72	O	1.059880	0.476670	0.476440
N73	N	0.392276	-0.251975	-0.251964
N74	N	0.725609	0.081358	0.081370
N75	N	1.058943	0.414691	0.414703
C76	C	0.364975	-0.285465	-0.285343
C77	C	0.698309	0.047869	0.047991
C78	C	1.031642	0.381202	0.381324
O79	O	0.393216	-0.313947	-0.313723
O80	O	0.726549	0.019387	0.019610
O81	O	1.059882	0.352720	0.352944
C82	C	0.310372	-0.285467	-0.285352
C83	C	0.643705	0.047867	0.047982
C84	C	0.977039	0.381200	0.381315
C85	C	0.283068	-0.251982	-0.251979
C86	C	0.616402	0.081352	0.081354
C87	C	0.949735	0.414685	0.414687
C88	C	0.283061	-0.185011	-0.185235
C89	C	0.616395	0.148322	0.148099
C90	C	0.949728	0.481655	0.481432
C91	C	0.228461	-0.185017	-0.185241
C92	C	0.561794	0.148316	0.148092
C93	C	0.895128	0.481650	0.481426
C94	C	0.201164	-0.218505	-0.218616
C95	C	0.534497	0.114828	0.114717
C96	C	0.867831	0.448162	0.448050
C97	C	0.228468	-0.251987	-0.251985
C98	C	0.561801	0.081346	0.081348
C99	C	0.895134	0.414679	0.414681
C100	C	0.283072	-0.318953	-0.318733
C101	C	0.616406	0.014380	0.014601
C102	C	0.949739	0.347714	0.347934
C103	C	0.228465	-0.318952	-0.318739
C104	C	0.561799	0.014382	0.014594
C105	C	0.895132	0.347715	0.347928
C106	C	0.201162	-0.285467	-0.285367
C107	C	0.534495	0.047866	0.047967
C108	C	0.867828	0.381200	0.381300
C109	C	0.146570	-0.285481	-0.285367
C110	C	0.479904	0.047852	0.047967
C111	C	0.813237	0.381185	0.381300
N112	N	0.119264	-0.251995	-0.252000
N113	N	0.452597	0.081338	0.081333
N114	N	0.785931	0.414672	0.414666
C115	C	0.146561	-0.218507	-0.218625
C116	C	0.479894	0.114826	0.114708
C117	C	0.813227	0.448160	0.448042
C118	C	0.479646	-0.285458	-0.285322
C119	C	0.812979	0.047876	0.048011
C120	C	1.146313	0.381209	0.381345
C121	C	0.534248	-0.285459	-0.285311
C122	C	0.867582	0.047874	0.048022
C123	C	1.200915	0.381208	0.381356
C124	C	0.534239	-0.218482	-0.218566
C125	C	0.867572	0.114851	0.114767
C126	C	1.200905	0.448184	0.448100
C127	C	0.479635	-0.218484	-0.218575
C128	C	0.812969	0.114849	0.114758
C129	C	1.146302	0.448183	0.448092
C130	C	0.452339	-0.251971	-0.251956
C131	C	0.785673	0.081362	0.081378
C132	C	1.119006	0.414695	0.414711
C133	C	0.031896	-0.218522	-0.218640
C134	C	0.365229	0.114812	0.114693
C135	C	0.698562	0.448145	0.448027
C136	C	-0.022710	-0.218532	-0.218648
C137	C	0.310624	0.114802	0.114686
C138	C	0.643957	0.448135	0.448019
C139	C	-0.022695	-0.285506	-0.285394
C140	C	0.310638	0.047827	0.047939
C141	C	0.643971	0.381160	0.381273
C142	C	0.031905	-0.285498	-0.285385
C143	C	0.365239	0.047835	0.047949
C144	C	0.698572	0.381168	0.381282
C145	C	0.059199	-0.252002	-0.252006
C146	C	0.392533	0.081332	0.081327
C147	C	0.725866	0.414665	0.414661
O148	O	0.118292	-0.313958	-0.313724
O149	O	0.451625	0.019376	0.019609
O150	O	0.784958	0.352709	0.352942
O151	O	0.118314	-0.190025	-0.190254
O152	O	0.451647	0.143308	0.143079
O153	O	0.784980	0.476642	0.476412
C154	C	0.788967	-0.806272	-0.285483
C155	C	1.122301	-0.472939	0.047851
C156	C	1.455634	-0.139605	0.381184
C157	C	0.788983	-0.860876	-0.285493
C158	C	1.122316	-0.527543	0.047840
C159	C	1.455650	-0.194210	0.381173
O160	O	0.817394	-0.889083	-0.313977
O161	O	1.150727	-0.555750	0.019357
O162	O	1.484060	-0.222417	0.352690
N163	N	0.755579	-0.888227	-0.252024
N164	N	1.088912	-0.554893	0.081309
N165	N	1.422246	-0.221560	0.414643
C166	C	0.722154	-0.860970	-0.218546
C167	C	1.055487	-0.527637	0.114787
C168	C	1.388820	-0.194303	0.448121
O169	O	0.693742	-0.889247	-0.190079
O170	O	1.027075	-0.555914	0.143254
O171	O	1.360409	-0.222581	0.476588
C172	C	0.722136	-0.806367	-0.218538
C173	C	1.055469	-0.473033	0.114795
C174	C	1.388803	-0.139700	0.448128
C175	C	0.755546	-0.779019	-0.252006
C176	C	1.088879	-0.445686	0.081327
C177	C	1.422213	-0.112352	0.414661
C178	C	0.822374	-0.778925	-0.318948
C179	C	1.155708	-0.445591	0.014385
C180	C	1.489041	-0.112258	0.347719
C181	C	0.822359	-0.724324	-0.318937
C182	C	1.155693	-0.390991	0.014397
C183	C	1.489026	-0.057657	0.347730
C184	C	0.788938	-0.697071	-0.285460
C185	C	1.122271	-0.363738	0.047873
C186	C	1.455604	-0.030404	0.381207
C187	C	0.755531	-0.724419	-0.251995
C188	C	1.088864	-0.391085	0.081339
C189	C	1.422198	-0.057752	0.414672
C190	C	0.688708	-0.779111	-0.185063
C191	C	1.022042	-0.445777	0.148270
C192	C	1.355375	-0.112444	0.481604
C193	C	0.688693	-0.724504	-0.185059
C194	C	1.022027	-0.391170	0.148275
C195	C	1.355360	-0.057837	0.481608
C196	C	0.722103	-0.697156	-0.218526
C197	C	1.055437	-0.363823	0.114807
C198	C	1.388770	-0.030490	0.448140
C199	C	0.722095	-0.642565	-0.218506
C200	C	1.055428	-0.309232	0.114827
C201	C	1.388761	0.024102	0.448160
N202	N	0.755498	-0.615215	-0.251975
N203	N	1.088832	-0.281881	0.081358
N204	N	1.422165	0.051452	0.414691
C205	C	0.788920	-0.642468	-0.285452
C206	C	1.122253	-0.309134	0.047881
C207	C	1.455587	0.024199	0.381214
C208	C	0.722193	-0.975640	-0.218565
C209	C	1.055526	-0.642307	0.114768
C210	C	1.388859	-0.308974	0.448102
C211	C	0.722213	-1.030243	-0.218570
C212	C	1.055546	-0.696909	0.114764
C213	C	1.388879	-0.363576	0.448097
C214	C	0.789041	-1.030146	-0.285518
C215	C	1.122375	-0.696812	0.047815
C216	C	1.455708	-0.363479	0.381149
C217	C	0.789024	-0.975542	-0.285510
C218	C	1.122357	-0.642209	0.047823
C219	C	1.455690	-0.308876	0.381156
C220	C	0.755597	-0.948290	-0.252034
C221	C	1.088930	-0.614957	0.081299
C222	C	1.422263	-0.281624	0.414632
C223	C	0.788887	-0.527803	-0.285425
C224	C	1.122220	-0.194469	0.047908
C225	C	1.455553	0.138864	0.381241
C226	C	0.788870	-0.473197	-0.285409
C227	C	1.122204	-0.139864	0.047924
C228	C	1.455537	0.193469	0.381257
C229	C	0.722040	-0.473299	-0.218463
C230	C	1.055373	-0.139966	0.114870
C231	C	1.388707	0.193367	0.448203
C232	C	0.722058	-0.527900	-0.218477
C233	C	1.055391	-0.194567	0.114856
C234	C	1.388725	0.138767	0.448190
C235	C	0.755483	-0.555150	-0.251962
C236	C	1.088816	-0.221817	0.081371
C237	C	1.422150	0.111516	0.414704
O238	O	0.693697	-0.614323	-0.190039
O239	O	1.027030	-0.280990	0.143294
O240	O	1.360363	0.052343	0.476628
O241	O	0.817322	-0.614184	-0.313919
O242	O	1.150655	-0.280850	0.019414
O243	O	1.483989	0.052483	0.352747
C244	C	0.891879	-0.252010	-0.252008
C245	C	1.225213	0.081323	0.081325
C246	C	1.558546	0.414656	0.414659
C247	C	0.949993	-0.252020	-0.252023
C248	C	1.283327	0.081313	0.081311
C249	C	1.616660	0.414647	0.414644
C250	C	0.755523	-0.251978	-0.388347
C251	C	1.088857	0.081355	-0.055013
C252	C	1.422190	0.414688	0.278320
C253	C	0.755530	-0.251975	-0.446461
C254	C	1.088864	0.081359	-0.113127
C255	C	1.422197	0.414692	0.220206
C256	C	0.755595	-0.115615	-0.252026
C257	C	1.088928	0.217719	0.081307
C258	C	1.422261	0.551052	0.414640
C259	C	0.755632	-0.057501	-0.252049
C260	C	1.088966	0.275833	0.081285
C261	C	1.422299	0.609166	0.414618
C262	C	0.789035	-0.218440	-0.806851
C263	C	1.122368	0.114893	-0.473518
C264	C	1.455702	0.448226	-0.140184
C265	C	0.789041	-0.218426	-0.861455
C266	C	1.122375	0.114907	-0.528122
C267	C	1.455708	0.448241	-0.194789
O268	O	0.817486	-0.189976	-0.889715
O269	O	1.150819	0.143358	-0.556382
O270	O	1.484152	0.476691	-0.223048
N271	N	0.755588	-0.251852	-0.888743
N272	N	1.088921	0.081481	-0.555410
N273	N	1.422255	0.414815	-0.222077
C274	C	0.722122	-0.285291	-0.861424
C275	C	1.055456	0.048042	-0.528091
C276	C	1.388789	0.381376	-0.194758
O277	O	0.693668	-0.313721	-0.889649
O278	O	1.027001	0.019613	-0.556316
O279	O	1.360335	0.352946	-0.222982
C280	C	0.722114	-0.285302	-0.806821
C281	C	1.055447	0.048031	-0.473488
C282	C	1.388780	0.381364	-0.140154
C283	C	0.755573	-0.251878	-0.779536
C284	C	1.088906	0.081455	-0.446202
C285	C	1.422240	0.414789	-0.112869
C286	C	0.822491	-0.185018	-0.779566
C287	C	1.155824	0.148315	-0.446232
C288	C	1.489158	0.481648	-0.112899
C289	C	0.822485	-0.185034	-0.724965
C290	C	1.155818	0.148300	-0.391632
C291	C	1.489152	0.481633	-0.058298
C292	C	0.789023	-0.218471	-0.697650
C293	C	1.122356	0.114862	-0.364316
C294	C	1.455690	0.448196	-0.030983
C295	C	0.755567	-0.251893	-0.724935
C296	C	1.088900	0.081440	-0.391602
C297	C	1.422234	0.414773	-0.058269
C298	C	0.688646	-0.318738	-0.779503
C299	C	1.021979	0.014595	-0.446170
C300	C	1.355313	0.347928	-0.112836
C301	C	0.688640	-0.318747	-0.724896
C302	C	1.021973	0.014587	-0.391563
C303	C	1.355306	0.347920	-0.058229
C304	C	0.722099	-0.285322	-0.697611
C305	C	1.055432	0.048011	-0.364277
C306	C	1.388766	0.381345	-0.030944
C307	C	0.722099	-0.285346	-0.643019
C308	C	1.055433	0.047987	-0.309686
C309	C	1.388766	0.381321	0.023647
N310	N	0.755552	-0.251920	-0.615731
N311	N	1.088886	0.081413	-0.282398
N312	N	1.422219	0.414747	0.050935
C313	C	0.789014	-0.218482	-0.643046
C314	C	1.122348	0.114851	-0.309713
C315	C	1.455681	0.448184	0.023620
C316	C	0.722143	-0.285264	-0.976095
C317	C	1.055476	0.048070	-0.642762
C318	C	1.388809	0.381403	-0.309428
C319	C	0.722154	-0.285255	-1.030697
C320	C	1.055487	0.048078	-0.697364
C321	C	1.388820	0.381411	-0.364031
C322	C	0.789072	-0.218390	-1.030725
C323	C	1.122405	0.114944	-0.697391
C324	C	1.455739	0.448277	-0.364058
C325	C	0.789063	-0.218401	-0.976121
C326	C	1.122397	0.114932	-0.642788
C327	C	1.455730	0.448266	-0.309455
C328	C	0.755596	-0.251838	-0.948807
C329	C	1.088929	0.081496	-0.615474
C330	C	1.422263	0.414829	-0.282140
C331	C	0.789000	-0.218517	-0.528381
C332	C	1.122333	0.114816	-0.195048
C333	C	1.455666	0.448149	0.138285
C334	C	0.788992	-0.218537	-0.473776
C335	C	1.122326	0.114796	-0.140443
C336	C	1.455659	0.448130	0.192891
C337	C	0.722072	-0.285401	-0.473754
C338	C	1.055406	0.047933	-0.140420
C339	C	1.388739	0.381266	0.192913
C340	C	0.722081	-0.285383	-0.528354
C341	C	1.055415	0.047950	-0.195021
C342	C	1.388748	0.381284	0.138312
C343	C	0.755547	-0.251937	-0.555667
C344	C	1.088880	0.081396	-0.222333
C345	C	1.422214	0.414729	0.111000
O346	O	0.693668	-0.313780	-0.614725
O347	O	1.027001	0.019553	-0.281392
O348	O	1.360334	0.352886	0.051942
O349	O	0.817459	-0.190053	-0.614815
O350	O	1.150792	0.143281	-0.281482
O351	O	1.484126	0.476614	0.051852
C352	C	0.755520	-0.251959	-0.116131
C353	C	1.088853	0.081374	0.217202
C354	C	1.422186	0.414708	0.550536
C355	C	0.755614	-0.251816	-0.058017
C356	C	1.088947	0.081518	0.275316
C357	C	1.422281	0.414851	0.608649
H358	H	-0.044938	-0.191264	-0.191470
H359	H	0.288395	0.142070	0.141863
H360	H	0.621729	0.475403	0.475196
H361	H	0.206244	-0.346220	-0.345924
H362	H	0.539577	-0.012887	-0.012591
H363	H	0.872910	0.320447	0.320743
H364	H	0.457425	-0.312732	-0.312504
H365	H	0.790758	0.020602	0.020830
H366	H	1.124092	0.353935	0.354163
H367	H	0.305281	-0.157738	-0.158057
H368	H	0.638614	0.175595	0.175277
H369	H	0.971947	0.508928	0.508610
Br370	Br	0.643237	-0.364106	-0.816519
Br371	Br	0.976570	-0.030773	-0.483186
Br372	Br	1.309904	0.302560	-0.149853
Br373	Br	0.676685	-0.436303	-0.173032
Br374	Br	1.010018	-0.102969	0.160302
Br375	Br	1.343352	0.230364	0.493635
Br376	Br	0.676753	-0.330629	-1.067721
Br377	Br	1.010086	0.002704	-0.734387
Br378	Br	1.343419	0.336038	-0.401054
H379	H	0.457408	-0.191216	-0.191402
H380	H	0.790742	0.142117	0.141931
H381	H	1.124075	0.475451	0.475264
H382	H	0.694830	-0.312626	-0.451504
H383	H	1.028163	0.020707	-0.118170
H384	H	1.361497	0.354040	0.215163
H385	H	0.849730	-0.157815	-0.702754
H386	H	1.183063	0.175518	-0.369421
H387	H	1.516397	0.508852	-0.036087
H388	H	0.849740	-0.157787	-0.801800
H389	H	1.183073	0.175547	-0.468467
H390	H	1.516406	0.508880	-0.135133
Br391	Br	0.834250	-0.564777	-0.330869
Br392	Br	1.167584	-0.231444	0.002464
Br393	Br	1.500917	0.101890	0.335797
H394	H	0.556474	-0.191213	-0.191391
H395	H	0.889807	0.142120	0.141942
H396	H	1.223140	0.475453	0.475275
Br397	Br	0.834473	-0.173038	-0.939097
Br398	Br	1.167807	0.160296	-0.605764
Br399	Br	1.501140	0.493629	-0.272430
H400	H	0.556474	-0.312731	-0.312480
H401	H	0.889808	0.020602	0.020853
H402	H	1.223141	0.353935	0.354186
Br403	Br	0.834406	-0.173174	-0.436749
Br404	Br	1.167740	0.160159	-0.103416
Br405	Br	1.501073	0.493492	0.229918
Br406	Br	0.320113	-0.364400	-0.364027
Br407	Br	0.653447	-0.031067	-0.030693
Br408	Br	0.986780	0.302267	0.302640
H409	H	0.206235	-0.157750	-0.158066
H410	H	0.539568	0.175583	0.175268
H411	H	0.872902	0.508916	0.508601
Br412	Br	0.676722	-0.330650	-0.939031
Br413	Br	1.010055	0.002683	-0.605698
Br414	Br	1.343388	0.336017	-0.272365
H415	H	0.054137	-0.312768	-0.312555
H416	H	0.387470	0.020565	0.020778
H417	H	0.720804	0.353898	0.354111
H418	H	0.816249	-0.191281	-0.550613
H419	H	1.149582	0.142053	-0.217279
H420	H	1.482915	0.475386	0.116054
H421	H	-0.044930	-0.312773	-0.312565
H422	H	0.288403	0.020560	0.020768
H423	H	0.621736	0.353893	0.354101
H424	H	0.661503	-0.801368	-0.157810
H425	H	0.994836	-0.468034	0.175524
H426	H	1.328169	-0.134701	0.508857
H427	H	0.661471	-0.702318	-0.157799
H428	H	0.994805	-0.368984	0.175534
H429	H	1.328138	-0.035651	0.508868
H430	H	0.816079	-0.450933	-0.312663
H431	H	1.149412	-0.117599	0.020671
H432	H	1.482745	0.215734	0.354004
H433	H	0.661380	-0.345970	-0.702660
H434	H	0.994714	-0.012636	-0.369326
H435	H	1.328047	0.320697	-0.035993
H436	H	0.816228	-0.953279	-0.312763
H437	H	1.149562	-0.619946	0.020571
H438	H	1.482895	-0.286612	0.353904
Br439	Br	0.834485	-0.173009	-1.067806
Br440	Br	1.167818	0.160324	-0.734472
Br441	Br	1.501152	0.493657	-0.401139
Br442	Br	0.676676	-0.330749	-0.565386
Br443	Br	1.010010	0.002584	-0.232052
Br444	Br	1.343343	0.335918	0.101281
Br445	Br	0.867700	-0.687218	-0.364363
Br446	Br	1.201034	-0.353885	-0.031030
Br447	Br	1.534367	-0.020551	0.302303
H448	H	0.816254	-1.052345	-0.312778
H449	H	1.149587	-0.719012	0.020556
H450	H	1.482921	-0.385678	0.353889
H451	H	0.849590	-0.801108	-0.346212
H452	H	1.182923	-0.467775	-0.012879
H453	H	1.516257	-0.134442	0.320455
Br454	Br	0.068929	-0.173062	-0.173340
Br455	Br	0.402263	0.160271	0.159994
Br456	Br	0.735596	0.493605	0.493327
Br457	Br	0.676826	-0.938661	-0.173126
Br458	Br	1.010159	-0.605328	0.160207
Br459	Br	1.343492	-0.271994	0.493541
Br460	Br	0.676878	-1.067350	-0.173139
Br461	Br	1.010211	-0.734017	0.160195
Br462	Br	1.343544	-0.400684	0.493528
Br463	Br	0.676724	-0.565016	-0.173048
Br464	Br	1.010057	-0.231682	0.160285
Br465	Br	1.343391	0.101651	0.493618
