data_functionalizedCrystal
_audit_creation_method	'MofGen! by Chris Wilmer'
_symmetry_space_group_name_H-M	'P1'
_symmetry_Int_Tables_number	1
_symmetry_cell_setting	triclinic
loop_
_symmetry_equiv_pos_as_xyz
  x,y,z
_cell_length_a	12.827893
_cell_length_b	19.805405
_cell_length_c	19.805399
_cell_angle_alpha	89.970699
_cell_angle_beta	90.016454
_cell_angle_gamma	89.973428
loop_
_atom_site_label
_atom_site_type_symbol
_atom_site_fract_x
_atom_site_fract_y
_atom_site_fract_z
Zn1	Zn	1.597562	0.269476	0.382655
Zn2	Zn	2.097562	0.769476	0.882655
Zn3	Zn	1.597431	0.382664	0.269464
Zn4	Zn	2.097431	0.882664	0.769464
Zn5	Zn	1.422812	0.269495	0.269486
Zn6	Zn	1.922812	0.769495	0.769486
Zn7	Zn	1.422756	0.382629	0.382616
Zn8	Zn	1.922756	0.882629	0.882616
O9	O	1.510140	0.326066	0.326055
O10	O	2.010140	0.826066	0.826055
O11	O	1.743781	0.284498	0.367647
O12	O	2.243781	0.784498	0.867647
O13	O	1.574236	0.367675	0.174750
O14	O	2.074236	0.867675	0.674750
O15	O	1.446072	0.174776	0.284524
O16	O	1.946072	0.674776	0.784524
O17	O	1.743684	0.367657	0.284486
O18	O	2.243684	0.867657	0.784486
O19	O	1.574460	0.174762	0.367669
O20	O	2.074460	0.674762	0.867669
O21	O	1.445944	0.284530	0.174766
O22	O	1.945944	0.784530	0.674766
O23	O	1.276568	0.284495	0.284486
O24	O	1.776568	0.784495	0.784486
O25	O	1.445975	0.367596	0.477338
O26	O	1.945975	0.867596	0.977338
O27	O	1.276527	0.367614	0.367603
O28	O	1.776527	0.867614	0.867603
O29	O	1.574405	0.284463	0.477367
O30	O	2.074405	0.784463	0.977367
O31	O	1.574181	0.477376	0.284448
O32	O	2.074181	0.977376	0.784448
O33	O	1.445848	0.477350	0.367581
O34	O	1.945848	0.977350	0.867581
C35	C	1.238630	0.326054	0.326043
C36	C	1.738630	0.826054	0.826043
C37	C	1.122477	0.326065	0.326054
C38	C	1.622477	0.826065	0.826054
C39	C	0.950655	0.367269	0.367129
C40	C	1.450655	0.867269	0.867129
C41	C	1.070706	0.367259	0.367119
C42	C	1.570706	0.867259	0.867119
C43	C	1.510023	0.501922	0.326023
C44	C	2.010023	1.001922	0.826023
C45	C	1.510068	0.577154	0.326031
C46	C	2.010068	1.077154	0.826031
C47	C	1.510199	0.326023	0.502598
C48	C	2.010199	0.826023	1.002598
C49	C	1.510224	0.326005	0.577830
C50	C	2.010224	0.826005	1.077830
C51	C	1.782710	0.326079	0.326068
C52	C	2.282710	0.826079	0.826068
C53	C	1.898863	0.326085	0.326073
C54	C	2.398863	0.826085	0.826073
C55	C	1.510287	0.149523	0.326103
C56	C	2.010287	0.649523	0.826103
C57	C	1.510349	0.074291	0.326123
C58	C	2.010349	0.574291	0.826123
C59	C	1.576956	0.612489	0.282789
C60	C	2.076956	1.112489	0.782789
C61	C	1.577000	0.683178	0.282804
C62	C	2.077000	1.183178	0.782804
C63	C	1.510151	0.718530	0.326058
C64	C	2.010151	1.218530	0.826058
C65	C	1.443260	0.683189	0.369305
C66	C	1.943260	1.183189	0.869305
C67	C	1.443221	0.612502	0.369293
C68	C	1.943221	1.112502	0.869293
C69	C	1.443414	0.968263	0.369355
C70	C	1.943414	1.468263	0.869355
C71	C	1.443455	1.038955	0.369362
C72	C	1.943455	1.538955	0.869362
C73	C	1.577193	1.038938	0.282866
C74	C	2.077193	1.538938	0.782866
C75	C	1.577154	0.968251	0.282854
C76	C	2.077154	1.468251	0.782854
C77	C	1.510268	0.932917	0.326103
C78	C	2.010268	1.432917	0.826103
C79	C	1.510222	0.856269	0.326087
C80	C	2.010222	1.356269	0.826087
C81	C	1.510191	0.795177	0.326071
C82	C	2.010191	1.295177	0.826071
C83	C	1.510142	0.326060	0.150199
C84	C	2.010142	0.826060	0.650199
C85	C	1.510319	0.325887	0.074968
C86	C	2.010319	0.825887	0.574968
C87	C	1.577099	0.282716	0.613190
C88	C	2.077099	0.782716	1.113190
C89	C	1.577109	0.282696	0.683879
C90	C	2.077109	0.782696	1.183879
C91	C	1.510250	0.325970	0.719206
C92	C	2.010250	0.825970	1.219206
C93	C	1.443367	0.369261	0.683841
C94	C	1.943367	0.869261	1.183841
C95	C	1.443352	0.369277	0.613154
C96	C	1.943352	0.869277	1.113154
C97	C	1.443426	0.369198	0.968914
C98	C	1.943426	0.869198	1.468914
C99	C	1.443449	0.369180	1.039606
C100	C	1.943449	0.869180	1.539606
C101	C	1.577184	0.282617	1.039639
C102	C	2.077184	0.782617	1.539639
C103	C	1.577168	0.282633	0.968952
C104	C	2.077168	0.782633	1.468952
C105	C	1.510283	0.325922	0.933593
C106	C	2.010283	0.825922	1.433593
C107	C	1.510271	0.325941	0.856945
C108	C	2.010271	0.825941	1.356945
C109	C	1.510266	0.325954	0.795853
C110	C	2.010266	0.825954	1.295853
H111	H	1.631388	0.583711	0.247564
H112	H	2.131388	1.083711	0.747564
C113	C	0.890494	0.414916	0.414626
C114	C	1.390494	0.914916	0.914626
N115	N	0.845182	0.450804	0.450403
N116	N	1.345182	0.950804	0.950403
C117	C	1.369721	0.722079	0.416883
C118	C	1.869721	1.222079	0.916883
N119	N	1.314325	0.751370	0.452716
N120	N	1.814325	1.251370	0.952716
H121	H	1.115245	0.402515	0.402272
H122	H	1.615245	0.902515	0.902272
C123	C	1.062316	0.278426	0.278565
C124	C	1.562316	0.778426	0.778565
N125	N	1.016995	0.242546	0.242796
N126	N	1.516995	0.742546	0.742796
C127	C	1.650576	0.722043	0.235230
C128	C	2.150576	1.222043	0.735230
N129	N	1.705995	0.751317	0.199394
N130	N	2.205995	1.251317	0.699394
H131	H	0.943399	0.290820	0.290914
H132	H	1.443399	0.790820	0.790914
H133	H	1.388885	0.404521	0.584364
H134	H	1.888885	0.904521	1.084364
H135	H	1.388999	0.404420	1.068368
H136	H	1.888999	0.904420	1.568368
H137	H	1.631586	0.939470	0.247631
H138	H	2.131586	1.439470	0.747631
H139	H	1.631659	1.067716	0.247653
H140	H	2.131659	1.567716	0.747653
H141	H	1.389019	1.067736	0.404590
H142	H	1.889019	1.567736	0.904590
H143	H	1.388950	0.939499	0.404569
H144	H	1.888950	1.439499	0.904569
H145	H	1.388756	0.583733	0.404506
H146	H	1.888756	1.083733	0.904506
H147	H	1.631616	0.247397	0.940192
H148	H	2.131616	0.747397	1.440192
H149	H	1.631547	0.247479	0.584432
H150	H	2.131547	0.747479	1.084432
H151	H	1.631642	0.247367	1.068437
H152	H	2.131642	0.747367	1.568437
H153	H	1.631568	0.247447	0.712666
H154	H	2.131568	0.747447	1.212666
C155	C	1.369847	0.416815	0.930029
C156	C	1.869847	0.916815	1.430029
N157	N	1.314421	0.452681	0.900738
N158	N	1.814421	0.952681	1.400738
H159	H	1.388925	0.404493	0.712610
H160	H	1.888925	0.904493	1.212610
