data_functionalizedCrystal
_audit_creation_method	'MofGen! by Chris Wilmer'
_symmetry_space_group_name_H-M	'P1'
_symmetry_Int_Tables_number	1
_symmetry_cell_setting	triclinic
loop_
_symmetry_equiv_pos_as_xyz
  x,y,z
_cell_length_a	18.215407
_cell_length_b	12.645330
_cell_length_c	18.215399
_cell_angle_alpha	89.976970
_cell_angle_beta	89.980167
_cell_angle_gamma	90.018140
loop_
_atom_site_label
_atom_site_type_symbol
_atom_site_fract_x
_atom_site_fract_y
_atom_site_fract_z
Zn1	Zn	1.125109	-0.422038	-0.416141
Zn2	Zn	1.625109	0.077962	0.083859
Zn3	Zn	1.125033	-0.599320	-0.293085
Zn4	Zn	1.625033	-0.099320	0.206915
Zn5	Zn	1.002041	-0.422072	-0.293088
Zn6	Zn	1.502041	0.077928	0.206912
Zn7	Zn	1.002023	-0.599261	-0.416110
Zn8	Zn	1.502023	-0.099261	0.083890
O9	O	1.063551	-0.510673	-0.354606
O10	O	1.563551	-0.010673	0.145394
O11	O	1.228083	-0.445565	-0.399829
O12	O	1.728083	0.054435	0.100171
O13	O	1.108693	-0.575847	-0.190101
O14	O	1.608693	-0.075847	0.309899
O15	O	1.018406	-0.273720	-0.309426
O16	O	1.518406	0.226280	0.190574
O17	O	1.228027	-0.575813	-0.309421
O18	O	1.728027	-0.075813	0.190579
O19	O	1.108823	-0.273695	-0.399832
O20	O	1.608823	0.226305	0.100168
O21	O	1.018332	-0.445624	-0.190104
O22	O	1.518332	0.054376	0.309896
O23	O	0.899055	-0.445566	-0.309396
O24	O	1.399055	0.054434	0.190604
O25	O	1.018374	-0.575713	-0.519099
O26	O	1.518374	-0.075713	-0.019099
O27	O	0.899041	-0.575746	-0.399780
O28	O	1.399041	-0.075746	0.100220
O29	O	1.108805	-0.445507	-0.519121
O30	O	1.608805	0.054493	-0.019121
O31	O	1.108675	-0.747659	-0.309391
O32	O	1.608675	-0.247659	0.190609
O33	O	1.018300	-0.747616	-0.399777
O34	O	1.518300	-0.247616	0.100223
C35	C	0.872345	-0.510654	-0.354585
C36	C	1.372345	-0.010654	0.145415
C37	C	0.790546	-0.510672	-0.354594
C38	C	1.290546	-0.010672	0.145406
C39	C	0.602364	-0.578563	-0.401597
C40	C	1.102364	-0.078563	0.098403
C41	C	0.525506	-0.578567	-0.401606
C42	C	1.025506	-0.078567	0.098394
C43	C	0.525490	-0.442801	-0.307631
C44	C	1.025490	0.057199	0.192369
C45	C	0.602348	-0.442793	-0.307626
C46	C	1.102348	0.057207	0.192374
C47	C	0.640783	-0.510680	-0.354608
C48	C	1.140783	-0.010680	0.145392
C49	C	0.487067	-0.510692	-0.354622
C50	C	0.987067	-0.010692	0.145378
C51	C	0.403733	-0.510695	-0.354632
C52	C	0.903733	-0.010695	0.145368
C53	C	0.724122	-0.510676	-0.354600
C54	C	1.224122	-0.010676	0.145400
C55	C	1.063498	-0.786102	-0.354596
C56	C	1.563498	-0.286102	0.145404
C57	C	1.063542	-0.903932	-0.354616
C58	C	1.563542	-0.403932	0.145384
C59	C	1.006922	-1.071513	-0.411653
C60	C	1.506922	-0.571513	0.088347
C61	C	1.006632	-0.948954	-0.411470
C62	C	1.506632	-0.448954	0.088530
C63	C	1.042549	-0.948523	-0.277058
C64	C	1.542549	-0.448523	0.222942
C65	C	1.042203	-1.071122	-0.277404
C66	C	1.542203	-0.571122	0.222596
C67	C	1.141502	-1.071022	-0.374509
C68	C	1.641502	-0.571022	0.125491
C69	C	1.141024	-0.948415	-0.376205
C70	C	1.641024	-0.448415	0.123795
C71	C	1.255504	-0.510692	-0.354628
C72	C	1.755504	-0.010692	0.145372
C73	C	1.337303	-0.510700	-0.354637
C74	C	1.837303	-0.010700	0.145363
C75	C	1.063596	-0.510600	-0.546559
C76	C	1.563596	-0.010600	-0.046559
C77	C	1.063615	-0.510568	-0.628358
C78	C	1.563615	-0.010568	-0.128358
C79	C	1.063625	-0.234167	-0.354633
C80	C	1.563625	0.265833	0.145367
C81	C	1.063657	-0.116337	-0.354644
C82	C	1.563657	0.383663	0.145356
C83	C	1.110720	-0.442707	-0.816565
C84	C	1.610720	0.057293	-0.316565
C85	C	1.110728	-0.442676	-0.893424
C86	C	1.610728	0.057324	-0.393424
C87	C	1.016563	-0.578266	-0.893389
C88	C	1.516563	-0.078266	-0.393389
C89	C	1.016551	-0.578290	-0.816532
C90	C	1.516551	-0.078290	-0.316532
C91	C	1.063634	-0.510513	-0.778122
C92	C	1.563634	-0.010513	-0.278122
C93	C	1.063654	-0.510457	-0.931838
C94	C	1.563654	-0.010457	-0.431838
C95	C	1.063663	-0.510424	-1.015172
C96	C	1.563663	-0.010424	-0.515172
C97	C	1.063624	-0.510544	-0.694783
C98	C	1.563624	-0.010544	-0.194783
C99	C	1.063549	-0.510669	-0.163400
C100	C	1.563549	-0.010669	0.336600
C101	C	1.063672	-0.510401	-0.081602
C102	C	1.563672	-0.010401	0.418398
H103	H	0.494229	-0.633842	-0.439871
H104	H	0.994229	-0.133842	0.060129
H105	H	1.149055	-0.387515	-0.785294
H106	H	1.649055	0.112485	-0.285294
C107	C	0.501785	-0.390935	-0.183077
C108	C	1.001785	0.109065	0.316923
C109	C	0.483240	-0.368189	-0.255986
C110	C	0.983240	0.131811	0.244014
H111	H	0.475704	-0.344867	-0.151194
H112	H	0.975704	0.155133	0.348806
H113	H	0.489170	-0.462135	-0.172231
H114	H	0.989170	0.037865	0.327769
H115	H	0.553058	-0.381209	-0.176359
H116	H	1.053058	0.118791	0.323641
H117	H	0.431967	-0.377921	-0.262706
H118	H	0.931967	0.122079	0.237294
H119	H	0.495849	-0.296971	-0.266836
H120	H	0.995849	0.203029	0.233164
H121	H	1.149069	-0.387460	-0.924721
H122	H	1.649069	0.112540	-0.424721
C123	C	0.688750	-0.427878	-0.208647
C124	C	1.188750	0.072122	0.291353
C125	C	0.644585	-0.368173	-0.255972
C126	C	1.144585	0.131827	0.244028
H127	H	0.714829	-0.381808	-0.176765
H128	H	1.214829	0.118192	0.323235
H129	H	0.658748	-0.474005	-0.180445
H130	H	1.158748	0.025995	0.319555
H131	H	0.722635	-0.468299	-0.236639
H132	H	1.222635	0.031701	0.263361
H133	H	0.610696	-0.327757	-0.227981
H134	H	1.110696	0.172243	0.272019
H135	H	0.674590	-0.322027	-0.284177
H136	H	1.174590	0.177973	0.215823
C137	C	1.232990	-1.168857	-0.440762
C138	C	1.732990	-0.668857	0.059238
C139	C	1.167355	-1.112659	-0.449560
C140	C	1.667355	-0.612659	0.050440
H141	H	1.248941	-1.194568	-0.487097
H142	H	1.748941	-0.694568	0.012903
H143	H	1.269412	-1.123429	-0.420823
H144	H	1.769412	-0.623429	0.079177
H145	H	1.225125	-1.226700	-0.408408
H146	H	1.725125	-0.726700	0.091592
H147	H	1.175222	-1.054811	-0.481910
H148	H	1.675222	-0.554811	0.018090
H149	H	1.130925	-1.158090	-0.469509
H150	H	1.630925	-0.658090	0.030491
H151	H	0.948921	-0.919719	-0.398309
H152	H	1.448921	-0.419719	0.101691
H153	H	0.978203	-0.633505	-0.785230
H154	H	1.478203	-0.133505	-0.285230
H155	H	0.978232	-0.633450	-0.924672
H156	H	1.478232	-0.133450	-0.424672
H157	H	1.019935	-1.100928	-0.469351
H158	H	1.519935	-0.600928	0.030649
C159	C	0.594657	-0.712750	-0.494496
C160	C	1.094657	-0.212750	0.005504
C161	C	0.644613	-0.653172	-0.453247
C162	C	1.144613	-0.153172	0.046753
H163	H	0.620739	-0.758803	-0.526387
H164	H	1.120739	-0.258803	-0.026387
H165	H	0.564663	-0.753247	-0.462389
H166	H	1.064663	-0.253247	0.037611
H167	H	0.564697	-0.666600	-0.522696
H168	H	1.064697	-0.166600	-0.022696
H169	H	0.674570	-0.699321	-0.425043
H170	H	1.174570	-0.199321	0.074957
H171	H	0.674620	-0.612671	-0.485358
H172	H	1.174620	-0.112671	0.014642
C173	C	0.920104	-1.022635	-0.240904
C174	C	1.420104	-0.522635	0.259096
C175	C	0.965383	-1.109862	-0.254694
C176	C	1.465383	-0.609862	0.245306
H177	H	0.872676	-1.046550	-0.226890
H178	H	1.372676	-0.546550	0.273110
H179	H	0.940583	-0.981437	-0.202426
H180	H	1.440583	-0.481437	0.297574
H181	H	0.916336	-0.980770	-0.284051
H182	H	1.416336	-0.480770	0.215949
H183	H	0.969156	-1.151723	-0.211546
H184	H	1.469156	-0.651723	0.288454
H185	H	0.944899	-1.151077	-0.293176
H186	H	1.444899	-0.651077	0.206824
H187	H	1.019766	-0.918802	-0.468979
H188	H	1.519766	-0.418802	0.031021
H189	H	1.082562	-0.919362	-0.233421
H190	H	1.582562	-0.419362	0.266579
H191	H	0.949572	-1.102414	-0.398661
H192	H	1.449572	-0.602414	0.101339
H193	H	1.081734	-1.100776	-0.233479
H194	H	1.581734	-0.600776	0.266521
H195	H	0.986237	-0.917912	-0.259925
H196	H	1.486237	-0.417912	0.240075
H197	H	1.156855	-0.919267	-0.433284
H198	H	1.656855	-0.419267	0.066716
H199	H	1.185520	-0.917762	-0.337706
H200	H	1.685520	-0.417762	0.162294
H201	H	1.183771	-1.100007	-0.332986
H202	H	1.683771	-0.600007	0.167014
