data_functionalizedCrystal
_audit_creation_method	'MofGen! by Chris Wilmer'
_symmetry_space_group_name_H-M	'P1'
_symmetry_Int_Tables_number	1
_symmetry_cell_setting	triclinic
loop_
_symmetry_equiv_pos_as_xyz
  x,y,z
_cell_length_a	12.759401
_cell_length_b	16.959454
_cell_length_c	12.759393
_cell_angle_alpha	90.030714
_cell_angle_beta	90.018496
_cell_angle_gamma	90.020236
loop_
_atom_site_label
_atom_site_type_symbol
_atom_site_fract_x
_atom_site_fract_y
_atom_site_fract_z
Zn1	Zn	1.606216	-0.314632	0.593988
Zn2	Zn	1.606094	-0.446833	0.418310
Zn3	Zn	1.430518	-0.314673	0.418327
Zn4	Zn	1.430490	-0.446772	0.593952
O5	O	1.518330	-0.380727	0.506144
O6	O	1.753221	-0.332177	0.570692
O7	O	1.582764	-0.429345	0.271291
O8	O	1.453888	-0.204057	0.441651
O9	O	1.753131	-0.429304	0.441622
O10	O	1.582972	-0.204026	0.570708
O11	O	1.453769	-0.332247	0.271304
O12	O	1.283493	-0.332188	0.441616
O13	O	1.453840	-0.429201	0.740978
O14	O	1.283473	-0.429241	0.570647
O15	O	1.582945	-0.332118	0.741004
O16	O	1.582737	-0.557436	0.441588
O17	O	1.453722	-0.557391	0.570631
C18	C	1.245362	-0.380713	0.506130
C19	C	1.128586	-0.380726	0.506149
C20	C	1.073740	-0.431342	0.573224
C21	C	0.964016	-0.431352	0.573235
C22	C	0.963992	-0.330127	0.439087
C23	C	1.073714	-0.330114	0.439082
C24	C	1.128612	-0.481954	0.640291
C25	C	1.073766	-0.532575	0.707370
C26	C	0.964042	-0.532585	0.707382
C27	C	0.909164	-0.481974	0.640313
C28	C	1.518242	-0.586094	0.506126
C29	C	1.518300	-0.673950	0.506154
C30	C	1.451249	-1.045433	0.573330
C31	C	1.585703	-1.045419	0.439066
C32	C	1.585666	-0.962873	0.439056
C33	C	1.518419	-0.921603	0.506183
C34	C	1.451208	-0.962879	0.573320
C35	C	1.652869	-0.921591	0.371913
C36	C	1.652834	-0.839040	0.371900
C37	C	1.585591	-0.797769	0.439033
C38	C	1.518378	-0.839050	0.506173
C39	C	1.451130	-0.797780	0.573300
C40	C	1.383922	-0.839059	0.640447
C41	C	1.383965	-0.921607	0.640453
C42	C	1.585548	-0.715220	0.439027
C43	C	1.451089	-0.715226	0.573291
C44	C	1.792363	-0.380743	0.506159
C45	C	1.909140	-0.380749	0.506165
C46	C	1.518403	-0.380648	0.780178
C47	C	1.518435	-0.380614	0.896954
C48	C	1.518447	-0.174559	0.506185
C49	C	1.518496	-0.086703	0.506203
C50	C	1.518317	-0.380750	0.233177
C51	C	1.518489	-0.380561	0.116401
C52	C	1.585669	-0.330058	0.951832
C53	C	1.585694	-0.330029	1.061556
C54	C	1.451247	-0.431119	1.061516
C55	C	1.451218	-0.431143	0.951793
C56	C	1.652886	-0.279528	0.896993
C57	C	1.720126	-0.228968	0.951870
C58	C	1.720151	-0.228940	1.061594
C59	C	1.652935	-0.279471	1.116441
H60	H	1.217954	-0.481953	0.640287
N61	N	1.378768	-0.485617	1.120682
H62	H	1.395043	-0.542100	1.101574
H63	H	1.303730	-0.473274	1.101572
H64	H	0.919390	-0.573797	0.762009
N65	N	0.904807	-0.275554	0.366739
H66	H	0.923880	-0.287767	0.291648
H67	H	0.923942	-0.219110	0.383268
H68	H	1.118370	-0.288892	0.384471
H69	H	1.707610	-0.955199	0.317254
H70	H	1.640263	-0.681615	0.384352
N71	N	1.132947	-0.587163	0.779703
H72	H	1.113890	-0.574958	0.854800
H73	H	1.210759	-0.579455	0.769428
N74	N	0.790818	-0.481975	0.640333
H75	H	0.764398	-0.521718	0.693007
H76	H	0.764434	-0.496418	0.568196
H77	H	1.396332	-0.681629	0.627958
N78	N	1.311472	-0.966126	0.712863
H79	H	1.354154	-1.000334	0.761589
H80	H	1.262839	-1.000372	0.670046
N81	N	1.652848	-0.279564	0.778649
H82	H	1.724902	-0.294110	0.752218
H83	H	1.633521	-0.225335	0.752312
N84	N	1.725328	-0.794520	0.299493
H85	H	1.767936	-0.833192	0.256973
H86	H	1.773906	-0.760231	0.342309
H87	H	1.396533	-1.079046	0.628001
H88	H	1.329164	-0.805447	0.695097
H89	H	1.640447	-1.079026	0.384408
N90	N	1.792630	-0.174477	0.892722
H91	H	1.782421	-0.182171	0.814886
H92	H	1.867654	-0.186795	0.911917
H93	H	1.774894	-0.187766	1.106273
H94	H	1.652949	-0.279434	1.205786
N95	N	1.378702	-0.485669	0.892595
H96	H	1.336131	-0.517681	0.943982
H97	H	1.421436	-0.522260	0.847060
