data_functionalizedCrystal
_audit_creation_method	'MofGen! by Chris Wilmer'
_symmetry_space_group_name_H-M	'P1'
_symmetry_Int_Tables_number	1
_symmetry_cell_setting	triclinic
loop_
_symmetry_equiv_pos_as_xyz
  x,y,z
_cell_length_a	14.853569
_cell_length_b	15.995350
_cell_length_c	13.330367
_cell_angle_alpha	89.997588
_cell_angle_beta	89.994419
_cell_angle_gamma	83.563970
loop_
_atom_site_label
_atom_site_type_symbol
_atom_site_fract_x
_atom_site_fract_y
_atom_site_fract_z
O1	O	1.196221	0.109323	-0.083372
O2	O	0.933744	0.122344	-0.083384
O3	O	1.072157	-0.006046	-0.083377
O4	O	1.057807	0.237713	-0.083379
O5	O	1.072137	-0.006049	0.083470
O6	O	0.933724	0.122341	0.083463
O7	O	1.196201	0.109320	0.083475
Cu8	Cu	1.064960	0.115830	0.098703
Cu9	Cu	1.064984	0.115834	-0.098613
O10	O	1.057787	0.237710	0.083468
C11	C	0.900146	0.121752	0.000038
C12	C	0.800065	0.119984	0.000034
C13	C	1.071554	-0.037243	0.000045
C14	C	1.069775	-0.130195	0.000039
C15	C	0.763792	0.042888	0.000031
C16	C	0.742297	0.195418	0.000040
C17	C	0.648265	0.193759	0.000042
C18	C	0.611992	0.116663	0.000039
C19	C	0.669752	0.041226	0.000035
C20	C	0.590499	0.269195	0.000056
C21	C	0.496461	0.267538	0.000058
C22	C	0.460186	0.190441	0.000048
C23	C	0.517952	0.115001	0.000043
C24	C	0.481679	0.037905	0.000040
C25	C	0.539443	-0.037536	0.000028
C26	C	0.633477	-0.035871	0.000025
C27	C	0.366152	0.188777	0.000051
C28	C	0.387639	0.036244	0.000044
C29	C	1.063388	-0.467950	0.000042
C30	C	0.964813	-0.420631	-0.000337
C31	C	0.966591	-0.323939	0.000040
C32	C	1.066556	-0.300386	0.000040
C33	C	1.115166	-0.341408	0.095318
C34	C	1.112689	-0.438047	0.095398
C35	C	1.114749	-0.438399	-0.094339
C36	C	1.114725	-0.341454	-0.095598
C37	C	1.068352	-0.205686	0.000042
C38	C	1.061595	-0.562650	0.000047
C39	C	1.229798	0.109912	0.000050
C40	C	1.329880	0.111681	0.000048
C41	C	1.058390	0.268907	0.000044
C42	C	1.060169	0.361859	0.000043
N43	N	1.064950	0.115828	0.237485
N44	N	1.065001	0.115830	-0.237394
C45	C	1.003692	0.172662	0.710105
C46	C	1.126300	0.058999	0.710079
C47	C	1.126290	0.058996	0.605061
C48	C	1.064981	0.115828	0.552559
C49	C	1.003682	0.172663	0.605077
C50	C	1.187594	0.002168	0.552535
C51	C	1.187587	0.002164	0.447511
C52	C	1.126273	0.058993	0.395008
C53	C	1.064971	0.115829	0.447531
C54	C	1.003661	0.172662	0.395030
C55	C	0.942354	0.229495	0.447552
C56	C	0.942367	0.229492	0.552574
C57	C	1.126259	0.058995	0.289986
C58	C	1.003651	0.172662	0.290002
H59	H	0.358114	-0.026538	0.000037
C60	C	1.193694	-0.003517	0.232217
N61	N	1.244487	-0.050606	0.188706
H62	H	1.082528	-0.458975	-0.166554
H63	H	0.953722	0.218939	0.247262
H64	H	1.237515	-0.044099	0.595285
C65	C	0.914963	-0.285598	-0.092225
N66	N	0.876069	-0.256722	-0.161719
C67	C	1.069529	-0.303128	0.191106
N68	N	1.035149	-0.274298	0.263252
C69	C	0.782201	0.280219	0.000050
N70	N	0.812259	0.344095	0.000055
H71	H	1.079186	-0.314245	-0.166082
H72	H	1.188607	-0.327197	0.098862
C73	C	0.827332	-0.040093	0.000025
N74	N	0.875191	-0.102595	0.000024
C75	C	0.914604	-0.286354	0.092465
N76	N	0.875446	-0.258046	0.162085
H77	H	0.319125	0.250200	0.000070
H78	H	1.185062	-0.470210	0.099721
C79	C	0.874916	0.292009	0.389787
N80	N	0.824123	0.339093	0.346274
C81	C	1.193737	-0.003513	0.767834
N82	N	1.244531	-0.050601	0.811339
H83	H	0.509898	-0.100308	0.000019
C84	C	0.630405	0.353994	0.000067
N85	N	0.660466	0.417869	0.000076
H86	H	1.077226	-0.456391	0.166619
H87	H	1.237506	-0.044113	0.404754
H88	H	0.449437	0.328967	0.000066
C89	C	0.697023	-0.118848	0.000030
N90	N	0.744890	-0.181346	0.000041
H91	H	0.953774	0.218933	0.752870
H92	H	0.925580	-0.440272	0.067606
C93	C	0.911588	-0.445736	-0.092635
N94	N	0.871498	-0.464653	-0.162155
H95	H	1.187624	-0.326007	-0.101350
H96	H	1.187428	-0.470075	-0.094979
C97	C	0.874931	0.291999	0.610355
N98	N	0.824137	0.339078	0.653880
