data_functionalizedCrystal
_audit_creation_method	'MofGen! by Chris Wilmer'
_symmetry_space_group_name_H-M	'P1'
_symmetry_Int_Tables_number	1
_symmetry_cell_setting	triclinic
loop_
_symmetry_equiv_pos_as_xyz
  x,y,z
_cell_length_a	11.792254
_cell_length_b	14.421503
_cell_length_c	11.792254
_cell_angle_alpha	90.005059
_cell_angle_beta	84.198598
_cell_angle_gamma	89.991560
loop_
_atom_site_label
_atom_site_type_symbol
_atom_site_fract_x
_atom_site_fract_y
_atom_site_fract_z
O1	O	1.506916	-0.077111	0.155618
O2	O	1.176577	-0.077113	0.171636
O3	O	1.349755	-0.077106	-0.001542
O4	O	1.333737	-0.077119	0.328796
O5	O	1.349724	0.077118	-0.001513
O6	O	1.176545	0.077110	0.171665
O7	O	1.506884	0.077112	0.155647
Cu8	Cu	1.341712	0.091193	0.163659
Cu9	Cu	1.341749	-0.091194	0.163624
O10	O	1.333706	0.077104	0.328825
C11	C	1.134271	-0.000002	0.170641
C12	C	1.008257	-0.000003	0.167621
C13	C	0.905921	-0.000006	0.165168
C14	C	0.777534	-0.000007	0.162099
N15	N	1.341694	0.219474	0.163682
C16	C	1.261597	0.469124	0.243729
C17	C	1.364291	0.530927	0.266396
C18	C	1.341717	0.408636	0.163659
C19	C	1.239046	0.530927	0.141023
C20	C	1.341731	0.591357	0.163640
C21	C	1.444464	0.469077	0.186377
C22	C	1.319151	0.469072	0.060960
C23	C	1.421919	0.530847	0.083584
C24	C	1.341708	0.303374	0.163674
C25	C	1.341753	0.696616	0.163625
C26	C	1.549190	-0.000001	0.156642
C27	C	1.675204	-0.000007	0.159662
C28	C	1.348730	0.000006	-0.043818
C29	C	1.345710	0.000005	-0.169832
N30	N	1.341757	0.780525	0.163613
C31	C	1.343256	0.000001	-0.272168
C32	C	1.340188	-0.000007	-0.400555
C33	C	1.334731	-0.000009	0.371102
C34	C	1.337751	-0.000014	0.497115
H35	H	1.383393	0.558095	0.353237
N36	N	1.553419	0.435132	0.210506
N37	N	1.570985	0.349769	0.214444
H38	H	1.647932	0.325792	0.231486
N39	N	1.507017	0.564659	-0.001356
N40	N	1.520328	0.649998	-0.015646
H41	H	1.580432	0.673883	-0.075628
N42	N	1.295140	0.434970	-0.047949
N43	N	1.202823	0.454752	-0.085689
H44	H	1.185853	0.430667	-0.162607
N45	N	1.130124	0.565030	0.117017
N46	N	1.073422	0.615749	0.187618
H47	H	0.996495	0.639835	0.170672
N48	N	1.176690	0.435134	0.328745
N49	N	1.181923	0.454986	0.431268
H50	H	1.121962	0.430981	0.491314
