data_functionalizedCrystal
_audit_creation_method	'MofGen! by Chris Wilmer'
_symmetry_space_group_name_H-M	'P1'
_symmetry_Int_Tables_number	1
_symmetry_cell_setting	triclinic
loop_
_symmetry_equiv_pos_as_xyz
  x,y,z
_cell_length_a	15.995350
_cell_length_b	15.995350
_cell_length_c	16.776229
_cell_angle_alpha	89.995580
_cell_angle_beta	89.996506
_cell_angle_gamma	83.492375
loop_
_atom_site_label
_atom_site_type_symbol
_atom_site_fract_x
_atom_site_fract_y
_atom_site_fract_z
O1	O	1.110989	0.107929	-0.066217
O2	O	1.444322	0.441262	0.267117
O3	O	1.777655	0.774595	0.600450
O4	O	0.867213	0.121256	-0.066233
O5	O	1.200547	0.454589	0.267101
O6	O	1.533880	0.787923	0.600434
O7	O	0.995765	-0.007295	-0.066223
O8	O	1.329098	0.326038	0.267110
O9	O	1.662431	0.659371	0.600443
O10	O	0.982437	0.236480	-0.066226
O11	O	1.315770	0.569813	0.267108
O12	O	1.649104	0.903147	0.600441
O13	O	0.995748	-0.007303	0.066353
O14	O	1.329081	0.326030	0.399686
O15	O	1.662414	0.659363	0.733020
O16	O	0.867196	0.121248	0.066344
O17	O	1.200530	0.454581	0.399677
O18	O	1.533863	0.787915	0.733011
O19	O	1.110971	0.107921	0.066360
O20	O	1.444305	0.441254	0.399693
O21	O	1.777638	0.774587	0.733027
Zn22	Zn	0.989081	0.114583	0.087401
Zn23	Zn	1.322414	0.447916	0.420735
Zn24	Zn	1.655748	0.781250	0.754068
Zn25	Zn	0.989104	0.114594	-0.087274
Zn26	Zn	1.322437	0.447927	0.246059
Zn27	Zn	1.655770	0.781260	0.579393
O28	O	0.982420	0.236472	0.066351
O29	O	1.315753	0.569805	0.399684
O30	O	1.649087	0.903139	0.733017
C31	C	0.836010	0.120701	0.000054
C32	C	1.169343	0.454034	0.333387
C33	C	1.502677	0.787368	0.666720
C34	C	0.743060	0.119049	0.000047
C35	C	1.076393	0.452383	0.333381
C36	C	1.409726	0.785716	0.666714
C37	C	0.405312	0.113117	0.000064
C38	C	0.738645	0.446450	0.333397
C39	C	1.071979	0.779784	0.666731
C40	C	0.452746	0.021565	0.000361
C41	C	0.786079	0.354898	0.333694
C42	C	1.119413	0.688232	0.667027
C43	C	0.549436	0.023217	0.000056
C44	C	0.882770	0.356551	0.333390
C45	C	1.216103	0.689884	0.666723
C46	C	0.572873	0.116060	0.000056
C47	C	0.906206	0.449393	0.333390
C48	C	1.239539	0.782726	0.666723
C49	C	0.531795	0.161221	-0.075649
C50	C	0.865129	0.494554	0.257685
C51	C	1.198462	0.827887	0.591018
C52	C	0.435159	0.158921	-0.075707
C53	C	0.768493	0.492254	0.257627
C54	C	1.101826	0.825587	0.590960
C55	C	0.434801	0.160803	0.075058
C56	C	0.768135	0.494137	0.408391
C57	C	1.101468	0.827470	0.741724
C58	C	0.531747	0.160782	0.076053
C59	C	0.865080	0.494115	0.409386
C60	C	1.198413	0.827448	0.742719
C61	C	0.667570	0.117727	0.000049
C62	C	1.000903	0.451061	0.333382
C63	C	1.334237	0.784394	0.666716
C64	C	0.310614	0.111452	0.000066
C65	C	0.643948	0.444785	0.333399
C66	C	0.977281	0.778119	0.666732
C67	C	0.995205	-0.038494	0.000063
C68	C	1.328538	0.294839	0.333397
C69	C	1.661872	0.628173	0.666730
C70	C	0.993553	-0.131444	0.000059
C71	C	1.326887	0.201889	0.333392
C72	C	1.660220	0.535222	0.666725
C73	C	0.987621	-0.469192	0.000061
C74	C	1.320954	-0.135859	0.333394
C75	C	1.654288	0.197475	0.666728
C76	C	0.896069	-0.421758	-0.000242
C77	C	1.229403	-0.088425	0.333091
C78	C	1.562736	0.244909	0.666424
C79	C	0.897721	-0.325068	0.000057
C80	C	1.231055	0.008266	0.333390
C81	C	1.564388	0.341599	0.666723
C82	C	0.990564	-0.301631	0.000059
C83	C	1.323897	0.031702	0.333393
C84	C	1.657230	0.365035	0.666726
C85	C	1.035711	-0.342713	0.075769
C86	C	1.369044	-0.009380	0.409102
C87	C	1.702377	0.323953	0.742435
C88	C	1.033411	-0.439349	0.075832
C89	C	1.366744	-0.106016	0.409165
C90	C	1.700077	0.227318	0.742498
C91	C	1.035321	-0.439698	-0.074932
C92	C	1.368655	-0.106365	0.258401
C93	C	1.701988	0.226968	0.591734
C94	C	1.035300	-0.342753	-0.075933
C95	C	1.368633	-0.009419	0.257400
C96	C	1.701966	0.323914	0.590734
C97	C	0.992231	-0.206934	0.000061
C98	C	1.325565	0.126399	0.333394
C99	C	1.658898	0.459733	0.666728
C100	C	0.985956	-0.563890	0.000065
C101	C	1.319289	-0.230556	0.333398
C102	C	1.652623	0.102777	0.666731
C103	C	1.142175	0.108476	0.000072
C104	C	1.475508	0.441809	0.333405
C105	C	1.808841	0.775142	0.666739
C106	C	1.235125	0.110127	0.000073
C107	C	1.568458	0.443461	0.333406
C108	C	1.901792	0.776794	0.666740
C109	C	0.982980	0.267671	0.000062
C110	C	1.316313	0.601004	0.333396
C111	C	1.649646	0.934337	0.666729
C112	C	0.984631	0.360621	0.000062
C113	C	1.317965	0.693954	0.333395
C114	C	1.651298	1.027288	0.666728
N115	N	0.989072	0.114576	0.206612
N116	N	1.322405	0.447909	0.539946
N117	N	1.655739	0.781242	0.873279
N118	N	0.989119	0.114595	-0.206485
N119	N	1.322453	0.447928	0.126848
N120	N	1.655786	0.781261	0.460181
C121	C	1.046012	0.057676	0.248334
C122	C	1.379345	0.391010	0.581667
C123	C	1.712678	0.724343	0.915000
C124	C	1.046016	0.057676	0.331786
C125	C	1.379350	0.391009	0.665119
C126	C	1.712683	0.724342	0.998452
C127	C	0.989085	0.114579	0.373515
C128	C	1.322418	0.447912	0.706849
C129	C	1.655751	0.781245	1.040182
C130	C	0.932139	0.171481	0.331788
C131	C	1.265472	0.504814	0.665122
C132	C	1.598805	0.838147	0.998455
C133	C	0.932131	0.171477	0.248338
C134	C	1.265464	0.504810	0.581671
C135	C	1.598797	0.838143	0.915004
C136	C	0.932169	0.171497	0.668336
C137	C	1.265502	0.504830	1.001669
C138	C	1.598835	0.838164	1.335002
C139	C	0.932183	0.171498	0.751792
C140	C	1.265516	0.504832	1.085125
C141	C	1.598850	0.838165	1.418459
C142	C	1.046055	0.057696	0.751784
C143	C	1.379388	0.391029	1.085117
C144	C	1.712721	0.724363	1.418450
C145	C	1.046047	0.057692	0.668333
C146	C	1.379380	0.391025	1.001666
C147	C	1.712713	0.724359	1.335000
C148	C	0.989098	0.114591	0.626613
C149	C	1.322432	0.447924	0.959947
C150	C	1.655765	0.781257	1.293280
C151	C	0.989093	0.114590	0.536125
C152	C	1.322426	0.447923	0.869458
C153	C	1.655759	0.781256	1.202792
C154	C	0.989093	0.114584	0.464002
C155	C	1.322427	0.447918	0.797336
C156	C	1.655760	0.781251	1.130669
H157	H	0.577301	-0.012515	-0.054306
H158	H	0.910635	0.320819	0.279027
H159	H	1.243968	0.654152	0.612361
Br160	Br	0.555362	0.274899	-0.080363
Br161	Br	0.888695	0.608232	0.252970
Br162	Br	1.222029	0.941566	0.586304
Br163	Br	1.149398	-0.319175	0.080470
Br164	Br	1.482731	0.014158	0.413803
Br165	Br	1.816064	0.347491	0.747136
Br166	Br	1.123318	-0.019531	0.611702
Br167	Br	1.456651	0.313802	0.945036
Br168	Br	1.789985	0.647136	1.278369
Br169	Br	0.980746	-0.296792	-0.169299
Br170	Br	1.314079	0.036541	0.164034
Br171	Br	1.647412	0.369875	0.497367
H172	H	0.414258	0.130869	0.132440
H173	H	0.747592	0.464203	0.465774
H174	H	1.080925	0.797536	0.799107
H175	H	0.885779	0.217810	0.365769
H176	H	1.219113	0.551143	0.699103
H177	H	1.552446	0.884476	1.032436
Br178	Br	0.838144	-0.278621	0.090656
Br179	Br	1.171477	0.054712	0.423990
Br180	Br	1.504811	0.388045	0.757323
H181	H	1.005396	-0.460235	-0.132315
H182	H	1.338729	-0.126901	0.201018
H183	H	1.672063	0.206432	0.534351
H184	H	1.092381	0.011344	0.365755
H185	H	1.425714	0.344677	0.699088
H186	H	1.759047	0.678010	1.032421
H187	H	1.092423	0.011363	0.785761
H188	H	1.425756	0.344697	1.119094
H189	H	1.759090	0.678030	1.452427
Br190	Br	0.854914	0.248730	0.808425
Br191	Br	1.188247	0.582063	1.141759
Br192	Br	1.521580	0.915397	1.475092
H193	H	0.577858	-0.012281	0.054325
H194	H	0.911192	0.321052	0.387658
H195	H	1.244525	0.654385	0.720992
Br196	Br	0.577146	0.105740	0.169401
Br197	Br	0.910480	0.439073	0.502734
Br198	Br	1.243813	0.772407	0.836068
Br199	Br	0.978513	-0.469863	0.170153
Br200	Br	1.311847	-0.136530	0.503486
Br201	Br	1.645180	0.196804	0.836819
H202	H	0.885801	0.217827	0.634374
H203	H	1.219134	0.551161	0.967707
H204	H	1.552468	0.884494	1.301041
H205	H	0.885763	0.217809	0.214369
H206	H	1.219097	0.551142	0.547702
H207	H	1.552430	0.884475	0.881036
Br208	Br	0.579096	0.108955	-0.169558
Br209	Br	0.912429	0.442288	0.163776
Br210	Br	1.245762	0.775621	0.497109
Br211	Br	0.421860	-0.039438	0.090851
Br212	Br	0.755193	0.293896	0.424184
Br213	Br	1.088527	0.627229	0.757518
Br214	Br	0.420095	-0.039153	-0.089620
Br215	Br	0.753429	0.294180	0.243713
Br216	Br	1.086762	0.627514	0.577046
H217	H	1.103005	-0.327391	-0.080502
H218	H	1.436338	0.005943	0.252831
H219	H	1.769671	0.339276	0.586165
H220	H	0.416858	0.125994	-0.132298
H221	H	0.750192	0.459327	0.201036
H222	H	1.083525	0.792661	0.534369
Br223	Br	1.123287	-0.019548	0.191709
Br224	Br	1.456621	0.313785	0.525043
Br225	Br	1.789954	0.647119	0.858376
H226	H	0.547111	0.228485	0.080625
H227	H	0.880444	0.561818	0.413959
H228	H	1.213778	0.895151	0.747292
H229	H	0.402911	0.226137	-0.079142
H230	H	0.736245	0.559470	0.254191
H231	H	1.069578	0.892803	0.587524
H232	H	0.862232	-0.296642	-0.054215
H233	H	1.195566	0.036691	0.279118
H234	H	1.528899	0.370024	0.612452
Br235	Br	0.381867	0.273309	0.075911
Br236	Br	0.715200	0.606642	0.409245
Br237	Br	1.048534	0.939975	0.742578
H238	H	0.859484	-0.440286	-0.054535
H239	H	1.192817	-0.106953	0.278798
H240	H	1.526150	0.226380	0.612132
H241	H	0.859632	-0.441355	0.053743
H242	H	1.192966	-0.108022	0.387077
H243	H	1.526299	0.225312	0.720410
Br244	Br	1.145437	-0.493103	0.081571
Br245	Br	1.478770	-0.159770	0.414904
Br246	Br	1.812103	0.173563	0.748237
Br247	Br	0.983427	-0.295419	0.169673
Br248	Br	1.316760	0.037914	0.503006
Br249	Br	1.650094	0.371248	0.836339
H250	H	1.102822	-0.471459	-0.075439
H251	H	1.436156	-0.138126	0.257894
H252	H	1.769489	0.195208	0.591228
