data_functionalizedCrystal
_audit_creation_method	'MofGen! by Chris Wilmer'
_symmetry_space_group_name_H-M	'P1'
_symmetry_Int_Tables_number	1
_symmetry_cell_setting	triclinic
loop_
_symmetry_equiv_pos_as_xyz
  x,y,z
_cell_length_a	22.010155
_cell_length_b	19.188930
_cell_length_c	19.188930
_cell_angle_alpha	83.144779
_cell_angle_beta	89.999121
_cell_angle_gamma	89.977687
loop_
_atom_site_label
_atom_site_type_symbol
_atom_site_fract_x
_atom_site_fract_y
_atom_site_fract_z
O1	O	0.050727	-0.926150	-0.087158
O2	O	0.550727	-0.426150	0.412842
O3	O	0.050686	-0.722839	-0.098892
O4	O	0.550686	-0.222839	0.401108
O5	O	0.050696	-0.830361	0.008631
O6	O	0.550696	-0.330361	0.508631
O7	O	0.050718	-0.818627	-0.194681
O8	O	0.550718	-0.318627	0.305319
O9	O	-0.050354	-0.830342	0.008615
O10	O	0.449646	-0.330342	0.508615
O11	O	-0.050364	-0.722819	-0.098908
O12	O	0.449636	-0.222819	0.401092
O13	O	-0.050323	-0.926130	-0.087174
O14	O	0.449677	-0.426130	0.412826
Cu15	Cu	-0.059570	-0.824473	-0.093043
Cu16	Cu	0.440430	-0.324473	0.406957
Cu17	Cu	0.059934	-0.824496	-0.093024
Cu18	Cu	0.559934	-0.324496	0.406976
O19	O	-0.050333	-0.818608	-0.194697
O20	O	0.449667	-0.318608	0.305303
C21	C	0.000156	-0.696818	-0.098520
C22	C	0.500156	-0.196818	0.401480
C23	C	0.000140	-0.619313	-0.097380
C24	C	0.500140	-0.119313	0.402620
C25	C	0.000169	-0.829972	0.034634
C26	C	0.500169	-0.329972	0.534634
C27	C	0.000164	-0.828831	0.112138
C28	C	0.500164	-0.328831	0.612138
N29	N	-0.143623	-0.824462	-0.093056
N30	N	0.356377	-0.324462	0.406944
C31	C	-0.563398	-0.872110	-0.045419
C32	C	-0.063398	-0.372110	0.454581
C33	C	-0.627005	-0.872113	-0.045414
C34	C	-0.127005	-0.372113	0.454586
O35	O	-0.659893	-0.912597	-0.004921
O36	O	-0.159893	-0.412597	0.495079
N37	N	-0.658830	-0.824496	-0.093009
N38	N	-0.158830	-0.324496	0.406991
C39	C	-0.627043	-0.776867	-0.140607
C40	C	-0.127043	-0.276867	0.359393
O41	O	-0.659953	-0.736365	-0.181089
O42	O	-0.159953	-0.236365	0.318911
C43	C	-0.563437	-0.776861	-0.140608
C44	C	-0.063437	-0.276861	0.359392
C45	C	-0.531616	-0.824486	-0.093015
C46	C	-0.031616	-0.324486	0.406985
C47	C	-0.531577	-0.919731	0.002170
C48	C	-0.031577	-0.419731	0.502170
C49	C	-0.467973	-0.919728	0.002165
C50	C	0.032027	-0.419728	0.502165
C51	C	-0.436191	-0.872105	-0.045431
C52	C	0.063809	-0.372105	0.454569
C53	C	-0.468013	-0.824484	-0.093020
C54	C	0.031987	-0.324484	0.406980
C55	C	-0.531652	-0.729230	-0.188201
C56	C	-0.031652	-0.229230	0.311799
C57	C	-0.468041	-0.729228	-0.188198
C58	C	0.031959	-0.229228	0.311802
C59	C	-0.436220	-0.776853	-0.140605
C60	C	0.063780	-0.276853	0.359395
C61	C	-0.372627	-0.776858	-0.140622
C62	C	0.127373	-0.276858	0.359378
N63	N	-0.340803	-0.824475	-0.093027
N64	N	0.159197	-0.324475	0.406973
C65	C	-0.372585	-0.872099	-0.045432
C66	C	0.127415	-0.372099	0.454568
C67	C	-0.760621	-0.776883	-0.140600
C68	C	-0.260621	-0.276883	0.359400
C69	C	-0.824226	-0.776891	-0.140603
C70	C	-0.324226	-0.276891	0.359397
C71	C	-0.824184	-0.872137	-0.045410
C72	C	-0.324184	-0.372137	0.454590
C73	C	-0.760578	-0.872131	-0.045411
C74	C	-0.260578	-0.372131	0.454589
C75	C	-0.728797	-0.824500	-0.093006
C76	C	-0.228797	-0.324500	0.406994
C77	C	-0.239014	-0.872090	-0.045448
C78	C	0.260986	-0.372090	0.454552
C79	C	-0.175405	-0.872085	-0.045460
C80	C	0.324595	-0.372085	0.454540
C81	C	-0.175453	-0.776838	-0.140651
C82	C	0.324547	-0.276838	0.359349
C83	C	-0.239056	-0.776845	-0.140641
C84	C	0.260944	-0.276845	0.359359
C85	C	-0.270835	-0.824474	-0.093034
C86	C	0.229165	-0.324474	0.406966
O87	O	-0.339699	-0.736393	-0.181092
O88	O	0.160301	-0.236393	0.318908
O89	O	-0.339667	-0.912588	-0.004950
O90	O	0.160333	-0.412588	0.495050
N91	N	0.143986	-0.824513	-0.093005
N92	N	0.643986	-0.324513	0.406995
C93	C	0.000209	-0.952151	-0.087546
C94	C	0.500209	-0.452151	0.412454
C95	C	0.000229	-1.029656	-0.088687
C96	C	0.500229	-0.529656	0.411313
C97	C	0.000156	-0.574389	-0.160470
C98	C	0.500156	-0.074389	0.339530
C99	C	0.000163	-0.501566	-0.159399
C100	C	0.500163	-0.001566	0.340601
C101	C	0.000165	-0.473669	-0.095233
C102	C	0.500165	0.026331	0.404767
C103	C	0.000146	-0.518603	-0.032133
C104	C	0.500146	-0.018603	0.467867
C105	C	0.000133	-0.591425	-0.033207
C106	C	0.500133	-0.091425	0.466793
N107	N	0.034576	-0.365696	-0.046180
N108	N	0.534576	0.134304	0.453820
N109	N	0.034590	-0.296517	-0.045165
N110	N	0.534590	0.203483	0.454835
C111	C	0.000202	-0.254260	-0.091994
C112	C	0.500202	0.245740	0.408006
N113	N	-0.034192	-0.283795	-0.139889
N114	N	0.465808	0.216205	0.360111
N115	N	-0.034202	-0.352979	-0.140906
N116	N	0.465798	0.147021	0.359094
C117	C	0.000179	-0.394707	-0.094061
C118	C	0.500179	0.105293	0.405939
C119	C	0.000224	-0.130372	-0.153928
C120	C	0.500224	0.369628	0.346072
C121	C	0.000227	-0.057547	-0.152853
C122	C	0.500227	0.442453	0.347147
C123	C	0.000216	-0.074586	-0.025586
C124	C	0.500216	0.425414	0.474414
C125	C	0.000207	-0.147409	-0.026662
C126	C	0.500207	0.352591	0.473338
C127	C	0.000214	-0.175298	-0.090835
C128	C	0.500214	0.324702	0.409165
C129	C	0.000196	-0.818997	-0.220700
C130	C	0.500196	-0.318997	0.279300
C131	C	0.000205	-0.820138	-0.298204
C132	C	0.500205	-0.320138	0.201796
C133	C	0.000173	-0.891922	0.157062
C134	C	0.500173	-0.391922	0.657062
C135	C	0.000183	-0.890850	0.229886
C136	C	0.500183	-0.390850	0.729886
C137	C	0.000171	-0.826684	0.257782
C138	C	0.500171	-0.326684	0.757782
C139	C	0.000164	-0.763585	0.212849
C140	C	0.500164	-0.263585	0.712849
C141	C	0.000161	-0.764658	0.140026
C142	C	0.500161	-0.264658	0.640026
N143	N	-0.034229	-0.777630	0.365782
N144	N	0.465771	-0.277630	0.865782
N145	N	-0.034227	-0.776615	0.434961
N146	N	0.465773	-0.276615	0.934961
C147	C	0.000182	-0.823446	0.477191
C148	C	0.500182	-0.323446	0.977191
N149	N	0.034581	-0.871342	0.447631
N150	N	0.534581	-0.371342	0.947631
N151	N	0.034577	-0.872359	0.378446
N152	N	0.534577	-0.372359	0.878446
C153	C	0.000175	-0.825513	0.336745
C154	C	0.500175	-0.325513	0.836745
C155	C	0.000203	-0.885379	0.601079
C156	C	0.500203	-0.385379	1.101079
C157	C	0.000216	-0.884305	0.673904
C158	C	0.500216	-0.384305	1.173904
C159	C	0.000192	-0.757038	0.656865
C160	C	0.500192	-0.257038	1.156865
C161	C	0.000184	-0.758114	0.584042
C162	C	0.500184	-0.258114	1.084042
C163	C	0.000187	-0.822287	0.556154
C164	C	0.500187	-0.322287	1.056154
H165	H	-0.149498	-0.910870	-0.006704
H166	H	0.350502	-0.410870	0.493296
H167	H	0.000256	-0.051874	0.026659
H168	H	0.500256	0.448126	0.526659
Br169	Br	-0.867405	-0.712266	-0.205207
Br170	Br	-0.367405	-0.212266	0.294793
Br171	Br	0.000149	-0.679028	0.079054
Br172	Br	0.500149	-0.179028	0.579054
Br173	Br	-0.282240	-0.712218	-0.205243
Br174	Br	0.217760	-0.212218	0.294757
Br175	Br	0.000236	-0.969936	0.734875
Br176	Br	0.500236	-0.469936	1.234875
Br177	Br	-0.717399	-0.936767	0.019182
Br178	Br	-0.217399	-0.436767	0.519182
H179	H	0.000198	-0.183988	0.024713
H180	H	0.500198	0.316012	0.524713
H181	H	-0.734748	-0.738098	-0.179363
H182	H	-0.234748	-0.238098	0.320637
Br183	Br	0.000201	-0.972468	0.563226
Br184	Br	0.500201	-0.472468	1.063226
H185	H	0.000184	-0.704792	0.679578
H186	H	0.500184	-0.204792	1.179578
Br187	Br	-0.574824	-0.664592	-0.252794
Br188	Br	-0.074824	-0.164592	0.247206
H189	H	0.000237	-0.020970	-0.204232
H190	H	0.500237	0.479030	0.295768
Br191	Br	-0.132310	-0.712210	-0.205244
Br192	Br	0.367690	-0.212210	0.294756
H193	H	0.000221	-0.153080	-0.206181
H194	H	0.500221	0.346920	0.293819
Br195	Br	0.000194	-0.979013	0.119216
Br196	Br	0.500194	-0.479013	0.619216
Br197	Br	0.000199	-0.976479	0.290866
Br198	Br	0.500199	-0.476479	0.790866
Br199	Br	0.000155	-0.676502	0.250706
Br200	Br	0.500155	-0.176502	0.750706
Br201	Br	0.000171	-0.672486	0.523070
Br202	Br	0.500171	-0.172486	1.023070
H203	H	-0.442068	-0.958507	0.040921
H204	H	0.057932	-0.458507	0.540921
Br205	Br	0.000143	-0.480745	0.054950
Br206	Br	0.500143	0.019255	0.554950
H207	H	-0.557448	-0.958512	0.040932
H208	H	-0.057448	-0.458512	0.540932
Br209	Br	-0.282132	-0.936730	0.019162
Br210	Br	0.217868	-0.436730	0.519162
H211	H	-0.442168	-0.690439	-0.226955
H212	H	0.057832	-0.190439	0.273045
H213	H	0.000163	-0.597091	-0.212725
H214	H	0.500163	-0.097091	0.287275
H215	H	0.000174	-0.464982	-0.210776
H216	H	0.500174	0.035018	0.289224
H217	H	0.000120	-0.628003	0.018171
H218	H	0.500120	-0.128003	0.518171
Br219	Br	-0.867330	-0.936769	0.019184
Br220	Br	-0.367330	-0.436769	0.519184
