data_functionalizedCrystal
_audit_creation_method	'MofGen! by Chris Wilmer'
_symmetry_space_group_name_H-M	'P1'
_symmetry_Int_Tables_number	1
_symmetry_cell_setting	triclinic
loop_
_symmetry_equiv_pos_as_xyz
  x,y,z
_cell_length_a	10.489741
_cell_length_b	14.519709
_cell_length_c	13.596369
_cell_angle_alpha	89.999709
_cell_angle_beta	89.994306
_cell_angle_gamma	95.890341
loop_
_atom_site_label
_atom_site_type_symbol
_atom_site_fract_x
_atom_site_fract_y
_atom_site_fract_z
O1	O	0.167203	-1.224779	-0.081663
O2	O	0.500537	-0.891446	0.251671
O3	O	0.833870	-0.558113	0.585004
O4	O	0.186894	-0.956410	-0.081693
O5	O	0.520227	-0.623077	0.251641
O6	O	0.853560	-0.289743	0.584974
O7	O	-0.008613	-1.096701	-0.081671
O8	O	0.324720	-0.763368	0.251662
O9	O	0.658054	-0.430035	0.584996
O10	O	0.362710	-1.084488	-0.081684
O11	O	0.696043	-0.751155	0.251649
O12	O	1.029377	-0.417821	0.584982
O13	O	-0.008623	-1.096687	0.081912
O14	O	0.324710	-0.763354	0.415245
O15	O	0.658043	-0.430021	0.748578
O16	O	0.186883	-0.956396	0.081890
O17	O	0.520217	-0.623062	0.415224
O18	O	0.853550	-0.289729	0.748557
O19	O	0.167193	-1.224765	0.081920
O20	O	0.500526	-0.891432	0.415254
O21	O	0.833860	-0.558099	0.748587
Zn22	Zn	0.177037	-1.090578	0.107878
Zn23	Zn	0.510370	-0.757245	0.441211
Zn24	Zn	0.843703	-0.423912	0.774544
Zn25	Zn	0.177050	-1.090597	-0.107650
Zn26	Zn	0.510384	-0.757264	0.225683
Zn27	Zn	0.843717	-0.423930	0.559017
O28	O	0.362700	-1.084474	0.081899
O29	O	0.696033	-0.751141	0.415232
O30	O	1.029366	-0.417807	0.748565
C31	C	0.185971	-0.922038	0.000095
C32	C	0.519304	-0.588705	0.333428
C33	C	0.852637	-0.255371	0.666762
C34	C	0.183221	-0.819642	0.000084
C35	C	0.516554	-0.486308	0.333417
C36	C	0.849888	-0.152975	0.666750
C37	C	-0.056140	-1.095772	0.000120
C38	C	0.277193	-0.762438	0.333453
C39	C	0.610526	-0.429105	0.666786
C40	C	-0.197741	-1.093012	0.000118
C41	C	0.135592	-0.759679	0.333451
C42	C	0.468926	-0.426345	0.666784
N43	N	0.177026	-1.090572	0.254969
N44	N	0.510360	-0.757239	0.588303
N45	N	0.843693	-0.423906	0.921636
C46	C	-0.264951	-1.003749	0.000100
C47	C	0.068383	-0.670415	0.333434
C48	C	0.401716	-0.337082	0.666767
C49	C	-0.357518	-1.045909	0.080760
C50	C	-0.024184	-0.712576	0.414093
C51	C	0.309149	-0.379242	0.747427
C52	C	-0.357482	-1.045944	-0.080520
C53	C	-0.024149	-0.712611	0.252813
C54	C	0.309184	-0.379277	0.586147
C55	C	-0.288443	-1.135209	0.080844
C56	C	0.044890	-0.801876	0.414177
C57	C	0.378224	-0.468542	0.747510
C58	C	-0.288398	-1.135232	-0.080509
C59	C	0.044935	-0.801898	0.252825
C60	C	0.378269	-0.468565	0.586158
C61	C	-0.380938	-1.177457	0.000171
C62	C	-0.047605	-0.844123	0.333504
C63	C	0.285728	-0.510790	0.666837
C64	C	0.410227	-1.085403	0.000106
C65	C	0.743560	-0.752070	0.333439
C66	C	1.076894	-0.418737	0.666772
C67	C	0.551828	-1.088163	0.000101
C68	C	0.885161	-0.754830	0.333435
C69	C	1.218494	-0.421497	0.666768
C70	C	0.168116	-1.259137	0.000130
C71	C	0.501449	-0.925804	0.333464
C72	C	0.834783	-0.592471	0.666797
C73	C	0.170866	-1.361533	0.000135
C74	C	0.504199	-1.028200	0.333469
C75	C	0.837532	-0.694867	0.666802
C76	C	0.173098	-0.444691	0.000129
C77	C	0.506431	-0.111357	0.333462
C78	C	0.839764	0.221976	0.666795
C79	C	0.175909	-0.549014	0.000116
C80	C	0.509242	-0.215681	0.333449
C81	C	0.842575	0.117653	0.666783
C82	C	0.178159	-0.632163	0.000105
C83	C	0.511492	-0.298830	0.333439
C84	C	0.844826	0.034504	0.666772
C85	C	0.180971	-0.736493	0.000094
C86	C	0.514304	-0.403160	0.333428
C87	C	0.847637	-0.069826	0.666761
N88	N	0.177050	-1.090610	-0.254742
N89	N	0.510384	-0.757277	0.078592
N90	N	0.843717	-0.423944	0.411925
C91	C	0.177052	-1.090596	0.656260
C92	C	0.510385	-0.757262	0.989594
C93	C	0.843718	-0.423929	1.322927
C94	C	0.177049	-1.090586	0.544609
C95	C	0.510382	-0.757253	0.877942
C96	C	0.843715	-0.423920	1.211276
C97	C	0.177040	-1.090584	0.455618
C98	C	0.510373	-0.757251	0.788952
C99	C	0.843707	-0.423918	1.122285
C100	C	0.177035	-1.090574	0.343960
C101	C	0.510369	-0.757241	0.677293
C102	C	0.843702	-0.423908	1.010627
H103	H	-0.388140	-1.008134	0.148944
H104	H	-0.054807	-0.674800	0.482277
H105	H	0.278527	-0.341467	0.815610
C106	C	-0.398790	-0.994915	-0.172642
C107	C	-0.065457	-0.661582	0.160691
C108	C	0.267877	-0.328249	0.494024
H109	H	-0.358660	-0.933208	-0.172543
H110	H	-0.025326	-0.599874	0.160790
H111	H	0.308007	-0.266541	0.494124
H112	H	-0.489210	-0.994013	-0.172307
H113	H	-0.155877	-0.660680	0.161026
H114	H	0.177456	-0.327346	0.494359
H115	H	-0.373953	-1.026036	-0.229913
H116	H	-0.040620	-0.692702	0.103420
H117	H	0.292714	-0.359369	0.436754
H118	H	-0.257742	-1.172975	-0.148696
H119	H	0.075591	-0.839641	0.184637
H120	H	0.408924	-0.506308	0.517971
C121	C	-0.196832	-0.904609	0.000196
C122	C	0.136501	-0.571276	0.333530
C123	C	0.469834	-0.237942	0.666863
H124	H	-0.220324	-0.873040	0.057573
H125	H	0.113009	-0.539706	0.390906
H126	H	0.446342	-0.206373	0.724240
H127	H	-0.221456	-0.872581	-0.056523
H128	H	0.111877	-0.539248	0.276811
H129	H	0.445210	-0.205915	0.610144
H130	H	-0.106679	-0.907049	-0.000380
H131	H	0.226654	-0.573716	0.332953
H132	H	0.559987	-0.240382	0.666286
H133	H	-0.431128	-1.250914	0.000224
H134	H	-0.097795	-0.917581	0.333557
H135	H	0.235539	-0.584248	0.666890
C136	C	-0.247338	-1.186172	0.173073
C137	C	0.085995	-0.852838	0.506406
C138	C	0.419329	-0.519505	0.839740
H139	H	-0.156994	-1.187585	0.172534
H140	H	0.176339	-0.854251	0.505868
H141	H	0.509672	-0.520918	0.839201
H142	H	-0.288095	-1.247694	0.173317
H143	H	0.045239	-0.914361	0.506650
H144	H	0.378572	-0.581028	0.839984
H145	H	-0.271547	-1.154658	0.230272
H146	H	0.061786	-0.821324	0.563606
H147	H	0.395120	-0.487991	0.896939
