data_functionalizedCrystal
_audit_creation_method	'MofGen! by Chris Wilmer'
_symmetry_space_group_name_H-M	'P1'
_symmetry_Int_Tables_number	1
_symmetry_cell_setting	triclinic
loop_
_symmetry_equiv_pos_as_xyz
  x,y,z
_cell_length_a	13.032831
_cell_length_b	13.032721
_cell_length_c	13.033255
_cell_angle_alpha	105.142687
_cell_angle_beta	76.666554
_cell_angle_gamma	90.902885
loop_
_atom_site_label
_atom_site_type_symbol
_atom_site_fract_x
_atom_site_fract_y
_atom_site_fract_z
Zn1	Zn	1.617261	-0.734619	-0.889146
Zn2	Zn	1.577758	-0.883949	-0.728354
Zn3	Zn	1.422820	-0.683795	-0.683318
Zn4	Zn	1.422781	-0.883855	-0.883384
O5	O	1.510155	-0.796554	-0.796051
O6	O	1.758254	-0.775738	-0.889076
O7	O	1.540690	-0.836167	-0.571359
O8	O	1.465162	-0.544316	-0.694185
O9	O	1.729231	-0.885449	-0.770942
O10	O	1.608017	-0.581657	-0.845406
O11	O	1.426858	-0.689114	-0.538271
O12	O	1.276582	-0.689023	-0.688598
O13	O	1.465094	-0.885289	-1.035170
O14	O	1.276553	-0.836007	-0.835586
O15	O	1.607978	-0.775647	-1.039403
O16	O	1.540652	-1.030157	-0.765355
O17	O	1.426790	-1.030088	-0.879256
C18	C	1.238651	-0.756990	-0.756581
C19	C	1.122501	-0.740094	-0.739723
C20	C	1.479461	-1.068043	-0.826595
C21	C	1.466429	-1.184206	-0.839712
C22	C	1.070708	-0.805373	-0.804848
C23	C	0.950660	-0.787911	-0.787427
C24	C	1.517017	-1.236010	-0.789261
C25	C	1.503550	-1.356071	-0.802817
C26	C	1.782719	-0.836273	-0.835675
C27	C	1.898870	-0.853199	-0.852561
C28	C	1.540938	-0.836127	-1.077539
C29	C	1.554056	-0.852990	-1.197493
C30	C	1.541000	-0.524013	-0.765415
C31	C	1.554145	-0.407872	-0.752360
C32	C	1.517147	-0.805178	-1.358584
C33	C	1.503581	-0.787744	-1.234604
C34	C	1.479560	-0.757069	-0.515657
C35	C	1.466678	-0.739941	-0.395701
H36	H	1.115242	-0.874186	-0.873504
C37	C	1.626103	-1.347721	-0.680421
H38	H	1.625701	-1.274914	-0.680728
H39	H	1.696064	-1.377934	-0.708446
H40	H	1.600914	-1.353191	-0.607687
H41	H	0.906132	-0.719087	-0.718774
C42	C	1.394451	-1.244357	-0.911621
H43	H	1.394837	-1.317159	-0.911293
H44	H	1.419607	-1.238893	-0.984355
H45	H	1.324491	-1.214132	-0.883561
C46	C	0.959009	-0.946189	-0.945293
H47	H	1.031802	-0.945741	-0.944826
H48	H	0.950844	-0.938654	-1.013565
H49	H	0.931490	-1.011552	-0.934675
C50	C	1.062351	-0.647124	-0.646981
H51	H	0.989555	-0.647587	-0.647437
H52	H	1.089860	-0.581754	-0.657568
H53	H	1.070519	-0.654688	-0.578715
C54	C	1.588998	-1.175860	-0.717354
H55	H	1.588602	-1.103055	-0.717672
H56	H	1.658952	-1.206086	-0.745403
H57	H	1.563831	-1.181319	-0.644614
H58	H	1.450270	-1.400601	-0.856054
H59	H	1.570393	-0.873940	-1.418593
C60	C	1.431639	-0.694851	-1.153550
H61	H	1.431964	-0.695315	-1.080855
H62	H	1.361698	-0.702479	-1.163482
H63	H	1.456889	-0.629443	-1.166298
C64	C	1.626004	-0.945881	-1.278545
H65	H	1.625692	-0.945410	-1.351241
H66	H	1.600769	-1.011289	-1.265798
H67	H	1.695948	-0.938237	-1.268610
C68	C	1.394740	-0.647052	-1.314643
H69	H	1.395065	-0.647516	-1.241948
H70	H	1.324799	-0.654680	-1.324575
H71	H	1.419991	-0.581644	-1.327391
