data_functionalizedCrystal
_audit_creation_method	'MofGen! by Chris Wilmer'
_symmetry_space_group_name_H-M	'P1'
_symmetry_Int_Tables_number	1
_symmetry_cell_setting	triclinic
loop_
_symmetry_equiv_pos_as_xyz
  x,y,z
_cell_length_a	18.215407
_cell_length_b	16.959454
_cell_length_c	18.215399
_cell_angle_alpha	89.976304
_cell_angle_beta	89.980167
_cell_angle_gamma	90.020523
loop_
_atom_site_label
_atom_site_type_symbol
_atom_site_fract_x
_atom_site_fract_y
_atom_site_fract_z
Zn1	Zn	1.125097	-0.314680	-0.416138
Zn2	Zn	1.625097	0.185320	0.083862
Zn3	Zn	1.125015	-0.446866	-0.293080
Zn4	Zn	1.625015	0.053134	0.206920
Zn5	Zn	1.002029	-0.314706	-0.293085
Zn6	Zn	1.502029	0.185294	0.206915
Zn7	Zn	1.002005	-0.446822	-0.416105
Zn8	Zn	1.502005	0.053178	0.083895
O9	O	1.063537	-0.380768	-0.354602
O10	O	1.563537	0.119232	0.145398
O11	O	1.228070	-0.332222	-0.399825
O12	O	1.728070	0.167778	0.100175
O13	O	1.108677	-0.429364	-0.190097
O14	O	1.608677	0.070636	0.309903
O15	O	1.018398	-0.204092	-0.309424
O16	O	1.518398	0.295908	0.190576
O17	O	1.228010	-0.429339	-0.309416
O18	O	1.728010	0.070661	0.190584
O19	O	1.108815	-0.204073	-0.399830
O20	O	1.608815	0.295927	0.100170
O21	O	1.018319	-0.332267	-0.190100
O22	O	1.518319	0.167733	0.309900
O23	O	0.899042	-0.332224	-0.309392
O24	O	1.399042	0.167776	0.190608
O25	O	1.018358	-0.429264	-0.519094
O26	O	1.518358	0.070736	-0.019094
O27	O	0.899024	-0.429289	-0.399775
O28	O	1.399024	0.070711	0.100225
O29	O	1.108792	-0.332180	-0.519118
O30	O	1.608792	0.167820	-0.019118
O31	O	1.108654	-0.557471	-0.309385
O32	O	1.608654	-0.057471	0.190615
O33	O	1.018279	-0.557438	-0.399770
O34	O	1.518279	-0.057438	0.100230
C35	C	0.872330	-0.380755	-0.354581
C36	C	1.372330	0.119245	0.145419
C37	C	0.790531	-0.380768	-0.354589
C38	C	1.290531	0.119232	0.145411
C39	C	0.602348	-0.431389	-0.401593
C40	C	1.102348	0.068611	0.098407
C41	C	0.525489	-0.431392	-0.401602
C42	C	1.025489	0.068608	0.098398
C43	C	0.525478	-0.330162	-0.307628
C44	C	1.025478	0.169838	0.192372
C45	C	0.602335	-0.330156	-0.307623
C46	C	1.102335	0.169844	0.192377
C47	C	0.640768	-0.380774	-0.354604
C48	C	1.140768	0.119226	0.145396
C49	C	0.487052	-0.380782	-0.354618
C50	C	0.987052	0.119218	0.145382
C51	C	0.403718	-0.380785	-0.354628
C52	C	0.903718	0.119215	0.145372
C53	C	0.724107	-0.380771	-0.354596
C54	C	1.224107	0.119229	0.145404
C55	C	1.063475	-0.586135	-0.354590
C56	C	1.563475	-0.086135	0.145410
C57	C	1.063516	-0.673991	-0.354609
C58	C	1.563516	-0.173991	0.145391
C59	C	1.016547	-1.045480	-0.401661
C60	C	1.516547	-0.545480	0.098339
C61	C	1.110731	-1.045454	-0.307618
C62	C	1.610731	-0.545454	0.192382
C63	C	1.110706	-0.962908	-0.307611
C64	C	1.610706	-0.462908	0.192389
C65	C	1.063599	-0.921644	-0.354629
C66	C	1.563599	-0.421644	0.145371
C67	C	1.016518	-0.962926	-0.401654
C68	C	1.516518	-0.462926	0.098346
C69	C	1.157781	-0.921619	-0.260582
C70	C	1.657781	-0.421619	0.239418
C71	C	1.157756	-0.839068	-0.260573
C72	C	1.657756	-0.339068	0.239427
C73	C	1.110653	-0.797803	-0.307595
C74	C	1.610653	-0.297803	0.192405
C75	C	1.063570	-0.839091	-0.354622
C76	C	1.563570	-0.339091	0.145378
C77	C	1.016464	-0.797827	-0.401640
C78	C	1.516464	-0.297827	0.098360
C79	C	0.969384	-0.839113	-0.448672
C80	C	1.469384	-0.339113	0.051328
C81	C	0.969414	-0.921661	-0.448676
C82	C	1.469414	-0.421661	0.051324
C83	C	1.110623	-0.715255	-0.307591
C84	C	1.610623	-0.215255	0.192409
C85	C	1.016435	-0.715273	-0.401634
C86	C	1.516435	-0.215273	0.098366
C87	C	1.255489	-0.380783	-0.354624
C88	C	1.755489	0.119217	0.145376
C89	C	1.337288	-0.380789	-0.354633
C90	C	1.837288	0.119211	0.145367
C91	C	1.063581	-0.380714	-0.546555
C92	C	1.563581	0.119286	-0.046555
C93	C	1.063601	-0.380691	-0.628354
C94	C	1.563601	0.119309	-0.128354
C95	C	1.063619	-0.174600	-0.354631
C96	C	1.563619	0.325400	0.145369
C97	C	1.063653	-0.086744	-0.354643
C98	C	1.563653	0.413256	0.145357
C99	C	1.110707	-0.330092	-0.816562
C100	C	1.610707	0.169908	-0.316562
C101	C	1.110716	-0.330069	-0.893420
C102	C	1.610716	0.169931	-0.393420
C103	C	1.016546	-0.431167	-0.893384
C104	C	1.516546	0.068833	-0.393384
C105	C	1.016534	-0.431186	-0.816527
C106	C	1.516534	0.068814	-0.316527
C107	C	1.063619	-0.380649	-0.778118
C108	C	1.563619	0.119351	-0.278118
C109	C	1.063639	-0.380608	-0.931834
C110	C	1.563639	0.119392	-0.431834
C111	C	1.063649	-0.380583	-1.015168
C112	C	1.563649	0.119417	-0.515168
C113	C	1.063609	-0.380672	-0.694779
C114	C	1.563609	0.119328	-0.194779
C115	C	1.063534	-0.380766	-0.163396
C116	C	1.563534	0.119234	0.336604
C117	C	1.063658	-0.380566	-0.081597
C118	C	1.563658	0.119434	0.418403
H119	H	0.633638	-0.472604	-0.439850
H120	H	1.133638	0.027396	0.060150
O121	O	0.639742	-0.281096	-0.261938
O122	O	1.139742	0.218904	0.238062
C123	C	0.684155	-0.326033	-0.214323
C124	C	1.184155	0.173967	0.285677
H125	H	0.695661	-0.385969	-0.240185
H126	H	1.195661	0.114031	0.259815
H127	H	0.738208	-0.293821	-0.204510
H128	H	1.238208	0.206179	0.295490
H129	H	0.654513	-0.334645	-0.159772
H130	H	1.154513	0.165355	0.340228
H131	H	1.196127	-0.955222	-0.222297
H132	H	1.696127	-0.455222	0.277703
H133	H	0.978184	-0.472355	-0.785225
H134	H	1.478184	0.027645	-0.285225
H135	H	0.978077	-0.681682	-0.439924
H136	H	1.478077	-0.181682	0.060076
H137	H	0.494211	-0.472606	-0.439866
H138	H	0.994211	0.027394	0.060134
O139	O	0.488028	-0.281070	-0.262015
O140	O	0.988028	0.218930	0.237985
C141	C	0.411953	-0.291913	-0.272107
C142	C	0.911953	0.208087	0.227893
H143	H	0.401448	-0.352948	-0.296112
H144	H	0.901448	0.147052	0.203888
H145	H	0.382721	-0.286475	-0.216994
H146	H	0.882721	0.213525	0.283006
H147	H	0.390172	-0.245085	-0.311375
H148	H	0.890172	0.254915	0.188625
H149	H	0.931026	-0.805506	-0.486951
H150	H	1.431026	-0.305506	0.013049
O151	O	0.923784	-0.961854	-0.494390
O152	O	1.423784	-0.461854	0.005610
C153	C	0.965670	-1.009536	-0.541974
C154	C	1.465670	-0.509536	-0.041974
H155	H	1.021462	-1.021869	-0.516073
H156	H	1.521462	-0.521869	-0.016073
H157	H	0.935708	-1.067605	-0.551805
H158	H	1.435708	-0.567605	-0.051805
H159	H	0.973710	-0.977694	-0.596521
H160	H	1.473710	-0.477694	-0.096521
O161	O	0.970839	-1.085702	-0.447275
O162	O	1.470839	-0.585702	0.052725
C163	C	0.980977	-1.167411	-0.437219
C164	C	1.480977	-0.667411	0.062781
H165	H	1.005116	-1.178702	-0.380449
H166	H	1.505116	-0.678702	0.119551
H167	H	0.925861	-1.198824	-0.442165
H168	H	1.425861	-0.698824	0.057835
H169	H	1.020150	-1.190778	-0.480911
H170	H	1.520150	-0.690778	0.019089
H171	H	1.149079	-1.079055	-0.269334
H172	H	1.649079	-0.579055	0.230666
O173	O	1.203561	-0.799089	-0.214871
O174	O	1.703561	-0.299089	0.285129
C175	C	1.245130	-0.853212	-0.173360
C176	C	1.745130	-0.353212	0.326640
H177	H	1.247675	-0.912040	-0.203509
H178	H	1.747675	-0.412040	0.296491
H179	H	1.303111	-0.829324	-0.165566
H180	H	1.803111	-0.329324	0.334434
H181	H	1.218218	-0.862038	-0.117442
H182	H	1.718218	-0.362038	0.382558
O183	O	0.970711	-0.480177	-0.930663
O184	O	1.470711	0.019823	-0.430663
C185	C	0.897366	-0.462919	-0.911859
C186	C	1.397366	0.037081	-0.411859
H187	H	0.893668	-0.399778	-0.890744
H188	H	1.393668	0.100222	-0.390744
H189	H	0.861014	-0.469719	-0.962395
H190	H	1.361014	0.030281	-0.462395
H191	H	0.878108	-0.505306	-0.867234
H192	H	1.378108	-0.005306	-0.367234
O193	O	1.156310	-0.675236	-0.261807
O194	O	1.656310	-0.175236	0.238193
C195	C	1.140255	-0.695442	-0.188446
C196	C	1.640255	-0.195442	0.311554
H197	H	1.111987	-0.755401	-0.186901
H198	H	1.611987	-0.255401	0.313099
H199	H	1.193384	-0.698240	-0.155490
H200	H	1.693384	-0.198240	0.344510
H201	H	1.102414	-0.649025	-0.163626
H202	H	1.602414	-0.149025	0.336374
H203	H	1.149044	-0.288940	-0.785291
H204	H	1.649044	0.211060	-0.285291
O205	O	1.156528	-0.280934	-0.930651
O206	O	1.656528	0.219066	-0.430651
C207	C	1.198066	-0.236322	-0.880265
C208	C	1.698066	0.263678	-0.380265
H209	H	1.200593	-0.268714	-0.825475
H210	H	1.700593	0.231286	-0.325475
H211	H	1.256056	-0.227887	-0.902485
H212	H	1.756056	0.272113	-0.402485
H213	H	1.171139	-0.176290	-0.872094
H214	H	1.671139	0.323710	-0.372094
