data_functionalizedCrystal
_audit_creation_method	'MofGen! by Chris Wilmer'
_symmetry_space_group_name_H-M	'P1'
_symmetry_Int_Tables_number	1
_symmetry_cell_setting	triclinic
loop_
_symmetry_equiv_pos_as_xyz
  x,y,z
_cell_length_a	19.077115
_cell_length_b	13.031981
_cell_length_c	19.076919
_cell_angle_alpha	84.787276
_cell_angle_beta	90.076897
_cell_angle_gamma	94.612413
loop_
_atom_site_label
_atom_site_type_symbol
_atom_site_fract_x
_atom_site_fract_y
_atom_site_fract_z
Zn1	Zn	1.017313	-0.500549	-0.395918
Zn2	Zn	1.008341	-0.666908	-0.263626
Zn3	Zn	0.905665	-0.486688	-0.274945
Zn4	Zn	0.886214	-0.666284	-0.376436
O5	O	0.954384	-0.580107	-0.327731
O6	O	1.113959	-0.528678	-0.381786
O7	O	0.999107	-0.637462	-0.167289
O8	O	0.932371	-0.343744	-0.303883
O9	O	1.107367	-0.650902	-0.284592
O10	O	1.014398	-0.353927	-0.392762
O11	O	0.923671	-0.505055	-0.175604
O12	O	0.805249	-0.504450	-0.284991
O13	O	0.899219	-0.649838	-0.476859
O14	O	0.790959	-0.636398	-0.359556
O15	O	0.995537	-0.528073	-0.491173
O16	O	0.980246	-0.811608	-0.265700
O17	O	0.890519	-0.811150	-0.348581
C18	C	0.772736	-0.568853	-0.321388
C19	C	0.695024	-0.564065	-0.318689
C20	C	0.258387	-0.529676	-0.299340
C21	C	0.331405	-0.534181	-0.301879
C22	C	0.360485	-0.605237	-0.341889
C23	C	0.316542	-0.671784	-0.379367
C24	C	0.243525	-0.667273	-0.376831
C25	C	0.578064	-0.626101	-0.353631
C26	C	0.651086	-0.630609	-0.356162
C27	C	0.665945	-0.493005	-0.278676
C28	C	0.592926	-0.488504	-0.276140
C29	C	0.548990	-0.555048	-0.313621
N30	N	0.435121	-0.609846	-0.344484
N31	N	0.474356	-0.550433	-0.311029
C32	C	0.932317	-0.848922	-0.303814
C33	C	0.922939	-0.963927	-0.293607
C34	C	0.959314	-1.020155	-0.333073
C35	C	0.949623	-1.139019	-0.322525
C36	C	1.136740	-0.591406	-0.334100
C37	C	1.214450	-0.596220	-0.336813
C38	C	0.946209	-0.590432	-0.510094
C39	C	0.942726	-0.594832	-0.587806
C40	C	0.976555	-0.310245	-0.351758
C41	C	0.986003	-0.195246	-0.361997
C42	C	0.991235	-0.533506	-0.631768
C43	C	0.987953	-0.537635	-0.704787
C44	C	0.936166	-0.603098	-0.733842
C45	C	0.887653	-0.664427	-0.689874
C46	C	0.890931	-0.660291	-0.616857
C47	C	0.920980	-0.622260	-0.951420
C48	C	0.917707	-0.626394	-1.024442
C49	C	1.018007	-0.499600	-1.039351
C50	C	1.021284	-0.495475	-0.966332
C51	C	0.972768	-0.556800	-0.922370
N52	N	0.932812	-0.607323	-0.808478
N53	N	0.976119	-0.552568	-0.847735
C54	C	0.962572	-0.569750	-0.146086
C55	C	0.966215	-0.565067	-0.068405
H56	H	0.569256	-0.430650	-0.243554
H57	H	0.340224	-0.729635	-0.411946
N58	N	0.196132	-0.739043	-0.417250
H59	H	0.225631	-0.784744	-0.442979
H60	H	0.163183	-0.783369	-0.383429
H61	H	0.884619	-1.003786	-0.252014
N62	N	1.010070	-0.967359	-0.388172
H63	H	1.059005	-0.988530	-0.377454
H64	H	0.995356	-0.988268	-0.436065
N65	N	1.047095	-0.462906	-0.600433
H66	H	1.077326	-0.424682	-0.639366
H67	H	1.023932	-0.411546	-0.573405
N68	N	0.838615	-0.726445	-0.569438
H69	H	0.848549	-0.713891	-0.518774
H70	H	0.789434	-0.707971	-0.581888
H71	H	0.911300	-1.178874	-0.280929
N72	N	1.036759	-1.142469	-0.417107
H73	H	1.036488	-1.065038	-0.416833
H74	H	1.085666	-1.163722	-0.406356
H75	H	1.027456	-0.487699	-0.740579
N76	N	1.077143	-0.424854	-0.935014
H77	H	1.071780	-0.350983	-0.953931
H78	H	1.071840	-0.431612	-0.882090
N79	N	0.227025	-0.453043	-0.256181
H80	H	0.265942	-0.411571	-0.232829
H81	H	0.199382	-0.404973	-0.287897
H82	H	1.057505	-0.449672	-1.075152
H83	H	0.875533	-0.679703	-1.048095
H84	H	0.881484	-0.672211	-0.915634
N85	N	0.831790	-0.735010	-0.721220
H86	H	0.854897	-0.786434	-0.748243
H87	H	0.801565	-0.773161	-0.682258
N88	N	0.378797	-0.462390	-0.261477
H89	H	0.349296	-0.416691	-0.235747
H90	H	0.407098	-0.504448	-0.226384
H91	H	0.701726	-0.438827	-0.248162
H92	H	0.674760	-0.688472	-0.388746
H93	H	0.542299	-0.680289	-0.384148
