data_functionalizedCrystal
_audit_creation_method	'MofGen! by Chris Wilmer'
_symmetry_space_group_name_H-M	'P1'
_symmetry_Int_Tables_number	1
_symmetry_cell_setting	triclinic
loop_
_symmetry_equiv_pos_as_xyz
  x,y,z
_cell_length_a	12.759395
_cell_length_b	16.959454
_cell_length_c	12.759387
_cell_angle_alpha	90.030080
_cell_angle_beta	90.020509
_cell_angle_gamma	90.021612
loop_
_atom_site_label
_atom_site_type_symbol
_atom_site_fract_x
_atom_site_fract_y
_atom_site_fract_z
Zn1	Zn	1.606229	-0.314607	0.594010
Zn2	Zn	1.606104	-0.446808	0.418333
Zn3	Zn	1.430528	-0.314651	0.418347
Zn4	Zn	1.430504	-0.446751	0.593972
O5	O	1.518341	-0.380704	0.506166
O6	O	1.753234	-0.332150	0.570716
O7	O	1.582770	-0.429318	0.271314
O8	O	1.453898	-0.204034	0.441671
O9	O	1.753141	-0.429276	0.441647
O10	O	1.582985	-0.204002	0.570730
O11	O	1.453776	-0.332223	0.271324
O12	O	1.283503	-0.332169	0.441634
O13	O	1.453857	-0.429181	0.740998
O14	O	1.283486	-0.429222	0.570665
O15	O	1.582962	-0.332095	0.741026
O16	O	1.582747	-0.557411	0.441610
O17	O	1.453734	-0.557370	0.570651
C18	C	1.245374	-0.380695	0.506148
C19	C	1.128597	-0.380710	0.506165
C20	C	1.128617	-0.481935	0.640307
C21	C	1.073766	-0.532554	0.707381
C22	C	0.964045	-0.532564	0.707394
C23	C	0.909171	-0.481947	0.640328
C24	C	0.964022	-0.431328	0.573254
C25	C	1.073746	-0.431326	0.573246
C26	C	0.964002	-0.330100	0.439118
C27	C	1.073723	-0.330093	0.439098
C28	C	0.909128	-0.279483	0.372052
C29	C	0.963979	-0.228867	0.304971
C30	C	1.073707	-0.228860	0.304960
C31	C	1.128574	-0.279474	0.372024
C32	C	1.518253	-0.586071	0.506148
C33	C	1.518311	-0.673927	0.506175
C34	C	1.451262	-1.045411	0.573350
C35	C	1.585713	-1.045394	0.439088
C36	C	1.585676	-0.962848	0.439078
C37	C	1.518430	-0.921580	0.506205
C38	C	1.451221	-0.962858	0.573340
C39	C	1.652877	-0.921565	0.371936
C40	C	1.652842	-0.839014	0.371923
C41	C	1.585601	-0.797744	0.439055
C42	C	1.518389	-0.839026	0.506195
C43	C	1.451143	-0.797758	0.573321
C44	C	1.383936	-0.839039	0.640466
C45	C	1.383979	-0.921588	0.640473
C46	C	1.585558	-0.715195	0.439049
C47	C	1.451102	-0.715205	0.573311
C48	C	1.792374	-0.380714	0.506184
C49	C	1.909151	-0.380719	0.506192
C50	C	1.518420	-0.380627	0.780199
C51	C	1.518454	-0.380594	0.896976
C52	C	1.518458	-0.174536	0.506207
C53	C	1.518508	-0.086679	0.506224
C54	C	1.518322	-0.380724	0.233198
C55	C	1.518492	-0.380535	0.116422
C56	C	1.652900	-0.279505	0.897025
C57	C	1.720138	-0.228949	0.951910
C58	C	1.720164	-0.228920	1.061632
C59	C	1.652942	-0.279451	1.116471
C60	C	1.585704	-0.330007	1.061586
C61	C	1.585688	-0.330032	0.951861
C62	C	1.451254	-0.431091	1.061537
C63	C	1.451233	-0.431125	0.951815
C64	C	1.384033	-0.481622	1.116375
C65	C	1.316799	-0.532183	1.061490
C66	C	1.316777	-0.532211	0.951762
C67	C	1.383995	-0.481681	0.896930
H68	H	0.919385	-0.573778	0.762017
C69	C	1.712481	-1.048099	0.312194
C70	C	1.726681	-0.966927	0.298046
H71	H	1.758020	-1.076105	0.266547
H72	H	1.641876	-1.061628	0.296862
H73	H	1.727934	-1.061616	0.382767
H74	H	1.711221	-0.953408	0.227474
H75	H	1.797302	-0.953393	0.313371
H76	H	1.217915	-0.279475	0.372019
H77	H	1.774867	-0.187806	0.907249
H78	H	1.774908	-0.187748	1.106320
H79	H	1.640272	-0.681588	0.384375
C80	C	1.726171	-0.224367	1.273672
C81	C	1.652964	-0.279416	1.237079
H82	H	1.726185	-0.224351	1.348131
H83	H	1.708027	-0.173373	1.248860
H84	H	1.793953	-0.238055	1.248856
H85	H	1.585181	-0.265724	1.261889
H86	H	1.671102	-0.330421	1.261902
C87	C	1.285805	-0.537053	0.713304
C88	C	1.249225	-0.481936	0.640282
H89	H	1.360264	-0.537051	0.713289
H90	H	1.260947	-0.588035	0.695012
H91	H	1.261025	-0.523444	0.781138
H92	H	1.273998	-0.495548	0.572446
H93	H	1.274094	-0.430943	0.658568
H94	H	1.384054	-0.481592	1.205717
C95	C	1.241893	-0.183893	0.245376
C96	C	1.133997	-0.173216	0.231230
H97	H	1.279108	-0.149536	0.199862
H98	H	1.259841	-0.236978	0.229865
H99	H	1.259904	-0.172393	0.315996
H100	H	1.115984	-0.184722	0.160613
H101	H	1.116042	-0.120118	0.246735
H102	H	1.262067	-0.573317	1.106149
H103	H	1.396346	-0.681609	0.627978
H104	H	0.919293	-0.187655	0.250376
H105	H	1.652896	-0.279531	0.807684
C106	C	1.324181	-0.712500	0.700053
C107	C	1.310021	-0.793671	0.714252
H108	H	1.278554	-0.684491	0.745609
H109	H	1.308831	-0.699025	0.629454
H110	H	1.394762	-0.698933	0.715486
H111	H	1.239442	-0.807239	0.698811
H112	H	1.325364	-0.807152	0.784867
C113	C	1.436638	-1.138183	0.714676
C114	C	1.377390	-1.090785	0.647152
H115	H	1.391030	-1.166198	0.760232
H116	H	1.482364	-1.105932	0.754895
H117	H	1.476689	-1.174572	0.674690
H118	H	1.337344	-1.054391	0.687137
H119	H	1.331645	-1.123039	0.606928
H120	H	1.262012	-0.573371	0.907081
H121	H	1.383988	-0.481702	0.807588
H122	H	1.118456	-0.573764	0.761987
H123	H	0.819830	-0.481953	0.640354
H124	H	1.329262	-0.955206	0.695138
C125	C	1.704116	-0.813656	0.194061
C126	C	1.726724	-0.793644	0.298126
H127	H	1.749735	-0.785649	0.148506
H128	H	1.633539	-0.800165	0.178625
H129	H	1.713760	-0.868727	0.184473
H130	H	1.717072	-0.738573	0.307716
H131	H	1.797318	-0.807130	0.313567
H132	H	0.819787	-0.279491	0.372072
H133	H	1.640456	-1.079000	0.384431
