data_functionalizedCrystal
_audit_creation_method	'MofGen! by Chris Wilmer'
_symmetry_space_group_name_H-M	'P1'
_symmetry_Int_Tables_number	1
_symmetry_cell_setting	triclinic
loop_
_symmetry_equiv_pos_as_xyz
  x,y,z
_cell_length_a	12.645331
_cell_length_b	12.645330
_cell_length_c	12.645323
_cell_angle_alpha	90.026844
_cell_angle_beta	90.021793
_cell_angle_gamma	90.016671
loop_
_atom_site_label
_atom_site_type_symbol
_atom_site_fract_x
_atom_site_fract_y
_atom_site_fract_z
Zn1	Zn	1.620722	-0.422039	0.599446
Zn2	Zn	1.620606	-0.599333	0.422186
Zn3	Zn	1.443439	-0.422081	0.422191
Zn4	Zn	1.443418	-0.599258	0.599402
O5	O	1.532047	-0.510678	0.510806
O6	O	1.769054	-0.445572	0.575949
O7	O	1.597065	-0.575869	0.273840
O8	O	1.467013	-0.273728	0.445724
O9	O	1.768969	-0.575829	0.445717
O10	O	1.597262	-0.273697	0.575953
O11	O	1.466901	-0.445643	0.273843
O12	O	1.295089	-0.445570	0.445681
O13	O	1.466978	-0.575700	0.747755
O14	O	1.295074	-0.575741	0.575877
O15	O	1.597242	-0.445499	0.747788
O16	O	1.597045	-0.747671	0.445674
O17	O	1.466866	-0.747615	0.575873
C18	C	1.256617	-0.510653	0.510776
C19	C	1.138787	-0.510667	0.510788
C20	C	0.971197	-0.428400	0.429333
C21	C	1.093757	-0.428613	0.428974
C22	C	1.094267	-0.622343	0.480273
C23	C	0.971668	-0.621893	0.479717
C24	C	0.971636	-0.482323	0.623072
C25	C	1.094241	-0.479828	0.622448
C26	C	1.531969	-0.786108	0.510791
C27	C	1.532033	-0.903938	0.510821
C28	C	1.450475	-1.071511	0.592982
C29	C	1.450058	-0.948951	0.592717
C30	C	1.501789	-0.948535	0.399099
C31	C	1.501292	-1.071133	0.399597
C32	C	1.644334	-1.071028	0.539475
C33	C	1.643646	-0.948421	0.541918
C34	C	1.808552	-0.510704	0.510838
C35	C	1.926382	-0.510715	0.510851
C36	C	1.532120	-0.510586	0.787312
C37	C	1.532152	-0.510547	0.905142
C38	C	1.532153	-0.234173	0.510844
C39	C	1.532198	-0.116343	0.510861
C40	C	1.532034	-0.510693	0.235377
C41	C	1.532208	-0.510433	0.117547
C42	C	1.450207	-0.592441	0.950003
C43	C	1.449919	-0.592133	1.072563
C44	C	1.502283	-0.398649	1.073044
C45	C	1.501655	-0.399189	0.950446
C46	C	1.644240	-0.539437	0.950333
C47	C	1.643672	-0.541835	1.072939
H48	H	1.124924	-0.646833	0.399115
N49	N	1.578925	-0.315557	1.111636
H50	H	1.652714	-0.333972	1.087270
H51	H	1.577155	-0.312725	1.191435
N52	N	1.577296	-0.315580	0.911124
H53	H	1.634166	-0.349839	0.866742
H54	H	1.610820	-0.278563	0.973488
N55	N	1.576676	-1.110429	0.315755
H56	H	1.576931	-1.190299	0.315418
H57	H	1.650248	-1.083578	0.331487
H58	H	1.419320	-1.099824	0.375357
N59	N	0.932388	-0.705877	0.554932
H60	H	0.994717	-0.743030	0.588298
H61	H	0.888078	-0.758890	0.514809
H62	H	1.559426	-0.919380	0.336240
H63	H	0.942656	-0.542277	0.683810
H64	H	1.123857	-0.345802	0.448100
H65	H	1.420672	-0.917923	0.374420
N66	N	1.393139	-0.366828	0.912557
H67	H	1.391644	-0.366858	0.832699
H68	H	1.376365	-0.293542	0.939530
H69	H	1.671922	-1.101870	0.619558
H70	H	0.940739	-0.402311	0.650823
H71	H	1.666453	-0.919268	0.624140
H72	H	1.707980	-0.486539	1.103564
H73	H	1.123435	-0.685313	0.537783
H74	H	1.123036	-0.447379	0.345814
N75	N	1.725114	-0.460446	0.911891
H76	H	1.796967	-0.479404	0.941173
H77	H	1.704725	-0.387306	0.936673
H78	H	1.123345	-0.397648	0.645458
N79	N	0.930356	-0.452737	0.319765
H80	H	0.888933	-0.390216	0.292335
H81	H	0.882924	-0.516944	0.322613
N82	N	1.134838	-0.553448	0.707211
H83	H	1.182893	-0.608082	0.674284
H84	H	1.073168	-0.589977	0.742422
H85	H	1.421277	-0.373750	1.103746
H86	H	1.468980	-0.918795	0.675558
H87	H	1.469223	-1.100920	0.676094
N88	N	1.680405	-0.645621	0.909387
H89	H	1.624488	-0.676076	0.861120
H90	H	1.692368	-0.695132	0.970884
H91	H	1.366879	-0.572951	1.101889
N92	N	1.724993	-1.109430	0.460260
H93	H	1.758301	-1.046771	0.423628
H94	H	1.689062	-1.155967	0.406159
N95	N	1.728548	-0.907847	0.468450
H96	H	1.799299	-0.937733	0.490355
H97	H	1.731032	-0.828101	0.472159
H98	H	1.367863	-1.102411	0.574266
H99	H	1.366926	-0.919716	0.573760
H100	H	1.468602	-0.675012	1.102653
H101	H	1.468654	-0.675612	0.920527
N102	N	1.673578	-0.650811	1.111455
H103	H	1.615177	-0.679725	1.157611
H104	H	1.741244	-0.646418	1.153686
H105	H	1.367625	-0.573523	0.919191
H106	H	0.941733	-0.345340	0.448254
H107	H	0.943024	-0.645970	0.397678
