data_functionalizedCrystal
_audit_creation_method	'MofGen! by Chris Wilmer'
_symmetry_space_group_name_H-M	'P1'
_symmetry_Int_Tables_number	1
_symmetry_cell_setting	triclinic
loop_
_symmetry_equiv_pos_as_xyz
  x,y,z
_cell_length_a	10.654562
_cell_length_b	19.188930
_cell_length_c	9.130313
_cell_angle_alpha	89.993647
_cell_angle_beta	89.996930
_cell_angle_gamma	83.817442
loop_
_atom_site_label
_atom_site_type_symbol
_atom_site_fract_x
_atom_site_fract_y
_atom_site_fract_z
O1	O	1.665749	0.098101	-0.121914
O2	O	1.300075	0.107434	-0.121898
O3	O	1.493465	0.001181	-0.121878
O4	O	1.472359	0.204354	-0.121934
O5	O	1.493462	0.001184	0.121721
O6	O	1.300073	0.107437	0.121701
O7	O	1.665747	0.098104	0.121685
Cu8	Cu	1.482909	0.102771	0.143936
Cu9	Cu	1.482912	0.102767	-0.144148
O10	O	1.472357	0.204357	0.121665
C11	C	1.253291	0.106749	-0.000096
C12	C	1.113892	0.104693	-0.000088
C13	C	1.048380	0.103735	0.132686
C14	C	0.917398	0.101809	0.132662
C15	C	0.917451	0.101801	-0.132922
C16	C	1.048432	0.103722	-0.132897
C17	C	1.113840	0.104706	0.265495
C18	C	1.048328	0.103750	0.398281
C19	C	0.917347	0.101823	0.398257
C20	C	0.851877	0.100854	0.265447
C21	C	1.492780	-0.024833	-0.000074
C22	C	1.490728	-0.102351	-0.000061
C23	C	1.604203	-0.146530	-0.000059
C24	C	1.602275	-0.219366	-0.000083
C25	C	1.486867	-0.248020	-0.000079
C26	C	1.373377	-0.203832	-0.000089
C27	C	1.375308	-0.130997	-0.000080
N28	N	1.398650	-0.356604	0.082827
N29	N	1.396824	-0.425794	0.082821
C30	C	1.481043	-0.467467	-0.000108
N31	N	1.567176	-0.437337	-0.083014
N32	N	1.569007	-0.368141	-0.083002
C33	C	1.484760	-0.326997	-0.000089
C34	C	1.592435	-0.590624	-0.000134
C35	C	1.590503	-0.663462	-0.000166
C36	C	1.361602	-0.647926	-0.000157
C37	C	1.363537	-0.575090	-0.000140
C38	C	1.478957	-0.546444	-0.000121
C39	C	1.712531	0.098790	-0.000120
C40	C	1.851930	0.100845	-0.000138
C41	C	1.473042	0.230371	-0.000142
C42	C	1.475093	0.307889	-0.000164
N43	N	1.482917	0.102773	0.346558
N44	N	1.482915	0.102760	-0.346771
C45	C	1.568571	0.055740	0.423219
C46	C	1.568568	0.055732	0.576556
C47	C	1.397251	0.149795	0.576558
C48	C	1.397250	0.149799	0.423223
C49	C	1.654238	0.008713	0.346554
C50	C	1.739900	-0.038323	0.423215
C51	C	1.739897	-0.038331	0.576551
C52	C	1.654231	0.008697	0.653227
H53	H	1.101643	0.104534	0.506409
C54	C	1.731169	-0.115023	-0.000051
N55	N	1.826801	-0.091292	-0.000049
C56	C	0.845286	0.100773	0.544321
N57	N	0.791012	0.099988	0.654342
H58	H	1.654228	0.008681	0.778085
C59	C	1.834109	-0.090080	0.660874
N60	N	1.905073	-0.129060	0.724383
H61	H	0.745223	0.099284	0.265439
C62	C	1.120497	0.104781	-0.278956
N63	N	1.174777	0.105578	-0.388971
C64	C	1.727111	-0.267972	-0.000071
N65	N	1.821138	-0.304580	-0.000059
C66	C	1.246427	-0.235353	-0.000074
N67	N	1.150805	-0.259094	-0.000063
H68	H	1.220491	0.106277	0.265530
H69	H	0.864135	0.101013	-0.241049
C70	C	1.250471	-0.082398	-0.000078
N71	N	1.156442	-0.045792	-0.000073
H72	H	1.267634	-0.671255	-0.000161
C73	C	1.303028	0.201522	0.660907
N74	N	1.232058	0.240485	0.724439
H75	H	1.686417	-0.567300	-0.000125
C76	C	1.715341	-0.712060	-0.000156
N77	N	1.809372	-0.748664	-0.000142
H78	H	1.271133	-0.539118	-0.000133
H79	H	1.654251	0.008717	0.221699
H80	H	1.809640	-0.076615	0.360777
H81	H	1.327501	0.188097	0.360806
