data_functionalizedCrystal
_audit_creation_method	'MofGen! by Chris Wilmer'
_symmetry_space_group_name_H-M	'P1'
_symmetry_Int_Tables_number	1
_symmetry_cell_setting	triclinic
loop_
_symmetry_equiv_pos_as_xyz
  x,y,z
_cell_length_a	14.044202
_cell_length_b	19.288865
_cell_length_c	17.766277
_cell_angle_alpha	90.006751
_cell_angle_beta	90.004327
_cell_angle_gamma	88.164474
loop_
_atom_site_label
_atom_site_type_symbol
_atom_site_fract_x
_atom_site_fract_y
_atom_site_fract_z
O1	O	-1.256996	-0.167439	-0.062573
O2	O	-0.981052	-0.161391	-0.062582
O3	O	-1.126997	-0.063797	-0.062562
O4	O	-1.111050	-0.265033	-0.062593
O5	O	-1.126978	-0.063800	0.062626
O6	O	-0.981033	-0.161394	0.062607
O7	O	-1.256976	-0.167441	0.062616
Cu8	Cu	-1.119003	-0.164418	0.074042
Cu9	Cu	-1.119026	-0.164415	-0.074008
O10	O	-1.111031	-0.265035	0.062596
C11	C	-0.945739	-0.158747	0.000011
C12	C	-0.840547	-0.150857	0.000008
C13	C	-0.590084	-0.192387	0.000009
C14	C	-0.647951	-0.136443	0.000017
C15	C	-0.755121	-0.144465	0.000012
C16	C	-0.482904	-0.184366	0.000014
C17	C	-0.292289	-0.170084	0.000021
C18	C	-0.397482	-0.177970	0.000018
C19	C	-1.126474	-0.037889	0.000034
C20	C	-1.124934	0.039314	0.000041
C21	C	-1.111554	-0.290943	-0.000002
C22	C	-1.113094	-0.368146	-0.000014
N23	N	-1.118993	-0.164420	0.178172
C24	C	-1.210568	0.078506	0.000047
C25	C	-1.209121	0.151046	0.000035
C26	C	-1.122035	0.184391	0.000032
C27	C	-1.036390	0.145190	0.000021
C28	C	-1.037839	0.072651	0.000026
C29	C	-1.053569	0.297078	0.043881
C30	C	-1.052123	0.369615	0.043881
C31	C	-1.117561	0.408124	0.000015
C32	C	-1.184461	0.374087	-0.043841
C33	C	-1.185910	0.301549	-0.043837
C34	C	-1.120454	0.263047	0.000027
C35	C	-1.201632	0.525973	0.000008
C36	C	-1.200181	0.598514	-0.000009
C37	C	-1.027447	0.592656	-0.000016
C38	C	-1.028900	0.520117	-0.000007
C39	C	-1.115995	0.486779	0.000009
N40	N	-1.119042	-0.164407	-0.178138
C41	C	-1.176333	-0.210104	0.782456
C42	C	-1.176324	-0.210110	0.703654
C43	C	-1.119035	-0.164408	0.664261
C44	C	-1.061732	-0.118708	0.703677
C45	C	-1.061736	-0.118708	0.782477
C46	C	-1.116679	-0.101632	0.539426
C47	C	-1.116682	-0.101631	0.460627
C48	C	-1.119017	-0.164408	0.421215
C49	C	-1.121369	-0.227189	0.460611
C50	C	-1.121373	-0.227189	0.539411
C51	C	-1.119024	-0.164403	0.578815
C52	C	-1.176300	-0.210115	0.296363
C53	C	-1.176284	-0.210122	0.217559
C54	C	-1.061698	-0.118714	0.217584
C55	C	-1.061709	-0.118713	0.296386
C56	C	-1.119015	-0.164412	0.335770
H57	H	-1.281488	0.051367	0.000057
Cl58	Cl	-1.113746	-0.022703	0.588965
Cl59	Cl	-1.248367	-0.267560	0.831964
H60	H	-1.015085	-0.081498	0.671598
H61	H	-1.222935	-0.247338	0.185476
H62	H	-0.621027	-0.246303	-0.000001
Cl63	Cl	-1.113718	-0.022708	0.411109
Cl64	Cl	-0.600179	-0.053193	0.000028
H65	H	-1.222975	-0.247324	0.671563
H66	H	-1.278857	0.182962	0.000038
Cl67	Cl	-1.270003	0.258761	-0.098973
Cl68	Cl	-1.266731	0.422490	-0.098992
H69	H	-1.272549	0.498828	0.000017
H70	H	-1.269917	0.630423	-0.000008
H71	H	-1.123285	-0.278307	0.571484
H72	H	-0.959168	0.488206	-0.000008
Cl73	Cl	-0.917966	0.634569	-0.000024
Cl74	Cl	-0.968024	0.412397	0.099017
Cl75	Cl	-1.124309	-0.306114	0.411073
H76	H	-1.000278	0.265729	0.079605
Cl77	Cl	-0.926910	0.187108	0.000011
H78	H	-0.968104	0.040741	0.000021
H79	H	-1.015082	-0.081495	0.814561
H80	H	-1.222958	-0.247329	0.328431
Cl81	Cl	-0.989669	-0.061263	0.168069
Cl82	Cl	-0.989687	-0.061259	0.345928
