data_functionalizedCrystal
_audit_creation_method	'MofGen! by Chris Wilmer'
_symmetry_space_group_name_H-M	'P1'
_symmetry_Int_Tables_number	1
_symmetry_cell_setting	triclinic
loop_
_symmetry_equiv_pos_as_xyz
  x,y,z
_cell_length_a	10.654549
_cell_length_b	10.654555
_cell_length_c	11.295483
_cell_angle_alpha	94.137557
_cell_angle_beta	85.853811
_cell_angle_gamma	84.488236
loop_
_atom_site_label
_atom_site_type_symbol
_atom_site_fract_x
_atom_site_fract_y
_atom_site_fract_z
O1	O	1.676233	0.168041	-0.099047
O2	O	1.310756	0.184841	-0.099042
O3	O	1.501890	-0.006297	-0.099045
O4	O	1.485099	0.359180	-0.099045
O5	O	1.485102	0.010465	0.099006
O6	O	1.293968	0.201603	0.099008
O7	O	1.659445	0.184803	0.099004
Cu8	Cu	1.475174	0.194734	0.117090
Cu9	Cu	1.495027	0.174911	-0.117128
O10	O	1.468311	0.375942	0.099006
C11	C	1.255564	0.191988	-0.000016
C12	C	1.116120	0.188293	-0.000015
C13	C	1.492260	-0.044714	-0.000022
C14	C	1.488563	-0.184157	-0.000029
C15	C	0.826148	0.409913	-0.000049
C16	C	0.877689	0.525931	-0.000044
C17	C	1.008706	0.529408	-0.000028
C18	C	1.088186	0.416854	-0.000021
C19	C	1.036645	0.300835	-0.000026
C20	C	0.905623	0.297371	-0.000038
C21	C	1.064579	0.072275	-0.000020
C22	C	0.933562	0.068796	-0.000027
C23	C	1.144059	-0.040279	-0.000013
C24	C	1.092518	-0.156300	-0.000009
C25	C	0.961492	-0.159772	-0.000023
C26	C	0.882020	-0.047222	-0.000032
C27	C	1.463320	-0.427913	0.215901
C28	C	1.455900	-0.353261	0.323861
C29	C	1.459369	-0.222242	0.323861
C30	C	1.470255	-0.165873	0.215890
C31	C	1.477675	-0.240524	0.107930
C32	C	1.474209	-0.371546	0.107942
C33	C	1.495983	-0.258809	-0.107988
C34	C	1.492524	-0.389829	-0.107991
C35	C	1.506869	-0.202439	-0.215959
C36	C	1.514299	-0.277092	-0.323921
C37	C	1.510831	-0.408119	-0.323917
C38	C	1.499944	-0.464481	-0.215951
C39	C	1.714637	0.177657	-0.000025
C40	C	1.854081	0.181351	-0.000034
C41	C	1.477941	0.414358	-0.000020
C42	C	1.481638	0.553801	-0.000020
N43	N	1.461219	0.208676	0.281826
N44	N	1.508992	0.160959	-0.281865
C45	C	1.609446	0.060529	0.531114
C46	C	1.598910	0.071074	0.655778
C47	C	1.429603	0.240303	0.655820
C48	C	1.440140	0.229759	0.531156
C49	C	1.530066	0.139870	0.468808
C50	C	1.540608	0.129332	0.344141
C51	C	1.371296	0.298555	0.344186
C52	C	1.360759	0.309099	0.468850
H53	H	0.719464	0.407095	-0.000041
F54	F	1.227627	0.420558	-0.000024
F55	F	1.177111	-0.276074	-0.000008
F56	F	1.286815	0.383005	0.277863
F57	F	1.283500	-0.036577	-0.000004
H58	H	1.050669	0.623880	-0.000023
H59	H	0.812962	0.617570	-0.000054
H60	H	1.287539	0.382282	0.519628
F61	F	1.444304	-0.413261	0.438765
H62	H	0.919537	-0.254249	-0.000034
F63	F	0.742578	-0.050907	-0.000039
H64	H	1.663548	0.006465	0.706504
H65	H	1.356379	0.313481	0.706600
F66	F	1.496262	-0.603923	-0.215937
H67	H	1.453304	-0.161457	0.411771
F68	F	1.459652	-0.567357	0.215910
H69	H	1.613833	0.056143	0.293378
F70	F	1.705163	-0.035126	0.464758
F71	F	1.473912	-0.026426	0.215896
H72	H	1.509686	-0.095755	-0.215952
H73	H	1.523152	-0.231184	-0.411823
H74	H	1.516863	-0.468892	-0.411831
