data_functionalizedCrystal
_audit_creation_method	'MofGen! by Chris Wilmer'
_symmetry_space_group_name_H-M	'P1'
_symmetry_Int_Tables_number	1
_symmetry_cell_setting	triclinic
loop_
_symmetry_equiv_pos_as_xyz
  x,y,z
_cell_length_a	17.019352
_cell_length_b	16.109301
_cell_length_c	15.186229
_cell_angle_alpha	90.013398
_cell_angle_beta	86.132377
_cell_angle_gamma	83.426237
loop_
_atom_site_label
_atom_site_type_symbol
_atom_site_fract_x
_atom_site_fract_y
_atom_site_fract_z
O1	O	-1.046640	-0.105883	0.006050
O2	O	-0.816975	-0.119400	-0.011349
O3	O	-0.938116	0.008396	-0.002163
O4	O	-0.925498	-0.233678	-0.003137
O5	O	-0.938100	0.008416	0.144293
O6	O	-0.816958	-0.119379	0.135107
O7	O	-1.046623	-0.105862	0.152506
Zn8	Zn	-0.931788	-0.112617	0.167060
Zn9	Zn	-0.931810	-0.112644	-0.025903
O10	O	-0.925482	-0.233658	0.143320
C11	C	-0.787578	-0.118879	0.059653
C12	C	-0.700009	-0.117347	0.053019
C13	C	-0.937597	0.039380	0.071027
C14	C	-0.936065	0.131674	0.070912
C15	C	-0.204743	-0.108654	0.011437
C16	C	-0.287023	-0.110094	0.017681
C17	C	-0.328145	-0.110809	0.100638
C18	C	-0.286984	-0.110075	0.177354
C19	C	-0.204707	-0.108630	0.171109
C20	C	-0.576571	-0.115168	0.123490
C21	C	-0.658854	-0.116616	0.129730
C22	C	-0.658887	-0.116633	-0.029944
C23	C	-0.576607	-0.115192	-0.036182
C24	C	-0.535454	-0.114455	0.040534
C25	C	-0.412248	-0.112283	0.107023
C26	C	-0.451353	-0.112974	0.034148
N27	N	-0.931779	-0.112598	0.298751
C28	C	-0.076020	-0.106385	0.081507
C29	C	-0.163588	-0.107924	0.088147
C30	C	-0.926001	-0.264642	0.070128
C31	C	-0.927533	-0.356936	0.070237
C32	C	-1.004385	0.354012	0.076074
C33	C	-1.002939	0.440731	0.075957
C34	C	-0.859208	0.420720	0.065072
C35	C	-0.860655	0.334003	0.065183
C36	C	-0.933245	0.300651	0.070688
C37	C	-0.930353	0.474087	0.070461
C38	C	-0.928784	0.568112	0.070334
C39	C	-0.934814	0.206620	0.070813
N40	N	-0.931825	-0.112657	-0.157594
C41	C	-0.883978	-0.062241	0.613086
C42	C	-0.883972	-0.062229	0.520896
C43	C	-0.979631	-0.163016	0.528078
C44	C	-0.979642	-0.163023	0.620267
C45	C	-0.931811	-0.112637	0.662768
C46	C	-0.931794	-0.112618	0.478389
C47	C	-0.931787	-0.112605	0.378433
C48	C	-0.931818	-0.112648	0.762731
H49	H	-0.171266	-0.108078	-0.056116
H50	H	-1.018597	-0.204063	0.660719
H51	H	-0.417868	-0.112389	-0.033395
O52	O	-1.026204	-0.211870	0.486839
C53	C	-1.158943	-0.244287	0.468675
C54	C	-1.106295	-0.188886	0.515421
H55	H	-1.223705	-0.225737	0.491780
H56	H	-1.150788	-0.235623	0.394245
H57	H	-1.141298	-0.312566	0.485440
H58	H	-1.123906	-0.120587	0.498728
H59	H	-1.114456	-0.197622	0.589839
O60	O	-0.327030	-0.110659	0.257890
C61	C	-0.428830	-0.040268	0.358317
C62	C	-0.383556	-0.039510	0.267075
H63	H	-0.474531	0.017259	0.365779
H64	H	-0.460169	-0.099063	0.364693
H65	H	-0.385261	-0.039536	0.412056
H66	H	-0.427073	-0.040211	0.213281
H67	H	-0.352206	0.019281	0.260774
H68	H	-0.320529	-0.110684	-0.044785
H69	H	-0.692333	-0.117203	0.197286
O70	O	-1.074965	0.321751	0.081377
C71	C	-1.217372	0.350756	0.092200
C72	C	-1.137494	0.387398	0.086183
H73	H	-1.267949	0.403813	0.096106
H74	H	-1.221699	0.310675	0.031221
H75	H	-1.221601	0.310641	0.153798
H76	H	-1.133212	0.427550	0.024624
H77	H	-1.133203	0.427431	0.147206
O78	O	-0.536791	-0.114452	-0.116836
C79	C	-0.545506	-0.114652	-0.274551
C80	C	-0.590697	-0.115473	-0.183267
H81	H	-0.589067	-0.115496	-0.328285
H82	H	-0.514251	-0.055803	-0.280961
H83	H	-0.499726	-0.172115	-0.281982
H84	H	-0.636515	-0.058051	-0.175774
H85	H	-0.621898	-0.174360	-0.176898
O86	O	-0.788747	0.453220	0.059619
C87	C	-0.703685	0.539459	-0.022720
C88	C	-0.783518	0.502727	-0.016644
H89	H	-0.699424	0.579479	-0.084384
H90	H	-0.699398	0.579624	0.038207
H91	H	-0.653100	0.486410	-0.026508
H92	H	-0.834148	0.555723	-0.012884
H93	H	-0.787735	0.462540	-0.077571
H94	H	-0.802721	0.290554	0.060794
O95	O	-0.837634	-0.013244	0.654478
C96	C	-0.833122	0.099043	0.758215
C97	C	-0.885697	0.043596	0.711421
H98	H	-0.871960	0.145024	0.804250
H99	H	-0.789564	0.058168	0.798134
H100	H	-0.798916	0.135025	0.706847
H101	H	-0.919954	0.007605	0.762730
H102	H	-0.929205	0.084516	0.671486
O103	O	-0.698939	-0.117456	-0.104399
C104	C	-0.782856	-0.191111	-0.190733
C105	C	-0.737549	-0.190278	-0.106365
H106	H	-0.814071	-0.249991	-0.192360
H107	H	-0.828663	-0.133672	-0.191253
H108	H	-0.739323	-0.190310	-0.251083
H109	H	-0.781021	-0.191108	-0.045970
H110	H	-0.691731	-0.247712	-0.105923
H111	H	-0.445739	-0.112866	0.174567
H112	H	-0.171198	-0.108043	0.233575
O113	O	-0.536718	-0.114499	0.198097
C114	C	-0.545380	-0.114596	0.357130
C115	C	-0.590613	-0.115372	0.272705
H116	H	-0.588937	-0.115283	0.417472
H117	H	-0.499641	-0.172089	0.357704
H118	H	-0.514074	-0.055776	0.358710
H119	H	-0.621967	-0.174154	0.271069
H120	H	-0.636307	-0.057839	0.272164
O121	O	-1.072023	0.492598	0.081033
C122	C	-1.153794	0.602128	0.011371
C123	C	-1.075532	0.543423	0.005504
H124	H	-1.156650	0.643247	-0.049677
H125	H	-1.205951	0.563431	0.015269
H126	H	-1.156696	0.643206	0.072907
H127	H	-1.072553	0.502334	-0.056029
H128	H	-1.023412	0.582170	0.001654
O129	O	-0.837432	-0.013254	0.472766
C130	C	-0.742584	0.086747	0.475381
C131	C	-0.795239	0.031305	0.529992
H132	H	-0.708471	0.122801	0.521626
H133	H	-0.698955	0.045867	0.428936
H134	H	-0.781396	0.132665	0.435143
H135	H	-0.756491	-0.014620	0.570282
H136	H	-0.838874	0.072237	0.576381
