data_functionalizedCrystal
_audit_creation_method	'MofGen! by Chris Wilmer'
_symmetry_space_group_name_H-M	'P1'
_symmetry_Int_Tables_number	1
_symmetry_cell_setting	triclinic
loop_
_symmetry_equiv_pos_as_xyz
  x,y,z
_cell_length_a	15.944551
_cell_length_b	11.792241
_cell_length_c	10.268362
_cell_angle_alpha	89.999626
_cell_angle_beta	90.006236
_cell_angle_gamma	96.153923
loop_
_atom_site_label
_atom_site_type_symbol
_atom_site_fract_x
_atom_site_fract_y
_atom_site_fract_z
O1	O	0.115128	-1.505960	0.108177
O2	O	0.448462	-1.172627	0.441510
O3	O	0.781795	-0.839294	0.774843
O4	O	0.126993	-1.175521	0.108207
O5	O	0.460327	-0.842188	0.441541
O6	O	0.793660	-0.508855	0.774874
O7	O	-0.001173	-1.349764	0.108180
O8	O	0.332160	-1.016431	0.441513
O9	O	0.665493	-0.683098	0.774846
O10	O	0.243295	-1.331717	0.108205
O11	O	0.576628	-0.998384	0.441538
O12	O	0.909962	-0.665051	0.774871
O13	O	-0.001179	-1.349749	-0.108421
O14	O	0.332155	-1.016416	0.224912
O15	O	0.665488	-0.683083	0.558246
O16	O	0.126988	-1.175506	-0.108393
O17	O	0.460321	-0.842173	0.224940
O18	O	0.793655	-0.508840	0.558274
O19	O	0.115123	-1.505945	-0.108424
O20	O	0.448456	-1.172612	0.224910
O21	O	0.781790	-0.839278	0.558243
Cu22	Cu	0.121055	-1.340724	-0.128186
Cu23	Cu	0.454388	-1.007391	0.205147
Cu24	Cu	0.787722	-0.674058	0.538481
Cu25	Cu	0.121061	-1.340742	0.127970
Cu26	Cu	0.454395	-1.007409	0.461303
Cu27	Cu	0.787728	-0.674076	0.794636
O28	O	0.243290	-1.331702	-0.108396
O29	O	0.576623	-0.998369	0.224937
O30	O	0.909956	-0.665035	0.558271
C31	C	-0.032473	-1.349008	-0.000121
C32	C	0.300860	-1.015674	0.333212
C33	C	0.634193	-0.682341	0.666546
C34	C	-0.125729	-1.346761	-0.000121
C35	C	0.207604	-1.013428	0.333212
C36	C	0.540937	-0.680095	0.666545
C37	C	0.126245	-1.133229	-0.000089
C38	C	0.459579	-0.799896	0.333244
C39	C	0.792912	-0.466562	0.666578
C40	C	0.124015	-1.007234	-0.000078
C41	C	0.457348	-0.673900	0.333256
C42	C	0.790681	-0.340567	0.666589
C43	C	0.115871	-1.548237	-0.000124
C44	C	0.449204	-1.214904	0.333209
C45	C	0.782538	-0.881571	0.666542
C46	C	0.118102	-1.674233	-0.000127
C47	C	0.451435	-1.340899	0.333206
C48	C	0.784768	-1.007566	0.666539
C49	C	-0.341098	-1.233389	-0.000093
C50	C	-0.007764	-0.900055	0.333240
C51	C	0.325569	-0.566722	0.666574
C52	C	-0.401880	-1.286028	-0.106895
C53	C	-0.068547	-0.952695	0.226438
C54	C	0.264787	-0.619361	0.559772
C55	C	-0.296474	-1.342698	-0.000111
C56	C	0.036860	-1.009365	0.333222
C57	C	0.370193	-0.676031	0.666556
C58	C	-0.401858	-1.286069	0.106656
C59	C	-0.068525	-0.952735	0.439990
C60	C	0.264809	-0.619402	0.773323
C61	C	-0.461404	-1.338765	-0.000095
C62	C	-0.128071	-1.005432	0.333238
C63	C	0.205263	-0.672098	0.666571
C64	C	-0.356028	-1.395367	-0.107001
C65	C	-0.022694	-1.062034	0.226332
C66	C	0.310639	-0.728700	0.559665
C67	C	-0.355999	-1.395392	0.106646
C68	C	-0.022666	-1.062059	0.439979
C69	C	0.310667	-0.728726	0.773313
C70	C	-0.416764	-1.448111	-0.000182
C71	C	-0.083430	-1.114778	0.333151
C72	C	0.249903	-0.781444	0.666484
C73	C	-0.201461	-1.344961	-0.000121
C74	C	0.131872	-1.011627	0.333212
C75	C	0.465206	-0.678294	0.666545
C76	C	-0.556415	-1.336511	-0.000095
C77	C	-0.223082	-1.003177	0.333239
C78	C	0.110251	-0.669844	0.666572
C79	C	0.274590	-1.332459	-0.000093
C80	C	0.607923	-0.999126	0.333241
C81	C	0.941256	-0.665792	0.666574
C82	C	0.367846	-1.334705	-0.000084
C83	C	0.701179	-1.001372	0.333250
C84	C	1.034512	-0.668038	0.666583
N85	N	0.121050	-1.340720	-0.308352
N86	N	0.454383	-1.007387	0.024982
N87	N	0.787717	-0.674053	0.358315
C88	C	0.119913	-0.776555	-0.000116
C89	C	0.453246	-0.443222	0.333218
C90	C	0.786579	-0.109889	0.666551
C91	C	0.122192	-0.904922	-0.000095
C92	C	0.455525	-0.571588	0.333239
C93	C	0.788858	-0.238255	0.666572
C94	C	0.121060	-1.340736	-0.574022
C95	C	0.454393	-1.007403	-0.240689
C96	C	0.787726	-0.674070	0.092644
C97	C	0.121057	-1.340724	-0.426184
C98	C	0.454390	-1.007390	-0.092851
C99	C	0.787723	-0.674057	0.240482
N100	N	0.121060	-1.340756	0.308135
N101	N	0.454393	-1.007422	0.641469
N102	N	0.787726	-0.674089	0.974802
H103	H	-0.308200	-1.142657	-0.000191
H104	H	0.025134	-0.809324	0.333142
H105	H	0.358467	-0.475990	0.666476
C106	C	-0.429335	-1.223560	-0.228862
C107	C	-0.096002	-0.890226	0.104472
C108	C	0.237332	-0.556893	0.437805
N109	N	-0.450012	-1.176501	-0.320722
N110	N	-0.116678	-0.843168	0.012611
N111	N	0.216655	-0.509834	0.345945
C112	C	-0.328745	-1.457761	-0.229121
C113	C	0.004588	-1.124428	0.104212
C114	C	0.337921	-0.791095	0.437546
N115	N	-0.308194	-1.504751	-0.321103
N116	N	0.025140	-1.171418	0.012230
N117	N	0.358473	-0.838084	0.345564
H118	H	-0.449513	-1.538922	-0.000251
H119	H	-0.116179	-1.205589	0.333082
H120	H	0.217154	-0.872256	0.666416
C121	C	-0.429272	-1.223594	0.228635
C122	C	-0.095939	-0.890260	0.561968
C123	C	0.237395	-0.556927	0.895302
N124	N	-0.449916	-1.176531	0.320505
N125	N	-0.116583	-0.843197	0.653838
N126	N	0.216751	-0.509864	0.987172
C127	C	-0.328516	-1.457806	0.228624
C128	C	0.004818	-1.124473	0.561957
C129	C	0.338151	-0.791139	0.895290
N130	N	-0.307813	-1.504807	0.320508
N131	N	0.025521	-1.171474	0.653841
N132	N	0.358854	-0.838141	0.987174
