data_functionalizedCrystal
_audit_creation_method	'MofGen! by Chris Wilmer'
_symmetry_space_group_name_H-M	'P1'
_symmetry_Int_Tables_number	1
_symmetry_cell_setting	triclinic
loop_
_symmetry_equiv_pos_as_xyz
  x,y,z
_cell_length_a	18.101398
_cell_length_b	18.101395
_cell_length_c	18.101389
_cell_angle_alpha	89.983159
_cell_angle_beta	90.009745
_cell_angle_gamma	89.973339
loop_
_atom_site_label
_atom_site_type_symbol
_atom_site_fract_x
_atom_site_fract_y
_atom_site_fract_z
Zn1	Zn	1.132121	0.294995	0.418559
Zn2	Zn	1.132017	0.418821	0.294721
Zn3	Zn	1.008280	0.294988	0.294751
Zn4	Zn	1.008231	0.418790	0.418541
O5	O	1.070162	0.356898	0.356643
O6	O	1.235740	0.311437	0.402126
O7	O	1.115580	0.402404	0.191092
O8	O	1.024772	0.191356	0.311195
O9	O	1.235663	0.402411	0.311143
O10	O	1.115757	0.191361	0.402156
O11	O	1.024671	0.311425	0.191114
O12	O	0.904640	0.311395	0.311178
O13	O	1.024688	0.402358	0.522176
O14	O	0.904604	0.402351	0.402125
O15	O	1.115710	0.311407	0.522189
O16	O	1.115532	0.522450	0.311125
O17	O	1.024587	0.522427	0.402095
C18	C	0.877751	0.356869	0.356653
C19	C	0.795437	0.356875	0.356675
C20	C	0.496346	0.356918	0.356644
C21	C	0.527674	0.414422	0.413583
C22	C	0.613292	0.414242	0.413817
C23	C	0.644729	0.356897	0.356660
C24	C	0.613675	0.278899	0.377985
C25	C	0.528029	0.279244	0.378390
C26	C	0.527894	0.376725	0.278242
C27	C	0.613544	0.378437	0.278661
C28	C	0.728588	0.356881	0.356667
C29	C	0.412487	0.356930	0.356639
C30	C	1.070063	0.549309	0.356621
C31	C	1.070088	0.631623	0.356637
C32	C	1.070205	0.356880	0.549805
C33	C	1.070223	0.356872	0.632119
C34	C	1.263324	0.356928	0.356633
C35	C	1.345638	0.356941	0.356629
C36	C	1.070282	0.163736	0.356681
C37	C	1.070333	0.081422	0.356697
C38	C	1.070251	0.930714	0.356676
C39	C	1.013163	0.899405	0.414054
C40	C	1.012892	0.813787	0.413875
C41	C	1.070170	0.782331	0.356657
C42	C	1.049041	0.813467	0.278611
C43	C	1.048673	0.899112	0.278955
C44	C	1.148592	0.899067	0.376658
C45	C	1.148132	0.813417	0.378369
C46	C	1.070126	0.698472	0.356642
C47	C	1.070293	1.014573	0.356687
C48	C	1.070162	0.356864	0.164232
C49	C	1.070287	0.356663	0.081919
C50	C	1.070266	0.356733	0.931210
C51	C	1.012801	0.413775	0.899877
C52	C	1.012956	0.414040	0.814258
C53	C	1.070244	0.356802	0.782827
C54	C	1.148270	0.377992	0.813914
C55	C	1.147949	0.378366	0.899559
C56	C	1.050385	0.278374	0.899637
C57	C	1.048649	0.278826	0.813987
C58	C	1.070236	0.356839	0.698968
C59	C	1.070279	0.356697	1.015070
H60	H	0.633794	0.401138	0.471908
C61	C	1.170713	0.455753	0.926554
N62	N	1.187855	0.514043	0.946882
C63	C	1.207669	0.323632	0.786407
N64	N	1.252408	0.282688	0.765687
H65	H	0.507308	0.234865	0.338820
H66	H	1.192217	0.338623	0.920287
C67	C	1.030363	0.491766	0.928943
N68	N	1.043596	0.550509	0.950832
C69	C	0.500519	0.320144	0.220926
N70	N	0.479896	0.277527	0.177761
C71	C	1.030675	0.492510	0.786582
N72	N	1.044008	0.551620	0.765737
C73	C	1.174615	0.928189	0.452234
N74	N	1.194206	0.950122	0.509161
H75	H	1.165415	0.434665	0.792469
C76	C	0.974852	0.252298	0.928809
N77	N	0.917957	0.232667	0.950781
C78	C	1.206053	0.926423	0.320204
N79	N	1.249327	0.947032	0.277682
H80	H	0.635139	0.261794	0.434677
H81	H	0.954768	0.400650	0.920477
H82	H	0.955448	0.920985	0.400987
H83	H	0.991229	0.262847	0.793669
C84	C	1.101057	0.218358	0.785070
N85	N	1.140533	0.172814	0.763284
C86	C	0.498689	0.452244	0.252056
N87	N	0.476692	0.509129	0.232341
H88	H	0.633848	0.435832	0.262577
C89	C	1.106931	0.220960	0.927010
N90	N	1.149524	0.177721	0.947630
H91	H	1.164065	0.793065	0.435807
C92	C	1.208634	0.784488	0.326023
N93	N	1.254202	0.762700	0.286589
C94	C	0.934791	0.396123	0.785862
N95	N	0.875913	0.382630	0.764477
H96	H	0.634287	0.472083	0.400452
H97	H	0.954823	0.793357	0.400641
C98	C	0.499818	0.492819	0.395735
N99	N	0.478830	0.551869	0.382291
H100	H	1.026111	0.792735	0.471746
C101	C	0.641157	0.219452	0.323688
N102	N	0.661848	0.174681	0.282782
H103	H	0.634944	0.339594	0.233959
H104	H	0.506163	0.401485	0.471339
C105	C	0.971306	0.926181	0.256091
N106	N	0.913030	0.946565	0.238873
C107	C	1.030839	0.927186	0.492490
N108	N	1.044152	0.948117	0.551569
H109	H	1.088449	0.919824	0.234746
C110	C	0.501061	0.256532	0.455816
N111	N	0.480752	0.239419	0.514134
H112	H	1.089313	0.793092	0.234695
H113	H	0.992380	0.792075	0.261380
