data_functionalizedCrystal
_audit_creation_method	'MofGen! by Chris Wilmer'
_symmetry_space_group_name_H-M	'P1'
_symmetry_Int_Tables_number	1
_symmetry_cell_setting	triclinic
loop_
_symmetry_equiv_pos_as_xyz
  x,y,z
_cell_length_a	23.532407
_cell_length_b	27.732048
_cell_length_c	22.610064
_cell_angle_alpha	89.999096
_cell_angle_beta	89.997161
_cell_angle_gamma	82.745667
loop_
_atom_site_label
_atom_site_type_symbol
_atom_site_fract_x
_atom_site_fract_y
_atom_site_fract_z
O1	O	0.755138	0.058672	-0.049117
O2	O	0.589257	0.067162	-0.049135
O3	O	0.677349	-0.007472	-0.049114
O4	O	0.667046	0.133306	-0.049138
O5	O	0.677334	-0.007461	0.049255
O6	O	0.589241	0.067173	0.049234
O7	O	0.755123	0.058683	0.049252
Zn8	Zn	0.672179	0.062930	0.064861
Zn9	Zn	0.672200	0.062915	-0.064744
O10	O	0.667030	0.133317	0.049231
C11	C	0.568033	0.066952	0.000047
C12	C	0.504818	0.066302	0.000041
C13	C	0.105629	0.106391	0.000061
C14	C	0.046230	0.105787	0.000064
O15	O	0.009406	0.142951	0.000080
N16	N	0.023699	0.061418	0.000071
C17	C	0.060570	0.017649	0.000080
O18	O	0.035951	-0.020147	0.000086
C19	C	0.119967	0.018253	0.000080
C20	C	0.142495	0.062626	0.000068
C21	C	0.128158	0.150760	0.000049
C22	C	0.187552	0.151364	0.000044
C23	C	0.224419	0.107599	0.000051
C24	C	0.201890	0.063229	0.000063
C25	C	0.156837	-0.025515	0.000093
C26	C	0.216239	-0.024907	0.000094
C27	C	0.238766	0.019466	0.000082
C28	C	0.298151	0.020068	0.000065
N29	N	0.320683	0.064437	0.000059
C30	C	0.283817	0.108203	0.000052
C31	C	-0.064170	0.016383	0.000080
C32	C	-0.123567	0.015778	0.000075
C33	C	-0.137902	0.103917	0.000061
C34	C	-0.078505	0.104521	0.000061
C35	C	-0.041639	0.060753	0.000073
C36	C	0.408551	0.109467	0.000041
C37	C	0.467951	0.110067	0.000034
C38	C	0.482282	0.021928	0.000051
C39	C	0.422886	0.021328	0.000055
C40	C	0.386021	0.065102	0.000052
O41	O	0.335010	-0.017077	0.000052
O42	O	0.308444	0.145992	0.000053
C43	C	0.677125	-0.025473	0.000072
C44	C	0.676474	-0.079129	0.000077
C45	C	0.724431	-0.417871	0.000052
C46	C	0.722014	-0.619534	0.000043
O47	O	0.765867	-0.650722	0.000022
N48	N	0.669779	-0.638738	0.000038
C49	C	0.618144	-0.607523	0.000031
O50	O	0.573659	-0.628484	0.000020
C51	C	0.620561	-0.405860	0.000035
C52	C	0.672800	-0.386659	0.000046
C53	C	0.776665	-0.398669	0.000062
C54	C	0.777269	-0.348256	0.000067
C55	C	0.725638	-0.317045	0.000062
C56	C	0.673403	-0.336247	0.000052
C57	C	0.568927	-0.374646	0.000024
C58	C	0.569536	-0.324228	0.000024
C59	C	0.621775	-0.305027	0.000035
C60	C	0.622376	-0.254622	0.000052
N61	N	0.674611	-0.235418	0.000057
C62	C	0.726242	-0.266630	0.000062
C63	C	0.616879	-0.713399	0.000030
C64	C	0.616274	-0.763814	0.000030
C65	C	0.720145	-0.775822	0.000041
C66	C	0.720749	-0.725406	0.000045
C67	C	0.669114	-0.694195	0.000035
C68	C	0.727506	-0.160758	0.000074
C69	C	0.728105	-0.110341	0.000082
C70	C	0.624235	-0.098337	0.000068
C71	C	0.623635	-0.148751	0.000063
C72	C	0.675276	-0.179961	0.000064
O73	O	0.578547	-0.223406	0.000066
O74	O	0.770721	-0.245659	0.000060
C75	C	0.723827	-0.468283	0.000046
C76	C	0.671593	-0.487485	0.000036
C77	C	0.619962	-0.456274	0.000030
C78	C	0.670988	-0.537900	0.000036
C79	C	0.722619	-0.569112	0.000041
C80	C	0.774855	-0.549908	0.000046
C81	C	0.775458	-0.499495	0.000051
C82	C	0.567727	-0.475478	0.000025
C83	C	0.567127	-0.525891	0.000021
C84	C	0.618758	-0.557103	0.000026
C85	C	0.776346	0.058894	0.000068
C86	C	0.839562	0.059544	0.000071
C87	C	0.667254	0.151319	0.000044
C88	C	0.667905	0.204975	0.000035
N89	N	0.672170	0.062939	0.153314
N90	N	0.672214	0.062902	-0.153197
C91	C	0.711209	0.029873	0.561964
C92	C	0.711212	0.029869	0.623884
O93	O	0.744380	0.001762	0.655911
N94	N	0.672200	0.062905	0.654851
C95	C	0.633178	0.095944	0.623894
O96	O	0.599995	0.124044	0.655919
C97	C	0.633173	0.095945	0.561975
C98	C	0.672191	0.062910	0.531012
C99	C	0.750224	-0.003160	0.531001
C100	C	0.750222	-0.003156	0.469085
C101	C	0.711204	0.029881	0.438133
C102	C	0.672189	0.062914	0.469096
C103	C	0.594149	0.128981	0.531020
C104	C	0.594146	0.128979	0.469097
C105	C	0.633165	0.095944	0.438134
C106	C	0.633169	0.095955	0.376229
N107	N	0.672182	0.062919	0.345262
C108	C	0.711199	0.029882	0.376214
C109	C	0.633191	0.095939	0.753928
C110	C	0.633198	0.095941	0.815846
C111	C	0.711232	0.029865	0.815831
C112	C	0.711227	0.029866	0.753912
C113	C	0.672203	0.062903	0.722961
C114	C	0.711192	0.029894	0.246187
C115	C	0.711187	0.029902	0.184266
C116	C	0.633152	0.095976	0.184286
C117	C	0.633158	0.095969	0.246201
C118	C	0.672180	0.062924	0.277150
O119	O	0.600016	0.124047	0.344163
O120	O	0.744372	0.001783	0.344182
H121	H	-0.060167	0.140653	0.000054
H122	H	0.769556	-0.186164	0.000073
H123	H	0.098146	0.186402	0.000045
C124	C	0.753423	-0.006055	0.150618
C125	C	0.723290	-0.035500	0.115112
C126	C	0.762158	-0.068652	0.084124
H127	H	0.776635	-0.025775	0.177891
H128	H	0.777012	0.011152	0.126397
H129	H	0.699710	-0.052705	0.139331
H130	H	0.700080	-0.015794	0.087828
H131	H	0.785748	-0.051445	0.059904
H132	H	0.785369	-0.088368	0.111402
H133	H	0.741719	-0.088631	0.060026
C134	C	0.833968	-0.327385	0.000192
C135	C	0.837359	-0.298803	0.050807
C136	C	0.889588	-0.279577	0.050943
H137	H	0.836424	-0.307935	-0.034072
H138	H	0.864645	-0.353185	0.000224
H139	H	0.806691	-0.273006	0.050770
H140	H	0.834913	-0.318241	0.085079
H141	H	0.920264	-0.305377	0.050975
H142	H	0.892039	-0.260130	0.016677
H143	H	0.891897	-0.260185	0.085287
H144	H	0.762185	-0.801243	0.000045
H145	H	0.763286	-0.709776	0.000054
H146	H	0.781993	-0.030058	0.443879
C147	C	0.590880	0.131865	0.150596
C148	C	0.620949	0.161318	0.115032
C149	C	0.582025	0.194377	0.083981
H150	H	0.567623	0.151587	0.177832
H151	H	0.567340	0.114585	0.126410
H152	H	0.644480	0.178597	0.139215
H153	H	0.644204	0.141609	0.087784
H154	H	0.558485	0.177097	0.059795
H155	H	0.558770	0.214096	0.111222
H156	H	0.602421	0.214362	0.059843
C157	C	0.832711	-0.432573	-0.000053
C158	C	0.835425	-0.461861	-0.050667
C159	C	0.887053	-0.493091	-0.050792
H160	H	0.834687	-0.452535	0.034212
H161	H	0.863917	-0.413926	-0.000079
H162	H	0.804228	-0.480507	-0.050635
H163	H	0.833458	-0.441913	-0.084940
H164	H	0.918259	-0.474444	-0.050819
H165	H	0.889025	-0.513050	-0.016526
H166	H	0.888904	-0.512964	-0.085136
C167	C	0.753501	-0.006064	0.849475
C168	C	0.723423	-0.035530	0.885012
C169	C	0.762339	-0.068635	0.916008
H170	H	0.777070	0.011165	0.873677
H171	H	0.776730	-0.025769	0.822188
H172	H	0.700204	-0.015827	0.912296
H173	H	0.699856	-0.052769	0.860824
H174	H	0.785568	-0.088340	0.888721
H175	H	0.785905	-0.051402	0.940207
H176	H	0.741936	-0.088634	0.940119
C177	C	-0.024119	-0.031126	0.000203
C178	C	0.010390	-0.033362	0.050818
C179	C	0.047283	-0.077122	0.050956
H180	H	-0.000595	-0.032774	-0.034061
H181	H	-0.046029	-0.057649	0.000237
H182	H	0.032298	-0.006847	0.050778
H183	H	-0.013119	-0.031723	0.085090
H184	H	0.025373	-0.103645	0.050990
H185	H	0.070803	-0.078766	0.016690
H186	H	0.070698	-0.078648	0.085300
C187	C	0.559540	-0.784630	-0.000098
C188	C	0.528373	-0.768750	-0.050719
C189	C	0.476108	-0.787918	-0.050865
H190	H	0.538226	-0.773911	0.034162
H191	H	0.566545	-0.819128	-0.000130
H192	H	0.521367	-0.734259	-0.050682
H193	H	0.549670	-0.779468	-0.084987
H194	H	0.483113	-0.822416	-0.050896
H195	H	0.454799	-0.777198	-0.016602
H196	H	0.454957	-0.777150	-0.085213
H197	H	0.574829	-0.687991	0.000022
C198	C	0.512150	-0.395390	-0.000022
C199	C	0.467071	-0.357257	-0.000046
C200	C	0.414757	-0.376346	-0.000097
H201	H	0.509659	-0.414801	0.034270
H202	H	0.509729	-0.414791	-0.034341
H203	H	0.469491	-0.337864	0.034271
H204	H	0.469543	-0.337843	-0.034335
H205	H	0.412336	-0.395747	-0.034416
H206	H	0.412272	-0.395756	0.034196
H207	H	0.384165	-0.350476	-0.000118
H208	H	0.527488	-0.298818	0.000014
H209	H	-0.167930	0.139553	0.000058
H210	H	-0.141903	-0.020355	0.000076
H211	H	0.601432	0.122847	0.841052
C212	C	0.568138	-0.064501	-0.000035
C213	C	0.536666	-0.073147	-0.050644
C214	C	0.484983	-0.041989	-0.050760
H215	H	0.575904	-0.031710	-0.000064
H216	H	0.546657	-0.070298	0.034245
H217	H	0.558142	-0.067345	-0.084915
H218	H	0.528885	-0.105931	-0.050626
H219	H	0.463502	-0.047786	-0.016480
H220	H	0.492755	-0.009200	-0.050788
H221	H	0.463621	-0.047854	-0.085095
H222	H	0.138506	-0.061648	0.000104
C223	C	0.590800	0.131871	0.720433
C224	C	0.556650	0.160808	0.760811
C225	C	0.517599	0.193917	0.729981
H226	H	0.567187	0.114646	0.696279
H227	H	0.611091	0.151934	0.696290
H228	H	0.536360	0.140748	0.784944
H229	H	0.580247	0.178044	0.784967
H230	H	0.537891	0.213979	0.705839
H231	H	0.493990	0.176687	0.705828
H232	H	0.494428	0.213557	0.757373
C233	C	0.256169	-0.072481	0.000073
C234	C	0.223721	-0.111465	0.000068
C235	C	0.260484	-0.155297	0.000038
H236	H	0.279653	-0.074144	0.034365
H237	H	0.279630	-0.074110	-0.034247
H238	H	0.200271	-0.109838	0.034384
H239	H	0.200239	-0.109818	-0.034222
H240	H	0.283945	-0.156925	-0.034281
H241	H	0.283966	-0.156955	0.034331
H242	H	0.238474	-0.181753	0.000029
H243	H	0.581099	-0.164385	0.000070
H244	H	0.817996	-0.483866	0.000060
C245	C	0.830851	-0.583880	0.000019
C246	C	0.819133	-0.632140	-0.000002
C247	C	0.870699	-0.663451	-0.000039
H248	H	0.852330	-0.578155	0.034315
H249	H	0.852298	-0.578114	-0.034296
H250	H	0.797696	-0.637904	0.034310
H251	H	0.797663	-0.637880	-0.034296
H252	H	0.892146	-0.657684	-0.034355
H253	H	0.892174	-0.657721	0.034257
H254	H	0.862756	-0.696198	-0.000059
H255	H	0.781997	-0.030065	0.556197
C256	C	0.211921	0.199579	-0.000057
C257	C	0.193127	0.226016	-0.050662
C258	C	0.215550	0.270440	-0.050770
H259	H	0.252574	0.193753	-0.000088
H260	H	0.199215	0.217614	0.034226
H261	H	0.205836	0.207985	-0.084936
H262	H	0.152477	0.231856	-0.050642
H263	H	0.202844	0.288475	-0.016486
H264	H	0.256202	0.264609	-0.050799
H265	H	0.202797	0.288385	-0.085101
H266	H	0.524585	-0.541520	0.000017
C267	C	0.753622	-0.006006	0.279676
C268	C	0.787794	-0.034922	0.239297
C269	C	0.826892	-0.067992	0.270124
H270	H	0.733385	-0.026091	0.303832
H271	H	0.777209	0.011265	0.303817
H272	H	0.764209	-0.052192	0.215166
H273	H	0.808043	-0.014851	0.215139
H274	H	0.850480	-0.050722	0.294265
H275	H	0.806651	-0.088073	0.294280
H276	H	0.850086	-0.087613	0.242732
H277	H	0.525681	-0.450070	0.000020
C278	C	0.753613	-0.006058	0.720405
C279	C	0.787773	-0.034995	0.760772
C280	C	0.826820	-0.068100	0.729930
H281	H	0.777219	0.011170	0.696243
H282	H	0.733319	-0.026121	0.696268
H283	H	0.808065	-0.014935	0.784899
H284	H	0.764182	-0.052234	0.784935
H285	H	0.806526	-0.088163	0.705794
H286	H	0.850423	-0.050868	0.705770
H287	H	0.849999	-0.087741	0.757315
C288	C	0.551718	0.164870	0.564520
C289	C	0.517541	0.193787	0.524148
C290	C	0.478440	0.226851	0.554985
H291	H	0.571953	0.184954	0.588675
H292	H	0.528134	0.147594	0.588662
H293	H	0.541122	0.211061	0.500016
H294	H	0.497293	0.173716	0.499991
H295	H	0.454856	0.209575	0.579127
H296	H	0.498680	0.246932	0.579139
H297	H	0.455243	0.246472	0.527598
C298	C	0.551869	0.164874	0.435418
C299	C	0.581938	0.194331	0.399859
C300	C	0.543013	0.227399	0.368821
H301	H	0.528618	0.184593	0.462662
H302	H	0.528323	0.147601	0.411230
H303	H	0.605474	0.211602	0.424045
H304	H	0.605187	0.174625	0.372604
H305	H	0.519468	0.210126	0.344633
H306	H	0.519764	0.247115	0.396070
H307	H	0.563409	0.247386	0.344687
H308	H	0.404543	-0.014804	0.000057
C309	C	0.590730	0.131857	0.279715
C310	C	0.556551	0.160782	0.239352
C311	C	0.517449	0.193837	0.270199
H312	H	0.610964	0.151937	0.303878
H313	H	0.567147	0.114575	0.303852
H314	H	0.580131	0.178062	0.215226
H315	H	0.536304	0.140715	0.215189
H316	H	0.493866	0.176556	0.294336
H317	H	0.537688	0.213914	0.294360
H318	H	0.494250	0.213464	0.242818
H319	H	0.486290	0.146202	0.000023
H320	H	0.512309	-0.013704	0.000054
H321	H	0.378542	0.145112	0.000040
H322	H	0.770646	-0.094710	0.000092
