data_functionalizedCrystal
_audit_creation_method	'MofGen! by Chris Wilmer'
_symmetry_space_group_name_H-M	'P1'
_symmetry_Int_Tables_number	1
_symmetry_cell_setting	triclinic
loop_
_symmetry_equiv_pos_as_xyz
  x,y,z
_cell_length_a	10.685661
_cell_length_b	10.685194
_cell_length_c	11.169409
_cell_angle_alpha	94.405531
_cell_angle_beta	94.387276
_cell_angle_gamma	89.666413
loop_
_atom_site_label
_atom_site_type_symbol
_atom_site_fract_x
_atom_site_fract_y
_atom_site_fract_z
Zn1	Zn	1.879763	-0.646589	0.768232
Zn2	Zn	1.863570	-0.856426	0.551058
Zn3	Zn	1.669958	-0.630560	0.553459
Zn4	Zn	1.653902	-0.840227	0.737618
O5	O	1.766798	-0.743450	0.652592
O6	O	2.053166	-0.687912	0.751231
O7	O	1.837830	-0.826535	0.383417
O8	O	1.711285	-0.457123	0.595767
O9	O	2.041269	-0.842078	0.591673
O10	O	1.865428	-0.468899	0.753560
O11	O	1.695583	-0.660592	0.385182
O12	O	1.492277	-0.644885	0.566081
O13	O	1.683920	-0.814470	0.909638
O14	O	1.480481	-0.798927	0.701382
O15	O	1.849859	-0.672205	0.932130
O16	O	1.822261	-1.029840	0.561988
O17	O	1.668219	-1.017939	0.699053
C18	C	1.440861	-0.718410	0.630671
C19	C	1.301421	-0.707728	0.621319
C20	C	1.741775	-1.069414	0.626966
C21	C	1.731184	-1.208872	0.616051
C22	C	2.094008	-0.768590	0.674599
C23	C	2.233446	-0.779303	0.683977
C24	C	1.766905	-0.743319	0.965652
C25	C	1.766951	-0.743262	1.099059
C26	C	1.791954	-0.416217	0.678346
C27	C	1.802673	-0.276769	0.689321
C28	C	1.766771	-0.743497	0.340762
C29	C	1.766995	-0.743218	0.207399
H30	H	1.281932	-0.848756	0.744783
H31	H	1.252942	-0.638268	0.560529
O32	O	1.885340	-1.218652	0.774025
C33	C	1.877859	-1.087679	0.766450
H34	H	1.838150	-1.066864	0.672403
H35	H	1.813807	-1.045351	0.835969
C36	C	2.058625	-1.055471	0.906820
C37	C	2.009863	-1.029906	0.791306
H38	H	2.140050	-1.019832	0.922157
H39	H	2.063663	-1.143710	0.911927
H40	H	2.005237	-1.020197	0.964739
H41	H	2.063243	-1.065194	0.733388
H42	H	2.004837	-0.941672	0.786189
O43	O	1.648411	-1.266929	0.531395
C44	C	1.561633	-1.336492	0.588348
H45	H	1.604372	-1.359283	0.680807
H46	H	1.472444	-1.278982	0.599107
C47	C	1.477092	-1.431387	0.397567
C48	C	1.529590	-1.459389	0.511124
H49	H	1.457321	-1.507193	0.349931
H50	H	1.535553	-1.384518	0.359196
H51	H	1.402775	-1.383460	0.406550
H52	H	1.603913	-1.507302	0.502141
H53	H	1.471140	-1.506270	0.549491
