data_functionalizedCrystal
_audit_creation_method	'MofGen! by Chris Wilmer'
_symmetry_space_group_name_H-M	'P1'
_symmetry_Int_Tables_number	1
_symmetry_cell_setting	triclinic
loop_
_symmetry_equiv_pos_as_xyz
  x,y,z
_cell_length_a	18.101398
_cell_length_b	18.101397
_cell_length_c	21.395356
_cell_angle_alpha	89.970896
_cell_angle_beta	89.970615
_cell_angle_gamma	90.018196
loop_
_atom_site_label
_atom_site_type_symbol
_atom_site_fract_x
_atom_site_fract_y
_atom_site_fract_z
Zn1	Zn	1.132209	-0.294893	-0.354352
Zn2	Zn	1.632209	0.205107	0.145648
Zn3	Zn	1.132118	-0.418736	-0.249572
Zn4	Zn	1.632118	0.081264	0.250428
Zn5	Zn	1.008358	-0.294908	-0.249578
Zn6	Zn	1.508358	0.205092	0.250422
Zn7	Zn	1.008342	-0.418692	-0.354302
Zn8	Zn	1.508342	0.081308	0.145698
O9	O	1.070257	-0.356807	-0.301951
O10	O	1.570257	0.143193	0.198049
O11	O	1.235830	-0.311333	-0.340471
O12	O	1.735830	0.188667	0.159529
O13	O	1.115670	-0.402335	-0.161895
O14	O	1.615670	0.097665	0.338105
O15	O	1.024832	-0.191273	-0.263500
O16	O	1.524832	0.308727	0.236500
O17	O	1.235763	-0.402320	-0.263490
O18	O	1.735763	0.097680	0.236510
O19	O	1.115825	-0.191262	-0.340477
O20	O	1.615825	0.308738	0.159523
O21	O	1.024744	-0.311359	-0.161899
O22	O	1.524744	0.188641	0.338101
O23	O	0.904723	-0.311316	-0.263451
O24	O	1.404723	0.188684	0.236549
O25	O	1.024804	-0.402246	-0.441986
O26	O	1.524804	0.097754	0.058014
O27	O	0.904711	-0.402260	-0.340391
O28	O	1.404711	0.097740	0.159609
O29	O	1.115809	-0.311291	-0.442023
O30	O	1.615809	0.188709	0.057977
O31	O	1.115654	-0.522363	-0.263441
O32	O	1.615654	-0.022363	0.236559
O33	O	1.024716	-0.522331	-0.340385
O34	O	1.524716	-0.022331	0.159615
C35	C	0.877846	-0.356786	-0.301917
C36	C	1.377846	0.143214	0.198083
C37	C	0.795532	-0.356794	-0.301917
C38	C	1.295532	0.143206	0.198083
C39	C	0.644824	-0.356809	-0.301945
C40	C	1.144824	0.143191	0.198055
C41	C	0.613453	-0.299508	-0.253618
C42	C	1.113453	0.200492	0.246382
C43	C	0.527835	-0.299292	-0.253776
C44	C	1.027835	0.200708	0.246224
C45	C	0.496441	-0.356824	-0.301972
C46	C	0.996441	0.143176	0.198028
C47	C	0.527584	-0.335994	-0.368079
C48	C	1.027584	0.164006	0.131921
C49	C	0.613228	-0.335570	-0.367784
C50	C	1.113228	0.164430	0.132216
C51	C	0.613233	-0.435089	-0.284750
C52	C	1.113233	0.064911	0.215250
C53	C	0.527581	-0.434677	-0.283309
C54	C	1.027581	0.065323	0.216691
C55	C	0.412582	-0.356834	-0.301991
C56	C	0.912582	0.143166	0.198009
C57	C	0.728683	-0.356798	-0.301931
C58	C	1.228683	0.143202	0.198069
C59	C	1.070194	-0.549218	-0.301921
C60	C	1.570194	-0.049218	0.198079
C61	C	1.070234	-0.631532	-0.301929
C62	C	1.570234	-0.131532	0.198071
C63	C	1.070329	-0.930623	-0.301986
C64	C	1.570329	-0.430623	0.198014
C65	C	1.127385	-0.899287	-0.253445
C66	C	1.627385	-0.399287	0.246555
C67	C	1.127583	-0.813669	-0.253571
C68	C	1.627583	-0.313669	0.246429
C69	C	1.070282	-0.782241	-0.301957
C70	C	1.570282	-0.282241	0.198043
C71	C	1.091444	-0.813251	-0.368001
C72	C	1.591444	-0.313251	0.131999
C73	C	1.091886	-0.898896	-0.367737
C74	C	1.591886	-0.398896	0.132263
C75	C	0.991958	-0.899128	-0.285054
C76	C	1.491958	-0.399128	0.214946
C77	C	0.992345	-0.813479	-0.283580
C78	C	1.492345	-0.313479	0.216420
C79	C	1.070254	-0.698381	-0.301945
C80	C	1.570254	-0.198381	0.198055
C81	C	1.070358	-1.014483	-0.302002
C82	C	1.570358	-0.514483	0.197998
C83	C	1.263419	-0.356830	-0.301986
C84	C	1.763419	0.143170	0.198014
C85	C	1.345733	-0.356839	-0.302000
C86	C	1.845733	0.143161	0.198000
C87	C	1.070315	-0.356762	-0.465374
C88	C	1.570315	0.143238	0.034626
C89	C	1.070340	-0.356742	-0.535016
C90	C	1.570340	0.143258	-0.035016
C91	C	1.070341	-0.163646	-0.301995
C92	C	1.570341	0.336354	0.198005
C93	C	1.070376	-0.081331	-0.302014
C94	C	1.570376	0.418669	0.197986
C95	C	1.023008	-0.309366	-0.567721
C96	C	1.523008	0.190634	-0.067721
C97	C	1.023005	-0.309352	-0.633157
C98	C	1.523005	0.190648	-0.133157
C99	C	1.070348	-0.356707	-0.665884
C100	C	1.570348	0.143293	-0.165884
C101	C	1.117684	-0.404093	-0.633170
C102	C	1.617684	0.095907	-0.133170
C103	C	1.117680	-0.404110	-0.567736
C104	C	1.617680	0.095890	-0.067736
C105	C	1.137074	-0.362532	-0.769576
C106	C	1.637074	0.137468	-0.269576
C107	C	1.137079	-0.362509	-0.835009
C108	C	1.637079	0.137491	-0.335009
C109	C	1.070360	-0.356657	-0.867705
C110	C	1.570360	0.143343	-0.367705
C111	C	1.003634	-0.350812	-0.834960
C112	C	1.503634	0.149188	-0.334960
C113	C	1.003630	-0.350830	-0.769526
C114	C	1.503630	0.149170	-0.269526
C115	C	1.070358	-0.356693	-0.736836
C116	C	1.570358	0.143307	-0.236836
C117	C	1.023021	-0.309263	-0.971363
C118	C	1.523021	0.190737	-0.471363
C119	C	1.023017	-0.309254	-1.036800
C120	C	1.523017	0.190746	-0.536800
C121	C	1.117703	-0.403991	-1.036812
C122	C	1.617703	0.096009	-0.536812
C123	C	1.117700	-0.404004	-0.971377
C124	C	1.617700	0.095996	-0.471377
C125	C	1.070360	-0.356636	-0.938656
C126	C	1.570360	0.143364	-0.438656
C127	C	1.070242	-0.356800	-0.139163
C128	C	1.570242	0.143200	0.360837
C129	C	1.070360	-0.356611	-0.069523
C130	C	1.570360	0.143389	0.430477
H131	H	0.507363	-0.241292	-0.265193
H132	H	1.007363	0.258708	0.234807
H133	H	1.185635	-0.793128	-0.264774
H134	H	1.685635	-0.293128	0.235226
Cl135	Cl	1.107197	-0.931160	-0.177609
Cl136	Cl	1.607197	-0.431160	0.322391
Cl137	Cl	0.644103	-0.247242	-0.390223
Cl138	Cl	1.144103	0.252758	0.109777
Cl139	Cl	0.644577	-0.501003	-0.339078
Cl140	Cl	1.144577	-0.001003	0.160922
Cl141	Cl	0.496199	-0.398466	-0.425215
Cl142	Cl	0.996199	0.101534	0.074785
H143	H	1.149171	-0.918817	-0.382079
H144	H	1.649171	-0.418817	0.117921
Cl145	Cl	0.923177	-0.780463	-0.334167
Cl146	Cl	1.423177	-0.280463	0.165833
Cl147	Cl	0.646702	-0.210459	-0.271016
Cl148	Cl	1.146702	0.289541	0.228984
Cl149	Cl	0.963487	-0.249711	-1.077916
Cl150	Cl	1.463487	0.250289	-0.577916
Cl151	Cl	0.494500	-0.248643	-0.390917
Cl152	Cl	0.994500	0.251357	0.109083
Cl153	Cl	0.967702	-0.782193	-0.208542
Cl154	Cl	1.467702	-0.282193	0.291458
Cl155	Cl	0.919753	-0.343450	-0.876056
Cl156	Cl	1.419753	0.156550	-0.376056
H157	H	0.507224	-0.450389	-0.234657
H158	H	1.007224	0.049611	0.265343
H159	H	1.156227	-0.442689	-0.541108
H160	H	1.656227	0.057311	-0.041108
H161	H	1.052149	-0.919622	-0.405151
H162	H	1.552149	-0.419622	0.094849
H163	H	0.949447	-0.919394	-0.320408
H164	H	1.449447	-0.419394	0.179592
H165	H	1.156252	-0.442547	-1.063458
H166	H	1.656252	0.057453	-0.563458
Cl167	Cl	0.645191	-0.319319	-0.177702
Cl168	Cl	1.145191	0.180681	0.322298
Cl169	Cl	1.107093	-0.781299	-0.177973
Cl170	Cl	1.607093	-0.281299	0.322027
H171	H	0.506205	-0.479633	-0.315919
H172	H	1.006205	0.020367	0.184081
H173	H	0.984463	-0.270769	-0.659791
H174	H	1.484463	0.229231	-0.159791
Cl175	Cl	0.646515	-0.464457	-0.211565
Cl176	Cl	1.146515	0.035543	0.288435
Cl177	Cl	0.963491	-0.249821	-0.526590
Cl178	Cl	1.463491	0.250179	-0.026590
Cl179	Cl	1.220957	-0.369895	-0.728479
Cl180	Cl	1.720957	0.130105	-0.228479
H181	H	1.156245	-0.442581	-0.944748
H182	H	1.656245	0.057419	-0.444748
H183	H	0.949299	-0.346072	-0.742867
H184	H	1.449299	0.153928	-0.242867
H185	H	0.984474	-0.270694	-0.944721
H186	H	1.484474	0.229306	-0.444721
H187	H	1.185120	-0.920758	-0.264519
H188	H	1.685120	-0.420758	0.235481
H189	H	0.633985	-0.375508	-0.405039
H190	H	1.133985	0.124492	0.094961
Cl191	Cl	1.220962	-0.369865	-0.876167
Cl192	Cl	1.720962	0.130135	-0.376167
H193	H	1.156231	-0.442649	-0.659821
H194	H	1.656231	0.057351	-0.159821
H195	H	0.506775	-0.312288	-0.204767
H196	H	1.006775	0.187712	0.295233
H197	H	1.051158	-0.792891	-0.405141
H198	H	1.551158	-0.292891	0.094859
H199	H	1.148088	-0.791746	-0.382585
H200	H	1.648088	-0.291746	0.117415
Cl201	Cl	0.962236	-0.932567	-0.211988
Cl202	Cl	1.462236	-0.432567	0.288012
