data_functionalizedCrystal
_audit_creation_method	'MofGen! by Chris Wilmer'
_symmetry_space_group_name_H-M	'P1'
_symmetry_Int_Tables_number	1
_symmetry_cell_setting	triclinic
loop_
_symmetry_equiv_pos_as_xyz
  x,y,z
_cell_length_a	6.817900
_cell_length_b	10.773890
_cell_length_c	12.908943
_cell_angle_alpha	96.348342
_cell_angle_beta	100.860631
_cell_angle_gamma	96.645716
loop_
_atom_site_label
_atom_site_type_symbol
_atom_site_fract_x
_atom_site_fract_y
_atom_site_fract_z
V1	V	-3.962230	-0.171045	-0.326980
O2	O	-3.986261	0.009822	-0.322523
O3	O	-3.880248	-0.340696	-0.323044
O4	O	-3.901169	-0.167711	-0.470363
O5	O	-3.965195	-0.164360	-0.174184
V6	V	-4.451850	-0.149495	-0.308911
O7	O	-4.210114	-0.218319	-0.366616
O8	O	-4.654163	-0.102221	-0.269275
O9	O	-4.310625	0.020155	-0.312847
O10	O	-4.545215	-0.330362	-0.313368
O11	O	-4.566281	-0.156180	-0.461707
O12	O	-4.289704	-0.152829	-0.165528
C13	C	-3.717489	-0.382075	-0.317447
C14	C	-3.731662	-0.520761	-0.315185
C15	C	-3.744175	-0.161414	-0.505366
C16	C	-3.775313	-0.159811	-0.622571
C17	C	-3.909390	-0.588605	-0.319116
C18	C	-3.924042	-0.731945	-0.316778
C19	C	-4.194624	-0.169178	-0.853424
C20	C	-4.223890	-0.167672	-0.963549
C21	C	-3.863112	-0.155284	-0.952946
C22	C	-3.833846	-0.156790	-0.842821
C23	C	-3.999610	-0.163739	-0.793064
C24	C	-3.970343	-0.165254	-0.682939
C25	C	-3.609567	-0.152857	-0.672337
C26	C	-3.638832	-0.151351	-0.782462
C27	C	-4.136725	0.061528	-0.318441
C28	C	-4.101790	0.200213	-0.320710
C29	C	-4.110040	-0.159130	-0.130520
C30	C	-4.058142	-0.160727	-0.013314
H31	H	-4.050703	-0.540572	-0.324219
H32	H	-4.243118	-0.751760	-0.325811
H33	H	-3.590352	-0.568797	-0.310095
H34	H	-3.782718	-0.779976	-0.311687
H35	H	-3.503879	-0.145689	-0.822988
H36	H	-4.105319	-0.170917	-0.642429
H37	H	-4.329598	-0.174849	-0.812913
H38	H	-4.382686	-0.172101	-1.012690
H39	H	-3.728163	-0.149618	-0.993476
H40	H	-3.450769	-0.148434	-0.623181
