data_functionalizedCrystal
_audit_creation_method	'MofGen! by Chris Wilmer'
_symmetry_space_group_name_H-M	'P1'
_symmetry_Int_Tables_number	1
_symmetry_cell_setting	triclinic
loop_
_symmetry_equiv_pos_as_xyz
  x,y,z
_cell_length_a	14.560432
_cell_length_b	23.196402
_cell_length_c	23.196401
_cell_angle_alpha	60.008822
_cell_angle_beta	90.013895
_cell_angle_gamma	60.001874
loop_
_atom_site_label
_atom_site_type_symbol
_atom_site_fract_x
_atom_site_fract_y
_atom_site_fract_z
Zr1	Zr	0.884748	0.631013	-0.075628
O2	O	0.738072	0.751278	-0.167675
O3	O	0.929708	0.510748	-0.047415
O4	O	0.929667	0.631015	-0.167680
O5	O	0.738149	0.631009	0.047462
O6	O	1.080805	0.631018	-0.167680
O7	O	0.738113	0.631011	-0.047409
O8	O	1.080878	0.415882	0.047452
O9	O	0.738077	0.846145	-0.167671
O10	O	1.061680	0.560217	-0.035378
O11	O	0.948914	0.560214	0.035424
O12	O	0.948867	0.701813	-0.106173
O13	O	0.836101	0.701810	-0.035372
Zr14	Zr	1.125853	0.631015	0.075680
Zr15	Zr	1.125795	0.631017	-0.075629
Zr16	Zr	0.884805	0.631011	0.075680
Zr17	Zr	0.884754	0.782316	-0.075622
Zr18	Zr	1.125846	0.479712	0.075674
O19	O	1.080892	0.751280	0.047467
O20	O	1.080810	0.751283	-0.167675
O21	O	0.738154	0.751274	0.047467
O22	O	1.272528	0.510751	0.167726
O23	O	1.272446	0.510754	-0.047415
O24	O	0.929790	0.510745	0.167727
O25	O	1.272451	0.631019	-0.047410
O26	O	1.080933	0.631013	0.167732
O27	O	0.929795	0.631010	0.167732
O28	O	1.272487	0.631018	0.047461
O29	O	0.929677	0.846148	-0.167671
O30	O	1.080924	0.415880	0.167723
O31	O	1.272524	0.415883	0.167722
O32	O	1.272478	0.415885	0.047452
O33	O	0.738122	0.846143	-0.047400
O34	O	0.929723	0.846146	-0.047400
O35	O	1.061734	0.560215	0.106225
O36	O	1.174499	0.560218	0.035423
O37	O	1.061686	0.701814	-0.035372
O38	O	0.948921	0.701811	0.035430
C39	C	1.005292	0.441758	0.000018
C40	C	1.005289	0.377526	0.000015
C41	C	1.064144	0.347357	-0.036945
C42	C	1.064155	0.286996	-0.036940
C43	C	1.005289	0.256818	0.000017
C44	C	0.946432	0.286991	0.036985
C45	C	0.946432	0.347345	0.036984
C46	C	0.906667	0.194787	-0.005257
C47	C	0.906664	0.134438	-0.005262
C48	C	1.005290	0.070663	0.000024
C49	C	1.103919	0.067253	0.005299
C50	C	1.103919	0.127607	0.005298
C51	C	1.005283	0.191374	0.000022
C52	C	1.064162	-0.024957	-0.036932
C53	C	1.064176	-0.085323	-0.036921
C54	C	0.946442	-0.085321	0.036999
C55	C	0.946439	-0.024962	0.036993
C56	C	1.005296	0.005219	0.000024
C57	C	0.703787	0.631009	0.000026
C58	C	0.601456	0.631008	0.000026
C59	C	0.719217	0.483180	0.073930
C60	C	0.730021	0.409268	0.110879
C61	C	0.633868	0.409272	0.110877
C62	C	0.526904	0.483195	0.073924
C63	C	0.516100	0.557106	0.036976
C64	C	0.612261	0.557094	0.036980
C65	C	0.398341	0.704932	-0.036923
C66	C	0.494492	0.704930	-0.036926
C67	C	0.291376	0.778855	-0.073876
C68	C	0.280571	0.852768	-0.110830
C69	C	0.376732	0.852761	-0.110827
C70	C	0.483688	0.778842	-0.073875
C71	C	1.306813	0.631019	0.000026
C72	C	1.409144	0.631021	0.000025
C73	C	1.005228	0.631017	-0.189239
C74	C	1.005204	0.631018	-0.253473
C75	C	1.005308	0.820270	0.000034
C76	C	1.005311	0.884502	0.000037
C77	C	0.946322	0.704927	-0.320600
C78	C	0.946350	0.704929	-0.380956
C79	C	1.005245	0.631016	-0.374179
C80	C	1.064140	0.557097	-0.307040
C81	C	1.064119	0.557098	-0.246687
C82	C	0.996880	0.574388	-0.441499
C83	C	0.996892	0.574390	-0.501853
C84	C	1.005317	0.631010	-0.560327
C85	C	1.013705	0.687641	-0.558448
C86	C	1.013684	0.687642	-0.498094
C87	C	1.005275	0.631007	-0.439618
C88	C	0.946463	0.704926	-0.692901
C89	C	0.946500	0.704924	-0.753256
C90	C	1.064282	0.557090	-0.679338
C91	C	1.064253	0.557094	-0.618985
C92	C	1.005337	0.631014	-0.625772
C93	C	1.005372	0.631011	0.189290
C94	C	1.005397	0.631010	0.253525
C95	C	1.306805	0.441763	0.000017
C96	C	1.409133	0.377533	0.000015
C97	C	1.005364	0.441755	0.189282
C98	C	1.005386	0.377522	0.253514
C99	C	1.306877	0.441760	0.189282
C100	C	1.409230	0.377529	0.253513
C101	C	0.703723	0.820268	-0.189230
C102	C	0.601371	0.884500	-0.253462
C103	C	0.703795	0.820265	0.000034
C104	C	0.601467	0.884496	0.000037
C105	C	1.005236	0.820273	-0.189230
C106	C	1.005215	0.884506	-0.253462
C107	C	1.398297	0.347369	-0.036951
C108	C	1.494436	0.287026	-0.036968
C109	C	1.601410	0.256844	-0.000015
C110	C	1.612244	0.287014	0.036952
C111	C	1.516106	0.347359	0.036964
C112	C	1.064286	0.347358	0.320642
C113	C	1.064302	0.287013	0.381000
C114	C	1.005424	0.256829	0.374229
C115	C	0.946516	0.286999	0.307094
C116	C	0.946494	0.347347	0.246737
C117	C	1.516168	0.347367	0.246720
C118	C	1.612348	0.287023	0.307066
C119	C	1.601588	0.256838	0.374206
C120	C	1.494638	0.287007	0.380999
C121	C	1.398460	0.347353	0.320653
C122	C	0.494432	0.914669	-0.246668
C123	C	0.398252	0.975031	-0.307015
C124	C	0.409013	1.005219	-0.374155
C125	C	0.515962	0.975047	-0.380947
C126	C	0.612140	0.914690	-0.320601
C127	C	0.612304	0.914666	0.036996
C128	C	0.516165	0.975025	0.036996
C129	C	0.409191	1.005209	0.000041
C130	C	0.398357	0.975037	-0.036922
C131	C	0.494495	0.914683	-0.036926
C132	C	1.064105	0.914671	-0.246669
C133	C	1.064106	0.975017	-0.307015
C134	C	1.005211	1.005200	-0.374155
C135	C	0.946319	0.975029	-0.380948
C136	C	0.946324	0.914681	-0.320601
H137	H	1.112072	0.371927	-0.067046
H138	H	1.524945	0.371911	0.067070
H139	H	0.330689	1.054365	-0.423286
F140	F	0.726144	0.882554	0.076330
F141	F	0.527719	1.007123	0.076342
H142	H	0.898364	0.890127	-0.326143
H143	H	1.311390	0.371903	0.326194
H144	H	0.990056	0.528280	-0.503378
H145	H	0.898534	0.371899	0.192081
H146	H	1.485893	0.262421	0.435672
H147	H	1.524951	0.371934	0.192056
H148	H	1.112061	0.999576	-0.301471
H149	H	0.642669	0.349087	0.140966
F150	F	0.801688	0.262660	-0.010884
F151	F	0.166735	0.931433	-0.150147
F152	F	0.365222	0.931430	-0.150149
F153	F	0.987986	0.514087	-0.379251
F154	F	1.726161	0.254924	0.299823
F155	F	1.703960	0.192611	0.438427
H156	H	0.561988	0.778829	-0.073871
F157	F	1.126824	0.478434	-0.299829
H158	H	0.311246	0.999622	-0.067010
H159	H	0.898353	0.765119	-0.326133
F160	F	0.189043	0.778857	-0.073872
F161	F	1.126795	0.882558	-0.175219
F162	F	1.126962	0.379469	0.327864
F163	F	0.883792	-0.117435	0.076331
H164	H	1.112069	0.496910	-0.192027
F165	F	0.482955	0.882550	-0.175218
F166	F	0.883858	0.254866	0.299899
F167	F	1.126975	0.478426	-0.672122
H168	H	1.485592	0.262470	-0.067070
F169	F	0.482944	0.882576	-0.076261
H170	H	0.898367	0.999614	-0.435621
F171	F	0.527397	1.007182	-0.452408
F172	F	1.126808	0.254875	-0.076273
F173	F	1.005212	1.069431	-0.438376
H174	H	1.184226	0.124826	0.009596
H175	H	0.311179	0.999587	-0.301470
F176	F	0.725949	0.882583	-0.327842
F177	F	0.883794	0.007149	0.076330
H178	H	1.184233	0.015320	0.009612
H179	H	1.112276	0.262456	0.435658
H180	H	0.898504	0.262415	0.067076
F181	F	1.126809	0.007162	-0.076273
F182	F	0.306881	1.069444	0.000053
H183	H	1.020517	0.733752	-0.496567
H184	H	0.898502	0.371909	0.067082
F185	F	0.801695	0.138075	-0.010880
H186	H	1.112109	-0.109890	-0.067016
F187	F	0.883679	0.783596	-0.452408
F188	F	0.821556	0.483170	0.073927
H189	H	0.817120	0.349082	0.140967
H190	H	1.020560	0.733749	-0.606060
H191	H	0.448616	0.483191	0.073933
H192	H	0.898491	0.765116	-0.698428
F193	F	0.883832	0.783593	-0.824702
F194	F	1.126904	0.478428	-0.547539
F195	F	1.703719	0.192617	-0.000033
F196	F	1.284456	0.379482	-0.076286
F197	F	1.726103	0.254881	0.076279
F198	F	1.005458	0.192600	0.438474
