data_functionalizedCrystal
_audit_creation_method	'MofGen! by Chris Wilmer'
_symmetry_space_group_name_H-M	'P1'
_symmetry_Int_Tables_number	1
_symmetry_cell_setting	triclinic
loop_
_symmetry_equiv_pos_as_xyz
  x,y,z
_cell_length_a	23.096457
_cell_length_b	23.096457
_cell_length_c	17.917603
_cell_angle_alpha	57.015755
_cell_angle_beta	90.013246
_cell_angle_gamma	60.007119
loop_
_atom_site_label
_atom_site_type_symbol
_atom_site_fract_x
_atom_site_fract_y
_atom_site_fract_z
Zr1	Zr	-0.049305	0.580403	0.754969
O2	O	-0.146169	0.710022	0.629831
O3	O	-0.019614	0.456913	0.793319
O4	O	-0.140402	0.577699	0.793297
O5	O	0.069902	0.589233	0.629884
O6	O	-0.135849	0.568593	0.922254
O7	O	-0.025381	0.589237	0.629854
O8	O	0.080218	0.352530	0.922294
O9	O	-0.146165	0.805296	0.629844
O10	O	-0.003550	0.498641	0.905928
O11	O	0.064161	0.505434	0.809712
O12	O	-0.078050	0.647643	0.809685
O13	O	-0.010340	0.654435	0.713469
Zr14	Zr	0.109922	0.565875	0.960690
Zr15	Zr	-0.042043	0.565881	0.960641
Zr16	Zr	0.102661	0.580397	0.755018
Zr17	Zr	-0.049299	0.732354	0.754990
Zr18	Zr	0.109916	0.413925	0.960670
O19	O	0.080231	0.689365	0.922340
O20	O	-0.135844	0.689374	0.922271
O21	O	0.069907	0.710013	0.629901
O22	O	0.206786	0.436257	1.085828
O23	O	-0.009289	0.436265	1.085759
O24	O	0.196461	0.456905	0.793389
O25	O	-0.009285	0.557046	1.085775
O26	O	0.201019	0.568580	0.922363
O27	O	0.196466	0.577685	0.793405
O28	O	0.085998	0.557042	1.085806
O29	O	-0.140393	0.793753	0.793326
O30	O	0.201010	0.352526	0.922333
O31	O	0.206782	0.340983	1.085815
O32	O	0.085990	0.340988	1.085776
O33	O	-0.025373	0.805291	0.629883
O34	O	-0.019601	0.793748	0.793365
O35	O	0.138668	0.498636	0.905974
O36	O	0.070957	0.491843	1.002191
O37	O	-0.003544	0.640845	0.905948
O38	O	0.064167	0.647637	0.809731
C39	C	0.030301	0.383072	0.857804
C40	C	0.030298	0.318565	0.857795
C41	C	0.085294	0.230762	0.928857
C42	C	0.085301	0.170139	0.928863
C43	C	0.030301	0.197325	0.857816
C44	C	-0.024699	0.285144	0.786742
C45	C	-0.024701	0.345764	0.786731
N46	N	-0.032705	0.142735	0.836305
N47	N	-0.032700	0.085145	0.836320
C48	C	0.030304	0.014684	0.857841
N49	N	0.093307	0.003980	0.879364
N50	N	0.093303	0.061574	0.879353
C51	C	0.030297	0.131600	0.857818
C52	C	0.085311	-0.138857	0.928913
C53	C	0.085318	-0.199477	0.928914
C54	C	-0.024688	-0.084470	0.786796
C55	C	-0.024689	-0.023852	0.786792
C56	C	0.030310	-0.051051	0.857856
C57	C	-0.159777	0.573147	0.857769
C58	C	-0.224290	0.573149	0.857748
C59	C	-0.293482	0.650924	0.807515
C60	C	-0.354098	0.650923	0.807539
C61	C	-0.345518	0.573145	0.857784
C62	C	-0.276313	0.495360	0.908028
C63	C	-0.215699	0.495362	0.908010
N64	N	-0.413320	0.518381	0.850844
N65	N	-0.470904	0.518384	0.850856
C66	C	-0.528141	0.573133	0.857843
N67	N	-0.525627	0.627893	0.864799
N68	N	-0.468040	0.627892	0.864782
C69	C	-0.411239	0.573134	0.857809
C70	C	-0.663062	0.650913	0.807634
C71	C	-0.723677	0.650909	0.807665
C72	C	-0.645890	0.495343	0.908148
C73	C	-0.585277	0.495349	0.908123
C74	C	-0.593868	0.573136	0.857861
C75	C	0.220394	0.573132	0.857891
C76	C	0.284908	0.573129	0.857912
C77	C	0.021226	0.591304	0.600565
C78	C	0.018143	0.597469	0.513252
C79	C	0.030316	0.763206	0.857856
C80	C	0.030319	0.827714	0.857864
C81	C	0.012513	0.608730	0.353408
C82	C	0.048102	0.537553	0.362245
C83	C	0.044970	0.543818	0.273302
C84	C	0.015645	0.602466	0.442357
C85	C	0.039391	0.554975	1.115094
C86	C	0.042474	0.548810	1.202408
C87	C	0.039384	0.364908	1.115069
C88	C	0.042464	0.294236	1.202373
C89	C	0.220387	0.383065	0.857865
C90	C	0.284897	0.318555	0.857877
C91	C	0.229470	0.364900	1.115130
C92	C	0.297063	0.294226	1.202455
C93	C	-0.168852	0.781379	0.600530
C94	C	-0.236446	0.852053	0.513205
C95	C	0.021233	0.781371	0.600591
C96	C	0.018153	0.852043	0.513287
C97	C	-0.159769	0.763214	0.857794
C98	C	-0.224280	0.827724	0.857782
C99	C	0.005012	0.264596	1.193124
C100	C	0.007892	0.198201	1.275148
C101	C	0.048228	0.161443	1.366420
C102	C	0.085680	0.191089	1.375667
C103	C	0.082796	0.257487	1.293644
C104	C	0.354090	0.284712	0.908131
C105	C	0.414711	0.224107	0.908138
C106	C	0.406137	0.197342	0.857897
C107	C	0.336937	0.231191	0.807638
C108	C	0.276318	0.291799	0.807625
C109	C	0.293461	0.257490	1.293696
C110	C	0.356967	0.191092	1.375756
C111	C	0.424073	0.161426	1.366571
C112	C	0.427673	0.198168	1.275320
C113	C	0.364168	0.264570	1.193263
C114	C	-0.232844	0.888796	0.421963
C115	C	-0.296350	0.955213	0.339904
C116	C	-0.363456	0.984882	0.349088
C117	C	-0.367056	0.948136	0.440340
C118	C	-0.303551	0.881724	0.522397
C119	C	0.055599	0.881689	0.522535
C120	C	0.052702	0.948101	0.440511
C121	C	0.012364	0.984861	0.349240
C122	C	-0.025085	0.955212	0.339993
C123	C	-0.022193	0.888806	0.422016
C124	C	-0.215683	0.854469	0.908033
C125	C	-0.276291	0.915073	0.908041
C126	C	-0.345496	0.948936	0.857791
C127	C	-0.354092	0.922184	0.807539
C128	C	-0.293484	0.861576	0.807538
H129	H	0.130087	0.098636	0.986731
H130	H	-0.269279	0.936848	0.948960
H131	H	-0.300484	0.714264	0.766592
H132	H	0.083202	0.972229	0.448059
N133	N	-0.302260	0.834271	0.756185
N134	N	-0.248148	0.780166	0.756172
H135	H	-0.254350	0.760885	0.719899
H136	H	-0.052684	0.864670	0.414472
N137	N	-0.080871	-0.056672	0.714204
N138	N	-0.090363	-0.008660	0.627789
H139	H	-0.130043	0.010976	0.576514
N140	N	-0.424792	0.730365	0.756219
N141	N	-0.478903	0.730348	0.756241
H142	H	-0.528831	0.786454	0.719995
N143	N	-0.435607	0.978430	0.449710
N144	N	-0.452191	0.928057	0.492474
H145	H	-0.500607	0.949450	0.499089
N146	N	0.353293	0.153546	1.468965
N147	N	0.409992	0.094259	1.542230
H148	H	0.407397	0.067741	1.608058
N149	N	-0.030350	0.167904	1.265706
N150	N	-0.027774	0.108620	1.338940
H151	H	-0.054780	0.087221	1.332271
N152	N	0.485396	0.189516	0.959493
N153	N	0.539521	0.135400	0.959507
H154	H	0.589442	0.110968	0.995778
H155	H	-0.069476	0.047644	0.728931
N156	N	-0.036185	0.302143	1.099890
N157	N	-0.005889	0.299397	1.042910
H158	H	-0.034989	0.325915	0.977064
N159	N	0.468063	0.135411	0.857941
N160	N	0.479702	0.065466	0.890461
H161	H	0.523440	0.021723	0.890499
H162	H	0.361085	0.306497	0.949043
N163	N	0.205646	0.326342	0.756302
N164	N	0.188335	0.277458	0.777603
H165	H	0.138424	0.301850	0.741353
H166	H	0.475778	0.107357	1.433395
H167	H	0.010015	1.038932	0.282459
N168	N	-0.407394	1.010842	0.857810
N169	N	-0.399700	1.034710	0.902684
H170	H	-0.443413	1.078432	0.902700
H171	H	-0.415161	1.038959	0.282264
H172	H	-0.528937	0.432017	0.949024
H173	H	-0.020305	0.674367	0.279049
H174	H	0.130080	0.208608	0.986721
H175	H	-0.069485	0.417262	0.728860
H176	H	0.329966	0.209389	0.766733
H177	H	-0.069480	0.307275	0.728893
N178	N	-0.292644	0.992712	0.246712
N179	N	-0.261882	0.947061	0.222266
H180	H	-0.259261	0.973539	0.156452
N181	N	-0.424790	0.956784	0.756221
N182	N	-0.478892	1.010900	0.756233
H183	H	-0.528825	1.035342	0.719986
N184	N	0.224925	0.287769	1.303110
N185	N	0.221733	0.254953	1.384591
H186	H	0.173331	0.276336	1.391248
H187	H	-0.306492	0.851808	0.596687
N188	N	0.089262	0.455209	0.455536
N189	N	0.058914	0.434711	0.512475
H190	H	0.087979	0.376559	0.578364
N191	N	0.051231	0.093551	1.450190
N192	N	0.017834	0.067052	1.441908
H193	H	0.019980	0.019075	1.501067
N194	N	0.096811	0.844155	0.615753
N195	N	0.130235	0.870647	0.623980
H196	H	0.159341	0.844145	0.689813
N197	N	0.367866	0.302080	1.100071
N198	N	0.427791	0.275577	1.091895
H199	H	0.430408	0.302066	1.026079
N200	N	0.126878	0.153526	1.468909
N201	N	0.129446	0.094239	1.542128
H202	H	0.158546	0.067704	1.607983
H203	H	-0.269331	0.432032	0.948939
H204	H	0.113298	0.281611	1.301188
H205	H	-0.159339	0.826907	0.948952
N206	N	0.141492	-0.166646	1.001508
N207	N	0.190596	-0.245051	1.064950
H208	H	0.230274	-0.264681	1.116223
H209	H	0.130107	-0.270975	0.986779
N210	N	0.496229	0.167847	1.265964
N211	N	0.552919	0.108554	1.339244
H212	H	0.601339	0.087132	1.332640
H213	H	-0.159358	0.432026	0.948917
H214	H	-0.057928	0.985152	0.265668
N215	N	-0.164308	0.858519	0.412549
N216	N	-0.147739	0.908904	0.369766
H217	H	-0.099337	0.887529	0.363109
N218	N	-0.671843	0.730372	0.756316
N219	N	-0.733630	0.799810	0.711490
H220	H	-0.739834	0.855929	0.675254
H221	H	-0.780018	0.714244	0.766763
H222	H	-0.638903	0.432014	0.949059
