data_functionalizedCrystal
_audit_creation_method	'MofGen! by Chris Wilmer'
_symmetry_space_group_name_H-M	'P1'
_symmetry_Int_Tables_number	1
_symmetry_cell_setting	triclinic
loop_
_symmetry_equiv_pos_as_xyz
  x,y,z
_cell_length_a	18.050589
_cell_length_b	13.032831
_cell_length_c	13.032268
_cell_angle_alpha	90.886977
_cell_angle_beta	97.149417
_cell_angle_gamma	82.833186
loop_
_atom_site_label
_atom_site_type_symbol
_atom_site_fract_x
_atom_site_fract_y
_atom_site_fract_z
Zn1	Zn	-0.501530	1.498351	-0.780835
Zn2	Zn	-0.612177	1.520065	-0.608855
Zn3	Zn	-0.470507	1.348217	-0.587076
Zn4	Zn	-0.608161	1.326314	-0.758980
O5	O	-0.548094	1.423237	-0.683937
O6	O	-0.530872	1.645148	-0.776283
O7	O	-0.582081	1.515523	-0.462049
O8	O	-0.370708	1.368212	-0.612810
O9	O	-0.612163	1.661101	-0.649930
O10	O	-0.393501	1.478515	-0.755164
O11	O	-0.477997	1.389267	-0.446048
O12	O	-0.474104	1.201395	-0.591619
O13	O	-0.605320	1.330881	-0.905796
O14	O	-0.575238	1.185303	-0.717916
O15	O	-0.526978	1.457276	-0.921853
O16	O	-0.715559	1.494284	-0.628738
O17	O	-0.712609	1.351936	-0.739034
C18	C	-0.520869	1.156033	-0.650033
C19	C	-0.509242	1.041718	-0.635553
C20	C	-0.741032	1.423115	-0.683904
C21	C	-0.823584	1.423152	-0.683936
C22	C	-0.554162	0.982831	-0.691494
C23	C	-0.542146	0.864681	-0.676530
C24	C	-1.021463	1.345814	-0.743900
C25	C	-1.060964	1.332669	-0.646879
C26	C	-0.974726	1.423252	-0.683962
C27	C	-1.082312	1.436446	-0.781001
C28	C	-1.120722	1.423345	-0.683996
C29	C	-1.013131	1.410063	-0.586886
C30	C	-1.034484	1.513876	-0.721076
C31	C	-1.073962	1.500775	-0.623995
C32	C	-0.890621	1.423195	-0.683944
C33	C	-1.204825	1.423402	-0.684003
C34	C	-0.354407	1.423384	-0.683996
C35	C	-0.271869	1.423447	-0.684021
C36	C	-0.569162	1.389213	-0.952184
C37	C	-0.578139	1.374714	-1.066495
C38	C	-0.575426	1.691484	-0.717973
C39	C	-0.587073	1.805795	-0.732478
C40	C	-0.543380	1.430788	-1.125403
C41	C	-0.552658	1.415804	-1.243549
C42	C	-0.527061	1.457187	-0.416741
C43	C	-0.517894	1.471885	-0.302456
H44	H	-0.601514	1.019885	-0.750468
F45	F	-1.018764	1.613962	-0.762126
F46	F	-0.973951	1.395409	-0.479594
H47	H	-0.634426	0.842843	-0.791459
H48	H	-0.614761	1.315608	-1.103528
F49	F	-0.600532	1.338545	-1.291945
H50	H	-0.494786	0.827631	-0.617559
F51	F	-0.447342	0.993291	-0.558477
H52	H	-0.998449	1.280253	-0.794494
F53	F	-1.076662	1.232551	-0.605859
H54	H	-1.096823	1.566310	-0.573255
F55	F	-1.121601	1.450986	-0.888245
H56	H	-0.506750	1.489884	-1.088368
F57	F	-0.470024	1.549150	-1.254063
