data_functionalizedCrystal
_audit_creation_method	'MofGen! by Chris Wilmer'
_symmetry_space_group_name_H-M	'P1'
_symmetry_Int_Tables_number	1
_symmetry_cell_setting	triclinic
loop_
_symmetry_equiv_pos_as_xyz
  x,y,z
_cell_length_a	19.288864
_cell_length_b	16.992695
_cell_length_c	18.366186
_cell_angle_alpha	89.993794
_cell_angle_beta	89.977106
_cell_angle_gamma	86.902234
loop_
_atom_site_label
_atom_site_type_symbol
_atom_site_fract_x
_atom_site_fract_y
_atom_site_fract_z
O1	O	0.927052	0.097795	-0.060785
O2	O	0.725561	0.110988	-0.060736
O3	O	0.825499	-0.009748	-0.060755
O4	O	0.827114	0.218531	-0.060767
O5	O	0.825480	-0.009754	0.060345
O6	O	0.725542	0.110982	0.060363
O7	O	0.927034	0.097789	0.060314
Zn8	Zn	0.826285	0.104385	0.079566
Zn9	Zn	0.826309	0.104392	-0.079988
O10	O	0.827096	0.218525	0.060333
C11	C	0.699650	0.110560	-0.000180
C12	C	0.622472	0.109286	-0.000161
C13	C	0.581905	0.180128	-0.000176
C14	C	0.509388	0.178931	-0.000184
C15	C	0.477442	0.106888	-0.000191
C16	C	0.518018	0.036036	-0.000172
C17	C	0.590534	0.037235	-0.000157
C18	C	0.365885	0.050255	-0.042639
C19	C	0.293371	0.049059	-0.042659
C20	C	0.253780	0.103186	-0.000235
C21	C	0.286712	0.158522	0.042199
C22	C	0.359227	0.159722	0.042214
C23	C	0.398811	0.105579	-0.000207
C24	C	0.134581	0.172735	-0.000258
C25	C	0.062063	0.171535	-0.000261
C26	C	0.070695	0.028638	-0.000257
C27	C	0.143212	0.029840	-0.000246
C28	C	0.175150	0.101891	-0.000250
C29	C	0.823411	-0.038957	-0.000205
C30	C	0.817211	-0.125979	-0.000203
C31	C	0.877039	-0.176431	-0.000217
C32	C	0.871208	-0.258197	-0.000223
C33	C	0.805549	-0.289509	-0.000209
C34	C	0.745717	-0.239051	-0.000197
C35	C	0.751548	-0.157287	-0.000197
C36	C	0.781382	-0.533022	-0.000213
C37	C	0.775556	-0.614793	-0.000211
C38	C	0.901048	-0.633933	-0.000238
C39	C	0.906873	-0.552166	-0.000233
C40	C	0.847041	-0.501715	-0.000225
N41	N	0.799588	-0.373087	-0.000212
N42	N	0.853002	-0.418138	-0.000227
C43	C	0.952944	0.098217	-0.000244
C44	C	1.030122	0.099491	-0.000268
C45	C	0.829183	0.247733	-0.000219
C46	C	0.835384	0.334756	-0.000225
N47	N	0.826273	0.104379	0.188457
N48	N	0.826326	0.104392	-0.188879
C49	C	0.870543	0.050943	0.226549
C50	C	0.870547	0.050940	0.302777
C51	C	0.826289	0.104385	0.340910
C52	C	0.782011	0.157825	0.302808
C53	C	0.782003	0.157822	0.226582
C54	C	0.821154	0.175814	0.461668
C55	C	0.821167	0.175819	0.537893
C56	C	0.826310	0.104395	0.576017
C57	C	0.831454	0.032964	0.537908
C58	C	0.831446	0.032961	0.461681
C59	C	0.826293	0.104394	0.423564
C60	C	0.870586	0.050951	0.696764
C61	C	0.870585	0.050947	0.772994
C62	C	0.782053	0.157839	0.773024
C63	C	0.782050	0.157837	0.696796
C64	C	0.826320	0.104394	0.658671
H65	H	0.029034	0.229226	-0.000270
O66	O	0.036244	-0.049065	-0.000261
H67	H	0.052200	-0.083091	0.049106
H68	H	0.176243	-0.027848	-0.000238
H69	H	0.623564	-0.020455	-0.000145
H70	H	0.160587	0.231403	-0.000250
O71	O	0.947857	-0.142658	-0.000239
H72	H	0.988479	-0.191481	-0.000259
H73	H	0.919927	-0.299272	-0.000232
O74	O	0.815622	0.252857	0.578995
H75	H	0.862294	0.257758	0.613690
O76	O	0.918304	-0.006721	0.655641
H77	H	0.910861	0.002252	0.596235
O78	O	0.257853	-0.010629	-0.088415
H79	H	0.297565	-0.048079	-0.117897
O80	O	0.977691	-0.518392	-0.000266
H81	H	1.018315	-0.567212	-0.000287
H82	H	0.949760	-0.675018	-0.000246
H83	H	0.476351	0.236621	-0.000194
O84	O	0.716847	-0.478618	-0.000187
H85	H	0.685642	-0.489723	-0.049531
O86	O	0.704735	-0.648570	-0.000205
H87	H	0.664108	-0.599753	-0.000207
O88	O	0.674896	-0.272817	-0.000175
H89	H	0.680891	-0.338150	-0.000167
O90	O	0.918343	-0.006682	0.814085
H91	H	0.949131	-0.043834	0.774764
H92	H	0.835633	-0.025201	0.430655
H93	H	0.746014	0.201352	0.804071
O94	O	0.734246	0.215455	0.185496
H95	H	0.741672	0.206469	0.126085
H96	H	0.702829	-0.116209	-0.000186
H97	H	0.906598	0.007424	0.333797
O98	O	0.616355	0.257836	-0.000159
H99	H	0.575958	0.306897	-0.000160
H100	H	0.746004	0.201352	0.665779
O101	O	0.394751	0.219371	0.088009
H102	H	0.355045	0.256799	0.117522
O103	O	0.408586	-0.008124	-0.088403
H104	H	0.373506	-0.046792	-0.117922
H105	H	0.906589	0.007425	0.195510
O106	O	0.483569	-0.041671	-0.000180
H107	H	0.426328	-0.030604	-0.000201
O108	O	0.815612	0.252854	0.420549
H109	H	0.812049	0.302523	0.459852
O110	O	0.837005	-0.044086	0.579005
H111	H	0.790343	-0.048997	0.613752
O112	O	0.244023	0.216905	0.087966
H113	H	0.188067	0.206771	0.080837
O114	O	0.734278	0.215476	0.343931
H115	H	0.741726	0.206509	0.403336
