data_functionalizedCrystal
_audit_creation_method	'MofGen! by Chris Wilmer'
_symmetry_space_group_name_H-M	'P1'
_symmetry_Int_Tables_number	1
_symmetry_cell_setting	triclinic
loop_
_symmetry_equiv_pos_as_xyz
  x,y,z
_cell_length_a	6.817900
_cell_length_b	17.253917
_cell_length_c	10.943624
_cell_angle_alpha	97.444049
_cell_angle_beta	108.838799
_cell_angle_gamma	102.659311
loop_
_atom_site_label
_atom_site_type_symbol
_atom_site_fract_x
_atom_site_fract_y
_atom_site_fract_z
V1	V	-4.091005	-0.111272	-0.414803
O2	O	-4.074386	0.005369	-0.394297
O3	O	-4.044882	-0.220655	-0.424093
O4	O	-4.069347	-0.109551	-0.590180
O5	O	-4.049751	-0.106504	-0.227061
V6	V	-4.570873	-0.097322	-0.390874
O7	O	-4.360282	-0.141874	-0.467292
O8	O	-4.751794	-0.066720	-0.338385
O9	O	-4.393790	0.012061	-0.381584
O10	O	-4.704890	-0.213963	-0.411380
O11	O	-4.729524	-0.102090	-0.578616
O12	O	-4.369325	-0.099043	-0.215497
C13	C	-3.889571	-0.247321	-0.420679
C14	C	-3.933325	-0.336743	-0.429444
C15	C	-3.895303	-0.367272	-0.314064
C16	C	-3.936434	-0.451294	-0.322304
C17	C	-4.015574	-0.504785	-0.445925
C18	C	-4.053604	-0.474251	-0.561314
C19	C	-4.012487	-0.390231	-0.553073
C20	C	-4.144841	-0.757302	-0.483386
C21	C	-4.185951	-0.841327	-0.491618
C22	C	-4.068782	-0.818365	-0.252608
C23	C	-4.027657	-0.734343	-0.244377
C24	C	-4.065701	-0.703817	-0.359766
N25	N	-4.057612	-0.590669	-0.454351
N26	N	-4.023677	-0.617934	-0.351340
C27	C	-3.920777	-0.105595	-0.632537
C28	C	-3.984368	-0.104912	-0.775988
C29	C	-3.830211	-0.100310	-0.852629
C30	C	-4.004534	-0.168622	-0.966141
C31	C	-3.923376	-0.035390	-0.918084
C32	C	-4.157888	-0.173289	-0.887630
C33	C	-4.076662	-0.039995	-0.839544
C34	C	-4.251118	-0.108327	-0.953028
C35	C	-4.212442	0.038722	-0.384995
C36	C	-4.147928	0.128143	-0.376238
C37	C	-4.181236	-0.103001	-0.173133
C38	C	-4.096884	-0.103681	-0.029681
H39	H	-4.118058	-0.517811	-0.661969
F40	F	-3.943428	-0.677419	-0.112803
F41	F	-3.965549	-0.239699	-1.037949
F42	F	-3.811061	-0.310349	-0.182488
F43	F	-4.286696	-0.249549	-0.869179
H44	H	-4.037816	-0.843229	-0.158665
H45	H	-3.651736	-0.097011	-0.808817
H46	H	-4.175796	-0.732458	-0.577343
H47	H	-4.250388	-0.884879	-0.592290
F48	F	-4.052967	-0.357740	-0.675877
H49	H	-4.429683	-0.111734	-0.996647
H50	H	-3.824850	0.022877	-0.932431
F51	F	-3.895981	-0.483781	-0.199501
F52	F	-4.115541	0.031085	-0.767687
