data_functionalizedCrystal
_audit_creation_method	'MofGen! by Chris Wilmer'
_symmetry_space_group_name_H-M	'P1'
_symmetry_Int_Tables_number	1
_symmetry_cell_setting	triclinic
loop_
_symmetry_equiv_pos_as_xyz
  x,y,z
_cell_length_a	19.188930
_cell_length_b	18.266242
_cell_length_c	19.188924
_cell_angle_alpha	90.009637
_cell_angle_beta	83.143372
_cell_angle_gamma	90.013084
loop_
_atom_site_label
_atom_site_type_symbol
_atom_site_fract_x
_atom_site_fract_y
_atom_site_fract_z
O1	O	0.926137	0.061120	0.087171
O2	O	1.426137	0.561120	0.587171
O3	O	0.722825	0.061070	0.098906
O4	O	1.222825	0.561070	0.598906
O5	O	0.830351	0.061088	-0.008617
O6	O	1.330351	0.561088	0.491383
O7	O	0.818611	0.061102	0.194695
O8	O	1.318611	0.561102	0.694695
O9	O	0.830353	-0.060674	-0.008628
O10	O	1.330353	0.439326	0.491372
O11	O	0.722828	-0.060692	0.098895
O12	O	1.222828	0.439308	0.598895
O13	O	0.926139	-0.060642	0.087161
O14	O	1.426139	0.439358	0.587161
Zn15	Zn	0.824484	-0.080000	0.093027
Zn16	Zn	1.324484	0.420000	0.593027
Zn17	Zn	0.824481	0.080427	0.093040
Zn18	Zn	1.324481	0.580427	0.593040
O19	O	0.818614	-0.060660	0.194684
O20	O	1.318614	0.439340	0.694684
C21	C	0.696815	0.000182	0.098521
C22	C	1.196815	0.500182	0.598521
C23	C	0.619311	0.000163	0.097380
C24	C	1.119311	0.500163	0.597380
N25	N	0.824491	-0.189487	0.093017
N26	N	1.324491	0.310513	0.593017
C27	C	0.829973	0.000206	-0.034634
C28	C	1.329973	0.500206	0.465366
C29	C	0.828834	0.000204	-0.112138
C30	C	1.328834	0.500204	0.387862
C31	C	0.574385	0.000179	0.160471
C32	C	1.074385	0.500179	0.660471
C33	C	0.501562	0.000187	0.159399
C34	C	1.001562	0.500187	0.659399
C35	C	0.473667	0.000194	0.095233
C36	C	0.973667	0.500194	0.595233
C37	C	0.518602	0.000174	0.032134
C38	C	1.018602	0.500174	0.532134
C39	C	0.591424	0.000158	0.033207
C40	C	1.091424	0.500158	0.533207
N41	N	0.365687	0.041661	0.046189
N42	N	0.865687	0.541661	0.546189
N43	N	0.296508	0.041677	0.045174
N44	N	0.796508	0.541677	0.545174
C45	C	0.254258	0.000238	0.091995
C46	C	0.754258	0.500238	0.591995
N47	N	0.283798	-0.041208	0.139880
N48	N	0.783798	0.458792	0.639880
N49	N	0.352983	-0.041221	0.140898
N50	N	0.852983	0.458779	0.640898
C51	C	0.394704	0.000210	0.094062
C52	C	0.894704	0.500210	0.594062
C53	C	0.130368	0.000262	0.153928
C54	C	0.630368	0.500262	0.653928
C55	C	0.057543	0.000265	0.152854
C56	C	0.557543	0.500265	0.652854
C57	C	0.074585	0.000259	0.025586
C58	C	0.574585	0.500259	0.525586
C59	C	0.147409	0.000248	0.026663
C60	C	0.647409	0.500248	0.526663
C61	C	0.175295	0.000253	0.090835
C62	C	0.675295	0.500253	0.590835
C63	C	0.952149	0.000247	0.087546
C64	C	1.452149	0.500247	0.587546
C65	C	1.029654	0.000271	0.088687
C66	C	1.529654	0.500271	0.588687
N67	N	0.824479	0.189914	0.093044
N68	N	1.324479	0.689914	0.593044
C69	C	0.872176	0.228231	0.045526
C70	C	1.372176	0.728231	0.545526
C71	C	0.872182	0.304876	0.045524
C72	C	1.372182	0.804876	0.545524
C73	C	0.824480	0.343201	0.093035
C74	C	1.324480	0.843201	0.593035
C75	C	0.776779	0.304875	0.140563
C76	C	1.276779	0.804875	0.640563
C77	C	0.776779	0.228231	0.140567
C78	C	1.276779	0.728231	0.640567
N79	N	0.762672	0.463525	0.101961
N80	N	1.262672	0.963525	0.601961
N81	N	0.762675	0.536333	0.101952
N82	N	1.262675	1.036333	0.601952
C83	C	0.824478	0.574123	0.093024
C84	C	1.324478	1.074123	0.593024
N85	N	0.886282	0.536355	0.084092
N86	N	1.386282	1.036355	0.584092
N87	N	0.886279	0.463540	0.084097
N88	N	1.386279	0.963540	0.584097
C89	C	0.824475	0.426308	0.093035
C90	C	1.324475	0.926308	0.593035
C91	C	0.872186	0.695547	0.045502
C92	C	1.372186	1.195547	0.545502
C93	C	0.872193	0.772194	0.045505
C94	C	1.372193	1.272194	0.545505
C95	C	0.776784	0.772191	0.140540
C96	C	1.276784	1.272191	0.640540
C97	C	0.776783	0.695546	0.140540
C98	C	1.276783	1.195546	0.640540
C99	C	0.824483	0.657229	0.093017
C100	C	1.324483	1.157229	0.593017
C101	C	0.828301	0.066576	-0.148532
C102	C	1.328301	0.566576	0.351468
C103	C	0.827221	0.066581	-0.221354
C104	C	1.327221	0.566581	0.278646
C105	C	0.826688	0.000210	-0.257783
C106	C	1.326688	0.500210	0.242217
C107	C	0.827217	-0.066171	-0.221380
C108	C	1.327217	0.433829	0.278620
C109	C	0.828290	-0.066174	-0.148558
C110	C	1.328290	0.433826	0.351442
N111	N	0.864737	-0.049179	-0.377450
N112	N	1.364737	0.450821	0.122550
N113	N	0.863719	-0.049171	-0.446629
N114	N	1.363719	0.450829	0.053371
C115	C	0.823454	0.000217	-0.477192
C116	C	1.323454	0.500217	0.022808
N117	N	0.784254	0.049607	-0.435965
N118	N	1.284254	0.549607	0.064035
N119	N	0.785275	0.049602	-0.366781
N120	N	1.285275	0.549602	0.133219
C121	C	0.825524	0.000207	-0.336746
C122	C	1.325524	0.500207	0.163254
C123	C	0.821749	0.066599	-0.592548
C124	C	1.321749	0.566599	-0.092548
C125	C	0.820665	0.066602	-0.665371
C126	C	1.320665	0.566602	-0.165371
C127	C	0.820668	-0.066152	-0.665397
C128	C	1.320668	0.433848	-0.165397
C129	C	0.821745	-0.066153	-0.592574
C130	C	1.321745	0.433847	-0.092574
C131	C	0.822289	0.000225	-0.556154
C132	C	1.322289	0.500225	-0.056154
C133	C	0.818992	0.000223	0.220700
C134	C	1.318992	0.500223	0.720700
C135	C	0.820131	0.000230	0.298205
C136	C	1.320131	0.500230	0.798205
H137	H	0.597086	0.000184	0.212725
H138	H	1.097086	0.500184	0.712725
H139	H	0.826781	-0.120211	-0.251045
H140	H	1.326781	0.379789	0.248955
C141	C	0.452135	0.000213	0.228807
C142	C	0.952135	0.500213	0.728807
N143	N	0.414908	0.000237	0.281085
N144	N	0.914908	0.500237	0.781085
C145	C	0.828880	-0.139193	-0.108525
C146	C	1.328880	0.360807	0.391475
N147	N	0.829327	-0.194191	-0.078371
N148	N	1.329327	0.305809	0.421629
H149	H	0.737940	0.336083	0.179247
H150	H	1.237940	0.836083	0.679247
C151	C	0.008124	0.000272	0.222263
C152	C	0.508124	0.500272	0.722263
N153	N	-0.029099	0.000275	0.274543
N154	N	0.470901	0.500275	0.774543
C155	C	0.161046	0.000258	0.224519
C156	C	0.661046	0.500258	0.724519
N157	N	0.184151	0.000254	0.277688
N158	N	0.684151	0.500254	0.777688
C159	C	0.640845	0.000146	-0.036201
C160	C	1.140845	0.500146	0.463799
N161	N	0.678069	0.000139	-0.088481
N162	N	1.178069	0.500139	0.411519
C163	C	0.196829	0.000239	-0.042744
C164	C	0.696829	0.500239	0.457256
N165	N	0.234053	0.000231	-0.095024
N166	N	0.734053	0.500231	0.404976
H167	H	0.737938	0.197033	0.179264
H168	H	1.237938	0.697033	0.679264
H169	H	0.737946	0.803395	0.179226
H170	H	1.237946	1.303395	0.679226
H171	H	0.911029	0.664348	0.006808
H172	H	1.411029	1.164348	0.506808
C173	C	0.924667	0.814342	-0.006772
C174	C	1.424667	1.314342	0.493228
N175	N	0.964189	0.846088	-0.046150
N176	N	1.464189	1.346088	0.453850
C177	C	0.724305	0.653396	0.192807
C178	C	1.224305	1.153396	0.692807
N179	N	0.684775	0.621649	0.232178
N180	N	1.184775	1.121649	0.732178
C181	C	0.828893	0.139594	-0.108473
C182	C	1.328893	0.639594	0.391527
N183	N	0.829337	0.194592	-0.078300
N184	N	1.329337	0.694592	0.421700
C185	C	0.822337	0.139616	-0.552482
C186	C	1.322337	0.639616	-0.052482
N187	N	0.822778	0.194612	-0.522307
N188	N	1.322778	0.694612	-0.022307
H189	H	0.822185	-0.120201	-0.562943
H190	H	1.322185	0.379799	-0.062943
H191	H	0.820228	0.120653	-0.695001
H192	H	1.320228	0.620653	-0.195001
H193	H	0.051874	0.000310	-0.026659
H194	H	0.551874	0.500310	0.473341
H195	H	0.826783	0.120631	-0.250991
H196	H	1.326783	0.620631	0.249009
C197	C	0.820081	-0.139161	-0.705464
C198	C	1.320081	0.360839	-0.205464
N199	N	0.819638	-0.194154	-0.735646
N200	N	1.319638	0.305846	-0.235646
H201	H	0.495885	0.000189	-0.020111
H202	H	0.995885	0.500189	0.479889
H203	H	0.911018	0.197035	0.006832
H204	H	1.411018	0.697035	0.506832
C205	C	0.924651	0.347033	-0.006756
C206	C	1.424651	0.847033	0.493244
N207	N	0.964169	0.378783	-0.046135
N208	N	1.464169	0.878783	0.453865
