data_functionalizedCrystal
_audit_creation_method	'MofGen! by Chris Wilmer'
_symmetry_space_group_name_H-M	'P1'
_symmetry_Int_Tables_number	1
_symmetry_cell_setting	triclinic
loop_
_symmetry_equiv_pos_as_xyz
  x,y,z
_cell_length_a	17.038272
_cell_length_b	14.044220
_cell_length_c	13.101039
_cell_angle_alpha	86.332523
_cell_angle_beta	86.404528
_cell_angle_gamma	87.849783
loop_
_atom_site_label
_atom_site_type_symbol
_atom_site_fract_x
_atom_site_fract_y
_atom_site_fract_z
O1	O	1.055801	-0.202095	-0.085089
O2	O	1.555801	0.297905	0.414911
O3	O	0.827941	-0.198806	-0.085119
O4	O	1.327941	0.301194	0.414881
O5	O	0.938450	-0.062191	-0.085095
O6	O	1.438450	0.437809	0.414905
O7	O	0.945292	-0.338710	-0.085114
O8	O	1.445292	0.161290	0.414886
O9	O	0.930523	-0.072010	0.085333
O10	O	1.430523	0.427990	0.585333
O11	O	0.820014	-0.208625	0.085309
O12	O	1.320014	0.291375	0.585309
O13	O	1.047873	-0.211914	0.085339
O14	O	1.547873	0.288086	0.585339
Zn15	Zn	0.932685	-0.211829	0.112383
Zn16	Zn	1.432685	0.288171	0.612383
Zn17	Zn	0.943130	-0.198891	-0.112163
Zn18	Zn	1.443130	0.301109	0.387837
O19	O	0.937364	-0.348530	0.085314
O20	O	1.437364	0.151470	0.585314
C21	C	0.794640	-0.200726	0.000091
C22	C	1.294640	0.299274	0.500091
C23	C	0.707224	-0.191806	0.000080
C24	C	1.207224	0.308194	0.500080
N25	N	0.925562	-0.220658	0.265630
N26	N	1.425562	0.279342	0.765630
C27	C	0.931492	-0.031544	0.000119
C28	C	1.431492	0.468456	0.500119
C29	C	0.922561	0.074402	0.000119
C30	C	1.422561	0.574402	0.500119
C31	C	0.662839	-0.273694	0.000075
C32	C	1.162839	0.226306	0.500075
C33	C	0.580701	-0.265309	0.000090
C34	C	1.080701	0.234691	0.500090
C35	C	0.542950	-0.175034	0.000102
C36	C	1.042950	0.324966	0.500102
C37	C	0.587341	-0.093140	0.000110
C38	C	1.087341	0.406860	0.500110
C39	C	0.669477	-0.101527	0.000102
C40	C	1.169477	0.398473	0.500102
C41	C	0.295118	-0.145406	0.000131
C42	C	0.795118	0.354594	0.500131
C43	C	0.212976	-0.137025	0.000136
C44	C	0.712976	0.362975	0.500136
C45	C	0.206341	-0.309195	0.000117
C46	C	0.706341	0.190805	0.500117
C47	C	0.288480	-0.317573	0.000104
C48	C	0.788480	0.182427	0.500104
C49	C	0.332863	-0.235680	0.000117
C50	C	0.832863	0.264320	0.500117
C51	C	0.458992	-0.166461	0.000114
C52	C	0.958992	0.333539	0.500114
C53	C	0.416819	-0.244254	0.000113
C54	C	0.916819	0.255746	0.500113
C55	C	1.081174	-0.209994	0.000126
C56	C	1.581174	0.290006	0.500126
C57	C	1.168591	-0.218913	0.000131
C58	C	1.668591	0.281087	0.500131
C59	C	0.944322	-0.379176	0.000098
C60	C	1.444322	0.120824	0.500098
C61	C	0.953254	-0.485121	0.000091
C62	C	1.453254	0.014879	0.500091
C63	C	0.906233	0.268381	0.000103
C64	C	1.406233	0.768381	0.500103
C65	C	0.969578	0.320905	0.000108
C66	C	1.469578	0.820905	0.500108
C67	C	0.960493	0.428842	0.000098
C68	C	1.460493	0.928842	0.500098
C69	C	0.915317	0.160434	0.000112
C70	C	1.415317	0.660434	0.500112
N71	N	0.950258	-0.190055	-0.265410
N72	N	1.450258	0.309945	0.234590
C73	C	0.915872	-0.232680	0.474670
C74	C	1.415872	0.267320	0.974670
C75	C	0.959946	-0.178037	0.525556
C76	C	1.459946	0.321963	1.025556
C77	C	0.954554	-0.184725	0.641873
C78	C	1.454554	0.315275	1.141873
C79	C	0.921263	-0.225992	0.358342
C80	C	1.421263	0.274008	0.858342
H81	H	0.693569	-0.347205	0.000064
H82	H	1.193569	0.152795	0.500064
H83	H	0.331245	-0.078722	0.000143
H84	H	0.831245	0.421278	0.500143
H85	H	1.030636	0.284815	0.000047
H86	H	1.530636	0.784815	0.500047
O87	O	0.825361	0.316179	0.000108
O88	O	1.325361	0.816179	0.500108
H89	H	0.830827	0.394684	0.000117
H90	H	1.330827	0.894684	0.500117
O91	O	1.015293	-0.109413	0.467553
O92	O	1.515293	0.390587	0.967553
H93	H	1.076517	-0.127577	0.488077
H94	H	1.576517	0.372423	0.988077
O95	O	0.860536	-0.301311	0.532665
O96	O	1.360536	0.198689	1.032665
H97	H	0.864942	-0.295868	0.616247
H98	H	1.364942	0.204132	1.116247
H99	H	0.544566	-0.331991	0.000084
H100	H	1.044566	0.168009	0.500084
H101	H	0.319211	-0.391084	0.000082
H102	H	0.819211	0.108916	0.500082
H103	H	0.182242	-0.063509	0.000145
H104	H	0.682242	0.436491	0.500145
O105	O	0.158472	-0.397522	0.000124
O106	O	0.658472	0.102478	0.500124
H107	H	0.095015	-0.376530	0.000144
H108	H	0.595015	0.123470	0.500144
O109	O	0.546630	0.004231	0.000127
O110	O	1.046630	0.504231	0.500127
H111	H	0.482059	-0.003692	0.000122
H112	H	0.982059	0.496308	0.500122
H113	H	0.705615	-0.034845	0.000106
H114	H	1.205615	0.465155	0.500106
H115	H	0.447559	-0.317756	0.000108
H116	H	0.947559	0.182244	0.500108
H117	H	0.428245	-0.092960	0.000153
H118	H	0.928245	0.407040	0.500153
