data_functionalizedCrystal
_audit_creation_method	'MofGen! by Chris Wilmer'
_symmetry_space_group_name_H-M	'P1'
_symmetry_Int_Tables_number	1
_symmetry_cell_setting	triclinic
loop_
_symmetry_equiv_pos_as_xyz
  x,y,z
_cell_length_a	18.215405
_cell_length_b	11.169417
_cell_length_c	11.169409
_cell_angle_alpha	90.021683
_cell_angle_beta	89.960202
_cell_angle_gamma	89.976177
loop_
_atom_site_label
_atom_site_type_symbol
_atom_site_fract_x
_atom_site_fract_y
_atom_site_fract_z
Zn1	Zn	-0.292946	-1.834841	-0.678540
Zn2	Zn	-0.042946	-1.584841	-0.428540
Zn3	Zn	0.207054	-1.334841	-0.178540
Zn4	Zn	0.457054	-1.084841	0.071460
Zn5	Zn	-0.416037	-1.834679	-0.477831
Zn6	Zn	-0.166037	-1.584679	-0.227831
Zn7	Zn	0.083963	-1.334679	0.022169
Zn8	Zn	0.333963	-1.084679	0.272169
Zn9	Zn	-0.292986	-1.634127	-0.477868
Zn10	Zn	-0.042986	-1.384127	-0.227868
Zn11	Zn	0.207014	-1.134127	0.022132
Zn12	Zn	0.457014	-0.884127	0.272132
Zn13	Zn	-0.415973	-1.634083	-0.678469
Zn14	Zn	-0.165973	-1.384083	-0.428469
Zn15	Zn	0.084027	-1.134083	-0.178469
Zn16	Zn	0.334027	-0.884083	0.071531
O17	O	-0.354485	-1.734433	-0.578177
O18	O	-0.104485	-1.484433	-0.328177
O19	O	0.145515	-1.234433	-0.078177
O20	O	0.395515	-0.984433	0.171823
O21	O	-0.309284	-2.002769	-0.651930
O22	O	-0.059284	-1.752769	-0.401930
O23	O	0.190716	-1.502769	-0.151930
O24	O	0.440716	-1.252769	0.098070
O25	O	-0.399758	-1.808026	-0.309886
O26	O	-0.149758	-1.558026	-0.059886
O27	O	0.100242	-1.308026	0.190114
O28	O	0.350242	-1.058026	0.440114
O29	O	-0.189997	-1.660838	-0.504533
O30	O	0.060003	-1.410838	-0.254533
O31	O	0.310003	-1.160838	-0.004533
O32	O	0.560003	-0.910838	0.245467
O33	O	-0.399718	-2.002651	-0.504469
O34	O	-0.149718	-1.752651	-0.254469
O35	O	0.100282	-1.502651	-0.004469
O36	O	0.350282	-1.252651	0.245531
O37	O	-0.189967	-1.808302	-0.651966
O38	O	0.060033	-1.558302	-0.401966
O39	O	0.310033	-1.308302	-0.151966
O40	O	0.560033	-1.058302	0.098034
O41	O	-0.309353	-1.660681	-0.309913
O42	O	-0.059353	-1.410681	-0.059913
O43	O	0.190647	-1.160681	0.190087
O44	O	0.440647	-0.910681	0.440087
O45	O	-0.309291	-1.466171	-0.504464
O46	O	-0.059291	-1.216171	-0.254464
O47	O	0.190709	-0.966171	-0.004464
O48	O	0.440709	-0.716171	0.245536
O49	O	-0.399609	-1.660764	-0.846428
O50	O	-0.149609	-1.410764	-0.596428
O51	O	0.100391	-1.160764	-0.346428
O52	O	0.350391	-0.910764	-0.096428
O53	O	-0.399648	-1.466140	-0.651845
O54	O	-0.149648	-1.216140	-0.401845
O55	O	0.100352	-0.966140	-0.151845
O56	O	0.350352	-0.716140	0.098155
O57	O	-0.309221	-1.808260	-0.846480
O58	O	-0.059221	-1.558260	-0.596480
O59	O	0.190779	-1.308260	-0.346480
O60	O	0.440779	-1.058260	-0.096480
O61	O	-0.519012	-1.807984	-0.504401
O62	O	-0.269012	-1.557984	-0.254401
O63	O	-0.019012	-1.307984	-0.004401
O64	O	0.230988	-1.057984	0.245599
O65	O	-0.518965	-1.660607	-0.651809
O66	O	-0.268965	-1.410607	-0.401809
O67	O	-0.018965	-1.160607	-0.151809
O68	O	0.231035	-0.910607	0.098191
C69	C	-0.354468	-1.422608	-0.578151
C70	C	-0.104468	-1.172608	-0.328151
C71	C	0.145532	-0.922608	-0.078151
C72	C	0.395532	-0.672608	0.171849
C73	C	-0.354478	-1.289208	-0.578169
C74	C	-0.104478	-1.039208	-0.328169
C75	C	0.145522	-0.789208	-0.078169
C76	C	0.395522	-0.539208	0.171831
C77	C	-0.545692	-1.734306	-0.578119
C78	C	-0.295692	-1.484306	-0.328119
C79	C	-0.045692	-1.234306	-0.078119
C80	C	0.204308	-0.984306	0.171881
C81	C	-0.627490	-1.734362	-0.578135
C82	C	-0.377490	-1.484362	-0.328135
C83	C	-0.127490	-1.234362	-0.078135
C84	C	0.122510	-0.984362	0.171865
C85	C	-0.815684	-1.811281	-0.501520
C86	C	-0.565684	-1.561281	-0.251520
C87	C	-0.315684	-1.311281	-0.001520
C88	C	-0.065684	-1.061281	0.248480
C89	C	-0.892543	-1.811335	-0.501550
C90	C	-0.642543	-1.561335	-0.251550
C91	C	-0.392543	-1.311335	-0.001550
C92	C	-0.142543	-1.061335	0.248450
C93	C	-0.892534	-1.657738	-0.654920
C94	C	-0.642534	-1.407738	-0.404920
C95	C	-0.392534	-1.157738	-0.154920
C96	C	-0.142534	-0.907738	0.095080
C97	C	-0.815677	-1.657691	-0.654896
C98	C	-0.565677	-1.407691	-0.404896
C99	C	-0.315677	-1.157691	-0.154896
C100	C	-0.065677	-0.907691	0.095104
C101	C	-0.777254	-1.734461	-0.578189
C102	C	-0.527254	-1.484461	-0.328189
C103	C	-0.277254	-1.234461	-0.078189
C104	C	-0.027254	-0.984461	0.171811
C105	C	-0.930970	-1.734561	-0.578242
C106	C	-0.680970	-1.484561	-0.328242
C107	C	-0.430970	-1.234561	-0.078242
C108	C	-0.180970	-0.984561	0.171758
C109	C	-1.014304	-1.734619	-0.578274
C110	C	-0.764304	-1.484619	-0.328274
C111	C	-0.514304	-1.234619	-0.078274
C112	C	-0.264304	-0.984619	0.171726
C113	C	-0.693915	-1.734405	-0.578159
C114	C	-0.443915	-1.484405	-0.328159
C115	C	-0.193915	-1.234405	-0.078159
C116	C	0.056085	-0.984405	0.171841
C117	C	-0.162532	-1.734593	-0.578261
C118	C	0.087468	-1.484593	-0.328261
C119	C	0.337468	-1.234593	-0.078261
C120	C	0.587468	-0.984593	0.171739
C121	C	-0.080733	-1.734661	-0.578297
C122	C	0.169267	-1.484661	-0.328297
C123	C	0.419267	-1.234661	-0.078297
C124	C	0.669267	-0.984661	0.171703
C125	C	-0.354404	-1.734525	-0.891220
C126	C	-0.104404	-1.484525	-0.641220
C127	C	0.145596	-1.234525	-0.391220
C128	C	0.395596	-0.984525	-0.141220
C129	C	-0.354369	-1.734564	-1.024620
C130	C	-0.104369	-1.484564	-0.774620
C131	C	0.145631	-1.234564	-0.524620
C132	C	0.395631	-0.984564	-0.274620
C133	C	-0.354497	-1.047475	-0.578194
C134	C	-0.104497	-0.797475	-0.328194
C135	C	0.145503	-0.547475	-0.078194
C136	C	0.395503	-0.297475	0.171806
C137	C	-0.354487	-1.180875	-0.578177
C138	C	-0.104487	-0.930875	-0.328177
C139	C	0.145513	-0.680875	-0.078177
C140	C	0.395513	-0.430875	0.171823
C141	C	-0.354514	-1.734410	-0.266352
C142	C	-0.104514	-1.484410	-0.016352
C143	C	0.145486	-1.234410	0.233648
C144	C	0.395486	-0.984410	0.483648
C145	C	-0.354341	-1.734603	-0.132953
C146	C	-0.104341	-1.484603	0.117047
C147	C	0.145659	-1.234603	0.367047
C148	C	0.395659	-0.984603	0.617047
H149	H	-0.784402	-1.873793	-0.439063
H150	H	-0.534402	-1.623793	-0.189063
H151	H	-0.284402	-1.373793	0.060937
H152	H	-0.034402	-1.123793	0.310937
H153	H	-0.923830	-1.873891	-0.439120
H154	H	-0.673830	-1.623891	-0.189120
H155	H	-0.423830	-1.373891	0.060880
H156	H	-0.173830	-1.123891	0.310880
H157	H	-0.923827	-1.595233	-0.717369
H158	H	-0.673827	-1.345233	-0.467369
H159	H	-0.423827	-1.095233	-0.217369
H160	H	-0.173827	-0.845233	0.032631
H161	H	-0.784385	-1.595135	-0.717335
H162	H	-0.534385	-1.345135	-0.467335
H163	H	-0.284385	-1.095135	-0.217335
H164	H	-0.034385	-0.845135	0.032665
