data_functionalizedCrystal
_audit_creation_method	'MofGen! by Chris Wilmer'
_symmetry_space_group_name_H-M	'P1'
_symmetry_Int_Tables_number	1
_symmetry_cell_setting	triclinic
loop_
_symmetry_equiv_pos_as_xyz
  x,y,z
_cell_length_a	13.897449
_cell_length_b	13.897448
_cell_length_c	17.639306
_cell_angle_alpha	101.185321
_cell_angle_beta	78.776181
_cell_angle_gamma	90.018972
loop_
_atom_site_label
_atom_site_type_symbol
_atom_site_fract_x
_atom_site_fract_y
_atom_site_fract_z
Zn1	Zn	1.584872	-0.494235	-0.446887
Zn2	Zn	1.552183	-0.622940	-0.314718
Zn3	Zn	1.390981	-0.461668	-0.314732
Zn4	Zn	1.423533	-0.655484	-0.446849
O5	O	1.487892	-0.558582	-0.380797
O6	O	1.715520	-0.511318	-0.429364
O7	O	1.503496	-0.574297	-0.204116
O8	O	1.416759	-0.331011	-0.332284
O9	O	1.691503	-0.605877	-0.332261
O10	O	1.559209	-0.354939	-0.429378
O11	O	1.385062	-0.455811	-0.204126
O12	O	1.260315	-0.487368	-0.332248
O13	O	1.472239	-0.661344	-0.557459
O14	O	1.284231	-0.629764	-0.429314
O15	O	1.590773	-0.542875	-0.557486
O16	O	1.535060	-0.762233	-0.332224
O17	O	1.440542	-0.786143	-0.429300
C18	C	1.237274	-0.558564	-0.380779
C19	C	1.130062	-0.558585	-0.380790
C20	C	0.933772	-0.558593	-0.380810
C21	C	1.043001	-0.558585	-0.380797
C22	C	1.487816	-0.809190	-0.380774
C23	C	1.487878	-0.916408	-0.380790
C24	C	1.487992	-1.112716	-0.380840
C25	C	1.487927	-1.003477	-0.380815
C26	C	1.739490	-0.558600	-0.380815
C27	C	1.846706	-0.558608	-0.380823
C28	C	1.538784	-0.609372	-0.586953
C29	C	1.560470	-0.631016	-0.674804
C30	C	1.487999	-0.306999	-0.380837
C31	C	1.488045	-0.199789	-0.380854
C32	C	1.323515	-0.393796	-0.963787
C33	C	1.343915	-0.414154	-1.046337
C34	C	1.467227	-0.537521	-1.046306
C35	C	1.446841	-0.517170	-0.963755
C36	C	1.374983	-0.445307	-0.922502
C37	C	1.498309	-0.568681	-0.922469
C38	C	1.477921	-0.548335	-0.839925
C39	C	1.406064	-0.476477	-0.798666
C40	C	1.354595	-0.424961	-0.839957
C41	C	1.570162	-0.640548	-0.963724
C42	C	1.621630	-0.692059	-0.922439
C43	C	1.601247	-0.671708	-0.839893
C44	C	1.529390	-0.599851	-0.798634
C45	C	1.652717	-0.723225	-0.798602
C46	C	1.632328	-0.702879	-0.716057
C47	C	1.509002	-0.579505	-0.716090
C48	C	1.437255	-0.507919	-0.175443
C49	C	1.415755	-0.486004	-0.087592
H50	H	1.450498	-0.520977	-0.682499
H51	H	1.680134	-0.750573	-0.956038
C52	C	1.822307	-0.776490	-0.824009
C53	C	1.731696	-0.802219	-0.843952
H54	H	1.871062	-0.825263	-0.852003
H55	H	1.839787	-0.715030	-0.837560
H56	H	1.817522	-0.771744	-0.768939
H57	H	1.736478	-0.806958	-0.899022
H58	H	1.714212	-0.863695	-0.830406
H59	H	1.674252	-0.744811	-0.682442
C60	C	1.353498	-0.307282	-1.139191
C61	C	1.287341	-0.357518	-1.091718
H62	H	1.318570	-0.272324	-1.167209
H63	H	1.387578	-0.262458	-1.106995
H64	H	1.399203	-0.353000	-1.175575
H65	H	1.241640	-0.311800	-1.055330
H66	H	1.253245	-0.402346	-1.123916
H67	H	1.296091	-0.366433	-0.806367
C68	C	1.636819	-0.590769	-1.071706
C69	C	1.546214	-0.616508	-1.091655
H70	H	1.685581	-0.639536	-1.099699
H71	H	1.654294	-0.529307	-1.085254
H72	H	1.632030	-0.586024	-1.016635
H73	H	1.551000	-0.621246	-1.146725
H74	H	1.528735	-0.677988	-1.078112
H75	H	1.389459	-0.459920	-0.731453
C76	C	1.203649	-0.273883	-0.972100
C77	C	1.244524	-0.314805	-0.918433
H78	H	1.154880	-0.225127	-0.944098
H79	H	1.253640	-0.244920	-1.004298
H80	H	1.174692	-0.323850	-1.004291
H81	H	1.273488	-0.264839	-0.886245
H82	H	1.194524	-0.343768	-0.886222
H83	H	1.586762	-0.657109	-1.030937
