data_functionalizedCrystal
_audit_creation_method	'MofGen! by Chris Wilmer'
_symmetry_space_group_name_H-M	'P1'
_symmetry_Int_Tables_number	1
_symmetry_cell_setting	triclinic
loop_
_symmetry_equiv_pos_as_xyz
  x,y,z
_cell_length_a	27.732048
_cell_length_b	27.732048
_cell_length_c	26.210047
_cell_angle_alpha	89.996535
_cell_angle_beta	89.987768
_cell_angle_gamma	97.357346
loop_
_atom_site_label
_atom_site_type_symbol
_atom_site_fract_x
_atom_site_fract_y
_atom_site_fract_z
O1	O	-0.057510	0.640931	-0.042355
O2	O	0.275823	0.974264	0.290978
O3	O	0.609157	1.307598	0.624311
O4	O	-0.066256	0.500138	-0.042369
O5	O	0.267078	0.833471	0.290964
O6	O	0.600411	1.166804	0.624297
O7	O	0.008514	0.574907	-0.042369
O8	O	0.341847	0.908240	0.290965
O9	O	0.675181	1.241574	0.624298
O10	O	-0.132279	0.566162	-0.042356
O11	O	0.201054	0.899495	0.290977
O12	O	0.534387	1.232828	0.624311
O13	O	0.008502	0.574893	0.042489
O14	O	0.341836	0.908226	0.375823
O15	O	0.675169	1.241559	0.709156
O16	O	-0.066267	0.500123	0.042489
O17	O	0.267066	0.833457	0.375822
O18	O	0.600399	1.166790	0.709155
O19	O	-0.057522	0.640917	0.042503
O20	O	0.275812	0.974250	0.375836
O21	O	0.609145	1.307583	0.709170
Cu22	Cu	-0.061896	0.570519	0.050244
Cu23	Cu	0.271438	0.903852	0.383577
Cu24	Cu	0.604771	1.237185	0.716911
Cu25	Cu	-0.061882	0.570536	-0.050110
Cu26	Cu	0.271452	0.903869	0.283223
Cu27	Cu	0.604785	1.237202	0.616556
O28	O	-0.132291	0.566147	0.042502
O29	O	0.201042	0.899481	0.375835
O30	O	0.534375	1.232814	0.709169
C31	C	-0.066078	0.482124	0.000058
C32	C	0.267256	0.815457	0.333391
C33	C	0.600589	1.148790	0.666724
C34	C	-0.065525	0.428469	0.000052
C35	C	0.267808	0.761802	0.333385
C36	C	0.601142	1.095135	0.666718
C37	C	-0.106229	0.089654	0.000078
C38	C	0.227105	0.422987	0.333411
C39	C	0.560438	0.756320	0.666744
C40	C	-0.104178	-0.112006	0.000082
C41	C	0.229156	0.221327	0.333415
C42	C	0.562489	0.554661	0.666749
O43	O	-0.141398	-0.143262	0.000107
O44	O	0.191935	0.190072	0.333441
O45	O	0.525268	0.523405	0.666774
N46	N	-0.059843	-0.131130	0.000077
N47	N	0.273491	0.202204	0.333410
N48	N	0.606824	0.535537	0.666744
C49	C	-0.016017	-0.099835	0.000074
C50	C	0.317316	0.233498	0.333408
C51	C	0.650650	0.566832	0.666741
O52	O	0.021740	-0.120728	0.000076
O53	O	0.355073	0.212605	0.333409
O54	O	0.688407	0.545938	0.666742
C55	C	-0.018068	0.101824	0.000074
C56	C	0.315265	0.435157	0.333407
C57	C	0.648598	0.768490	0.666740
C58	C	-0.062407	0.120944	0.000073
C59	C	0.270927	0.454278	0.333407
C60	C	0.604260	0.787611	0.666740
C61	C	-0.150563	0.108775	0.000078
C62	C	0.182770	0.442108	0.333411
C63	C	0.516103	0.775442	0.666745
C64	C	-0.151076	0.159187	0.000074
C65	C	0.182258	0.492520	0.333407
C66	C	0.515591	0.825853	0.666741
C67	C	-0.107253	0.190477	0.000070
C68	C	0.226080	0.523811	0.333403
C69	C	0.559413	0.857144	0.666736
C70	C	-0.062919	0.171356	0.000070
C71	C	0.270415	0.504690	0.333403
C72	C	0.603748	0.838023	0.666736
C73	C	0.025757	0.133117	0.000075
C74	C	0.359090	0.466451	0.333408
C75	C	0.692423	0.799784	0.666741
C76	C	0.025240	0.183535	0.000076
C77	C	0.358573	0.516868	0.333409
C78	C	0.691906	0.850201	0.666743
C79	C	-0.019098	0.202655	0.000076
C80	C	0.314235	0.535989	0.333409
C81	C	0.647568	0.869322	0.666742
C82	C	-0.019609	0.253059	0.000062
C83	C	0.313724	0.586392	0.333395
C84	C	0.647058	0.919725	0.666728
N85	N	-0.063944	0.272183	0.000066
N86	N	0.269389	0.605516	0.333400
N87	N	0.602723	0.938849	0.666733
C88	C	-0.107766	0.240892	0.000071
C89	C	0.225567	0.574225	0.333404
C90	C	0.558900	0.907559	0.666737
C91	C	-0.014943	-0.205709	0.000074
C92	C	0.318390	0.127624	0.333407
C93	C	0.651724	0.460957	0.666740
C94	C	-0.014430	-0.256124	0.000073
C95	C	0.318903	0.077210	0.333406
C96	C	0.652237	0.410543	0.666740
C97	C	-0.102591	-0.268291	0.000082
C98	C	0.230742	0.065042	0.333415
C99	C	0.564076	0.398376	0.666748
C100	C	-0.103104	-0.217876	0.000079
C101	C	0.230230	0.115458	0.333412
C102	C	0.563563	0.448791	0.666745
C103	C	-0.059278	-0.186585	0.000079
C104	C	0.274055	0.146748	0.333412
C105	C	0.607388	0.480081	0.666745
C106	C	-0.108839	0.346761	0.000062
C107	C	0.224495	0.680094	0.333395
C108	C	0.557828	1.013428	0.666729
C109	C	-0.109347	0.397178	0.000056
C110	C	0.223986	0.730511	0.333389
C111	C	0.557319	1.063845	0.666723
C112	C	-0.021186	0.409341	0.000050
C113	C	0.312147	0.742674	0.333384
C114	C	0.645480	1.076008	0.666717
C115	C	-0.020678	0.358929	0.000054
C116	C	0.312656	0.692262	0.333387
C117	C	0.645989	1.025595	0.666720
C118	C	-0.064508	0.327639	0.000061
C119	C	0.268825	0.660973	0.333394
C120	C	0.602159	0.994306	0.666728
O121	O	0.017592	0.284343	0.000042
O122	O	0.350925	0.617676	0.333375
O123	O	0.684259	0.951009	0.666709
O124	O	-0.145518	0.261794	0.000081
O125	O	0.187816	0.595128	0.333414
O126	O	0.521149	0.928461	0.666747
C127	C	-0.105716	0.039242	0.000081
C128	C	0.227617	0.372575	0.333415
C129	C	0.560950	0.705908	0.666748
C130	C	-0.061382	0.020120	0.000081
C131	C	0.271951	0.353454	0.333415
C132	C	0.605285	0.686787	0.666748
C133	C	-0.017560	0.051411	0.000077
C134	C	0.315774	0.384744	0.333410
C135	C	0.649107	0.718078	0.666744
C136	C	-0.060869	-0.030294	0.000080
C137	C	0.272464	0.303039	0.333414
C138	C	0.605798	0.636373	0.666747
C139	C	-0.104691	-0.061585	0.000085
C140	C	0.228642	0.271749	0.333418
C141	C	0.561975	0.605082	0.666751
C142	C	-0.149026	-0.042461	0.000089
C143	C	0.184307	0.290872	0.333423
C144	C	0.517640	0.624206	0.666756
C145	C	-0.149539	0.007951	0.000086
C146	C	0.183795	0.341284	0.333419
C147	C	0.517128	0.674618	0.666752
C148	C	0.026775	0.032287	0.000072
C149	C	0.360109	0.365621	0.333405
C150	C	0.693442	0.698954	0.666739
C151	C	0.027284	-0.018125	0.000075
C152	C	0.360617	0.315208	0.333409
C153	C	0.693951	0.648541	0.666742
C154	C	-0.016538	-0.049416	0.000080
C155	C	0.316795	0.283917	0.333413
C156	C	0.650129	0.617251	0.666746
C157	C	-0.150292	0.566338	0.000075
C158	C	0.183041	0.899671	0.333408
C159	C	0.516374	1.233005	0.666741
C160	C	-0.203947	0.566891	0.000080
C161	C	0.129386	0.900224	0.333413
C162	C	0.462720	1.233557	0.666747
C163	C	-0.542762	0.526187	0.000051
C164	C	-0.209429	0.859520	0.333384
C165	C	0.123904	1.192854	0.666718
C166	C	-0.744422	0.528238	0.000045
C167	C	-0.411088	0.861571	0.333379
C168	C	-0.077755	1.194905	0.666712
O169	O	-0.775677	0.491017	0.000019
O170	O	-0.442344	0.824351	0.333353
O171	O	-0.109011	1.157684	0.666686
N172	N	-0.763546	0.572573	0.000050
N173	N	-0.430212	0.905907	0.333384
N174	N	-0.096879	1.239240	0.666717
C175	C	-0.732251	0.616399	0.000054
C176	C	-0.398918	0.949732	0.333387
C177	C	-0.065584	1.283065	0.666720
O178	O	-0.753144	0.654156	0.000053
O179	O	-0.419811	0.987489	0.333386
O180	O	-0.086477	1.320822	0.666720
C181	C	-0.530592	0.614347	0.000056
C182	C	-0.197259	0.947681	0.333389
C183	C	0.136074	1.281014	0.666723
C184	C	-0.511472	0.570009	0.000056
C185	C	-0.178138	0.903343	0.333389
C186	C	0.155195	1.236676	0.666723
C187	C	-0.523641	0.481853	0.000051
C188	C	-0.190308	0.815186	0.333384
C189	C	0.143026	1.148519	0.666717
C190	C	-0.473229	0.481340	0.000055
C191	C	-0.139896	0.814674	0.333388
C192	C	0.193438	1.148007	0.666721
C193	C	-0.441938	0.525162	0.000060
C194	C	-0.108605	0.858496	0.333393
C195	C	0.224728	1.191829	0.666726
C196	C	-0.461060	0.569497	0.000060
C197	C	-0.127726	0.902830	0.333394
C198	C	0.205607	1.236164	0.666727
C199	C	-0.499299	0.658172	0.000056
C200	C	-0.165965	0.991506	0.333389
C201	C	0.167368	1.324839	0.666722
C202	C	-0.448881	0.657656	0.000055
C203	C	-0.115548	0.990989	0.333388
C204	C	0.217785	1.324322	0.666722
C205	C	-0.429761	0.613317	0.000055
C206	C	-0.096427	0.946651	0.333388
C207	C	0.236906	1.279984	0.666722
C208	C	-0.379357	0.612807	0.000069
C209	C	-0.046024	0.946140	0.333403
C210	C	0.287310	1.279474	0.666736
N211	N	-0.360233	0.568472	0.000064
N212	N	-0.026900	0.901805	0.333397
N213	N	0.306433	1.235138	0.666731
C214	C	-0.391524	0.524649	0.000059
C215	C	-0.058191	0.857983	0.333393
C216	C	0.275143	1.191316	0.666726
C217	C	-0.838125	0.617473	0.000054
C218	C	-0.504792	0.950806	0.333387
C219	C	-0.171458	1.284139	0.666720
C220	C	-0.888539	0.617986	0.000054
C221	C	-0.555206	0.951319	0.333387
C222	C	-0.221873	1.284652	0.666721
C223	C	-0.900707	0.529825	0.000045
C224	C	-0.567374	0.863158	0.333378
C225	C	-0.234040	1.196491	0.666711
C226	C	-0.850291	0.529312	0.000048
C227	C	-0.516958	0.862646	0.333381
C228	C	-0.183625	1.195979	0.666714
C229	C	-0.819001	0.573138	0.000048
C230	C	-0.485668	0.906471	0.333382
C231	C	-0.152335	1.239804	0.666715
C232	C	-0.285655	0.523577	0.000069
C233	C	0.047679	0.856910	0.333402
C234	C	0.381012	1.190244	0.666735
C235	C	-0.235238	0.523069	0.000075
C236	C	0.098096	0.856402	0.333408
C237	C	0.431429	1.189735	0.666742
C238	C	-0.223075	0.611229	0.000082
C239	C	0.110259	0.944563	0.333415
C240	C	0.443592	1.277896	0.666749
C241	C	-0.273487	0.611738	0.000078
C242	C	0.059846	0.945071	0.333412
C243	C	0.393179	1.278405	0.666745
C244	C	-0.304777	0.567908	0.000070
C245	C	0.028557	0.901241	0.333403
C246	C	0.361890	1.234575	0.666737
O247	O	-0.348073	0.650008	0.000090
O248	O	-0.014740	0.983341	0.333423
O249	O	0.318594	1.316674	0.666756
O250	O	-0.370621	0.486898	0.000049
O251	O	-0.037288	0.820231	0.333382
O252	O	0.296045	1.153565	0.666716
C253	C	-0.593174	0.526699	0.000047
C254	C	-0.259841	0.860033	0.333380
C255	C	0.073493	1.193366	0.666714
C256	C	-0.612295	0.571034	0.000048
C257	C	-0.278962	0.904367	0.333381
C258	C	0.054371	1.237700	0.666714
C259	C	-0.581005	0.614856	0.000052
C260	C	-0.247671	0.948189	0.333386
C261	C	0.085662	1.281523	0.666719
C262	C	-0.662710	0.571547	0.000048
C263	C	-0.329377	0.904880	0.333381
C264	C	0.003957	1.238213	0.666715
C265	C	-0.694001	0.527725	0.000043
C266	C	-0.360667	0.861058	0.333376
C267	C	-0.027334	1.194391	0.666710
C268	C	-0.674877	0.483389	0.000038
C269	C	-0.341543	0.816723	0.333371
C270	C	-0.008210	1.150056	0.666704
C271	C	-0.624465	0.482877	0.000042
C272	C	-0.291131	0.816210	0.333375
C273	C	0.042202	1.149544	0.666709
C274	C	-0.600129	0.659191	0.000058
C275	C	-0.266795	0.992525	0.333391
C276	C	0.066538	1.325858	0.666724
C277	C	-0.650541	0.659700	0.000054
C278	C	-0.317208	0.993033	0.333387
C279	C	0.016126	1.326367	0.666721
C280	C	-0.681832	0.615878	0.000049
C281	C	-0.348498	0.949211	0.333382
C282	C	-0.015165	1.282544	0.666716
C283	C	0.026515	0.574716	0.000058
C284	C	0.359848	0.908050	0.333391
C285	C	0.693182	1.241383	0.666724
C286	C	0.080170	0.574164	0.000049
C287	C	0.413503	0.907497	0.333382
C288	C	0.746837	1.240830	0.666716
C289	C	-0.057699	0.658931	0.000075
C290	C	0.275634	0.992264	0.333408
C291	C	0.608967	1.325598	0.666741
C292	C	-0.058252	0.712586	0.000077
C293	C	0.275081	1.045919	0.333411
C294	C	0.608414	1.379252	0.666744
N295	N	-0.061905	0.570510	0.120828
N296	N	0.271428	0.903844	0.454161
N297	N	0.604762	1.237177	0.787495
N298	N	-0.061868	0.570548	-0.120694
N299	N	0.271465	0.903881	0.212639
N300	N	0.604798	1.237215	0.545972
C301	C	-0.028781	0.603640	0.473342
C302	C	0.304552	0.936974	0.806676
C303	C	0.637885	1.270307	1.140009
C304	C	-0.028774	0.603651	0.687001
C305	C	0.304559	0.936984	1.020334
C306	C	0.637892	1.270318	1.353668
O307	O	-0.000614	0.631801	0.714623
O308	O	0.332720	0.965134	1.047956
O309	O	0.666053	1.298467	1.381290
N310	N	-0.061871	0.570538	0.713722
N311	N	0.271462	0.903872	1.047055
N312	N	0.604796	1.237205	1.380389
C313	C	-0.094970	0.537419	0.687025
C314	C	0.238364	0.870752	1.020358
C315	C	0.571697	1.204085	1.353692
O316	O	-0.123117	0.509251	0.714655
O317	O	0.210216	0.842585	1.047988
O318	O	0.543550	1.175918	1.381322
C319	C	-0.094974	0.537406	0.473367
C320	C	0.238360	0.870739	0.806701
C321	C	0.571693	1.204073	1.140034
C322	C	-0.061878	0.570524	0.446649
C323	C	0.271455	0.903857	0.779982
C324	C	0.604788	1.237191	1.113316
C325	C	0.004312	0.636755	0.446624
C326	C	0.337645	0.970088	0.779957
C327	C	0.670979	1.303422	1.113291
C328	C	0.004308	0.636754	0.393213
C329	C	0.337642	0.970087	0.726546
C330	C	0.670975	1.303421	1.059879
C331	C	-0.028789	0.603638	0.366519
C332	C	0.304545	0.936971	0.699853
C333	C	0.637878	1.270304	1.033186
C334	C	-0.061882	0.570523	0.393238
C335	C	0.271451	0.903856	0.726571
C336	C	0.604785	1.237189	1.059904
C337	C	-0.128070	0.504284	0.446671
C338	C	0.205264	0.837618	0.780005
C339	C	0.538597	1.170951	1.113338
C340	C	-0.128067	0.504283	0.393253
C341	C	0.205266	0.837617	0.726587
C342	C	0.538600	1.170950	1.059920
C343	C	-0.094971	0.537401	0.366535
C344	C	0.238362	0.870735	0.699869
C345	C	0.571695	1.204068	1.033202
C346	C	-0.094983	0.537405	0.313133
C347	C	0.238351	0.870739	0.646466
C348	C	0.571684	1.204072	0.979800
N349	N	-0.061886	0.570518	0.286412
N350	N	0.271447	0.903851	0.619745
N351	N	0.604781	1.237185	0.953079
C352	C	-0.028789	0.603634	0.313105
C353	C	0.304544	0.936967	0.646439
C354	C	0.637878	1.270301	0.979772
C355	C	-0.094966	0.537428	0.799198
C356	C	0.238368	0.870762	1.132532
C357	C	0.571701	1.204095	1.465865
C358	C	-0.094965	0.537432	0.852612
C359	C	0.238368	0.870765	1.185946
C360	C	0.571701	1.204099	1.519279
C361	C	-0.028769	0.603664	0.852585
C362	C	0.304564	0.936997	1.185918
C363	C	0.637897	1.270330	1.519251
C364	C	-0.028773	0.603662	0.799170
C365	C	0.304561	0.936995	1.132503
C366	C	0.637894	1.270329	1.465836
C367	C	-0.061869	0.570541	0.772477
C368	C	0.271464	0.903874	1.105811
C369	C	0.604798	1.237207	1.439144
C370	C	-0.028800	0.603629	0.200937
C371	C	0.304533	0.936963	0.534271
C372	C	0.637867	1.270296	0.867604
C373	C	-0.028808	0.603626	0.147521
C374	C	0.304525	0.936960	0.480855
C375	C	0.637859	1.270293	0.814188
C376	C	-0.095002	0.537393	0.147553
C377	C	0.238331	0.870726	0.480887
C378	C	0.571665	1.204060	0.814220
C379	C	-0.094996	0.537397	0.200965
C380	C	0.238338	0.870731	0.534298
C381	C	0.571671	1.204064	0.867632
C382	C	-0.061891	0.570517	0.227656
C383	C	0.271443	0.903851	0.560989
C384	C	0.604776	1.237184	0.894322
O385	O	-0.123125	0.509267	0.285478
O386	O	0.210208	0.842600	0.618811
O387	O	0.543542	1.175933	0.952144
O388	O	-0.000639	0.631790	0.285466
O389	O	0.332694	0.965123	0.618799
O390	O	0.666028	1.298457	0.952132
C391	C	-0.028777	0.603641	0.526754
C392	C	0.304556	0.936975	0.860087
C393	C	0.637889	1.270308	1.193420
C394	C	-0.061871	0.570527	0.553472
C395	C	0.271463	0.903860	0.886805
C396	C	0.604796	1.237193	1.220139
C397	C	-0.094968	0.537410	0.526779
C398	C	0.238366	0.870744	0.860112
C399	C	0.571699	1.204077	1.193445
C400	C	-0.061870	0.570530	0.606886
C401	C	0.271463	0.903864	0.940219
C402	C	0.604796	1.237197	1.273553
C403	C	-0.028773	0.603646	0.633579
C404	C	0.304560	0.936980	0.966913
C405	C	0.637893	1.270313	1.300246
C406	C	0.004323	0.636759	0.606858
C407	C	0.337657	0.970092	0.940192
C408	C	0.670990	1.303426	1.273525
C409	C	0.004320	0.636758	0.553447
C410	C	0.337653	0.970091	0.886780
C411	C	0.670986	1.303424	1.220114
C412	C	-0.128064	0.504298	0.553500
C413	C	0.205269	0.837631	0.886833
C414	C	0.538602	1.170964	1.220166
C415	C	-0.128058	0.504302	0.606911
C416	C	0.205275	0.837635	0.940244
C417	C	0.538609	1.170969	1.273578
C418	C	-0.094961	0.537418	0.633604
C419	C	0.238372	0.870752	0.966938
C420	C	0.571706	1.204085	1.300271
H421	H	-0.145454	0.412743	0.000055
H422	H	0.187879	0.746076	0.333389
H423	H	0.521213	1.079410	0.666722
H424	H	0.031266	0.663722	0.468353
H425	H	0.364599	0.997056	0.801686
H426	H	0.697932	1.330389	1.135020
H427	H	-0.423407	0.693344	0.000053
H428	H	-0.090073	1.026678	0.333386
H429	H	0.243260	1.360011	0.666719
H430	H	-0.121951	0.510432	0.125812
H431	H	0.211383	0.843765	0.459145
H432	H	0.544716	1.177098	0.792478
H433	H	-0.574656	0.694877	0.000061
H434	H	-0.241323	1.028211	0.333394
H435	H	0.092011	1.361544	0.666728
H436	H	-0.155015	0.477330	0.531770
H437	H	0.178318	0.810663	0.865104
H438	H	0.511651	1.143997	1.198437
H439	H	-0.139207	-0.202311	0.000081
H440	H	0.194126	0.131022	0.333415
H441	H	0.527459	0.464355	0.666748
H442	H	0.031259	0.663720	0.371462
H443	H	0.364592	0.997053	0.704795
H444	H	0.697925	1.330387	1.038128
H445	H	-0.904103	0.654090	0.000062
H446	H	-0.570769	0.987424	0.333395
H447	H	-0.237436	1.320757	0.666729
H448	H	-0.186251	0.083302	0.000083
H449	H	0.147083	0.416636	0.333416
H450	H	0.480416	0.749969	0.666750
Br451	Br	-0.162064	-0.310766	0.000088
Br452	Br	0.171270	0.022567	0.333421
Br453	Br	0.504603	0.355900	0.666754
H454	H	-0.155013	0.477334	0.628661
H455	H	0.178321	0.810668	0.961995
H456	H	0.511654	1.144001	1.295328
Br457	Br	0.085934	0.107181	0.000064
Br458	Br	0.419267	0.440514	0.333397
Br459	Br	0.752600	0.773848	0.666731
Br460	Br	0.016108	0.648577	0.111263
Br461	Br	0.349442	0.981910	0.444597
Br462	Br	0.682775	1.315244	0.777930
Br463	Br	-0.209715	0.033892	0.000084
Br464	Br	0.123618	0.367226	0.333418
Br465	Br	0.456952	0.700559	0.666751
Br466	Br	0.049237	0.681706	0.517194
Br467	Br	0.382570	1.015039	0.850527
Br468	Br	0.715903	1.348373	1.183861
Br469	Br	0.084721	0.225997	0.000079
Br470	Br	0.418054	0.559331	0.333412
Br471	Br	0.751387	0.892664	0.666745
Br472	Br	0.039496	0.332978	0.000055
Br473	Br	0.372829	0.666311	0.333389
Br474	Br	0.706162	0.999644	0.666722
H475	H	0.021674	-0.271687	0.000065
H476	H	0.355008	0.061646	0.333399
H477	H	0.688341	0.394980	0.666732
H478	H	-0.608902	0.446773	0.000042
H479	H	-0.275568	0.780106	0.333376
H480	H	0.057765	1.113439	0.666709
Br481	Br	-0.172987	0.459337	0.482921
Br482	Br	0.160347	0.792670	0.816254
Br483	Br	0.493680	1.126003	1.149587
Br484	Br	-0.525235	0.718349	0.000044
Br485	Br	-0.191901	1.051683	0.333377
Br486	Br	0.141432	1.385016	0.666711
Br487	Br	-0.676483	0.719879	0.000055
Br488	Br	-0.343150	1.053212	0.333388
Br489	Br	-0.009817	1.386546	0.666721
H490	H	0.031271	0.663725	0.628601
H491	H	0.364604	0.997059	0.961934
H492	H	0.697937	1.330392	1.295267
H493	H	0.014492	0.434827	0.000045
H494	H	0.347826	0.768160	0.333378
H495	H	0.681159	1.101494	0.666712
H496	H	-0.001821	0.630629	0.874327
H497	H	0.331512	0.963962	1.207661
H498	H	0.664845	1.297296	1.540994
H499	H	-0.155018	0.477311	0.371523
H500	H	0.178316	0.810644	0.704856
H501	H	0.511649	1.143977	1.038190
H502	H	-0.834727	0.493208	0.000050
H503	H	-0.501394	0.826542	0.333383
H504	H	-0.168061	1.159875	0.666717
Br505	Br	0.044540	-0.163250	0.000074
Br506	Br	0.377874	0.170083	0.333407
Br507	Br	0.711207	0.503416	0.666741
H508	H	-0.184708	-0.067947	0.000091
H509	H	0.148625	0.265386	0.333424
H510	H	0.481959	0.598720	0.666757
Br511	Br	-0.299438	0.671911	0.000100
Br512	Br	0.033895	1.005245	0.333433
Br513	Br	0.367229	1.338578	0.666767
H514	H	0.063392	-0.033688	0.000072
H515	H	0.396725	0.299645	0.333405
H516	H	0.730059	0.632979	0.666738
Br517	Br	-0.447288	0.421164	0.000049
Br518	Br	-0.113954	0.754497	0.333383
Br519	Br	0.219379	1.087831	0.666716
Br520	Br	-0.209292	0.462892	0.000078
Br521	Br	0.124042	0.796225	0.333411
Br522	Br	0.457375	1.129558	0.666744
H523	H	-0.700363	0.447708	0.000037
H524	H	-0.367029	0.781041	0.333370
H525	H	-0.033696	1.114375	0.666704
Br526	Br	-0.566098	0.422371	0.000042
Br527	Br	-0.232765	0.755704	0.333375
Br528	Br	0.100568	1.089038	0.666708
Br529	Br	-0.139919	0.492457	0.237224
Br530	Br	0.193415	0.825790	0.570557
Br531	Br	0.526748	1.159123	0.903891
Br532	Br	-0.328111	0.464093	0.000058
Br533	Br	0.005222	0.797426	0.333391
Br534	Br	0.338556	1.130759	0.666724
H535	H	0.062462	0.057760	0.000070
H536	H	0.395795	0.391093	0.333403
H537	H	0.729128	0.724427	0.666737
H538	H	-0.812652	0.653163	0.000055
H539	H	-0.479319	0.986496	0.333388
H540	H	-0.145985	1.319829	0.666722
Br541	Br	-0.943182	0.470352	0.000039
Br542	Br	-0.609849	0.803685	0.333372
Br543	Br	-0.276516	1.137019	0.666706
Br544	Br	0.016129	0.648578	0.237152
Br545	Br	0.349462	0.981911	0.570485
Br546	Br	0.682796	1.315245	0.903818
Br547	Br	0.016144	0.648609	0.762915
Br548	Br	0.349478	0.981943	1.096248
Br549	Br	0.682811	1.315276	1.429582
H550	H	-0.121920	0.510469	0.874363
H551	H	0.211413	0.843803	1.207696
H552	H	0.544747	1.177136	1.541029
H553	H	-0.187180	0.174750	0.000074
H554	H	0.146153	0.508083	0.333407
H555	H	0.479487	0.841416	0.666740
H556	H	-0.197589	0.646908	0.000088
H557	H	0.135744	0.980241	0.333422
H558	H	0.469078	1.313575	0.666755
H559	H	-0.144530	0.321291	0.000070
H560	H	0.188804	0.654624	0.333403
H561	H	0.522137	0.987957	0.666736
Br562	Br	-0.139887	0.492475	0.762979
Br563	Br	0.193446	0.825808	1.096312
Br564	Br	0.526779	1.159142	1.429645
