data_functionalizedCrystal
_audit_creation_method	'MofGen! by Chris Wilmer'
_symmetry_space_group_name_H-M	'P1'
_symmetry_Int_Tables_number	1
_symmetry_cell_setting	triclinic
loop_
_symmetry_equiv_pos_as_xyz
  x,y,z
_cell_length_a	13.897449
_cell_length_b	13.897447
_cell_length_c	19.076919
_cell_angle_alpha	92.274152
_cell_angle_beta	92.282068
_cell_angle_gamma	90.020810
loop_
_atom_site_label
_atom_site_type_symbol
_atom_site_fract_x
_atom_site_fract_y
_atom_site_fract_z
Zn1	Zn	1.452734	-0.405914	-0.397943
Zn2	Zn	1.952734	0.094086	0.102057
Zn3	Zn	1.459116	-0.560741	-0.280254
Zn4	Zn	1.959116	-0.060741	0.219746
Zn5	Zn	1.297916	-0.399465	-0.280264
Zn6	Zn	1.797916	0.100535	0.219736
Zn7	Zn	1.291401	-0.567171	-0.397912
Zn8	Zn	1.791401	-0.067171	0.102088
O9	O	1.375292	-0.483323	-0.339093
O10	O	1.875292	0.016677	0.160907
O11	O	1.588561	-0.426460	-0.382340
O12	O	2.088561	0.073540	0.117660
O13	O	1.443130	-0.533957	-0.181766
O14	O	1.943130	-0.033957	0.318234
O15	O	1.318508	-0.265340	-0.295892
O16	O	1.818508	0.234660	0.204108
O17	O	1.593250	-0.540210	-0.295875
O18	O	2.093250	-0.040210	0.204125
O19	O	1.432252	-0.270078	-0.382350
O20	O	1.932252	0.229922	0.117650
O21	O	1.324697	-0.415469	-0.181774
O22	O	1.824697	0.084531	0.318226
O23	O	1.162070	-0.421704	-0.295862
O24	O	1.662070	0.078296	0.204138
O25	O	1.307405	-0.551170	-0.496406
O26	O	1.807405	-0.051170	0.003594
O27	O	1.157284	-0.544917	-0.382297
O28	O	1.657284	-0.044917	0.117703
O29	O	1.425935	-0.432695	-0.496428
O30	O	1.925935	0.067305	0.003572
O31	O	1.436813	-0.696574	-0.295845
O32	O	1.936813	-0.196574	0.204155
O33	O	1.313593	-0.701299	-0.382288
O34	O	1.813593	-0.201299	0.117712
C35	C	1.375214	-0.733936	-0.339077
C36	C	1.875214	-0.233936	0.160923
C37	C	1.375268	-0.841151	-0.339094
C38	C	1.875268	-0.341151	0.160906
C39	C	1.124678	-0.483309	-0.339077
C40	C	1.624678	0.016691	0.160923
C41	C	1.017464	-0.483327	-0.339087
C42	C	1.517464	0.016673	0.160913
C43	C	0.821168	-0.483332	-0.339106
C44	C	1.321168	0.016668	0.160894
C45	C	0.930401	-0.483326	-0.339093
C46	C	1.430401	0.016674	0.160907
C47	C	1.375314	-0.928222	-0.339110
C48	C	1.875314	-0.428222	0.160890
C49	C	1.375380	-1.037455	-0.339128
C50	C	1.875380	-0.537455	0.160872
C51	C	1.626884	-0.483337	-0.339110
C52	C	2.126884	0.016663	0.160890
C53	C	1.734097	-0.483343	-0.339117
C54	C	2.234097	0.016657	0.160883
C55	C	1.365231	-0.493369	-0.522668
C56	C	1.865231	0.006631	-0.022668
C57	C	1.360944	-0.497650	-0.600897
C58	C	1.860944	0.002350	-0.100897
C59	C	1.375395	-0.231731	-0.339125
C60	C	1.875395	0.268269	0.160875
C61	C	1.375439	-0.124518	-0.339139
C62	C	1.875439	0.375482	0.160861
C63	C	1.420639	-0.437981	-0.637662
C64	C	1.920639	0.062019	-0.137662
C65	C	1.416599	-0.442000	-0.711166
C66	C	1.916599	0.058000	-0.211166
C67	C	1.352868	-0.505694	-0.747904
C68	C	1.852868	-0.005694	-0.247904
C69	C	1.293167	-0.565366	-0.711134
C70	C	1.793167	-0.065366	-0.211134
C71	C	1.297202	-0.561341	-0.637631
C72	C	1.797202	-0.061341	-0.137631
C73	C	1.334176	-0.524340	-0.967732
C74	C	1.834176	-0.024340	-0.467732
C75	C	1.330147	-0.528362	-1.041240
C76	C	1.830147	-0.028362	-0.541240
C77	C	1.453579	-0.404995	-1.041267
C78	C	1.953579	0.095005	-0.541267
C79	C	1.457613	-0.400980	-0.967763
C80	C	1.957613	0.099020	-0.467763
C81	C	1.397908	-0.460648	-0.930999
C82	C	1.897908	0.039352	-0.430999
N83	N	1.348740	-0.509806	-0.823037
N84	N	1.848740	-0.009806	-0.323037
N85	N	1.402033	-0.456531	-0.855868
N86	N	1.902033	0.043469	-0.355868
C87	C	1.385368	-0.473246	-0.156233
C88	C	1.885368	0.026754	0.343767
C89	C	1.389842	-0.468693	-0.078005
C90	C	1.889842	0.031307	0.421995
H91	H	1.472539	-0.386118	-0.607755
H92	H	1.972539	0.113882	-0.107755
H93	H	1.278247	-0.580231	-1.071150
H94	H	1.778247	-0.080231	-0.571150
H95	H	1.285574	-0.572940	-0.937808
H96	H	1.785574	-0.072940	-0.437808
H97	H	1.509512	-0.349116	-0.937856
H98	H	2.009512	0.150884	-0.437856
H99	H	1.241272	-0.617223	-0.741051
H100	H	1.741272	-0.117223	-0.241051
H101	H	1.465212	-0.393413	-0.741097
H102	H	1.965212	0.106587	-0.241097
H103	H	1.502186	-0.356415	-1.071208
H104	H	2.002186	0.143585	-0.571208
Br105	Br	1.216178	-0.642318	-0.587734
Br106	Br	1.716178	-0.142318	-0.087734
