data_functionalizedCrystal
_audit_creation_method	'MofGen! by Chris Wilmer'
_symmetry_space_group_name_H-M	'P1'
_symmetry_Int_Tables_number	1
_symmetry_cell_setting	triclinic
loop_
_symmetry_equiv_pos_as_xyz
  x,y,z
_cell_length_a	10.654550
_cell_length_b	14.044220
_cell_length_c	9.730223
_cell_angle_alpha	89.994583
_cell_angle_beta	89.999957
_cell_angle_gamma	88.836904
loop_
_atom_site_label
_atom_site_type_symbol
_atom_site_fract_x
_atom_site_fract_y
_atom_site_fract_z
O1	O	1.681228	0.133232	-0.114191
O2	O	1.317025	0.145925	-0.114216
O3	O	1.493659	0.001558	-0.114190
O4	O	1.504593	0.277599	-0.114217
O5	O	1.493647	0.001554	0.114390
O6	O	1.317012	0.145921	0.114364
O7	O	1.681215	0.133228	0.114389
Zn8	Zn	1.499111	0.139574	0.150668
Zn9	Zn	1.499128	0.139579	-0.150496
O10	O	1.504580	0.277595	0.114363
C11	C	1.270127	0.144991	0.000070
C12	C	1.130403	0.142202	0.000061
C13	C	1.059459	0.227204	0.000057
C14	C	0.928175	0.224578	0.000081
C15	C	0.938790	0.051942	0.000108
C16	C	1.070072	0.054569	0.000094
C17	C	1.488867	-0.033790	0.000100
C18	C	1.474592	-0.139110	0.000101
C19	C	1.448493	-0.331943	0.000079
C20	C	1.549741	-0.388910	0.000082
C21	C	1.535219	-0.496209	0.000070
C22	C	1.463013	-0.224634	0.000091
C23	C	1.728113	0.134162	0.000099
C24	C	1.867836	0.136950	0.000100
C25	C	1.509372	0.312943	0.000070
C26	C	1.523648	0.418262	0.000060
N27	N	1.499109	0.139570	0.356205
N28	N	1.499140	0.139576	-0.356032
C29	C	1.577355	0.075671	0.428142
C30	C	1.577367	0.075671	0.572025
C31	C	1.420885	0.203477	0.572021
C32	C	1.420867	0.203471	0.428140
H33	H	0.870417	0.293795	0.000080
C34	C	0.873051	-0.043104	0.000060
C35	C	0.742894	-0.027214	0.000032
C36	C	0.682299	-0.114749	-0.000035
H37	H	0.896604	-0.078214	0.079752
H38	H	0.896670	-0.078148	-0.079681
H39	H	0.719284	0.007815	0.079764
H40	H	0.719304	0.007882	-0.079654
H41	H	0.705918	-0.149793	-0.079776
H42	H	0.705862	-0.149853	0.079658
H43	H	0.593982	-0.103980	-0.000067
H44	H	1.127837	-0.014653	0.000101
C45	C	1.679759	-0.346317	0.000177
C46	C	1.668506	-0.246816	0.000224
C47	C	1.788246	-0.207543	0.000335
H48	H	1.724245	-0.366703	-0.079506
H49	H	1.724127	-0.366776	0.079926
H50	H	1.624157	-0.226366	-0.079517
H51	H	1.624043	-0.226404	0.079901
H52	H	1.832614	-0.228002	0.080084
H53	H	1.832722	-0.227936	-0.079349
H54	H	1.780627	-0.140028	0.000379
H55	H	1.108577	0.298560	0.000041
H56	H	1.641062	0.023637	0.369576
H57	H	1.350913	-0.363754	0.000069
C58	C	1.662460	0.006255	0.649880
C59	C	1.730994	-0.049689	0.556081
C60	C	1.809408	-0.113640	0.627749
H61	H	1.612978	-0.033641	0.706026
H62	H	1.718666	0.040726	0.705965
H63	H	1.674796	-0.084157	0.500019
H64	H	1.780500	-0.009818	0.499932
H65	H	1.865613	-0.079169	0.683834
H66	H	1.759916	-0.153530	0.683893
H67	H	1.855926	-0.151600	0.564117
C68	C	1.336022	0.273010	0.649945
C69	C	1.366805	0.366368	0.614891
C70	C	1.288643	0.430449	0.686628
H71	H	1.347160	0.263999	0.745960
H72	H	1.250973	0.262171	0.626348
H73	H	1.451832	0.377203	0.638497
H74	H	1.355660	0.375409	0.518888
H75	H	1.203594	0.419609	0.663031
H76	H	1.299787	0.421429	0.782640
H77	H	1.309510	0.493798	0.662844
H78	H	1.357144	0.255506	0.369565
