data_functionalizedCrystal
_audit_creation_method	'MofGen! by Chris Wilmer'
_symmetry_space_group_name_H-M	'P1'
_symmetry_Int_Tables_number	1
_symmetry_cell_setting	triclinic
loop_
_symmetry_equiv_pos_as_xyz
  x,y,z
_cell_length_a	14.446369
_cell_length_b	17.917603
_cell_length_c	17.917603
_cell_angle_alpha	90.239941
_cell_angle_beta	63.036187
_cell_angle_gamma	57.009316
loop_
_atom_site_label
_atom_site_type_symbol
_atom_site_fract_x
_atom_site_fract_y
_atom_site_fract_z
Zr1	Zr	0.920836	0.757774	-0.060818
O2	O	1.113958	0.638343	-0.180238
O3	O	0.727715	0.794391	-0.024208
O4	O	0.903222	0.801493	-0.173120
O5	O	0.952344	0.625633	0.086138
O6	O	0.889328	0.930183	-0.167507
O7	O	0.938450	0.631241	-0.031326
O8	O	0.575377	0.917479	0.098870
O9	O	1.266296	0.638338	-0.180239
O10	O	0.796779	0.906041	-0.004407
O11	O	0.817517	0.805816	0.079066
O12	O	1.024155	0.814178	-0.096259
O13	O	1.044893	0.713953	-0.012787
Zr14	Zr	0.920835	0.954075	0.135475
Zr15	Zr	0.898676	0.963019	-0.051865
Zr16	Zr	0.942996	0.748830	0.126523
Zr17	Zr	1.163797	0.757765	-0.060820
Zr18	Zr	0.677875	0.954084	0.135477
O19	O	1.113957	0.917458	0.098866
O20	O	1.082449	0.930176	-0.167508
O21	O	1.145466	0.625626	0.086136
O22	O	0.727713	1.073506	0.254896
O23	O	0.696206	1.086224	-0.011479
O24	O	0.759222	0.781674	0.242166
O25	O	0.889327	1.086216	-0.011480
O26	O	0.938449	0.910356	0.247778
O27	O	0.952344	0.781666	0.242165
O28	O	0.903221	1.080608	0.105983
O29	O	1.248681	0.801480	-0.173123
O30	O	0.592990	0.910369	0.247781
O31	O	0.575376	1.073512	0.254897
O32	O	0.557762	1.080621	0.105986
O33	O	1.283909	0.631228	-0.031328
O34	O	1.266295	0.794371	-0.024212
O35	O	0.817517	0.897671	0.170917
O36	O	0.796779	0.997896	0.087444
O37	O	1.024154	0.906033	-0.004408
O38	O	1.044893	0.805808	0.079064
C39	C	0.616929	0.855936	0.037331
C40	C	0.513786	0.855940	0.037332
C41	C	0.461423	0.919155	-0.015323
C42	C	0.354499	0.918886	-0.015633
C43	C	0.461127	0.753436	-0.007263
C44	C	0.568416	0.753806	-0.007664
C45	C	0.393614	0.894350	0.134570
C46	C	0.284908	0.896447	0.134514
C47	C	0.948555	0.599194	0.026131
C48	C	0.957962	0.512062	0.022330
C49	C	0.975147	0.352549	0.015389
C50	C	0.866531	0.359294	0.059267
C51	C	0.876092	0.270535	0.055405
C52	C	0.965588	0.441314	0.019250
C53	C	1.224743	0.855913	0.037327
C54	C	1.327886	0.855909	0.037326
C55	C	0.893118	0.867113	-0.197006
C56	C	0.883711	0.870910	-0.276537
C57	C	0.893117	1.112655	0.048527
C58	C	0.883709	1.199787	0.052328
C59	C	0.866525	0.877865	-0.422165
C60	C	0.975141	0.833986	-0.503180
C61	C	0.965579	0.837856	-0.584213
C62	C	0.876085	0.873996	-0.341124
C63	C	0.948554	0.844737	0.271663
C64	C	0.957961	0.840940	0.351194
C65	C	0.589210	1.112667	0.048529
C66	C	0.476659	1.199803	0.052331
C67	C	0.644647	0.844748	0.271666
C68	C	0.550911	0.840955	0.351197
C69	C	0.616928	1.101479	0.282864
C70	C	0.513784	1.184818	0.366196
C71	C	1.224744	0.610370	-0.208206
C72	C	1.327887	0.527032	-0.291539
C73	C	1.252462	0.599182	0.026128
C74	C	1.365012	0.512046	0.022327
C75	C	1.197025	0.867101	-0.197008
C76	C	1.290761	0.870894	-0.276540
C77	C	0.423804	1.192776	0.006163
C78	C	0.318062	1.274642	0.009717
C79	C	0.265173	1.363535	0.059444
C80	C	0.318039	1.370559	0.105613
C81	C	0.423784	1.288694	0.102054
C82	C	0.506892	0.887120	0.436499
C83	C	0.418832	0.883552	0.511235
C84	C	0.374785	0.833824	0.500667
C85	C	0.418813	0.787653	0.415356
C86	C	0.506879	0.791216	0.340622
C87	C	0.454521	1.276279	0.361759
C88	C	0.357618	1.354593	0.440052
C89	C	0.319975	1.341443	0.522781
C90	C	0.379248	1.249972	0.527217
C91	C	0.476156	1.171660	0.448925
C92	C	1.387162	0.435570	-0.287101
C93	C	1.484095	0.357256	-0.365394
C94	C	1.521744	0.370406	-0.448123
C95	C	1.462464	0.461877	-0.452559
C96	C	1.365540	0.540189	-0.374267
C97	C	1.417877	0.519074	0.068487
C98	C	1.523643	0.437208	0.064912
C99	C	1.576535	0.348316	0.015182
C100	C	1.523666	0.341291	-0.030983
C101	C	1.417908	0.423156	-0.027413
C102	C	1.334779	0.920631	-0.265943
C103	C	1.422840	0.924213	-0.340664
C104	C	1.466888	0.878053	-0.425980
C105	C	1.422860	0.828315	-0.436575
C106	C	1.334794	0.824738	-0.361855
H107	H	0.386992	0.892416	-0.087283
C108	C	0.481974	1.095002	-0.048547
C109	C	0.423824	1.087293	-0.099335
C110	C	0.481992	0.989522	-0.154053
C111	C	0.598310	0.899460	-0.157984
C112	C	0.656467	0.907166	-0.107195
C113	C	0.598298	1.004937	-0.052476
H114	H	0.337713	1.153965	-0.096426
H115	H	0.438940	0.983819	-0.191651
H116	H	0.641370	0.827085	-0.198490
H117	H	0.742578	0.840494	-0.110103
H118	H	0.641350	1.010640	-0.014879
H119	H	0.303076	0.830930	0.561528
H120	H	0.466806	1.294428	0.139655
C121	C	1.471268	0.978920	-0.328995
C122	C	1.444557	1.062119	-0.364206
C123	C	1.492982	1.116825	-0.352534
C124	C	1.568117	1.088332	-0.305652
C125	C	1.594831	1.005130	-0.270438
C126	C	1.546406	0.950424	-0.282110
H127	H	1.388935	1.083215	-0.398913
H128	H	1.473206	1.178417	-0.378602
H129	H	1.603964	1.128829	-0.297012
H130	H	1.650453	0.984034	-0.235731
H131	H	1.566182	0.888831	-0.256042
H132	H	0.348584	1.239279	0.594586
H133	H	0.524397	1.097190	0.452550
H134	H	1.298964	0.784233	-0.370496
H135	H	0.542746	0.927615	0.445121
H136	H	1.075308	0.280119	-0.025074
H137	H	1.356516	0.424845	-0.219746
H138	H	0.766361	0.431728	0.099731
C139	C	1.359748	0.415416	-0.078181
C140	C	1.417929	0.317633	-0.132871
C141	C	1.359774	0.309885	-0.183641
C142	C	1.243438	0.399920	-0.179720
C143	C	1.185250	0.497711	-0.125028
C144	C	1.243405	0.505459	-0.074258
H145	H	1.504054	0.250977	-0.135775
H146	H	1.402849	0.237493	-0.224128
H147	H	1.200388	0.394185	-0.217303
H148	H	1.099125	0.564367	-0.122123
H149	H	1.200330	0.577850	-0.033771
C150	C	0.370405	0.934351	0.605070
C151	C	0.418843	0.989063	0.616687
C152	C	0.370418	1.039862	0.710518
C153	C	0.273555	1.035950	0.792733
C154	C	0.225111	0.981236	0.781119
C155	C	0.273536	0.930436	0.687287
H156	H	0.490552	0.991962	0.555824
H157	H	0.406280	1.080365	0.719115
H158	H	0.237708	1.073554	0.862193
H159	H	0.153402	0.978337	0.841982
H160	H	0.237674	0.889933	0.678690
C161	C	0.370342	0.732962	0.403743
C162	C	0.295181	0.761445	0.356880
C163	C	0.246698	0.706761	0.345272
C164	C	0.273375	0.623594	0.380527
C165	C	0.348540	0.595106	0.427393
C166	C	0.397023	0.649790	0.439001
H167	H	0.275430	0.823015	0.330780
H168	H	0.191056	0.727850	0.310579
H169	H	0.237485	0.583113	0.371934
H170	H	0.368291	0.533536	0.453494
H171	H	0.452665	0.628701	0.473695
H172	H	1.532346	0.282783	-0.361765
H173	H	1.317277	0.614660	-0.377891
C174	C	0.555282	0.740438	0.246791
C175	C	0.506817	0.685747	0.235177
C176	C	0.555217	0.634964	0.141347
C177	C	0.652082	0.638874	0.059131
C178	C	0.700553	0.693568	0.070742
C179	C	0.652153	0.744350	0.164572
H180	H	0.435106	0.682851	0.296041
H181	H	0.519335	0.594476	0.132753
H182	H	0.687911	0.601282	-0.010328
H183	H	0.772264	0.696464	0.009878
H184	H	0.688035	0.784838	0.173166
H185	H	1.075311	0.793511	-0.511681
H186	H	0.485155	1.287005	0.294404
H187	H	0.260144	0.994461	0.014547
C188	C	0.213366	1.427593	0.608899
C189	C	0.148177	1.528197	0.604008
C190	C	0.041564	1.614351	0.690122
C191	C	0.000140	1.599899	0.781127
C192	C	0.065330	1.499291	0.786022
C193	C	0.171943	1.413138	0.699908
H194	H	0.178840	1.538899	0.536637
H195	H	-0.006693	1.688828	0.686497
H196	H	-0.078781	1.663675	0.844874
H197	H	0.034667	1.488589	0.853393
H198	H	0.220201	1.338660	0.703532
C199	C	1.581776	0.444949	0.115706
C200	C	1.581826	0.398911	0.188084
C201	C	1.639954	0.406653	0.238878
C202	C	1.698031	0.460434	0.217296
C203	C	1.697983	0.506476	0.144914
C204	C	1.639856	0.498733	0.094120
H205	H	1.538831	0.359095	0.204064
H206	H	1.639989	0.372570	0.292460
H207	H	1.741061	0.466165	0.254897
H208	H	1.740978	0.546291	0.128934
H209	H	1.639820	0.532817	0.040538
H210	H	0.766363	0.918334	-0.413665
C211	C	1.628355	0.284256	-0.534241
C212	C	1.693483	0.183652	-0.529350
C213	C	1.800090	0.097499	-0.615464
C214	C	1.841570	0.111950	-0.706469
C215	C	1.776442	0.212558	-0.711364
C216	C	1.669835	0.298712	-0.625250
H217	H	1.662777	0.172950	-0.461979
H218	H	1.848302	0.023022	-0.611840
H219	H	1.920488	0.048174	-0.770216
H220	H	1.807147	0.223260	-0.778735
H221	H	1.621623	0.373189	-0.628874
H222	H	0.274960	1.442946	0.146100
C223	C	1.359714	0.616849	0.123189
C224	C	1.446918	0.648086	0.100592
C225	C	1.388768	0.745858	0.155292
C226	C	1.243415	0.812395	0.232588
C227	C	1.156202	0.781159	0.255190
C228	C	1.214352	0.683387	0.200490
H229	H	1.554525	0.598830	0.043369
H230	H	1.453329	0.768980	0.138560
H231	H	1.200369	0.884772	0.273080
H232	H	1.048595	0.830415	0.312413
H233	H	1.149791	0.660265	0.217221
C234	C	1.286330	0.971418	-0.172100
C235	C	1.138537	1.049691	-0.104597
C236	C	1.090087	1.100487	-0.010756
C237	C	1.189428	1.073011	0.015583
C238	C	1.337230	0.994734	-0.051921
C239	C	1.385681	0.943938	-0.145762
H240	H	1.064991	1.070034	-0.124093
H241	H	0.980673	1.158433	0.039215
H242	H	1.153562	1.110613	0.085050
H243	H	1.410777	0.974391	-0.032425
H244	H	1.495094	0.885992	-0.195733
H245	H	0.419148	0.994942	0.014720
H246	H	1.566747	0.268905	-0.071473
C247	C	1.471332	0.777532	-0.530428
C248	C	1.568215	0.781463	-0.612609
C249	C	1.616698	0.730674	-0.706464
C250	C	1.568299	0.675954	-0.718138
C251	C	1.471410	0.672020	-0.635954
C252	C	1.422927	0.722809	-0.542099
H253	H	1.604048	0.821973	-0.603970
H254	H	1.688422	0.733587	-0.767302
H255	H	1.604189	0.638357	-0.787615
H256	H	1.435577	0.631511	-0.644593
H257	H	1.351203	0.719897	-0.481261
H258	H	0.309366	1.429067	0.436424
H259	H	0.546132	0.892954	-0.086541
H260	H	0.654696	0.722784	-0.079328
H261	H	1.493131	0.472573	-0.519927
H262	H	0.607755	0.704386	0.027943
H263	H	0.448277	0.704483	0.029040
H264	H	1.662650	0.281664	0.012283
H265	H	0.349923	0.968484	0.171349
C266	C	0.507331	0.711146	-0.103186
C267	C	0.424404	0.769403	-0.141168
C268	C	0.470608	0.727119	-0.237093
C269	C	0.599737	0.626578	-0.295035
C270	C	0.682672	0.568315	-0.257054
C271	C	0.636468	0.610599	-0.161129
H272	H	0.328808	0.843834	-0.098275
H273	H	0.409213	0.770249	-0.265208
H274	H	0.633939	0.595276	-0.366043
H275	H	0.778268	0.493883	-0.299946
H276	H	0.697863	0.567468	-0.133014
H277	H	0.189763	0.971924	0.167780
H278	H	0.262152	0.854781	0.177423
H279	H	0.427809	0.848465	0.174042
H280	H	0.275032	1.268904	-0.027880
H281	H	1.538598	0.880972	-0.486815
H282	H	0.179067	1.430187	0.062336
