data_functionalizedCrystal
_audit_creation_method	'MofGen! by Chris Wilmer'
_symmetry_space_group_name_H-M	'P1'
_symmetry_Int_Tables_number	1
_symmetry_cell_setting	triclinic
loop_
_symmetry_equiv_pos_as_xyz
  x,y,z
_cell_length_a	11.169417
_cell_length_b	12.645330
_cell_length_c	11.169409
_cell_angle_alpha	90.034413
_cell_angle_beta	90.019824
_cell_angle_gamma	90.013525
loop_
_atom_site_label
_atom_site_type_symbol
_atom_site_fract_x
_atom_site_fract_y
_atom_site_fract_z
Zn1	Zn	1.834943	-0.421929	0.678525
Zn2	Zn	1.834824	-0.599240	0.477835
Zn3	Zn	1.634229	-0.421993	0.477860
Zn4	Zn	1.634228	-0.599153	0.678480
O5	O	1.734556	-0.510579	0.578175
O6	O	2.002877	-0.445458	0.651912
O7	O	1.808166	-0.575791	0.309889
O8	O	1.660904	-0.273637	0.504508
O9	O	2.002790	-0.575728	0.504466
O10	O	1.808368	-0.273590	0.651936
O11	O	1.660789	-0.445569	0.309907
O12	O	1.466279	-0.445485	0.504464
O13	O	1.660903	-0.575581	0.846436
O14	O	1.466279	-0.575644	0.651859
O15	O	1.808367	-0.445375	0.846469
O16	O	1.808165	-0.747575	0.504422
O17	O	1.660788	-0.747512	0.651835
C18	C	1.422732	-0.510563	0.578160
C19	C	1.289332	-0.510581	0.578181
C20	C	1.734496	-0.786008	0.578147
C21	C	1.734580	-0.903838	0.578175
C22	C	1.827146	-1.071398	0.485249
C23	C	1.827448	-0.948838	0.485476
C24	C	1.768886	-0.948206	0.704683
C25	C	1.769620	-1.070804	0.704190
C26	C	1.607672	-1.071171	0.545839
C27	C	1.608281	-0.948567	0.543001
C28	C	2.047599	-0.510596	0.578191
C29	C	2.180998	-0.510603	0.578198
C30	C	1.734648	-0.510461	0.891218
C31	C	1.734688	-0.510411	1.024618
C32	C	1.734649	-0.234073	0.578230
C33	C	1.734689	-0.116243	0.578253
C34	C	1.734533	-0.510619	0.266350
C35	C	1.734727	-0.510371	0.132951
H36	H	1.805984	-0.918846	0.391672
H37	H	1.535676	-0.917947	0.605775
Br38	Br	1.983110	-1.122605	0.520577
H39	H	1.805950	-1.100962	0.391170
H40	H	1.921524	-0.919426	0.506916
H41	H	1.862463	-1.099312	0.731648
Br42	Br	1.662241	-1.120246	0.823608
H43	H	1.703594	-0.919053	0.775835
Br44	Br	1.921882	-0.896887	0.751218
Br45	Br	1.565157	-0.900251	0.387832
H46	H	1.576477	-1.102191	0.455196
H47	H	1.538784	-1.100172	0.613577
