data_functionalizedCrystal
_audit_creation_method	'MofGen! by Chris Wilmer'
_symmetry_space_group_name_H-M	'P1'
_symmetry_Int_Tables_number	1
_symmetry_cell_setting	triclinic
loop_
_symmetry_equiv_pos_as_xyz
  x,y,z
_cell_length_a	13.033291
_cell_length_b	18.101397
_cell_length_c	18.101375
_cell_angle_alpha	89.899245
_cell_angle_beta	82.758447
_cell_angle_gamma	97.189668
loop_
_atom_site_label
_atom_site_type_symbol
_atom_site_fract_x
_atom_site_fract_y
_atom_site_fract_z
Zn1	Zn	1.598324	-0.150446	-0.562825
Zn2	Zn	1.931658	0.182888	-0.229492
Zn3	Zn	2.264991	0.516221	0.103841
Zn4	Zn	1.598081	-0.274466	-0.438956
Zn5	Zn	1.931414	0.058868	-0.105623
Zn6	Zn	2.264747	0.392201	0.227711
Zn7	Zn	1.423413	-0.166366	-0.423228
Zn8	Zn	1.756746	0.166967	-0.089895
Zn9	Zn	2.090080	0.500301	0.243439
Zn10	Zn	1.423505	-0.289987	-0.547017
Zn11	Zn	1.756838	0.043346	-0.213683
Zn12	Zn	2.090172	0.376680	0.119650
O13	O	1.510831	-0.220316	-0.493006
O14	O	1.844164	0.113017	-0.159673
O15	O	2.177497	0.446351	0.173660
O16	O	1.744553	-0.153739	-0.559592
O17	O	2.077887	0.179594	-0.226259
O18	O	2.411220	0.512928	0.107074
O19	O	1.574770	-0.260293	-0.333224
O20	O	1.908103	0.073040	0.000110
O21	O	2.241437	0.406374	0.333443
O22	O	1.446679	-0.060615	-0.441780
O23	O	1.780012	0.272718	-0.108446
O24	O	2.113345	0.606051	0.224887
O25	O	1.744374	-0.244856	-0.468586
O26	O	2.077708	0.088477	-0.135252
O27	O	2.411041	0.421811	0.198081
O28	O	1.575185	-0.048919	-0.544341
O29	O	1.908519	0.284414	-0.211008
O30	O	2.241852	0.617748	0.122325
O31	O	1.446442	-0.180872	-0.321668
O32	O	1.779776	0.152461	0.011665
O33	O	2.113109	0.485794	0.344998
O34	O	1.277164	-0.195923	-0.426450
O35	O	1.610497	0.137411	-0.093117
O36	O	1.943830	0.470744	0.240216
O37	O	1.446836	-0.271310	-0.652760
O38	O	1.780169	0.062024	-0.319426
O39	O	2.113502	0.395357	0.013907
O40	O	1.277231	-0.286747	-0.517398
O41	O	1.610565	0.046587	-0.184064
O42	O	1.943898	0.379920	0.149269
O43	O	1.575275	-0.168789	-0.664374
O44	O	1.908608	0.164544	-0.331041
O45	O	2.241941	0.497877	0.002292
O46	O	1.574859	-0.380163	-0.453257
O47	O	1.908193	-0.046830	-0.119923
O48	O	2.241526	0.286503	0.213410
O49	O	1.446599	-0.391567	-0.532648
O50	O	1.779933	-0.058233	-0.199315
O51	O	2.113266	0.275100	0.134018
C52	C	1.239274	-0.244747	-0.468502
C53	C	1.572607	0.088586	-0.135169
C54	C	1.905940	0.421920	0.198164
C55	C	1.123100	-0.255217	-0.458037
C56	C	1.456434	0.078117	-0.124703
C57	C	1.789767	0.411450	0.208630
C58	C	0.951327	-0.225684	-0.487658
C59	C	1.284660	0.107649	-0.154325
C60	C	1.617993	0.440982	0.179008
C61	C	1.071398	-0.214865	-0.498474
C62	C	1.404731	0.118468	-0.165141
C63	C	1.738065	0.451801	0.168192
C64	C	1.510741	-0.412735	-0.492963
C65	C	1.844075	-0.079401	-0.159629
C66	C	2.177408	0.253932	0.173704
C67	C	1.510799	-0.495044	-0.492977
C68	C	1.844132	-0.161710	-0.159644
C69	C	2.177465	0.171623	0.173690
C70	C	1.510932	-0.794122	-0.493057
C71	C	1.844265	-0.460789	-0.159723
C72	C	2.177599	-0.127456	0.173610
C73	C	1.591404	-0.755612	-0.442932
C74	C	1.924738	-0.422279	-0.109599
C75	C	2.258071	-0.088946	0.223735
C76	C	1.591683	-0.669968	-0.443106
C77	C	1.925017	-0.336635	-0.109772
C78	C	2.258350	-0.003302	0.223561
C79	C	1.510866	-0.645746	-0.493017
C80	C	1.844199	-0.312413	-0.159683
C81	C	2.177533	0.020921	0.173650
C82	C	1.540806	-0.673962	-0.573777
C83	C	1.874139	-0.340629	-0.240443
C84	C	2.207472	-0.007296	0.092890
C85	C	1.541429	-0.759552	-0.573520
C86	C	1.874762	-0.426218	-0.240187
C87	C	2.208095	-0.092885	0.093146
C88	C	1.400306	-0.772614	-0.463078
C89	C	1.733639	-0.439281	-0.129744
C90	C	2.066973	-0.105948	0.203589
C91	C	1.400850	-0.686918	-0.461384
C92	C	1.734184	-0.353585	-0.128051
C93	C	2.067517	-0.020251	0.205282
C94	C	1.510827	-0.561890	-0.492999
C95	C	1.844160	-0.228557	-0.159665
C96	C	2.177493	0.104777	0.173668
C97	C	1.510974	-0.877978	-0.493080
C98	C	1.844307	-0.544645	-0.159747
C99	C	2.177641	-0.211311	0.173586
C100	C	1.783448	-0.195790	-0.517607
C101	C	2.116782	0.137543	-0.184274
C102	C	2.450115	0.470876	0.149060
C103	C	1.899622	-0.185339	-0.528090
C104	C	2.232955	0.147995	-0.194757
C105	C	2.566288	0.481328	0.138577
C106	C	1.511093	-0.220005	-0.686193
C107	C	1.844426	0.113328	-0.352859
C108	C	2.177759	0.446662	-0.019526
C109	C	1.511204	-0.219872	-0.768517
C110	C	1.844538	0.113461	-0.435184
C111	C	2.177871	0.446794	-0.101850
C112	C	1.510949	-0.027143	-0.493069
C113	C	1.844282	0.306190	-0.159736
C114	C	2.177616	0.639523	0.173597
C115	C	1.510999	0.055175	-0.493096
C116	C	1.844333	0.388509	-0.159763
C117	C	2.177666	0.721842	0.173570
C118	C	1.510630	-0.220567	-0.300577
C119	C	1.843963	0.112766	0.032756
C120	C	2.177297	0.446100	0.366089
C121	C	1.510721	-0.220473	-0.218272
C122	C	1.844054	0.112860	0.115062
C123	C	2.177387	0.446194	0.448395
C124	C	1.510883	-0.220271	-0.067578
C125	C	1.844216	0.113062	0.265755
C126	C	2.177549	0.446395	0.599088
C127	C	1.592236	-0.269730	-0.043507
C128	C	1.925570	0.063604	0.289827
C129	C	2.258903	0.396937	0.623160
C130	C	1.592643	-0.269417	0.042074
C131	C	1.925977	0.063916	0.375407
C132	C	2.259310	0.397250	0.708740
C133	C	1.511042	-0.220074	0.080790
C134	C	1.844376	0.113259	0.414123
C135	C	2.177709	0.446593	0.747456
C136	C	1.539794	-0.139271	0.046845
C137	C	1.873128	0.194062	0.380178
C138	C	2.206461	0.527396	0.713511
C139	C	1.540292	-0.139660	-0.038845
C140	C	1.873625	0.193673	0.294489
C141	C	2.206958	0.527007	0.627822
C142	C	1.400601	-0.250911	-0.025871
C143	C	1.733935	0.082422	0.307462
C144	C	2.067268	0.415756	0.640796
C145	C	1.401301	-0.252461	0.059721
C146	C	1.734634	0.080872	0.393054
C147	C	2.067968	0.414206	0.726387
C148	C	1.511131	-0.219958	0.164641
C149	C	1.844464	0.113375	0.497974
C150	C	2.177797	0.446709	0.831307
C151	C	1.510797	-0.220382	-0.151430
C152	C	1.844130	0.112951	0.181904
C153	C	2.177464	0.446285	0.515237
H154	H	1.572943	-0.650765	-0.383535
H155	H	1.906276	-0.317431	-0.050202
H156	H	2.239610	0.015902	0.283132
H157	H	1.078480	-0.297771	-0.415411
H158	H	1.411814	0.035562	-0.082078
H159	H	1.745147	0.368895	0.251256
H160	H	0.944247	-0.142784	-0.570709
H161	H	1.277580	0.190549	-0.237376
H162	H	1.610914	0.523882	0.095957
H163	H	1.340347	-0.798226	-0.499464
H164	H	1.673681	-0.464893	-0.166131
H165	H	2.007014	-0.131560	0.167203
H166	H	0.906701	-0.268232	-0.445032
H167	H	1.240035	0.065101	-0.111699
H168	H	1.573368	0.398434	0.221634
H169	H	1.572889	-0.777993	-0.383208
H170	H	1.906223	-0.444660	-0.049875
H171	H	2.239556	-0.111326	0.283458
H172	H	1.373084	-0.796794	-0.404688
H173	H	1.706418	-0.463461	-0.071355
H174	H	2.039751	-0.130127	0.261978
H175	H	1.672900	-0.769728	-0.463364
H176	H	2.006234	-0.436395	-0.130030
H177	H	2.339567	-0.103061	0.203303
H178	H	1.340005	-0.215013	-0.040720
H179	H	1.673338	0.118320	0.292613
H180	H	2.006671	0.451653	0.625946
H181	H	1.379596	-0.311982	0.082192
H182	H	1.712930	0.021352	0.415526
H183	H	2.046263	0.354685	0.748859
H184	H	1.337661	-0.671173	-0.494419
H185	H	1.670994	-0.337840	-0.161086
H186	H	2.004328	-0.004507	0.172247
H187	H	1.620876	-0.114940	-0.066237
H188	H	1.954209	0.218394	0.267096
H189	H	2.287543	0.551727	0.600429
H190	H	1.619533	-0.114285	0.060954
H191	H	1.952866	0.219048	0.394288
H192	H	2.286200	0.552381	0.727621
H193	H	1.574837	-0.329003	0.064890
H194	H	1.908170	0.004330	0.398224
H195	H	2.241504	0.337663	0.731557
H196	H	1.673504	-0.248809	-0.072500
H197	H	2.006838	0.084524	0.260833
H198	H	2.340171	0.417858	0.594166
H199	H	1.374164	-0.309439	-0.044891
H200	H	1.707497	0.023894	0.288442
H201	H	2.040830	0.357227	0.621776
H202	H	1.673627	-0.642032	-0.463730
H203	H	2.006961	-0.308699	-0.130397
H204	H	2.340294	0.024634	0.202937
H205	H	1.337580	-0.219873	0.086828
H206	H	1.670913	0.113460	0.420161
H207	H	2.004246	0.446794	0.753494
H208	H	1.116019	-0.172308	-0.541097
H209	H	1.449353	0.161025	-0.207763
H210	H	1.782686	0.494359	0.125570
H211	H	1.485388	-0.785269	-0.612694
H212	H	1.818721	-0.451936	-0.279360
H213	H	2.152055	-0.118602	0.053973
H214	H	1.622294	-0.772171	-0.597757
H215	H	1.955627	-0.438837	-0.264424
H216	H	2.288960	-0.105504	0.068910
H217	H	1.483989	-0.658664	-0.612557
H218	H	1.817323	-0.325331	-0.279223
H219	H	2.150656	0.008003	0.054110
H220	H	1.620766	-0.645236	-0.598218
H221	H	1.954099	-0.311903	-0.264885
H222	H	2.287432	0.021431	0.068448
H223	H	1.378277	-0.668762	-0.401902
H224	H	1.711610	-0.335429	-0.068569
H225	H	2.044943	-0.002095	0.264764
H226	H	1.674422	-0.248233	0.055047
H227	H	2.007756	0.085100	0.388381
H228	H	2.341089	0.418434	0.721714
H229	H	1.574541	-0.329530	-0.062307
H230	H	1.907875	0.003804	0.271026
H231	H	2.241208	0.337137	0.604359
H232	H	1.483561	-0.100967	-0.054521
H233	H	1.816894	0.232367	0.278813
H234	H	2.150227	0.565700	0.612146
H235	H	1.482371	-0.100898	0.072319
H236	H	1.815704	0.232435	0.405653
H237	H	2.149037	0.565769	0.738986
