data_functionalizedCrystal
_audit_creation_method	'MofGen! by Chris Wilmer'
_symmetry_space_group_name_H-M	'P1'
_symmetry_Int_Tables_number	1
_symmetry_cell_setting	triclinic
loop_
_symmetry_equiv_pos_as_xyz
  x,y,z
_cell_length_a	17.699083
_cell_length_b	10.868271
_cell_length_c	17.699083
_cell_angle_alpha	90.005832
_cell_angle_beta	96.716985
_cell_angle_gamma	90.001072
loop_
_atom_site_label
_atom_site_type_symbol
_atom_site_fract_x
_atom_site_fract_y
_atom_site_fract_z
O1	O	1.004076	-0.102152	-0.095711
O2	O	1.254076	0.147848	0.154289
O3	O	1.504076	0.397848	0.404289
O4	O	1.754076	0.647848	0.654289
O5	O	0.783698	-0.102193	-0.108164
O6	O	1.033698	0.147807	0.141836
O7	O	1.283698	0.397807	0.391836
O8	O	1.533698	0.647807	0.641836
O9	O	0.900113	-0.102161	0.008252
O10	O	1.150113	0.147839	0.258252
O11	O	1.400113	0.397839	0.508252
O12	O	1.650113	0.647839	0.758252
O13	O	0.887661	-0.102185	-0.212127
O14	O	1.137661	0.147815	0.037873
O15	O	1.387661	0.397815	0.287873
O16	O	1.637661	0.647815	0.537873
O17	O	0.900102	0.102484	0.008255
O18	O	1.150102	0.352484	0.258255
O19	O	1.400102	0.602484	0.508255
O20	O	1.650102	0.852484	0.758255
O21	O	0.783687	0.102452	-0.108160
O22	O	1.033687	0.352452	0.141840
O23	O	1.283687	0.602452	0.391840
O24	O	1.533687	0.852452	0.641840
O25	O	1.004065	0.102492	-0.095707
O26	O	1.254065	0.352492	0.154293
O27	O	1.504065	0.602492	0.404293
O28	O	1.754065	0.852492	0.654293
Zn29	Zn	0.893874	0.134964	-0.101933
Zn30	Zn	1.143874	0.384964	0.148067
Zn31	Zn	1.393874	0.634964	0.398067
Zn32	Zn	1.643874	0.884964	0.648067
Zn33	Zn	0.893889	-0.134664	-0.101938
Zn34	Zn	1.143889	0.115336	0.148062
Zn35	Zn	1.393889	0.365336	0.398062
Zn36	Zn	1.643889	0.615336	0.648062
O37	O	0.887650	0.102460	-0.212123
O38	O	1.137650	0.352460	0.037877
O39	O	1.387650	0.602460	0.287877
O40	O	1.637650	0.852460	0.537877
C41	C	0.755495	0.000124	-0.107716
C42	C	1.005495	0.250124	0.142284
C43	C	1.255495	0.500124	0.392284
C44	C	1.505495	0.750124	0.642284
C45	C	0.671477	0.000109	-0.106377
C46	C	0.921477	0.250109	0.143623
C47	C	1.171477	0.500109	0.393623
C48	C	1.421477	0.750109	0.643623
N49	N	0.893870	0.318978	-0.101929
N50	N	1.143870	0.568978	0.148071
N51	N	1.393870	0.818978	0.398071
N52	N	1.643870	1.068978	0.648071
C53	C	0.622856	0.000102	-0.174710
C54	C	0.872856	0.250102	0.075290
C55	C	1.122856	0.500102	0.325290
C56	C	1.372856	0.750102	0.575290
C57	C	0.543913	0.000118	-0.173448
C58	C	0.793913	0.250118	0.076552
C59	C	1.043913	0.500118	0.326552
C60	C	1.293913	0.750118	0.576552
C61	C	0.513592	0.000133	-0.103852
C62	C	0.763592	0.250133	0.146148
C63	C	1.013592	0.500133	0.396148
C64	C	1.263592	0.750133	0.646148
C65	C	0.562219	0.000143	-0.035513
C66	C	0.812219	0.250143	0.214487
C67	C	1.062219	0.500143	0.464487
C68	C	1.312219	0.750143	0.714487
C69	C	0.641161	0.000136	-0.036776
C70	C	0.891161	0.250136	0.213224
C71	C	1.141161	0.500136	0.463224
C72	C	1.391161	0.750136	0.713224
C73	C	0.243856	0.000174	-0.030418
C74	C	0.493856	0.250174	0.219582
C75	C	0.743856	0.500174	0.469582
C76	C	0.993856	0.750174	0.719582
C77	C	0.164908	0.000178	-0.029160
C78	C	0.414908	0.250178	0.220840
C79	C	0.664908	0.500178	0.470840
C80	C	0.914908	0.750178	0.720840
C81	C	0.146608	0.000156	-0.167090
C82	C	0.396608	0.250156	0.082910
C83	C	0.646608	0.500156	0.332910
C84	C	0.896608	0.750156	0.582910
C85	C	0.225550	0.000149	-0.168353
C86	C	0.475550	0.250149	0.081647
C87	C	0.725550	0.500149	0.331647
C88	C	0.975550	0.750149	0.581647
C89	C	0.274170	0.000166	-0.100015
C90	C	0.524170	0.250166	0.149985
C91	C	0.774170	0.500166	0.399985
C92	C	1.024170	0.750166	0.649985
C93	C	0.359769	0.000151	-0.101384
C94	C	0.609769	0.250151	0.148616
C95	C	0.859769	0.500151	0.398616
C96	C	1.109769	0.750151	0.648616
C97	C	0.427995	0.000139	-0.102481
C98	C	0.677995	0.250139	0.147519
C99	C	0.927995	0.500139	0.397519
C100	C	1.177995	0.750139	0.647519
C101	C	0.893880	0.569984	-0.101939
C102	C	1.143880	0.819984	0.148061
C103	C	1.393880	1.069984	0.398061
C104	C	1.643880	1.319984	0.648061
C105	C	0.893872	0.430306	-0.101936
C106	C	1.143872	0.680306	0.148064
C107	C	1.393872	0.930306	0.398064
C108	C	1.643872	1.180306	0.648064
C109	C	1.032268	0.000173	-0.096156
C110	C	1.282268	0.250173	0.153844
C111	C	1.532268	0.500173	0.403844
C112	C	1.782268	0.750173	0.653844
C113	C	1.116286	0.000180	-0.097494
C114	C	1.366286	0.250180	0.152506
C115	C	1.616286	0.500180	0.402506
C116	C	1.866286	0.750180	0.652506
C117	C	0.899662	0.000162	0.036451
C118	C	1.149662	0.250162	0.286451
C119	C	1.399662	0.500162	0.536451
C120	C	1.649662	0.750162	0.786451
C121	C	0.898323	0.000162	0.120469
C122	C	1.148323	0.250162	0.370469
C123	C	1.398323	0.500162	0.620469
C124	C	1.648323	0.750162	0.870469
N125	N	0.893892	0.681322	-0.101939
N126	N	1.143892	0.931322	0.148061
N127	N	1.393892	1.181322	0.398061
N128	N	1.643892	1.431322	0.648061
C129	C	0.888102	0.000135	-0.240322
C130	C	1.138102	0.250135	0.009678
C131	C	1.388102	0.500135	0.259678
C132	C	1.638102	0.750135	0.509678
C133	C	0.889440	0.000127	-0.324340
C134	C	1.139440	0.250127	-0.074340
C135	C	1.389440	0.500127	0.175660
C136	C	1.639440	0.750127	0.425660
C137	C	0.966656	0.000176	0.169090
C138	C	1.216656	0.250176	0.419090
C139	C	1.466656	0.500176	0.669090
C140	C	1.716656	0.750176	0.919090
C141	C	0.965394	0.000165	0.248033
C142	C	1.215394	0.250165	0.498033
C143	C	1.465394	0.500165	0.748033
C144	C	1.715394	0.750165	0.998033
C145	C	0.895798	0.000149	0.278354
C146	C	1.145798	0.250149	0.528354
C147	C	1.395798	0.500149	0.778354
C148	C	1.645798	0.750149	1.028354
C149	C	0.827459	0.000131	0.229727
C150	C	1.077459	0.250131	0.479727
C151	C	1.327459	0.500131	0.729727
C152	C	1.577459	0.750131	0.979727
C153	C	0.828722	0.000133	0.150785
C154	C	1.078722	0.250133	0.400785
C155	C	1.328722	0.500133	0.650785
C156	C	1.578722	0.750133	0.900785
C157	C	0.822364	0.000120	0.548090
C158	C	1.072364	0.250120	0.798090
C159	C	1.322364	0.500120	1.048090
C160	C	1.572364	0.750120	1.298090
C161	C	0.821106	0.000121	0.627038
C162	C	1.071106	0.250121	0.877038
C163	C	1.321106	0.500121	1.127038
C164	C	1.571106	0.750121	1.377038
C165	C	0.959036	0.000152	0.645338
C166	C	1.209036	0.250152	0.895338
C167	C	1.459036	0.500152	1.145338
C168	C	1.709036	0.750152	1.395338
C169	C	0.960299	0.000154	0.566396
C170	C	1.210299	0.250154	0.816396
C171	C	1.460299	0.500154	1.066396
C172	C	1.710299	0.750154	1.316396
C173	C	0.891961	0.000130	0.517776
C174	C	1.141961	0.250130	0.767776
C175	C	1.391961	0.500130	1.017776
C176	C	1.641961	0.750130	1.267776
C177	C	0.893330	0.000140	0.432177
C178	C	1.143330	0.250140	0.682177
C179	C	1.393330	0.500140	0.932177
C180	C	1.643330	0.750140	1.182177
C181	C	0.894427	0.000148	0.363951
C182	C	1.144427	0.250148	0.613951
C183	C	1.394427	0.500148	0.863951
C184	C	1.644427	0.750148	1.113951
H185	H	0.647537	0.000090	-0.231384
H186	H	0.897537	0.250090	0.018616
H187	H	1.147537	0.500090	0.268616
H188	H	1.397537	0.750090	0.518616
H189	H	0.250232	0.000132	-0.225025
H190	H	0.500232	0.250132	0.024975
H191	H	0.750232	0.500132	0.274975
H192	H	1.000232	0.750132	0.524975
H193	H	0.764429	0.000110	0.651721
H194	H	1.014429	0.250110	0.901721
H195	H	1.264429	0.500110	1.151721
H196	H	1.514429	0.750110	1.401721
H197	H	1.014680	0.000166	0.684934
H198	H	1.264680	0.250166	0.934934
H199	H	1.514680	0.500166	1.184934
H200	H	1.764680	0.750166	1.434934
H201	H	0.766718	0.000100	0.508512
H202	H	1.016718	0.250100	0.758512
H203	H	1.266718	0.500100	1.008512
H204	H	1.516718	0.750100	1.258512
H205	H	0.107012	0.000149	-0.222734
H206	H	0.357012	0.250149	0.027266
H207	H	0.607012	0.500149	0.277266
H208	H	0.857012	0.750149	0.527266
H209	H	0.283434	0.000189	0.025228
H210	H	0.533434	0.250189	0.275228
H211	H	0.783434	0.500189	0.525228
H212	H	1.033434	0.750189	0.775228
H213	H	1.016971	0.000174	0.541714
H214	H	1.266971	0.250174	0.791714
H215	H	1.516971	0.500174	1.041714
H216	H	1.766971	0.750174	1.291714
H217	H	1.023330	0.000198	0.144409
H218	H	1.273330	0.250198	0.394409
H219	H	1.523330	0.500198	0.644409
H220	H	1.773330	0.750198	0.894409
H221	H	1.021038	0.000180	0.287618
H222	H	1.271038	0.250180	0.537618
H223	H	1.521038	0.500180	0.787618
H224	H	1.771038	0.750180	1.037618
H225	H	0.140225	0.000191	0.027517
H226	H	0.390225	0.250191	0.277517
H227	H	0.640225	0.500191	0.527517
H228	H	0.890225	0.750191	0.777517
H229	H	0.770792	0.000109	0.254420
H230	H	1.020792	0.250109	0.504420
H231	H	1.270792	0.500109	0.754420
H232	H	1.520792	0.750109	1.004420
H233	H	0.537526	0.000173	0.021154
H234	H	0.787526	0.250173	0.271154
H235	H	1.037526	0.500173	0.521154
H236	H	1.287526	0.750173	0.771154
H237	H	0.680748	0.000141	0.018868
H238	H	0.930748	0.250141	0.268868
H239	H	1.180748	0.500141	0.518868
H240	H	1.430748	0.750141	0.768868
H241	H	0.773078	0.000121	0.111198
H242	H	1.023078	0.250121	0.361198
H243	H	1.273078	0.500121	0.611198
H244	H	1.523078	0.750121	0.861198
H245	H	0.504328	0.000111	-0.229092
H246	H	0.754328	0.250111	0.020908
H247	H	1.004328	0.500111	0.270908
H248	H	1.254328	0.750111	0.520908
