data_functionalizedCrystal
_audit_creation_method	'MofGen! by Chris Wilmer'
_symmetry_space_group_name_H-M	'P1'
_symmetry_Int_Tables_number	1
_symmetry_cell_setting	triclinic
loop_
_symmetry_equiv_pos_as_xyz
  x,y,z
_cell_length_a	20.453700
_cell_length_b	9.514072
_cell_length_c	9.514088
_cell_angle_alpha	83.785444
_cell_angle_beta	61.156455
_cell_angle_gamma	61.156579
loop_
_atom_site_label
_atom_site_type_symbol
_atom_site_fract_x
_atom_site_fract_y
_atom_site_fract_z
V1	V	-1.434587	0.225059	0.502017
O2	O	-1.399446	-0.007885	0.491166
O3	O	-1.445898	0.443436	0.499829
O4	O	-1.445902	0.222882	0.720396
O5	O	-1.399443	0.214195	0.269072
V6	V	-1.588684	0.197044	0.474004
O7	O	-1.537199	0.286511	0.563467
O8	O	-1.636138	0.135592	0.412554
O9	O	-1.502970	-0.021333	0.476192
O10	O	-1.662957	0.429988	0.484855
O11	O	-1.662960	0.207908	0.706949
O12	O	-1.502967	0.199220	0.255625
C13	C	-1.400020	0.496631	0.492231
C14	C	-1.436547	0.675166	0.491898
C15	C	-1.400024	0.215291	0.773584
C16	C	-1.436551	0.214957	0.952118
C17	C	-1.436630	-0.074520	0.483786
C18	C	-1.393184	-0.253053	0.484130
V19	V	-1.101254	0.225059	0.502017
O20	O	-1.066113	-0.007885	0.491166
O21	O	-1.112565	0.443436	0.499829
O22	O	-1.112568	0.222882	0.720396
O23	O	-1.066110	0.214195	0.269072
V24	V	-1.255350	0.197044	0.474004
O25	O	-1.203866	0.286511	0.563467
O26	O	-1.302804	0.135592	0.412554
O27	O	-1.169637	-0.021333	0.476192
O28	O	-1.329623	0.429988	0.484855
O29	O	-1.329627	0.207908	0.706949
O30	O	-1.169634	0.199220	0.255625
V31	V	-0.767920	0.225059	0.502017
O32	O	-0.732780	-0.007885	0.491166
O33	O	-0.779232	0.443436	0.499829
O34	O	-0.779235	0.222882	0.720396
O35	O	-0.732776	0.214195	0.269072
V36	V	-0.922017	0.197044	0.474004
O37	O	-0.870532	0.286511	0.563467
O38	O	-0.969471	0.135592	0.412554
O39	O	-0.836304	-0.021333	0.476192
O40	O	-0.996290	0.429988	0.484855
O41	O	-0.996294	0.207908	0.706949
O42	O	-0.836300	0.199220	0.255625
C43	C	-1.066687	0.496631	0.492231
C44	C	-1.103214	0.675166	0.491898
C45	C	-1.436625	0.206816	0.202429
C46	C	-1.393177	0.207143	0.023893
C47	C	-1.066690	0.215291	0.773584
C48	C	-1.103217	0.214957	0.952118
C49	C	-1.103296	-0.074520	0.483786
C50	C	-1.059850	-0.253053	0.484130
C51	C	-1.103292	0.206816	0.202429
C52	C	-1.059843	0.207143	0.023893
C53	C	-0.733354	0.496631	0.492231
C54	C	-0.769880	0.675166	0.491898
C55	C	-0.733357	0.215291	0.773584
C56	C	-0.769884	0.214957	0.952118
C57	C	-0.769963	-0.074520	0.483786
C58	C	-0.726517	-0.253053	0.484130
C59	C	-0.769959	0.206816	0.202429
C60	C	-0.726510	0.207143	0.023893
H61	H	-1.328096	0.671806	0.477655
C62	C	-0.973003	0.198326	0.923863
C63	C	-0.910271	0.054465	0.937155
C64	C	-0.830265	0.046304	0.845029
H65	H	-0.959051	0.199614	0.813113
H66	H	-0.975235	0.289085	0.963128
H67	H	-0.908037	-0.036270	0.897882
H68	H	-0.924195	0.053145	1.047883
H69	H	-0.832497	0.137063	0.884295
H70	H	-0.816322	0.047597	0.734286
H71	H	-0.787693	-0.051297	0.854048
C72	C	-0.856741	0.775198	0.500779
C73	C	-0.919441	0.761802	0.644619
C74	C	-0.999463	0.853912	0.652844
H75	H	-0.870719	0.885964	0.499560
H76	H	-0.854516	0.735977	0.410007
H77	H	-0.921667	0.801030	0.735367
H78	H	-0.905491	0.651058	0.645869
H79	H	-0.997238	0.814691	0.562072
H80	H	-1.013432	0.964672	0.651620
H81	H	-1.042013	0.844823	0.750431
C82	C	-0.972979	0.646796	0.475166
C83	C	-0.910276	0.660135	0.331286
C84	C	-0.830235	0.567871	0.322962
H85	H	-0.975121	0.685892	0.565871
H86	H	-0.959070	0.536047	0.476385
H87	H	-0.924181	0.770861	0.330082
H88	H	-0.908107	0.621029	0.240557
H89	H	-0.816326	0.457122	0.324181
H90	H	-0.832386	0.606976	0.413673
H91	H	-0.787680	0.576897	0.225334
H92	H	-0.834968	0.221395	1.027262
H93	H	-1.328102	0.200723	0.948761
H94	H	-1.501634	0.750312	0.498349
C95	C	-1.189934	0.775505	0.500254
C96	C	-1.180131	0.849964	0.361665
C97	C	-1.259998	0.942423	0.369313
H98	H	-1.212311	0.706706	0.505082
H99	H	-1.228384	0.856543	0.594622
H100	H	-1.141694	0.768936	0.267322
H101	H	-1.157768	0.918790	0.356810
H102	H	-1.298448	1.023461	0.463681
H103	H	-1.282368	0.873611	0.374144
H104	H	-1.253358	0.992965	0.275291
C105	C	-1.190083	0.223876	1.052275
C106	C	-1.252805	0.367783	1.039016
C107	C	-1.332836	0.376070	1.131277
H108	H	-1.187938	0.133191	1.013134
H109	H	-1.203976	0.222595	1.163014
H110	H	-1.238915	0.369050	0.928301
H111	H	-1.254977	0.458494	1.078168
H112	H	-1.346730	0.374788	1.242016
H113	H	-1.330683	0.285378	1.092127
H114	H	-1.375404	0.473716	1.122306
C115	C	-0.639678	0.646529	0.475256
C116	C	-0.583215	0.527345	0.336000
C117	C	-0.503212	0.434786	0.327781
H118	H	-0.617259	0.715296	0.470260
H119	H	-0.646129	0.595794	0.569138
H120	H	-0.576762	0.578078	0.242142
H121	H	-0.605607	0.458541	0.340964
H122	H	-0.509663	0.384051	0.421663
H123	H	-0.480801	0.503566	0.322791
H124	H	-0.464894	0.353900	0.233306
H125	H	-1.501635	0.221395	1.027262
C126	C	-0.639814	0.198870	0.923590
C127	C	-0.649661	0.337531	0.849242
C128	C	-0.569815	0.329974	0.756815
H129	H	-0.617435	0.194010	0.992395
H130	H	-0.601350	0.104549	0.842494
H131	H	-0.688112	0.431827	0.930328
H132	H	-0.672026	0.342419	0.780410
H133	H	-0.531351	0.235653	0.675718
H134	H	-0.547443	0.325111	0.825631
H135	H	-0.576485	0.424045	0.706346
