data_functionalizedCrystal
_audit_creation_method	'MofGen! by Chris Wilmer'
_symmetry_space_group_name_H-M	'P1'
_symmetry_Int_Tables_number	1
_symmetry_cell_setting	triclinic
loop_
_symmetry_equiv_pos_as_xyz
  x,y,z
_cell_length_a	19.121102
_cell_length_b	25.639239
_cell_length_c	19.121175
_cell_angle_alpha	92.412705
_cell_angle_beta	85.212968
_cell_angle_gamma	87.592882
loop_
_atom_site_label
_atom_site_type_symbol
_atom_site_fract_x
_atom_site_fract_y
_atom_site_fract_z
Zn1	Zn	1.092540	-0.257000	-0.443656
Zn2	Zn	1.087414	-0.340536	-0.325985
Zn3	Zn	0.969867	-0.249219	-0.320995
Zn4	Zn	0.974814	-0.340501	-0.438597
O5	O	1.031158	-0.296814	-0.382308
O6	O	1.190322	-0.271353	-0.432253
O7	O	1.067605	-0.325180	-0.226860
O8	O	0.986215	-0.177089	-0.337295
O9	O	1.186556	-0.332726	-0.345800
O10	O	1.076342	-0.182806	-0.427414
O11	O	0.981244	-0.258090	-0.223194
O12	O	0.872061	-0.258056	-0.332389
O13	O	0.994646	-0.332667	-0.537731
O14	O	0.875695	-0.325121	-0.418791
O15	O	1.081138	-0.271319	-0.541448
O16	O	1.072402	-0.413693	-0.340895
O17	O	0.989675	-0.413668	-0.423630
C18	C	0.848348	-0.290741	-0.374500
C19	C	0.770141	-0.288156	-0.371176
C20	C	1.031039	-0.432652	-0.382271
C21	C	1.031053	-0.490766	-0.382281
C22	C	0.735307	-0.321907	-0.414529
C23	C	0.661824	-0.319471	-0.411409
C24	C	0.623176	-0.283287	-0.364933
C25	C	0.658015	-0.249533	-0.321578
C26	C	0.731497	-0.251966	-0.324702
C27	C	0.401212	-0.274188	-0.353257
C28	C	0.327725	-0.271758	-0.350136
C29	C	0.331539	-0.341697	-0.439968
C30	C	0.405022	-0.344129	-0.443084
C31	C	0.439855	-0.310373	-0.399733
C32	C	0.548064	-0.280798	-0.361741
C33	C	0.514965	-0.312860	-0.402928
C34	C	1.074355	-0.851141	-0.339310
C35	C	1.074383	-0.905746	-0.339320
O36	O	1.111075	-0.933987	-0.302743
N37	N	1.031284	-0.933059	-0.382360
C38	C	0.988160	-0.905763	-0.425398
O39	O	0.951505	-0.934009	-0.462008
C40	C	0.988137	-0.851159	-0.425390
C41	C	1.031233	-0.823849	-0.382342
C42	C	1.117448	-0.823831	-0.296265
C43	C	1.117419	-0.769229	-0.296254
C44	C	1.074297	-0.741937	-0.339287
C45	C	1.031204	-0.769247	-0.382331
C46	C	0.945017	-0.823865	-0.468431
C47	C	0.944998	-0.769257	-0.468420
C48	C	0.988094	-0.741947	-0.425372
C49	C	0.988053	-0.687353	-0.425352
N50	N	1.031152	-0.660041	-0.382312
C51	C	1.074274	-0.687333	-0.339279
C52	C	0.988214	-1.020436	-0.425411
C53	C	0.988233	-1.075039	-0.425415
C54	C	1.074457	-1.075018	-0.339338
C55	C	1.074433	-1.020414	-0.339331
C56	C	1.031312	-0.993123	-0.382371
C57	C	1.074210	-0.572665	-0.339258
C58	C	1.074175	-0.518058	-0.339249
C59	C	0.987954	-0.518084	-0.425328
C60	C	0.987986	-0.572686	-0.425335
C61	C	1.031119	-0.599975	-0.382298
O62	O	0.951381	-0.659078	-0.461912
O63	O	1.110930	-0.659081	-0.302682
C64	C	1.214683	-0.302911	-0.390148
C65	C	1.292891	-0.305509	-0.393488
C66	C	1.039016	-0.302857	-0.565834
C67	C	1.042364	-0.305433	-0.644042
C68	C	1.031298	-0.160447	-0.382362
C69	C	1.031358	-0.102336	-0.382385
C70	C	0.998975	-0.271713	-0.678874
C71	C	1.002119	-0.274137	-0.752359
C72	C	1.048654	-0.310279	-0.791009
C73	C	1.092045	-0.344002	-0.756171
C74	C	1.088897	-0.341580	-0.682688
C75	C	1.060404	-0.319341	-1.012976
C76	C	1.063549	-0.321759	-1.086464
C77	C	0.973622	-0.251895	-1.082646
C78	C	0.970481	-0.249474	-1.009162
C79	C	1.013869	-0.283199	-0.974331
C80	C	1.051870	-0.312756	-0.866122
C81	C	1.010649	-0.280724	-0.899219
C82	C	1.023372	-0.290758	-0.199498
C83	C	1.020161	-0.288040	-0.121297
H84	H	0.766769	-0.351374	-0.452373
H85	H	0.633465	-0.346955	-0.446711
C86	C	0.954395	-0.237037	-0.790671
N87	N	0.918449	-0.209091	-0.819528
H88	H	0.932585	-0.220045	-0.977698
C89	C	0.897609	-0.853894	-0.515791
N90	N	0.861900	-0.876510	-0.551466
H91	H	0.436484	-0.373595	-0.480929
H92	H	0.516588	-0.251338	-0.323899
H93	H	0.296260	-0.242287	-0.312293
H94	H	0.938297	-0.224438	-1.111014
C95	C	1.121898	-1.105050	-0.292007
N96	N	1.157629	-1.127672	-0.256360
H97	H	0.429564	-0.246705	-0.317952
H98	H	1.109269	-0.495824	-0.304191
C99	C	0.293217	-0.378822	-0.487657
N100	N	0.264352	-0.406785	-0.523580
C101	C	1.114742	-0.361522	-1.128978
N102	N	1.153298	-0.391469	-1.161000
H103	H	0.909885	-0.747039	-0.503471
H104	H	0.626542	-0.220069	-0.283739
H105	H	0.759858	-0.224480	-0.289403
H106	H	1.109526	-0.998181	-0.304278
C107	C	1.108171	-0.356412	-0.974673
N108	N	1.144166	-0.384326	-0.945821
C109	C	1.121654	-0.602675	-0.291911
N110	N	1.157385	-0.625278	-0.256245
C111	C	1.143075	-0.383871	-0.798682
N112	N	1.181457	-0.413941	-0.830698
H113	H	1.124234	-0.369034	-0.654329
H114	H	0.546436	-0.342319	-0.440772
H115	H	0.952896	-0.594923	-0.460391
C116	C	1.164823	-0.739195	-0.248891
N117	N	1.200528	-0.716576	-0.213213
C118	C	1.164886	-0.853843	-0.248918
N119	N	1.200615	-0.876444	-0.213247
C120	C	0.940817	-1.105073	-0.472764
N121	N	0.905104	-1.127694	-0.508433
C122	C	0.940778	-0.990421	-0.472764
N123	N	0.905052	-0.967817	-0.508435
C124	C	0.940525	-0.488053	-0.472664
N125	N	0.904806	-0.465432	-0.508323
C126	C	0.947781	-0.231954	-0.636365
N127	N	0.909218	-0.202008	-0.604350
H128	H	0.972758	-0.251299	-0.867747
H129	H	1.089759	-0.342183	-0.897599
