data_functionalizedCrystal
_audit_creation_method	'MofGen! by Chris Wilmer'
_symmetry_space_group_name_H-M	'P1'
_symmetry_Int_Tables_number	1
_symmetry_cell_setting	triclinic
loop_
_symmetry_equiv_pos_as_xyz
  x,y,z
_cell_length_a	10.654550
_cell_length_b	11.026607
_cell_length_c	9.730223
_cell_angle_alpha	89.997552
_cell_angle_beta	89.999957
_cell_angle_gamma	96.535474
loop_
_atom_site_label
_atom_site_type_symbol
_atom_site_fract_x
_atom_site_fract_y
_atom_site_fract_z
O1	O	1.704907	0.170767	-0.114181
O2	O	2.204907	0.670767	0.385819
O3	O	1.342961	0.187037	-0.114206
O4	O	1.842961	0.687037	0.385794
O5	O	1.493936	0.001997	-0.114190
O6	O	1.993936	0.501997	0.385810
O7	O	1.553932	0.355808	-0.114196
O8	O	2.053932	0.855808	0.385804
O9	O	1.493923	0.001991	0.114390
O10	O	1.993923	0.501991	0.614390
O11	O	1.342947	0.187032	0.114374
O12	O	1.842947	0.687032	0.614374
O13	O	1.704894	0.170762	0.114399
O14	O	2.204894	0.670762	0.614399
Zn15	Zn	1.523918	0.178896	0.150679
Zn16	Zn	2.023918	0.678896	0.650679
Zn17	Zn	1.523936	0.178903	-0.150485
Zn18	Zn	2.023936	0.678903	0.349515
O19	O	1.553918	0.355803	0.114384
O20	O	2.053918	0.855803	0.614384
C21	C	1.295897	0.185840	0.000081
C22	C	1.795897	0.685840	0.500081
C23	C	1.155678	0.182266	0.000072
C24	C	1.655678	0.682266	0.500072
C25	C	1.099841	0.291214	0.000074
C26	C	1.599841	0.791214	0.500074
C27	C	0.968090	0.287849	0.000098
C28	C	1.468090	0.787849	0.500098
C29	C	0.948022	0.066576	0.000112
C30	C	1.448022	0.566576	0.500112
C31	C	1.079771	0.069943	0.000098
C32	C	1.579771	0.569943	0.500098
C33	C	1.482861	-0.043310	0.000097
C34	C	1.982861	0.456690	0.500097
C35	C	1.449867	-0.178302	0.000090
C36	C	1.949867	0.321698	0.500090
C37	C	1.540970	-0.251341	0.000094
C38	C	2.040970	0.248659	0.500094
C39	C	1.506871	-0.390862	0.000087
C40	C	2.006871	0.109138	0.500087
C41	C	1.751958	0.171959	0.000109
C42	C	2.251958	0.671959	0.500109
C43	C	1.892177	0.175533	0.000110
C44	C	2.392177	0.675533	0.500110
C45	C	1.564993	0.401109	0.000093
C46	C	2.064993	0.901109	0.500093
C47	C	1.597988	0.536101	0.000091
C48	C	2.097988	1.036101	0.500091
N49	N	1.523915	0.178891	0.356215
N50	N	2.023915	0.678891	0.856215
N51	N	1.523947	0.178899	-0.356022
N52	N	2.023947	0.678899	0.143978
C53	C	1.590804	0.096990	0.428148
C54	C	2.090804	0.596990	0.928148
C55	C	1.590817	0.096990	0.572031
C56	C	2.090817	0.596990	1.072031
C57	C	1.457050	0.260803	0.572036
C58	C	1.957050	0.760803	1.072036
C59	C	1.457031	0.260796	0.428155
C60	C	1.957031	0.760796	0.928155
H61	H	1.125232	-0.018782	0.000100
H62	H	1.625232	0.481218	0.500100
H63	H	1.403623	-0.431617	0.000071
H64	H	1.903623	0.068383	0.500071
H65	H	1.701236	-0.423146	-0.000005
H66	H	2.201236	0.076854	0.499995
H67	H	1.402596	0.327491	0.630624
H68	H	1.902596	0.827491	1.130624
Cl69	Cl	1.700372	-0.188421	0.000097
Cl70	Cl	2.200372	0.311579	0.500097
Cl71	Cl	0.897902	0.424820	0.000102
Cl72	Cl	1.397902	0.924820	0.500102
Cl73	Cl	1.290465	-0.241221	0.000065
Cl74	Cl	1.790465	0.258779	0.500065
H75	H	1.645282	0.030298	0.630594
H76	H	2.145282	0.530298	1.130594
Cl77	Cl	1.195263	0.432419	0.000050
Cl78	Cl	1.695263	0.932419	0.500050
Cl79	Cl	0.852588	-0.074622	0.000135
Cl80	Cl	1.352588	0.425378	0.500135
Cl81	Cl	1.674881	-0.005981	0.337715
Cl82	Cl	2.174881	0.494019	0.837715
H83	H	1.402556	0.327490	0.369584
H84	H	1.902556	0.827490	0.869584
