data_functionalizedCrystal
_audit_creation_method	'MofGen! by Chris Wilmer'
_symmetry_space_group_name_H-M	'P1'
_symmetry_Int_Tables_number	1
_symmetry_cell_setting	triclinic
loop_
_symmetry_equiv_pos_as_xyz
  x,y,z
_cell_length_a	14.044191
_cell_length_b	14.044190
_cell_length_c	11.804366
_cell_angle_alpha	102.922536
_cell_angle_beta	77.036070
_cell_angle_gamma	93.191777
loop_
_atom_site_label
_atom_site_type_symbol
_atom_site_fract_x
_atom_site_fract_y
_atom_site_fract_z
O1	O	1.259489	0.247811	0.098999
O2	O	1.759489	0.747811	0.598999
O3	O	0.982814	0.239501	0.099013
O4	O	1.482814	0.739501	0.599013
O5	O	1.116999	0.105316	0.098983
O6	O	1.616999	0.605316	0.598983
O7	O	1.125303	0.381997	0.099029
O8	O	1.625303	0.881997	0.599029
O9	O	1.152377	0.070077	-0.099081
O10	O	1.652377	0.570077	0.400919
O11	O	1.018191	0.204263	-0.099051
O12	O	1.518191	0.704263	0.400949
O13	O	1.294867	0.212573	-0.099065
O14	O	1.794867	0.712573	0.400935
Cu15	Cu	1.159759	0.205200	-0.117143
Cu16	Cu	1.659759	0.705200	0.382857
Cu17	Cu	1.117921	0.246874	0.117091
Cu18	Cu	1.617921	0.746874	0.617091
O19	O	1.160681	0.346758	-0.099035
O20	O	1.660681	0.846758	0.400965
C21	C	0.964880	0.218246	-0.000017
C22	C	1.464880	0.718246	0.499983
C23	C	0.858736	0.207399	-0.000013
C24	C	1.358736	0.707399	0.499987
C25	C	1.131052	0.052074	-0.000052
C26	C	1.631052	0.552074	0.499948
C27	C	1.120206	-0.054071	-0.000062
C28	C	1.620206	0.445929	0.499938
C29	C	0.613279	0.264499	-0.000015
C30	C	1.113279	0.764499	0.499985
C31	C	0.664405	0.187581	-0.000026
C32	C	1.164405	0.687581	0.499974
C33	C	0.772541	0.198610	-0.000019
C34	C	1.272541	0.698610	0.499981
C35	C	0.505134	0.253471	-0.000023
C36	C	1.005134	0.753471	0.499977
C37	C	1.177299	-0.299521	-0.000018
C38	C	1.677299	0.200479	0.499982
C39	C	1.100383	-0.248398	-0.000023
C40	C	1.600383	0.251602	0.499977
C41	C	1.111416	-0.140265	-0.000045
C42	C	1.611416	0.359735	0.499955
C43	C	1.166268	-0.407664	0.000003
C44	C	1.666268	0.092336	0.500003
C45	C	1.312800	0.233829	-0.000032
C46	C	1.812800	0.733829	0.499968
C47	C	1.418942	0.244677	-0.000028
C48	C	1.918942	0.744677	0.499972
C49	C	1.146628	0.400001	0.000003
C50	C	1.646628	0.900001	0.500003
C51	C	1.157472	0.506147	0.000021
C52	C	1.657472	1.006147	0.500021
N53	N	1.088494	0.276178	0.281838
N54	N	1.588494	0.776178	0.781838
N55	N	1.189193	0.175889	-0.281890
N56	N	1.689193	0.675889	0.218110
C57	C	1.259884	0.105530	0.655748
C58	C	1.759884	0.605530	1.155748
C59	C	1.282154	0.083368	0.531082
C60	C	1.782154	0.583368	1.031082
C61	C	1.233741	0.131569	0.468765
C62	C	1.733741	0.631569	0.968765
C63	C	1.163054	0.201935	0.531127
C64	C	1.663054	0.701935	1.031127
C65	C	1.140776	0.224093	0.655805
C66	C	1.640776	0.724093	1.155805
C67	C	1.114633	0.250132	0.468822
C68	C	1.614633	0.750132	0.968822
C69	C	1.043946	0.320498	0.531184
C70	C	1.543946	0.820498	1.031184
C71	C	1.021672	0.342654	0.655850
C72	C	1.521672	0.842654	1.155850
C73	C	1.070085	0.294453	0.718167
C74	C	1.570085	0.794453	1.218167
C75	C	1.136911	0.227974	0.344143
C76	C	1.636911	0.727974	0.844143
C77	C	1.017803	0.346537	0.344200
C78	C	1.517803	0.846537	0.844200
C79	C	0.995533	0.368699	0.468867
C80	C	1.495533	0.868699	0.968867
H81	H	0.626947	0.113461	0.000045
H82	H	1.126947	0.613461	0.500045
C83	C	1.064893	0.417842	0.896786
C84	C	1.564893	0.917842	1.396786
C85	C	1.045619	0.318817	0.855208
C86	C	1.545619	0.818817	1.355208
H87	H	1.049800	0.432880	0.981390
H88	H	1.549800	0.932880	1.481390
H89	H	1.025931	0.456607	0.868617
H90	H	1.525931	0.956607	1.368617
H91	H	1.132026	0.431192	0.868563
H92	H	1.632026	0.931192	1.368563
H93	H	0.978484	0.305469	0.883424
H94	H	1.478484	0.805469	1.383424
H95	H	1.084581	0.280041	0.883389
H96	H	1.584581	0.780041	1.383389
C97	C	1.413688	0.070681	0.694008
C98	C	1.913688	0.570681	1.194008
C99	C	1.313141	0.052543	0.724189
C100	C	1.813141	0.552543	1.224189
H101	H	1.446582	0.037957	0.736240
H102	H	1.946582	0.537957	1.236240
H103	H	1.425646	0.138934	0.714495
H104	H	1.925646	0.638934	1.214495
H105	H	1.437028	0.047435	0.610822
H106	H	1.937028	0.547435	1.110822
H107	H	1.289799	0.075795	0.807375
H108	H	1.789799	0.575795	1.307375
H109	H	1.301176	-0.015726	0.703711
H110	H	1.801176	0.484274	1.203711
H111	H	0.650720	0.338629	0.000001
H112	H	1.150720	0.838629	0.500001
H113	H	1.026249	-0.285841	-0.000012
H114	H	1.526249	0.214159	0.499988
H115	H	1.251429	-0.262080	-0.000035
H116	H	1.751429	0.237920	0.499965
C117	C	0.906180	0.457629	0.643382
C118	C	1.406180	0.957629	1.143382
C119	C	0.943968	0.419996	0.724401
C120	C	1.443968	0.919996	1.224401
H121	H	0.858213	0.505380	0.685703
H122	H	1.358213	1.005380	1.185703
H123	H	0.877247	0.406254	0.594738
H124	H	1.377247	0.906254	1.094738
H125	H	0.957453	0.486789	0.594771
H126	H	1.457453	0.986789	1.094771
H127	H	0.892695	0.390829	0.773006
H128	H	1.392695	0.890829	1.273006
H129	H	0.972900	0.471380	0.773065
H130	H	1.472900	0.971380	1.273065
C131	C	0.864026	0.381404	0.305827
C132	C	1.364026	0.881404	0.805827
C133	C	0.964581	0.399525	0.275713
C134	C	1.464581	0.899525	0.775713
H135	H	0.831174	0.414108	0.263533
H136	H	1.331174	0.914108	0.763533
H137	H	0.840649	0.404673	0.388991
H138	H	1.340649	0.904673	0.888991
H139	H	0.852063	0.313141	0.285360
H140	H	1.352063	0.813141	0.785360
H141	H	0.976545	0.467789	0.296188
H142	H	1.476545	0.967789	0.796188
H143	H	0.987967	0.376261	0.192530
H144	H	1.487967	0.876261	0.692530
C145	C	1.186170	0.060733	0.305700
C146	C	1.686170	0.560733	0.805700
C147	C	1.214609	0.150633	0.275603
C148	C	1.714609	0.650633	0.775603
H149	H	1.234145	0.012987	0.263391
H150	H	1.734145	0.512987	0.763391
H151	H	1.125262	0.041195	0.285252
H152	H	1.625262	0.541195	0.785252
H153	H	1.179832	0.067046	0.388871
H154	H	1.679832	0.567046	0.888871
H155	H	1.220940	0.144322	0.192434
H156	H	1.720940	0.644322	0.692434
H157	H	1.275535	0.170175	0.296043
H158	H	1.775535	0.670175	0.796043
C159	C	1.331433	-0.083869	0.492640
C160	C	1.831433	0.416131	0.992640
C161	C	1.359861	0.006035	0.462545
C162	C	1.859861	0.506035	0.962545
H163	H	1.379416	-0.131608	0.450334
H164	H	1.879416	0.368392	0.950334
H165	H	1.270529	-0.103416	0.472187
H166	H	1.770529	0.396584	0.972187
H167	H	1.325092	-0.077554	0.575811
H168	H	1.825092	0.422446	1.075811
H169	H	1.366195	-0.000277	0.379375
H170	H	1.866195	0.499723	0.879375
H171	H	1.420782	0.025586	0.482991
H172	H	1.920782	0.525586	0.982991
H173	H	1.251877	0.113521	0.367255
H174	H	1.751877	0.613521	0.867255
H175	H	0.937977	0.425993	0.519657
H176	H	1.437977	0.925993	1.019657
