data_functionalizedCrystal
_audit_creation_method	'MofGen! by Chris Wilmer'
_symmetry_space_group_name_H-M	'P1'
_symmetry_Int_Tables_number	1
_symmetry_cell_setting	triclinic
loop_
_symmetry_equiv_pos_as_xyz
  x,y,z
_cell_length_a	12.759401
_cell_length_b	21.295417
_cell_length_c	12.759393
_cell_angle_alpha	89.962952
_cell_angle_beta	89.980198
_cell_angle_gamma	90.028788
loop_
_atom_site_label
_atom_site_type_symbol
_atom_site_fract_x
_atom_site_fract_y
_atom_site_fract_z
Zn1	Zn	1.606157	-0.250594	-0.593940
Zn2	Zn	1.606002	-0.355876	-0.418240
Zn3	Zn	1.430456	-0.250623	-0.418279
Zn4	Zn	1.430401	-0.355828	-0.593881
O5	O	1.518254	-0.303230	-0.506085
O6	O	1.753157	-0.264568	-0.570642
O7	O	1.582673	-0.341947	-0.271224
O8	O	1.453850	-0.162530	-0.441622
O9	O	1.753043	-0.341918	-0.441556
O10	O	1.582937	-0.162509	-0.570680
O11	O	1.453700	-0.264618	-0.271253
O12	O	1.283427	-0.264571	-0.441564
O13	O	1.453758	-0.341836	-0.740910
O14	O	1.283388	-0.341864	-0.570578
O15	O	1.582885	-0.264521	-0.740954
O16	O	1.582621	-0.443959	-0.441499
O17	O	1.453608	-0.443924	-0.570541
C18	C	1.245287	-0.303216	-0.506070
C19	C	1.128510	-0.303225	-0.506088
C20	C	0.963971	-0.263036	-0.573414
C21	C	1.073695	-0.263023	-0.573407
C22	C	1.073595	-0.343445	-0.438779
C23	C	0.963873	-0.343460	-0.438792
C24	C	1.223713	-0.240600	-0.697364
C25	C	1.278623	-0.200374	-0.764661
C26	C	1.243048	-0.138968	-0.780984
C27	C	1.152564	-0.117775	-0.729996
C28	C	1.097659	-0.157998	-0.662691
C29	C	1.133233	-0.219413	-0.646388
C30	C	0.813853	-0.365877	-0.314834
C31	C	0.758946	-0.406097	-0.247523
C32	C	0.794519	-0.467504	-0.231189
C33	C	0.885007	-0.488695	-0.282159
C34	C	0.939914	-0.448474	-0.349470
C35	C	0.904333	-0.387068	-0.365806
C36	C	1.518120	-0.466782	-0.506032
C37	C	1.518159	-0.536750	-0.506044
C38	C	1.585336	-0.569548	-0.573293
C39	C	1.585373	-0.635291	-0.573319
C40	C	1.518244	-0.668233	-0.506078
C41	C	1.451054	-0.635426	-0.438824
C42	C	1.451011	-0.569685	-0.438808
N43	N	1.510303	-0.771501	-0.414131
N44	N	1.510350	-0.833952	-0.414150
C45	C	1.518367	-0.866307	-0.506125
N46	N	1.526356	-0.833852	-0.598083
N47	N	1.526315	-0.771394	-0.598063
C48	C	1.518282	-0.739518	-0.506088
C49	C	1.585588	-0.970391	-0.573407
C50	C	1.585617	-1.036135	-0.573435
C51	C	1.451304	-1.036269	-0.438931
C52	C	1.451268	-0.970526	-0.438913
C53	C	1.518416	-0.937591	-0.506149
C54	C	1.792287	-0.303245	-0.506101
C55	C	1.909064	-0.303252	-0.506108
C56	C	1.518333	-0.303170	-0.780119
C57	C	1.518366	-0.303144	-0.896895
C58	C	1.518417	-0.139040	-0.506162
C59	C	1.518486	-0.069072	-0.506194
C60	C	1.585607	-0.262880	-0.951782
C61	C	1.585625	-0.262853	-1.061506
C62	C	1.451157	-0.343359	-1.061448
C63	C	1.451135	-0.343383	-0.951726
C64	C	1.623270	-0.188584	-1.211498
C65	C	1.690527	-0.148325	-1.266388
C66	C	1.793044	-0.138675	-1.230796
C67	C	1.828325	-0.169292	-1.140316
C68	C	1.761072	-0.209556	-1.085432
C69	C	1.658541	-0.219194	-1.121022
C70	C	1.413501	-0.417653	-0.801732
C71	C	1.346254	-0.457920	-0.746846
C72	C	1.243735	-0.467576	-0.782435
C73	C	1.208459	-0.436970	-0.872918
C74	C	1.275706	-0.396703	-0.927805
C75	C	1.378224	-0.387045	-0.892208
C76	C	1.518236	-0.303245	-0.233118
C77	C	1.518406	-0.303093	-0.116342
H78	H	1.118235	-0.376180	-0.383971
O79	O	1.386009	-0.382516	-1.114760
C80	C	1.445796	-0.423154	-1.178235
H81	H	1.528531	-0.427055	-1.145177
H82	H	1.407747	-0.471595	-1.179452
H83	H	1.449454	-0.403673	-1.261401
H84	H	1.640068	-0.662001	-0.628093
O85	O	0.741197	-0.506659	-0.165931
C86	C	0.707169	-0.559806	-0.222322
H87	H	0.758861	-0.566430	-0.294358
H88	H	0.712726	-0.603180	-0.170210
H89	H	0.622407	-0.552785	-0.247998
O90	O	1.650444	-0.537586	-0.638761
C91	C	1.627460	-0.553629	-0.743455
H92	H	1.543535	-0.571741	-0.748693
H93	H	1.636461	-0.510367	-0.795362
H94	H	1.683796	-0.591748	-0.770969
H95	H	1.789799	-0.234486	-1.011768
O96	O	1.651013	-0.223878	-0.898470
C97	C	1.718808	-0.259730	-0.834972
H98	H	1.725263	-0.309302	-0.868013
H99	H	1.799681	-0.236963	-0.833748
H100	H	1.686303	-0.261915	-0.751811
H101	H	1.287764	-0.106215	-0.835779
O102	O	0.671146	-0.385505	-0.197840
C103	C	0.685836	-0.389243	-0.088499
H104	H	0.773259	-0.388630	-0.070125
H105	H	0.646326	-0.347443	-0.049135
H106	H	0.649801	-0.434677	-0.057819
O107	O	1.386054	-0.938565	-0.373677
C108	C	1.400430	-0.873477	-0.388061
H109	H	1.434790	-0.864441	-0.469169
H110	H	1.321722	-0.848537	-0.380859
H111	H	1.456400	-0.854822	-0.325787
O112	O	0.779173	-0.306235	-0.330557
C113	C	0.687524	-0.296160	-0.271149
H114	H	0.685228	-0.330696	-0.202883
H115	H	0.687463	-0.246088	-0.239603
H116	H	0.615772	-0.303550	-0.322922
O117	O	1.258293	-0.300267	-0.681707
C118	C	1.259801	-0.332624	-0.778067
H119	H	1.264998	-0.297362	-0.845131
H120	H	1.330639	-0.365190	-0.780621
H121	H	1.184989	-0.361484	-0.786368
O122	O	1.927934	-0.159831	-1.105867
C123	C	1.979735	-0.117742	-1.173726
H124	H	1.919345	-0.088032	-1.217025
H125	H	2.033409	-0.085824	-1.126166
H126	H	2.028340	-0.145333	-1.232857
H127	H	1.847806	-0.105895	-1.275495
H128	H	1.396395	-0.662251	-0.384079
H129	H	1.661793	-0.123396	-1.340057
O130	O	1.523611	-0.197889	-1.245922
C131	C	1.452242	-0.178978	-1.167696
H132	H	1.491795	-0.143726	-1.113353
H133	H	1.381028	-0.156206	-1.205962
H134	H	1.426190	-0.221708	-1.120520
H135	H	1.352296	-0.217635	-0.806175
O136	O	1.027766	-0.469167	-0.398943
C137	C	1.047411	-0.531988	-0.370075
H138	H	0.971434	-0.554789	-0.342373
H139	H	1.079199	-0.558816	-0.440526
H140	H	1.107485	-0.533155	-0.303985
O141	O	1.385722	-0.537919	-0.373377
C142	C	1.326454	-0.581087	-0.314054
H143	H	1.369514	-0.627931	-0.310466
H144	H	1.315277	-0.562139	-0.231262
H145	H	1.246646	-0.588100	-0.352462
H146	H	0.919348	-0.230295	-0.628227
O147	O	1.650830	-0.938491	-0.638831
C148	C	1.710140	-0.981541	-0.698187
H149	H	1.667135	-1.028425	-0.701792
H150	H	1.721279	-0.962501	-0.780971
H151	H	1.789963	-0.988508	-0.659796
H152	H	1.246976	-0.371782	-1.001482
H153	H	1.124981	-0.444835	-0.901899
H154	H	1.640321	-1.062838	-0.628201
O155	O	1.386035	-1.068327	-0.373762
C156	C	1.318152	-1.106346	-0.433536
H157	H	1.355176	-1.116139	-0.513187
H158	H	1.304113	-1.152603	-0.390743
H159	H	1.240277	-1.081041	-0.445011
O160	O	1.178533	-0.506695	-0.728972
C161	C	1.231657	-0.531660	-0.641498
H162	H	1.299061	-0.499191	-0.619060
H163	H	1.174959	-0.535928	-0.572788
H164	H	1.263908	-0.580049	-0.661912
H165	H	0.913974	-0.538697	-0.268856
O166	O	1.009760	-0.137329	-0.613284
C167	C	0.990149	-0.074495	-0.642094
H168	H	1.029409	-0.064161	-0.720505
H169	H	0.902043	-0.066797	-0.649423
H170	H	1.023133	-0.041719	-0.579654
O171	O	1.380678	-0.487684	-0.659041
C172	C	1.467366	-0.525814	-0.684336
H173	H	1.506064	-0.507463	-0.758855
H174	H	1.526309	-0.524669	-0.617240
H175	H	1.439823	-0.576142	-0.697368
H176	H	1.123613	-0.067769	-0.743282
H177	H	1.496979	-0.409789	-0.772741
