data_functionalizedCrystal
_audit_creation_method	'MofGen! by Chris Wilmer'
_symmetry_space_group_name_H-M	'P1'
_symmetry_Int_Tables_number	1
_symmetry_cell_setting	triclinic
loop_
_symmetry_equiv_pos_as_xyz
  x,y,z
_cell_length_a	17.699077
_cell_length_b	17.699083
_cell_length_c	9.730223
_cell_angle_alpha	89.994713
_cell_angle_beta	89.997269
_cell_angle_gamma	83.281795
loop_
_atom_site_label
_atom_site_type_symbol
_atom_site_fract_x
_atom_site_fract_y
_atom_site_fract_z
O1	O	1.004077	0.095689	-0.114274
O2	O	0.783698	0.108147	-0.114281
O3	O	0.900114	-0.008271	-0.114266
O4	O	0.887662	0.212107	-0.114290
O5	O	0.900107	-0.008274	0.114314
O6	O	0.783691	0.108144	0.114298
O7	O	1.004070	0.095686	0.114306
Zn8	Zn	0.893879	0.101914	0.150594
Zn9	Zn	0.893889	0.101919	-0.150570
O10	O	0.887654	0.212104	0.114290
C11	C	0.755498	0.107700	0.000008
C12	C	0.671479	0.106363	0.000005
C13	C	0.632008	0.105731	0.124606
C14	C	0.553065	0.104463	0.124607
C15	C	0.513595	0.103832	0.000007
C16	C	0.553072	0.104461	-0.124603
C17	C	0.632014	0.105724	-0.124603
C18	C	0.234709	0.099368	-0.124605
C19	C	0.155761	0.098107	-0.124595
C20	C	0.155760	0.098107	0.124606
C21	C	0.234702	0.099370	0.124605
C22	C	0.274173	0.099995	-0.000004
C23	C	0.359772	0.101369	-0.000004
C24	C	0.427997	0.102464	0.000006
C25	C	0.899664	-0.036470	0.000025
C26	C	0.898326	-0.120488	0.000025
C27	C	0.966659	-0.169110	0.000029
C28	C	0.965397	-0.248054	0.000017
C29	C	0.895800	-0.278373	0.000011
C30	C	0.827461	-0.229744	0.000002
C31	C	0.828724	-0.150803	0.000005
C32	C	0.822366	-0.548107	-0.000009
C33	C	0.821108	-0.627055	-0.000007
C34	C	0.959039	-0.645358	0.000003
C35	C	0.960302	-0.566417	0.000006
C36	C	0.891963	-0.517795	-0.000010
C37	C	0.893333	-0.432196	0.000001
C38	C	0.894430	-0.363971	0.000010
C39	C	1.032271	0.096133	0.000013
C40	C	1.116289	0.097470	0.000007
C41	C	0.888104	0.240303	-0.000003
C42	C	0.889443	0.324321	-0.000013
N43	N	0.893878	0.101911	0.356130
N44	N	0.893896	0.101916	-0.356106
C45	C	0.945444	0.050383	0.428063
C46	C	0.945452	0.050383	0.571946
C47	C	0.842324	0.153447	0.571951
C48	C	0.842314	0.153442	0.428070
H49	H	0.664138	0.106251	0.226070
H50	H	0.800343	0.195403	0.630539
H51	H	0.123627	0.097593	-0.226066
H52	H	0.987430	0.008422	0.369493
H53	H	0.800319	0.195403	0.369499
H54	H	0.664150	0.106240	-0.226066
H55	H	0.520933	0.103936	0.226070
H56	H	0.266834	0.099887	0.226068
O57	O	0.113144	0.097781	0.259013
H58	H	0.051603	0.096919	0.238088
O59	O	0.277276	0.100050	-0.258997
H60	H	0.236564	0.099409	-0.345635
H61	H	0.520930	0.103942	-0.226055
H62	H	1.023333	-0.144431	0.000043
O63	O	0.748656	-0.495679	-0.000007
H64	H	0.745923	-0.459275	-0.093179
H65	H	1.021041	-0.287639	0.000023
H66	H	0.773080	-0.111214	0.000001
H67	H	0.987441	0.008423	0.630510
H68	H	1.016974	-0.541735	0.000018
O69	O	1.032751	-0.697799	0.000008
H70	H	1.020186	-0.757787	-0.000008
H71	H	0.764431	-0.651737	-0.000010
O72	O	0.752393	-0.262440	0.000010
H73	H	0.762993	-0.325502	0.000029
