data_functionalizedCrystal
_audit_creation_method	'MofGen! by Chris Wilmer'
_symmetry_space_group_name_H-M	'P1'
_symmetry_Int_Tables_number	1
_symmetry_cell_setting	triclinic
loop_
_symmetry_equiv_pos_as_xyz
  x,y,z
_cell_length_a	15.944551
_cell_length_b	15.944493
_cell_length_c	7.681481
_cell_angle_alpha	84.264607
_cell_angle_beta	95.728392
_cell_angle_gamma	83.486891
loop_
_atom_site_label
_atom_site_type_symbol
_atom_site_fract_x
_atom_site_fract_y
_atom_site_fract_z
O1	O	1.106570	0.116276	-0.146222
O2	O	0.862015	0.129635	-0.146263
O3	O	0.990995	0.000678	-0.146256
O4	O	0.977589	0.245233	-0.146229
O5	O	1.006870	-0.015230	0.146602
O6	O	0.877890	0.113726	0.146595
O7	O	1.122445	0.100368	0.146636
Zn8	Zn	1.002688	0.104521	0.193113
Zn9	Zn	0.981772	0.125481	-0.192740
O10	O	0.993465	0.229324	0.146629
C11	C	0.838658	0.121126	0.000160
C12	C	0.745412	0.119465	0.000144
C13	C	0.998384	-0.038571	0.000165
C14	C	0.996740	-0.131818	0.000143
C15	C	1.072663	-0.367580	0.000189
C16	C	1.023895	-0.410304	-0.144212
C17	C	0.993697	-0.302540	0.000164
C18	C	1.039528	-0.425965	0.144524
C19	C	0.990764	-0.467451	0.000192
C20	C	0.944943	-0.344030	-0.144356
C21	C	0.960596	-0.359694	0.144509
C22	C	0.911767	-0.402383	0.000074
C23	C	0.995389	-0.207539	0.000146
C24	C	0.989066	-0.562449	0.000197
C25	C	0.530574	0.035557	0.000168
C26	C	0.461719	0.082364	-0.144222
C27	C	0.574688	0.116457	0.000164
C28	C	0.477393	0.066699	0.144514
C29	C	0.409777	0.113544	0.000192
C30	C	0.507054	0.163292	-0.144346
C31	C	0.522742	0.147608	0.144520
C32	C	0.453902	0.194476	0.000094
C33	C	0.669689	0.118132	0.000147
C34	C	0.314777	0.111876	0.000196
C35	C	1.145801	0.108876	0.000209
C36	C	1.239047	0.110538	0.000214
C37	C	0.986075	0.268573	0.000204
C38	C	0.987719	0.361821	0.000215
N39	N	1.016969	0.090216	0.456448
N40	N	0.967497	0.139780	-0.456075
H41	H	1.140674	-0.351945	0.000055
C42	C	1.059701	-0.440050	-0.306824
C43	C	1.143899	-0.422821	-0.306131
C44	C	1.176920	-0.450218	-0.455881
H45	H	1.026747	-0.410941	-0.409497
H46	H	1.057952	-0.499440	-0.306185
H47	H	1.145642	-0.363441	-0.306787
H48	H	1.176874	-0.451928	-0.203492
H49	H	1.175172	-0.509609	-0.455241
H50	H	1.143961	-0.421107	-0.558542
H51	H	1.234054	-0.438539	-0.455423
H52	H	1.067479	0.039629	0.531657
H53	H	0.916997	0.190369	0.468725
C54	C	0.558550	0.184217	0.307357
C55	C	0.620608	0.123975	0.405450
C56	C	0.653626	0.157664	0.555469
H57	H	0.514170	0.198256	0.377176
H58	H	0.583247	0.233891	0.272752
H59	H	0.595911	0.074316	0.440057
H60	H	0.665004	0.109930	0.335683
H61	H	0.678323	0.207339	0.520864
H62	H	0.609240	0.171703	0.625273
H63	H	0.695741	0.116799	0.622035
C64	C	0.409681	0.284130	-0.000358
C65	C	0.424446	0.334311	-0.151807
C66	C	0.383712	0.416900	-0.152303
H67	H	0.431371	0.307670	0.101127
H68	H	0.350335	0.282574	0.000522
H69	H	0.483780	0.335870	-0.152670
H70	H	0.402753	0.310798	-0.253316
H71	H	0.324366	0.415344	-0.151423
H72	H	0.405406	0.440431	-0.050811
H73	H	0.393718	0.450956	-0.255066
C74	C	0.574904	-0.054026	0.000239
C75	C	0.559041	-0.104757	0.150009
C76	C	0.599855	-0.187284	0.150108
H77	H	0.634340	-0.052525	0.001372
H78	H	0.553900	-0.077101	-0.102421
H79	H	0.580049	-0.081688	0.252642
H80	H	0.499613	-0.106283	0.148908
H81	H	0.578851	-0.210360	0.047449
H82	H	0.659289	-0.185775	0.151237
H83	H	0.589091	-0.221718	0.251717
H84	H	0.904990	-0.308571	-0.266566
H85	H	0.463931	0.025836	0.266580
C86	C	0.821025	-0.423116	-0.000311
C87	C	0.799009	-0.462594	-0.150252
C88	C	0.715430	-0.481716	-0.150663
H89	H	0.783628	-0.372207	-0.001427
H90	H	0.816668	-0.460232	0.102234
H91	H	0.803359	-0.425479	-0.252770
H92	H	0.836384	-0.513511	-0.149168
H93	H	0.711072	-0.518833	-0.048118
H94	H	0.678040	-0.430804	-0.151774
H95	H	0.700484	-0.508511	-0.252387
C96	C	0.925146	-0.329987	0.307491
C97	C	0.974964	-0.371892	0.458286
C98	C	0.942348	-0.344540	0.608470
H99	H	0.868370	-0.342557	0.308767
H100	H	0.926018	-0.270433	0.305814
H101	H	0.974083	-0.431432	0.459963
H102	H	1.031740	-0.359327	0.457069
H103	H	0.943220	-0.284986	0.606794
H104	H	0.885573	-0.357111	0.609728
H105	H	0.976149	-0.372962	0.710802
H106	H	0.520410	0.204122	-0.266549
C107	C	0.426156	0.045419	-0.306847
C108	C	0.465360	-0.037779	-0.306175
C109	C	0.432617	-0.071848	-0.455937
H110	H	0.436859	0.079089	-0.409512
H111	H	0.366644	0.045060	-0.306208
H112	H	0.524858	-0.037415	-0.306831
H113	H	0.454660	-0.071470	-0.203544
H114	H	0.373105	-0.072207	-0.455298
H115	H	0.443322	-0.038172	-0.558590
H116	H	0.459206	-0.128303	-0.455493
C117	C	1.092825	-0.473535	0.307153
C118	C	1.089950	-0.560909	0.305797
C119	C	1.139051	-0.604756	0.455560
H120	H	1.070957	-0.455628	0.409816
H121	H	1.149959	-0.461925	0.306982
H122	H	1.032827	-0.572514	0.305985
H123	H	1.111824	-0.578841	0.203168
H124	H	1.196185	-0.593145	0.455389
H125	H	1.117179	-0.586842	0.558212
H126	H	1.137113	-0.664044	0.454652
