data_functionalizedCrystal
_audit_creation_method	'MofGen! by Chris Wilmer'
_symmetry_space_group_name_H-M	'P1'
_symmetry_Int_Tables_number	1
_symmetry_cell_setting	triclinic
loop_
_symmetry_equiv_pos_as_xyz
  x,y,z
_cell_length_a	15.298068
_cell_length_b	12.645330
_cell_length_c	15.296720
_cell_angle_alpha	80.350659
_cell_angle_beta	91.645182
_cell_angle_gamma	99.678117
loop_
_atom_site_label
_atom_site_type_symbol
_atom_site_fract_x
_atom_site_fract_y
_atom_site_fract_z
Zn1	Zn	1.253397	-0.315362	0.727383
Zn2	Zn	1.278667	-0.457737	0.580923
Zn3	Zn	1.132276	-0.305062	0.555549
Zn4	Zn	1.106900	-0.517167	0.701950
O5	O	1.192810	-0.398832	0.641451
O6	O	1.379324	-0.313688	0.729218
O7	O	1.280444	-0.408302	0.454993
O8	O	1.148387	-0.158077	0.578368
O9	O	1.397890	-0.418290	0.621614
O10	O	1.237374	-0.165645	0.704614
O11	O	1.172891	-0.296132	0.436352
O12	O	1.006335	-0.353759	0.553707
O13	O	1.105137	-0.519580	0.827887
O14	O	0.987692	-0.509592	0.661267
O15	O	1.212768	-0.371315	0.846573
O16	O	1.255838	-0.613972	0.596952
O17	O	1.129641	-0.657635	0.685870
C18	C	0.965231	-0.437007	0.601974
C19	C	0.867868	-0.453369	0.585106
C20	C	0.554694	-0.282157	0.762010
C21	C	0.646171	-0.266789	0.777863
C22	C	0.701599	-0.313432	0.729675
C23	C	0.665543	-0.375447	0.665631
C24	C	0.574057	-0.390825	0.649782
C25	C	0.720962	-0.422099	0.617447
C26	C	0.684906	-0.484115	0.553403
C27	C	0.593428	-0.499489	0.537556
C28	C	0.537999	-0.452845	0.585744
C29	C	0.812448	-0.406722	0.633297
C30	C	0.831811	-0.515390	0.521069
C31	C	0.740334	-0.530758	0.505215
C32	C	1.192748	-0.674270	0.641428
C33	C	1.192797	-0.792097	0.641461
C34	C	1.113649	-0.987176	0.697656
C35	C	1.113343	-0.864622	0.697379
C36	C	1.183795	-0.818870	0.544830
C37	C	1.183312	-0.941636	0.545170
C38	C	1.281489	-0.949257	0.681220
C39	C	1.280570	-0.827227	0.683140
C40	C	1.421278	-0.360509	0.681083
C41	C	1.518637	-0.344178	0.697972
C42	C	1.153303	-0.453226	0.869898
C43	C	1.136468	-0.476405	0.967248
C44	C	1.192893	-0.122320	0.641498
C45	C	1.192928	-0.004486	0.641518
C46	C	1.232214	-0.344565	0.413902
C47	C	1.249219	-0.321059	0.316582
C48	C	1.313169	-0.232975	1.280578
C49	C	1.328992	-0.211198	1.189114
C50	C	1.280862	-0.277498	1.133643
C51	C	1.216907	-0.365579	1.169645
C52	C	1.201087	-0.387363	1.261120
C53	C	1.168780	-0.431885	1.114184
C54	C	1.104824	-0.519966	1.150187
C55	C	1.089007	-0.541746	1.241652
C56	C	1.137137	-0.475447	1.297123
C57	C	1.184600	-0.410101	1.022710
C58	C	1.072518	-0.564489	1.003251
C59	C	1.056695	-0.586266	1.094716
H60	H	0.463510	-0.465364	0.572846
F61	F	1.100801	-0.787215	0.502992
H62	H	1.117248	-1.030365	0.769006
H63	H	1.340357	-0.958014	0.640527
F64	F	1.120303	-0.498623	1.394473
F65	F	0.555057	-0.565490	0.469394
F66	F	1.027103	-0.836595	0.661347
F67	F	1.296307	-1.005195	0.772863
H68	H	1.381067	-0.139485	1.159808
F69	F	0.701949	-0.596758	0.437058
F70	F	0.890797	-0.565039	0.469783
H71	H	1.287650	-0.811114	0.754334
F72	F	0.850812	-0.340722	0.701454
F73	F	1.118282	-0.843112	0.790376
F74	F	1.027927	-1.037743	0.661995
F75	F	1.099316	-0.987758	0.503648
H76	H	0.509556	-0.244194	0.801242
F77	F	1.256636	-0.953785	0.487500
F78	F	1.020952	-0.635503	1.279968
F79	F	1.257799	-0.754122	0.487740
H80	H	1.004621	-0.657982	1.124042
H81	H	1.341467	-0.776759	0.646505
H82	H	1.236673	-0.338384	0.993406
F83	F	1.297703	-0.254316	1.036298
H84	H	1.352354	-0.179009	1.325751
H85	H	0.776084	-0.300911	0.742583
F86	F	0.684538	-0.200794	0.846023
H87	H	1.033328	-0.618477	0.958087
