data_functionalizedCrystal
_audit_creation_method	'MofGen! by Chris Wilmer'
_symmetry_space_group_name_H-M	'P1'
_symmetry_Int_Tables_number	1
_symmetry_cell_setting	triclinic
loop_
_symmetry_equiv_pos_as_xyz
  x,y,z
_cell_length_a	12.759401
_cell_length_b	16.120484
_cell_length_c	12.759393
_cell_angle_alpha	87.135992
_cell_angle_beta	90.020938
_cell_angle_gamma	92.926992
loop_
_atom_site_label
_atom_site_type_symbol
_atom_site_fract_x
_atom_site_fract_y
_atom_site_fract_z
Zn1	Zn	1.584985	-0.331832	0.615183
Zn2	Zn	1.575933	-0.471268	0.448395
Zn3	Zn	1.409280	-0.331877	0.439521
Zn4	Zn	1.400336	-0.471209	0.624029
O5	O	1.492634	-0.401546	0.531782
O6	O	1.730804	-0.350334	0.593070
O7	O	1.553781	-0.452820	0.300200
O8	O	1.440119	-0.215205	0.455406
O9	O	1.724154	-0.452777	0.470532
O10	O	1.569208	-0.215173	0.584465
O11	O	1.431342	-0.350410	0.293680
O12	O	1.261073	-0.350354	0.463984
O13	O	1.424875	-0.452678	0.769874
O14	O	1.254502	-0.452721	0.599541
O15	O	1.560535	-0.350278	0.763375
O16	O	1.545108	-0.587925	0.479110
O17	O	1.416098	-0.587883	0.608147
C18	C	1.219667	-0.401536	0.531760
C19	C	1.102889	-0.401552	0.531777
C20	C	1.044628	-0.454936	0.602261
C21	C	0.934904	-0.454939	0.602282
C22	C	0.941712	-0.348172	0.461326
C23	C	1.051434	-0.348166	0.461311
C24	C	0.783089	-0.484854	0.728051
C25	C	0.724823	-0.538250	0.798527
C26	C	0.755203	-0.619612	0.819663
C27	C	0.843846	-0.647593	0.770310
C28	C	0.902106	-0.594200	0.699827
C29	C	0.871728	-0.512828	0.678709
C30	C	1.203250	-0.318259	0.335542
C31	C	1.261512	-0.264871	0.265053
C32	C	1.231134	-0.183508	0.243905
C33	C	1.142488	-0.155530	0.293240
C34	C	1.084226	-0.208919	0.363729
C35	C	1.114611	-0.290280	0.384878
C36	C	1.478679	-0.618154	0.545574
C37	C	1.472805	-0.710820	0.551509
C38	C	1.462088	-0.880481	0.562368
C39	C	1.523367	-0.921772	0.501213
C40	C	1.517404	-1.016177	0.507255
C41	C	1.468050	-0.786067	0.556327
C42	C	1.766666	-0.401557	0.531804
C43	C	1.883442	-0.401562	0.531814
C44	C	1.492717	-0.401466	0.805810
C45	C	1.492753	-0.401432	0.922585
C46	C	1.506671	-0.184093	0.517959
C47	C	1.512653	-0.091427	0.512068
C48	C	1.492614	-0.401566	0.258816
C49	C	1.492797	-0.401365	0.142027
C50	C	1.563397	-0.348104	0.974064
C51	C	1.563417	-0.348068	1.083786
C52	C	1.422146	-0.454696	1.090540
C53	C	1.422122	-0.454727	0.980820
C54	C	1.607337	-0.249705	1.227491
C55	C	1.677997	-0.196384	1.278974
C56	C	1.781330	-0.183600	1.242567
C57	C	1.814023	-0.224149	1.154680
C58	C	1.743368	-0.277476	1.103203
C59	C	1.640022	-0.290244	1.139607
C60	C	1.378212	-0.553091	0.837113
C61	C	1.307561	-0.606423	0.785634
C62	C	1.204226	-0.619216	0.822039
C63	C	1.171536	-0.578681	0.909931
C64	C	1.242187	-0.525350	0.961410
C65	C	1.345521	-0.512556	0.924997
H66	H	1.580308	-0.886221	0.444319
O67	O	1.394294	-0.922977	0.630289
C68	C	1.450957	-0.973246	0.701372
H69	H	1.529803	-0.986146	0.665206
H70	H	1.404362	-1.034548	0.719245
H71	H	1.464525	-0.939697	0.777142
H72	H	1.620907	-0.304706	0.926651
H73	H	0.974276	-0.616982	0.659644
O74	O	1.135718	-0.671026	0.771886
C75	C	1.186733	-0.704089	0.686528
H76	H	1.256881	-0.661084	0.661342
H77	H	1.129674	-0.709743	0.618178
H78	H	1.214895	-0.768173	0.711038
O79	O	1.094654	-0.506875	0.670572
C80	C	1.154649	-0.560651	0.614068
H81	H	1.121217	-0.565728	0.531637
H82	H	1.151777	-0.624845	0.656025
H83	H	1.239464	-0.534866	0.608850
O84	O	1.914432	-0.211615	1.119432
C85	C	1.969790	-0.155870	1.183728
H86	H	1.911910	-0.116525	1.224511
H87	H	2.026161	-0.113596	1.133467
H88	H	2.016063	-0.192410	1.245196
O89	O	1.775272	-0.316769	1.017821
C90	C	1.881642	-0.294075	0.996743
H91	H	1.902999	-0.231864	1.032009
H92	H	1.894874	-0.288315	0.908267
H93	H	1.933064	-0.343693	1.032908
O94	O	1.849829	-0.131762	1.292682
C95	C	1.798830	-0.098743	1.378082
H96	H	1.710524	-0.101463	1.363945
H97	H	1.828064	-0.031359	1.386183
H98	H	1.816662	-0.136706	1.453171
O99	O	1.646055	-0.157028	1.364297
C100	C	1.539698	-0.179750	1.385402
H101	H	1.500194	-0.201698	1.310834
H102	H	1.498634	-0.123756	1.413596
H103	H	1.534262	-0.232166	1.448840
H104	H	1.523194	-0.260103	1.257136
H105	H	1.364643	-0.498088	1.137969
O106	O	1.071144	-0.590953	0.945316
C107	C	1.022180	-0.514414	0.941924
H108	H	1.084531	-0.461276	0.943709
H109	H	0.967964	-0.512288	1.012631
H110	H	0.974452	-0.507787	0.866691
H111	H	1.215562	-0.492345	1.032977
O112	O	1.339471	-0.645841	0.700350
C113	C	1.422936	-0.696338	0.728875
H114	H	1.463185	-0.672033	0.801841
H115	H	1.481977	-0.694819	0.661682
H116	H	1.391141	-0.762993	0.746167
H117	H	0.899804	-0.304708	0.403953
H118	H	1.462354	-0.542673	0.807458
H119	H	0.868566	-0.713849	0.787517
H120	H	0.652651	-0.515460	0.838710
O121	O	0.698517	-0.671362	0.888187
C122	C	0.613752	-0.629229	0.927189
H123	H	0.632542	-0.559293	0.919427
H124	H	0.600161	-0.649039	1.013334
H125	H	0.540010	-0.645284	0.880345
H126	H	0.758353	-0.418600	0.710858
H127	H	1.117742	-0.089283	0.276005
O128	O	0.998172	-0.181597	0.411606
C129	C	0.983831	-0.098341	0.377808
H130	H	1.061719	-0.068098	0.348295
H131	H	0.954379	-0.062939	0.446169
H132	H	0.923802	-0.096661	0.311633
O133	O	1.287729	-0.131757	0.175301
C134	C	1.288069	-0.166358	0.075983
H135	H	1.271999	-0.236536	0.085689
H136	H	1.367934	-0.152462	0.037187
H137	H	1.224552	-0.138055	0.024762
O138	O	1.347504	-0.292170	0.217043
C139	C	1.317701	-0.360915	0.157639
H140	H	1.241250	-0.391632	0.190184
H141	H	1.381792	-0.407700	0.162401
H142	H	1.305960	-0.339005	0.072300
H143	H	1.227999	-0.384509	0.352764
