data_functionalizedCrystal
_audit_creation_method	'MofGen! by Chris Wilmer'
_symmetry_space_group_name_H-M	'P1'
_symmetry_Int_Tables_number	1
_symmetry_cell_setting	triclinic
loop_
_symmetry_equiv_pos_as_xyz
  x,y,z
_cell_length_a	16.992694
_cell_length_b	15.455438
_cell_length_c	16.974813
_cell_angle_alpha	96.320491
_cell_angle_beta	87.024634
_cell_angle_gamma	87.147035
loop_
_atom_site_label
_atom_site_type_symbol
_atom_site_fract_x
_atom_site_fract_y
_atom_site_fract_z
O1	O	1.036212	0.084052	0.171425
O2	O	1.536212	0.584052	0.671425
O3	O	0.807933	0.083948	0.169581
O4	O	1.307933	0.583948	0.669581
O5	O	0.928821	0.075919	0.055439
O6	O	1.428821	0.575919	0.555439
O7	O	0.915324	0.092082	0.285568
O8	O	1.415324	0.592082	0.785568
O9	O	0.935696	-0.068798	0.048933
O10	O	1.435696	0.431202	0.548933
O11	O	0.814808	-0.060769	0.163076
O12	O	1.314808	0.439231	0.663076
O13	O	1.043087	-0.060665	0.164920
O14	O	1.543087	0.439335	0.664920
Cu15	Cu	0.929575	-0.073930	0.163404
Cu16	Cu	1.429575	0.426070	0.663404
Cu17	Cu	0.921445	0.097214	0.171097
Cu18	Cu	1.421445	0.597214	0.671097
O19	O	0.922199	-0.052635	0.279062
O20	O	1.422199	0.447365	0.779062
C21	C	0.782169	0.011427	0.163955
C22	C	1.282169	0.511427	0.663955
C23	C	0.695155	0.010939	0.156874
C24	C	1.195155	0.510939	0.656874
C25	C	0.931873	0.001485	0.022604
C26	C	1.431873	0.501485	0.522604
C27	C	0.930715	-0.004700	-0.065543
C28	C	1.430715	0.495300	0.434457
C29	C	0.644613	0.015738	0.225205
C30	C	1.144613	0.515738	0.725205
C31	C	0.562856	0.015258	0.218545
C32	C	1.062856	0.515258	0.718545
C33	C	0.531643	0.009986	0.143554
C34	C	1.031643	0.509986	0.643554
C35	C	0.582192	0.005184	0.075218
C36	C	1.082192	0.505184	0.575218
C37	C	0.663947	0.005658	0.081878
C38	C	1.163947	0.505658	0.581878
C39	C	0.288168	0.008024	0.115951
C40	C	0.788168	0.508024	0.615951
C41	C	0.206407	0.007554	0.109296
C42	C	0.706407	0.507554	0.609296
C43	C	0.187077	0.017626	0.252625
C44	C	0.687077	0.517626	0.752625
C45	C	0.268834	0.018104	0.259278
C46	C	0.768834	0.518104	0.759278
C47	C	0.319376	0.013298	0.190942
C48	C	0.819376	0.513298	0.690942
N49	N	0.448075	0.009498	0.136745
N50	N	0.948075	0.509498	0.636745
N51	N	0.402943	0.013779	0.197751
N52	N	0.902943	0.513779	0.697751
C53	C	1.068851	0.011859	0.170546
C54	C	1.568851	0.511859	0.670546
C55	C	1.155864	0.012352	0.177628
C56	C	1.655864	0.512352	0.677628
N57	N	0.935300	-0.194304	0.157992
N58	N	1.435300	0.305696	0.657992
C59	C	0.883933	-0.236310	0.206464
C60	C	1.383933	0.263690	0.706464
C61	C	0.888285	-0.327404	0.202370
C62	C	1.388285	0.172596	0.702370
C63	C	0.944000	-0.376491	0.149800
C64	C	1.444000	0.123509	0.649800
C65	C	0.995372	-0.334479	0.101327
C66	C	1.495372	0.165521	0.601327
C67	C	0.991024	-0.243386	0.105425
C68	C	1.491024	0.256614	0.605425
C69	C	0.962750	-0.649308	0.132128
C70	C	1.462750	-0.149308	0.632128
C71	C	0.967093	-0.740407	0.128031
C72	C	1.467093	-0.240407	0.628031
C73	C	0.860006	-0.733325	0.229076
C74	C	1.360006	-0.233325	0.729076
C75	C	0.855660	-0.642231	0.233167
C76	C	1.355660	-0.142231	0.733167
C77	C	0.907034	-0.600227	0.184696
C78	C	1.407034	-0.100227	0.684696
N79	N	0.948448	-0.469604	0.145612
N80	N	1.448448	0.030396	0.645612
N81	N	0.902590	-0.507116	0.188889
N82	N	1.402590	-0.007116	0.688889
N83	N	0.915726	0.217587	0.176503
N84	N	1.415726	0.717587	0.676503
C85	C	0.926425	0.071279	-0.103403
C86	C	1.426425	0.571279	0.396597
C87	C	0.925332	0.065465	-0.186226
C88	C	1.425332	0.565465	0.313774
C89	C	0.928535	-0.016329	-0.231187
C90	C	1.428535	0.483671	0.268813
C91	C	0.932823	-0.092314	-0.193321
C92	C	1.432823	0.407686	0.306679
C93	C	0.933910	-0.086499	-0.110499
C94	C	1.433910	0.413501	0.389501
C95	C	0.925680	-0.042179	-0.479268
C96	C	1.425680	0.457821	0.020732
C97	C	0.924595	-0.047988	-0.562095
C98	C	1.424595	0.452012	-0.062095
C99	C	0.917102	0.109792	-0.554995
C100	C	1.417102	0.609792	-0.054995
C101	C	0.918195	0.115599	-0.472172
C102	C	1.418195	0.615599	0.027828
C103	C	0.922478	0.039615	-0.434313
C104	C	1.422478	0.539615	0.065687
N105	N	0.927420	-0.022274	-0.315846
N106	N	1.427420	0.477726	0.184154
N107	N	0.923587	0.045560	-0.349655
N108	N	1.423587	0.545560	0.150345
C109	C	0.919147	0.021801	0.311897
C110	C	1.419147	0.521801	0.811897
C111	C	0.920305	0.027991	0.400044
C112	C	1.420305	0.527991	0.900044
H113	H	0.670020	0.020031	0.286271
H114	H	1.170020	0.520031	0.786271
C115	C	0.922902	0.161253	-0.053953
C116	C	1.422902	0.661253	0.446047
H117	H	0.920183	0.205670	-0.088366
H118	H	1.420183	0.705670	0.411634
H119	H	0.968879	0.166577	-0.024648
H120	H	1.468879	0.666577	0.475352
H121	H	0.877454	0.167026	-0.018347
H122	H	1.377454	0.667026	0.481653
C123	C	0.831781	-0.373611	0.255684
C124	C	1.331781	0.126389	0.755684
H125	H	0.842355	-0.434892	0.245723
H126	H	1.342355	0.065108	0.745723
H127	H	0.778795	-0.359532	0.244391
H128	H	1.278795	0.140468	0.744391
H129	H	0.839346	-0.354923	0.309839
H130	H	1.339346	0.145077	0.809839
H131	H	0.921842	0.127335	-0.217048
H132	H	1.421842	0.627335	0.282952
H133	H	0.915588	0.182204	-0.435570
H134	H	1.415588	0.682204	0.064430
H135	H	0.935426	-0.158912	-0.229934
H136	H	1.435426	0.341088	0.270066
H137	H	0.810292	-0.602266	0.275973
H138	H	1.310292	-0.102266	0.775973
H139	H	0.294241	0.022407	0.320345
H140	H	0.794241	0.522407	0.820345
C141	C	0.172070	0.001747	0.026804
C142	C	0.672070	0.501747	0.526804
H143	H	0.116140	0.002163	0.032629
H144	H	0.616140	0.502163	0.532629
H145	H	0.191841	-0.050712	-0.003815
H146	H	0.691841	0.449288	0.496185
H147	H	0.187035	0.050225	0.000715
H148	H	0.687035	0.550225	0.500715
C149	C	0.507263	0.020539	0.293710
C150	C	1.007263	0.520539	0.793710
H151	H	0.537561	0.023758	0.339326
H152	H	1.037561	0.523758	0.839326
H153	H	0.477374	-0.029902	0.291828
H154	H	0.977374	0.470098	0.791828
H155	H	0.472563	0.071035	0.296357
H156	H	0.972563	0.571035	0.796357
H157	H	0.929184	-0.104051	-0.448454
H158	H	1.429184	0.395949	0.051546
H159	H	0.818180	-0.767533	0.268539
H160	H	1.318180	-0.267533	0.768539
C161	C	1.019252	-0.603115	0.078805
C162	C	1.519252	-0.103115	0.578805
H163	H	1.053048	-0.645399	0.046903
H164	H	1.553048	-0.145399	0.546903
H165	H	1.050061	-0.565425	0.111019
H166	H	1.550061	-0.065425	0.611019
H167	H	0.989502	-0.570031	0.045578
H168	H	1.489502	-0.070031	0.545578
C169	C	0.912380	0.193367	-0.596641
C170	C	1.412380	0.693367	-0.096641
H171	H	0.912184	0.178193	-0.652405
H172	H	1.412184	0.678193	-0.152405
H173	H	0.956726	0.226511	-0.584762
H174	H	1.456726	0.726511	-0.084762
H175	H	0.865301	0.226954	-0.578456
H176	H	1.365301	0.726954	-0.078456
C177	C	1.028380	-0.794402	0.070200
C178	C	1.528380	-0.294402	0.570200
H179	H	1.058358	-0.756340	0.041923
H180	H	1.558358	-0.256340	0.541923
H181	H	1.002023	-0.832381	0.033780
H182	H	1.502023	-0.332381	0.533780
H183	H	1.062577	-0.827787	0.099225
H184	H	1.562577	-0.327787	0.599225
H185	H	1.040740	-0.374451	0.058526
H186	H	1.540740	0.125549	0.558526
C187	C	0.938631	-0.170075	-0.068852
C188	C	1.438631	0.329925	0.431148
H189	H	0.940389	-0.219622	-0.107490
H190	H	1.440389	0.280378	0.392510
H191	H	0.893501	-0.170859	-0.033540
H192	H	1.393501	0.329141	0.466460
H193	H	0.984926	-0.171314	-0.039843
H194	H	1.484926	0.328686	0.460157
C195	C	0.131484	0.022908	0.327790
C196	C	0.631484	0.522908	0.827790
H197	H	0.161783	0.026122	0.373405
H198	H	0.661783	0.526122	0.873405
H199	H	0.101592	-0.027532	0.325907
H200	H	0.601592	0.472468	0.825907
H201	H	0.096787	0.073406	0.330439
H202	H	0.596787	0.573406	0.830439
C203	C	0.343754	0.002744	0.040784
C204	C	0.843754	0.502744	0.540784
H205	H	0.313452	-0.000455	-0.004829
H206	H	0.813452	0.499545	0.495171
H207	H	0.378452	-0.047748	0.038132
H208	H	0.878452	0.452252	0.538132
H209	H	0.373643	0.053190	0.042669
H210	H	0.873643	0.553190	0.542669
C211	C	0.547859	-0.000613	-0.007271
C212	C	1.047859	0.499387	0.492729
H213	H	0.491930	-0.000199	-0.001452
H214	H	0.991930	0.499801	0.498548
H215	H	0.567633	-0.053069	-0.037894
H216	H	1.067633	0.446931	0.462106
H217	H	0.562827	0.047869	-0.033353
H218	H	1.062827	0.547869	0.466647
H219	H	0.705099	0.001751	0.026235
H220	H	1.205099	0.501751	0.526235
H221	H	0.838561	-0.196349	0.249268
H222	H	1.338561	0.303651	0.749268
C223	C	0.928109	-0.137965	-0.611551
C224	C	1.428109	0.362035	-0.111551
H225	H	0.930807	-0.182386	-0.577141
H226	H	1.430807	0.317614	-0.077141
H227	H	0.973550	-0.143744	-0.647159
H228	H	1.473550	0.356256	-0.147159
H229	H	0.882124	-0.143275	-0.640854
H230	H	1.382124	0.356725	-0.140854
H231	H	1.032853	-0.209187	0.065956
H232	H	1.532853	0.290813	0.565956
