data_functionalizedCrystal
_audit_creation_method	'MofGen! by Chris Wilmer'
_symmetry_space_group_name_H-M	'P1'
_symmetry_Int_Tables_number	1
_symmetry_cell_setting	triclinic
loop_
_symmetry_equiv_pos_as_xyz
  x,y,z
_cell_length_a	18.215407
_cell_length_b	13.031981
_cell_length_c	18.215399
_cell_angle_alpha	97.211043
_cell_angle_beta	90.019833
_cell_angle_gamma	97.192004
loop_
_atom_site_label
_atom_site_type_symbol
_atom_site_fract_x
_atom_site_fract_y
_atom_site_fract_z
Zn1	Zn	1.087918	-0.416110	0.378877
Zn2	Zn	1.587918	0.083890	0.878877
Zn3	Zn	1.072220	-0.590902	0.240168
Zn4	Zn	1.572220	-0.090902	0.740168
Zn5	Zn	0.964848	-0.416144	0.255822
Zn6	Zn	1.464848	0.083856	0.755822
Zn7	Zn	0.949215	-0.590844	0.363199
Zn8	Zn	1.449215	-0.090844	0.863199
O9	O	1.018550	-0.503500	0.309516
O10	O	1.518550	-0.003500	0.809516
O11	O	1.188819	-0.439306	0.360488
O12	O	1.688819	0.060694	0.860488
O13	O	1.057949	-0.567758	0.139257
O14	O	1.557949	-0.067758	0.639257
O15	O	0.994285	-0.269876	0.285258
O16	O	1.494285	0.230124	0.785258
O17	O	1.177285	-0.567725	0.258579
O18	O	1.677285	-0.067725	0.758579
O19	O	1.084705	-0.269851	0.375666
O20	O	1.584705	0.230149	0.875666
O21	O	0.979063	-0.439364	0.150757
O22	O	1.479063	0.060636	0.650757
O23	O	0.859791	-0.439308	0.270055
O24	O	1.359791	0.060692	0.770055
O25	O	0.967642	-0.567626	0.468266
O26	O	1.467642	-0.067626	0.968266
O27	O	0.848305	-0.567659	0.348944
O28	O	1.348305	-0.067659	0.848944
O29	O	1.069546	-0.439250	0.479785
O30	O	1.569546	0.060750	0.979785
O31	O	1.042790	-0.737158	0.243376
O32	O	1.542790	-0.237158	0.743376
O33	O	0.952419	-0.737115	0.333766
O34	O	1.452419	-0.237115	0.833766
C35	C	0.827345	-0.503482	0.309497
C36	C	1.327345	-0.003482	0.809497
C37	C	0.745545	-0.503499	0.309504
C38	C	1.245545	-0.003499	0.809504
C39	C	0.551380	-0.570437	0.350513
C40	C	1.051380	-0.070437	0.850513
C41	C	0.474521	-0.570440	0.350522
C42	C	0.974521	-0.070440	0.850522
C43	C	0.486470	-0.436581	0.268534
C44	C	0.986470	0.063419	0.768534
C45	C	0.563328	-0.436574	0.268530
C46	C	1.063328	0.063426	0.768530
C47	C	0.595781	-0.503507	0.309518
C48	C	1.095781	-0.003507	0.809518
C49	C	0.442064	-0.503518	0.309531
C50	C	0.942064	-0.003518	0.809531
C51	C	0.358730	-0.503521	0.309540
C52	C	0.858730	-0.003521	0.809540
C53	C	0.679120	-0.503503	0.309510
C54	C	1.179120	-0.003503	0.809510
C55	C	0.994225	-0.775061	0.285187
C56	C	1.494225	-0.275061	0.785187
C57	C	0.983886	-0.891236	0.274803
C58	C	1.483886	-0.391236	0.774803
C59	C	1.023985	-0.942934	0.314950
C60	C	1.523985	-0.442934	0.814950
C61	C	1.013300	-1.063007	0.304219
C62	C	1.513300	-0.563007	0.804219
C63	C	1.210501	-0.503518	0.309536
C64	C	1.710501	-0.003518	0.809536
C65	C	1.292299	-0.503526	0.309545
C66	C	1.792299	-0.003526	0.809545
C67	C	1.018601	-0.503428	0.501476
C68	C	1.518601	-0.003428	1.001476
C69	C	1.018623	-0.503397	0.583278
C70	C	1.518623	-0.003397	1.083278
C71	C	1.042990	-0.230878	0.333957
C72	C	1.542990	0.269122	0.833957
C73	C	1.053405	-0.114703	0.344372
C74	C	1.553405	0.385297	0.844372
C75	C	1.018548	-0.503496	0.118311
C76	C	1.518548	-0.003496	0.618311
C77	C	1.018695	-0.503232	0.036536
C78	C	1.518695	-0.003232	0.536536
C79	C	1.071707	-0.436489	0.777476
C80	C	1.571707	0.063511	1.277476
C81	C	1.071719	-0.436458	0.854338
C82	C	1.571719	0.063542	1.354338
C83	C	0.965605	-0.570143	0.842331
C84	C	1.465605	-0.070143	1.342331
C85	C	0.965591	-0.570168	0.765472
C86	C	1.465591	-0.070168	1.265472
C87	C	1.018646	-0.503342	0.733046
C88	C	1.518646	-0.003342	1.233046
C89	C	1.018672	-0.503287	0.886767
C90	C	1.518672	-0.003287	1.386767
C91	C	1.018684	-0.503255	0.970104
C92	C	1.518684	-0.003255	1.470104
C93	C	1.018634	-0.503373	0.649704
C94	C	1.518634	-0.003373	1.149704
H95	H	0.438374	-0.624939	0.383906
H96	H	0.938374	-0.124939	0.883906
H97	H	0.922411	-0.624553	0.868741
H98	H	1.422411	-0.124553	1.368741
H99	H	0.577801	-0.624936	0.383890
H100	H	1.077801	-0.124936	0.883890
H101	H	0.941642	-0.935868	0.232491
H102	H	1.441642	-0.435868	0.732491
C103	C	1.110475	-1.054430	0.401542
C104	C	1.610475	-0.554430	0.901542
H105	H	1.134243	-1.102438	0.425340
H106	H	1.634243	-0.602438	0.925340
H107	H	1.146320	-1.011828	0.377201
H108	H	1.646320	-0.511828	0.877201
H109	H	1.086062	-1.011851	0.437364
H110	H	1.586062	-0.511851	0.937364
H111	H	1.066223	-0.898304	0.357269
H112	H	1.566223	-0.398304	0.857269
H113	H	1.114907	-0.382072	0.751078
H114	H	1.614907	0.117928	1.251078
H115	H	0.460037	-0.382088	0.235162
H116	H	0.960037	0.117912	0.735162
C117	C	0.612171	-0.362949	0.223432
C118	C	1.112171	0.137051	0.723432
H119	H	0.581836	-0.323097	0.199013
H120	H	1.081836	0.176903	0.699013
H121	H	0.646239	-0.317457	0.255709
H122	H	1.146239	0.182543	0.755709
H123	H	0.638564	-0.402880	0.187741
H124	H	1.138564	0.097120	0.687741
C125	C	1.130089	-0.362925	0.903208
C126	C	1.630089	0.137075	1.403208
H127	H	1.161686	-0.323138	0.872885
H128	H	1.661686	0.176862	1.372885
H129	H	1.106028	-0.317369	0.937270
H130	H	1.606028	0.182631	1.437270
H131	H	1.158577	-0.402908	0.929610
H132	H	1.658577	0.097092	1.429610
H133	H	0.971053	-1.107636	0.261904
H134	H	1.471053	-0.607636	0.761904
H135	H	0.922377	-0.624607	0.729295
H136	H	1.422377	-0.124607	1.229295
