data_functionalizedCrystal
_audit_creation_method	'MofGen! by Chris Wilmer'
_symmetry_space_group_name_H-M	'P1'
_symmetry_Int_Tables_number	1
_symmetry_cell_setting	triclinic
loop_
_symmetry_equiv_pos_as_xyz
  x,y,z
_cell_length_a	12.759401
_cell_length_b	13.897448
_cell_length_c	12.759393
_cell_angle_alpha	89.967771
_cell_angle_beta	89.981708
_cell_angle_gamma	90.017853
loop_
_atom_site_label
_atom_site_type_symbol
_atom_site_fract_x
_atom_site_fract_y
_atom_site_fract_z
Zn1	Zn	1.606231	-0.383965	-0.593968
Zn2	Zn	2.106231	0.116035	-0.093968
Zn3	Zn	1.606117	-0.545291	-0.418283
Zn4	Zn	2.106117	-0.045291	0.081717
Zn5	Zn	1.430534	-0.384012	-0.418308
Zn6	Zn	1.930534	0.115988	0.081692
Zn7	Zn	1.430513	-0.545220	-0.593924
Zn8	Zn	1.930513	-0.045220	-0.093924
O9	O	1.518349	-0.464622	-0.506121
O10	O	2.018349	0.035378	-0.006121
O11	O	1.753237	-0.405375	-0.570671
O12	O	2.253237	0.094625	-0.070671
O13	O	1.582787	-0.523946	-0.271265
O14	O	2.082787	-0.023946	0.228735
O15	O	1.453897	-0.249024	-0.441638
O16	O	1.953897	0.250976	0.058362
O17	O	1.753153	-0.523900	-0.441596
O18	O	2.253153	-0.023900	0.058404
O19	O	1.582981	-0.248989	-0.570695
O20	O	2.082981	0.251011	-0.070695
O21	O	1.453787	-0.405455	-0.271283
O22	O	1.953787	0.094545	0.228717
O23	O	1.283510	-0.405386	-0.441596
O24	O	1.783510	0.094614	0.058404
O25	O	1.453861	-0.523779	-0.740951
O26	O	1.953861	-0.023779	-0.240951
O27	O	1.283495	-0.523825	-0.570621
O28	O	1.783495	-0.023825	-0.070621
O29	O	1.582961	-0.405306	-0.740984
O30	O	2.082961	0.094694	-0.240984
O31	O	1.582766	-0.680263	-0.441554
O32	O	2.082766	-0.180263	0.058446
O33	O	1.453750	-0.680211	-0.570597
O34	O	1.953750	-0.180211	-0.070597
C35	C	1.245382	-0.464604	-0.506107
C36	C	1.745382	0.035396	-0.006107
C37	C	1.128605	-0.464620	-0.506125
C38	C	1.628605	0.035380	-0.006125
C39	C	1.073762	-0.526389	-0.573198
C40	C	1.573762	-0.026389	-0.073198
C41	C	0.964038	-0.526402	-0.573209
C42	C	1.464038	-0.026402	-0.073209
C43	C	0.964009	-0.402872	-0.439067
C44	C	1.464009	0.097128	0.060933
C45	C	1.073731	-0.402855	-0.439062
C46	C	1.573731	0.097145	0.060938
C47	C	1.073778	-0.597711	-0.650640
C48	C	1.573778	-0.097711	-0.150640
C49	C	0.964054	-0.597724	-0.650652
C50	C	1.464054	-0.097724	-0.150652
C51	C	1.518272	-0.715236	-0.506090
C52	C	2.018272	-0.215236	-0.006090
C53	C	1.518336	-0.822450	-0.506113
C54	C	2.018336	-0.322450	-0.006113
C55	C	1.518446	-1.018745	-0.506178
C56	C	2.018446	-0.518745	-0.006178
C57	C	1.518382	-0.909513	-0.506145
C58	C	2.018382	-0.409513	-0.006145
C59	C	1.792382	-0.464640	-0.506136
C60	C	2.292382	0.035360	-0.006136
C61	C	1.909159	-0.464648	-0.506142
C62	C	2.409159	0.035352	-0.006142
C63	C	1.518421	-0.464529	-0.780154
C64	C	2.018421	0.035471	-0.280154
C65	C	1.518452	-0.464490	-0.896931
C66	C	2.018452	0.035510	-0.396931
C67	C	1.518454	-0.213029	-0.506174
C68	C	2.018454	0.286971	-0.006174
C69	C	1.518499	-0.105815	-0.506197
C70	C	2.018499	0.394185	-0.006197
C71	C	1.585626	-0.526165	-0.951781
C72	C	2.085626	-0.026165	-0.451781
C73	C	1.585658	-0.526124	-1.061505
C74	C	2.085658	-0.026124	-0.561505
C75	C	1.451333	-0.402730	-1.061520
C76	C	1.951333	0.097270	-0.561520
C77	C	1.451307	-0.402767	-0.951798
C78	C	1.951307	0.097233	-0.451798
C79	C	1.663174	-0.597408	-0.951774
C80	C	2.163174	-0.097408	-0.451774
C81	C	1.663206	-0.597367	-1.061498
C82	C	2.163206	-0.097367	-0.561498
C83	C	1.518337	-0.464644	-0.233154
C84	C	2.018337	0.035356	0.266846
C85	C	1.518510	-0.464412	-0.116377
C86	C	2.018510	0.035588	0.383623
H87	H	0.919317	-0.352584	-0.384467
H88	H	1.419317	0.147416	0.115533
F89	F	1.112746	-0.571675	-0.757043
F90	F	1.612746	-0.071675	-0.257043
F91	F	1.764276	-0.562417	-1.105998
F92	F	2.264276	-0.062417	-0.605998
F93	F	1.118237	-0.690442	-0.612439
F94	F	1.618237	-0.190442	-0.112439
H95	H	0.930058	-0.571059	-0.728004
H96	H	1.430058	-0.071059	-0.228004
F97	F	1.634682	-0.694994	-1.100404
F98	F	2.134682	-0.194994	-0.600404
F99	F	1.132095	-0.337097	-0.367691
F100	F	1.632095	0.162903	0.132309
H101	H	0.934254	-0.672411	-0.628717
H102	H	1.434254	-0.172411	-0.128717
H103	H	1.744546	-0.577418	-0.922009
H104	H	2.244546	-0.077418	-0.422009
F105	F	1.379826	-0.337113	-0.893426
F106	F	1.879826	0.162887	-0.393426
H107	H	1.396667	-0.352477	-1.106205
H108	H	1.896667	0.147523	-0.606205
H109	H	1.633999	-0.668384	-0.917723
H110	H	2.133999	-0.168384	-0.417723
