data_functionalizedCrystal
_audit_creation_method	'MofGen! by Chris Wilmer'
_symmetry_space_group_name_H-M	'P1'
_symmetry_Int_Tables_number	1
_symmetry_cell_setting	triclinic
loop_
_symmetry_equiv_pos_as_xyz
  x,y,z
_cell_length_a	10.686220
_cell_length_b	17.640280
_cell_length_c	10.685880
_cell_angle_alpha	82.229567
_cell_angle_beta	89.641569
_cell_angle_gamma	83.981976
loop_
_atom_site_label
_atom_site_type_symbol
_atom_site_fract_x
_atom_site_fract_y
_atom_site_fract_z
Zn1	Zn	2.043182	-0.239353	-0.479763
Zn2	Zn	2.062296	-0.358586	-0.228859
Zn3	Zn	1.817774	-0.240915	-0.285546
Zn4	Zn	1.874489	-0.378075	-0.447904
O5	O	1.949435	-0.304232	-0.360518
O6	O	2.218649	-0.246359	-0.436089
O7	O	2.014124	-0.335474	-0.063427
O8	O	1.815940	-0.133407	-0.348367
O9	O	2.232692	-0.333959	-0.251751
O10	O	1.981546	-0.132259	-0.491057
O11	O	1.834475	-0.249022	-0.105075
O12	O	1.652366	-0.267920	-0.317474
O13	O	1.912602	-0.367176	-0.625082
O14	O	1.694033	-0.368691	-0.436758
O15	O	2.036540	-0.265257	-0.648489
O16	O	2.069117	-0.468472	-0.220859
O17	O	1.931136	-0.482791	-0.381790
C18	C	1.628360	-0.320591	-0.379811
C19	C	1.491011	-0.327609	-0.388087
C20	C	2.008391	-0.503453	-0.291741
C21	C	2.033730	-0.588677	-0.262352
C22	C	1.757489	-0.906377	-0.584199
C23	C	1.781298	-0.986455	-0.556545
C24	C	1.925090	-0.971482	-0.389121
C25	C	1.901299	-0.891400	-0.416765
C26	C	1.817496	-0.858854	-0.514305
C27	C	1.961305	-0.843877	-0.346871
C28	C	1.937510	-0.763803	-0.374509
C29	C	1.853709	-0.731251	-0.472042
C30	C	1.793701	-0.778780	-0.541944
C31	C	2.045101	-0.876425	-0.249326
C32	C	2.105107	-0.828902	-0.179431
C33	C	2.081320	-0.748826	-0.207075
C34	C	1.997518	-0.716274	-0.304608
C35	C	2.141327	-0.701297	-0.137174
C36	C	2.117532	-0.621223	-0.164812
C37	C	1.973723	-0.636199	-0.332247
C38	C	2.271764	-0.287810	-0.341151
C39	C	2.409121	-0.280812	-0.332897
C40	C	1.978765	-0.318216	-0.682884
C41	C	1.991264	-0.324175	-0.820257
C42	C	1.890285	-0.104233	-0.429589
C43	C	1.865079	-0.019005	-0.459023
C44	C	1.920274	-0.290244	-0.039421
C45	C	1.907951	-0.284057	0.097891
H46	H	1.456041	-0.373049	-0.441665
O47	O	1.722945	-1.032508	-0.624613
C48	C	1.643856	-0.986608	-0.716606
H49	H	1.677891	-0.927109	-0.737593
H50	H	1.646328	-1.014637	-0.806787
H51	H	1.543398	-0.980961	-0.679828
O52	O	2.087932	-0.370543	-0.861889
C53	C	2.203308	-0.346146	-0.828832
H54	H	2.188709	-0.312517	-0.745083
H55	H	2.274702	-0.398477	-0.802092
H56	H	2.239808	-0.307718	-0.912588
O57	O	1.450988	-0.226704	-0.268870
C58	C	1.531254	-0.263046	-0.169421
H59	H	1.571649	-0.322110	-0.191637
H60	H	1.611330	-0.226497	-0.158323
H61	H	1.475692	-0.269918	-0.077888
O62	O	1.811331	-0.237630	-0.860552
C63	C	1.736399	-0.201510	-0.964236
H64	H	1.749694	-0.237080	-1.045720
H65	H	1.633249	-0.196689	-0.935517
H66	H	1.765661	-0.141555	-0.995311
H67	H	1.905492	-0.609700	-0.411682
O68	O	1.712411	-0.747242	-0.636845
C69	C	1.756366	-0.770734	-0.751690
H70	H	1.821361	-0.826546	-0.731376
H71	H	1.673002	-0.780449	-0.811459
H72	H	1.810275	-0.724204	-0.805102
H73	H	1.834327	-0.666049	-0.494535
O74	O	2.068451	-0.954198	-0.222464
C75	C	2.197688	-0.976228	-0.237996
H76	H	2.253238	-0.925503	-0.228600
H77	H	2.230549	-1.026252	-0.162452
H78	H	2.213782	-0.994744	-0.335494
H79	H	2.173335	-0.855412	-0.100011
O80	O	1.675989	-0.874670	-0.678821
C81	C	1.576050	-0.829426	-0.629157
H82	H	1.607614	-0.811131	-0.537048
H83	H	1.547301	-0.776149	-0.699920
H84	H	1.492423	-0.864408	-0.610345
O85	O	2.006482	-1.003226	-0.294438
C86	C	2.014582	-1.084093	-0.284997
H87	H	1.985975	-1.101246	-0.379004
H88	H	2.115420	-1.109407	-0.260615
H89	H	1.948903	-1.107017	-0.207738
H90	H	2.209549	-0.727809	-0.057749
H91	H	2.166395	-0.582529	-0.107896
