data_functionalizedCrystal
_audit_creation_method	'MofGen! by Chris Wilmer'
_symmetry_space_group_name_H-M	'P1'
_symmetry_Int_Tables_number	1
_symmetry_cell_setting	triclinic
loop_
_symmetry_equiv_pos_as_xyz
  x,y,z
_cell_length_a	12.759401
_cell_length_b	12.759400
_cell_length_c	12.759393
_cell_angle_alpha	89.969548
_cell_angle_beta	90.021157
_cell_angle_gamma	89.989825
loop_
_atom_site_label
_atom_site_type_symbol
_atom_site_fract_x
_atom_site_fract_y
_atom_site_fract_z
Zn1	Zn	-1.606267	-0.418339	-0.594027
Zn2	Zn	-1.272934	-0.085005	-0.260693
Zn3	Zn	-0.939601	0.248328	0.072640
Zn4	Zn	-1.606159	-0.594054	-0.418347
Zn5	Zn	-1.272825	-0.260721	-0.085013
Zn6	Zn	-0.939492	0.072612	0.248320
Zn7	Zn	-1.430566	-0.418376	-0.418361
Zn8	Zn	-1.097233	-0.085043	-0.085028
Zn9	Zn	-0.763899	0.248290	0.248306
Zn10	Zn	-1.430558	-0.593963	-0.593983
Zn11	Zn	-1.097225	-0.260629	-0.260650
Zn12	Zn	-0.763892	0.072704	0.072683
O13	O	-1.518388	-0.506183	-0.506179
O14	O	-1.185054	-0.172850	-0.172846
O15	O	-0.851721	0.160484	0.160487
O16	O	-1.753274	-0.441670	-0.570734
O17	O	-1.419941	-0.108337	-0.237401
O18	O	-1.086607	0.224996	0.095932
O19	O	-1.582824	-0.570804	-0.271328
O20	O	-1.249490	-0.237471	0.062006
O21	O	-0.916157	0.095862	0.395339
O22	O	-1.453922	-0.271350	-0.441687
O23	O	-1.120588	0.061983	-0.108354
O24	O	-0.787255	0.395316	0.224979
O25	O	-1.753194	-0.570768	-0.441663
O26	O	-1.419861	-0.237434	-0.108330
O27	O	-1.086528	0.095899	0.225003
O28	O	-1.583009	-0.271323	-0.570748
O29	O	-1.249675	0.062011	-0.237415
O30	O	-0.916342	0.395344	0.095919
O31	O	-1.453817	-0.441735	-0.271338
O32	O	-1.120483	-0.108401	0.061995
O33	O	-0.787150	0.224932	0.395329
O34	O	-1.283544	-0.441646	-0.441646
O35	O	-0.950211	-0.108313	-0.108312
O36	O	-0.616877	0.225021	0.225021
O37	O	-1.453909	-0.570612	-0.741010
O38	O	-1.120575	-0.237278	-0.407677
O39	O	-0.787242	0.096055	-0.074343
O40	O	-1.283538	-0.570648	-0.570675
O41	O	-0.950205	-0.237315	-0.237341
O42	O	-0.616872	0.096018	0.095992
O43	O	-1.583001	-0.441582	-0.741042
O44	O	-1.249668	-0.108248	-0.407709
O45	O	-0.916335	0.225085	-0.074375
O46	O	-1.582816	-0.741063	-0.441621
O47	O	-1.249483	-0.407730	-0.108288
O48	O	-0.916150	-0.074397	0.225045
O49	O	-1.453803	-0.740996	-0.570661
O50	O	-1.120470	-0.407663	-0.237327
O51	O	-0.787137	-0.074329	0.096006
C52	C	-1.245420	-0.506142	-0.506158
C53	C	-0.912087	-0.172809	-0.172824
C54	C	-0.578754	0.160525	0.160509
C55	C	-1.128644	-0.506150	-0.506173
C56	C	-0.795310	-0.172816	-0.172840
C57	C	-0.461977	0.160517	0.160494
C58	C	-1.518326	-0.779150	-0.506158
C59	C	-1.184992	-0.445817	-0.172824
C60	C	-0.851659	-0.112484	0.160509
C61	C	-1.518395	-0.895927	-0.506183
C62	C	-1.185062	-0.562594	-0.172850
C63	C	-0.851729	-0.229260	0.160483
C64	C	-0.964087	-0.439064	-0.573488
C65	C	-0.630753	-0.105731	-0.240154
C66	C	-0.297420	0.227602	0.093179
C67	C	-1.073811	-0.439051	-0.573483
C68	C	-0.740477	-0.105717	-0.240150
C69	C	-0.407144	0.227616	0.093184
C70	C	-1.073747	-0.573275	-0.438871
C71	C	-0.740413	-0.239941	-0.105537
C72	C	-0.407080	0.093392	0.227796
C73	C	-0.964025	-0.573293	-0.438881
C74	C	-0.630691	-0.239960	-0.105548
C75	C	-0.297358	0.093373	0.227786
C76	C	-0.792421	-0.506210	-0.506196
C77	C	-0.459087	-0.172876	-0.172863
C78	C	-0.125754	0.160457	0.160471
C79	C	-0.909197	-0.506182	-0.506188
C80	C	-0.575864	-0.172849	-0.172855
C81	C	-0.242531	0.160485	0.160479
C82	C	-1.585711	-1.060520	-0.439101
C83	C	-1.252378	-0.727187	-0.105767
C84	C	-0.919044	-0.393854	0.227566
C85	C	-1.585648	-0.950796	-0.439068
C86	C	-1.252315	-0.617463	-0.105734
C87	C	-0.918981	-0.284130	0.227599
C88	C	-1.451194	-0.950788	-0.573329
C89	C	-1.117860	-0.617454	-0.239996
C90	C	-0.784527	-0.284121	0.093337
C91	C	-1.451252	-1.060510	-0.573356
C92	C	-1.117919	-0.727176	-0.240023
C93	C	-0.784586	-0.393843	0.093311
C94	C	-1.518466	-0.506082	-0.780213
C95	C	-1.185133	-0.172749	-0.446880
C96	C	-0.851800	0.160584	-0.113546
C97	C	-1.518500	-0.506039	-0.896990
C98	C	-1.185166	-0.172706	-0.563656
C99	C	-0.851833	0.160627	-0.230323
C100	C	-1.518478	-0.232150	-0.506224
C101	C	-1.185145	0.101184	-0.172891
C102	C	-0.851812	0.434517	0.160442
C103	C	-1.518517	-0.115373	-0.506243
C104	C	-1.185184	0.217960	-0.172910
C105	C	-0.851850	0.551294	0.160423
C106	C	-1.585723	-0.438842	-0.951870
C107	C	-1.252390	-0.105509	-0.618536
C108	C	-0.919057	0.227824	-0.285203
C109	C	-1.585741	-0.438797	-1.061594
C110	C	-1.252408	-0.105464	-0.728261
C111	C	-0.919074	0.227869	-0.394927
C112	C	-1.451309	-0.573154	-1.061548
C113	C	-1.117975	-0.239821	-0.728215
C114	C	-0.784642	0.093512	-0.394881
C115	C	-1.451287	-0.573194	-0.951826
C116	C	-1.117953	-0.239860	-0.618493
C117	C	-0.784620	0.093473	-0.285159
C118	C	-1.518370	-0.506208	-0.233212
C119	C	-1.185036	-0.172874	0.100121
C120	C	-0.851703	0.160459	0.433455
C121	C	-1.518540	-0.505955	-0.116436
C122	C	-1.185206	-0.172621	0.216897
C123	C	-0.851873	0.160712	0.550231
H124	H	-0.919450	-0.384418	-0.628293
H125	H	-0.586116	-0.051085	-0.294960
H126	H	-0.252783	0.282249	0.038374
H127	H	-1.396589	-0.627832	-1.106209
H128	H	-1.063255	-0.294498	-0.772876
H129	H	-0.729922	0.038835	-0.439542
H130	H	-1.396530	-1.105172	-0.628034
H131	H	-1.063197	-0.771839	-0.294701
H132	H	-0.729863	-0.438505	0.038633
H133	H	-1.118400	-0.627912	-0.384070
H134	H	-0.785067	-0.294579	-0.050736
H135	H	-0.451734	0.038754	0.282597
H136	H	-1.640362	-0.906138	-0.384393
H137	H	-1.307029	-0.572805	-0.051059
H138	H	-0.973696	-0.239471	0.282274
H139	H	-1.118497	-0.384398	-0.628286
H140	H	-0.785163	-0.051064	-0.294953
H141	H	-0.451830	0.282269	0.038381
H142	H	-1.640479	-0.384077	-1.106273
H143	H	-1.307146	-0.050744	-0.772939
H144	H	-0.973813	0.282590	-0.439606
H145	H	-1.640450	-0.384158	-0.907225
H146	H	-1.307116	-0.050825	-0.573892
H147	H	-0.973783	0.282509	-0.240559
H148	H	-1.396538	-0.627913	-0.907141
H149	H	-1.063204	-0.294579	-0.573808
H150	H	-0.729871	0.038754	-0.240475
H151	H	-0.919333	-0.627954	-0.384077
H152	H	-0.585999	-0.294621	-0.050744
H153	H	-0.252666	0.038712	0.282590
H154	H	-1.640482	-1.105187	-0.384452
H155	H	-1.307148	-0.771853	-0.051119
H156	H	-0.973815	-0.438520	0.282214
H157	H	-1.396430	-0.906107	-0.627973
H158	H	-1.063097	-0.572773	-0.294639
H159	H	-0.729763	-0.239440	0.038694
