data_functionalizedCrystal
_audit_creation_method	'MofGen! by Chris Wilmer'
_symmetry_space_group_name_H-M	'P1'
_symmetry_Int_Tables_number	1
_symmetry_cell_setting	triclinic
loop_
_symmetry_equiv_pos_as_xyz
  x,y,z
_cell_length_a	12.827893
_cell_length_b	8.497374
_cell_length_c	12.827885
_cell_angle_alpha	90.022740
_cell_angle_beta	89.978811
_cell_angle_gamma	90.006568
loop_
_atom_site_label
_atom_site_type_symbol
_atom_site_fract_x
_atom_site_fract_y
_atom_site_fract_z
Zn1	Zn	-1.597815	-0.628063	0.590953
Zn2	Zn	-1.597770	-0.891912	0.416235
Zn3	Zn	-1.423056	-0.628131	0.416221
Zn4	Zn	-1.423102	-0.891786	0.590929
O5	O	-1.510436	-0.759973	0.503585
O6	O	-1.744045	-0.663088	0.567793
O7	O	-1.574555	-0.857002	0.269997
O8	O	-1.446238	-0.407359	0.439404
O9	O	-1.744012	-0.856936	0.439428
O10	O	-1.574632	-0.407310	0.567779
O11	O	-1.446194	-0.663203	0.269987
O12	O	-1.276826	-0.663081	0.439381
O13	O	-1.446316	-0.856721	0.737169
O14	O	-1.276860	-0.856787	0.567738
O15	O	-1.574677	-0.662965	0.737186
O16	O	-1.574600	-1.112658	0.439404
O17	O	-1.446273	-1.112565	0.567751
C18	C	-1.238926	-0.759928	0.503556
C19	C	-1.122773	-0.759947	0.503568
C20	C	-1.071032	-0.855947	0.566984
C21	C	-0.950982	-0.855968	0.566998
C22	C	-0.783006	-0.760006	0.503606
C23	C	-0.899159	-0.759987	0.503594
C24	C	-1.510427	-0.348493	0.503590
C25	C	-1.510427	-0.169848	0.503593
C26	C	-1.510507	-0.759821	0.776155
C27	C	-1.510537	-0.759757	0.892308
C28	C	-1.510425	-0.760010	0.232075
C29	C	-1.510597	-0.759630	0.115922
C30	C	-1.574061	-0.663861	0.944102
C31	C	-1.574094	-0.663792	1.064152
H32	H	-1.115612	-0.938113	0.621269
H33	H	-1.456213	-0.841740	1.071388
H34	H	-1.628418	-0.581807	0.899567
H35	H	-0.906486	-0.938161	0.621287
N36	N	-0.958071	-0.651102	0.431665
H37	H	-1.003343	-0.715176	0.383204
H38	H	-1.003306	-0.578141	0.474318
H39	H	-1.078193	-0.677769	0.449291
H40	H	-1.628482	-0.581698	1.108693
N41	N	-1.438519	-0.868422	0.951298
H42	H	-1.481036	-0.941448	0.996592
H43	H	-1.396129	-0.932324	0.900182
