data_functionalizedCrystal
_audit_creation_method	'MofGen! by Chris Wilmer'
_symmetry_space_group_name_H-M	'P1'
_symmetry_Int_Tables_number	1
_symmetry_cell_setting	triclinic
loop_
_symmetry_equiv_pos_as_xyz
  x,y,z
_cell_length_a	18.050583
_cell_length_b	12.827893
_cell_length_c	12.827892
_cell_angle_alpha	89.984638
_cell_angle_beta	89.971674
_cell_angle_gamma	90.016239
loop_
_atom_site_label
_atom_site_type_symbol
_atom_site_fract_x
_atom_site_fract_y
_atom_site_fract_z
Zn1	Zn	-0.419894	-1.597638	-0.415998
Zn2	Zn	-0.295713	-1.597542	-0.590771
Zn3	Zn	-0.295723	-1.422889	-0.416045
Zn4	Zn	-0.419866	-1.422865	-0.590698
O5	O	-0.357799	-1.510233	-0.503378
O6	O	-0.403429	-1.743862	-0.439194
O7	O	-0.191790	-1.574343	-0.567643
O8	O	-0.312210	-1.446120	-0.269803
O9	O	-0.312194	-1.743791	-0.567598
O10	O	-0.403439	-1.574508	-0.269768
O11	O	-0.191797	-1.446027	-0.439273
O12	O	-0.312183	-1.276650	-0.439202
O13	O	-0.523795	-1.446079	-0.567474
O14	O	-0.403390	-1.276632	-0.567519
O15	O	-0.523815	-1.574485	-0.439122
O16	O	-0.312167	-1.574320	-0.736998
O17	O	-0.403381	-1.445986	-0.736944
C18	C	-0.357786	-1.510168	-0.774888
C19	C	-0.357805	-1.510236	-0.891041
C20	C	-0.357785	-1.238724	-0.503358
C21	C	-0.357797	-1.122570	-0.503374
C22	C	-0.551505	-1.510290	-0.503285
C23	C	-0.634051	-1.510314	-0.503245
C24	C	-0.882888	-1.580206	-0.433377
C25	C	-0.833478	-1.605728	-0.528729
C26	C	-0.931171	-1.510382	-0.503178
C27	C	-0.833499	-1.484876	-0.407865
C28	C	-0.785186	-1.510351	-0.503206
C29	C	-0.882849	-1.535953	-0.598581
C30	C	-0.882874	-1.415057	-0.477652
C31	C	-0.833487	-1.440542	-0.573070
C32	C	-1.015270	-1.510402	-0.503161
C33	C	-0.701089	-1.510331	-0.503234
C34	C	-0.164847	-1.510237	-0.503396
C35	C	-0.082302	-1.510415	-0.503141
C36	C	-0.357814	-1.782804	-0.503399
C37	C	-0.357820	-1.898957	-0.503408
C38	C	-0.402859	-1.070805	-0.566969
C39	C	-0.402872	-0.950754	-0.566987
C40	C	-0.312720	-1.573815	-0.942818
C41	C	-0.312738	-1.573886	-1.062868
C42	C	-0.357829	-1.510328	-0.230808
C43	C	-0.357841	-1.510368	-0.114655
H44	H	-0.904578	-1.639313	-0.374410
H45	H	-0.396440	-1.455928	-1.070136
N46	N	-0.806306	-1.457799	-0.306740
N47	N	-0.766700	-1.378677	-0.295331
H48	H	-0.747497	-1.359558	-0.223910
H49	H	-0.904436	-1.557628	-0.679215
H50	H	-0.319229	-1.078012	-0.448938
N51	N	-0.451284	-0.894915	-0.635278
N52	N	-0.519826	-0.907062	-0.628468
H53	H	-0.554019	-0.867624	-0.676699
N54	N	-0.264291	-1.642045	-0.886927
N55	N	-0.264349	-1.641898	-0.789485
H56	H	-0.230147	-1.690090	-0.750012
H57	H	-0.274137	-1.628316	-1.107395
N58	N	-0.406238	-1.442011	-0.946933
N59	N	-0.380034	-1.375538	-1.007945
H60	H	-0.414239	-1.327352	-1.047418
N61	N	-0.806253	-1.706842	-0.555818
N62	N	-0.765770	-1.755621	-0.493634
H63	H	-0.746545	-1.827037	-0.512757
N64	N	-0.806454	-1.366453	-0.647226
N65	N	-0.822415	-1.375992	-0.741550
H66	H	-0.803323	-1.323670	-0.793926
H67	H	-0.904589	-1.334480	-0.456014
N68	N	-0.451239	-1.126710	-0.635256
N69	N	-0.424982	-1.187616	-0.701733
H70	H	-0.459150	-1.227100	-0.749963
N71	N	-0.309428	-0.954805	-0.435099
N72	N	-0.335673	-1.015757	-0.368602
H73	H	-0.301497	-1.055209	-0.320358
