data_functionalizedCrystal
_audit_creation_method	'MofGen! by Chris Wilmer'
_symmetry_space_group_name_H-M	'P1'
_symmetry_Int_Tables_number	1
_symmetry_cell_setting	triclinic
loop_
_symmetry_equiv_pos_as_xyz
  x,y,z
_cell_length_a	19.288864
_cell_length_b	19.188930
_cell_length_c	17.766277
_cell_angle_alpha	89.988508
_cell_angle_beta	89.976791
_cell_angle_gamma	83.140512
loop_
_atom_site_label
_atom_site_type_symbol
_atom_site_fract_x
_atom_site_fract_y
_atom_site_fract_z
O1	O	0.921360	0.087099	-0.062844
O2	O	1.254693	0.420433	0.270489
O3	O	1.588026	0.753766	0.603823
O4	O	0.719100	0.098849	-0.062794
O5	O	1.052433	0.432182	0.270540
O6	O	1.385766	0.765515	0.603873
O7	O	0.826066	-0.008682	-0.062806
O8	O	1.159400	0.324651	0.270528
O9	O	1.492733	0.657985	0.603861
O10	O	0.814393	0.194630	-0.062832
O11	O	1.147726	0.527963	0.270501
O12	O	1.481060	0.861297	0.603835
O13	O	0.826048	-0.008688	0.062383
O14	O	1.159381	0.324646	0.395716
O15	O	1.492714	0.657979	0.729050
O16	O	0.719081	0.098843	0.062395
O17	O	1.052414	0.432177	0.395728
O18	O	1.385748	0.765510	0.729062
O19	O	0.921341	0.087094	0.062345
O20	O	1.254674	0.420427	0.395678
O21	O	1.588008	0.753760	0.729011
Cu22	Cu	0.820209	0.092968	0.073800
Cu23	Cu	1.153543	0.426301	0.407134
Cu24	Cu	1.486876	0.759635	0.740467
Cu25	Cu	0.820231	0.092974	-0.074250
Cu26	Cu	1.153565	0.426308	0.259084
Cu27	Cu	1.486898	0.759641	0.592417
O28	O	0.814374	0.194625	0.062356
O29	O	1.147708	0.527958	0.395690
O30	O	1.481041	0.861291	0.729023
C31	C	0.693214	0.098468	-0.000193
C32	C	1.026547	0.431801	0.333141
C33	C	1.359881	0.765135	0.666474
C34	C	0.616110	0.097333	-0.000173
C35	C	0.949444	0.430666	0.333160
C36	C	1.282777	0.764000	0.666494
C37	C	0.571419	0.160427	-0.000193
C38	C	0.904752	0.493761	0.333140
C39	C	1.238085	0.827094	0.666474
C40	C	0.498972	0.159361	-0.000201
C41	C	0.832305	0.492694	0.333132
C42	C	1.165638	0.826028	0.666466
C43	C	0.471219	0.095197	-0.000204
C44	C	0.804553	0.428530	0.333129
C45	C	1.137886	0.761864	0.666462
C46	C	0.515921	0.032095	-0.000180
C47	C	0.849254	0.365428	0.333153
C48	C	1.182587	0.698761	0.666487
C49	C	0.588366	0.033163	-0.000164
C50	C	0.921700	0.366496	0.333169
C51	C	1.255033	0.699829	0.666502
C52	C	0.362960	0.044759	-0.044082
C53	C	0.696293	0.378092	0.289251
C54	C	1.029627	0.711426	0.622585
C55	C	0.290515	0.043694	-0.044103
C56	C	0.623849	0.377027	0.289231
C57	C	0.957182	0.710360	0.622564
C58	C	0.247773	0.091900	-0.000249
C59	C	0.581107	0.425234	0.333084
C60	C	0.914440	0.758567	0.666417
C61	C	0.277483	0.141184	0.043614
C62	C	0.610817	0.474518	0.376948
C63	C	0.944150	0.807851	0.710281
C64	C	0.349929	0.142252	0.043630
C65	C	0.683262	0.475586	0.376963
C66	C	1.016595	0.808919	0.710297
C67	C	0.392665	0.094032	-0.000221
C68	C	0.725998	0.427365	0.333112
C69	C	1.059332	0.760699	0.666446
C70	C	0.124526	0.153843	-0.000277
C71	C	0.457859	0.487176	0.333056
C72	C	0.791192	0.820510	0.666389
C73	C	0.052078	0.152774	-0.000281
C74	C	0.385411	0.486107	0.333052
C75	C	0.718744	0.819441	0.666386
C76	C	0.069028	0.025506	-0.000267
C77	C	0.402362	0.358839	0.333066
C78	C	0.735695	0.692172	0.666399
C79	C	0.141475	0.026576	-0.000256
C80	C	0.474808	0.359910	0.333077
C81	C	0.808142	0.693243	0.666410
C82	C	0.169219	0.090747	-0.000265
C83	C	0.502552	0.424080	0.333069
C84	C	0.835886	0.757414	0.666402
C85	C	0.825679	-0.034696	-0.000209
C86	C	1.159012	0.298638	0.333124
C87	C	1.492346	0.631971	0.666458
C88	C	0.824544	-0.112200	-0.000202
C89	C	1.157878	0.221133	0.333131
C90	C	1.491211	0.554466	0.666464
C91	C	0.887309	-0.157129	-0.000214
C92	C	1.220642	0.176204	0.333119
C93	C	1.553975	0.509538	0.666452
C94	C	0.886243	-0.229953	-0.000226
C95	C	1.219576	0.103381	0.333107
C96	C	1.552909	0.436714	0.666441
C97	C	0.822408	-0.257844	-0.000211
C98	C	1.155742	0.075489	0.333123
C99	C	1.489075	0.408822	0.666456
C100	C	0.759636	-0.212906	-0.000203
C101	C	1.092969	0.120427	0.333130
C102	C	1.426302	0.453761	0.666464
C103	C	0.760704	-0.140084	-0.000199
C104	C	1.094037	0.193250	0.333135
C105	C	1.427370	0.526583	0.666468
N106	N	0.773608	-0.365848	0.042405
N107	N	1.106942	-0.032514	0.375739
N108	N	1.440275	0.300819	0.709072
N109	N	0.772598	-0.435026	0.042403
N110	N	1.105932	-0.101693	0.375736
N111	N	1.439265	0.231641	0.709070
C112	C	0.819187	-0.477253	-0.000225
C113	C	1.152520	-0.143919	0.333108
C114	C	1.485854	0.189414	0.666441
N115	N	0.866835	-0.447689	-0.042841
N116	N	1.200168	-0.114356	0.290492
N117	N	1.533502	0.218978	0.623825
N118	N	0.867847	-0.378504	-0.042836
N119	N	1.201180	-0.045171	0.290498
N120	N	1.534514	0.288162	0.623831
C121	C	0.821243	-0.336807	-0.000216
C122	C	1.154577	-0.003473	0.333117
C123	C	1.487910	0.329860	0.666451
C124	C	0.880800	-0.601146	-0.000251
C125	C	1.214133	-0.267813	0.333082
C126	C	1.547467	0.065521	0.666416
C127	C	0.879731	-0.673971	-0.000268
C128	C	1.213065	-0.340637	0.333066
C129	C	1.546398	-0.007304	0.666399
C130	C	0.753122	-0.656922	-0.000237
C131	C	1.086456	-0.323589	0.333097
C132	C	1.419789	0.009745	0.666430
C133	C	0.754193	-0.584099	-0.000228
C134	C	1.087526	-0.250766	0.333105
C135	C	1.420860	0.082568	0.666439
C136	C	0.818034	-0.556216	-0.000231
C137	C	1.151367	-0.222882	0.333102
C138	C	1.484700	0.110451	0.666435
C139	C	0.947227	0.087475	-0.000258
C140	C	1.280560	0.420808	0.333075
C141	C	1.613893	0.754141	0.666409
C142	C	1.024330	0.088609	-0.000283
C143	C	1.357664	0.421943	0.333051
C144	C	1.690997	0.755276	0.666384
C145	C	0.814762	0.220638	-0.000242
C146	C	1.148095	0.553972	0.333092
C147	C	1.481428	0.887305	0.666425
C148	C	0.815896	0.298143	-0.000253
C149	C	1.149230	0.631476	0.333080
C150	C	1.482563	0.964809	0.666413
N151	N	0.820199	0.092963	0.177931
N152	N	1.153532	0.426296	0.511264
N153	N	1.486865	0.759630	0.844597
N154	N	0.820247	0.092974	-0.178380
N155	N	1.153581	0.426307	0.154953
N156	N	1.486914	0.759641	0.488287
C157	C	0.867579	0.045372	0.217312
C158	C	1.200912	0.378705	0.550646
C159	C	1.534245	0.712038	0.883979
C160	C	0.867583	0.045368	0.296114
C161	C	1.200916	0.378702	0.629448
C162	C	1.534250	0.712035	0.962781
C163	C	0.820213	0.092969	0.335531
C164	C	1.153547	0.426302	0.668865
C165	C	1.486880	0.759635	1.002198
C166	C	0.772824	0.140564	0.296140
C167	C	1.106158	0.473897	0.629474
C168	C	1.439491	0.807230	0.962807
C169	C	0.772817	0.140561	0.217340
C170	C	1.106150	0.473894	0.550673
C171	C	1.439484	0.807228	0.884007
C172	C	0.810919	0.156585	0.460362
C173	C	1.144253	0.489919	0.793696
C174	C	1.477586	0.823252	1.127029
C175	C	0.810931	0.156589	0.539161
C176	C	1.144265	0.489922	0.872495
C177	C	1.477598	0.823256	1.205828
C178	C	0.820232	0.092977	0.578578
C179	C	1.153565	0.426310	0.911911
C180	C	1.486899	0.759644	1.245244
C181	C	0.829535	0.029359	0.539185
C182	C	1.162868	0.362692	0.872519
C183	C	1.496202	0.696025	1.205852
C184	C	0.829528	0.029356	0.460385
C185	C	1.162861	0.362689	0.793719
C186	C	1.496194	0.696022	1.127052
C187	C	0.820216	0.092977	0.420977
C188	C	1.153549	0.426310	0.754310
C189	C	1.486882	0.759643	1.087644
C190	C	0.867619	0.045378	0.703405
C191	C	1.200952	0.378711	1.036739
C192	C	1.534286	0.712045	1.370072
C193	C	0.867618	0.045374	0.782208
C194	C	1.200951	0.378707	1.115542
C195	C	1.534285	0.712041	1.448875
C196	C	0.772863	0.140575	0.782233
C197	C	1.106196	0.473909	1.115566
C198	C	1.439530	0.807242	1.448900
C199	C	0.772861	0.140573	0.703431
C200	C	1.106194	0.473907	1.036765
C201	C	1.439527	0.807240	1.370098
C202	C	0.820242	0.092976	0.664022
C203	C	1.153576	0.426309	0.997355
C204	C	1.486909	0.759642	1.330689
H205	H	0.177864	-0.024802	-0.000244
H206	H	0.511197	0.308531	0.333089
H207	H	0.844531	0.641865	0.666423
H208	H	0.015690	0.204155	-0.000293
H209	H	0.349023	0.537488	0.333040
H210	H	0.682356	0.870822	0.666374
H211	H	0.374116	0.182379	0.079348
H212	H	0.707449	0.515712	0.412681
H213	H	1.040782	0.849046	0.746014
O214	O	0.686492	-0.535640	-0.000201
O215	O	1.019825	-0.202307	0.333132
O216	O	1.353159	0.131027	0.666466
H217	H	0.683951	-0.502046	-0.051225
H218	H	1.017284	-0.168712	0.282108
H219	H	1.350618	0.164621	0.615442
O220	O	0.690784	-0.242984	-0.000187
O221	O	1.024118	0.090349	0.333147
O222	O	1.357451	0.423682	0.666480
H223	H	0.660625	-0.224924	0.050842
H224	H	0.993959	0.108410	0.384176
H225	H	1.327292	0.441743	0.717509
H226	H	0.930844	-0.710552	-0.000281
H227	H	1.264177	-0.377218	0.333052
H228	H	1.597510	-0.043885	0.666385
H229	H	0.462577	0.210742	-0.000215
H230	H	0.795910	0.544075	0.333118
H231	H	1.129243	0.877408	0.666451
H232	H	0.906158	0.006613	0.185228
H233	H	1.239491	0.339947	0.518561
H234	H	1.572825	0.673280	0.851894
H235	H	0.906167	0.006612	0.328185
H236	H	1.239500	0.339946	0.661518
H237	H	1.572833	0.673279	0.994851
H238	H	0.242684	0.180439	0.079324
H239	H	0.576017	0.513772	0.412658
H240	H	0.909350	0.847105	0.745991
O241	O	0.953943	-0.278421	-0.000232
O242	O	1.287276	0.054912	0.333102
O243	O	1.620610	0.388245	0.666435
H244	H	0.956463	-0.312016	0.050791
H245	H	1.289796	0.021317	0.384125
H246	H	1.623130	0.354650	0.717458
H247	H	0.046433	-0.026738	-0.000317
H248	H	0.379767	0.306595	0.333017
H249	H	0.713100	0.639929	0.666350
H250	H	0.709591	-0.103502	-0.000189
H251	H	1.042925	0.229831	0.333145
H252	H	1.376258	0.563165	0.666478
H253	H	0.837108	-0.022440	0.571277
H254	H	1.170441	0.310893	0.904610
H255	H	1.503775	0.644226	1.237943
O256	O	0.800902	0.225202	0.581647
O257	O	1.134235	0.558535	0.914980
O258	O	1.467568	0.891868	1.248314
H259	H	0.847288	0.229566	0.617513
H260	H	1.180621	0.562900	0.950846
H261	H	1.513955	0.896233	1.284179
O262	O	0.154453	0.223054	-0.000276
O263	O	0.487786	0.556387	0.333057
O264	O	0.821119	0.889720	0.666391
H265	H	0.212338	0.213197	-0.000272
H266	H	0.545671	0.546530	0.333061
H267	H	0.879004	0.879864	0.666394
H268	H	0.906199	0.006616	0.814274
H269	H	1.239532	0.339949	1.147607
H270	H	1.572865	0.673282	1.480940
O271	O	0.918711	-0.005964	0.660890
O272	O	1.252044	0.327369	0.994224
O273	O	1.585378	0.660702	1.327557
H274	H	0.951651	-0.039068	0.701517
H275	H	1.284984	0.294265	1.034851
H276	H	1.618317	0.627598	1.368184
H277	H	0.493320	-0.020148	-0.000193
H278	H	0.826653	0.313185	0.333140
H279	H	1.159987	0.646518	0.666474
H280	H	0.266331	0.003566	-0.079822
H281	H	0.599665	0.336900	0.253511
H282	H	0.932998	0.670233	0.586845
O283	O	0.409059	-0.007235	-0.091388
O284	O	0.742393	0.326098	0.241945
O285	O	1.075726	0.659432	0.575279
H286	H	0.376230	-0.041674	-0.121901
H287	H	0.709563	0.291659	0.211432
H288	H	1.042897	0.624992	0.544766
H289	H	0.624755	-0.018218	-0.000148
H290	H	0.958088	0.315115	0.333185
H291	H	1.291422	0.648449	0.666518
O292	O	0.956162	-0.127052	-0.000239
O293	O	1.289495	0.206281	0.333094
O294	O	1.622829	0.539615	0.666427
H295	H	0.999628	-0.170534	-0.000261
H296	H	1.332961	0.162800	0.333073
H297	H	1.666294	0.496133	0.666406
O298	O	0.949652	-0.571062	-0.000270
O299	O	1.282985	-0.237729	0.333063
O300	O	1.616318	0.095604	0.666397
H301	H	0.993119	-0.614542	-0.000295
H302	H	1.326452	-0.281209	0.333039
H303	H	1.659785	0.052125	0.666372
H304	H	0.701147	-0.679631	-0.000228
H305	H	1.034481	-0.346297	0.333105
H306	H	1.367814	-0.012964	0.666439
H307	H	0.837101	-0.022444	0.428315
H308	H	1.170434	0.310889	0.761649
H309	H	1.503767	0.644222	1.094982
O310	O	0.721770	0.191920	0.824734
O311	O	1.055104	0.525253	1.158067
O312	O	1.388437	0.858586	1.491401
H313	H	0.729737	0.183930	0.886146
H314	H	1.063071	0.517263	1.219479
H315	H	1.396404	0.850597	1.552813
O316	O	0.721766	0.191912	0.660947
O317	O	1.055099	0.525246	0.994280
O318	O	1.388432	0.858579	1.327614
H319	H	0.688830	0.225017	0.701592
H320	H	1.022164	0.558350	1.034926
H321	H	1.355497	0.891683	1.368259
O322	O	0.800893	0.225199	0.417850
O323	O	1.134226	0.558533	0.751184
O324	O	1.467559	0.891866	1.084517
H325	H	0.794438	0.269436	0.458478
H326	H	1.127772	0.602769	0.791811
H327	H	1.461105	0.936102	1.125145
O328	O	0.721735	0.191910	0.338647
O329	O	1.055068	0.525243	0.671981
O330	O	1.388401	0.858576	1.005314
H331	H	0.729705	0.183922	0.400059
H332	H	1.063038	0.517256	0.733392
H333	H	1.396372	0.850589	1.066726
H334	H	0.734234	0.179316	0.185275
H335	H	1.067567	0.512650	0.518608
H336	H	1.400900	0.845983	0.851941
H337	H	0.594003	0.212680	-0.000201
H338	H	0.927336	0.546013	0.333132
H339	H	1.260670	0.879347	0.666465
