data_functionalizedCrystal
_audit_creation_method	'MofGen! by Chris Wilmer'
_symmetry_space_group_name_H-M	'P1'
_symmetry_Int_Tables_number	1
_symmetry_cell_setting	triclinic
loop_
_symmetry_equiv_pos_as_xyz
  x,y,z
_cell_length_a	25.639242
_cell_length_b	25.639239
_cell_length_c	19.120904
_cell_angle_alpha	92.410104
_cell_angle_beta	92.422154
_cell_angle_gamma	90.030990
loop_
_atom_site_label
_atom_site_type_symbol
_atom_site_fract_x
_atom_site_fract_y
_atom_site_fract_z
Zn1	Zn	0.786628	-0.220879	-0.397121
Zn2	Zn	1.119961	0.112454	-0.063788
Zn3	Zn	1.453295	0.445787	0.269545
Zn4	Zn	0.790277	-0.304584	-0.279670
Zn5	Zn	1.123610	0.028749	0.053663
Zn6	Zn	1.456944	0.362082	0.386997
Zn7	Zn	0.702929	-0.217153	-0.279686
Zn8	Zn	1.036263	0.116180	0.053648
Zn9	Zn	1.369596	0.449513	0.386981
Zn10	Zn	0.699151	-0.308272	-0.397076
Zn11	Zn	1.032484	0.025061	-0.063743
Zn12	Zn	1.365817	0.358394	0.269591
O13	O	0.744746	-0.262722	-0.338388
O14	O	1.078080	0.070611	-0.005055
O15	O	1.411413	0.403944	0.328278
O16	O	0.860277	-0.231999	-0.381554
O17	O	1.193610	0.101334	-0.048220
O18	O	1.526943	0.434668	0.285113
O19	O	0.781799	-0.289883	-0.181390
O20	O	1.115132	0.043450	0.151944
O21	O	1.448465	0.376783	0.485277
O22	O	0.714086	-0.144483	-0.295289
O23	O	1.047420	0.188850	0.038044
O24	O	1.380753	0.522183	0.371377
O25	O	0.862958	-0.293496	-0.295263
O26	O	1.196291	0.039837	0.038071
O27	O	1.529624	0.373170	0.371404
O28	O	0.775579	-0.147221	-0.381569
O29	O	1.108913	0.186113	-0.048236
O30	O	1.442246	0.519446	0.285098
O31	O	0.717625	-0.225648	-0.181401
O32	O	1.050958	0.107685	0.151932
O33	O	1.384291	0.441018	0.485265
O34	O	0.629263	-0.229225	-0.295245
O35	O	0.962597	0.104109	0.038088
O36	O	1.295930	0.437442	0.371421
O37	O	0.707646	-0.299782	-0.495364
O38	O	1.040979	0.033551	-0.162031
O39	O	1.374313	0.366884	0.171302
O40	O	0.626487	-0.296169	-0.381491
O41	O	0.959820	0.037164	-0.048158
O42	O	1.293154	0.370497	0.285175
O43	O	0.771915	-0.235575	-0.495398
O44	O	1.105249	0.097758	-0.162064
O45	O	1.438582	0.431091	0.171269
O46	O	0.778135	-0.378238	-0.295219
O47	O	1.111468	-0.044904	0.038115
O48	O	1.444801	0.288429	0.371448
O49	O	0.711185	-0.380948	-0.381476
O50	O	1.044518	-0.047614	-0.048143
O51	O	1.377851	0.285719	0.285190
C52	C	0.608904	-0.262693	-0.338366
C53	C	0.942238	0.070640	-0.005032
C54	C	1.275571	0.403973	0.328301
C55	C	0.550790	-0.262694	-0.338372
C56	C	0.884123	0.070639	-0.005039
C57	C	1.217457	0.403973	0.328294
C58	C	0.298206	-0.230763	-0.383402
C59	C	0.631539	0.102571	-0.050069
C60	C	0.964872	0.435904	0.283265
C61	C	0.352810	-0.230757	-0.383398
C62	C	0.686143	0.102576	-0.050065
C63	C	1.019477	0.435909	0.283269
O64	O	0.379864	-0.203585	-0.421679
O65	O	0.713197	0.129748	-0.088345
O66	O	1.046531	0.463082	0.244988
N67	N	0.381516	-0.262717	-0.338396
N68	N	0.714849	0.070617	-0.005063
N69	N	1.048182	0.403950	0.328270
C70	C	0.355614	-0.294687	-0.293401
C71	C	0.688947	0.038646	0.039933
C72	C	1.022280	0.371980	0.373266
O73	O	0.385044	-0.321871	-0.255123
O74	O	0.718377	0.011463	0.078210
O75	O	1.051710	0.344796	0.411543
C76	C	0.301010	-0.294695	-0.293409
C77	C	0.634343	0.038639	0.039925
C78	C	0.967677	0.371972	0.373258
C79	C	0.272307	-0.262729	-0.338408
C80	C	0.605641	0.070604	-0.005075
C81	C	0.938974	0.403937	0.328258
C82	C	0.269503	-0.198800	-0.428399
C83	C	0.602836	0.134533	-0.095065
C84	C	0.936170	0.467866	0.238268
C85	C	0.214902	-0.198805	-0.428401
C86	C	0.548236	0.134528	-0.095068
C87	C	0.881569	0.467862	0.238265
C88	C	0.189004	-0.230772	-0.383408
C89	C	0.522338	0.102561	-0.050074
C90	C	0.855671	0.435895	0.283259
C91	C	0.217707	-0.262734	-0.338411
C92	C	0.551040	0.070599	-0.005078
C93	C	0.884374	0.403932	0.328255
C94	C	0.275109	-0.326668	-0.248417
C95	C	0.608442	0.006666	0.084916
C96	C	0.941776	0.339999	0.418250
C97	C	0.220502	-0.326673	-0.248429
C98	C	0.553835	0.006660	0.084904
C99	C	0.887168	0.339994	0.418237
C100	C	0.191799	-0.294708	-0.293429
C101	C	0.525132	0.038626	0.039904
C102	C	0.858466	0.371959	0.373238
C103	C	0.137208	-0.294706	-0.293421
C104	C	0.470541	0.038628	0.039913
C105	C	0.803875	0.371961	0.373246
N106	N	0.108503	-0.262747	-0.338422
N107	N	0.441836	0.070587	-0.005089
N108	N	0.775169	0.403920	0.328244
C109	C	0.134401	-0.230780	-0.383416
C110	C	0.467734	0.102554	-0.050083
C111	C	0.801067	0.435887	0.283251
C112	C	0.470285	-0.294669	-0.293388
C113	C	0.803618	0.038664	0.039945
C114	C	1.136951	0.371997	0.373279
C115	C	0.524887	-0.294659	-0.293376
C116	C	0.858221	0.038674	0.039957
C117	C	1.191554	0.372007	0.373291
C118	C	0.522080	-0.230730	-0.383374
C119	C	0.855413	0.102603	-0.050041
C120	C	1.188747	0.435937	0.283292
C121	C	0.467476	-0.230738	-0.383382
C122	C	0.800810	0.102596	-0.050049
C123	C	1.134143	0.435929	0.283284
C124	C	0.441579	-0.262710	-0.338390
C125	C	0.774913	0.070623	-0.005056
C126	C	1.108246	0.403957	0.328277
C127	C	0.019736	-0.230792	-0.383418
C128	C	0.353069	0.102542	-0.050085
C129	C	0.686402	0.435875	0.283249
C130	C	-0.034870	-0.230797	-0.383415
C131	C	0.298464	0.102536	-0.050082
C132	C	0.631797	0.435869	0.283252
C133	C	-0.032058	-0.294728	-0.293419
C134	C	0.301276	0.038605	0.039914
C135	C	0.634609	0.371938	0.373247
C136	C	0.022543	-0.294721	-0.293420
C137	C	0.355876	0.038613	0.039914
C138	C	0.689210	0.371946	0.373247
C139	C	0.048438	-0.262751	-0.338425
C140	C	0.381771	0.070583	-0.005091
C141	C	0.715105	0.403916	0.328242
O142	O	0.110119	-0.321866	-0.255161
O143	O	0.443452	0.011468	0.078172
O144	O	0.776785	0.344801	0.411505
O145	O	0.104964	-0.203606	-0.421693
O146	O	0.438297	0.129728	-0.088360
O147	O	0.771631	0.463061	0.244973
C148	C	0.744659	-0.398564	-0.338356
C149	C	1.077993	-0.065231	-0.005023
C150	C	1.411326	0.268103	0.328311
C151	C	0.744669	-0.456678	-0.338366
C152	C	1.078003	-0.123345	-0.005032
C153	C	1.411336	0.209988	0.328301
C154	C	0.779692	-0.815621	-0.293550
C155	C	1.113025	-0.482288	0.039783
C156	C	1.446359	-0.148954	0.373116
C157	C	0.779712	-0.870225	-0.293560
C158	C	1.113045	-0.536892	0.039774
C159	C	1.446379	-0.203559	0.373107
O160	O	0.809399	-0.897253	-0.255421
O161	O	1.142733	-0.563920	0.077913
O162	O	1.476066	-0.230587	0.411246
N163	N	0.744837	-0.898963	-0.338435
N164	N	1.078170	-0.565630	-0.005101
N165	N	1.411503	-0.232296	0.328232
C166	C	0.709943	-0.873093	-0.383308
C167	C	1.043276	-0.539760	-0.049975
C168	C	1.376609	-0.206426	0.283358
O169	O	0.680281	-0.902550	-0.421479
O170	O	1.013614	-0.569217	-0.088146
O171	O	1.346947	-0.235884	0.245187
C172	C	0.709926	-0.818490	-0.383302
C173	C	1.043259	-0.485156	-0.049969
C174	C	1.376592	-0.151823	0.283365
C175	C	0.744800	-0.789755	-0.338419
C176	C	1.078133	-0.456421	-0.005086
C177	C	1.411466	-0.123088	0.328248
C178	C	0.814563	-0.786886	-0.248672
C179	C	1.147897	-0.453553	0.084662
C180	C	1.481230	-0.120219	0.417995
C181	C	0.814543	-0.732285	-0.248661
C182	C	1.147876	-0.398952	0.084672
C183	C	1.481209	-0.065619	0.418005
C184	C	0.779650	-0.706419	-0.293530
C185	C	1.112984	-0.373086	0.039803
C186	C	1.446317	-0.039752	0.373137
C187	C	0.744779	-0.735154	-0.338409
C188	C	1.078112	-0.401821	-0.005076
C189	C	1.411446	-0.068487	0.328258
C190	C	0.675035	-0.792621	-0.428179
C191	C	1.008368	-0.459287	-0.094845
C192	C	1.341701	-0.125954	0.238488
C193	C	0.675021	-0.738013	-0.428169
C194	C	1.008354	-0.404680	-0.094835
C195	C	1.341688	-0.071347	0.238498
C196	C	0.709895	-0.709279	-0.383286
C197	C	1.043228	-0.375945	-0.049952
C198	C	1.376562	-0.042612	0.283381
C199	C	0.709866	-0.654687	-0.383267
C200	C	1.043199	-0.321354	-0.049934
C201	C	1.376532	0.011980	0.283399
N202	N	0.744741	-0.625950	-0.338392
N203	N	1.078074	-0.292616	-0.005059
N204	N	1.411408	0.040717	0.328274
C205	C	0.779633	-0.651816	-0.293524
C206	C	1.112967	-0.318482	0.039810
C207	C	1.446300	0.014851	0.373143
C208	C	0.709982	-0.987764	-0.383319
C209	C	1.043315	-0.654431	-0.049986
C210	C	1.376648	-0.321097	0.283347
C211	C	0.709996	-1.042366	-0.383323
C212	C	1.043329	-0.709033	-0.049989
C213	C	1.376663	-0.375700	0.283344
C214	C	0.779766	-1.039495	-0.293575
C215	C	1.113099	-0.706162	0.039759
C216	C	1.446433	-0.372828	0.373092
C217	C	0.779749	-0.984892	-0.293568
C218	C	1.113082	-0.651558	0.039765
C219	C	1.446416	-0.318225	0.373098
C220	C	0.744857	-0.959027	-0.338444
C221	C	1.078190	-0.625693	-0.005111
C222	C	1.411524	-0.292360	0.328222
C223	C	0.779587	-0.537150	-0.293505
C224	C	1.112920	-0.203817	0.039828
C225	C	1.446254	0.129517	0.373161
C226	C	0.779562	-0.482544	-0.293497
C227	C	1.112895	-0.149211	0.039836
C228	C	1.446228	0.184122	0.373170
C229	C	0.709794	-0.485421	-0.383247
C230	C	1.043127	-0.152087	-0.049914
C231	C	1.376460	0.181246	0.283419
C232	C	0.709817	-0.540021	-0.383253
C233	C	1.043150	-0.206688	-0.049920
C234	C	1.376484	0.126645	0.283413
C235	C	0.744718	-0.565885	-0.338380
C236	C	1.078051	-0.232551	-0.005047
C237	C	1.411384	0.100782	0.328287
O238	O	0.680195	-0.627624	-0.421389
O239	O	1.013528	-0.294290	-0.088056
O240	O	1.346862	0.039043	0.245278
O241	O	0.809295	-0.622352	-0.255366
O242	O	1.142628	-0.289019	0.077968
O243	O	1.475962	0.044315	0.411301
C244	C	0.881118	-0.262752	-0.338411
C245	C	1.214452	0.070582	-0.005078
C246	C	1.547785	0.403915	0.328255
C247	C	0.939232	-0.262764	-0.338421
C248	C	1.272566	0.070569	-0.005088
C249	C	1.605899	0.403902	0.328245
C250	C	0.738952	-0.268506	-0.521577
C251	C	1.072285	0.064827	-0.188244
C252	C	1.405619	0.398161	0.145090
C253	C	0.736483	-0.270971	-0.599641
C254	C	1.069816	0.062363	-0.266308
C255	C	1.403150	0.395696	0.067026
C256	C	0.744847	-0.126351	-0.338436
C257	C	1.078181	0.206983	-0.005103
C258	C	1.411514	0.540316	0.328231
C259	C	0.744890	-0.068237	-0.338456
C260	C	1.078224	0.265096	-0.005123
C261	C	1.411557	0.598429	0.328210
C262	C	0.768783	-0.238701	-0.636334
C263	C	1.102116	0.094633	-0.303001
C264	C	1.435449	0.427966	0.030332
C265	C	0.766456	-0.241014	-0.709684
C266	C	1.099790	0.092319	-0.376350
C267	C	1.433123	0.425652	-0.043017
C268	C	0.731833	-0.275601	-0.746339
C269	C	1.065166	0.057732	-0.413005
C270	C	1.398499	0.391066	-0.079672
C271	C	0.699529	-0.307872	-0.709640
C272	C	1.032863	0.025461	-0.376307
C273	C	1.366196	0.358794	-0.042974
C274	C	0.701853	-0.305555	-0.636292
C275	C	1.035187	0.027778	-0.302959
C276	C	1.368520	0.361111	0.030374
C277	C	0.723139	-0.284266	-0.967802
C278	C	1.056472	0.049067	-0.634469
C279	C	1.389806	0.382401	-0.301135
C280	C	0.720819	-0.286582	-1.041155
C281	C	1.054152	0.046752	-0.707822
C282	C	1.387485	0.380085	-0.374489
C283	C	0.787745	-0.219723	-1.041194
C284	C	1.121079	0.113611	-0.707860
C285	C	1.454412	0.446944	-0.374527
C286	C	0.790068	-0.217411	-0.967844
C287	C	1.123402	0.115922	-0.634511
C288	C	1.456735	0.449255	-0.301177
C289	C	0.757763	-0.249680	-0.931152
C290	C	1.091097	0.083653	-0.597819
C291	C	1.424430	0.416986	-0.264485
C292	C	0.729455	-0.277968	-0.821314
C293	C	1.062788	0.055365	-0.487980
C294	C	1.396122	0.388699	-0.154647
C295	C	0.760139	-0.247310	-0.856178
C296	C	1.093472	0.086023	-0.522845
C297	C	1.426805	0.419356	-0.189512
C298	C	0.750548	-0.256924	-0.155912
C299	C	1.083881	0.076410	0.177421
C300	C	1.417215	0.409743	0.510754
C301	C	0.753118	-0.254312	-0.077849
C302	C	1.086452	0.079022	0.255485
C303	C	1.419785	0.412355	0.588818
H304	H	0.199419	-0.352711	-0.211792
H305	H	0.532752	-0.019377	0.121541
H306	H	0.866086	0.313956	0.454875
H307	H	0.444110	-0.204708	-0.420024
H308	H	0.777444	0.128625	-0.086691
H309	H	1.110777	0.461958	0.246642
H310	H	0.449203	-0.320704	-0.256744
H311	H	0.782536	0.012630	0.076590
H312	H	1.115869	0.345963	0.409923
Cl313	Cl	0.311179	-0.366847	-0.191832
Cl314	Cl	0.644513	-0.033514	0.141502
Cl315	Cl	0.977846	0.299820	0.474835
H316	H	0.842942	-0.708893	-0.212116
H317	H	1.176275	-0.375559	0.121217
H318	H	1.509608	-0.042226	0.454551
Cl319	Cl	0.058627	-0.334910	-0.236853
Cl320	Cl	0.391960	-0.001576	0.096480
Cl321	Cl	0.725294	0.331757	0.429814
H322	H	0.681564	-0.966708	-0.419860
H323	H	1.014898	-0.633374	-0.086527
H324	H	1.348231	-0.300041	0.246806
H325	H	0.675546	-0.331828	-0.606418
H326	H	1.008880	0.001505	-0.273084
H327	H	1.342213	0.334839	0.060249
Cl328	Cl	0.812315	-0.195220	-0.590261
Cl329	Cl	1.145648	0.138113	-0.256928
Cl330	Cl	1.478982	0.471446	0.076406
H331	H	0.814046	-0.193450	-1.071076
H332	H	1.147379	0.139883	-0.737743
H333	H	1.480712	0.473216	-0.404409
H334	H	0.681383	-0.464352	-0.419777
H335	H	1.014716	-0.131018	-0.086444
H336	H	1.348050	0.202315	0.246890
Cl337	Cl	0.858434	-0.819393	-0.192257
Cl338	Cl	1.191768	-0.486060	0.141076
Cl339	Cl	1.525101	-0.152727	0.474409
Cl340	Cl	0.631196	-0.828732	-0.484615
Cl341	Cl	0.964529	-0.495398	-0.151282
Cl342	Cl	1.297863	-0.162065	0.182052
H343	H	0.646608	-0.716957	-0.464714
H344	H	0.979942	-0.383624	-0.131381
H345	H	1.313275	-0.050290	0.201952
Cl346	Cl	0.052281	-0.190599	-0.439995
Cl347	Cl	0.385614	0.142734	-0.106662
Cl348	Cl	0.718948	0.476068	0.226671
H349	H	0.788327	-0.219148	-0.826331
H350	H	1.121660	0.114185	-0.492997
H351	H	1.454994	0.447519	-0.159664
Cl352	Cl	0.685932	-0.321450	-0.867400
Cl353	Cl	1.019265	0.011884	-0.534067
Cl354	Cl	1.352598	0.345217	-0.200734
Cl355	Cl	0.554648	-0.190543	-0.439939
Cl356	Cl	0.887981	0.142791	-0.106605
Cl357	Cl	1.221315	0.476124	0.226728
H358	H	0.681421	-0.563419	-0.419803
H359	H	1.014755	-0.230085	-0.086469
H360	H	1.348088	0.103248	0.246864
Cl361	Cl	0.807087	-0.200468	-0.755809
Cl362	Cl	1.140420	0.132866	-0.422476
Cl363	Cl	1.473754	0.466199	-0.089143
Cl364	Cl	-0.064626	-0.334913	-0.236858
Cl365	Cl	0.268708	-0.001579	0.096475
Cl366	Cl	0.602041	0.331754	0.429809
Cl367	Cl	0.833598	-0.173929	-0.921769
Cl368	Cl	1.166931	0.159404	-0.588435
Cl369	Cl	1.500264	0.492737	-0.255102
Cl370	Cl	0.677285	-0.330062	-1.087235
Cl371	Cl	1.010619	0.003271	-0.753902
Cl372	Cl	1.343952	0.336604	-0.420568
H373	H	0.548253	-0.320683	-0.256725
H374	H	0.881586	0.012651	0.076608
H375	H	1.214919	0.345984	0.409942
Cl376	Cl	0.682527	-0.324834	-0.921685
Cl377	Cl	1.015860	0.008499	-0.588351
Cl378	Cl	1.349193	0.341833	-0.255018
Cl379	Cl	0.656000	-0.351351	-0.755721
Cl380	Cl	0.989333	-0.018018	-0.422388
Cl381	Cl	1.322667	0.315316	-0.089055
H382	H	0.808146	-0.961499	-0.257021
H383	H	1.141480	-0.628165	0.076312
H384	H	1.474813	-0.294832	0.409645
H385	H	0.807960	-0.459150	-0.256946
H386	H	1.141293	-0.125817	0.076388
H387	H	1.474627	0.207517	0.409721
H388	H	-0.058237	-0.204765	-0.420059
H389	H	0.275096	0.128568	-0.086726
H390	H	0.608430	0.461902	0.246608
H391	H	0.191537	-0.172778	-0.465048
H392	H	0.524871	0.160555	-0.131715
H393	H	0.858204	0.493889	0.201619
H394	H	0.808179	-1.060565	-0.257043
H395	H	1.141512	-0.727232	0.076291
H396	H	1.474846	-0.393899	0.409624
Cl397	Cl	0.823462	-0.569655	-0.237091
Cl398	Cl	1.156795	-0.236322	0.096242
Cl399	Cl	1.490129	0.097011	0.429576
Cl400	Cl	0.302051	-0.158608	-0.484971
Cl401	Cl	0.635384	0.174725	-0.151637
Cl402	Cl	0.968717	0.508058	0.181696
H403	H	0.681593	-1.065758	-0.419864
H404	H	1.014927	-0.732424	-0.086531
H405	H	1.348260	-0.399091	0.246802
