data_functionalizedCrystal
_audit_creation_method	'MofGen! by Chris Wilmer'
_symmetry_space_group_name_H-M	'P1'
_symmetry_Int_Tables_number	1
_symmetry_cell_setting	triclinic
loop_
_symmetry_equiv_pos_as_xyz
  x,y,z
_cell_length_a	15.995300
_cell_length_b	15.995350
_cell_length_c	9.730217
_cell_angle_alpha	90.001019
_cell_angle_beta	90.002996
_cell_angle_gamma	83.482091
loop_
_atom_site_label
_atom_site_type_symbol
_atom_site_fract_x
_atom_site_fract_y
_atom_site_fract_z
O1	O	1.111008	0.107724	0.114333
O2	O	0.867227	0.121096	0.114324
O3	O	0.995782	-0.007479	0.114328
O4	O	0.982454	0.236299	0.114330
O5	O	0.995778	-0.007480	-0.114252
O6	O	0.867223	0.121095	-0.114256
O7	O	1.111004	0.107723	-0.114247
Zn8	Zn	0.989113	0.114409	-0.150543
Zn9	Zn	0.989118	0.114410	0.150621
O10	O	0.982450	0.236298	-0.114250
C11	C	0.836030	0.120550	0.000033
C12	C	0.743077	0.118915	0.000030
C13	C	0.995229	-0.038674	0.000040
C14	C	0.993577	-0.131624	0.000048
C15	C	0.572894	0.115896	0.000040
C16	C	0.525428	0.207443	0.000038
C17	C	0.428740	0.205773	0.000560
C18	C	0.405337	0.112924	0.000049
C19	C	0.446472	0.067504	0.130322
C20	C	0.543106	0.069821	0.130428
C21	C	0.543380	0.068464	-0.129520
C22	C	0.446436	0.068473	-0.131228
C23	C	0.310642	0.111239	0.000059
C24	C	0.667590	0.117577	0.000040
C25	C	0.987644	-0.469370	0.000043
C26	C	0.896090	-0.421920	0.000552
C27	C	0.897743	-0.325230	0.000037
C28	C	0.990587	-0.301810	0.000046
C29	C	1.035743	-0.342897	-0.130480
C30	C	1.033443	-0.439532	-0.130589
C31	C	1.035338	-0.439889	0.129349
C32	C	1.035317	-0.342944	0.131074
C33	C	0.992255	-0.207113	0.000044
C34	C	0.985979	-0.564068	0.000037
C35	C	1.142202	0.108269	0.000048
C36	C	1.235154	0.109904	0.000060
C37	C	0.983003	0.267493	0.000040
C38	C	0.984655	0.360443	0.000042
N39	N	0.989116	0.114407	-0.356080
C40	C	1.102997	0.000587	-0.356067
C41	C	1.159943	-0.056320	-0.428001
C42	C	1.159952	-0.056321	-0.571881
C43	C	1.103006	0.000591	-0.643830
C44	C	1.046060	0.057498	-0.571896
C45	C	1.046059	0.057494	-0.428013
C46	C	0.932176	0.171313	-0.571909
C47	C	0.932170	0.171319	-0.428029
C48	C	0.875231	0.228225	-0.643858
C49	C	0.818287	0.285138	-0.571925
C50	C	0.818282	0.285136	-0.428036
C51	C	0.875224	0.228227	-0.356096
N52	N	0.989122	0.114405	0.356157
H53	H	0.543918	0.244233	-0.093366
C54	C	1.222589	-0.118919	-0.651011
H55	H	1.256504	-0.152811	-0.587560
H56	H	1.192475	-0.153785	-0.707149
H57	H	1.257442	-0.088773	-0.707126
H58	H	1.103010	0.000580	-0.760985
H59	H	0.875237	0.228218	-0.761013
H60	H	1.102841	-0.471662	0.130233
C61	C	0.849781	-0.286819	0.126421
H62	H	0.829106	-0.330303	0.178539
H63	H	0.886676	-0.258534	0.181655
H64	H	0.803952	-0.247932	0.097031
H65	H	0.875228	0.228224	-0.238941
H66	H	0.432373	-0.000719	0.134800
H67	H	0.575161	0.000967	-0.130773
H68	H	0.771923	0.331467	-0.630515
C69	C	0.408173	0.109597	0.261793
H70	H	0.433472	0.081662	0.340078
H71	H	0.418126	0.167019	0.263278
H72	H	0.349291	0.106066	0.263138
C73	C	1.102993	0.000595	-0.197804
H74	H	1.060927	0.042642	-0.165268
H75	H	1.091547	-0.052927	-0.165249
H76	H	1.156507	0.012092	-0.165255
H77	H	1.000512	-0.457828	-0.228166
H78	H	0.862005	-0.297359	-0.093691
C79	C	0.993373	-0.304560	-0.261714
H80	H	1.021150	-0.329829	-0.340155
H81	H	0.935951	-0.314521	-0.262891
H82	H	0.996893	-0.245676	-0.263066
H83	H	1.002302	-0.315689	0.227634
H84	H	0.771906	0.331474	-0.369475
C85	C	0.425691	-0.022966	-0.142413
H86	H	0.391550	-0.035288	-0.066819
H87	H	0.396319	-0.029864	-0.225763
H88	H	0.476406	-0.060161	-0.141530
H89	H	1.100660	-0.471792	-0.136505
C90	C	0.571064	0.109177	-0.262956
H91	H	0.552629	0.079611	-0.339887
H92	H	0.546979	0.166218	-0.266647
H93	H	0.630669	0.106809	-0.264658
C94	C	0.390282	0.253988	-0.125558
H95	H	0.433745	0.274778	-0.177571
H96	H	0.361988	0.217200	-0.180985
H97	H	0.351396	0.299750	-0.095916
C98	C	1.222580	-0.118919	-0.348862
H99	H	1.256491	-0.152815	-0.412311
H100	H	1.257426	-0.088782	-0.292724
H101	H	1.192460	-0.153795	-0.292745
C102	C	0.551912	0.256412	0.126045
H103	H	0.522948	0.311655	0.125249
H104	H	0.538290	0.228290	0.207635
H105	H	0.610843	0.259513	0.122971
C106	C	0.391113	0.253773	0.127450
H107	H	0.331823	0.252922	0.128197
H108	H	0.414631	0.227642	0.208495
H109	H	0.403661	0.310378	0.123928
C110	C	0.567860	0.114048	0.262469
H111	H	0.518879	0.130436	0.315537
H112	H	0.605860	0.076539	0.314446
H113	H	0.594097	0.162470	0.238879
C114	C	0.586712	-0.020987	0.137939
H115	H	0.646011	-0.020188	0.138046
H116	H	0.570152	-0.046959	0.219809
H117	H	0.570883	-0.051833	0.060577
C118	C	0.409506	0.113277	-0.261430
H119	H	0.369203	0.158879	-0.235907
H120	H	0.453386	0.133955	-0.312566
H121	H	0.383125	0.074637	-0.316130
H122	H	0.859499	-0.440444	0.094155
H123	H	1.103953	-0.328783	-0.135327
C124	C	0.846872	-0.448369	-0.125200
H125	H	0.881878	-0.488201	-0.178015
H126	H	0.798673	-0.472905	-0.095195
H127	H	0.829717	-0.400313	-0.179993
C128	C	0.994902	-0.467620	0.262998
H129	H	0.948549	-0.497440	0.241183
H130	H	1.035301	-0.503102	0.313970
H131	H	0.975888	-0.419418	0.316280
C132	C	1.126784	-0.322215	0.141733
H133	H	1.138946	-0.288056	0.066069
H134	H	1.133877	-0.292871	0.225043
H135	H	1.163963	-0.372938	0.140627
