data_functionalizedCrystal
_audit_creation_method	'MofGen! by Chris Wilmer'
_symmetry_space_group_name_H-M	'P1'
_symmetry_Int_Tables_number	1
_symmetry_cell_setting	triclinic
loop_
_symmetry_equiv_pos_as_xyz
  x,y,z
_cell_length_a	8.597213
_cell_length_b	13.930277
_cell_length_c	8.597304
_cell_angle_alpha	97.704378
_cell_angle_beta	84.294033
_cell_angle_gamma	97.708865
loop_
_atom_site_label
_atom_site_type_symbol
_atom_site_fract_x
_atom_site_fract_y
_atom_site_fract_z
O1	O	2.086090	0.271744	0.234305
O2	O	1.629422	0.235462	0.252280
O3	O	1.866741	0.235459	0.014963
O4	O	1.848771	0.271747	0.471622
O5	O	1.866707	0.075794	0.014958
O6	O	1.629388	0.075797	0.252274
O7	O	2.086056	0.112079	0.234300
Zn8	Zn	1.857717	0.068588	0.243286
Zn9	Zn	1.857761	0.278954	0.243293
O10	O	1.848738	0.112082	0.471616
C11	C	1.570902	0.150631	0.250346
C12	C	1.396583	0.135737	0.244575
N13	N	1.857698	-0.074980	0.243280
C14	C	1.752672	-0.527246	0.348335
C15	C	1.962894	-0.527207	0.138240
C16	C	1.962875	-0.426714	0.138235
C17	C	1.857755	-0.376481	0.243283
C18	C	1.752653	-0.426742	0.348336
C19	C	2.067986	-0.376443	0.033194
C20	C	2.067972	-0.275943	0.033186
C21	C	1.962843	-0.225710	0.138228
C22	C	1.857736	-0.275978	0.243284
C23	C	1.752615	-0.225745	0.348332
C24	C	1.647499	-0.276012	0.453382
C25	C	1.647523	-0.376509	0.453378
C26	C	1.962819	-0.125213	0.138232
C27	C	1.752597	-0.125241	0.348333
C28	C	2.144576	0.196912	0.236233
C29	C	2.318895	0.211813	0.242004
C30	C	1.864793	0.150630	-0.043541
C31	C	1.859020	0.135739	-0.217856
N32	N	1.857792	0.422522	0.243287
C33	C	1.850685	0.196914	0.530120
C34	C	1.856459	0.211811	0.704436
H35	H	1.385741	0.288337	0.244230
H36	H	2.153561	-0.235022	-0.052352
Cl37	Cl	1.620526	-0.590434	0.480387
Cl38	Cl	1.859892	0.329964	-0.192393
H39	H	1.329727	0.059209	0.242367
Cl40	Cl	2.095050	-0.590352	0.006195
H41	H	1.666989	-0.084349	0.433871
H42	H	1.561916	-0.235100	0.538920
Cl43	Cl	1.515394	-0.439703	0.585436
H44	H	2.048410	-0.084289	0.052709
Cl45	Cl	2.200142	-0.439588	-0.098851
Cl46	Cl	1.855561	0.017578	-0.321031
