data_functionalizedCrystal
_audit_creation_method	'MofGen! by Chris Wilmer'
_symmetry_space_group_name_H-M	'P1'
_symmetry_Int_Tables_number	1
_symmetry_cell_setting	triclinic
loop_
_symmetry_equiv_pos_as_xyz
  x,y,z
_cell_length_a	19.188905
_cell_length_b	19.188924
_cell_length_c	9.198806
_cell_angle_alpha	89.994752
_cell_angle_beta	89.988938
_cell_angle_gamma	83.138260
loop_
_atom_site_label
_atom_site_type_symbol
_atom_site_fract_x
_atom_site_fract_y
_atom_site_fract_z
O1	O	0.926153	0.087083	-0.121138
O2	O	1.426153	0.587083	0.378862
O3	O	0.722839	0.098836	-0.121090
O4	O	1.222839	0.598836	0.378910
O5	O	0.830366	-0.008697	-0.121098
O6	O	1.330366	0.491303	0.378902
O7	O	0.818627	0.194616	-0.121130
O8	O	1.318627	0.694616	0.378870
O9	O	0.830358	-0.008697	0.120687
O10	O	1.330358	0.491303	0.620687
O11	O	0.722831	0.098835	0.120695
O12	O	1.222831	0.598835	0.620695
O13	O	0.926145	0.087083	0.120647
O14	O	1.426145	0.587083	0.620647
Cu15	Cu	0.824487	0.092959	0.142748
Cu16	Cu	1.324487	0.592959	0.642748
Cu17	Cu	0.824497	0.092959	-0.143191
Cu18	Cu	1.324497	0.592959	0.356809
O19	O	0.818618	0.194616	0.120655
O20	O	1.318618	0.694616	0.620655
C21	C	0.696824	0.098458	-0.000191
C22	C	1.196824	0.598458	0.499809
C23	C	0.619318	0.097324	-0.000172
C24	C	1.119318	0.597324	0.499828
C25	C	0.582931	0.096780	-0.131972
C26	C	1.082931	0.596780	0.368028
C27	C	0.510108	0.095707	-0.131990
C28	C	1.010108	0.595707	0.368010
C29	C	0.473676	0.095164	-0.000200
C30	C	0.973676	0.595164	0.499800
C31	C	0.510071	0.095713	0.131618
C32	C	1.010071	0.595713	0.631618
C33	C	0.582893	0.096793	0.131633
C34	C	1.082893	0.596793	0.631633
N35	N	0.364653	0.053735	0.097885
N36	N	0.864653	0.553735	0.597885
N37	N	0.295476	0.052708	0.097863
N38	N	0.795476	0.552708	0.597863
C39	C	0.254269	0.091911	-0.000234
C40	C	0.754269	0.591911	0.499766
N41	N	0.284854	0.132173	-0.098331
N42	N	0.784854	0.632173	0.401669
N43	N	0.354038	0.133197	-0.098313
N44	N	0.854038	0.633197	0.401687
C45	C	0.394713	0.093993	-0.000200
C46	C	0.894713	0.593993	0.499800
C47	C	0.138918	0.090205	-0.132064
C48	C	0.638918	0.590205	0.367936
C49	C	0.066093	0.089136	-0.132076
C50	C	0.566093	0.589136	0.367924
C51	C	0.066059	0.089135	0.131536
C52	C	0.566059	0.589135	0.631536
C53	C	0.138882	0.090210	0.131545
C54	C	0.638882	0.590210	0.631545
C55	C	0.175308	0.090742	-0.000259
C56	C	0.675308	0.590742	0.499741
C57	C	0.829982	-0.034708	-0.000204
C58	C	1.329982	0.465292	0.499796
C59	C	0.828844	-0.112213	-0.000200
C60	C	1.328844	0.387787	0.499800
C61	C	0.828317	-0.148612	-0.131997
C62	C	1.328317	0.351388	0.368003
C63	C	0.827237	-0.221434	-0.132008
C64	C	1.327237	0.278566	0.367992
C65	C	0.826698	-0.257857	-0.000214
C66	C	1.326698	0.242143	0.499786
C67	C	0.827221	-0.221449	0.131600
C68	C	1.327221	0.278551	0.631600
C69	C	0.828294	-0.148627	0.131607
C70	C	1.328294	0.351373	0.631607
N71	N	0.864743	-0.377524	0.097868
N72	N	1.364743	0.122476	0.597868
N73	N	0.863725	-0.446702	0.097852
N74	N	1.363725	0.053298	0.597852
C75	C	0.823464	-0.477266	-0.000228
C76	C	1.323464	0.022734	0.499772
N77	N	0.784268	-0.436040	-0.098313
N78	N	1.284268	0.063960	0.401687
N79	N	0.785289	-0.366855	-0.098302
N80	N	1.285289	0.133145	0.401698
C81	C	0.825534	-0.336821	-0.000207
C82	C	1.325534	0.163179	0.499793
C83	C	0.821765	-0.592627	-0.132046
C84	C	1.321765	-0.092627	0.367954
C85	C	0.820681	-0.665451	-0.132051
C86	C	1.320681	-0.165451	0.367949
C87	C	0.820672	-0.665465	0.131561
C88	C	1.320672	-0.165465	0.631561
C89	C	0.821749	-0.592642	0.131563
C90	C	1.321749	-0.092642	0.631563
C91	C	0.822299	-0.556228	-0.000245
C92	C	1.322299	-0.056228	0.499755
C93	C	0.952160	0.087461	-0.000256
C94	C	1.452160	0.587461	0.499744
C95	C	1.029666	0.088594	-0.000284
C96	C	1.529666	0.588594	0.499716
C97	C	0.819002	0.220627	-0.000242
C98	C	1.319002	0.720627	0.499758
C99	C	0.820141	0.298132	-0.000256
C100	C	1.320141	0.798132	0.499744
N101	N	0.824485	0.092959	0.343862
N102	N	1.324485	0.592959	0.843862
N103	N	0.824505	0.092954	-0.344305
N104	N	1.324505	0.592954	0.155695
C105	C	0.869635	0.047612	0.416055
C106	C	1.369635	0.547612	0.916055
C107	C	0.869646	0.047609	0.583467
C108	C	1.369646	0.547609	1.083467
H109	H	0.612518	0.097237	0.238964
H110	H	1.112518	0.597237	0.738964
F111	F	0.920175	-0.003134	0.664611
F112	F	1.420175	0.496866	1.164611
F113	F	0.027366	0.088562	-0.272365
F114	F	0.527366	0.588562	0.227635
F115	F	0.027289	0.088563	0.271799
F116	F	0.527289	0.588563	0.771799
H117	H	0.820228	-0.695119	0.238871
H118	H	1.320228	-0.195119	0.738871
F119	F	0.826643	-0.260213	0.271865
F120	F	1.326643	0.239787	0.771865
H121	H	0.480404	0.095272	0.238923
H122	H	0.980404	0.595272	0.738923
H123	H	0.828720	-0.118991	0.238936
H124	H	1.328720	0.381009	0.738936
F125	F	0.773966	0.143699	0.425066
F126	F	1.273966	0.643699	0.925066
F127	F	0.177610	0.090786	0.271827
F128	F	0.677610	0.590786	0.771827
F129	F	0.177687	0.090775	-0.272339
F130	F	0.677687	0.590775	0.227661
F131	F	0.920026	-0.003255	0.334851
F132	F	1.420026	0.496745	0.834851
F133	F	0.621694	0.097348	-0.272251
F134	F	1.121694	0.597348	0.227749
F135	F	0.820115	-0.704188	-0.272336
F136	F	1.320115	-0.204188	0.227664
F137	F	0.822346	-0.553870	-0.272324
F138	F	1.322346	-0.053870	0.227676
H139	H	0.480475	0.095264	-0.239322
H140	H	0.980475	0.595264	0.260678
F141	F	0.773980	0.143706	0.574561
F142	F	1.273980	0.643706	1.074561
H143	H	0.828763	-0.118968	-0.239326
H144	H	1.328763	0.381032	0.260674
H145	H	0.822184	-0.563007	0.238887
H146	H	1.322184	-0.063007	0.738887
F147	F	0.826675	-0.260180	-0.272291
F148	F	1.326675	0.239820	0.227709
