data_functionalizedCrystal
_audit_creation_method	'MofGen! by Chris Wilmer'
_symmetry_space_group_name_H-M	'P1'
_symmetry_Int_Tables_number	1
_symmetry_cell_setting	triclinic
loop_
_symmetry_equiv_pos_as_xyz
  x,y,z
_cell_length_a	10.685980
_cell_length_b	10.686285
_cell_length_c	10.686551
_cell_angle_alpha	80.915481
_cell_angle_beta	81.591741
_cell_angle_gamma	89.665709
loop_
_atom_site_label
_atom_site_type_symbol
_atom_site_fract_x
_atom_site_fract_y
_atom_site_fract_z
Zn1	Zn	2.015981	-0.282820	-0.846602
Zn2	Zn	2.015879	-0.511409	-0.618091
Zn3	Zn	1.789915	-0.317939	-0.615570
Zn4	Zn	1.819994	-0.511286	-0.814010
O5	O	1.910442	-0.405864	-0.723568
O6	O	2.192555	-0.298497	-0.830984
O7	O	1.973273	-0.500493	-0.439076
O8	O	1.807358	-0.136699	-0.658802
O9	O	2.192480	-0.466440	-0.663098
O10	O	1.973447	-0.110898	-0.828540
O11	O	1.807259	-0.358352	-0.437224
O12	O	1.617317	-0.358233	-0.627199
O13	O	1.858622	-0.466231	-0.997014
O14	O	1.639416	-0.500284	-0.772992
O15	O	2.002613	-0.298378	-1.020959
O16	O	2.002439	-0.687974	-0.631495
O17	O	1.858523	-0.687884	-0.775436
C18	C	1.582579	-0.433057	-0.696286
C19	C	1.442323	-0.444719	-0.684642
C20	C	1.933770	-0.733709	-0.700233
C21	C	1.943869	-0.873950	-0.690303
C22	C	2.239585	-0.378565	-0.750958
C23	C	2.379846	-0.366931	-0.762630
C24	C	1.933984	-0.378373	-1.056611
C25	C	1.944017	-0.366658	-1.198535
C26	C	1.887059	-0.076733	-0.747025
C27	C	1.877094	0.063523	-0.757021
C28	C	1.887057	-0.433150	-0.391833
C29	C	1.877244	-0.444489	-0.249956
H30	H	1.433657	-0.291405	-0.838304
C31	C	1.790977	-0.545367	-1.163731
C32	C	1.862824	-0.626544	-1.087338
C33	C	1.783399	-0.719475	-1.007879
H34	H	1.750399	-0.592761	-1.214859
H35	H	1.728948	-0.505940	-1.110501
H36	H	1.924830	-0.665968	-1.140562
H37	H	1.903399	-0.579187	-1.036183
H38	H	1.721370	-0.680049	-0.954648
H39	H	1.742826	-0.766859	-1.059017
H40	H	1.832133	-0.774558	-0.956028
C41	C	2.030359	-0.265893	-1.284813
C42	C	2.023446	-0.273886	-1.413148
C43	C	2.102953	-0.181067	-1.492672
H44	H	2.114993	-0.279002	-1.268926
H45	H	2.004330	-0.184388	-1.267602
H46	H	2.049483	-0.355371	-1.430353
H47	H	1.938831	-0.260762	-1.429075
H48	H	2.076923	-0.099562	-1.475460
H49	H	2.187582	-0.194185	-1.476774
H50	H	2.098265	-0.186470	-1.579755
H51	H	1.388504	-0.520242	-0.608955
C52	C	2.030616	-0.945414	-0.604098
C53	C	2.155121	-0.900622	-0.644645
C54	C	2.235071	-0.966401	-0.565259
H55	H	2.026316	-1.033324	-0.608579
H56	H	2.004701	-0.932488	-0.518255
H57	H	2.181029	-0.913559	-0.730467
H58	H	2.159461	-0.812720	-0.640159
H59	H	2.209156	-0.953475	-0.479415
H60	H	2.230760	-1.054308	-0.569745
H61	H	2.319554	-0.936011	-0.592751
H62	H	1.812201	-0.882722	-0.821741
