data_functionalizedCrystal
_audit_creation_method	'MofGen! by Chris Wilmer'
_symmetry_space_group_name_H-M	'P1'
_symmetry_Int_Tables_number	1
_symmetry_cell_setting	triclinic
loop_
_symmetry_equiv_pos_as_xyz
  x,y,z
_cell_length_a	10.654550
_cell_length_b	19.288857
_cell_length_c	9.730223
_cell_angle_alpha	89.993455
_cell_angle_beta	89.999957
_cell_angle_gamma	83.809020
loop_
_atom_site_label
_atom_site_type_symbol
_atom_site_fract_x
_atom_site_fract_y
_atom_site_fract_z
O1	O	1.665746	0.097555	-0.114195
O2	O	2.165746	0.597555	0.385805
O3	O	1.300068	0.106849	-0.114221
O4	O	1.800068	0.606849	0.385779
O5	O	1.493478	0.001141	-0.114190
O6	O	1.993478	0.501141	0.385810
O7	O	1.472336	0.203264	-0.114225
O8	O	1.972336	0.703264	0.385775
O9	O	1.493466	0.001138	0.114390
O10	O	1.993466	0.501138	0.614390
O11	O	1.300056	0.106846	0.114359
O12	O	1.800056	0.606846	0.614359
O13	O	1.665734	0.097552	0.114385
O14	O	2.165734	0.597552	0.614385
Zn15	Zn	1.482893	0.102199	0.150664
Zn16	Zn	1.982893	0.602199	0.650664
Zn17	Zn	1.482909	0.102203	-0.150500
Zn18	Zn	1.982909	0.602203	0.349500
O19	O	1.472323	0.203261	0.114355
O20	O	1.972323	0.703261	0.614355
C21	C	1.253279	0.106165	0.000066
C22	C	1.753279	0.606165	0.500066
C23	C	1.113879	0.104124	0.000057
C24	C	1.613879	0.604124	0.500057
C25	C	1.492794	-0.024742	0.000101
C26	C	1.992794	0.475258	0.500101
C27	C	1.490756	-0.101859	0.000105
C28	C	1.990756	0.398141	0.500105
C29	C	1.033058	0.166363	0.000050
C30	C	1.533058	0.666363	0.500050
C31	C	0.902079	0.164441	0.000075
C32	C	1.402079	0.664441	0.500075
C33	C	0.932754	0.038033	0.000106
C34	C	1.432754	0.538033	0.500106
C35	C	1.063731	0.039957	0.000092
C36	C	1.563731	0.539957	0.500092
C37	C	1.489812	-0.138074	-0.124495
C38	C	1.989812	0.361926	0.375505
C39	C	1.487880	-0.210533	-0.124505
C40	C	1.987880	0.289467	0.375495
C41	C	1.486917	-0.246775	0.000091
C42	C	1.986917	0.253225	0.500091
C43	C	1.487854	-0.210551	0.124707
C44	C	1.987854	0.289449	0.624707
C45	C	1.489774	-0.138093	0.124713
C46	C	1.989774	0.361907	0.624713
C47	C	1.557425	-0.366546	0.095544
C48	C	2.057425	0.133454	0.595544
C49	C	1.555513	-0.439004	0.095532
C50	C	2.055513	0.060996	0.595532
C51	C	1.480991	-0.470260	0.000075
C52	C	1.980991	0.029740	0.500075
C53	C	1.408397	-0.429051	-0.095393
C54	C	1.908397	0.070949	0.404607
C55	C	1.410317	-0.356593	-0.095386
C56	C	1.910317	0.143407	0.404614
C57	C	1.484835	-0.325344	0.000097
C58	C	1.984835	0.174656	0.500097
C59	C	1.477950	-0.585043	-0.124544
C60	C	1.977950	-0.085043	0.375456
C61	C	1.476010	-0.657503	-0.124549
C62	C	1.976010	-0.157503	0.375451
C63	C	1.475997	-0.657520	0.124666
C64	C	1.975997	-0.157520	0.624666
C65	C	1.477925	-0.585061	0.124668
C66	C	1.977925	-0.085061	0.624668
C67	C	1.478907	-0.548827	0.000059
C68	C	1.978907	-0.048827	0.500059
C69	C	1.712523	0.098236	0.000095
C70	C	2.212523	0.598236	0.500095
C71	C	1.851923	0.100278	0.000096
C72	C	2.351923	0.600278	0.500096
C73	C	1.473008	0.229143	0.000061
C74	C	1.973008	0.729143	0.500061
C75	C	1.475045	0.306260	0.000048
C76	C	1.975045	0.806260	0.500048
N77	N	1.482891	0.102196	0.356201
N78	N	1.982891	0.602196	0.856201
N79	N	1.482921	0.102200	-0.356036
N80	N	1.982921	0.602200	0.143964
C81	C	1.568562	0.055408	0.428140
C82	C	2.068562	0.555408	0.928140
C83	C	1.568574	0.055408	0.572023
C84	C	2.068574	0.555408	1.072023
C85	C	1.397241	0.148990	0.572015
C86	C	1.897241	0.648990	1.072015
C87	C	1.397223	0.148986	0.428134
C88	C	1.897223	0.648986	0.928134
H89	H	0.836278	0.215122	0.000072
H90	H	1.336278	0.715122	0.500072
C91	C	1.152645	-0.028508	0.000098
C92	C	1.652645	0.471492	0.500098
H93	H	1.237832	-0.018171	0.000099
H94	H	1.737832	0.481829	0.500099
H95	H	1.137480	-0.054795	-0.079603
H96	H	1.637480	0.445205	0.420397
H97	H	1.137490	-0.054790	0.079829
H98	H	1.637490	0.445210	0.579829
H99	H	1.638333	0.017308	0.630592
H100	H	2.138333	0.517308	1.130592
C101	C	1.088218	0.236943	0.000026
C102	C	1.588218	0.736943	0.500026
H103	H	1.021320	0.273735	0.000038
H104	H	1.521320	0.773735	0.500038
H105	H	1.138668	0.240324	-0.079690
H106	H	1.638668	0.740324	0.420310
H107	H	1.138680	0.240320	0.079742
H108	H	1.638680	0.740320	0.579742
H109	H	1.327494	0.187087	0.630597
H110	H	1.827494	0.687087	1.130597
H111	H	0.891907	-0.014209	0.000143
H112	H	1.391907	0.485791	0.500143
H113	H	1.490608	-0.108577	-0.225961
H114	H	1.990608	0.391423	0.274039
H115	H	1.490537	-0.108606	0.226180
H116	H	1.990537	0.391394	0.726180
H117	H	1.475204	-0.687027	0.226114
H118	H	1.975204	-0.187027	0.726114
H119	H	1.638315	0.017307	0.369575
H120	H	2.138315	0.517307	0.869575
H121	H	1.327454	0.187087	0.369557
H122	H	1.827454	0.687087	0.869557
H123	H	1.347714	-0.454498	-0.173124
H124	H	1.847714	0.045502	0.326876
C125	C	1.486891	-0.250382	-0.261569
C126	C	1.986891	0.249618	0.238431
H127	H	1.487771	-0.218426	-0.335778
H128	H	1.987771	0.281574	0.164222
H129	H	1.412945	-0.273714	-0.266795
H130	H	1.912945	0.226286	0.233205
H131	H	1.559384	-0.283583	-0.266700
H132	H	2.059384	0.216417	0.233300
H133	H	1.618109	-0.341104	0.173287
H134	H	2.118109	0.158896	0.673287
H135	H	1.487067	-0.240064	0.226153
H136	H	1.987067	0.259936	0.726153
H137	H	1.478743	-0.555540	-0.226008
H138	H	1.978743	-0.055540	0.273992
C139	C	1.330467	-0.311263	-0.200382
C140	C	1.830467	0.188737	0.299618
H141	H	1.342295	-0.263635	-0.186709
H142	H	1.842295	0.236365	0.313291
H143	H	1.243837	-0.317306	-0.188379
H144	H	1.743837	0.182694	0.311621
H145	H	1.356028	-0.324876	-0.290843
H146	H	1.856028	0.175124	0.209157
H147	H	1.475235	-0.686987	-0.226017
H148	H	1.975235	-0.186987	0.273983
H149	H	1.478704	-0.555575	0.226130
H150	H	1.978704	-0.055575	0.726130
H151	H	1.614628	-0.472551	0.173263
H152	H	2.114628	0.027449	0.673263
