data_functionalizedCrystal
_audit_creation_method	'MofGen! by Chris Wilmer'
_symmetry_space_group_name_H-M	'P1'
_symmetry_Int_Tables_number	1
_symmetry_cell_setting	triclinic
loop_
_symmetry_equiv_pos_as_xyz
  x,y,z
_cell_length_a	21.295420
_cell_length_b	21.295417
_cell_length_c	12.594509
_cell_angle_alpha	90.035198
_cell_angle_beta	90.021167
_cell_angle_gamma	90.027953
loop_
_atom_site_label
_atom_site_type_symbol
_atom_site_fract_x
_atom_site_fract_y
_atom_site_fract_z
Zn1	Zn	0.962337	-0.250620	0.601804
Zn2	Zn	1.462337	0.249380	1.101804
Zn3	Zn	0.962247	-0.355898	0.423804
Zn4	Zn	1.462247	0.144102	0.923804
Zn5	Zn	0.857067	-0.250644	0.423833
Zn6	Zn	1.357067	0.249356	0.923833
Zn7	Zn	0.857031	-0.355852	0.601734
Zn8	Zn	1.357031	0.144148	1.101734
O9	O	0.909671	-0.303253	0.512794
O10	O	1.409671	0.196747	1.012794
O11	O	1.050414	-0.264594	0.578209
O12	O	1.550414	0.235406	1.078209
O13	O	0.948272	-0.341966	0.274862
O14	O	1.448272	0.158034	0.774862
O15	O	0.871083	-0.162551	0.447483
O16	O	1.371083	0.337449	0.947483
O17	O	1.050349	-0.341942	0.447433
O18	O	1.550349	0.158058	0.947433
O19	O	0.948425	-0.162533	0.578237
O20	O	1.448425	0.337467	1.078237
O21	O	0.870996	-0.264636	0.274883
O22	O	1.370996	0.235364	0.774883
O23	O	0.768973	-0.264590	0.447415
O24	O	1.268973	0.235410	0.947415
O25	O	0.871023	-0.341863	0.750689
O26	O	1.371023	0.158137	1.250689
O27	O	0.768946	-0.341886	0.578119
O28	O	1.268946	0.158114	1.078119
O29	O	0.948391	-0.264549	0.750741
O30	O	1.448391	0.235451	1.250741
O31	O	0.948238	-0.443981	0.447365
O32	O	1.448238	0.056019	0.947365
O33	O	0.870936	-0.443947	0.578090
O34	O	1.370936	0.056053	1.078090
C35	C	0.746119	-0.303236	0.512763
C36	C	1.246119	0.196764	1.012763
C37	C	0.676151	-0.303244	0.512775
C38	C	1.176151	0.196756	1.012775
C39	C	0.909590	-0.466805	0.512740
C40	C	1.409590	0.033195	1.012740
C41	C	0.909614	-0.536773	0.512752
C42	C	1.409614	-0.036773	1.012752
C43	C	0.176696	-0.343575	0.580785
C44	C	0.676696	0.156425	1.080785
C45	C	0.242438	-0.343576	0.580774
C46	C	0.742438	0.156424	1.080774
C47	C	0.275311	-0.303268	0.512827
C48	C	0.775311	0.196732	1.012827
C49	C	0.242437	-0.262968	0.444868
C50	C	0.742437	0.237032	0.944868
C51	C	0.176695	-0.262973	0.444873
C52	C	0.676695	0.237027	0.944873
N53	N	0.378552	-0.248151	0.504823
N54	N	0.878552	0.251849	1.004823
N55	N	0.441003	-0.248148	0.504824
N56	N	0.941003	0.251852	1.004824
C57	C	0.473386	-0.303250	0.512805
C58	C	0.973386	0.196750	1.012805
N59	N	0.440958	-0.358356	0.520805
N60	N	0.940958	0.141644	1.020805
N61	N	0.378501	-0.358359	0.520809
N62	N	0.878501	0.141641	1.020809
C63	C	0.346597	-0.303258	0.512813
C64	C	0.846597	0.196742	1.012813
C65	C	0.577538	-0.343551	0.580742
C66	C	1.077538	0.156449	1.080742
C67	C	0.643282	-0.343552	0.580724
C68	C	1.143282	0.156448	1.080724
C69	C	0.643279	-0.262938	0.444823
C70	C	1.143279	0.237062	0.944823
C71	C	0.577537	-0.262943	0.444836
C72	C	1.077537	0.237057	0.944836
C73	C	0.544670	-0.303248	0.512802
C74	C	1.044670	0.196752	1.012802
C75	C	0.949862	-0.569573	0.580885
C76	C	1.449862	-0.069573	1.080885
C77	C	0.949885	-0.635316	0.580911
C78	C	1.449885	-0.135316	1.080911
C79	C	0.909665	-0.668256	0.512786
C80	C	1.409665	-0.168256	1.012786
C81	C	0.869408	-0.635447	0.444649
C82	C	1.369408	-0.135447	0.944649
C83	C	0.869383	-0.569706	0.444632
C84	C	1.369383	-0.069706	0.944632
N85	N	0.904909	-0.771522	0.419635
N86	N	1.404909	-0.271522	0.919635
N87	N	0.904936	-0.833973	0.419654
N88	N	1.404936	-0.333973	0.919654
C89	C	0.909738	-0.866330	0.512834
C90	C	1.409738	-0.366330	1.012834
N91	N	0.914523	-0.833877	0.605996
N92	N	1.414523	-0.333877	1.105996
N93	N	0.914498	-0.771419	0.605976
N94	N	1.414498	-0.271419	1.105976
C95	C	0.909688	-0.739541	0.512797
C96	C	1.409688	-0.239541	1.012797
C97	C	0.950013	-0.970416	0.581001
C98	C	1.450013	-0.470416	1.081001
C99	C	0.950031	-1.036160	0.581029
C100	C	1.450031	-0.536160	1.081029
C101	C	0.869558	-1.036290	0.444757
C102	C	1.369558	-0.536290	0.944757
C103	C	0.869537	-0.970548	0.444738
C104	C	1.369537	-0.470548	0.944738
C105	C	0.909768	-0.937614	0.512859
C106	C	1.409768	-0.437614	1.012859
C107	C	1.073861	-0.303271	0.512825
C108	C	1.573861	0.196729	1.012825
C109	C	1.143829	-0.303278	0.512838
C110	C	1.643829	0.196722	1.012838
C111	C	0.909713	-0.303198	0.790415
C112	C	1.409713	0.196802	1.290415
C113	C	0.909731	-0.303175	0.908720
C114	C	1.409731	0.196825	1.408720
C115	C	0.909768	-0.139063	0.512871
C116	C	1.409768	0.360937	1.012871
C117	C	0.909810	-0.069095	0.512904
C118	C	1.409810	0.430905	1.012904
C119	C	0.909665	-0.303263	0.236253
C120	C	1.409665	0.196737	0.736253
C121	C	0.909769	-0.303109	0.117948
C122	C	1.409769	0.196891	0.617948
C123	C	0.867664	-0.345202	0.977946
C124	C	1.367664	0.154798	1.477946
C125	C	0.925099	-0.360584	1.048733
C126	C	1.425099	0.139416	1.548733
C127	C	0.852340	-0.287754	1.048733
C128	C	1.352340	0.212246	1.548733
C129	C	0.967196	-0.318587	0.977949
C130	C	1.467196	0.181413	1.477949
C131	C	0.894399	-0.245731	0.977943
C132	C	1.394399	0.254269	1.477943
C133	C	0.951874	-0.261091	1.048698
C134	C	1.451874	0.238909	1.548698
H135	H	0.149940	-0.376397	0.636124
H136	H	0.649940	0.123603	1.136124
N137	N	0.826133	-0.935163	0.371242
N138	N	1.326133	-0.435163	0.871242
H139	H	0.781154	-0.946635	0.387699
H140	H	1.281154	-0.446635	0.887699
H141	H	0.835996	-0.946644	0.295241
H142	H	1.335996	-0.446644	0.795241
H143	H	0.269204	-0.376390	0.636107
H144	H	0.769204	0.123610	1.136107
H145	H	0.803790	-0.274739	1.079826
H146	H	1.303790	0.225261	1.579826
N147	N	0.141244	-0.219508	0.371582
N148	N	0.641244	0.280492	0.871582
H149	H	0.152706	-0.174541	0.388243
H150	H	0.652706	0.325459	0.888243
H151	H	0.094621	-0.225681	0.381933
H152	H	0.594621	0.274319	0.881933
N153	N	0.542079	-0.387022	0.654032
N154	N	1.042079	0.112978	1.154032
H155	H	0.553545	-0.377300	0.730110
H156	H	1.053545	0.122700	1.230110
H157	H	0.553507	-0.431970	0.637272
H158	H	1.053507	0.068030	1.137272
H159	H	0.938088	-0.409135	1.079828
H160	H	1.438088	0.090865	1.579828
N161	N	0.678735	-0.219461	0.371550
N162	N	1.178735	0.280539	0.871550
H163	H	0.667317	-0.174497	0.388224
H164	H	1.167317	0.325503	0.888224
H165	H	0.667262	-0.229234	0.295498
H166	H	1.167262	0.270766	0.795498
N167	N	0.877173	-0.181442	0.936705
N168	N	1.377173	0.318558	1.436705
H169	H	0.833775	-0.169856	0.962402
H170	H	1.333775	0.330144	1.462402
H171	H	0.877730	-0.181901	0.856524
H172	H	1.377730	0.318099	1.356524
N173	N	0.993390	-0.934885	0.654483
N174	N	1.493390	-0.434885	1.154483
H175	H	1.022567	-0.907604	0.611269
H176	H	1.522567	-0.407604	1.111269
H177	H	1.018846	-0.965679	0.697648
H178	H	1.518846	-0.465679	1.197648
N179	N	0.999067	-0.213979	1.089610
N180	N	1.499067	0.286021	1.589610
H181	H	0.998561	-0.213956	1.169798
H182	H	1.498561	0.286044	1.669798
H183	H	0.987833	-0.170764	1.062647
H184	H	1.487833	0.329236	1.562647
H185	H	0.836806	-1.063109	0.389295
H186	H	1.336806	-0.563109	0.889295
N187	N	0.277888	-0.219495	0.371577
N188	N	0.777888	0.280505	0.871577
H189	H	0.324523	-0.225604	0.381885
H190	H	0.824523	0.274396	0.881885
H191	H	0.266418	-0.174549	0.388277
H192	H	0.766418	0.325451	0.888277
N193	N	0.678735	-0.387023	0.654003
N194	N	1.178735	0.112977	1.154003
H195	H	0.647936	-0.412554	0.697056
H196	H	1.147936	0.087446	1.197056
H197	H	0.706038	-0.361431	0.703330
H198	H	1.206038	0.138569	1.203330
H199	H	0.550776	-0.230126	0.389511
H200	H	1.050776	0.269874	0.889511
H201	H	0.982619	-0.542761	0.636355
H202	H	1.482619	-0.042761	1.136355
H203	H	0.982655	-0.662027	0.636405
H204	H	1.482655	-0.162027	1.136405
H205	H	0.836659	-0.662271	0.389183
H206	H	1.336659	-0.162271	0.889183
H207	H	0.982806	-1.062865	0.636515
H208	H	1.482806	-0.562865	1.136515
N209	N	0.825971	-0.534324	0.371141
N210	N	1.325971	-0.034324	0.871141
H211	H	0.800493	-0.565164	0.327988
H212	H	1.300493	-0.065164	0.827988
H213	H	0.851603	-0.507050	0.321917
H214	H	1.351603	-0.007050	0.821917
H215	H	0.832117	-0.380798	0.946881
H216	H	1.332117	0.119202	1.446881
N217	N	1.031527	-0.335901	0.936950
N218	N	1.531527	0.164099	1.436950
H219	H	1.031111	-0.335837	0.856759
H220	H	1.531111	0.164163	1.356759
H221	H	1.043179	-0.379115	0.963403
H222	H	1.543179	0.120885	1.463403
