data_functionalizedCrystal
_audit_creation_method	'MofGen! by Chris Wilmer'
_symmetry_space_group_name_H-M	'P1'
_symmetry_Int_Tables_number	1
_symmetry_cell_setting	triclinic
loop_
_symmetry_equiv_pos_as_xyz
  x,y,z
_cell_length_a	10.654550
_cell_length_b	15.944551
_cell_length_c	9.730223
_cell_angle_alpha	89.997716
_cell_angle_beta	89.996251
_cell_angle_gamma	83.991820
loop_
_atom_site_label
_atom_site_type_symbol
_atom_site_fract_x
_atom_site_fract_y
_atom_site_fract_z
O1	O	1.666308	0.117973	-0.114406
O2	O	1.300684	0.129213	-0.114384
O3	O	1.493480	0.001376	-0.114384
O4	O	1.473511	0.245810	-0.114407
O5	O	1.493478	0.001379	0.114196
O6	O	1.300681	0.129216	0.114196
O7	O	1.666305	0.117976	0.114174
Zn8	Zn	1.483493	0.123597	0.150477
Zn9	Zn	1.483496	0.123592	-0.150687
O10	O	1.473509	0.245813	0.114173
C11	C	1.253895	0.128389	-0.000092
C12	C	1.114484	0.125920	-0.000083
C13	C	1.492650	-0.029921	-0.000093
C14	C	1.490165	-0.123182	-0.000092
C15	C	1.034024	0.201188	-0.000110
C16	C	0.903034	0.198863	-0.000134
C17	C	0.932975	0.045995	-0.000108
C18	C	1.063963	0.048321	-0.000075
C19	C	1.084545	0.278788	-0.000118
C20	C	1.004084	0.354062	-0.000147
C21	C	0.873094	0.351737	-0.000170
C22	C	0.822564	0.274137	-0.000165
C23	C	1.364720	-0.338765	-0.000104
C24	C	1.422971	-0.399443	0.112596
C25	C	1.485668	-0.293934	-0.000103
C26	C	1.423002	-0.399430	-0.112765
C27	C	1.481317	-0.458872	-0.000119
C28	C	1.543953	-0.353384	0.112691
C29	C	1.543967	-0.353364	-0.112772
C30	C	1.602306	-0.414024	-0.000045
C31	C	1.488172	-0.198917	-0.000092
C32	C	1.478822	-0.553887	-0.000119
C33	C	1.713094	0.118800	-0.000122
C34	C	1.852505	0.121269	-0.000140
C35	C	1.474339	0.277110	-0.000120
C36	C	1.476824	0.370371	-0.000130
N37	N	1.483500	0.123599	0.356013
N38	N	1.483499	0.123583	-0.356224
C39	C	1.568892	0.067012	0.427939
C40	C	1.568889	0.067002	0.571822
C41	C	1.398098	0.180173	0.571840
C42	C	1.398096	0.180178	0.427959
C43	C	1.654296	0.010433	0.355993
C44	C	1.739696	-0.046158	0.427920
C45	C	1.739693	-0.046168	0.571803
C46	C	1.654290	0.010412	0.643759
H47	H	1.191203	0.280689	-0.000105
O48	O	1.314976	0.235050	0.641675
C49	C	1.096626	0.282940	0.685667
C50	C	1.190620	0.220729	0.606520
H51	H	0.996065	0.271395	0.657251
H52	H	1.111190	0.273215	0.800873
H53	H	1.113051	0.350315	0.657397
H54	H	1.174252	0.153330	0.634674
H55	H	1.176034	0.230527	0.491333
O56	O	1.604845	-0.329041	0.226445
C57	C	1.675563	-0.213288	0.354027
C58	C	1.606557	-0.240741	0.225161
H59	H	1.676993	-0.141898	0.353017
H60	H	1.624352	-0.232594	0.450005
H61	H	1.776519	-0.245066	0.354412
H62	H	1.505599	-0.208977	0.224642
H63	H	1.657865	-0.221450	0.129240
H64	H	1.045235	0.417241	-0.000140
O65	O	1.822558	-0.101068	0.357815
C66	C	1.898104	-0.151315	0.136153
C67	C	1.804244	-0.089050	0.215370
H68	H	1.883312	-0.141632	0.020972
H69	H	1.998736	-0.139787	0.164300
H70	H	1.881691	-0.218671	0.164557
H71	H	1.820541	-0.021670	0.187008
H72	H	1.703644	-0.100651	0.187216
O73	O	1.141950	-0.024872	-0.000121
C74	C	1.157836	-0.176743	-0.000034
C75	C	1.069372	-0.093915	-0.000018
H76	H	1.099192	-0.232585	0.000078
H77	H	1.219911	-0.179531	-0.095703
H78	H	1.219911	-0.179426	0.095618
H79	H	1.007218	-0.091176	-0.095605
H80	H	1.007383	-0.091160	0.095714
O81	O	1.822762	-0.101171	0.641461
C82	C	1.992115	-0.213452	0.626250
C83	C	1.898120	-0.151195	0.547196
H84	H	2.053049	-0.253925	0.550071
H85	H	2.054931	-0.176841	0.693574
H86	H	1.937879	-0.255721	0.693647
H87	H	1.952253	-0.108911	0.479724
H88	H	1.835305	-0.187858	0.479958
O89	O	1.315277	0.235264	0.358140
C90	C	1.241638	0.380861	0.314170
C91	C	1.335525	0.318573	0.393303
H92	H	1.257958	0.448229	0.342592
H93	H	1.256307	0.371214	0.198962
H94	H	1.141069	0.369244	0.342447
H95	H	1.436130	0.330152	0.365142
H96	H	1.320746	0.328234	0.508492
O97	O	1.362069	-0.423702	0.226412
C98	C	1.355694	-0.426739	0.473898
C99	C	1.424778	-0.399205	0.345127
H100	H	1.406382	-0.406960	0.569911
H101	H	1.254427	-0.395505	0.473877
H102	H	1.355176	-0.498200	0.473228
H103	H	1.425393	-0.327754	0.345712
H104	H	1.526010	-0.430500	0.345197
H105	H	1.595080	-0.332939	-0.208062
H106	H	1.264327	-0.306038	0.000015
H107	H	0.807585	0.413029	-0.000180
H108	H	0.715901	0.272250	-0.000163
H109	H	0.891822	-0.017184	-0.000127
O110	O	1.722195	-0.452859	0.000261
C111	C	1.921353	-0.473384	0.119313
C112	C	1.785607	-0.429364	0.119146
H113	H	1.972670	-0.454391	0.215406
H114	H	1.918668	-0.544672	0.118491
H115	H	1.973247	-0.453630	0.024095
H116	H	1.733634	-0.449049	0.214347
H117	H	1.788383	-0.358084	0.119896
H118	H	1.371831	-0.419804	-0.208051
H119	H	1.654309	0.010437	0.238836
H120	H	1.654286	0.010393	0.760918
