data_functionalizedCrystal
_audit_creation_method	'MofGen! by Chris Wilmer'
_symmetry_space_group_name_H-M	'P1'
_symmetry_Int_Tables_number	1
_symmetry_cell_setting	triclinic
loop_
_symmetry_equiv_pos_as_xyz
  x,y,z
_cell_length_a	8.497374
_cell_length_b	11.169417
_cell_length_c	11.169416
_cell_angle_alpha	90.011219
_cell_angle_beta	89.994900
_cell_angle_gamma	89.999788
loop_
_atom_site_label
_atom_site_type_symbol
_atom_site_fract_x
_atom_site_fract_y
_atom_site_fract_z
Zn1	Zn	0.891929	-1.834730	0.477987
Zn2	Zn	1.225263	-1.501397	0.811320
Zn3	Zn	1.558596	-1.168063	1.144654
Zn4	Zn	0.628147	-1.834688	0.678637
Zn5	Zn	0.961481	-1.501355	1.011971
Zn6	Zn	1.294814	-1.168021	1.345304
Zn7	Zn	0.628164	-1.634085	0.477970
Zn8	Zn	0.961497	-1.300751	0.811303
Zn9	Zn	1.294830	-0.967418	1.144637
Zn10	Zn	0.891886	-1.634023	0.678630
Zn11	Zn	1.225219	-1.300690	1.011963
Zn12	Zn	1.558552	-0.967357	1.345297
O13	O	0.760031	-1.734381	0.578306
O14	O	1.093365	-1.401048	0.911639
O15	O	1.426698	-1.067715	1.244973
O16	O	0.856949	-2.002674	0.504614
O17	O	1.190283	-1.669341	0.837947
O18	O	1.523616	-1.336007	1.171281
O19	O	0.407387	-1.808086	0.652014
O20	O	0.740720	-1.474752	0.985348
O21	O	1.074054	-1.141419	1.318681
O22	O	0.663178	-1.660744	0.310023
O23	O	0.996511	-1.327410	0.643356
O24	O	1.329844	-0.994077	0.976689
O25	O	0.663150	-2.002643	0.652031
O26	O	0.996483	-1.669310	0.985364
O27	O	1.329817	-1.335977	1.318698
O28	O	0.856965	-1.808157	0.310035
O29	O	1.190298	-1.474824	0.643368
O30	O	1.523632	-1.141490	0.976702
O31	O	0.407399	-1.660703	0.504585
O32	O	0.740732	-1.327370	0.837918
O33	O	1.074066	-0.994036	1.171252
O34	O	0.663135	-1.466127	0.504578
O35	O	0.996469	-1.132793	0.837911
O36	O	1.329802	-0.799460	1.171244
O37	O	1.112654	-1.660639	0.652018
O38	O	1.445987	-1.327306	0.985352
O39	O	1.779320	-0.993973	1.318685
O40	O	0.856891	-1.466082	0.652002
O41	O	1.190224	-1.132748	0.985335
O42	O	1.523558	-0.799415	1.318668
O43	O	1.112686	-1.808098	0.504607
O44	O	1.446019	-1.474764	0.837940
O45	O	1.779352	-1.141431	1.171274
O46	O	0.663108	-1.808026	0.846586
O47	O	0.996441	-1.474693	1.179919
O48	O	1.329774	-1.141360	1.513253
O49	O	0.856875	-1.660599	0.846581
O50	O	1.190209	-1.327265	1.179914
O51	O	1.523542	-0.993932	1.513247
C52	C	0.760011	-1.422557	0.578288
C53	C	1.093344	-1.089223	0.911621
C54	C	1.426678	-0.755890	1.244955
C55	C	0.760040	-1.289157	0.578309
C56	C	1.093373	-0.955823	0.911642
C57	C	1.426707	-0.622490	1.244976
C58	C	0.760019	-1.734334	0.890131
C59	C	1.093353	-1.401001	1.223464
C60	C	1.426686	-1.067667	1.556797
C61	C	0.760067	-1.734423	1.023531
C62	C	1.093400	-1.401090	1.356864
C63	C	1.426734	-1.067757	1.690197
C64	C	0.760053	-2.047424	0.578325
C65	C	1.093386	-1.714090	0.911659
C66	C	1.426719	-1.380757	1.244992
C67	C	0.760062	-2.180824	0.578333
C68	C	1.093395	-1.847490	0.911667
C69	C	1.426728	-1.514157	1.245000
C70	C	1.171512	-1.734373	0.578308
C71	C	1.504845	-1.401039	0.911641
C72	C	1.838178	-1.067706	1.244975
C73	C	1.350156	-1.734375	0.578321
C74	C	1.683489	-1.401042	0.911654
C75	C	2.016822	-1.067709	1.244987
C76	C	0.760078	-1.734462	0.265264
C77	C	1.093411	-1.401129	0.598597
C78	C	1.426745	-1.067795	0.931930
C79	C	0.760098	-1.734496	0.131864
C80	C	1.093431	-1.401163	0.465197
C81	C	1.426765	-1.067830	0.798530
