data_functionalizedCrystal
_audit_creation_method	'MofGen! by Chris Wilmer'
_symmetry_space_group_name_H-M	'P1'
_symmetry_Int_Tables_number	1
_symmetry_cell_setting	triclinic
loop_
_symmetry_equiv_pos_as_xyz
  x,y,z
_cell_length_a	10.686285
_cell_length_b	10.686220
_cell_length_c	19.805399
_cell_angle_alpha	94.354678
_cell_angle_beta	85.609337
_cell_angle_gamma	90.345594
loop_
_atom_site_label
_atom_site_type_symbol
_atom_site_fract_x
_atom_site_fract_y
_atom_site_fract_z
Zn1	Zn	-0.352090	1.956122	-0.287867
Zn2	Zn	-0.561876	1.972139	-0.165414
Zn3	Zn	-0.368243	1.746369	-0.182651
Zn4	Zn	-0.577912	1.762447	-0.286522
O5	O	-0.465030	1.859269	-0.230614
O6	O	-0.366447	2.133785	-0.264972
O7	O	-0.536239	1.942164	-0.072983
O8	O	-0.190557	1.760761	-0.204384
O9	O	-0.520576	2.145553	-0.175006
O10	O	-0.178689	1.914865	-0.281686
O11	O	-0.393978	1.776292	-0.085647
O12	O	-0.409527	1.572963	-0.203081
O13	O	-0.547907	1.788165	-0.381418
O14	O	-0.563570	1.584776	-0.279395
O15	O	-0.381997	1.930456	-0.382406
O16	O	-0.739546	1.957755	-0.173703
O17	O	-0.751328	1.803695	-0.262681
C18	C	-0.490043	1.533354	-0.242963
C19	C	-0.500773	1.393928	-0.248260
C20	C	-0.790951	1.884242	-0.216189
C21	C	-0.930372	1.895040	-0.210037
C22	C	-0.137834	1.834233	-0.245108
C23	C	0.001597	1.823564	-0.251284
C24	C	-0.464939	1.859317	-0.407158
C25	C	-0.464900	1.859338	-0.482391
C26	C	-0.439921	2.186457	-0.218216
C27	C	-0.429221	2.325885	-0.212934
C28	C	-0.390815	1.772991	-0.524328
C29	C	-0.390790	1.773006	-0.595017
C30	C	-0.464843	1.859376	-0.623767
C31	C	-0.538936	1.945727	-0.581825
C32	C	-0.538968	1.945705	-0.511137
C33	C	-0.538811	1.945818	-0.866900
C34	C	-0.538771	1.945836	-0.937593
C35	C	-0.390633	1.773119	-0.950779
C36	C	-0.390665	1.773096	-0.880092
C37	C	-0.464762	1.859443	-0.838155
C38	C	-0.464791	1.859424	-0.761506
C39	C	-0.464808	1.859402	-0.700415
C40	C	-0.465025	1.859286	-0.054757
C41	C	-0.464692	1.859481	0.020469
H42	H	-0.359754	1.374302	-0.178630
H43	H	-0.978797	1.964490	-0.170008
H44	H	-0.570243	1.345518	-0.282557
H45	H	-0.599078	2.016172	-0.960998
O46	O	-0.318850	1.688966	-0.496514
C47	C	-0.253435	1.612776	-0.548691
H48	H	-0.305128	1.612386	-0.596967
H49	H	-0.154632	1.651420	-0.558690
C50	C	-0.182131	1.478354	-0.467673
C51	C	-0.245626	1.477867	-0.526965
H52	H	-0.177307	1.395137	-0.454271
H53	H	-0.226197	1.529687	-0.432520
H54	H	-0.099801	1.510564	-0.476014
H55	H	-0.327959	1.445673	-0.518622
H56	H	-0.201573	1.426525	-0.562116
H57	H	-0.330467	1.702689	-0.629160
O58	O	-0.318738	1.689058	-0.991447
C59	C	-0.355772	1.566129	-0.977704
H60	H	-0.404218	1.567208	-0.924342
H61	H	-0.423488	1.528817	-1.016230
C62	C	-0.179805	1.479465	-1.048274
C63	C	-0.239299	1.480789	-0.982731
H64	H	-0.107961	1.426821	-1.051377
H65	H	-0.154856	1.562284	-1.057535
H66	H	-0.236248	1.448375	-1.080372
H67	H	-0.182862	1.511893	-0.950635
H68	H	-0.264236	1.397973	-0.973464
O69	O	-0.940578	1.740885	-0.299103
C70	C	-0.859177	1.806444	-0.343447
H71	H	-0.891067	1.908256	-0.342205
H72	H	-0.759613	1.803200	-0.326685
C73	C	-0.822506	1.619863	-0.417731
C74	C	-0.861680	1.744907	-0.416210
H75	H	-0.824044	1.581902	-0.462614
H76	H	-0.877343	1.575693	-0.387854
H77	H	-0.739539	1.617176	-0.403759
H78	H	-0.944650	1.747592	-0.430172
H79	H	-0.806857	1.789077	-0.446090
O80	O	-0.318911	1.689146	-0.852085
C81	C	-0.396576	1.613561	-0.811117
H82	H	-0.488249	1.665078	-0.794638
H83	H	-0.417483	1.521665	-0.841272
C84	C	-0.216740	1.522268	-0.768128
C85	C	-0.329330	1.585547	-0.747884
H86	H	-0.175259	1.504981	-0.729125
H87	H	-0.164414	1.573187	-0.795731
H88	H	-0.234179	1.445695	-0.793258
H89	H	-0.311889	1.662124	-0.722762
H90	H	-0.381651	1.534639	-0.720276
H91	H	-0.599161	2.016114	-0.832763
H92	H	-0.599238	2.016045	-0.605239
O93	O	-0.610967	2.029702	-0.470495
C94	C	-0.676348	2.105918	-0.511027
H95	H	-0.624606	2.106356	-0.563526
H96	H	-0.775138	2.067264	-0.516068
C97	C	-0.747763	2.240258	-0.413093
C98	C	-0.684207	2.240805	-0.477572
H99	H	-0.752617	2.323461	-0.392456
H100	H	-0.703719	2.188908	-0.385785
H101	H	-0.830082	2.208040	-0.417302
H102	H	-0.601886	2.273007	-0.473361
H103	H	-0.728238	2.292164	-0.504878
