data_functionalizedCrystal
_audit_creation_method	'MofGen! by Chris Wilmer'
_symmetry_space_group_name_H-M	'P1'
_symmetry_Int_Tables_number	1
_symmetry_cell_setting	triclinic
loop_
_symmetry_equiv_pos_as_xyz
  x,y,z
_cell_length_a	21.395362
_cell_length_b	12.759400
_cell_length_c	21.395355
_cell_angle_alpha	89.986153
_cell_angle_beta	89.956060
_cell_angle_gamma	90.030564
loop_
_atom_site_label
_atom_site_type_symbol
_atom_site_fract_x
_atom_site_fract_y
_atom_site_fract_z
Zn1	Zn	0.957929	-0.417943	-0.354606
Zn2	Zn	1.457929	0.082057	0.145394
Zn3	Zn	0.957861	-0.593607	-0.249837
Zn4	Zn	1.457861	-0.093607	0.250163
Zn5	Zn	0.853144	-0.417992	-0.249807
Zn6	Zn	1.353144	0.082008	0.250193
Zn7	Zn	0.853143	-0.593629	-0.354542
Zn8	Zn	1.353143	-0.093629	0.145458
O9	O	0.905519	-0.505793	-0.302198
O10	O	1.405519	-0.005793	0.197802
O11	O	1.045598	-0.441215	-0.340747
O12	O	1.545598	0.058785	0.159253
O13	O	0.943942	-0.570323	-0.162155
O14	O	1.443942	-0.070323	0.337845
O15	O	0.867073	-0.270964	-0.263723
O16	O	1.367073	0.229036	0.236277
O17	O	1.045548	-0.570275	-0.263774
O18	O	1.545548	-0.070275	0.236226
O19	O	0.944058	-0.270928	-0.340719
O20	O	1.444058	0.229072	0.159281
O21	O	0.867007	-0.441299	-0.162133
O22	O	1.367007	0.058701	0.337867
O23	O	0.765466	-0.441320	-0.263661
O24	O	1.265466	0.058680	0.236339
O25	O	0.867071	-0.570312	-0.442228
O26	O	1.367071	-0.070312	0.057772
O27	O	0.765465	-0.570360	-0.340609
O28	O	1.265465	-0.070360	0.159391
O29	O	0.944057	-0.441236	-0.442275
O30	O	1.444057	0.058764	0.057725
O31	O	0.943941	-0.740631	-0.263712
O32	O	1.443941	-0.240631	0.236288
O33	O	0.867005	-0.740647	-0.340638
O34	O	1.367005	-0.240647	0.159362
C35	C	0.742732	-0.505848	-0.302125
C36	C	1.242732	-0.005848	0.197875
C37	C	0.673090	-0.505897	-0.302109
C38	C	1.173090	-0.005897	0.197891
C39	C	0.640393	-0.573177	-0.342116
C40	C	1.140393	-0.073177	0.157884
C41	C	0.574958	-0.573152	-0.342144
C42	C	1.074958	-0.073152	0.157856
C43	C	0.542222	-0.505857	-0.302154
C44	C	1.042222	-0.005857	0.197846
C45	C	0.574927	-0.438564	-0.262144
C46	C	1.074927	0.061436	0.237856
C47	C	0.640361	-0.438584	-0.262122
C48	C	1.140361	0.061416	0.237878
C49	C	0.438496	-0.497393	-0.245748
C50	C	0.938496	0.002607	0.254252
C51	C	0.373063	-0.497380	-0.245769
C52	C	0.873063	0.002620	0.254231
C53	C	0.340401	-0.505788	-0.302223
C54	C	0.840401	-0.005788	0.197777
C55	C	0.373181	-0.514231	-0.358657
C56	C	0.873181	-0.014231	0.141343
C57	C	0.438615	-0.514251	-0.358635
C58	C	0.938615	-0.014251	0.141365
C59	C	0.471270	-0.505827	-0.302174
C60	C	0.971270	-0.005827	0.197826
C61	C	0.236752	-0.573044	-0.342263
C62	C	0.736752	-0.073044	0.157737
C63	C	0.171315	-0.573011	-0.342292
C64	C	0.671315	-0.073011	0.157708
C65	C	0.171286	-0.438428	-0.262287
C66	C	0.671286	0.061572	0.237713
C67	C	0.236721	-0.438456	-0.262264
C68	C	0.736721	0.061544	0.237736
C69	C	0.269450	-0.505769	-0.302251
C70	C	0.769450	-0.005769	0.197749
C71	C	0.905482	-0.778760	-0.302185
C72	C	1.405482	-0.278760	0.197815
C73	C	0.905523	-0.895537	-0.302200
C74	C	1.405523	-0.395537	0.197800
C75	C	0.945629	-0.950355	-0.262189
C76	C	1.445629	-0.450355	0.237811
C77	C	0.945667	-1.060079	-0.262209
C78	C	1.445667	-0.560079	0.237791
C79	C	0.865490	-1.060156	-0.342252
C80	C	1.365490	-0.560156	0.157748
C81	C	0.865455	-0.950434	-0.342235
C82	C	1.365455	-0.450434	0.157765
C83	C	0.991916	-0.950312	-0.215975
C84	C	1.491916	-0.450312	0.284025
C85	C	0.991955	-1.060036	-0.215994
C86	C	1.491955	-0.560036	0.284006
C87	C	1.068943	-0.505738	-0.302271
C88	C	1.568943	-0.005738	0.197729
C89	C	1.138584	-0.505714	-0.302303
C90	C	1.638584	-0.005714	0.197697
C91	C	0.905571	-0.505771	-0.465621
C92	C	1.405571	-0.005771	0.034379
C93	C	0.905593	-0.505762	-0.535263
C94	C	1.405593	-0.005762	-0.035263
C95	C	0.905574	-0.231759	-0.302225
C96	C	1.405574	0.268241	0.197775
C97	C	0.905597	-0.114983	-0.302236
C98	C	1.405597	0.385017	0.197764
C99	C	0.945678	-0.438550	-0.568001
C100	C	1.445678	0.061450	-0.068001
C101	C	0.945678	-0.438504	-0.633437
C102	C	1.445678	0.061496	-0.133437
C103	C	0.905598	-0.505691	-0.666131
C104	C	1.405598	-0.005691	-0.166131
C105	C	0.865505	-0.572908	-0.633384
C106	C	1.365505	-0.072908	-0.133384
C107	C	0.865503	-0.572944	-0.567950
C108	C	1.365503	-0.072944	-0.067950
C109	C	0.900638	-0.600292	-0.769799
C110	C	1.400638	-0.100292	-0.269799
C111	C	0.900645	-0.600258	-0.835232
C112	C	1.400645	-0.100258	-0.335232
C113	C	0.905602	-0.505580	-0.867952
C114	C	1.405602	-0.005580	-0.367952
C115	C	0.910566	-0.410932	-0.835230
C116	C	1.410566	0.089068	-0.335230
C117	C	0.910563	-0.410968	-0.769796
C118	C	1.410563	0.089032	-0.269796
C119	C	0.905596	-0.505659	-0.737083
C120	C	1.405596	-0.005659	-0.237083
C121	C	0.945688	-0.438312	-0.971643
C122	C	1.445688	0.061688	-0.471643
C123	C	0.945683	-0.438265	-1.037080
C124	C	1.445683	0.061735	-0.537080
C125	C	0.865514	-0.572678	-1.037026
C126	C	1.365514	-0.072678	-0.537026
C127	C	0.865516	-0.572716	-0.971591
C128	C	1.365516	-0.072716	-0.471591
C129	C	0.905607	-0.505534	-0.938903
C130	C	1.405607	-0.005534	-0.438903
C131	C	0.905503	-0.505738	-0.139410
C132	C	1.405503	-0.005738	0.360590
C133	C	0.905603	-0.505451	-0.069770
C134	C	1.405603	-0.005451	0.430230
H135	H	0.144694	-0.627796	-0.374875
H136	H	0.644694	-0.127796	0.125125
H137	H	0.346379	-0.490512	-0.199817
H138	H	0.846379	0.009488	0.300183
C139	C	0.989785	-0.364342	-1.073096
C140	C	1.489785	0.135658	-0.573096
H141	H	0.984043	-0.373936	-1.116748
H142	H	1.484043	0.126064	-0.616748
H143	H	1.031876	-0.379727	-1.062402
H144	H	1.531876	0.120273	-0.562402
H145	H	0.980637	-0.293751	-1.062364
H146	H	1.480637	0.206249	-0.562364
C147	C	0.538983	-0.647101	-0.386189
C148	C	1.038983	-0.147101	0.113811
H149	H	0.567847	-0.687177	-0.410010
H150	H	1.067847	-0.187177	0.089990
H151	H	0.513523	-0.606916	-0.413526
H152	H	1.013523	-0.106916	0.086474
H153	H	0.513393	-0.692832	-0.362211
H154	H	1.013393	-0.192832	0.137789
C155	C	0.821341	-0.890136	-0.386249
C156	C	1.321341	-0.390136	0.113751
H157	H	0.797480	-0.938548	-0.410088
H158	H	1.297480	-0.438548	0.089912
H159	H	0.845282	-0.847265	-0.413570
H160	H	1.345282	-0.347265	0.086430
H161	H	0.794035	-0.847407	-0.362237
H162	H	1.294035	-0.347407	0.137763
H163	H	0.914603	-0.333903	-0.743157
H164	H	1.414603	0.166097	-0.243157
C165	C	0.989772	-0.364571	-0.669460
C166	C	1.489772	0.135429	-0.169460
H167	H	0.984028	-0.374169	-0.713112
H168	H	1.484028	0.125831	-0.213112
H169	H	1.031866	-0.379941	-0.658769
H170	H	1.531866	0.120059	-0.158769
H171	H	0.980616	-0.293984	-0.658728
H172	H	1.480616	0.206016	-0.158728
H173	H	0.914603	-0.333836	-0.861869
H174	H	1.414603	0.166164	-0.361869
C175	C	0.821415	-1.120546	-0.386283
C176	C	1.321415	-0.620546	0.113717
H177	H	0.827177	-1.193745	-0.380561
H178	H	1.327177	-0.693745	0.119439
H179	H	0.830558	-1.102510	-0.428389
H180	H	1.330558	-0.602510	0.071611
H181	H	0.779314	-1.102650	-0.377054
H182	H	1.279314	-0.602650	0.122946
H183	H	0.832875	-0.627372	-1.063645
H184	H	1.332875	-0.127372	-0.563645
H185	H	0.465084	-0.490542	-0.199774
H186	H	0.965084	0.009458	0.300226
C187	C	0.821427	-0.646659	-0.935576
C188	C	1.321427	-0.146659	-0.435576
H189	H	0.797559	-0.686672	-0.964418
H190	H	1.297559	-0.186672	-0.464418
H191	H	0.794135	-0.606493	-0.910028
H192	H	1.294135	-0.106493	-0.410028
H193	H	0.845388	-0.692446	-0.910072
H194	H	1.345388	-0.192446	-0.410072
H195	H	1.040427	-0.920439	-0.229025
H196	H	1.540427	-0.420439	0.270975
H197	H	0.974545	-0.916349	-0.169854
H198	H	1.474545	-0.416349	0.330146
H199	H	0.896434	-0.677371	-0.743165
H200	H	1.396434	-0.177371	-0.243165
H201	H	1.038057	-1.093969	-0.233433
H202	H	1.538057	-0.593969	0.266567
H203	H	0.548270	-0.383770	-0.229585
H204	H	1.048270	0.116230	0.270415
H205	H	0.896607	-0.677325	-0.861869
H206	H	1.396607	-0.177325	-0.361869
C207	C	0.821422	-0.646816	-0.669345
C208	C	1.321422	-0.146816	-0.169345
H209	H	0.827170	-0.637177	-0.713005
H210	H	1.327170	-0.137177	-0.213005
H211	H	0.779327	-0.631463	-0.658593
H212	H	1.279327	-0.131463	-0.158593
H213	H	0.830583	-0.717412	-0.658629
H214	H	1.330583	-0.217412	-0.158629
C215	C	0.821417	-0.646896	-0.531936
C216	C	1.321417	-0.146896	-0.031936
H217	H	0.797549	-0.686911	-0.560777
H218	H	1.297549	-0.186911	-0.060777
H219	H	0.794124	-0.606740	-0.506382
H220	H	1.294124	-0.106740	-0.006382
H221	H	0.845385	-0.692681	-0.506437
H222	H	1.345385	-0.192681	-0.006437
H223	H	0.978989	-1.089879	-0.167457
H224	H	1.478989	-0.589879	0.332543
C225	C	0.989771	-0.364645	-0.532048
C226	C	1.489771	0.135355	-0.032048
H227	H	1.013641	-0.324602	-0.560922
H228	H	1.513641	0.175398	-0.060922
H229	H	1.017061	-0.404836	-0.506543
H230	H	1.517061	0.095164	-0.006543
H231	H	0.965808	-0.318883	-0.506505
H232	H	1.465808	0.181117	-0.006505
H233	H	0.978329	-0.383603	-0.945027
H234	H	1.478329	0.116397	-0.445027
C235	C	0.474673	-0.523534	-0.420704
C236	C	0.974673	-0.023534	0.079296
H237	H	0.518320	-0.522350	-0.412602
H238	H	1.018320	-0.022350	0.087398
H239	H	0.464006	-0.466446	-0.447125
H240	H	0.964006	0.033554	0.052875
H241	H	0.463945	-0.587548	-0.440675
H242	H	0.963945	-0.087548	0.059325
H243	H	0.667037	-0.627988	-0.374678
H244	H	1.167037	-0.127988	0.125322
H245	H	0.666983	-0.383793	-0.229543
H246	H	1.166983	0.116207	0.270457
C247	C	0.337265	-0.523470	-0.420761
C248	C	0.837265	-0.023470	0.079239
H249	H	0.366158	-0.528505	-0.454365
H250	H	0.866158	-0.028505	0.045635
H251	H	0.311775	-0.463260	-0.426338
H252	H	0.811775	0.036740	0.073662
H253	H	0.311709	-0.584363	-0.419897
H254	H	0.811709	-0.084363	0.080103
C255	C	0.272759	-0.647069	-0.386253
C256	C	0.772759	-0.147069	0.113747
H257	H	0.316413	-0.637454	-0.380505
H258	H	0.816413	-0.137454	0.119495
H259	H	0.262090	-0.631789	-0.428370
H260	H	0.762090	-0.131789	0.071630
H261	H	0.261994	-0.717638	-0.377014
H262	H	0.761994	-0.217638	0.122986
H263	H	0.144633	-0.383631	-0.229729
H264	H	0.644633	0.116369	0.270271
H265	H	0.263344	-0.383674	-0.229683
H266	H	0.763344	0.116326	0.270317
