data_functionalizedCrystal
_audit_creation_method	'MofGen! by Chris Wilmer'
_symmetry_space_group_name_H-M	'P1'
_symmetry_Int_Tables_number	1
_symmetry_cell_setting	triclinic
loop_
_symmetry_equiv_pos_as_xyz
  x,y,z
_cell_length_a	16.625548
_cell_length_b	19.121063
_cell_length_c	16.625539
_cell_angle_alpha	87.591339
_cell_angle_beta	90.020568
_cell_angle_gamma	92.470058
loop_
_atom_site_label
_atom_site_type_symbol
_atom_site_fract_x
_atom_site_fract_y
_atom_site_fract_z
Zn1	Zn	1.218959	-0.279593	0.469577
Zn2	Zn	1.718959	0.220407	0.969577
Zn3	Zn	1.213098	-0.397050	0.340486
Zn4	Zn	1.713098	0.102950	0.840486
Zn5	Zn	1.084119	-0.279620	0.334759
Zn6	Zn	1.584119	0.220380	0.834759
Zn7	Zn	1.078329	-0.397010	0.475274
Zn8	Zn	1.578329	0.102990	0.975274
O9	O	1.148626	-0.338318	0.405024
O10	O	1.648626	0.161682	0.905024
O11	O	1.331013	-0.295179	0.452466
O12	O	1.831013	0.204821	0.952466
O13	O	1.195959	-0.381501	0.226895
O14	O	1.695959	0.118499	0.726895
O15	O	1.106883	-0.181331	0.347862
O16	O	1.606883	0.318669	0.847862
O17	O	1.326707	-0.381475	0.357623
O18	O	1.826707	0.118525	0.857623
O19	O	1.205949	-0.181312	0.446912
O20	O	1.705949	0.318688	0.946912
O21	O	1.101199	-0.295225	0.222688
O22	O	1.601199	0.204775	0.722688
O23	O	0.970519	-0.295186	0.353386
O24	O	1.470519	0.204814	0.853386
O25	O	1.097013	-0.381406	0.587349
O26	O	1.597013	0.118594	1.087349
O27	O	0.966265	-0.381432	0.456622
O28	O	1.466265	0.118568	0.956622
O29	O	1.200333	-0.295140	0.583164
O30	O	1.700333	0.204860	1.083164
O31	O	1.190344	-0.495330	0.363147
O32	O	1.690344	0.004670	0.863147
O33	O	1.091330	-0.495300	0.462175
O34	O	1.591330	0.004700	0.962175
C35	C	0.939136	-0.338308	0.405001
C36	C	1.439136	0.161692	0.905001
C37	C	0.849514	-0.338321	0.405011
C38	C	1.349514	0.161679	0.905011
C39	C	0.521338	-0.338325	0.405046
C40	C	1.021338	0.161675	0.905046
C41	C	0.612647	-0.338322	0.405034
C42	C	1.112647	0.161678	0.905034
C43	C	0.685423	-0.338323	0.405028
C44	C	1.185423	0.161677	0.905028
C45	C	0.776738	-0.338319	0.405017
C46	C	1.276738	0.161681	0.905017
C47	C	1.139594	-0.520799	0.413918
C48	C	1.639594	-0.020799	0.913918
C49	C	1.135804	-0.598865	0.417750
C50	C	1.635804	-0.098865	0.917750
C51	C	1.185615	-0.635533	0.368035
C52	C	1.685615	-0.135533	0.868035
C53	C	1.182055	-0.708884	0.371644
C54	C	1.682055	-0.208884	0.871644
C55	C	1.128680	-0.745566	0.424964
C56	C	1.628680	-0.245566	0.924964
C57	C	1.078867	-0.708893	0.474685
C58	C	1.578867	-0.208893	0.974685
C59	C	1.082431	-0.635543	0.471080
C60	C	1.582431	-0.135543	0.971080
C61	C	1.115340	-0.967036	0.438431
C62	C	1.615340	-0.467036	0.938431
C63	C	1.111778	-1.040391	0.442031
C64	C	1.611778	-0.540391	0.942031
C65	C	1.214967	-1.040377	0.338989
C66	C	1.714967	-0.540377	0.838989
C67	C	1.218524	-0.967025	0.335386
C68	C	1.718524	-0.467025	0.835386
C69	C	1.168714	-0.930359	0.385109
C70	C	1.668714	-0.430359	0.885109
C71	C	1.125038	-0.820543	0.428653
C72	C	1.625038	-0.320543	0.928653
C73	C	1.172360	-0.855383	0.381425
C74	C	1.672360	-0.355383	0.881425
C75	C	1.358934	-0.338329	0.405048
C76	C	1.858934	0.161671	0.905048
C77	C	1.448555	-0.338333	0.405058
C78	C	1.948555	0.161667	0.905058
C79	C	1.148681	-0.338266	0.615331
C80	C	1.648681	0.161734	1.115331
C81	C	1.148705	-0.338244	0.704951
C82	C	1.648705	0.161756	1.204951
C83	C	1.157715	-0.155125	0.396113
C84	C	1.657715	0.344875	0.896113
C85	C	1.161589	-0.077059	0.392315
C86	C	1.661589	0.422941	0.892315
C87	C	1.148620	-0.338320	0.195533
C88	C	1.648620	0.161680	0.695533
C89	C	1.148763	-0.338144	0.105904
C90	C	1.648763	0.161856	0.605904
C91	C	1.148746	-0.338165	1.033123
C92	C	1.648746	0.161835	1.533123
C93	C	1.148732	-0.338189	0.941815
C94	C	1.648732	0.161811	1.441815
C95	C	1.148725	-0.338205	0.869040
C96	C	1.648725	0.161795	1.369040
C97	C	1.148711	-0.338228	0.777726
C98	C	1.648711	0.161772	1.277726
H99	H	1.229075	-0.605671	0.324612
H100	H	1.729075	-0.105671	0.824612
H101	H	1.261986	-0.937160	0.291967
H102	H	1.761986	-0.437160	0.791967
H103	H	1.035411	-0.738766	0.518104
H104	H	1.535411	-0.238766	1.018104
H105	H	1.222616	-0.738735	0.331159
H106	H	1.722616	-0.238735	0.831159
H107	H	1.041871	-0.605689	0.511565
H108	H	1.541871	-0.105689	1.011565
H109	H	1.255521	-1.070238	0.298508
H110	H	1.755521	-0.570238	0.798508
H111	H	1.215822	-0.825515	0.338014
H112	H	1.715822	-0.325515	0.838014
H113	H	1.068323	-1.070256	0.485465
H114	H	1.568323	-0.570256	0.985465
H115	H	1.074781	-0.937188	0.478917
H116	H	1.574781	-0.437188	0.978917
H117	H	1.081578	-0.850418	0.472065
H118	H	1.581578	-0.350418	0.972065
