data_functionalizedCrystal
_audit_creation_method	'MofGen! by Chris Wilmer'
_symmetry_space_group_name_H-M	'P1'
_symmetry_Int_Tables_number	1
_symmetry_cell_setting	triclinic
loop_
_symmetry_equiv_pos_as_xyz
  x,y,z
_cell_length_a	17.038272
_cell_length_b	17.019294
_cell_length_c	16.098538
_cell_angle_alpha	88.846036
_cell_angle_beta	87.069734
_cell_angle_gamma	87.244363
loop_
_atom_site_label
_atom_site_type_symbol
_atom_site_fract_x
_atom_site_fract_y
_atom_site_fract_z
O1	O	1.041327	0.167431	-0.081157
O2	O	0.813690	0.164719	-0.080987
O3	O	0.933445	0.052057	-0.072891
O4	O	0.921573	0.280093	-0.089254
O5	O	0.926449	0.058611	0.065151
O6	O	0.806695	0.171273	0.057055
O7	O	1.034332	0.173985	0.056885
Zn8	Zn	0.919402	0.173669	0.078887
Zn9	Zn	0.928619	0.165035	-0.102989
O10	O	0.914577	0.286647	0.048788
C11	C	0.781057	0.165531	-0.011792
C12	C	0.694245	0.158175	-0.011274
C13	C	0.929359	0.026012	-0.001768
C14	C	0.927597	-0.061357	0.004496
C15	C	0.644318	0.225705	-0.016119
C16	C	0.562747	0.218790	-0.015612
C17	C	0.531106	0.144344	-0.010265
C18	C	0.581039	0.076809	-0.005417
C19	C	0.662607	0.083725	-0.005919
C20	C	0.285279	0.119910	-0.008489
C21	C	0.203704	0.112999	-0.007990
C22	C	0.185418	0.254981	-0.018183
C23	C	0.266989	0.261890	-0.018690
C24	C	0.316915	0.194355	-0.013838
C25	C	0.447728	0.137273	-0.009748
C26	C	0.400291	0.201427	-0.014348
C27	C	0.930585	-0.105972	-0.067808
C28	C	0.928924	-0.188065	-0.061920
C29	C	0.924282	-0.225542	0.016272
C30	C	0.921292	-0.180921	0.088581
C31	C	0.922947	-0.098830	0.082692
C32	C	0.919090	-0.473227	0.037815
C33	C	0.917437	-0.555325	0.043698
C34	C	0.925068	-0.562462	-0.106803
C35	C	0.926727	-0.480369	-0.112685
C36	C	0.923733	-0.435755	-0.040376
C37	C	0.922587	-0.309454	0.022292
C38	C	0.925422	-0.351844	-0.046397
C39	C	1.066964	0.173173	-0.012312
C40	C	1.153777	0.180529	-0.012835
C41	C	0.918663	0.312692	-0.022336
C42	C	0.920425	0.400061	-0.028605
N43	N	0.913118	0.179562	0.203013
N44	N	0.934910	0.159136	-0.227115
C45	C	0.963965	0.131763	0.250033
C46	C	0.959576	0.135893	0.336925
C47	C	0.904343	0.187827	0.376795
C48	C	0.853490	0.235628	0.329769
C49	C	0.857876	0.231493	0.242878
C50	C	0.888443	0.202802	0.638969
C51	C	0.884063	0.206935	0.725865
C52	C	0.990148	0.107199	0.733016
C53	C	0.994532	0.103072	0.646123
C54	C	0.943677	0.150870	0.599105
C55	C	0.899857	0.192052	0.465613
C56	C	0.948160	0.146641	0.510289
H57	H	0.670073	0.286327	-0.020474
C58	C	0.301782	0.343788	-0.024562
C59	C	0.279392	0.404800	0.042990
C60	C	0.314181	0.486700	0.037116
C61	C	0.371360	0.507588	-0.036310
C62	C	0.393753	0.446575	-0.103868
C63	C	0.358964	0.364674	-0.097994
H64	H	0.237063	0.389339	0.097349
H65	H	0.297604	0.531866	0.087127
H66	H	0.397113	0.568216	-0.040658
H67	H	0.436083	0.462036	-0.158227
H68	H	0.375541	0.319508	-0.148005
H69	H	0.930509	-0.449861	-0.176357
H70	H	0.934369	-0.075464	-0.131480
H71	H	0.931360	-0.224386	-0.120798
H72	H	0.993128	0.104353	0.477825
C73	C	0.928351	-0.611538	-0.186339
C74	C	0.996096	-0.673347	-0.202669
C75	C	0.999375	-0.722423	-0.282208
C76	C	0.934908	-0.709690	-0.345417
C77	C	0.867157	-0.647878	-0.329087
C78	C	0.863879	-0.598802	-0.249548
H79	H	1.043823	-0.682775	-0.155877
H80	H	1.049528	-0.768180	-0.294296
H81	H	0.937335	-0.746019	-0.404296
H82	H	0.819431	-0.638450	-0.375879
H83	H	0.813725	-0.553045	-0.237461
H84	H	0.918810	-0.339977	0.085956
H85	H	0.913653	-0.585836	0.107375
C86	C	1.024723	0.074634	0.206180
C87	C	1.080650	0.022053	0.257907
C88	C	1.141409	-0.035080	0.214058
C89	C	1.146240	-0.039631	0.118482
C90	C	1.090311	0.012951	0.066750
C91	C	1.029553	0.070084	0.110599
H92	H	1.077076	0.025421	0.328662
H93	H	1.182811	-0.074005	0.252354
H94	H	1.191217	-0.081924	0.086022
H95	H	1.093885	0.009584	-0.004006
H96	H	0.988150	0.109009	0.072303
H97	H	0.916667	-0.436913	0.096695
C98	C	0.340194	0.045625	-0.003159
C99	C	0.402411	0.027452	-0.073780
C100	C	0.457333	-0.046836	-0.068450
C101	C	0.450037	-0.102950	0.007502
C102	C	0.387817	-0.084777	0.078129
C103	C	0.332896	-0.010490	0.072799
H104	H	0.407815	0.068992	-0.130009
H105	H	0.503392	-0.060288	-0.120733
H106	H	0.490693	-0.157942	0.011448
H107	H	0.382414	-0.126317	0.134359
H108	H	0.286836	0.002962	0.125082
C109	C	0.801944	0.284075	0.191153
C110	C	0.741216	0.341230	0.235004
C111	C	0.685279	0.393810	0.183280
C112	C	0.690071	0.389235	0.087706
C113	C	0.750802	0.332077	0.043851
C114	C	0.806738	0.279497	0.095574
H115	H	0.737666	0.344619	0.305758
H116	H	0.640322	0.436122	0.215746
H117	H	0.648663	0.428158	0.049418
H118	H	0.754351	0.328688	-0.026903
H119	H	0.851695	0.237185	0.063109
H120	H	0.917507	-0.211442	0.152246
H121	H	0.522100	0.273780	-0.019558
H122	H	0.920503	-0.062505	0.141570
H123	H	0.929197	-0.321326	-0.110060
C124	C	1.055285	0.045943	0.602263
C125	C	1.053152	-0.043096	0.620643
C126	C	1.113907	-0.100223	0.576780
C127	C	1.176794	-0.068311	0.514537
C128	C	1.178930	0.020732	0.496155
C129	C	1.118176	0.077859	0.540018
H130	H	1.006596	-0.066724	0.666721
H131	H	1.112325	-0.166139	0.590388
H132	H	1.221769	-0.110600	0.482067
H133	H	1.225486	0.044360	0.450077
H134	H	1.119757	0.143776	0.526410
H135	H	1.000979	0.096971	0.375209
C136	C	1.046081	0.054617	0.784736
C137	C	1.012364	-0.004724	0.848942
C138	C	1.068298	-0.057311	0.900662
C139	C	1.157948	-0.050557	0.888177
C140	C	1.191670	0.008787	0.823968
C141	C	1.135736	0.061374	0.772248
H142	H	0.945996	-0.009725	0.858187
H143	H	1.043335	-0.101241	0.948193
H144	H	1.199354	-0.089485	0.926463
H145	H	1.258038	0.013789	0.814724
H146	H	1.160699	0.105304	0.724717
H147	H	0.839083	0.249229	0.758323
H148	H	0.144760	0.309964	-0.022132
H149	H	0.177946	0.052373	-0.003637
H150	H	0.847036	0.241723	0.600693
H151	H	0.421955	0.076660	-0.005371
H152	H	0.808514	0.277911	0.362236
H153	H	0.426057	0.262041	-0.018697
H154	H	0.555270	0.016193	-0.001051
H155	H	0.703258	0.028734	-0.001974
H156	H	0.854886	0.234339	0.498082
