data_functionalizedCrystal
_audit_creation_method	'MofGen! by Chris Wilmer'
_symmetry_space_group_name_H-M	'P1'
_symmetry_Int_Tables_number	1
_symmetry_cell_setting	triclinic
loop_
_symmetry_equiv_pos_as_xyz
  x,y,z
_cell_length_a	19.377372
_cell_length_b	18.760492
_cell_length_c	19.376995
_cell_angle_alpha	68.964602
_cell_angle_beta	104.023851
_cell_angle_gamma	72.113745
loop_
_atom_site_label
_atom_site_type_symbol
_atom_site_fract_x
_atom_site_fract_y
_atom_site_fract_z
Zr1	Zr	0.538605	0.977109	-0.192011
O2	O	0.422154	1.083246	-0.284545
O3	O	0.574303	0.841451	-0.163641
O4	O	0.543050	0.978731	-0.306640
O5	O	0.478060	0.954981	-0.028750
O6	O	0.638415	1.013590	-0.324071
O7	O	0.453407	0.945966	-0.141547
O8	O	0.694321	0.768022	-0.068273
O9	O	0.422155	1.200550	-0.284548
O10	O	0.660698	0.934198	-0.164554
O11	O	0.607927	0.914910	-0.067366
O12	O	0.571130	1.076539	-0.235729
O13	O	0.518359	1.057252	-0.138541
Zr14	Zr	0.730020	1.047084	-0.039914
Zr15	Zr	0.690701	1.032706	-0.219812
Zr16	Zr	0.577924	0.991486	-0.012113
Zr17	Zr	0.538606	1.164195	-0.192015
Zr18	Zr	0.730020	0.859998	-0.039910
O19	O	0.694322	1.182742	-0.068283
O20	O	0.638416	1.162299	-0.324075
O21	O	0.478061	1.103689	-0.028754
O22	O	0.846471	0.940946	0.052620
O23	O	0.790565	0.920503	-0.203171
O24	O	0.630209	0.861894	0.092150
O25	O	0.790565	1.069211	-0.203175
O26	O	0.725575	1.045462	0.074715
O27	O	0.630210	1.010602	0.092147
O28	O	0.815218	1.078226	-0.090378
O29	O	0.543051	1.244743	-0.306646
O30	O	0.725574	0.779450	0.074722
O31	O	0.846471	0.823642	0.052623
O32	O	0.815217	0.812214	-0.090372
O33	O	0.453408	1.211978	-0.141553
O34	O	0.574305	1.256171	-0.163652
O35	O	0.697495	0.947653	0.003804
O36	O	0.750267	0.966941	-0.093384
O37	O	0.660699	1.109283	-0.164559
O38	O	0.607927	1.089995	-0.067371
C39	C	0.634312	0.778080	-0.115957
C40	C	0.634311	0.698657	-0.115955
C41	C	0.444063	0.942552	-0.081187
C42	C	0.379494	0.918950	-0.069385
C43	C	0.700432	0.620889	-0.063411
C44	C	0.568192	0.701798	-0.168501
C45	C	0.568191	0.627178	-0.168504
C46	C	0.634312	0.549410	-0.115961
C47	C	0.700434	0.546262	-0.063414
C48	C	0.502073	0.630321	-0.221055
C49	C	0.502069	0.555699	-0.221061
C50	C	0.568189	0.477928	-0.168513
C51	C	0.634314	0.474782	-0.115964
C52	C	0.700435	0.397014	-0.063421
C53	C	0.766558	0.393866	-0.010867
C54	C	0.766554	0.468491	-0.010866
C55	C	0.568193	0.403303	-0.168513
C56	C	0.700436	0.322387	-0.063424
C57	C	-0.066628	1.212819	-0.216331
C58	C	-0.127288	1.190621	-0.205230
C59	C	-0.033776	1.042028	-0.130930
C60	C	0.026894	1.064213	-0.142021
C61	C	0.010461	1.149610	-0.184723
C62	C	0.103982	1.001004	-0.110413
C63	C	0.164646	1.023188	-0.121507
C64	C	0.148221	1.108581	-0.164209
C65	C	0.071124	1.171794	-0.195817
C66	C	0.120412	0.915607	-0.067716
C67	C	0.197501	0.852398	-0.036108
C68	C	0.258167	0.874582	-0.047197
C69	C	0.241742	0.959975	-0.089899
C70	C	0.335263	0.811369	-0.015589
C71	C	0.395927	0.833553	-0.026683
C72	C	0.302405	0.982159	-0.100993
C73	C	0.824562	1.081640	-0.150738
C74	C	0.889131	1.105243	-0.162540
C75	C	0.585131	0.994112	-0.340987
C76	C	0.568439	0.988008	-0.417359
C77	C	0.634314	1.246112	-0.115968
C78	C	0.634314	1.325535	-0.115970
C79	C	0.492377	0.960203	-0.515400
C80	C	0.508068	0.965940	-0.443638
C81	C	0.613140	1.004353	-0.462839
C82	C	0.597455	0.998623	-0.534606
C83	C	0.537073	0.976547	-0.560880
C84	C	0.642151	1.014966	-0.580085
C85	C	0.626471	1.009232	-0.651844
C86	C	0.566093	0.987155	-0.678122
C87	C	0.521393	0.970813	-0.632638
C88	C	0.702537	1.037036	-0.553807
C89	C	0.747233	1.053380	-0.599287
C90	C	0.731549	1.047652	-0.671050
C91	C	0.671171	1.025574	-0.697328
C92	C	0.776249	1.063994	-0.716534
C93	C	0.760568	1.058260	-0.788292
C94	C	0.655490	1.019840	-0.769086
C95	C	0.683495	1.030080	0.109063
C96	C	0.700187	1.036184	0.185434
C97	C	0.824561	0.847624	-0.150732
C98	C	0.889130	0.791804	-0.162532
C99	C	0.683494	0.796064	0.109068
C100	C	0.700185	0.722745	0.185442
C101	C	0.873743	0.865608	0.074293
C102	C	0.955004	0.815892	0.138864
C103	C	0.394882	1.158584	-0.306218
C104	C	0.313621	1.208301	-0.370789
C105	C	0.444064	1.176568	-0.081193
C106	C	0.379495	1.232388	-0.069393
C107	C	0.585132	1.228128	-0.340993
C108	C	0.568440	1.301447	-0.417366
C109	C	0.872697	0.748498	-0.205231
C110	C	0.933356	0.696056	-0.216335
C111	C	1.010450	0.686916	-0.184734
C112	C	1.026882	0.730229	-0.142033
C113	C	0.966222	0.782675	-0.130935
C114	C	0.754779	0.705406	0.258465
C115	C	0.770462	0.636525	0.330233
C116	C	0.731553	0.584980	0.328975
C117	C	0.676953	0.602325	0.255945
C118	C	0.661267	0.671208	0.184179
C119	C	1.020717	0.802615	0.118455
C120	C	1.097075	0.755913	0.179118
C121	C	1.107717	0.722483	0.260190
C122	C	1.041996	0.735765	0.280599
C123	C	0.965640	0.782471	0.219936
C124	C	0.247908	1.221587	-0.350380
C125	C	0.171551	1.268312	-0.411043
C126	C	0.160909	1.301745	-0.492115
C127	C	0.226629	1.288459	-0.512524
C128	C	0.302985	1.241739	-0.451861
C129	C	0.395927	1.275702	-0.026701
C130	C	0.335263	1.328163	-0.015617
C131	C	0.258169	1.337305	-0.047221
C132	C	0.241738	1.293989	-0.089918
C133	C	0.302400	1.241533	-0.101006
C134	C	0.607361	1.352973	-0.416083
C135	C	0.591693	1.421860	-0.487840
C136	C	0.537099	1.439223	-0.560878
C137	C	0.498177	1.387690	-0.562159
C138	C	0.513850	1.318801	-0.490404
H139	H	0.754279	0.259067	-0.020633
H140	H	0.458697	1.268264	-0.000958
Br141	Br	0.175850	1.408499	-0.032165
H142	H	1.169895	0.684453	0.309578
Br143	Br	0.768075	0.760890	-0.248130
Br144	Br	0.410418	0.930259	-0.551069
Br145	Br	0.911038	0.637281	-0.274285
H146	H	0.651816	1.338848	-0.356619
Br147	Br	0.856294	0.288319	0.060432
H148	H	0.197618	1.126641	-0.173243
H149	H	0.514362	0.765120	-0.211284
Br150	Br	0.500551	0.747769	0.016207
Br151	Br	1.092766	0.615735	-0.199803
H152	H	0.118047	1.279120	-0.394410
Br153	Br	0.461013	1.248885	-0.492159
H154	H	0.178960	1.301441	-0.115647
Br155	Br	1.056452	0.690391	0.390630
Br156	Br	0.357581	1.386937	0.042333
H157	H	0.098731	1.339785	-0.541503
Br158	Br	0.876463	0.800479	0.247649
Br159	Br	0.544816	0.979364	-0.775505
H160	H	0.754267	0.618330	-0.020621
Br161	Br	-0.231916	1.276414	-0.248144
Br162	Br	0.262329	1.176219	-0.240359
H163	H	0.616815	0.685315	0.124723
Br164	Br	0.829180	1.083333	-0.563622
H165	H	1.012067	0.829827	0.052446
Br166	Br	1.186254	0.737896	0.151403
H167	H	0.820389	0.465937	0.031919
Br168	Br	0.723821	1.044808	-0.456415
H169	H	0.217955	1.315686	-0.578540
Br170	Br	0.392162	1.223710	-0.479574
H171	H	0.471667	0.952628	-0.406610
Br172	Br	1.131514	0.717813	-0.099148
H173	H	0.645278	0.560347	0.254933
Br174	Br	0.515837	1.532721	-0.658253
H175	H	0.514359	0.405870	-0.211306
Br176	Br	0.280086	1.182751	-0.158944
H177	H	0.979614	0.817929	-0.096161
H178	H	0.796966	1.071567	-0.825322
H179	H	0.786467	0.747368	0.259504
H180	H	0.814924	0.622414	0.389690
H181	H	0.071012	0.897548	-0.058690
H182	H	-0.020408	0.972498	-0.096164
Br183	Br	0.752850	0.491498	0.426381
H184	H	0.448243	0.693644	-0.263838
H185	H	0.448227	0.558270	-0.263853
H186	H	0.453725	1.401838	-0.621636
Br187	Br	0.858203	1.093936	-0.680861
H188	H	0.623390	1.463813	-0.486780
H189	H	0.289028	1.051699	-0.135741
H190	H	0.210869	0.782868	-0.001342
H191	H	-0.080005	1.282360	-0.251079
Br192	Br	0.357550	0.695477	0.042349
Br193	Br	0.048832	1.287693	-0.253757
H194	H	0.606316	1.001873	-0.790483
H195	H	0.662305	1.022324	-0.441437
Br196	Br	0.439434	0.940868	-0.668307
