data_functionalizedCrystal
_audit_creation_method	'MofGen! by Chris Wilmer'
_symmetry_space_group_name_H-M	'P1'
_symmetry_Int_Tables_number	1
_symmetry_cell_setting	triclinic
loop_
_symmetry_equiv_pos_as_xyz
  x,y,z
_cell_length_a	21.395364
_cell_length_b	18.215405
_cell_length_c	21.395355
_cell_angle_alpha	90.018720
_cell_angle_beta	90.024727
_cell_angle_gamma	90.022153
loop_
_atom_site_label
_atom_site_type_symbol
_atom_site_fract_x
_atom_site_fract_y
_atom_site_fract_z
Zn1	Zn	0.957889	-0.293102	0.354263
Zn2	Zn	1.207889	-0.043102	0.604263
Zn3	Zn	1.457889	0.206898	0.854263
Zn4	Zn	1.707889	0.456898	1.104263
Zn5	Zn	0.957804	-0.416151	0.249486
Zn6	Zn	1.207804	-0.166151	0.499486
Zn7	Zn	1.457804	0.083849	0.749486
Zn8	Zn	1.707804	0.333849	0.999486
Zn9	Zn	0.853104	-0.293099	0.249500
Zn10	Zn	1.103104	-0.043099	0.499500
Zn11	Zn	1.353104	0.206901	0.749500
Zn12	Zn	1.603104	0.456901	0.999500
Zn13	Zn	0.853086	-0.416128	0.354225
Zn14	Zn	1.103086	-0.166128	0.604225
Zn15	Zn	1.353086	0.083872	0.854225
Zn16	Zn	1.603086	0.333872	1.104225
O17	O	0.905471	-0.354620	0.301869
O18	O	1.155471	-0.104620	0.551869
O19	O	1.405471	0.145380	0.801869
O20	O	1.655471	0.395380	1.051869
O21	O	1.045556	-0.309436	0.340374
O22	O	1.295556	-0.059436	0.590374
O23	O	1.545556	0.190564	0.840374
O24	O	1.795556	0.440564	1.090374
O25	O	0.943888	-0.399835	0.161810
O26	O	1.193888	-0.149835	0.411810
O27	O	1.443888	0.100165	0.661810
O28	O	1.693888	0.350165	0.911810
O29	O	0.867047	-0.190115	0.263419
O30	O	1.117047	0.059885	0.513419
O31	O	1.367047	0.309885	0.763419
O32	O	1.617047	0.559885	1.013419
O33	O	1.045493	-0.399839	0.263395
O34	O	1.295493	-0.149839	0.513395
O35	O	1.545493	0.100161	0.763395
O36	O	1.795493	0.350161	1.013395
O37	O	0.944032	-0.190118	0.340388
O38	O	1.194032	0.059882	0.590388
O39	O	1.444032	0.309882	0.840388
O40	O	1.694032	0.559882	1.090388
O41	O	0.866965	-0.309430	0.161820
O42	O	1.116965	-0.059430	0.411820
O43	O	1.366965	0.190570	0.661820
O44	O	1.616965	0.440570	0.911820
O45	O	0.765424	-0.309408	0.263382
O46	O	1.015424	-0.059408	0.513382
O47	O	1.265424	0.190592	0.763382
O48	O	1.515424	0.440592	1.013382
O49	O	0.867016	-0.399800	0.441908
O50	O	1.117016	-0.149800	0.691908
O51	O	1.367016	0.100200	0.941908
O52	O	1.617016	0.350200	1.191908
O53	O	0.765410	-0.399797	0.340323
O54	O	1.015410	-0.149797	0.590323
O55	O	1.265410	0.100203	0.840323
O56	O	1.515410	0.350203	1.090323
O57	O	0.944015	-0.309414	0.441936
O58	O	1.194015	-0.059414	0.691936
O59	O	1.444015	0.190586	0.941936
O60	O	1.694015	0.440586	1.191936
O61	O	0.943870	-0.519132	0.263358
O62	O	1.193870	-0.269132	0.513358
O63	O	1.443870	-0.019132	0.763358
O64	O	1.693870	0.230868	1.013358
O65	O	0.866934	-0.519115	0.340310
O66	O	1.116934	-0.269115	0.590310
O67	O	1.366934	-0.019115	0.840310
O68	O	1.616934	0.230885	1.090310
C69	C	0.742683	-0.354600	0.301851
C70	C	0.992683	-0.104600	0.551851
C71	C	1.242683	0.145400	0.801851
C72	C	1.492683	0.395400	1.051851
C73	C	0.673042	-0.354610	0.301858
C74	C	0.923042	-0.104610	0.551858
C75	C	1.173042	0.145390	0.801858
C76	C	1.423042	0.395390	1.051858
C77	C	0.171255	-0.401772	0.341893
C78	C	0.421255	-0.151772	0.591893
C79	C	0.671255	0.098228	0.841893
C80	C	0.921255	0.348228	1.091893
C81	C	0.236691	-0.401772	0.341887
C82	C	0.486691	-0.151772	0.591887
C83	C	0.736691	0.098228	0.841887
C84	C	0.986691	0.348228	1.091887
C85	C	0.269404	-0.354636	0.301888
C86	C	0.519404	-0.104636	0.551888
C87	C	0.769404	0.145364	0.801888
C88	C	1.019404	0.395364	1.051888
C89	C	0.236676	-0.307510	0.261882
C90	C	0.486676	-0.057510	0.511882
C91	C	0.736676	0.192490	0.761882
C92	C	0.986676	0.442490	1.011882
C93	C	0.171242	-0.307516	0.261886
C94	C	0.421242	-0.057516	0.511886
C95	C	0.671242	0.192484	0.761886
C96	C	0.921242	0.442484	1.011886
C97	C	0.373086	-0.288313	0.297037
C98	C	0.623086	-0.038313	0.547037
C99	C	0.873086	0.211687	0.797037
C100	C	1.123086	0.461687	1.047037
C101	C	0.438519	-0.288306	0.297038
C102	C	0.688519	-0.038306	0.547038
C103	C	0.938519	0.211694	0.797038
C104	C	1.188519	0.461694	1.047038
C105	C	0.471224	-0.354617	0.301875
C106	C	0.721224	-0.104617	0.551875
C107	C	0.971224	0.145383	0.801875
C108	C	1.221224	0.395383	1.051875
C109	C	0.438489	-0.420937	0.306723
C110	C	0.688489	-0.170937	0.556723
C111	C	0.938489	0.079063	0.806723
C112	C	1.188489	0.329063	1.056723
C113	C	0.373055	-0.420944	0.306726
C114	C	0.623055	-0.170944	0.556726
C115	C	0.873055	0.079056	0.806726
C116	C	1.123055	0.329056	1.056726
C117	C	0.340356	-0.354624	0.301880
C118	C	0.590356	-0.104624	0.551880
C119	C	0.840356	0.145376	0.801880
C120	C	1.090356	0.395376	1.051880
C121	C	0.574897	-0.401744	0.341868
C122	C	0.824897	-0.151744	0.591868
C123	C	1.074897	0.098256	0.841868
C124	C	1.324897	0.348256	1.091868
C125	C	0.640333	-0.401745	0.341857
C126	C	0.890333	-0.151745	0.591857
C127	C	1.140333	0.098255	0.841857
C128	C	1.390333	0.348255	1.091857
C129	C	0.640317	-0.307476	0.261856
C130	C	0.890317	-0.057476	0.511856
C131	C	1.140317	0.192524	0.761856
C132	C	1.390317	0.442524	1.011856
C133	C	0.574882	-0.307482	0.261864
C134	C	0.824882	-0.057482	0.511864
C135	C	1.074882	0.192518	0.761864
C136	C	1.324882	0.442518	1.011864
C137	C	0.542176	-0.354614	0.301873
C138	C	0.792176	-0.104614	0.551873
C139	C	1.042176	0.145386	0.801873
C140	C	1.292176	0.395386	1.051873
C141	C	0.905408	-0.545826	0.301842
C142	C	1.155408	-0.295826	0.551842
C143	C	1.405408	-0.045826	0.801842
C144	C	1.655408	0.204174	1.051842
C145	C	0.905438	-0.627625	0.301851
C146	C	1.155438	-0.377625	0.551851
C147	C	1.405438	-0.127625	0.801851
C148	C	1.655438	0.122375	1.051851
C149	C	0.945616	-0.892667	0.261867
C150	C	1.195616	-0.642667	0.511867
C151	C	1.445616	-0.392667	0.761867
C152	C	1.695616	-0.142667	1.011867
C153	C	0.945590	-0.815808	0.261852
C154	C	1.195590	-0.565808	0.511852
C155	C	1.445590	-0.315808	0.761852
C156	C	1.695590	-0.065808	1.011852
C157	C	0.865403	-0.815832	0.341913
C158	C	1.115403	-0.565832	0.591913
C159	C	1.365403	-0.315832	0.841913
C160	C	1.615403	-0.065832	1.091913
C161	C	0.865426	-0.892689	0.341923
C162	C	1.115426	-0.642689	0.591923
C163	C	1.365426	-0.392689	0.841923
C164	C	1.615426	-0.142689	1.091923
C165	C	0.905536	-0.931105	0.301901
C166	C	1.155536	-0.681105	0.551901
C167	C	1.405536	-0.431105	0.801901
C168	C	1.655536	-0.181105	1.051901
C169	C	0.905487	-0.777389	0.301876
C170	C	1.155487	-0.527389	0.551876
C171	C	1.405487	-0.277389	0.801876
C172	C	1.655487	-0.027389	1.051876
C173	C	0.905459	-0.694055	0.301861
C174	C	1.155459	-0.444055	0.551861
C175	C	1.405459	-0.194055	0.801861
C176	C	1.655459	0.055945	1.051861
C177	C	0.905564	-1.014444	0.301916
C178	C	1.155564	-0.764444	0.551916
C179	C	1.405564	-0.514444	0.801916
C180	C	1.655564	-0.264444	1.051916
C181	C	1.068894	-0.354640	0.301887
C182	C	1.318894	-0.104640	0.551887
C183	C	1.568894	0.145360	0.801887
C184	C	1.818894	0.395360	1.051887
C185	C	1.138535	-0.354649	0.301895
C186	C	1.388535	-0.104649	0.551895
C187	C	1.638535	0.145351	0.801895
C188	C	1.888535	0.395351	1.051895
C189	C	0.905523	-0.354605	0.465292
C190	C	1.155523	-0.104605	0.715292
C191	C	1.405523	0.145395	0.965292
C192	C	1.655523	0.395395	1.215292
C193	C	0.905545	-0.354599	0.534933
C194	C	1.155545	-0.104599	0.784933
C195	C	1.405545	0.145401	1.034933
C196	C	1.655545	0.395401	1.284933
C197	C	0.905551	-0.162667	0.301909
C198	C	1.155551	0.087333	0.551909
C199	C	1.405551	0.337333	0.801909
C200	C	1.655551	0.587333	1.051909
C201	C	0.905585	-0.080868	0.301927
C202	C	1.155585	0.169132	0.551927
C203	C	1.405585	0.419132	0.801927
C204	C	1.655585	0.669132	1.051927
C205	C	0.905455	-0.354582	0.139081
C206	C	1.155455	-0.104582	0.389081
C207	C	1.405455	0.145418	0.639081
C208	C	1.655455	0.395418	0.889081
C209	C	0.905554	-0.354381	0.069440
C210	C	1.155554	-0.104381	0.319440
C211	C	1.405554	0.145619	0.569440
C212	C	1.655554	0.395619	0.819440
C213	C	0.945636	-0.307532	0.567662
C214	C	1.195636	-0.057532	0.817662
C215	C	1.445636	0.192468	1.067662
C216	C	1.695636	0.442468	1.317662
C217	C	0.945635	-0.307501	0.633097
C218	C	1.195635	-0.057501	0.883097
C219	C	1.445635	0.192499	1.133097
C220	C	1.695635	0.442499	1.383097
C221	C	0.905550	-0.354549	0.665802
C222	C	1.155550	-0.104549	0.915802
C223	C	1.405550	0.145451	1.165802
C224	C	1.655550	0.395451	1.415802
C225	C	0.865451	-0.401618	0.633065
C226	C	1.115451	-0.151618	0.883065
C227	C	1.365451	0.098382	1.133065
C228	C	1.615451	0.348382	1.383065
C229	C	0.865448	-0.401643	0.567631
C230	C	1.115448	-0.151643	0.817631
C231	C	1.365448	0.098357	1.067631
C232	C	1.615448	0.348357	1.317631
C233	C	0.900581	-0.420812	0.769467
C234	C	1.150581	-0.170812	1.019467
C235	C	1.400581	0.079188	1.269467
C236	C	1.650581	0.329188	1.519467
C237	C	0.900587	-0.420789	0.834900
C238	C	1.150587	-0.170789	1.084900
C239	C	1.400587	0.079211	1.334900
C240	C	1.650587	0.329211	1.584900
C241	C	0.905554	-0.354471	0.867622
C242	C	1.155554	-0.104471	1.117622
C243	C	1.405554	0.145529	1.367622
C244	C	1.655554	0.395529	1.617622
C245	C	0.910526	-0.288175	0.834904
C246	C	1.160526	-0.038175	1.084904
C247	C	1.410526	0.211825	1.334904
C248	C	1.660526	0.461825	1.584904
C249	C	0.910524	-0.288200	0.769470
C250	C	1.160524	-0.038200	1.019470
C251	C	1.410524	0.211800	1.269470
C252	C	1.660524	0.461800	1.519470
C253	C	0.905548	-0.354526	0.736754
C254	C	1.155548	-0.104526	0.986754
C255	C	1.405548	0.145474	1.236754
C256	C	1.655548	0.395474	1.486754
C257	C	0.945646	-0.307366	0.971304
C258	C	1.195646	-0.057366	1.221304
C259	C	1.445646	0.192634	1.471304
C260	C	1.695646	0.442634	1.721304
C261	C	0.945641	-0.307333	1.036740
C262	C	1.195641	-0.057333	1.286740
C263	C	1.445641	0.192667	1.536740
C264	C	1.695641	0.442667	1.786740
C265	C	0.865459	-0.401457	1.036707
C266	C	1.115459	-0.151457	1.286707
C267	C	1.365459	0.098543	1.536707
C268	C	1.615459	0.348543	1.786707
C269	C	0.865461	-0.401483	0.971271
C270	C	1.115461	-0.151483	1.221271
C271	C	1.365461	0.098517	1.471271
C272	C	1.615461	0.348517	1.721271
C273	C	0.905558	-0.354439	0.938574
C274	C	1.155558	-0.104439	1.188574
C275	C	1.405558	0.145561	1.438574
C276	C	1.655558	0.395561	1.688574
H277	H	0.548241	-0.269107	0.229295
H278	H	0.798241	-0.019107	0.479295
H279	H	1.048241	0.230893	0.729295
H280	H	1.298241	0.480893	0.979295
H281	H	0.978292	-0.269056	0.944680
H282	H	1.228292	-0.019056	1.194680
H283	H	1.478292	0.230944	1.444680
H284	H	1.728292	0.480944	1.694680
H285	H	0.978285	-0.269224	0.541043
H286	H	1.228285	-0.019224	0.791043
H287	H	1.478285	0.230776	1.041043
H288	H	1.728285	0.480776	1.291043
H289	H	0.832786	-0.923986	0.374526
H290	H	1.082786	-0.673986	0.624526
H291	H	1.332786	-0.423986	0.874526
H292	H	1.582786	-0.173986	1.124526
H293	H	0.978276	-0.923942	0.229278
H294	H	1.228276	-0.673942	0.479278
H295	H	1.478276	-0.423942	0.729278
H296	H	1.728276	-0.173942	0.979278
H297	H	0.896542	-0.474771	0.861534
H298	H	1.146542	-0.224771	1.111534
H299	H	1.396542	0.025229	1.361534
H300	H	1.646542	0.275229	1.611534
Cl301	Cl	0.815044	-0.460818	0.526484
Cl302	Cl	1.065044	-0.210818	0.776484
Cl303	Cl	1.315044	0.039182	1.026484
Cl304	Cl	1.565044	0.289182	1.276484
Cl305	Cl	0.814988	-0.767533	0.392229
Cl306	Cl	1.064988	-0.517533	0.642229
Cl307	Cl	1.314988	-0.267533	0.892229
Cl308	Cl	1.564988	-0.017533	1.142229
Cl309	Cl	0.533777	-0.460998	0.392161
Cl310	Cl	0.783777	-0.210998	0.642161
Cl311	Cl	1.033777	0.039002	0.892161
Cl312	Cl	1.283777	0.289002	1.142161
Cl313	Cl	0.479665	-0.204932	0.290953
Cl314	Cl	0.729665	0.045068	0.540953
Cl315	Cl	0.979665	0.295068	0.790953
Cl316	Cl	1.229665	0.545068	1.040953
H317	H	0.666973	-0.440123	0.374427
H318	H	0.916973	-0.190123	0.624427
H319	H	1.166973	0.059877	0.874427
H320	H	1.416973	0.309877	1.124427
Cl321	Cl	0.996056	-0.248170	1.077886
Cl322	Cl	1.246056	0.001830	1.327886
Cl323	Cl	1.496056	0.251830	1.577886
Cl324	Cl	1.746056	0.501830	1.827886
H325	H	0.978226	-0.784514	0.229252
H326	H	1.228226	-0.534514	0.479252
H327	H	1.478226	-0.284514	0.729252
H328	H	1.728226	-0.034514	0.979252
Cl329	Cl	0.815055	-0.460761	0.674178
Cl330	Cl	1.065055	-0.210761	0.924178
Cl331	Cl	1.315055	0.039239	1.174178
Cl332	Cl	1.565055	0.289239	1.424178
H333	H	0.978281	-0.269170	0.659750
H334	H	1.228281	-0.019170	0.909750
H335	H	1.478281	0.230830	1.159750
H336	H	1.728281	0.480830	1.409750
H337	H	0.666952	-0.269100	0.229287
H338	H	0.916952	-0.019100	0.479287
H339	H	1.166952	0.230900	0.729287
H340	H	1.416952	0.480900	0.979287
Cl341	Cl	0.894356	-0.504194	0.728337
Cl342	Cl	1.144356	-0.254194	0.978337
Cl343	Cl	1.394356	-0.004194	1.228337
Cl344	Cl	1.644356	0.245806	1.478337
H345	H	0.346462	-0.234312	0.293089
H346	H	0.596462	0.015688	0.543089
H347	H	0.846462	0.265688	0.793089
H348	H	1.096462	0.515688	1.043089
H349	H	0.914571	-0.234219	0.742833
H350	H	1.164571	0.015781	0.992833
H351	H	1.414571	0.265781	1.242833
H352	H	1.664571	0.515781	1.492833
H353	H	0.144630	-0.440153	0.374470
H354	H	0.394630	-0.190153	0.624470
H355	H	0.644630	0.059847	0.874470
H356	H	0.894630	0.309847	1.124470
Cl357	Cl	0.277833	-0.461015	0.392175
Cl358	Cl	0.527833	-0.211015	0.642175
Cl359	Cl	0.777833	0.038985	0.892175
Cl360	Cl	1.027833	0.288985	1.142175
H361	H	0.465117	-0.474934	0.310666
H362	H	0.715117	-0.224934	0.560666
H363	H	0.965117	0.025066	0.810666
H364	H	1.215117	0.275066	1.060666
Cl365	Cl	0.916772	-0.204798	0.876033
Cl366	Cl	1.166772	0.045202	1.126033
Cl367	Cl	1.416772	0.295202	1.376033
Cl368	Cl	1.666772	0.545202	1.626033
Cl369	Cl	0.815060	-0.460597	1.077815
Cl370	Cl	1.065060	-0.210597	1.327815
Cl371	Cl	1.315060	0.039403	1.577815
Cl372	Cl	1.565060	0.289403	1.827815
H373	H	0.832818	-0.439814	0.944623
H374	H	1.082818	-0.189814	1.194623
H375	H	1.332818	0.060186	1.444623
H376	H	1.582818	0.310186	1.694623
H377	H	0.346405	-0.474944	0.310672
H378	H	0.596405	-0.224944	0.560672
H379	H	0.846405	0.025056	0.810672
H380	H	1.096405	0.275056	1.060672
H381	H	0.263315	-0.269133	0.229315
H382	H	0.513315	-0.019133	0.479315
H383	H	0.763315	0.230867	0.729315
H384	H	1.013315	0.480867	0.979315
H385	H	0.144601	-0.269141	0.229314
H386	H	0.394601	-0.019141	0.479314
H387	H	0.644601	0.230859	0.729314
H388	H	0.894601	0.480859	0.979314
