data_functionalizedCrystal
_audit_creation_method	'MofGen! by Chris Wilmer'
_symmetry_space_group_name_H-M	'P1'
_symmetry_Int_Tables_number	1
_symmetry_cell_setting	triclinic
loop_
_symmetry_equiv_pos_as_xyz
  x,y,z
_cell_length_a	10.723023
_cell_length_b	10.654536
_cell_length_c	9.798715
_cell_angle_alpha	90.013851
_cell_angle_beta	90.004178
_cell_angle_gamma	84.474765
loop_
_atom_site_label
_atom_site_type_symbol
_atom_site_fract_x
_atom_site_fract_y
_atom_site_fract_z
O1	O	-1.657210	-0.176143	-0.113543
O2	O	-1.294059	-0.193005	-0.113546
O3	O	-1.483989	-0.001832	-0.113498
O4	O	-1.467280	-0.367315	-0.113591
O5	O	-1.483974	-0.001832	0.113484
O6	O	-1.294045	-0.193004	0.113437
O7	O	-1.657195	-0.176142	0.113439
Zn8	Zn	-1.475618	-0.184573	0.149476
Zn9	Zn	-1.475637	-0.184574	-0.149583
O10	O	-1.467266	-0.367314	0.113392
C11	C	-1.247552	-0.191777	-0.000054
C12	C	-1.108997	-0.188107	-0.000053
C13	C	-1.047233	-0.186471	-0.117636
C14	C	-0.904029	-0.182677	-0.117637
C15	C	-1.482757	0.044966	0.000002
C16	C	-1.479092	0.184409	0.000029
C17	C	-0.703702	-0.177369	-0.000052
C18	C	-0.842257	-0.181040	-0.000054
N19	N	-1.475614	-0.184572	0.353576
C20	C	-1.706200	0.212415	0.000051
C21	C	-1.818028	0.291926	0.000079
C22	C	-1.814577	0.422944	0.000102
C23	C	-1.699286	0.474452	0.000093
C24	C	-1.587458	0.394940	0.000065
C25	C	-1.590922	0.263921	0.000046
C26	C	-1.360352	0.366935	0.000033
C27	C	-1.363801	0.235917	0.000020
C28	C	-1.245061	0.418442	0.000024
C29	C	-1.133231	0.338930	0.000006
C30	C	-1.136687	0.207905	-0.000015
C31	C	-1.251973	0.156405	-0.000008
C32	C	-1.468502	0.585888	-0.000059
C33	C	-1.472180	0.446446	0.000060
N34	N	-1.475650	-0.184565	-0.353682
C35	C	-1.555360	-0.103950	0.421373
C36	C	-1.555380	-0.103946	0.578535
H37	H	-1.709022	0.105735	0.000051
Br38	Br	-1.361855	-0.299629	0.549160
H39	H	-1.055858	-0.186706	0.100613
H40	H	-1.242259	0.525125	0.000034
Br41	Br	-0.815510	-0.180316	-0.285433
H42	H	-1.911896	0.249974	0.000098
Br43	Br	-1.135787	-0.188823	-0.285430
Br44	Br	-1.966342	0.530858	0.000121
Br45	Br	-1.256672	-0.021404	-0.000022
Br46	Br	-0.976782	0.408840	-0.000028
H47	H	-0.895366	-0.182441	0.100619
Br48	Br	-1.668818	0.011412	0.324203
H49	H	-1.045623	0.143173	-0.000044
H50	H	-1.696486	0.581135	0.000095
Br51	Br	-1.669192	0.011095	0.675702
H52	H	-1.407350	-0.253588	0.411883
