data_functionalizedCrystal
_audit_creation_method	'MofGen! by Chris Wilmer'
_symmetry_space_group_name_H-M	'P1'
_symmetry_Int_Tables_number	1
_symmetry_cell_setting	triclinic
loop_
_symmetry_equiv_pos_as_xyz
  x,y,z
_cell_length_a	15.944551
_cell_length_b	15.944551
_cell_length_c	15.021413
_cell_angle_alpha	90.003065
_cell_angle_beta	89.997174
_cell_angle_gamma	83.498738
loop_
_atom_site_label
_atom_site_type_symbol
_atom_site_fract_x
_atom_site_fract_y
_atom_site_fract_z
O1	O	1.114529	0.108321	-0.073941
O2	O	0.869979	0.121677	-0.073964
O3	O	0.998932	-0.007276	-0.073944
O4	O	0.985576	0.237274	-0.073961
O5	O	0.998912	-0.007257	0.074121
O6	O	0.869959	0.121695	0.074101
O7	O	1.114508	0.108339	0.074123
Zn8	Zn	0.992230	0.115020	0.097620
Zn9	Zn	0.992257	0.114996	-0.097461
O10	O	0.985555	0.237292	0.074103
C11	C	0.838675	0.121132	0.000066
C12	C	0.745429	0.119470	0.000057
C13	C	0.998367	-0.038561	0.000089
C14	C	0.996705	-0.131807	0.000089
C15	C	0.530572	0.035565	0.000081
C16	C	0.469562	0.074518	-0.072926
C17	C	0.574703	0.116462	0.000068
C18	C	0.469564	0.074556	0.073054
C19	C	0.409790	0.113551	0.000083
C20	C	0.514921	0.155438	-0.072998
C21	C	0.514930	0.155464	0.073047
C22	C	0.453937	0.194476	0.000023
C23	C	0.669705	0.118137	0.000059
C24	C	0.314789	0.111883	0.000085
C25	C	0.912801	-0.346663	0.000069
C26	C	0.951753	-0.407672	0.073077
C27	C	0.993698	-0.302533	0.000082
C28	C	0.951792	-0.407673	-0.072903
C29	C	0.990787	-0.467445	0.000071
C30	C	1.032672	-0.362313	0.073150
C31	C	1.032700	-0.362308	-0.072895
C32	C	1.071711	-0.423298	0.000131
C33	C	0.995372	-0.207530	0.000089
C34	C	0.989119	-0.562446	0.000070
C35	C	1.145813	0.108885	0.000092
C36	C	1.239059	0.110547	0.000094
C37	C	0.986120	0.268577	0.000069
C38	C	0.987782	0.361823	0.000063
N39	N	0.992218	0.115036	0.230758
N40	N	0.992276	0.114973	-0.230598
C41	C	0.932581	0.174636	0.470432
C42	C	1.008481	0.190943	0.529772
C43	C	0.992239	0.115015	0.412365
C44	C	0.916360	0.098727	0.529766
C45	C	0.992253	0.114997	0.587789
C46	C	1.068178	0.131360	0.470398
C47	C	0.976006	0.039111	0.470387
C48	C	1.051962	0.055386	0.529701
C49	C	0.992230	0.115028	0.311307
C50	C	0.992271	0.114984	0.688844
H51	H	0.563905	-0.031573	-0.000005
C52	C	0.442420	0.028329	0.156433
H53	H	0.468936	-0.028116	0.156340
H54	H	0.382876	0.028052	0.156126
H55	H	0.458721	0.056524	0.208274
C56	C	0.829669	0.080117	0.564996
H57	H	0.836341	0.030048	0.599786
H58	H	0.793228	0.072851	0.516254
H59	H	0.805960	0.125975	0.600698
C60	C	1.154894	0.150067	0.435329
H61	H	1.191097	0.157839	0.484149
H62	H	1.148165	0.199871	0.400135
H63	H	1.178925	0.104019	0.400078
C64	C	0.822095	-0.301661	0.000156
H65	H	0.793480	-0.317077	0.052091
H66	H	0.793075	-0.317839	-0.051181
H67	H	0.823775	-0.242295	-0.000367
H68	H	0.917528	-0.427772	0.134794
C69	C	1.120194	-0.012737	0.564646
H70	H	1.174044	-0.001032	0.544208
H71	H	1.109116	-0.066513	0.543414
H72	H	1.119527	-0.012679	0.627886
C73	C	0.442398	0.028288	-0.156295
H74	H	0.468898	-0.028163	-0.156203
H75	H	0.458685	0.056474	-0.208140
H76	H	0.382848	0.028014	-0.155961
H77	H	0.534918	0.189621	-0.134787
C78	C	0.864497	0.242795	0.435264
H79	H	0.824819	0.216934	0.400466
H80	H	0.890293	0.281868	0.399598
H81	H	0.836365	0.271625	0.484037
C82	C	1.078838	-0.335303	0.156628
H83	H	1.079582	-0.275810	0.156139
H84	H	1.135118	-0.362232	0.156849
H85	H	1.050278	-0.351191	0.208402
C86	C	0.957409	-0.047562	0.435112
H87	H	0.903439	-0.059044	0.455402
H88	H	0.999241	-0.090033	0.456286
H89	H	0.958052	-0.047073	0.371875
C90	C	1.162496	-0.468102	0.000194
H91	H	1.191087	-0.452584	0.052102
H92	H	1.191453	-0.451885	-0.051171
H93	H	1.160954	-0.527488	-0.000291
H94	H	1.022224	0.255126	0.555856
H95	H	0.917574	-0.427758	-0.134630
C96	C	0.409134	0.285261	-0.000037
H97	H	0.424652	0.313852	-0.051944
H98	H	0.425354	0.314217	0.051328
H99	H	0.349749	0.283719	0.000449
H100	H	0.535052	0.189659	0.134767
H101	H	1.066896	-0.342185	-0.134615
