data_functionalizedCrystal
_audit_creation_method	'MofGen! by Chris Wilmer'
_symmetry_space_group_name_H-M	'P1'
_symmetry_Int_Tables_number	1
_symmetry_cell_setting	triclinic
loop_
_symmetry_equiv_pos_as_xyz
  x,y,z
_cell_length_a	12.594517
_cell_length_b	16.120484
_cell_length_c	16.120297
_cell_angle_alpha	84.385569
_cell_angle_beta	92.877961
_cell_angle_gamma	87.074624
loop_
_atom_site_label
_atom_site_type_symbol
_atom_site_fract_x
_atom_site_fract_y
_atom_site_fract_z
Zn1	Zn	1.572401	0.356753	-0.489463
Zn2	Zn	1.572267	0.489442	-0.356773
Zn3	Zn	1.403914	0.349688	-0.349708
Zn4	Zn	1.384857	0.496483	-0.496495
O5	O	1.483360	0.423092	-0.423110
O6	O	1.721327	0.374364	-0.471875
O7	O	1.557854	0.465001	-0.238874
O8	O	1.434296	0.233660	-0.362347
O9	O	1.721229	0.471851	-0.374389
O10	O	1.558082	0.238850	-0.465024
O11	O	1.434165	0.362324	-0.233683
O12	O	1.252442	0.369151	-0.369165
O13	O	1.401816	0.483851	-0.612524
O14	O	1.238440	0.477000	-0.477009
O15	O	1.539603	0.381191	-0.607357
O16	O	1.539375	0.607342	-0.381207
O17	O	1.401685	0.612514	-0.483860
C18	C	1.206821	0.423074	-0.423084
C19	C	1.088514	0.423087	-0.423094
C20	C	1.468599	0.434094	-0.641115
C21	C	1.462308	0.438783	-0.734016
C22	C	1.468475	0.640257	-0.434082
C23	C	1.462203	0.733162	-0.438803
C24	C	1.026844	0.364357	-0.364541
C25	C	0.952230	0.439556	-0.347840
C26	C	0.952325	0.347926	-0.439811
C27	C	1.015459	0.498324	-0.406355
C28	C	1.015562	0.406645	-0.498360
C29	C	0.940975	0.481898	-0.481690
C30	C	1.760977	0.423110	-0.423136
C31	C	1.879282	0.423118	-0.423147
C32	C	1.498330	0.205080	-0.412113
C33	C	1.504709	0.112176	-0.407427
C34	C	1.450757	0.903262	-0.447441
C35	C	1.516152	0.942081	-0.398791
C36	C	1.509783	1.036731	-0.403598
C37	C	1.457124	0.808604	-0.442636
C38	C	1.450786	0.447325	-0.904106
C39	C	1.516159	0.398608	-0.942952
C40	C	1.509748	0.403361	-1.037596
C41	C	1.457196	0.442573	-0.809454
C42	C	1.498128	0.412071	-0.205949
C43	C	1.504641	0.407147	-0.113036
H44	H	1.064297	0.314734	-0.314968
H45	H	1.389992	0.941110	-0.492698
C46	C	1.052912	0.584230	-0.387178
C47	C	1.015283	0.663038	-0.445058
C48	C	1.052739	0.748941	-0.425879
C49	C	1.127825	0.756035	-0.348818
C50	C	1.165459	0.677224	-0.290933
C51	C	1.128002	0.591321	-0.310113
H52	H	0.959696	0.657789	-0.502108
H53	H	1.024880	0.807282	-0.468730
H54	H	1.155553	0.819625	-0.334620
H55	H	1.221046	0.682473	-0.233883
H56	H	1.155862	0.532980	-0.267261
H57	H	1.043533	0.392694	-0.561967
H58	H	1.576920	0.904231	-0.353531
C59	C	0.914692	0.262044	-0.458892
C60	C	0.794986	0.246557	-0.463165
C61	C	0.757358	0.160673	-0.482239
C62	C	0.839435	0.090275	-0.497040
C63	C	0.959148	0.105759	-0.492767
C64	C	0.996777	0.191644	-0.473693
H65	H	0.734221	0.298672	-0.452209
H66	H	0.668738	0.149210	-0.485402
H67	H	0.811580	0.026698	-0.511159
H68	H	1.019913	0.053645	-0.503724
H69	H	1.085397	0.203106	-0.470531
H70	H	1.390010	0.492599	-0.941927
C71	C	1.598280	0.337443	-0.891862
C72	C	1.604663	0.332717	-0.795854
C73	C	1.686782	0.271557	-0.744761
C74	C	1.762518	0.215123	-0.789675
C75	C	1.756138	0.219847	-0.885689
C76	C	1.674019	0.281007	-0.936782
H77	H	1.548596	0.374495	-0.762601
H78	H	1.691504	0.268061	-0.673685
H79	H	1.823307	0.169849	-0.751853
H80	H	1.812205	0.178069	-0.918942
H81	H	1.669296	0.284504	-1.007858
H82	H	0.924287	0.453482	-0.284212
H83	H	0.903711	0.531632	-0.531232
