data_functionalizedCrystal
_audit_creation_method	'MofGen! by Chris Wilmer'
_symmetry_space_group_name_H-M	'P1'
_symmetry_Int_Tables_number	1
_symmetry_cell_setting	triclinic
loop_
_symmetry_equiv_pos_as_xyz
  x,y,z
_cell_length_a	10.489741
_cell_length_b	19.188930
_cell_length_c	9.565339
_cell_angle_alpha	89.995116
_cell_angle_beta	89.999100
_cell_angle_gamma	83.841978
loop_
_atom_site_label
_atom_site_type_symbol
_atom_site_fract_x
_atom_site_fract_y
_atom_site_fract_z
O1	O	1.691850	0.098497	-0.116191
O2	O	1.320448	0.107743	-0.116215
O3	O	1.516867	0.001537	-0.116175
O4	O	1.495431	0.204704	-0.116231
O5	O	1.516852	0.001543	0.116345
O6	O	1.320432	0.107750	0.116305
O7	O	1.691835	0.098504	0.116329
Zn8	Zn	1.506131	0.103128	0.153235
Zn9	Zn	1.506152	0.103119	-0.153121
O10	O	1.495416	0.204711	0.116289
C11	C	1.272924	0.107048	0.000043
C12	C	1.131341	0.104959	0.000035
C13	C	1.064712	0.037383	0.000067
C14	C	0.971879	0.069302	-0.114584
C15	C	0.971898	0.069325	0.114663
C16	C	1.040373	0.136906	-0.114710
C17	C	1.040401	0.136919	0.114640
C18	C	0.947595	0.168887	-0.000039
C19	C	1.516165	-0.024476	0.000089
C20	C	1.514081	-0.101994	0.000101
C21	C	1.629334	-0.146146	0.000115
C22	C	1.627376	-0.218983	0.000092
C23	C	1.510159	-0.247665	0.000084
C24	C	1.394892	-0.203503	0.000062
C25	C	1.396853	-0.130668	0.000071
N26	N	1.420556	-0.356268	0.079209
N27	N	1.418701	-0.425459	0.079204
C28	C	1.504244	-0.467113	0.000055
N29	N	1.591732	-0.436964	-0.079071
N30	N	1.593590	-0.367767	-0.079059
C31	C	1.508020	-0.326642	0.000074
C32	C	1.617382	-0.590244	0.000043
C33	C	1.615419	-0.663081	0.000012
C34	C	1.382932	-0.647600	-0.000004
C35	C	1.384898	-0.574764	0.000013
C36	C	1.502126	-0.546090	0.000043
C37	C	1.739359	0.099199	0.000068
C38	C	1.880941	0.101288	0.000067
C39	C	1.496118	0.230723	0.000022
C40	C	1.498202	0.308242	0.000001
N41	N	1.506127	0.103134	0.362314
N42	N	1.506166	0.103108	-0.362200
C43	C	1.415262	0.152234	0.453499
C44	C	1.530443	0.166361	0.546681
C45	C	1.390995	0.089012	0.546688
C46	C	1.621366	0.117292	0.453444
C47	C	1.481842	0.039916	0.453443
C48	C	1.597107	0.054016	0.546583
H49	H	0.941511	0.040706	-0.211499
H50	H	1.115644	-0.018169	-0.000061
H51	H	0.896927	0.224498	-0.000117
C52	C	0.990664	-0.038137	0.245295
C53	C	0.930933	0.030718	0.245518
H54	H	0.965380	-0.061972	0.326079
H55	H	0.966045	-0.061686	0.163900
H56	H	1.081078	-0.037447	0.245779
H57	H	0.840518	0.030028	0.245024
H58	H	0.955543	0.054272	0.326935
C59	C	1.821395	0.012891	0.554103
C60	C	1.700968	-0.002054	0.601430
H61	H	1.885514	-0.021720	0.587975
H62	H	1.822397	0.012853	0.454811
H63	H	1.837953	0.057673	0.587448
H64	H	1.684406	-0.046834	0.568076
H65	H	1.699964	-0.002023	0.700743
C66	C	1.140511	0.234359	0.204861
C67	C	1.081457	0.175492	0.245472
H68	H	1.165852	0.258169	0.285642
H69	H	1.213836	0.219905	0.149603
H70	H	1.081884	0.264932	0.151814
H71	H	1.140088	0.144916	0.298510
H72	H	1.008122	0.189945	0.300753
H73	H	1.461239	-0.013519	0.412456
H74	H	1.709275	-0.699030	0.000015
H75	H	1.724790	-0.122805	0.000135
H76	H	1.293614	0.077080	0.587649
H77	H	1.070569	0.165474	-0.211748
C78	C	1.857376	-0.226977	0.000146
C79	C	1.754070	-0.267526	0.000118
H80	H	1.935589	-0.256946	0.000171
H81	H	1.853325	-0.198245	-0.080934
H82	H	1.853285	-0.198248	0.081236
H83	H	1.758156	-0.296252	-0.080979
H84	H	1.758123	-0.296270	0.081206
H85	H	1.338490	0.193796	0.412628
H86	H	1.299453	-0.226861	0.000052
H87	H	1.302998	-0.094719	0.000060
C88	C	1.252239	-0.483872	-0.119517
C89	C	1.258205	-0.526229	0.000010
H90	H	1.174015	-0.453912	-0.119524
H91	H	1.322319	-0.456369	-0.119497
H92	H	1.256315	-0.512610	-0.200595
H93	H	1.254138	-0.497491	0.081088
H94	H	1.188105	-0.553734	0.000002
H95	H	1.287492	-0.670952	-0.000018
C96	C	1.462923	0.289869	0.555009
C97	C	1.558209	0.238514	0.601984
H98	H	1.480057	0.334413	0.589156
H99	H	1.462340	0.290526	0.455720
H100	H	1.381752	0.279502	0.588315
H101	H	1.639380	0.248879	0.568669
H102	H	1.558805	0.237860	0.701293
C103	C	1.751575	0.133470	0.252018
C104	C	1.752822	0.133548	0.398398
H105	H	1.832716	0.143529	0.218037
H106	H	1.734245	0.088713	0.219300
H107	H	1.686928	0.168127	0.219447
H108	H	1.817463	0.098888	0.430970
H109	H	1.770167	0.178312	0.431130
H110	H	1.712836	-0.566896	0.000061
