data_functionalizedCrystal
_audit_creation_method	'MofGen! by Chris Wilmer'
_symmetry_space_group_name_H-M	'P1'
_symmetry_Int_Tables_number	1
_symmetry_cell_setting	triclinic
loop_
_symmetry_equiv_pos_as_xyz
  x,y,z
_cell_length_a	10.654550
_cell_length_b	16.992695
_cell_length_c	9.730223
_cell_angle_alpha	89.998169
_cell_angle_beta	89.996251
_cell_angle_gamma	87.576563
loop_
_atom_site_label
_atom_site_type_symbol
_atom_site_fract_x
_atom_site_fract_y
_atom_site_fract_z
O1	O	1.677356	0.110186	-0.114405
O2	O	1.312785	0.120685	-0.114384
O3	O	1.493609	0.001285	-0.114383
O4	O	1.496532	0.229586	-0.114405
O5	O	1.493607	0.001288	0.114196
O6	O	1.312783	0.120688	0.114196
O7	O	1.677354	0.110189	0.114175
Zn8	Zn	1.495068	0.115439	0.150477
Zn9	Zn	1.495071	0.115435	-0.150686
O10	O	1.496530	0.229589	0.114174
C11	C	1.265919	0.119915	-0.000091
C12	C	1.126277	0.117609	-0.000082
C13	C	1.052866	0.187910	-0.000109
C14	C	0.921658	0.185738	-0.000132
C15	C	0.937282	0.042959	-0.000108
C16	C	1.068488	0.045131	-0.000075
C17	C	1.043844	0.270342	-0.000129
C18	C	0.912636	0.268171	-0.000152
C19	C	1.489848	-0.027947	-0.000093
C20	C	1.478628	-0.115052	-0.000093
C21	C	1.586879	-0.164704	-0.000098
C22	C	1.576330	-0.246548	-0.000111
C23	C	1.457529	-0.278738	-0.000108
C24	C	1.349270	-0.229080	-0.000107
C25	C	1.359820	-0.147237	-0.000105
C26	C	1.413802	-0.522574	-0.000124
C27	C	1.403260	-0.604422	-0.000123
C28	C	1.630321	-0.621884	-0.000129
C29	C	1.640861	-0.540040	-0.000118
C30	C	1.532602	-0.490389	-0.000124
N31	N	1.446743	-0.362396	-0.000116
N32	N	1.543389	-0.406733	-0.000126
C33	C	1.724220	0.110959	-0.000121
C34	C	1.863862	0.113265	-0.000139
C35	C	1.500291	0.258821	-0.000119
C36	C	1.511510	0.345926	-0.000128
N37	N	1.495075	0.115441	0.356014
N38	N	1.495073	0.115427	-0.356223
C39	C	1.575168	0.062589	0.427940
C40	C	1.575164	0.062580	0.571823
C41	C	1.414971	0.168281	0.571841
C42	C	1.414970	0.168286	0.427961
C43	C	1.667658	0.001565	0.427931
C44	C	1.667654	0.001556	0.571814
H45	H	0.890215	-0.016050	-0.000123
H46	H	1.349751	0.211306	0.630436
O47	O	1.082122	0.308686	0.114134
C48	C	1.085593	0.312328	0.361668
C49	C	1.042191	0.268820	0.232384
H50	H	1.053304	0.280123	0.457304
H51	H	1.192439	0.314079	0.361809
H52	H	1.043089	0.375034	0.361590
H53	H	1.084605	0.206095	0.232376
H54	H	0.935340	0.267132	0.232291
O55	O	1.625442	-0.066495	0.624834
C56	C	1.545967	-0.194320	0.577078
C57	C	1.593752	-0.117297	0.516846
H58	H	1.520307	-0.235407	0.489799
H59	H	1.622700	-0.224059	0.642948
H60	H	1.459427	-0.180485	0.643094
H61	H	1.680270	-0.131064	0.450768
H62	H	1.516942	-0.087579	0.451054
H63	H	1.641004	-0.058735	0.388884
O64	O	1.778505	0.024339	0.374897
C65	C	1.986739	0.067242	0.422633
C66	C	1.861283	0.041445	0.482877
H67	H	2.053690	0.081095	0.509905
H68	H	2.030154	0.017744	0.356733
H69	H	1.969212	0.122045	0.356643
H70	H	1.878702	-0.013341	0.548928
H71	H	1.817907	0.090990	0.548698
O72	O	1.784204	0.017452	0.618477
C73	C	1.963575	-0.027939	0.751830
C74	C	1.831614	-0.046049	0.699048
H75	H	2.001935	-0.079261	0.817006
H76	H	2.028781	-0.019006	0.660764
H77	H	1.957662	0.027894	0.816876
H78	H	1.837406	-0.101889	0.634025
H79	H	1.766461	-0.054932	0.790175
H80	H	1.081769	0.296589	-0.098819
O81	O	0.860671	0.297748	0.117655
C82	C	0.733707	0.272719	0.316606
C83	C	0.792504	0.239128	0.183239
H84	H	0.678559	0.225346	0.369654
H85	H	0.811192	0.292468	0.387956
H86	H	0.667768	0.325237	0.290884
H87	H	0.858431	0.186586	0.208833
H88	H	0.714954	0.219432	0.111927
O89	O	0.866252	0.305219	-0.114381
C90	C	0.913553	0.374998	-0.322386
C91	C	0.966251	0.333046	-0.193108
H92	H	0.994374	0.397522	-0.386059
H93	H	0.858866	0.331852	-0.386276
H94	H	0.848383	0.426729	-0.290473
H95	H	1.031472	0.281319	-0.224899
H96	H	1.020863	0.376243	-0.129250
O97	O	1.756169	-0.508643	-0.000074
C98	C	1.873047	-0.390299	-0.000173
C99	C	1.742384	-0.425752	-0.000193
H100	H	1.861947	-0.323278	-0.000299
H101	H	1.926988	-0.410641	0.095503
H102	H	1.926947	-0.410742	-0.095818
H103	H	1.688381	-0.405325	0.095387
H104	H	1.688539	-0.405413	-0.095932
H105	H	1.683620	-0.138501	-0.000092
H106	H	1.128255	-0.012114	-0.000033
O107	O	1.735604	-0.670003	-0.000078
C108	C	1.961930	-0.678684	-0.000189
C109	C	1.842794	-0.624100	-0.000206
H110	H	2.048623	-0.641594	-0.000322
H111	H	1.962763	-0.717427	0.095489
H112	H	1.962593	-0.717448	-0.095832
H113	H	1.842052	-0.585287	0.095371
H114	H	1.842007	-0.585410	-0.095948
O115	O	1.308516	-0.474462	-0.000051
C116	C	1.082189	-0.465787	-0.000101
C117	C	1.201328	-0.520368	-0.000159
H118	H	0.995499	-0.502879	-0.000217
H119	H	1.081364	-0.427053	0.095584
H120	H	1.081513	-0.427014	-0.095737
H121	H	1.202083	-0.559190	0.095412
H122	H	1.202107	-0.559049	-0.095907
O123	O	1.233935	-0.260441	-0.000289
C124	C	1.090224	-0.342668	-0.118742
C125	C	1.220891	-0.307221	-0.118697
H126	H	1.079626	-0.380484	-0.214479
H127	H	1.079583	-0.380600	-0.023146
H128	H	1.014687	-0.293107	-0.118674
H129	H	1.296506	-0.356730	-0.118814
H130	H	1.231425	-0.269268	-0.214285
H131	H	1.664480	-0.286971	-0.000112
H132	H	1.271671	-0.106811	-0.000101
H133	H	1.306513	-0.630628	-0.000099
H134	H	1.349741	0.211316	0.369400
