data_functionalizedCrystal
_audit_creation_method	'MofGen! by Chris Wilmer'
_symmetry_space_group_name_H-M	'P1'
_symmetry_Int_Tables_number	1
_symmetry_cell_setting	triclinic
loop_
_symmetry_equiv_pos_as_xyz
  x,y,z
_cell_length_a	23.532407
_cell_length_b	23.532407
_cell_length_c	22.010155
_cell_angle_alpha	89.999577
_cell_angle_beta	89.996931
_cell_angle_gamma	82.848678
loop_
_atom_site_label
_atom_site_type_symbol
_atom_site_fract_x
_atom_site_fract_y
_atom_site_fract_z
O1	O	0.755264	0.069127	-0.050455
O2	O	0.589400	0.079130	-0.050474
O3	O	0.677334	-0.008803	-0.050453
O4	O	0.667330	0.157060	-0.050476
O5	O	0.677318	-0.008790	0.050597
O6	O	0.589384	0.079143	0.050576
O7	O	0.755248	0.069140	0.050595
Cu8	Cu	0.672315	0.074143	0.059812
Cu9	Cu	0.672333	0.074127	-0.059691
O10	O	0.667314	0.157073	0.050574
C11	C	0.568176	0.078882	0.000049
C12	C	0.504959	0.078116	0.000042
C13	C	0.105856	0.125350	0.000063
C14	C	0.046456	0.124638	0.000067
O15	O	0.009711	0.168424	0.000083
N16	N	0.023830	0.072362	0.000073
C17	C	0.060607	0.020794	0.000082
O18	O	0.035908	-0.023737	0.000088
C19	C	0.120006	0.021506	0.000082
C20	C	0.142629	0.073785	0.000070
C21	C	0.128479	0.177625	0.000051
C22	C	0.187876	0.178336	0.000046
C23	C	0.224649	0.126772	0.000053
C24	C	0.202025	0.074497	0.000065
C25	C	0.156783	-0.030062	0.000096
C26	C	0.216185	-0.029345	0.000097
C27	C	0.238808	0.022934	0.000084
C28	C	0.298194	0.023643	0.000067
N29	N	0.320820	0.075920	0.000061
C30	C	0.284048	0.127484	0.000054
C31	C	-0.064135	0.019302	0.000082
C32	C	-0.123533	0.018589	0.000077
C33	C	-0.137680	0.122434	0.000063
C34	C	-0.078281	0.123146	0.000064
C35	C	-0.041509	0.071578	0.000076
C36	C	0.408784	0.128974	0.000043
C37	C	0.468186	0.129680	0.000035
C38	C	0.482329	0.025836	0.000052
C39	C	0.422932	0.025129	0.000057
C40	C	0.386160	0.076702	0.000054
O41	O	0.334974	-0.020119	0.000054
O42	O	0.308755	0.172007	0.000055
C43	C	0.677071	-0.030013	0.000074
C44	C	0.676305	-0.093230	0.000078
C45	C	0.723539	-0.492333	0.000050
C46	C	0.722827	-0.551733	0.000046
O47	O	0.766613	-0.588478	0.000028
N48	N	0.670551	-0.574359	0.000040
C49	C	0.618983	-0.537582	0.000033
O50	O	0.574452	-0.562281	0.000027
C51	C	0.619695	-0.478182	0.000033
C52	C	0.671974	-0.455560	0.000045
C53	C	0.775814	-0.469710	0.000061
C54	C	0.776525	-0.410313	0.000067
C55	C	0.724961	-0.373540	0.000062
C56	C	0.672685	-0.396164	0.000051
C57	C	0.568127	-0.441406	0.000022
C58	C	0.568844	-0.382004	0.000022
C59	C	0.621123	-0.359381	0.000034
C60	C	0.621832	-0.299995	0.000052
N61	N	0.674109	-0.277368	0.000057
C62	C	0.725673	-0.314141	0.000062
C63	C	0.617491	-0.662324	0.000031
C64	C	0.616778	-0.721722	0.000035
C65	C	0.720623	-0.735869	0.000047
C66	C	0.721335	-0.676470	0.000047
C67	C	0.669767	-0.639698	0.000037
C68	C	0.727163	-0.189405	0.000075
C69	C	0.727869	-0.130003	0.000083
C70	C	0.624025	-0.115860	0.000069
C71	C	0.623318	-0.175257	0.000064
C72	C	0.674891	-0.212029	0.000065
O73	O	0.578070	-0.263215	0.000067
O74	O	0.770196	-0.289433	0.000060
C75	C	0.776472	0.069388	0.000071
C76	C	0.839689	0.070154	0.000073
C77	C	0.667577	0.178283	0.000046
C78	C	0.668343	0.241500	0.000037
N79	N	0.672305	0.074153	0.143865
N80	N	0.672347	0.074112	-0.143744
C81	C	0.711273	0.035196	0.563653
C82	C	0.711275	0.035192	0.627261
O83	O	0.744384	0.002076	0.660160
N84	N	0.672333	0.074115	0.659072
C85	C	0.633382	0.113041	0.627272
O86	O	0.600259	0.146148	0.660170
C87	C	0.633377	0.113042	0.563665
C88	C	0.672326	0.074120	0.531858
C89	C	0.750217	-0.003723	0.531846
C90	C	0.750215	-0.003719	0.468243
C91	C	0.711268	0.035205	0.436447
C92	C	0.672324	0.074125	0.468255
C93	C	0.594424	0.151965	0.531866
C94	C	0.594422	0.151962	0.468256
C95	C	0.633370	0.113040	0.436448
C96	C	0.633374	0.113054	0.372856
N97	N	0.672317	0.074130	0.341045
C98	C	0.711263	0.035206	0.372841
C99	C	0.633395	0.113036	0.760850
C100	C	0.633402	0.113039	0.824455
C101	C	0.711294	0.035188	0.824440
C102	C	0.711290	0.035189	0.760833
C103	C	0.672337	0.074113	0.729039
C104	C	0.711256	0.035220	0.239269
C105	C	0.711252	0.035229	0.175660
C106	C	0.633358	0.113077	0.175681
C107	C	0.633364	0.113070	0.239284
C108	C	0.672315	0.074136	0.271077
O109	O	0.600282	0.146151	0.339916
O110	O	0.744376	0.002100	0.339935
H111	H	0.512280	-0.016146	0.000056
H112	H	-0.167632	0.164421	0.000060
C113	C	0.555795	0.125814	0.310826
C114	C	0.590557	0.155854	0.274256
H115	H	0.529368	0.152225	0.332415
H116	H	0.535447	0.102220	0.286008
H117	H	0.578996	0.102630	0.338862
H118	H	0.567355	0.179034	0.246216
H119	H	0.610906	0.179457	0.299076
C120	C	-0.182121	-0.042454	0.052029
C121	C	-0.148398	-0.038877	0.000082
H122	H	-0.197472	-0.077931	0.052031
H123	H	-0.159243	-0.040015	0.087259
H124	H	-0.212524	-0.011846	0.052020
H125	H	-0.117992	-0.069483	0.000093
H126	H	-0.171277	-0.041321	-0.035158
H127	H	0.138375	-0.072634	0.000106
H128	H	0.781929	-0.035414	0.442349
H129	H	0.246123	-0.071339	0.000107
C130	C	-0.019697	0.184191	-0.051896
C131	C	-0.053420	0.180614	0.000051
H132	H	-0.004355	0.219673	-0.051904
H133	H	0.010707	0.153592	-0.051884
H134	H	-0.042577	0.181744	-0.087130
H135	H	-0.030538	0.183057	0.035286
H136	H	-0.083828	0.211222	0.000045
C137	C	0.535719	-0.085499	0.051998
C138	C	0.567347	-0.075433	0.000060
H139	H	0.500730	-0.060536	0.051989
H140	H	0.527811	-0.124106	0.051991
H141	H	0.557166	-0.078670	0.087238
H142	H	0.545901	-0.082265	-0.035181
H143	H	0.575254	-0.036816	0.000061
H144	H	0.575496	-0.632386	0.000028
H145	H	0.404512	-0.017441	0.000058
H146	H	0.378851	0.170970	0.000042
C147	C	0.827214	-0.080665	0.525425
C148	C	0.793036	-0.046511	0.566788
H149	H	0.853654	-0.107076	0.546995
H150	H	0.803621	-0.101030	0.500624
H151	H	0.847551	-0.057049	0.500610
H152	H	0.772695	-0.070126	0.591601
H153	H	0.816632	-0.026144	0.591600
H154	H	0.770443	-0.111587	0.000094
H155	H	0.769159	-0.219337	0.000073
H156	H	0.601676	0.144737	0.734966
H157	H	-0.034198	-0.022693	0.000086
C158	C	0.517423	0.228903	0.525465
C159	C	0.551607	0.194748	0.566818
H160	H	0.490986	0.255314	0.547043
H161	H	0.541011	0.249270	0.500657
H162	H	0.497081	0.205288	0.500656
H163	H	0.571952	0.218362	0.591624
H164	H	0.528016	0.174380	0.591636
H165	H	0.819097	-0.391900	0.000074
H166	H	0.817806	-0.499645	0.000063
H167	H	0.743004	0.003495	0.734939
H168	H	0.206289	0.220908	0.000036
H169	H	0.743006	0.003493	0.850339
H170	H	0.763906	-0.658056	0.000056
H171	H	0.762610	-0.765821	0.000048
C172	C	0.562258	-0.233851	0.051998
C173	C	0.565851	-0.200125	0.000057
H174	H	0.526777	-0.249196	0.051990
H175	H	0.592859	-0.264253	0.051992
H176	H	0.564690	-0.210972	0.087236
H177	H	0.563422	-0.223005	-0.035182
H178	H	0.535241	-0.169718	0.000057
H179	H	0.601692	0.144738	0.850348
C180	C	0.581608	0.229541	0.396732
C181	C	0.551605	0.194750	0.433306
H182	H	0.555175	0.255954	0.375155
H183	H	0.605192	0.249905	0.421545
H184	H	0.604799	0.206357	0.368685
H185	H	0.528417	0.217934	0.461356
H186	H	0.528012	0.174385	0.408491
C187	C	0.514206	-0.701757	0.000023
C188	C	0.559311	-0.746585	0.000028
H189	H	0.478727	-0.717106	0.000012
H190	H	0.516640	-0.678888	0.035262
H191	H	0.516657	-0.678881	-0.035215
H192	H	0.556862	-0.769458	0.035268
H193	H	0.556876	-0.769463	-0.035215
H194	H	0.525555	-0.459814	0.000009
C195	C	0.466125	-0.373990	0.000004
C196	C	0.512157	-0.341584	0.000013
H197	H	0.431130	-0.349037	0.000003
H198	H	0.468016	-0.397449	-0.035234
H199	H	0.468005	-0.397456	0.035244
H200	H	0.510278	-0.318121	-0.035229
H201	H	0.510264	-0.318115	0.035255
C202	C	0.474399	0.218410	-0.051926
C203	C	0.493048	0.187152	0.000023
H204	H	0.489743	0.253891	-0.051930
H205	H	0.487047	0.197190	-0.087155
H206	H	0.433760	0.225355	-0.051917
H207	H	0.533687	0.180203	0.000011
H208	H	0.480404	0.208377	0.035261
C209	C	0.788246	-0.041727	0.182044
C210	C	0.754065	-0.007560	0.140699
H211	H	0.814672	-0.068144	0.160461
H212	H	0.808595	-0.018125	0.206851
H213	H	0.764650	-0.062091	0.206855
H214	H	0.777660	0.012808	0.115890
H215	H	0.733714	-0.031165	0.115882
H216	H	0.742973	0.003516	0.265148
H217	H	0.601650	0.144771	0.149783
C218	C	0.120478	0.280338	0.000026
C219	C	0.088064	0.234311	0.000038
H220	H	0.095529	0.315336	0.000011
H221	H	0.143933	0.278460	0.035265
H222	H	0.143948	0.278438	-0.035212
H223	H	0.064598	0.236210	0.035279
H224	H	0.064599	0.236191	-0.035204
