data_functionalizedCrystal
_audit_creation_method	'MofGen! by Chris Wilmer'
_symmetry_space_group_name_H-M	'P1'
_symmetry_Int_Tables_number	1
_symmetry_cell_setting	triclinic
loop_
_symmetry_equiv_pos_as_xyz
  x,y,z
_cell_length_a	17.077404
_cell_length_b	17.640280
_cell_length_c	17.077396
_cell_angle_alpha	101.225604
_cell_angle_beta	90.019501
_cell_angle_gamma	78.800538
loop_
_atom_site_label
_atom_site_type_symbol
_atom_site_fract_x
_atom_site_fract_y
_atom_site_fract_z
Zn1	Zn	1.263288	-0.314659	0.380745
Zn2	Zn	1.763288	0.185341	0.880745
Zn3	Zn	1.289758	-0.446839	0.222973
Zn4	Zn	1.789758	0.053161	0.722973
Zn5	Zn	1.132026	-0.314687	0.249487
Zn6	Zn	1.632026	0.185313	0.749487
Zn7	Zn	1.158541	-0.446792	0.354206
Zn8	Zn	1.658541	0.053208	0.854206
O9	O	1.210903	-0.380744	0.301853
O10	O	1.710903	0.119256	0.801853
O11	O	1.376648	-0.332201	0.359827
O12	O	1.876648	0.167799	0.859827
O13	O	1.268815	-0.429340	0.116637
O14	O	1.768815	0.070660	0.616637
O15	O	1.127263	-0.204078	0.289102
O16	O	1.627263	0.295922	0.789102
O17	O	1.396095	-0.429313	0.243912
O18	O	1.896095	0.070687	0.743912
O19	O	1.223701	-0.204058	0.385536
O20	O	1.723701	0.295942	0.885536
O21	O	1.152930	-0.332248	0.136117
O22	O	1.652930	0.167752	0.636117
O23	O	1.025694	-0.332203	0.263368
O24	O	1.525694	0.167797	0.763368
O25	O	1.172456	-0.429233	0.467580
O26	O	1.672456	0.070767	0.967580
O27	O	1.045176	-0.429260	0.340305
O28	O	1.545176	0.070740	0.840305
O29	O	1.249413	-0.332155	0.487078
O30	O	1.749413	0.167845	0.987078
O31	O	1.294527	-0.557437	0.218179
O32	O	1.794527	-0.057437	0.718179
O33	O	1.198122	-0.557403	0.314595
O34	O	1.698122	-0.057403	0.814595
C35	C	1.006953	-0.380730	0.301834
C36	C	1.506953	0.119270	0.801834
C37	C	0.919705	-0.380743	0.301841
C38	C	1.419705	0.119257	0.801841
C39	C	0.888895	-0.431357	0.341806
C40	C	1.388895	0.068643	0.841806
C41	C	0.806915	-0.431359	0.341818
C42	C	1.306915	0.068641	0.841818
C43	C	0.755747	-0.380750	0.301860
C44	C	1.255747	0.119250	0.801860
C45	C	0.786562	-0.330130	0.261894
C46	C	1.286562	0.169870	0.761894
C47	C	0.868540	-0.330125	0.261887
C48	C	1.368540	0.169875	0.761887
C49	C	0.615696	-0.330146	0.261910
C50	C	1.115696	0.169854	0.761910
C51	C	0.533712	-0.330151	0.261915
C52	C	1.033712	0.169849	0.761915
C53	C	0.554070	-0.431379	0.341841
C54	C	1.054070	0.068621	0.841841
C55	C	0.636048	-0.431374	0.341834
C56	C	1.136048	0.068626	0.841834
C57	C	0.666858	-0.380755	0.301866
C58	C	1.166858	0.119245	0.801866
C59	C	1.252095	-0.586099	0.260647
C60	C	1.752095	-0.086099	0.760647
C61	C	1.269789	-0.673950	0.243045
C62	C	1.769789	-0.173950	0.743045
C63	C	1.076806	-0.962931	0.435857
C64	C	1.576806	-0.462931	0.935857
C65	C	1.093434	-1.045481	0.419293
C66	C	1.593434	-0.545481	0.919293
C67	C	1.193882	-1.045451	0.318996
C68	C	1.693882	-0.545451	0.818996
C69	C	1.177265	-0.962900	0.335555
C70	C	1.677265	-0.462900	0.835555
C71	C	1.118726	-0.921646	0.393986
C72	C	1.618726	-0.421646	0.893986
C73	C	1.219185	-0.921615	0.293683
C74	C	1.719185	-0.421615	0.793683
C75	C	1.202567	-0.839070	0.310238
C76	C	1.702567	-0.339070	0.810238
C77	C	1.144029	-0.797811	0.368665
C78	C	1.644029	-0.297811	0.868665
C79	C	1.102108	-0.839101	0.410541
C80	C	1.602108	-0.339101	0.910541
C81	C	1.277721	-0.962870	0.235249
C82	C	1.777721	-0.462870	0.735249
C83	C	1.319640	-0.921585	0.193377
C84	C	1.819640	-0.421585	0.693377
C85	C	1.303026	-0.839039	0.209936
C86	C	1.803026	-0.339039	0.709936
C87	C	1.244488	-0.797780	0.268362
C88	C	1.744488	-0.297780	0.768362
C89	C	1.344947	-0.797748	0.168060
C90	C	1.844947	-0.297748	0.668060
C91	C	1.328329	-0.715204	0.184615
C92	C	1.828329	-0.215204	0.684615
C93	C	1.227870	-0.715235	0.284917
C94	C	1.727870	-0.215235	0.784917
C95	C	1.415651	-0.380759	0.301872
C96	C	1.915651	0.119241	0.801872
C97	C	1.502902	-0.380765	0.301880
C98	C	2.002902	0.119235	0.801880
C99	C	1.210939	-0.380686	0.506609
C100	C	1.710939	0.119314	1.006609
C101	C	1.210954	-0.380661	0.593864
C102	C	1.710954	0.119339	1.093864
C103	C	1.169572	-0.174588	0.343237
C104	C	1.669572	0.325412	0.843237
C105	C	1.151959	-0.086736	0.360872
C106	C	1.651959	0.413264	0.860872
C107	C	1.210901	-0.380745	0.097905
C108	C	1.710901	0.119255	0.597905
C109	C	1.210993	-0.380547	0.010695
C110	C	1.710993	0.119453	0.510695
C111	C	1.251027	-0.330109	0.645009
C112	C	1.751027	0.169891	1.145009
C113	C	1.251031	-0.330082	0.726995
C114	C	1.751031	0.169918	1.226995
C115	C	1.210967	-0.380613	0.757833
C116	C	1.710967	0.119387	1.257833
C117	C	1.170889	-0.431168	0.706682
C118	C	1.670889	0.068832	1.206682
C119	C	1.170881	-0.431190	0.624699
C120	C	1.670881	0.068810	1.124699
C121	C	1.170911	-0.431120	0.877562
C122	C	1.670911	0.068880	1.377562
C123	C	1.170921	-0.431100	0.959550
C124	C	1.670921	0.068900	1.459550
C125	C	1.251062	-0.330013	0.979858
C126	C	1.751062	0.169987	1.479858
C127	C	1.251053	-0.330035	0.897874
C128	C	1.751053	0.169965	1.397874
C129	C	1.210977	-0.380591	0.846729
C130	C	1.710977	0.119409	1.346729
H131	H	1.180207	-0.681645	0.332503
H132	H	1.680207	-0.181645	0.832503
C133	C	0.520191	-0.487081	0.385781
C134	C	1.020191	0.012919	0.885781
H135	H	0.562408	-0.517234	0.409561
H136	H	1.062408	-0.017234	0.909561
H137	H	0.482163	-0.456917	0.426099
H138	H	0.982163	0.043083	0.926099
H139	H	0.495110	-0.521475	0.348772
H140	H	0.995110	-0.021475	0.848772
C141	C	1.295094	-0.274520	0.611094
C142	C	1.795094	0.225480	1.111094
H143	H	1.318952	-0.244403	0.653301
H144	H	1.818952	0.255597	1.153301
H145	H	1.335355	-0.304760	0.573047
H146	H	1.835355	0.195240	1.073047
H147	H	1.258149	-0.240086	0.586025
H148	H	1.758149	0.259914	1.086025
C149	C	1.374442	-0.669787	0.138561
C150	C	1.874442	-0.169787	0.638561
H151	H	1.411691	-0.706178	0.101397
H152	H	1.911691	-0.206178	0.601397
H153	H	1.337960	-0.637625	0.110781
H154	H	1.837960	-0.137625	0.610781
H155	H	1.402136	-0.637547	0.175094
H156	H	1.902136	-0.137547	0.675094
C157	C	1.125744	-0.707014	0.386880
C158	C	1.625744	-0.207014	0.886880
H159	H	1.084873	-0.688359	0.427671
H160	H	1.584873	-0.188359	0.927671
H161	H	1.172621	-0.688292	0.404256
H162	H	1.672621	-0.188292	0.904256
H163	H	1.108441	-0.688375	0.339947
H164	H	1.608441	-0.188375	0.839947
H165	H	1.029143	-0.929340	0.483444
H166	H	1.529143	-0.429340	0.983444
H167	H	1.059303	-1.079092	0.453404
H168	H	1.559303	-0.579092	0.953404
C169	C	1.296002	-1.053667	0.217034
C170	C	1.796002	-0.553667	0.717034
H171	H	1.336861	-1.072323	0.176230
H172	H	1.836861	-0.572323	0.676230
H173	H	1.313303	-1.072310	0.263960
H174	H	1.813303	-0.572310	0.763960
H175	H	1.249118	-1.072384	0.199656
H176	H	1.749118	-0.572384	0.699656
H177	H	1.241543	-1.079051	0.271419
H178	H	1.741543	-0.579051	0.771419
C179	C	1.126803	-0.486796	0.568436
C180	C	1.626803	0.013204	1.068436
H181	H	1.132529	-0.479567	0.515194
H182	H	1.632529	0.020433	1.015194
H183	H	1.148936	-0.539900	0.571210
H184	H	1.648936	-0.039900	1.071210
H185	H	1.071739	-0.475213	0.584189
H186	H	1.571739	0.024787	1.084189
H187	H	0.781834	-0.472574	0.374361
H188	H	1.281834	0.027426	0.874361
H189	H	1.367301	-0.955185	0.145800
H190	H	1.867301	-0.455185	0.645800
C191	C	1.295123	-0.274453	0.863952
C192	C	1.795123	0.225547	1.363952
H193	H	1.318986	-0.244335	0.906154
H194	H	1.818986	0.255665	1.406154
H195	H	1.335381	-0.304699	0.825905
H196	H	1.835381	0.195301	1.325905
H197	H	1.258179	-0.240019	0.838882
H198	H	1.758179	0.259981	1.338882
H199	H	0.640776	-0.288919	0.229372
H200	H	1.140776	0.211081	0.729372
C201	C	1.295156	-0.274411	1.036112
C202	C	1.795156	0.225589	1.536112
H203	H	1.289421	-0.281631	1.089356
H204	H	1.789421	0.218369	1.589356
H205	H	1.350214	-0.286000	1.020355
H206	H	1.850214	0.214000	1.520355
H207	H	1.273027	-0.221301	1.033340
H208	H	1.773027	0.278699	1.533340
H209	H	1.392604	-0.831350	0.120480
H210	H	1.892604	-0.331350	0.620480
C211	C	1.126846	-0.486678	0.993473
C212	C	1.626846	0.013322	1.493473
H213	H	1.102968	-0.516782	0.951274
H214	H	1.602968	-0.016782	1.451274
H215	H	1.163780	-0.521112	1.018545
H216	H	1.663780	-0.021112	1.518545
H217	H	1.086586	-0.456421	1.031521
H218	H	1.586586	0.043579	1.531521
H219	H	0.744895	-0.288920	0.229364
H220	H	1.244895	0.211080	0.729364
H221	H	1.138262	-0.472276	0.835923
H222	H	1.638262	0.027724	1.335923
C223	C	0.692331	-0.487042	0.385787
C224	C	1.192331	0.012958	0.885787
H225	H	0.662241	-0.517184	0.409598
H226	H	1.162241	-0.017184	0.909598
H227	H	0.731200	-0.521437	0.348799
H228	H	1.231200	-0.021437	0.848799
H229	H	0.718264	-0.456840	0.426097
H230	H	1.218264	0.043160	0.926097
H231	H	0.930551	-0.472571	0.374341
H232	H	1.430551	0.027429	0.874341
C233	C	0.477428	-0.274475	0.217972
C234	C	0.977428	0.225525	0.717972
H235	H	0.507515	-0.244319	0.194179
H236	H	1.007515	0.255681	0.694179
H237	H	0.451487	-0.304663	0.177664
H238	H	0.951487	0.195337	0.677664
H239	H	0.438563	-0.240082	0.254974
H240	H	0.938563	0.259918	0.754974
C241	C	1.126819	-0.486752	0.740598
C242	C	1.626819	0.013248	1.240598
H243	H	1.102946	-0.516858	0.698395
H244	H	1.602946	-0.016858	1.198395
H245	H	1.163754	-0.521185	0.765671
H246	H	1.663754	-0.021185	1.265671
H247	H	1.086554	-0.456502	0.778645
H248	H	1.586554	0.043498	1.278645
H249	H	0.893623	-0.288906	0.229348
H250	H	1.393623	0.211094	0.729348
H251	H	1.054445	-0.805511	0.458127
H252	H	1.554445	-0.305511	0.958127
H253	H	1.283664	-0.288919	0.768634
H254	H	1.783664	0.211081	1.268634
