data_functionalizedCrystal
_audit_creation_method	'MofGen! by Chris Wilmer'
_symmetry_space_group_name_H-M	'P1'
_symmetry_Int_Tables_number	1
_symmetry_cell_setting	triclinic
loop_
_symmetry_equiv_pos_as_xyz
  x,y,z
_cell_length_a	12.759395
_cell_length_b	17.077402
_cell_length_c	17.077404
_cell_angle_alpha	89.987751
_cell_angle_beta	90.006026
_cell_angle_gamma	89.975580
loop_
_atom_site_label
_atom_site_type_symbol
_atom_site_fract_x
_atom_site_fract_y
_atom_site_fract_z
Zn1	Zn	1.606059	0.312612	0.443787
Zn2	Zn	1.605969	0.443847	0.312518
Zn3	Zn	1.430401	0.312602	0.312541
Zn4	Zn	1.430324	0.443843	0.443747
O5	O	1.518188	0.378226	0.378148
O6	O	1.753068	0.330026	0.426382
O7	O	1.582674	0.426434	0.202674
O8	O	1.453773	0.202757	0.329977
O9	O	1.753002	0.426443	0.329939
O10	O	1.582827	0.202764	0.426403
O11	O	1.453685	0.330009	0.202691
O12	O	1.283370	0.330006	0.329938
O13	O	1.453641	0.426438	0.553599
O14	O	1.283313	0.426428	0.426335
O15	O	1.582753	0.330023	0.553629
O16	O	1.582599	0.553693	0.329900
O17	O	1.453554	0.553690	0.426313
C18	C	1.245221	0.378216	0.378135
C19	C	1.128444	0.378231	0.378148
C20	C	1.518087	0.582174	0.378117
C21	C	1.518140	0.669424	0.378130
C22	C	1.518198	0.378231	0.582893
C23	C	1.518203	0.378233	0.670142
C24	C	1.128424	0.478798	0.478363
C25	C	1.073553	0.529087	0.528473
C26	C	0.963831	0.529097	0.528483
C27	C	0.908978	0.478810	0.478379
C28	C	0.963849	0.428520	0.428269
C29	C	1.073573	0.428518	0.428263
C30	C	0.963869	0.327951	0.328058
C31	C	1.073591	0.327944	0.328044
C32	C	0.909016	0.277664	0.277954
C33	C	0.963887	0.227377	0.227839
C34	C	1.073615	0.227370	0.227831
C35	C	1.128462	0.277655	0.277933
C36	C	1.792222	0.378236	0.378162
C37	C	1.908998	0.378240	0.378168
C38	C	1.518319	0.173482	0.378197
C39	C	1.518374	0.086232	0.378218
C40	C	1.585402	0.710389	0.327981
C41	C	1.585453	0.792369	0.328001
C42	C	1.518236	0.833383	0.378167
C43	C	1.450971	0.792412	0.428321
C44	C	1.450925	0.710433	0.428304
C45	C	1.451068	0.963282	0.428350
C46	C	1.451112	1.045266	0.428366
C47	C	1.585596	1.045218	0.328048
C48	C	1.585551	0.963239	0.328031
C49	C	1.518284	0.922274	0.378184
C50	C	1.585423	0.328038	0.711149
C51	C	1.585414	0.328037	0.793130
C52	C	1.518190	0.378235	0.834102
C53	C	1.450962	0.428432	0.793089
C54	C	1.450966	0.428429	0.711110
C55	C	1.450960	0.428438	0.963959
C56	C	1.450957	0.428442	1.045944
C57	C	1.585407	0.328045	1.045979
C58	C	1.585411	0.328042	0.964000
C59	C	1.518185	0.378240	0.922993
C60	C	1.518173	0.378241	1.174201
C61	C	1.518177	0.378247	1.086951
H62	H	1.217765	0.478801	0.478355
F63	F	1.657089	0.919591	0.274639
H64	H	1.640157	0.287170	0.930642
H65	H	1.217803	0.277656	0.277929
F66	F	1.132005	0.173840	0.174499
F67	F	1.656979	0.274613	0.667551
F68	F	1.656956	0.274621	1.089622
H69	H	1.640371	1.078576	0.287214
H70	H	1.396397	1.078657	0.469230
H71	H	1.640133	0.677001	0.287128
H72	H	1.118226	0.570029	0.569269
F73	F	1.657046	0.835964	0.274629
H74	H	1.396296	0.929930	0.469193
H75	H	1.396214	0.469317	1.079301
F76	F	1.379439	0.836064	0.481715
F77	F	1.379338	0.666835	0.481681
H78	H	1.640154	0.287165	0.826514
H79	H	1.396200	0.469302	0.930574
H80	H	1.396223	0.469302	0.826455
H81	H	0.819675	0.277672	0.277969
F82	F	0.905432	0.582616	0.581819
F83	F	0.792202	0.478813	0.478401
H84	H	1.396218	0.469295	0.677724
H85	H	0.919217	0.186434	0.187052
