data_functionalizedCrystal
_audit_creation_method	'MofGen! by Chris Wilmer'
_symmetry_space_group_name_H-M	'P1'
_symmetry_Int_Tables_number	1
_symmetry_cell_setting	triclinic
loop_
_symmetry_equiv_pos_as_xyz
  x,y,z
_cell_length_a	16.120530
_cell_length_b	10.686285
_cell_length_c	10.686551
_cell_angle_alpha	80.915481
_cell_angle_beta	97.503409
_cell_angle_gamma	97.480717
loop_
_atom_site_label
_atom_site_type_symbol
_atom_site_fract_x
_atom_site_fract_y
_atom_site_fract_z
Zn1	Zn	1.341629	0.545926	0.774571
Zn2	Zn	1.341561	0.774501	0.546064
Zn3	Zn	1.191183	0.551541	0.551616
Zn4	Zn	1.211200	0.748813	0.748982
O5	O	1.271394	0.655195	0.655308
O6	O	1.459139	0.584647	0.752644
O7	O	1.313208	0.758025	0.368571
O8	O	1.202791	0.372578	0.594225
O9	O	1.459089	0.752580	0.584761
O10	O	1.313323	0.368452	0.758028
O11	O	1.202726	0.594218	0.372651
O12	O	1.076320	0.569310	0.569412
O13	O	1.236908	0.708800	0.930605
O14	O	1.091026	0.714245	0.714415
O15	O	1.332733	0.559739	0.949405
O16	O	1.332618	0.949312	0.559948
O17	O	1.236842	0.930440	0.709031
C18	C	1.053202	0.639600	0.639740
C19	C	0.959862	0.632956	0.633108
C20	C	1.286919	0.986085	0.631140
C21	C	1.293639	1.127644	0.620848
C22	C	1.287061	0.630778	0.987510
C23	C	1.293737	0.620372	1.129075
C24	C	0.788967	0.620797	0.621013
C25	C	0.754669	0.689681	0.689689
C26	C	0.659578	0.682916	0.682960
C27	C	0.884067	0.627561	0.627741
C28	C	1.490437	0.670853	0.670937
C29	C	1.583781	0.677525	0.677598
C30	C	1.255832	0.323013	0.679600
C31	C	1.249201	0.181457	0.689952
C32	C	1.255831	0.679430	0.324409
C33	C	1.249300	0.689488	0.182882
H34	H	0.796721	0.753735	0.753541
H35	H	1.336822	1.189876	0.553797
H36	H	1.206151	0.756626	1.120648
H37	H	1.336896	0.553240	1.191316
H38	H	1.206015	1.119233	0.756991
C39	C	0.732159	0.534273	0.534753
N40	N	0.689362	0.469109	0.469778
