data_functionalizedCrystal
_audit_creation_method	'MofGen! by Chris Wilmer'
_symmetry_space_group_name_H-M	'P1'
_symmetry_Int_Tables_number	1
_symmetry_cell_setting	triclinic
loop_
_symmetry_equiv_pos_as_xyz
  x,y,z
_cell_length_a	12.784905
_cell_length_b	27.731996
_cell_length_c	11.295483
_cell_angle_alpha	94.054077
_cell_angle_beta	86.327249
_cell_angle_gamma	77.864353
loop_
_atom_site_label
_atom_site_type_symbol
_atom_site_fract_x
_atom_site_fract_y
_atom_site_fract_z
O1	O	1.417484	-0.000528	-0.099032
O2	O	1.917484	0.499472	0.400968
O3	O	1.107680	0.020187	-0.099038
O4	O	1.607680	0.520187	0.400962
O5	O	1.272231	-0.060941	-0.099009
O6	O	1.772231	0.439059	0.400991
O7	O	1.252933	0.080600	-0.099061
O8	O	1.752933	0.580600	0.400939
O9	O	1.257778	-0.053826	0.099039
O10	O	1.757778	0.446174	0.599039
O11	O	1.093228	0.027303	0.099010
O12	O	1.593228	0.527303	0.599010
O13	O	1.403031	0.006587	0.099016
O14	O	1.903031	0.506587	0.599016
Cu15	Cu	1.246810	0.017595	0.117097
Cu16	Cu	1.746810	0.517595	0.617097
Cu17	Cu	1.263902	0.009180	-0.117118
Cu18	Cu	1.763902	0.509180	0.382882
O19	O	1.238481	0.087715	0.098987
O20	O	1.738481	0.587715	0.598987
C21	C	1.060832	0.025092	-0.000014
C22	C	1.560832	0.525092	0.499986
C23	C	0.942771	0.029101	-0.000015
C24	C	1.442771	0.529101	0.499985
C25	C	0.747761	-0.052571	-0.000007
C26	C	1.247761	0.447429	0.499993
C27	C	0.636833	-0.048807	-0.000008
C28	C	1.136833	0.451193	0.499992
C29	C	0.609985	0.040392	-0.000027
C30	C	1.109985	0.540392	0.499973
C31	C	0.720913	0.036628	-0.000026
C32	C	1.220913	0.536628	0.499974
C33	C	0.789798	-0.009855	-0.000014
C34	C	1.289798	0.490145	0.499986
C35	C	0.900727	-0.013619	-0.000004
C36	C	1.400727	0.486381	0.499996
C37	C	0.873878	0.075580	-0.000032
C38	C	1.373878	0.575580	0.499968
C39	C	0.762950	0.079344	-0.000034
C40	C	1.262950	0.579344	0.499966
C41	C	1.264608	-0.075375	0.000019
C42	C	1.764608	0.424625	0.500019
C43	C	1.263413	-0.128985	0.000031
C44	C	1.763413	0.371015	0.500031
C45	C	1.263781	-0.465292	-0.107983
C46	C	1.763781	0.034708	0.392017
C47	C	1.259248	-0.666776	-0.108004
C48	C	1.759248	-0.166776	0.391996
O49	O	1.265316	-0.696120	-0.199817
O50	O	1.765316	-0.196120	0.300183
N51	N	1.250806	-0.688092	-0.000049
N52	N	1.750806	-0.188092	0.499951
C53	C	1.243491	-0.659034	0.107919
C54	C	1.743491	-0.159034	0.607919
O55	O	1.236196	-0.681787	0.199741
O56	O	1.736196	-0.181787	0.699741
C57	C	1.248017	-0.457550	0.107939
C58	C	1.748017	0.042450	0.607939
C59	C	1.256470	-0.436238	-0.000023
C60	C	1.756470	0.063762	0.499977
C61	C	1.272232	-0.443979	-0.215936
C62	C	1.772232	0.056021	0.284064
C63	C	1.273371	-0.393611	-0.215930
C64	C	1.773371	0.106389	0.284070
C65	C	1.266059	-0.364557	-0.107970
C66	C	1.766059	0.135443	0.392030
C67	C	1.257609	-0.385870	-0.000017
C68	C	1.757609	0.114130	0.499983
C69	C	1.240694	-0.428492	0.215906
C70	C	1.740694	0.071508	0.715906
C71	C	1.241823	-0.378118	0.215901
C72	C	1.741823	0.121882	0.715901
C73	C	1.250276	-0.356805	0.107939
C74	C	1.750276	0.143195	0.607939
C75	C	1.251436	-0.306449	0.107949
C76	C	1.751436	0.193551	0.607949
N77	N	1.259877	-0.285132	-0.000006
N78	N	1.759877	0.214868	0.499994
C79	C	1.267189	-0.314186	-0.107966
C80	C	1.767189	0.185814	0.392034
C81	C	1.241118	-0.764816	0.107901
C82	C	1.741118	-0.264816	0.607901
C83	C	1.239988	-0.815187	0.107896
C84	C	1.739988	-0.315187	0.607896
C85	C	1.255743	-0.822925	-0.108027
C86	C	1.755743	-0.322925	0.391973
C87	C	1.256880	-0.772554	-0.108021
C88	C	1.756880	-0.272554	0.391979
C89	C	1.249559	-0.743499	-0.000054
C90	C	1.749559	-0.243499	0.499946
C91	C	1.269581	-0.208411	-0.107944
C92	C	1.769581	0.291589	0.392056
C93	C	1.270724	-0.158039	-0.107928
C94	C	1.770724	0.341961	0.392072
C95	C	1.254964	-0.150305	0.107994
C96	C	1.754964	0.349695	0.607994
C97	C	1.253827	-0.200673	0.107979
C98	C	1.753827	0.299327	0.607979
C99	C	1.261133	-0.229725	0.000000
C100	C	1.761133	0.270275	0.500000
O101	O	1.245360	-0.277073	0.199714
O102	O	1.745360	0.222927	0.699714
O103	O	1.274459	-0.291421	-0.199774
O104	O	1.774459	0.208579	0.300226
C105	C	1.262642	-0.515659	-0.107989
C106	C	1.762642	-0.015659	0.392011
C107	C	1.254191	-0.536972	-0.000036
C108	C	1.754191	-0.036972	0.499964
C109	C	1.246880	-0.507918	0.107924
C110	C	1.746880	-0.007918	0.607924
C111	C	1.253062	-0.587343	-0.000041
C112	C	1.753062	-0.087343	0.499959
C113	C	1.260374	-0.616397	-0.108000
C114	C	1.760374	-0.116397	0.392000
C115	C	1.268815	-0.595081	-0.215955
C116	C	1.768815	-0.095081	0.284045
C117	C	1.269954	-0.544713	-0.215949
C118	C	1.769954	-0.044713	0.284051
C119	C	1.238438	-0.529235	0.215879
C120	C	1.738438	-0.029235	0.715879
C121	C	1.237301	-0.579603	0.215864
C122	C	1.737301	-0.079603	0.715864
C123	C	1.244613	-0.608657	0.107904
C124	C	1.744613	-0.108657	0.607904
C125	C	1.449880	0.001682	-0.000010
C126	C	1.949880	0.501682	0.499990
C127	C	1.567941	-0.002327	-0.000016
C128	C	2.067941	0.497673	0.499984
C129	C	1.246104	0.102149	-0.000043
C130	C	1.746104	0.602149	0.499957
C131	C	1.247300	0.155759	-0.000063
C132	C	1.747300	0.655759	0.499937
N133	N	1.234796	0.023513	0.281831
N134	N	1.734796	0.523513	0.781831
N135	N	1.275924	0.003257	-0.281852
N136	N	1.775924	0.503257	0.218148
C137	C	1.362406	-0.039371	0.531143
C138	C	1.862406	0.460629	1.031143
C139	C	1.353335	-0.034896	0.655805
C140	C	1.853335	0.465104	1.155805
C141	C	1.207577	0.036937	0.655819
C142	C	1.707577	0.536937	1.155819
C143	C	1.216649	0.032461	0.531157
C144	C	1.716649	0.532461	1.031157
C145	C	1.294067	-0.005694	0.468823
C146	C	1.794067	0.494306	0.968823
C147	C	1.303143	-0.010167	0.344159
C148	C	1.803143	0.489833	0.844159
C149	C	1.157381	0.061663	0.344176
C150	C	1.657381	0.561663	0.844176
C151	C	1.148309	0.066139	0.468838
C152	C	1.648309	0.566139	0.968838
H153	H	0.803848	-0.090420	0.000011
H154	H	1.303848	0.409580	0.500011
Br155	Br	1.446080	-0.080605	0.740379
Br156	Br	1.946080	0.419395	1.240379
Br157	Br	0.579787	-0.106782	-0.000007
Br158	Br	1.079787	0.393218	0.499993
Br159	Br	1.102501	0.088709	0.740427
Br160	Br	1.602501	0.588709	1.240427
H161	H	0.706850	0.117190	-0.000048
H162	H	1.206850	0.617190	0.499952
Br163	Br	0.516485	0.103470	-0.000078
Br164	Br	1.016485	0.603470	0.499922
Br165	Br	1.408213	-0.061945	0.259564
Br166	Br	1.908213	0.438055	0.759564
H167	H	0.908114	0.110363	-0.000032
H168	H	1.408114	0.610363	0.499968
Br169	Br	1.281427	-0.515797	-0.362477
Br170	Br	1.781427	-0.015797	0.137523
Br171	Br	1.282203	-0.129119	-0.254458
Br172	Br	1.782203	0.370881	0.245542
H173	H	1.085274	0.097203	0.519604
H174	H	1.585274	0.597203	1.019604
Br175	Br	1.279496	-0.247830	-0.254488
Br176	Br	1.779496	0.252170	0.245512
H177	H	1.280250	-0.376263	-0.303844
H178	H	1.780250	0.123737	0.196156
H179	H	1.101737	0.089087	0.293421
H180	H	1.601737	0.589087	0.793421
H181	H	0.956812	-0.051468	0.000008
H182	H	1.456812	0.448532	0.500008
Br183	Br	1.242380	-0.229601	0.254500
Br184	Br	1.742380	0.270399	0.754500
H185	H	1.278183	-0.467629	-0.303855
H186	H	1.778183	0.032371	0.196145
Br187	Br	1.228502	-0.489810	0.362411
Br188	Br	1.728502	0.010190	0.862411
Br189	Br	1.231171	-0.725391	0.254443
Br190	Br	1.731171	-0.225391	0.754443
Br191	Br	1.268351	-0.743635	-0.254546
Br192	Br	1.768351	-0.243635	0.245454
H193	H	1.261697	-0.846590	-0.195932
H194	H	1.761697	-0.346590	0.304068
Br195	Br	1.228542	-0.844108	0.254422
Br196	Br	1.728542	-0.344108	0.754422
Br197	Br	1.467485	-0.091145	0.446544
Br198	Br	1.967485	0.408855	0.946544
H199	H	1.233813	-0.445836	0.303820
H200	H	1.733813	0.054164	0.803820
Br201	Br	1.231885	-0.338689	0.362437
Br202	Br	1.731885	0.161311	0.862437
H203	H	1.249016	-0.126641	0.195893
H204	H	1.749016	0.373359	0.695893
H205	H	1.274773	-0.618746	-0.303860
H206	H	1.774773	-0.118746	0.196140
H207	H	1.230426	-0.596951	0.303786
H208	H	1.730426	-0.096951	0.803786
