data_functionalizedCrystal
_audit_creation_method	'MofGen! by Chris Wilmer'
_symmetry_space_group_name_H-M	'P1'
_symmetry_Int_Tables_number	1
_symmetry_cell_setting	triclinic
loop_
_symmetry_equiv_pos_as_xyz
  x,y,z
_cell_length_a	25.639242
_cell_length_b	19.805406
_cell_length_c	19.805399
_cell_angle_alpha	90.014352
_cell_angle_beta	90.027395
_cell_angle_gamma	89.995496
loop_
_atom_site_label
_atom_site_type_symbol
_atom_site_fract_x
_atom_site_fract_y
_atom_site_fract_z
Zn1	Zn	0.799393	-0.269560	0.382923
Zn2	Zn	1.299393	0.230440	0.882923
Zn3	Zn	0.799367	-0.382748	0.269761
Zn4	Zn	1.299367	0.117252	0.769761
Zn5	Zn	0.711961	-0.269569	0.269732
Zn6	Zn	1.211961	0.230431	0.769732
Zn7	Zn	0.711973	-0.382703	0.382892
Zn8	Zn	1.211973	0.117297	0.882892
O9	O	0.755674	-0.326145	0.326327
O10	O	1.255674	0.173855	0.826327
O11	O	0.872555	-0.284589	0.367937
O12	O	1.372555	0.215411	0.867937
O13	O	0.787757	-0.367757	0.175041
O14	O	1.287757	0.132243	0.675041
O15	O	0.723565	-0.174851	0.284748
O16	O	1.223565	0.325149	0.784748
O17	O	0.872536	-0.367748	0.284797
O18	O	1.372536	0.132252	0.784797
O19	O	0.787800	-0.174844	0.367909
O20	O	1.287800	0.325156	0.867909
O21	O	0.723540	-0.284606	0.175020
O22	O	1.223540	0.215394	0.675020
O23	O	0.638798	-0.284562	0.284718
O24	O	1.138798	0.215438	0.784718
O25	O	0.723585	-0.367671	0.477613
O26	O	1.223585	0.132329	0.977613
O27	O	0.638806	-0.367681	0.367857
O28	O	1.138806	0.132319	0.867857
O29	O	0.787812	-0.284545	0.477636
O30	O	1.287812	0.215455	0.977636
O31	O	0.787769	-0.477458	0.284767
O32	O	1.287769	0.022542	0.784767
O33	O	0.723561	-0.477426	0.367884
O34	O	1.223561	0.022574	0.867884
C35	C	0.619831	-0.326118	0.326281
C36	C	1.119831	0.173882	0.826281
C37	C	0.561717	-0.326123	0.326278
C38	C	1.061717	0.173877	0.826278
C39	C	0.755684	-0.149602	0.326329
C40	C	1.255684	0.350398	0.826329
C41	C	0.755688	-0.074370	0.326330
C42	C	1.255688	0.425630	0.826330
C43	C	0.755678	-0.502001	0.326340
C44	C	1.255678	-0.002001	0.826340
C45	C	0.755727	-0.577233	0.326369
C46	C	1.255727	-0.077233	0.826369
C47	C	0.201368	-0.369497	0.369576
C48	C	0.701368	0.130503	0.869576
C49	C	0.146763	-0.369501	0.369587
C50	C	0.646763	0.130499	0.869587
O51	O	0.118538	-0.406346	0.406362
O52	O	0.618538	0.093654	0.906362
N53	N	0.119435	-0.326164	0.326371
N54	N	0.619435	0.173836	0.826371
C55	C	0.146713	-0.282814	0.283147
C56	C	0.646713	0.217186	0.783147
O57	O	0.118454	-0.245952	0.246390
O58	O	0.618454	0.254048	0.746390
C59	C	0.201316	-0.282807	0.283140
C60	C	0.701316	0.217193	0.783140
C61	C	0.228642	-0.326152	0.326354
C62	C	0.728642	0.173848	0.826354
C63	C	0.228693	-0.412839	0.412787
C64	C	0.728693	0.087161	0.912787
C65	C	0.283294	-0.412835	0.412775
C66	C	0.783294	0.087165	0.912775
C67	C	0.310569	-0.369490	0.369553
C68	C	0.810569	0.130510	0.869553
C69	C	0.283243	-0.326149	0.326342
C70	C	0.783243	0.173851	0.826342
C71	C	0.228594	-0.239454	0.239920
C72	C	0.728594	0.260546	0.739920
C73	C	0.283201	-0.239451	0.239917
C74	C	0.783201	0.260549	0.739917
C75	C	0.310527	-0.282796	0.283131
C76	C	0.810527	0.217204	0.783131
C77	C	0.365118	-0.282801	0.283108
C78	C	0.865118	0.217199	0.783108
N79	N	0.392447	-0.326139	0.326324
N80	N	0.892447	0.173861	0.826324
C81	C	0.365172	-0.369483	0.369546
C82	C	0.865172	0.130517	0.869546
C83	C	0.032042	-0.282831	0.283166
C84	C	0.532042	0.217169	0.783166
C85	C	-0.022560	-0.282841	0.283168
C86	C	0.477440	0.217159	0.783168
C87	C	-0.022506	-0.369528	0.369609
C88	C	0.477494	0.130472	0.869609
C89	C	0.032097	-0.369521	0.369602
C90	C	0.532097	0.130479	0.869602
C91	C	0.059371	-0.326169	0.326381
C92	C	0.559371	0.173831	0.826381
C93	C	0.479837	-0.369473	0.369518
C94	C	0.979837	0.130527	0.869518
C95	C	0.534442	-0.369468	0.369500
C96	C	1.034442	0.130532	0.869500
C97	C	0.534384	-0.282779	0.283062
C98	C	1.034384	0.217221	0.783062
C99	C	0.479783	-0.282787	0.283077
C100	C	0.979783	0.217213	0.783077
C101	C	0.452511	-0.326136	0.326310
C102	C	0.952511	0.173864	0.826310
O103	O	0.393378	-0.245972	0.246354
O104	O	0.893378	0.254028	0.746354
O105	O	0.393438	-0.406333	0.406303
O106	O	0.893438	0.093667	0.906303
C107	C	0.892047	-0.326172	0.326374
C108	C	1.392047	0.173828	0.826374
C109	C	0.950161	-0.326184	0.326393
C110	C	1.450161	0.173816	0.826393
C111	C	0.755703	-0.326102	0.502870
C112	C	1.255703	0.173898	1.002870
C113	C	0.755715	-0.326084	0.578102
C114	C	1.255715	0.173916	1.078102
C115	C	0.722248	-0.039029	0.283034
C116	C	1.222248	0.460971	0.783034
C117	C	0.722252	0.031660	0.283041
C118	C	1.222252	0.531660	0.783041
C119	C	0.755698	0.067005	0.326341
C120	C	1.255698	0.567005	0.826341
C121	C	0.789139	0.031659	0.369642
C122	C	1.289139	0.531659	0.869642
C123	C	0.789133	-0.039028	0.369637
C124	C	1.289133	0.460972	0.869637
C125	C	0.789165	0.316732	0.369662
C126	C	1.289165	0.816732	0.869662
C127	C	0.789170	0.387424	0.369661
C128	C	1.289170	0.887424	0.869661
C129	C	0.722284	0.387420	0.283066
C130	C	1.222284	0.887420	0.783066
C131	C	0.722277	0.316733	0.283061
C132	C	1.222277	0.816733	0.783061
C133	C	0.755717	0.281393	0.326364
C134	C	1.255717	0.781393	0.826364
C135	C	0.755712	0.204744	0.326356
C136	C	1.255712	0.704744	0.826356
C137	C	0.755706	0.143652	0.326346
C138	C	1.255706	0.643652	0.826346
C139	C	0.755675	-0.326139	0.150471
C140	C	1.255675	0.173861	0.650471
C141	C	0.755763	-0.325966	0.075240
C142	C	1.255763	0.174034	0.575240
C143	C	0.789159	-0.282798	0.613459
C144	C	1.289159	0.217202	1.113459
C145	C	0.789164	-0.282779	0.684148
C146	C	1.289164	0.217221	1.184148
C147	C	0.755728	-0.326049	0.719478
C148	C	1.255728	0.173951	1.219478
C149	C	0.722281	-0.369337	0.684116
C150	C	1.222281	0.130663	1.184116
C151	C	0.722274	-0.369352	0.613429
C152	C	1.222274	0.130648	1.113429
C153	C	0.722311	-0.369274	0.969189
C154	C	1.222311	0.130726	1.469189
C155	C	0.722322	-0.369256	1.039881
C156	C	1.222322	0.130744	1.539881
C157	C	0.789202	-0.282700	1.039908
C158	C	1.289202	0.217300	1.539908
C159	C	0.789194	-0.282716	0.969221
C160	C	1.289194	0.217284	1.469221
C161	C	0.755745	-0.326000	0.933865
C162	C	1.255745	0.174000	1.433865
C163	C	0.755739	-0.326020	0.857217
C164	C	1.255739	0.173980	1.357217
C165	C	0.755737	-0.326033	0.796125
C166	C	1.255737	0.173967	1.296125
H167	H	0.556689	-0.404768	0.404690
H168	H	1.056689	0.095232	0.904690
H169	H	0.816388	-0.247565	0.584698
H170	H	1.316388	0.252435	1.084698
H171	H	0.556601	-0.247491	0.247869
H172	H	1.056601	0.252509	0.747869
H173	H	0.305538	-0.448130	0.447965
H174	H	0.805538	0.051870	0.947965
F175	F	0.824800	-0.236629	1.077542
F176	F	1.324800	0.263371	1.577542
F177	F	0.686655	0.069270	0.236967
F178	F	1.186655	0.569270	0.736967
F179	F	0.686681	0.279119	0.236973
F180	F	1.186681	0.779119	0.736973
F181	F	-0.051636	-0.236715	0.237166
F182	F	0.448364	0.263285	0.737166
H183	H	0.695014	-0.067802	0.247771
H184	H	1.195014	0.432198	0.747771
F185	F	0.312224	-0.193307	0.193915
F186	F	0.812224	0.306693	0.693915
H187	H	0.816399	-0.247533	0.712932
H188	H	1.316399	0.252467	1.212932
F189	F	0.824783	-0.236664	0.931624
F190	F	1.324783	0.263336	1.431624
H191	H	0.695092	-0.404493	1.068645
H192	H	1.195092	0.095507	1.568645
H193	H	0.816370	0.060441	0.404901
H194	H	1.316370	0.560441	0.904901
F195	F	0.199674	-0.458976	0.458795
F196	F	0.699674	0.041024	0.958795
H197	H	0.695054	0.416202	0.247808
H198	H	1.195054	0.916202	0.747808
F199	F	0.686711	-0.415341	0.931570
F200	F	1.186711	0.084659	1.431570
F201	F	0.824724	-0.076641	0.415719
F202	F	1.324724	0.423359	0.915719
F203	F	0.686694	-0.415386	0.721719
F204	F	1.186694	0.084614	1.221719
F205	F	0.686677	-0.415421	0.575799
F206	F	1.186677	0.084579	1.075799
H207	H	0.816399	0.287967	0.404914
H208	H	1.316399	0.787967	0.904914
F209	F	0.450820	-0.415611	0.415531
F210	F	0.950820	0.084389	0.915531
F211	F	0.061175	-0.415654	0.415597
F212	F	0.561175	0.084346	0.915597
H213	H	-0.044723	-0.404820	0.404805
H214	H	0.455277	0.095180	0.904805
H215	H	0.054245	-0.247529	0.247965
H216	H	0.554245	0.252471	0.747965
H217	H	0.457533	-0.247493	0.247887
H218	H	0.957533	0.252507	0.747887
F219	F	0.824769	0.425040	0.415750
F220	F	1.324769	0.925040	0.915750
F221	F	0.199523	-0.193316	0.193929
F222	F	0.699523	0.306684	0.693929
