data_functionalizedCrystal
_audit_creation_method	'MofGen! by Chris Wilmer'
_symmetry_space_group_name_H-M	'P1'
_symmetry_Int_Tables_number	1
_symmetry_cell_setting	triclinic
loop_
_symmetry_equiv_pos_as_xyz
  x,y,z
_cell_length_a	22.863218
_cell_length_b	22.862586
_cell_length_c	22.858745
_cell_angle_alpha	60.006856
_cell_angle_beta	60.013818
_cell_angle_gamma	59.991795
loop_
_atom_site_label
_atom_site_type_symbol
_atom_site_fract_x
_atom_site_fract_y
_atom_site_fract_z
O1	O	0.081006	-0.854581	0.714630
O2	O	0.030492	-0.665350	0.575795
O3	O	0.150314	-0.785089	0.575706
O4	O	-0.038816	-0.734841	0.714718
O5	O	0.190066	-0.745348	0.615369
O6	O	0.070244	-0.625609	0.615458
O7	O	0.120758	-0.814840	0.754293
Zn8	Zn	0.101812	-0.713914	0.691173
Zn9	Zn	0.049438	-0.766275	0.638915
O10	O	0.000936	-0.695100	0.754381
N11	N	0.137558	-0.678184	0.726840
N12	N	0.013698	-0.802011	0.603247
C13	C	0.187224	-0.518558	0.776483
C14	C	0.187235	-0.628552	0.776467
C15	C	0.214753	-0.601061	0.803961
C16	C	0.334724	-0.580392	0.740801
C17	C	0.409718	-0.605392	0.715784
C18	C	0.409746	-0.726732	0.762051
C19	C	0.334754	-0.701730	0.787070
C20	C	0.205297	-0.481049	0.702756
C21	C	0.180267	-0.406048	0.677779
C22	C	0.119099	-0.406071	0.800259
C23	C	0.144128	-0.481071	0.825236
C24	C	0.113501	-0.610437	0.794610
C25	C	0.088492	-0.635428	0.769607
C26	C	0.210943	-0.696652	0.708337
C27	C	0.235956	-0.671660	0.733331
C28	C	0.113585	-0.610461	0.923980
C29	C	0.088635	-0.635476	0.998978
C30	C	0.211128	-0.696714	0.998930
C31	C	0.236077	-0.671700	0.923930
C32	C	0.187303	-0.628571	0.886457
C33	C	0.297246	-0.628559	0.776441
C34	C	-0.117796	-0.823430	0.581283
C35	C	-0.007671	-0.823587	0.471446
C36	C	-0.007879	-0.933535	0.581483
C37	C	-0.007861	-0.823583	0.581554
C38	C	-0.035301	-0.851035	0.553942
N39	N	0.446162	-0.678198	0.726752
O40	O	0.691234	-0.690164	0.550341
O41	O	0.691462	-0.829422	0.739388
O42	O	0.691373	-0.829102	0.619485
O43	O	0.691323	-0.690484	0.670244
O44	O	0.572233	-0.789455	0.659278
O45	O	0.572322	-0.789775	0.779181
O46	O	0.572094	-0.650517	0.590134
Zn47	Zn	0.553292	-0.713851	0.690976
Zn48	Zn	0.710264	-0.766088	0.638547
O49	O	0.572183	-0.650837	0.710037
N50	N	0.817394	-0.801741	0.602763
N51	N	0.137538	-0.369628	0.726874
O52	O	-0.038795	-0.124419	0.714761
O53	O	0.150256	-0.124417	0.575522
O54	O	0.030331	-0.124432	0.575860
O55	O	0.081131	-0.124404	0.714423
O56	O	0.070086	-0.243584	0.615573
O57	O	0.190011	-0.243569	0.615236
O58	O	0.000960	-0.243571	0.754474
Zn59	Zn	0.101797	-0.262488	0.691160
Zn60	Zn	0.049419	-0.105500	0.638836
O61	O	0.120885	-0.243556	0.754137
N62	N	0.013669	0.001640	0.603123
N63	N	0.137749	-0.678230	1.035381
O64	O	0.125655	-0.854547	1.280566
O65	O	-0.013567	-0.665426	1.280590
O66	O	-0.013245	-0.785328	1.280537
O67	O	0.125333	-0.734644	1.280618
O68	O	0.026456	-0.745599	1.161392
O69	O	0.026134	-0.625697	1.161444
O70	O	0.165355	-0.814817	1.161420
Zn71	Zn	0.102048	-0.713949	1.142516
Zn72	Zn	0.049740	-0.766294	1.299495
O73	O	0.165033	-0.694915	1.161473
N74	N	0.014038	-0.802020	1.406629
C75	C	0.045634	-0.621635	0.576499
C76	C	0.194019	-0.769918	0.576389
C77	C	0.105616	-0.858555	0.753588
C78	C	-0.042769	-0.710272	0.753698
C79	C	0.631920	-0.828776	0.783102
C80	C	0.631811	-0.828380	0.634616
C81	C	0.631633	-0.651162	0.546422
C82	C	0.631745	-0.651559	0.694907
C83	C	0.193900	-0.183846	0.576155
C84	C	0.045437	-0.184012	0.576622
C85	C	-0.042734	-0.183994	0.753792
C86	C	0.105780	-0.183977	0.753375
C87	C	-0.012889	-0.621735	1.221020
C88	C	-0.012483	-0.770211	1.220931
C89	C	0.164678	-0.858508	1.220991
C90	C	0.164280	-0.710023	1.221052
H91	H	0.028603	-0.620718	1.029520
H92	H	0.116656	-0.183968	0.796904
H93	H	0.248082	-0.183515	0.532333
O94	O	0.216154	-0.696964	1.221039
C95	C	0.190055	-0.626546	1.221075
H96	H	0.144065	-0.592639	1.198514
H97	H	0.170081	-0.627602	1.278242
C98	C	0.307140	-0.635645	1.202079
C99	C	0.250657	-0.593998	1.174363
H100	H	0.344522	-0.615568	1.173267
H101	H	0.324723	-0.683088	1.202057
H102	H	0.290486	-0.636522	1.249717
H103	H	0.267310	-0.593129	1.126729
H104	H	0.233078	-0.546554	1.174376
O105	O	0.032367	-0.184073	0.524784
C106	C	-0.038054	-0.184070	0.550882
H107	H	-0.056884	-0.206602	0.611904
H108	H	-0.075133	-0.126914	0.532748
C109	C	-0.016323	-0.203161	0.446507
C110	C	-0.039449	-0.230842	0.521455
H111	H	-0.017185	-0.232009	0.428353
H112	H	0.031120	-0.203161	0.428922
H113	H	-0.047225	-0.155532	0.431405
H114	H	-0.008541	-0.278466	0.536555
H115	H	-0.086887	-0.230851	0.539041
H116	H	-0.097027	-0.183996	0.797505
H117	H	0.631832	-0.871926	0.623751
H118	H	0.631977	-0.872492	0.837399
O119	O	0.066106	-0.568598	0.887691
C120	C	-0.004312	-0.557959	0.936892
H121	H	-0.004142	-0.603181	0.990343
H122	H	-0.025797	-0.504534	0.944880
C123	C	-0.052647	-0.501875	0.841992
C124	C	-0.052439	-0.557421	0.907640
H125	H	-0.082336	-0.501540	0.823948
H126	H	-0.005206	-0.509041	0.808844
H127	H	-0.070550	-0.457361	0.848658
H128	H	-0.034528	-0.601935	0.900973
H129	H	-0.099879	-0.550263	0.940787
O130	O	0.631643	-0.598975	0.481651
C131	C	0.693321	-0.579712	0.449907
H132	H	0.713939	-0.594224	0.493331
H133	H	0.736518	-0.609761	0.410790
C134	C	0.649168	-0.480650	0.356082
C135	C	0.674488	-0.498469	0.409417
H136	H	0.637553	-0.430536	0.331102
H137	H	0.607616	-0.493629	0.377466
H138	H	0.685170	-0.505697	0.323491
H139	H	0.638483	-0.473429	0.442011
H140	H	0.716034	-0.485484	0.388037
O141	O	0.118364	-0.923406	0.805634
C142	C	0.069225	-0.955227	0.824907
H143	H	0.019612	-0.911833	0.810549
H144	H	0.095175	-0.994238	0.794739
C145	C	0.108445	-1.049201	0.923740
C146	C	0.047507	-0.995904	0.906111
H147	H	0.095050	-1.074295	0.973830
H148	H	0.141553	-1.027765	0.910755
H149	H	0.130064	-1.081703	0.898595
H150	H	0.025894	-0.963398	0.931250
H151	H	0.014395	-1.017335	0.919103
H152	H	0.208389	-0.912821	1.220975
O153	O	-0.107512	-0.697554	0.805868
C154	C	-0.098098	-0.705564	0.866220
H155	H	-0.040957	-0.741408	0.865489
H156	H	-0.108327	-0.650786	0.864872
C157	C	-0.221364	-0.695866	0.935854
C158	C	-0.151185	-0.739895	0.934959
H159	H	-0.254113	-0.717040	0.978256
H160	H	-0.227708	-0.690467	0.895193
H161	H	-0.229878	-0.650220	0.934727
H162	H	-0.142669	-0.785536	0.936077
H163	H	-0.144841	-0.745302	0.975622
O164	O	0.631694	-0.599675	0.707989
C165	C	0.631784	-0.625782	0.778392
H166	H	0.609280	-0.671791	0.812286
H167	H	0.688957	-0.645738	0.777302
C168	C	0.612690	-0.508679	0.769356
C169	C	0.585044	-0.565185	0.810987
H170	H	0.583861	-0.471300	0.789462
H171	H	0.612632	-0.491090	0.721923
H172	H	0.660333	-0.525319	0.768451
H173	H	0.537405	-0.548547	0.811884
H174	H	0.585093	-0.582770	0.858421
O175	O	-0.064969	-0.556909	1.221058
C176	C	-0.039178	-0.512331	1.221069
H177	H	0.006810	-0.546789	1.243635
H178	H	-0.019292	-0.476152	1.163916
C179	C	-0.156473	-0.423639	1.240084
C180	C	-0.099994	-0.465961	1.267806
H181	H	-0.193987	-0.395033	1.268911
H182	H	-0.173849	-0.453670	1.240074
H183	H	-0.139892	-0.393496	1.192457
H184	H	-0.116573	-0.496109	1.315429
H185	H	-0.082622	-0.435934	1.267825
O186	O	-0.064312	-0.783225	1.220810
C187	C	-0.038218	-0.853649	1.220788
H188	H	0.022802	-0.872524	1.198280
H189	H	-0.056362	-0.890715	1.277930
C190	C	-0.142578	-0.831823	1.201625
C191	C	-0.067632	-0.855004	1.173975
H192	H	-0.160724	-0.832660	1.172751
H193	H	-0.160159	-0.784378	1.201642
H194	H	-0.157688	-0.862715	1.249243
H195	H	-0.052523	-0.824107	1.126361
H196	H	-0.050049	-0.902444	1.173948
H197	H	0.304191	-0.520811	0.732143
O198	O	0.258537	-0.738698	1.035292
C199	C	0.301915	-0.801584	1.016928
H200	H	0.272943	-0.812016	0.996326
H201	H	0.354581	-0.794758	0.973378
C202	C	0.352878	-0.852596	1.108832
C203	C	0.317291	-0.865411	1.083534
H204	H	0.362366	-0.891967	1.149916
H205	H	0.323656	-0.810227	1.121203
H206	H	0.396762	-0.846906	1.072534
H207	H	0.273405	-0.871092	1.119829
H208	H	0.346507	-0.907783	1.071171
O209	O	0.016872	-0.617750	0.787106
C210	C	-0.001297	-0.579995	0.724108
H211	H	0.040958	-0.554611	0.679048
H212	H	-0.003796	-0.618553	0.708319
C213	C	-0.126745	-0.552138	0.792834
C214	C	-0.074850	-0.520955	0.737492
H215	H	-0.172117	-0.515722	0.801089
H216	H	-0.114505	-0.577576	0.835277
H217	H	-0.128819	-0.584269	0.779669
H218	H	-0.072771	-0.488833	0.750661
H219	H	-0.087091	-0.495510	0.695051
H220	H	0.073825	-0.575337	0.829731
O221	O	0.258370	-0.738496	0.666422
C222	C	0.328810	-0.749140	0.655795
H223	H	0.328676	-0.703929	0.664182
H224	H	0.350326	-0.802573	0.695698
C225	C	0.377038	-0.805191	0.568652
C226	C	0.376874	-0.749658	0.578948
H227	H	0.406687	-0.805514	0.521251
H228	H	0.329582	-0.798023	0.575814
H229	H	0.394966	-0.849713	0.601910
H230	H	0.358938	-0.705137	0.545697
H231	H	0.424328	-0.756819	0.571779
O232	O	0.032843	-0.556758	0.524495
C233	C	0.082006	-0.524950	0.505189
H234	H	0.102969	-0.548677	0.551114
H235	H	0.128658	-0.535766	0.455357
C236	C	0.018623	-0.414403	0.432974
C237	C	0.044366	-0.443540	0.489383
H238	H	-0.004593	-0.364185	0.423221
H239	H	-0.014498	-0.435833	0.445978
H240	H	0.057505	-0.423422	0.391454
H241	H	0.005483	-0.434528	0.530904
H242	H	0.077479	-0.422106	0.476385
O243	O	0.298456	-0.748615	0.821647
C244	C	0.347647	-0.818560	0.825672
H245	H	0.401088	-0.815707	0.781368
H246	H	0.355658	-0.847194	0.880016
C247	C	0.252730	-0.863641	0.870922
C248	C	0.318366	-0.860138	0.816503
H249	H	0.234668	-0.889290	0.865269
H250	H	0.219589	-0.816519	0.868213
H251	H	0.259415	-0.887501	0.916203
H252	H	0.311678	-0.836271	0.771224
H253	H	0.351505	-0.907257	0.819204
H254	H	0.248339	-0.780632	0.532734
H255	H	0.296108	-0.686456	0.893383
H256	H	0.295996	-0.686402	0.718551
H257	H	0.440232	-0.566167	0.686761
O258	O	0.446298	-0.797785	0.772283
C259	C	0.520526	-0.809524	0.742576
H260	H	0.530742	-0.757910	0.699589
H261	H	0.541837	-0.826811	0.786465
C262	C	0.546472	-0.932112	0.761702
C263	C	0.559021	-0.868720	0.708901
H264	H	0.570219	-0.968629	0.740933
H265	H	0.496464	-0.924204	0.781719
H266	H	0.564232	-0.946508	0.798273
H267	H	0.541253	-0.854321	0.672337
H268	H	0.609027	-0.876627	0.688877
H269	H	0.194981	-0.375507	0.617742
O270	O	0.247122	-0.517353	0.655304
C271	C	0.257712	-0.468161	0.584873
H272	H	0.212487	-0.414701	0.585028
H273	H	0.311132	-0.460181	0.563367
C274	C	0.313755	-0.563081	0.536588
C275	C	0.258205	-0.497423	0.536778
H276	H	0.314063	-0.581131	0.506919
H277	H	0.306623	-0.596224	0.584039
H278	H	0.358265	-0.556422	0.518668
H279	H	0.213695	-0.504084	0.554706
H280	H	0.265330	-0.464282	0.489329
H281	H	0.084019	-0.375548	0.839959
H282	H	0.129402	-0.511613	0.885274
