data_functionalizedCrystal
_audit_creation_method	'MofGen! by Chris Wilmer'
_symmetry_space_group_name_H-M	'P1'
_symmetry_Int_Tables_number	1
_symmetry_cell_setting	triclinic
loop_
_symmetry_equiv_pos_as_xyz
  x,y,z
_cell_length_a	10.967874
_cell_length_b	10.967829
_cell_length_c	16.176319
_cell_angle_alpha	77.865348
_cell_angle_beta	77.863909
_cell_angle_gamma	82.165976
loop_
_atom_site_label
_atom_site_type_symbol
_atom_site_fract_x
_atom_site_fract_y
_atom_site_fract_z
O1	O	1.657238	0.175051	-0.329769
O2	O	1.990571	0.508384	0.003564
O3	O	2.323905	0.841717	0.336898
O4	O	1.294077	0.191801	-0.280421
O5	O	1.627411	0.525134	0.052912
O6	O	1.960744	0.858467	0.386245
O7	O	1.484030	0.001846	-0.280417
O8	O	1.817363	0.335179	0.052917
O9	O	2.150697	0.668512	0.386250
O10	O	1.467285	0.365006	-0.329774
O11	O	1.800619	0.698339	0.003560
O12	O	2.133952	1.031672	0.336893
O13	O	1.484004	0.001833	-0.142918
O14	O	1.817337	0.335167	0.190415
O15	O	2.150670	0.668500	0.523749
O16	O	1.294051	0.191788	-0.142923
O17	O	1.627384	0.525122	0.190411
O18	O	1.960717	0.858455	0.523744
O19	O	1.657212	0.175038	-0.192270
O20	O	1.990545	0.508372	0.141063
O21	O	2.323878	0.841705	0.474396
Cu22	Cu	1.475629	0.183412	-0.155042
Cu23	Cu	1.808962	0.516746	0.178292
Cu24	Cu	2.142295	0.850079	0.511625
Cu25	Cu	1.475660	0.183427	-0.317650
Cu26	Cu	1.808993	0.516760	0.015683
Cu27	Cu	2.142327	0.850094	0.349017
O28	O	1.467259	0.364993	-0.192275
O29	O	1.800592	0.698327	0.141058
O30	O	2.133926	1.031660	0.474392
C31	C	1.247563	0.190575	-0.204874
C32	C	1.580897	0.523908	0.128459
C33	C	1.914230	0.857242	0.461793
C34	C	1.109006	0.186926	-0.184616
C35	C	1.442339	0.520259	0.148717
C36	C	1.775672	0.853592	0.482050
C37	C	1.047246	0.185305	-0.246813
C38	C	1.380579	0.518639	0.086520
C39	C	1.713913	0.851972	0.419854
C40	C	0.904039	0.181534	-0.225877
C41	C	1.237373	0.514867	0.107456
C42	C	1.570706	0.848200	0.440790
C43	C	1.482796	-0.044661	-0.204870
C44	C	1.816130	0.288672	0.128463
C45	C	2.149463	0.622006	0.461797
C46	C	1.479145	-0.183218	-0.184614
C47	C	1.812479	0.150115	0.148720
C48	C	2.145812	0.483448	0.482053
C49	C	1.477531	-0.244979	-0.246812
C50	C	1.810865	0.088354	0.086521
C51	C	2.144198	0.421688	0.419855
C52	C	1.473758	-0.388185	-0.225878
C53	C	1.807091	-0.054852	0.107455
C54	C	2.140424	0.278482	0.440789
C55	C	1.703726	0.176264	-0.267819
C56	C	2.037059	0.509598	0.065514
C57	C	2.370392	0.842931	0.398847
C58	C	1.842283	0.179913	-0.288083
C59	C	2.175617	0.513247	0.045251
C60	C	2.508950	0.846580	0.378584
C61	C	1.468492	0.411500	-0.267824
C62	C	1.801826	0.744834	0.065510
C63	C	2.135159	1.078167	0.398843
C64	C	1.472144	0.550057	-0.288085
C65	C	1.805477	0.883391	0.045248
C66	C	2.138810	1.216724	0.378581
N67	N	1.475616	0.183401	-0.040673
N68	N	1.808949	0.516734	0.292660
N69	N	2.142283	0.850068	0.625994
N70	N	1.475683	0.183428	-0.432019
N71	N	1.809016	0.516762	-0.098685
N72	N	2.142349	0.850095	0.234648
C73	C	1.559753	0.099324	0.002585
C74	C	1.893086	0.432657	0.335918
C75	C	2.226419	0.765991	0.669251
C76	C	1.559759	0.099323	0.089131
C77	C	1.893092	0.432656	0.422464
C78	C	2.226426	0.765989	0.755798
C79	C	1.475634	0.183406	0.132416
C80	C	1.808967	0.516739	0.465750
C81	C	2.142300	0.850072	0.799083
C82	C	1.391488	0.267487	0.089153
C83	C	1.724821	0.600820	0.422487
C84	C	2.058154	0.934153	0.755820
C85	C	1.391476	0.267481	0.002610
C86	C	1.724810	0.600814	0.335944
C87	C	2.058143	0.934148	0.669277
C88	C	1.391531	0.267511	0.438172
C89	C	1.724864	0.600844	0.771505
C90	C	2.058197	0.934177	1.104839
C91	C	1.391551	0.267512	0.524721
C92	C	1.724884	0.600846	0.858054
C93	C	2.058218	0.934179	1.191387
C94	C	1.559813	0.099352	0.524693
C95	C	1.893147	0.432686	0.858026
C96	C	2.226480	0.766019	1.191359
C97	C	1.559802	0.099347	0.438150
C98	C	1.893135	0.432680	0.771483
C99	C	2.226469	0.766013	1.104816
C100	C	1.475652	0.183423	0.394895
C101	C	1.808986	0.516756	0.728229
C102	C	2.142319	0.850089	1.061562
C103	C	1.475645	0.183421	0.301053
C104	C	1.808978	0.516755	0.634386
C105	C	2.142311	0.850088	0.967719
C106	C	1.475646	0.183414	0.226256
C107	C	1.808979	0.516747	0.559589
C108	C	2.142313	0.850081	0.892923
H109	H	0.850898	0.180136	-0.157125
H110	H	1.184231	0.513469	0.176208
H111	H	1.517565	0.846803	0.509542
Cl112	Cl	0.924315	0.182100	-0.394236
Cl113	Cl	1.257648	0.515433	-0.060903
Cl114	Cl	1.590982	0.848766	0.272430
Cl115	Cl	1.474275	-0.367905	-0.394231
Cl116	Cl	1.807608	-0.034572	-0.060897
Cl117	Cl	2.140941	0.298762	0.272436
Cl118	Cl	1.026963	0.184767	-0.078471
Cl119	Cl	1.360296	0.518100	0.254862
Cl120	Cl	1.693629	0.851433	0.588195
Cl121	Cl	1.129288	0.187476	-0.352959
Cl122	Cl	1.462621	0.520809	-0.019626
Cl123	Cl	1.795954	0.854142	0.313708
Cl124	Cl	1.479740	-0.162943	-0.352962
Cl125	Cl	1.813074	0.170391	-0.019628
Cl126	Cl	2.146407	0.503724	0.313705
Cl127	Cl	1.471568	-0.470219	-0.119726
Cl128	Cl	1.804901	-0.136886	0.213607
Cl129	Cl	2.138235	0.196448	0.546941
H130	H	1.477725	-0.236362	-0.115864
H131	H	1.811059	0.096972	0.217469
H132	H	2.144392	0.430305	0.550802
Cl133	Cl	1.665523	-0.006381	-0.051824
Cl134	Cl	1.998857	0.326952	0.281509
Cl135	Cl	2.332190	0.660285	0.614843
Cl136	Cl	1.665532	-0.006377	0.143514
Cl137	Cl	1.998865	0.326956	0.476847
Cl138	Cl	2.332198	0.660289	0.810180
Cl139	Cl	1.285750	0.373208	0.383800
Cl140	Cl	1.619084	0.706541	0.717133
Cl141	Cl	1.952417	1.039875	1.050466
H142	H	1.628309	0.030883	0.402908
H143	H	1.961642	0.364216	0.736241
H144	H	2.294976	0.697549	1.069575
H145	H	1.628329	0.030889	0.559921
H146	H	1.961663	0.364222	0.893254
H147	H	2.294996	0.697555	1.226587
H148	H	1.323041	0.335985	0.559962
H149	H	1.656374	0.669318	0.893296
H150	H	1.989708	1.002652	1.226629
H151	H	1.322985	0.335944	0.124403
H152	H	1.656318	0.669278	0.457736
H153	H	1.989651	1.002611	0.791070
H154	H	1.322962	0.335944	-0.032609
H155	H	1.656295	0.669277	0.300724
H156	H	1.989629	1.002610	0.634058
