data_functionalizedCrystal
_audit_creation_method	'MofGen! by Chris Wilmer'
_symmetry_space_group_name_H-M	'P1'
_symmetry_Int_Tables_number	1
_symmetry_cell_setting	triclinic
loop_
_symmetry_equiv_pos_as_xyz
  x,y,z
_cell_length_a	9.065218
_cell_length_b	16.776229
_cell_length_c	9.065218
_cell_angle_alpha	90.004766
_cell_angle_beta	85.015885
_cell_angle_gamma	90.007185
loop_
_atom_site_label
_atom_site_type_symbol
_atom_site_fract_x
_atom_site_fract_y
_atom_site_fract_z
O1	O	1.960407	0.066287	0.216360
O2	O	1.531122	0.066288	0.234107
O3	O	1.754638	0.066285	0.010591
O4	O	1.736891	0.066289	0.439876
O5	O	1.754607	-0.066291	0.010577
O6	O	1.531092	-0.066289	0.234093
O7	O	1.960377	-0.066290	0.216346
Zn8	Zn	1.745729	-0.087339	0.225217
Zn9	Zn	1.745769	0.087336	0.225236
O10	O	1.736861	-0.066288	0.439862
C11	C	1.476120	-0.000001	0.232394
C12	C	1.312277	-0.000000	0.227294
N13	N	1.745713	-0.206550	0.225203
C14	C	1.844717	-0.248268	0.126272
C15	C	1.844725	-0.331720	0.126271
C16	C	1.745735	-0.373453	0.225209
C17	C	1.646721	-0.331729	0.324145
C18	C	1.646707	-0.248278	0.324138
C19	C	1.646775	-0.668276	0.324175
C20	C	1.646799	-0.751733	0.324177
C21	C	1.844793	-0.751718	0.126308
C22	C	1.844779	-0.668267	0.126301
C23	C	1.745760	-0.626551	0.225231
C24	C	1.745750	-0.536062	0.225229
C25	C	1.745751	-0.463940	0.225220
C26	C	2.015378	0.000000	0.218059
C27	C	2.179221	0.000005	0.223158
C28	C	1.752917	-0.000001	-0.044403
C29	C	1.747817	0.000002	-0.208245
N30	N	1.745797	0.206548	0.225238
C31	C	1.738582	0.000001	0.494855
C32	C	1.743681	0.000002	0.658698
H33	H	1.925332	-0.214295	0.045712
H34	H	1.925340	-0.365687	0.045713
O35	O	1.940831	-0.792366	0.030247
C36	C	1.919647	-0.874971	0.051481
H37	H	1.803073	-0.886382	0.104988
H38	H	2.004146	-0.898639	0.126658
C39	C	2.083008	-0.903805	-0.164876
C40	C	1.939826	-0.917820	-0.099168
H41	H	2.095462	-0.930237	-0.257801
H42	H	2.097286	-0.848153	-0.179179
H43	H	2.153408	-0.923528	-0.102213
H44	H	1.869430	-0.898088	-0.161822
H45	H	1.925537	-0.973470	-0.084879
H46	H	1.925390	-0.634291	0.045741
O47	O	1.550483	-0.792150	0.420336
C48	C	1.463103	-0.737436	0.507675
H49	H	1.460621	-0.677953	0.447154
H50	H	1.512452	-0.728548	0.617968
C51	C	1.307393	-0.843087	0.610180
C52	C	1.304334	-0.770031	0.535840
H53	H	1.209458	-0.863194	0.627560
H54	H	1.366265	-0.879950	0.551342
H55	H	1.348524	-0.835670	0.702082
H56	H	1.263222	-0.777451	0.443933
H57	H	1.245451	-0.733170	0.594663
H58	H	1.566153	-0.634317	0.404730
H59	H	1.566114	-0.365713	0.404698
H60	H	1.566086	-0.214312	0.404696
