data_functionalizedCrystal
_audit_creation_method	'MofGen! by Chris Wilmer'
_symmetry_space_group_name_H-M	'P1'
_symmetry_Int_Tables_number	1
_symmetry_cell_setting	triclinic
loop_
_symmetry_equiv_pos_as_xyz
  x,y,z
_cell_length_a	16.109301
_cell_length_b	7.681481
_cell_length_c	16.109301
_cell_angle_alpha	95.741881
_cell_angle_beta	83.461481
_cell_angle_gamma	84.275465
loop_
_atom_site_label
_atom_site_type_symbol
_atom_site_fract_x
_atom_site_fract_y
_atom_site_fract_z
O1	O	1.095274	0.146325	0.114735
O2	O	1.345274	0.396325	0.364735
O3	O	1.595274	0.646325	0.614735
O4	O	1.845274	0.896325	0.864735
O5	O	0.853211	0.146354	0.128036
O6	O	1.103211	0.396354	0.378036
O7	O	1.353211	0.646354	0.628036
O8	O	1.603211	0.896354	0.878036
O9	O	0.980893	0.146321	0.000353
O10	O	1.230893	0.396321	0.250353
O11	O	1.480893	0.646321	0.500353
O12	O	1.730893	0.896321	0.750353
O13	O	0.967592	0.146358	0.242417
O14	O	1.217592	0.396358	0.492417
O15	O	1.467592	0.646358	0.742417
O16	O	1.717592	0.896358	0.992417
O17	O	0.996609	-0.146541	-0.015398
O18	O	1.246609	0.103459	0.234602
O19	O	1.496609	0.353459	0.484602
O20	O	1.746609	0.603459	0.734602
O21	O	0.868926	-0.146508	0.112285
O22	O	1.118926	0.103492	0.362285
O23	O	1.368926	0.353492	0.612285
O24	O	1.618926	0.603492	0.862285
O25	O	1.110990	-0.146537	0.098984
O26	O	1.360990	0.103463	0.348984
O27	O	1.610990	0.353463	0.598984
O28	O	1.860990	0.603463	0.848984
Zn29	Zn	0.992453	-0.193021	0.103133
Zn30	Zn	1.242453	0.056979	0.353133
Zn31	Zn	1.492453	0.306979	0.603133
Zn32	Zn	1.742453	0.556979	0.853133
Zn33	Zn	0.971747	0.192838	0.123886
Zn34	Zn	1.221747	0.442838	0.373886
Zn35	Zn	1.471747	0.692838	0.623886
Zn36	Zn	1.721747	0.942838	0.873886
O37	O	0.983307	-0.146504	0.226666
O38	O	1.233307	0.103496	0.476666
O39	O	1.483307	0.353496	0.726666
O40	O	1.733307	0.603496	0.976666
C41	C	0.830093	-0.000074	0.119622
C42	C	1.080093	0.249926	0.369622
C43	C	1.330093	0.499926	0.619622
C44	C	1.580093	0.749926	0.869622
C45	C	0.737798	-0.000063	0.118007
C46	C	0.987798	0.249937	0.368007
C47	C	1.237798	0.499937	0.618007
C48	C	1.487798	0.749937	0.868007
N49	N	1.006591	-0.456358	0.088970
N50	N	1.256591	-0.206358	0.338970
N51	N	1.506591	0.043642	0.588970
N52	N	1.756591	0.293642	0.838970
C53	C	0.515526	-0.000073	0.190014
C54	C	0.765526	0.249927	0.440014
C55	C	1.015526	0.499927	0.690014
C56	C	1.265526	0.749927	0.940014
C57	C	0.428806	-0.000084	0.188490
C58	C	0.678806	0.249916	0.438490
C59	C	0.928806	0.499916	0.688490
C60	C	1.178806	0.749916	0.938490
C61	C	0.448681	-0.000100	0.037000
C62	C	0.698681	0.249900	0.287000
C63	C	0.948681	0.499900	0.537000
C64	C	1.198681	0.749900	0.787000
C65	C	0.535400	-0.000101	0.038525
C66	C	0.785400	0.249899	0.288525
C67	C	1.035400	0.499899	0.538525
C68	C	1.285400	0.749899	0.788525
C69	C	0.568819	-0.000079	0.115035
C70	C	0.818819	0.249921	0.365035
C71	C	1.068819	0.499921	0.615035
C72	C	1.318819	0.749921	0.865035
C73	C	0.395381	-0.000089	0.111986
C74	C	0.645381	0.249911	0.361986
C75	C	0.895381	0.499911	0.611986
C76	C	1.145381	0.749911	0.861986
C77	C	0.301355	-0.000101	0.110332
C78	C	0.551355	0.249899	0.360332
C79	C	0.801355	0.499899	0.610332
C80	C	1.051355	0.749899	0.860332
C81	C	0.662851	-0.000069	0.116689
C82	C	0.912851	0.249931	0.366689
C83	C	1.162851	0.499931	0.616689
C84	C	1.412851	0.749931	0.866689
C85	C	1.134107	-0.000105	0.107398
C86	C	1.384107	0.249895	0.357398
C87	C	1.634107	0.499895	0.607398
C88	C	1.884107	0.749895	0.857398
C89	C	1.226402	-0.000104	0.109013
C90	C	1.476402	0.249896	0.359013
C91	C	1.726402	0.499896	0.609013
C92	C	1.976402	0.749896	0.859013
C93	C	0.988212	-0.000111	-0.038497
C94	C	1.238212	0.249889	0.211503
C95	C	1.488212	0.499889	0.461503
C96	C	1.738212	0.749889	0.711503
C97	C	0.986597	-0.000113	-0.130792
C98	C	1.236597	0.249887	0.119208
C99	C	1.486597	0.499887	0.369208
C100	C	1.736597	0.749887	0.619208
N101	N	0.957617	0.456175	0.138043
N102	N	1.207617	0.706175	0.388043
N103	N	1.457617	0.956175	0.638043
N104	N	1.707617	1.206175	0.888043
C105	C	1.058604	-0.000094	-0.353064
C106	C	1.308604	0.249906	-0.103064
C107	C	1.558604	0.499906	0.146936
C108	C	1.808604	0.749906	0.396936
C109	C	1.057079	-0.000079	-0.439783
C110	C	1.307079	0.249921	-0.189783
C111	C	1.557079	0.499921	0.060217
C112	C	1.807079	0.749921	0.310217
C113	C	0.905590	-0.000068	-0.419908
C114	C	1.155590	0.249932	-0.169908
C115	C	1.405590	0.499932	0.080092
C116	C	1.655590	0.749932	0.330092
C117	C	0.907115	-0.000070	-0.333190
C118	C	1.157115	0.249930	-0.083190
C119	C	1.407115	0.499930	0.166810
C120	C	1.657115	0.749930	0.416810
C121	C	0.983625	-0.000092	-0.299771
C122	C	1.233625	0.249908	-0.049771
C123	C	1.483625	0.499908	0.200229
C124	C	1.733625	0.749908	0.450229
C125	C	0.980575	-0.000075	-0.473209
C126	C	1.230575	0.249925	-0.223209
C127	C	1.480575	0.499925	0.026791
C128	C	1.730575	0.749925	0.276791
C129	C	0.978921	-0.000060	-0.567234
C130	C	1.228921	0.249940	-0.317234
C131	C	1.478921	0.499940	-0.067234
C132	C	1.728921	0.749940	0.182766
C133	C	0.985279	-0.000105	-0.205739
C134	C	1.235279	0.249895	0.044261
C135	C	1.485279	0.499895	0.294261
C136	C	1.735279	0.749895	0.544261
C137	C	0.975988	-0.000068	0.265517
C138	C	1.225988	0.249932	0.515517
C139	C	1.475988	0.499932	0.765517
C140	C	1.725988	0.749932	1.015517
C141	C	0.977602	-0.000054	0.357813
C142	C	1.227602	0.249946	0.607813
C143	C	1.477602	0.499946	0.857813
C144	C	1.727602	0.749946	1.107813
H145	H	0.542733	-0.000067	0.252313
H146	H	0.792733	0.249933	0.502313
H147	H	1.042733	0.499933	0.752313
H148	H	1.292733	0.749933	1.002313
H149	H	1.118135	-0.000077	-0.483172
H150	H	1.368135	0.249923	-0.233172
H151	H	1.618135	0.499923	0.016828
H152	H	1.868135	0.749923	0.266828
H153	H	0.578794	-0.000111	-0.022536
H154	H	0.828794	0.249889	0.227464
H155	H	1.078794	0.499889	0.477464
H156	H	1.328794	0.749889	0.727464
H157	H	0.907624	-0.468615	0.188133
H158	H	1.157624	-0.218615	0.438133
H159	H	1.407624	0.031385	0.688133
H160	H	1.657624	0.281385	0.938133
H161	H	0.385417	-0.000083	0.249545
H162	H	0.635417	0.249917	0.499545
H163	H	0.885417	0.499917	0.749545
H164	H	1.135417	0.749917	0.999545
H165	H	1.056593	-0.531577	0.038883
H166	H	1.306593	-0.281577	0.288883
H167	H	1.556593	-0.031577	0.538883
H168	H	1.806593	0.218423	0.788883
H169	H	1.120903	-0.000108	-0.325857
H170	H	1.370903	0.249892	-0.075857
H171	H	1.620903	0.499892	0.174143
H172	H	1.870903	0.749892	0.424143
H173	H	0.846054	-0.000064	-0.289796
H174	H	1.096054	0.249936	-0.039796
H175	H	1.346054	0.499936	0.210204
H176	H	1.596054	0.749936	0.460204
H177	H	0.843298	-0.000054	-0.447130
H178	H	1.093298	0.249946	-0.197130
H179	H	1.343298	0.499946	0.052870
H180	H	1.593298	0.749946	0.302870
H181	H	0.421461	-0.000129	-0.025292
H182	H	0.671461	0.249871	0.224708
H183	H	0.921461	0.499871	0.474708
H184	H	1.171461	0.749871	0.724708
