data_functionalizedCrystal
_audit_creation_method	'MofGen! by Chris Wilmer'
_symmetry_space_group_name_H-M	'P1'
_symmetry_Int_Tables_number	1
_symmetry_cell_setting	triclinic
loop_
_symmetry_equiv_pos_as_xyz
  x,y,z
_cell_length_a	18.101395
_cell_length_b	19.805407
_cell_length_c	19.805407
_cell_angle_alpha	89.990779
_cell_angle_beta	90.010856
_cell_angle_gamma	89.968896
loop_
_atom_site_label
_atom_site_type_symbol
_atom_site_fract_x
_atom_site_fract_y
_atom_site_fract_z
Zn1	Zn	-0.294951	-1.034644	0.382731
Zn2	Zn	0.038382	-0.701311	0.716064
Zn3	Zn	0.371716	-0.367978	1.049398
Zn4	Zn	-0.418764	-1.034570	0.269548
Zn5	Zn	-0.085430	-0.701237	0.602881
Zn6	Zn	0.247903	-0.367904	0.936214
Zn7	Zn	-0.294941	-0.921480	0.269556
Zn8	Zn	0.038393	-0.588146	0.602889
Zn9	Zn	0.371726	-0.254813	0.936222
Zn10	Zn	-0.418755	-0.921413	0.382694
Zn11	Zn	-0.085422	-0.588080	0.716028
Zn12	Zn	0.247911	-0.254747	1.049361
O13	O	-0.356853	-0.978027	0.326132
O14	O	-0.023519	-0.644694	0.659466
O15	O	0.309814	-0.311360	0.992799
O16	O	-0.311383	-1.129351	0.367729
O17	O	0.021950	-0.796018	0.701062
O18	O	0.355284	-0.462684	1.034396
O19	O	-0.402338	-1.019565	0.174832
O20	O	-0.069004	-0.686232	0.508166
O21	O	0.264329	-0.352899	0.841499
O22	O	-0.191309	-0.936550	0.284587
O23	O	0.142024	-0.603216	0.617921
O24	O	0.475358	-0.269883	0.951254
O25	O	-0.402348	-1.129297	0.284574
O26	O	-0.069014	-0.795963	0.617907
O27	O	0.264319	-0.462630	0.951240
O28	O	-0.191317	-1.019691	0.367737
O29	O	0.142017	-0.686358	0.701070
O30	O	0.475350	-0.353025	1.034403
O31	O	-0.311365	-0.936478	0.174838
O32	O	0.021968	-0.603145	0.508171
O33	O	0.355301	-0.269811	0.841505
O34	O	-0.311357	-0.826754	0.284552
O35	O	0.021976	-0.493421	0.617885
O36	O	0.355310	-0.160087	0.951218
O37	O	-0.402333	-0.936437	0.477416
O38	O	-0.069000	-0.603104	0.810749
O39	O	0.264334	-0.269770	1.144082
O40	O	-0.402323	-0.826706	0.367674
O41	O	-0.068990	-0.493372	0.701008
O42	O	0.264344	-0.160039	1.034341
O43	O	-0.311375	-1.019627	0.477443
O44	O	0.021959	-0.686294	0.810776
O45	O	0.355292	-0.352961	1.144109
O46	O	-0.522396	-1.019501	0.284538
O47	O	-0.189062	-0.686168	0.617871
O48	O	0.144271	-0.352835	0.951205
O49	O	-0.522389	-0.936365	0.367667
O50	O	-0.189056	-0.603032	0.701000
O51	O	0.144277	-0.269698	1.034333
C52	C	-0.549263	-0.977936	0.326112
C53	C	-0.215930	-0.644603	0.659446
C54	C	0.117403	-0.311270	0.992779
C55	C	-0.631577	-0.977960	0.326126
C56	C	-0.298244	-0.644626	0.659460
C57	C	0.035089	-0.311293	0.992793
C58	C	-0.356839	-0.802171	0.326110
C59	C	-0.023505	-0.468838	0.659444
C60	C	0.309828	-0.135504	0.992777
C61	C	-0.356850	-0.726939	0.326117
C62	C	-0.023517	-0.393606	0.659450
C63	C	0.309816	-0.060272	0.992784
C64	C	-0.356854	-0.978033	0.502675
C65	C	-0.023521	-0.644700	0.836008
C66	C	0.309813	-0.311366	1.169342
C67	C	-0.356855	-0.978036	0.577907
C68	C	-0.023521	-0.644702	0.911240
C69	C	0.309812	-0.311369	1.244574
C70	C	-0.930668	-0.978108	0.326163
C71	C	-0.597335	-0.644775	0.659496
C72	C	-0.264002	-0.311441	0.992830
C73	C	-0.899370	-0.925922	0.378595
C74	C	-0.566037	-0.592589	0.711928
C75	C	-0.232703	-0.259256	1.045261
C76	C	-0.813752	-0.925674	0.378431
C77	C	-0.480419	-0.592341	0.711764
C78	C	-0.147085	-0.259008	1.045097
C79	C	-0.782286	-0.978034	0.326145
C80	C	-0.448952	-0.644701	0.659479
C81	C	-0.115619	-0.311368	0.992812
C82	C	-0.813415	-0.958736	0.254811
C83	C	-0.480081	-0.625403	0.588144
C84	C	-0.146748	-0.292070	0.921477
C85	C	-0.899060	-0.958400	0.255125
C86	C	-0.565727	-0.625067	0.588458
C87	C	-0.232393	-0.291733	0.921791
C88	C	-0.899018	-1.049706	0.344438
C89	C	-0.565684	-0.716373	0.677771
C90	C	-0.232351	-0.383039	1.011104
C91	C	-0.813367	-1.049285	0.346002
C92	C	-0.480034	-0.715951	0.679335
C93	C	-0.146700	-0.382618	1.012669
C94	C	-0.698426	-0.977994	0.326131
C95	C	-0.365093	-0.644661	0.659464
C96	C	-0.031760	-0.311327	0.992798
C97	C	-1.014528	-0.978147	0.326172
C98	C	-0.681194	-0.644814	0.659506
C99	C	-0.347861	-0.311480	0.992839
C100	C	-0.163691	-0.978136	0.326167
C101	C	0.169643	-0.644803	0.659500
C102	C	0.502976	-0.311470	0.992834
C103	C	-0.081377	-0.978183	0.326182
C104	C	0.251957	-0.644850	0.659515
C105	C	0.585290	-0.311516	0.992848
C106	C	-0.356867	-1.154570	0.326155
C107	C	-0.023534	-0.821236	0.659488
C108	C	0.309799	-0.487903	0.992821
C109	C	-0.356874	-1.229802	0.326164
C110	C	-0.023540	-0.896468	0.659497
C111	C	0.309793	-0.563135	0.992831
C112	C	-0.404288	-0.691587	0.369329
C113	C	-0.070954	-0.358254	0.702662
C114	C	0.262379	-0.024920	1.035995
C115	C	-0.404289	-0.620899	0.369338
C116	C	-0.070956	-0.287565	0.702672
C117	C	0.262378	0.045768	1.036005
C118	C	-0.356856	-0.585563	0.326132
C119	C	-0.023523	-0.252230	0.659465
C120	C	0.309811	0.081103	0.992799
C121	C	-0.309414	-0.620920	0.282918
C122	C	0.023920	-0.287587	0.616252
C123	C	0.357253	0.045747	0.949585
C124	C	-0.309409	-0.691607	0.282913
C125	C	0.023924	-0.358274	0.616246
C126	C	0.357258	-0.024941	0.949579
C127	C	-0.309430	-0.335847	0.282941
C128	C	0.023903	-0.002513	0.616274
C129	C	0.357237	0.330820	0.949607
C130	C	-0.309440	-0.265155	0.282948
C131	C	0.023894	0.068179	0.616282
C132	C	0.357227	0.401512	0.949615
C133	C	-0.404310	-0.265138	0.369366
C134	C	-0.070976	0.068195	0.702700
C135	C	0.262357	0.401528	1.036033
C136	C	-0.404305	-0.335825	0.369361
C137	C	-0.070972	-0.002492	0.702694
C138	C	0.262361	0.330841	1.036027
C139	C	-0.356860	-0.371176	0.326150
C140	C	-0.023527	-0.037843	0.659483
C141	C	0.309806	0.295491	0.992817
C142	C	-0.356858	-0.447824	0.326141
C143	C	-0.023525	-0.114491	0.659474
C144	C	0.309808	0.218842	0.992808
C145	C	-0.356861	-0.508916	0.326137
C146	C	-0.023528	-0.175583	0.659470
C147	C	0.309806	0.157750	0.992804
C148	C	-0.309500	-1.021347	0.613266
C149	C	0.023833	-0.688014	0.946599
C150	C	0.357167	-0.354681	1.279933
C151	C	-0.309498	-1.021342	0.683955
C152	C	0.023836	-0.688008	1.017288
C153	C	0.357169	-0.354675	1.350621
C154	C	-0.356855	-0.978027	0.719282
C155	C	-0.023521	-0.644693	1.052616
C156	C	0.309812	-0.311360	1.385949
C157	C	-0.404211	-0.934710	0.683918
C158	C	-0.070878	-0.601377	1.017252
C159	C	0.262455	-0.268044	1.350585
C160	C	-0.404209	-0.934713	0.613231
C161	C	-0.070876	-0.601380	0.946564
C162	C	0.262457	-0.268046	1.279898
C163	C	-0.404220	-0.934697	0.968992
C164	C	-0.070887	-0.601364	1.302325
C165	C	0.262447	-0.268030	1.635658
C166	C	-0.404220	-0.934699	1.039684
C167	C	-0.070887	-0.601365	1.373017
C168	C	0.262447	-0.268032	1.706350
C169	C	-0.309508	-1.021325	1.039715
C170	C	0.023825	-0.687992	1.373048
C171	C	0.357158	-0.354659	1.706382
C172	C	-0.309506	-1.021328	0.969028
C173	C	0.023827	-0.687995	1.302361
C174	C	0.357160	-0.354662	1.635695
C175	C	-0.356860	-0.978009	0.933670
C176	C	-0.023527	-0.644676	1.267003
C177	C	0.309807	-0.311343	1.600336
C178	C	-0.356861	-0.978015	0.857021
C179	C	-0.023528	-0.644682	1.190355
C180	C	0.309806	-0.311349	1.523688
C181	C	-0.356858	-0.978024	0.795930
C182	C	-0.023525	-0.644690	1.129263
C183	C	0.309809	-0.311357	1.462596
C184	C	-0.356866	-0.978014	1.150276
C185	C	-0.023533	-0.644681	1.483609
C186	C	0.309800	-0.311348	1.816943
C187	C	-0.356861	-0.978008	1.075044
C188	C	-0.023528	-0.644674	1.408378
C189	C	0.309806	-0.311341	1.741711
H190	H	-0.792705	-0.937747	0.431325
H191	H	-0.459371	-0.604413	0.764658
H192	H	-0.126038	-0.271080	1.097991
H193	H	-0.270946	-1.056602	0.940267
H194	H	0.062387	-0.723268	1.273601
H195	H	0.395721	-0.389935	1.606934
H196	H	-0.270939	-1.056621	0.584507
H197	H	0.062395	-0.723288	0.917841
H198	H	0.395728	-0.389955	1.251174
Br199	Br	-0.932463	-0.871169	0.229322
Br200	Br	-0.599129	-0.537835	0.562655
Br201	Br	-0.265796	-0.204502	0.895989
H202	H	-0.791944	-1.090221	0.310597
H203	H	-0.458610	-0.756888	0.643930
H204	H	-0.125277	-0.423555	0.977264
Br205	Br	-0.933646	-0.945838	0.467044
Br206	Br	-0.600313	-0.612505	0.800378
Br207	Br	-0.266979	-0.279172	1.133711
H208	H	-0.920582	-1.067303	0.395568
H209	H	-0.587248	-0.733969	0.728902
H210	H	-0.253915	-0.400636	1.062235
Br211	Br	-0.245262	-1.080156	0.731940
Br212	Br	0.088071	-0.746823	1.065273
Br213	Br	0.421404	-0.413489	1.398606
H214	H	-0.919765	-0.994762	0.214726
H215	H	-0.586431	-0.661428	0.548060
H216	H	-0.253098	-0.328095	0.881393
H217	H	-0.442939	-0.236347	0.404553
H218	H	-0.109606	0.096986	0.737887
H219	H	0.223728	0.430319	1.071220
H220	H	-0.442763	-0.899437	0.584442
H221	H	-0.109430	-0.566104	0.917776
H222	H	0.223904	-0.232771	1.251109
H223	H	-0.442785	-0.899424	1.068446
H224	H	-0.109452	-0.566090	1.401779
H225	H	0.223881	-0.232757	1.735112
H226	H	-0.442915	-0.720352	0.404510
H227	H	-0.109582	-0.387019	0.737844
H228	H	0.223751	-0.053685	1.071177
H229	H	-0.920953	-0.873175	0.366642
H230	H	-0.587619	-0.539841	0.699975
H231	H	-0.254286	-0.206508	1.033309
H232	H	-0.270948	-1.056595	1.068512
H233	H	0.062385	-0.723262	1.401845
H234	H	0.395719	-0.389929	1.735179
Br235	Br	-0.779699	-0.837219	0.358260
Br236	Br	-0.446365	-0.503885	0.691593
Br237	Br	-0.113032	-0.170552	1.024927
H238	H	-0.442768	-0.899440	0.712688
H239	H	-0.109434	-0.566107	1.046021
H240	H	0.223899	-0.232773	1.379355
Br241	Br	-0.779447	-1.020095	0.187919
Br242	Br	-0.446114	-0.686762	0.521252
Br243	Br	-0.112780	-0.353428	0.854586
Br244	Br	-0.777769	-0.872427	0.228544
Br245	Br	-0.444436	-0.539093	0.561877
Br246	Br	-0.111103	-0.205760	0.895211
H247	H	-0.793021	-1.063838	0.398500
H248	H	-0.459687	-0.730504	0.731834
H249	H	-0.126354	-0.397171	1.065167
Br250	Br	-0.468485	-0.875906	0.921014
Br251	Br	-0.135151	-0.542572	1.254348
Br252	Br	0.198182	-0.209239	1.587681
H253	H	-0.919256	-1.088586	0.306249
H254	H	-0.585922	-0.755253	0.639583
H255	H	-0.252589	-0.421919	0.972916
H256	H	-0.270803	-0.364621	0.247751
H257	H	0.062530	-0.031287	0.581084
H258	H	0.395864	0.302046	0.914417
Br259	Br	-0.468685	-0.383777	0.427996
Br260	Br	-0.135352	-0.050444	0.761329
Br261	Br	0.197982	0.282889	1.094662
Br262	Br	-0.468669	-0.572924	0.427987
Br263	Br	-0.135336	-0.239590	0.761321
Br264	Br	0.197998	0.093743	1.094654
H265	H	-0.270810	-0.236387	0.247765
H266	H	0.062524	0.096947	0.581098
H267	H	0.395857	0.430280	0.914431
H268	H	-0.270790	-0.592144	0.247742
H269	H	0.062544	-0.258811	0.581075
H270	H	0.395877	0.074522	0.914409
Br271	Br	-0.245023	-0.739586	0.224270
Br272	Br	0.088310	-0.406252	0.557603
Br273	Br	0.421643	-0.072919	0.890936
