data_functionalizedCrystal
_audit_creation_method	'MofGen! by Chris Wilmer'
_symmetry_space_group_name_H-M	'P1'
_symmetry_Int_Tables_number	1
_symmetry_cell_setting	triclinic
loop_
_symmetry_equiv_pos_as_xyz
  x,y,z
_cell_length_a	19.375551
_cell_length_b	18.878441
_cell_length_c	18.878441
_cell_angle_alpha	90.000248
_cell_angle_beta	68.962965
_cell_angle_gamma	68.982766
loop_
_atom_site_label
_atom_site_type_symbol
_atom_site_fract_x
_atom_site_fract_y
_atom_site_fract_z
Zr1	Zr	0.619954	0.841858	0.066307
O2	O	0.738110	0.759145	-0.016438
O3	O	0.501797	0.846136	0.070621
O4	O	0.619958	0.876527	-0.046800
O5	O	0.619946	0.728758	0.217554
O6	O	0.619961	0.993095	-0.046803
O7	O	0.619949	0.728755	0.100983
O8	O	0.408594	0.938732	0.163241
O9	O	0.831313	0.783122	0.007510
O10	O	0.550399	0.960420	0.097893
O11	O	0.550394	0.873428	0.184891
O12	O	0.689513	0.909210	0.046643
O13	O	0.689508	0.822218	0.133641
Zr14	Zr	0.619954	1.027777	0.252220
Zr15	Zr	0.619959	1.027771	0.066302
Zr16	Zr	0.619948	0.841863	0.252225
Zr17	Zr	0.768602	0.880097	0.104501
Zr18	Zr	0.471305	0.989537	0.214026
O19	O	0.738110	1.023499	0.247906
O20	O	0.738117	1.023491	-0.016445
O21	O	0.738102	0.759154	0.247913
O22	O	0.501797	1.110489	0.334964
O23	O	0.501805	1.110481	0.070614
O24	O	0.501790	0.846144	0.334971
O25	O	0.619961	1.140876	0.100972
O26	O	0.619949	0.993108	0.365327
O27	O	0.619946	0.876539	0.365330
O28	O	0.619958	1.140880	0.217543
O29	O	0.831317	0.930898	0.007506
O30	O	0.408590	0.938736	0.311021
O31	O	0.408594	1.086513	0.311017
O32	O	0.408598	1.086508	0.163237
O33	O	0.831309	0.783126	0.155290
O34	O	0.831313	0.930903	0.155286
O35	O	0.550394	0.960425	0.271884
O36	O	0.550399	1.047416	0.184886
O37	O	0.689513	0.996206	0.133636
O38	O	0.689508	0.909215	0.220634
C39	C	0.434016	0.886985	0.111489
C40	C	0.370911	0.870752	0.095275
C41	C	0.619947	0.702268	0.159270
C42	C	0.619945	0.623342	0.159272
C43	C	-0.093334	1.072689	0.297136
C44	C	-0.152654	1.057490	0.281892
C45	C	-0.050019	0.955454	0.179830
C46	C	0.009311	0.970648	0.195063
C47	C	-0.012353	1.029266	0.253718
C48	C	0.090292	0.927224	0.151644
C49	C	0.149617	0.942414	0.166879
C50	C	0.127961	1.001027	0.225532
C51	C	0.046972	1.044455	0.268953
C52	C	0.111954	0.868603	0.092993
C53	C	0.192935	0.825179	0.049574
C54	C	0.252262	0.840372	0.064805
C55	C	0.230606	0.898986	0.123459
C56	C	0.333250	0.796944	0.021385
C57	C	0.392575	0.812134	0.036620
C58	C	0.289930	0.914175	0.138694
C59	C	0.547330	0.612993	0.186021
C60	C	0.547332	0.538832	0.186022
C61	C	0.619951	0.475023	0.159269
C62	C	0.692571	0.485376	0.132520
C63	C	0.692568	0.559535	0.132524
C64	C	0.692574	0.330806	0.132512
C65	C	0.692577	0.256642	0.132506
C66	C	0.547338	0.310103	0.186009
C67	C	0.547334	0.384263	0.186014
C68	C	0.619955	0.394611	0.159263
C69	C	0.805891	0.982649	0.207038
C70	C	0.868996	0.998883	0.223252
C71	C	0.619960	0.934810	-0.073291
C72	C	0.619962	0.934808	-0.152218
C73	C	0.619960	1.167367	0.159257
C74	C	0.619962	1.246292	0.159255
C75	C	0.692577	0.908076	-0.216050
C76	C	0.692575	0.908084	-0.290209
C77	C	0.619956	0.934818	-0.300533
C78	C	0.547336	0.961554	-0.236693
C79	C	0.547339	0.961551	-0.162537
C80	C	0.547333	0.961556	-0.391261
C81	C	0.547330	0.961558	-0.465423
C82	C	0.692569	0.908090	-0.518933
C83	C	0.692573	0.908087	-0.444777
C84	C	0.619952	0.934821	-0.380942
C85	C	0.619947	0.934824	0.391818
C86	C	0.619945	0.934827	0.470745
C87	C	0.434023	1.119535	0.111483
C88	C	0.370920	1.182226	0.095267
C89	C	0.434010	0.886993	0.344043
C90	C	0.370902	0.870761	0.406756
C91	C	0.434016	1.119542	0.344037
C92	C	0.370911	1.182236	0.406748
C93	C	0.805891	0.750092	-0.025511
C94	C	0.868996	0.687398	-0.088221
C95	C	0.805884	0.750099	0.207044
C96	C	0.868987	0.687408	0.223260
C97	C	0.805897	0.982642	-0.025517
C98	C	0.869005	0.998873	-0.088229
C99	C	0.341286	1.166256	0.042234
C100	C	0.282002	1.225156	0.026982
C101	C	0.252349	1.300025	0.064767
C102	C	0.281989	1.315996	0.117803
C103	C	0.341276	1.257097	0.133050
C104	C	0.341266	0.908550	0.481624
C105	C	0.281978	0.893298	0.540559
C106	C	0.252323	0.840261	0.524622
C107	C	0.281965	0.802468	0.449747
C108	C	0.341256	0.817716	0.390815
C109	C	0.341279	1.257094	0.390785
C110	C	0.281993	1.316011	0.449704
C111	C	0.252336	1.300067	0.524583
C112	C	0.281974	1.225202	0.540545
C113	C	0.341263	1.166288	0.481628
C114	C	0.898636	0.612542	-0.072257
C115	C	0.957940	0.553630	-0.131170
C116	C	0.987600	0.569575	-0.206049
C117	C	0.957958	0.644439	-0.222012
C118	C	0.898658	0.703351	-0.163098
C119	C	0.898627	0.703380	0.276287
C120	C	0.957927	0.644484	0.291523
C121	C	0.987582	0.569615	0.253735
C122	C	0.957940	0.553644	0.200702
C123	C	0.898645	0.612541	0.185463
C124	C	0.898641	1.051914	-0.072270
C125	C	0.957929	1.067180	-0.131190
C126	C	0.987585	1.029400	-0.206068
C127	C	0.957943	0.976356	-0.222027
C128	C	0.898651	0.961095	-0.163109
H129	H	0.272288	0.961911	0.186453
O130	O	0.989952	0.661630	-0.302776
H131	H	0.940184	0.684830	-0.323115
H132	H	0.874526	0.764300	-0.176107
O133	O	0.866660	0.595328	0.008500
H134	H	0.801255	0.610100	0.027651
O135	O	-0.116686	1.135925	0.360387
H136	H	-0.092132	1.111335	0.403717
H137	H	0.458515	0.776762	0.001276
O138	O	0.469010	0.453086	0.214860
H139	H	0.465535	0.488156	0.264157
H140	H	0.488195	0.664944	0.207810
O141	O	0.989933	0.472889	0.159950
H142	H	0.940164	0.452535	0.173403
H143	H	0.204059	1.348046	0.572549
O144	O	0.249999	1.396752	0.158552
H145	H	0.280566	1.397973	0.197990
O146	O	0.989897	1.124390	-0.113970
H147	H	0.959321	1.148083	-0.052001
O148	O	0.989939	0.935601	-0.302787
H149	H	1.036154	0.955122	-0.341066
O150	O	0.469011	0.990400	-0.247830
H151	H	0.418518	1.008998	-0.190982
O152	O	0.989896	0.472889	-0.113939
H153	H	1.036121	0.434598	-0.167478
O154	O	1.051545	1.045853	-0.269612
H155	H	1.067174	1.089077	-0.245925
H156	H	0.751699	0.567958	0.110753
H157	H	0.751705	0.886313	-0.436375
H158	H	0.257819	1.212231	0.601519
O159	O	0.373141	0.776956	0.310076
H160	H	0.438547	0.743547	0.290856
H161	H	0.063645	0.856235	0.080593
O162	O	0.373258	1.274308	0.310029
H163	H	0.419462	1.220770	0.271731
O164	O	0.866678	0.595301	0.128270
H165	H	0.820467	0.648829	0.124011
H166	H	0.488198	0.983327	-0.339287
H167	H	1.035884	0.521598	-0.254013
H168	H	0.488207	0.301676	0.207784
H169	H	0.874487	0.764337	0.307066
O170	O	0.249955	0.745286	0.432557
H171	H	0.203735	0.741052	0.486115
H172	H	0.257867	1.376965	0.436693
O173	O	0.866655	1.092680	0.008484
H174	H	0.916425	1.079258	0.028818
O175	O	-0.240001	1.104334	0.328727
H176	H	-0.277617	1.083922	0.308285
O177	O	0.770898	0.341973	0.103655
H178	H	0.821396	0.285144	0.085041
O179	O	0.770899	0.187815	0.103664
H180	H	0.821396	0.207468	0.085076
H181	H	0.488208	0.983318	-0.110563
O182	O	0.250011	0.934078	0.621307
H183	H	0.261399	0.891175	0.660201
O184	O	0.770895	0.879253	-0.359058
H185	H	0.805710	0.818412	-0.357660
H186	H	0.751699	0.433416	0.110742
O187	O	0.989883	0.661715	0.348732
H188	H	0.959284	0.723668	0.372457
O189	O	0.373206	1.085542	0.498845
H190	H	0.342609	1.084359	0.560809
O191	O	1.051514	0.506087	0.270197
H192	H	1.067125	0.529776	0.313432
O193	O	0.866698	0.903874	-0.180323
H194	H	0.897292	0.880165	-0.242287
H195	H	0.751700	0.886318	-0.570912
O196	O	0.191947	1.017419	0.241958
H197	H	0.229728	0.965441	0.257887
O198	O	0.770902	0.879241	-0.204915
H199	H	0.821395	0.860661	-0.261764
O200	O	0.373219	1.274329	0.190266
H201	H	0.438627	1.259553	0.161245
H202	H	-0.032391	0.907726	0.132075
O203	O	0.023616	1.107680	0.332215
H204	H	-0.042663	1.135325	0.359852
O205	O	0.469008	0.990394	-0.476565
H206	H	0.418511	1.008993	-0.419719
O207	O	0.216300	0.761966	-0.013697
H208	H	0.161443	0.758703	-0.017003
O209	O	0.188405	1.363546	0.048313
H210	H	0.172763	1.418295	0.083490
H211	H	0.350878	0.749213	-0.026366
H212	H	0.488202	0.530411	0.207805
H213	H	0.365429	1.105299	0.011453
O214	O	0.250037	1.207923	-0.030218
H215	H	0.223013	1.164975	-0.010901
O216	O	0.373249	0.965753	0.498822
H217	H	0.342679	0.989455	0.560789
H218	H	0.204045	0.827852	0.572616
