data_functionalizedCrystal
_audit_creation_method	'MofGen! by Chris Wilmer'
_symmetry_space_group_name_H-M	'P1'
_symmetry_Int_Tables_number	1
_symmetry_cell_setting	triclinic
loop_
_symmetry_equiv_pos_as_xyz
  x,y,z
_cell_length_a	12.759395
_cell_length_b	16.120484
_cell_length_c	16.120256
_cell_angle_alpha	84.383827
_cell_angle_beta	87.119399
_cell_angle_gamma	92.926975
loop_
_atom_site_label
_atom_site_type_symbol
_atom_site_fract_x
_atom_site_fract_y
_atom_site_fract_z
Zn1	Zn	1.552087	-0.356727	0.489405
Zn2	Zn	2.052087	0.143273	0.989405
Zn3	Zn	1.551955	-0.489413	0.356715
Zn4	Zn	2.051955	0.010587	0.856715
Zn5	Zn	1.385777	-0.349663	0.349656
Zn6	Zn	1.885777	0.150337	0.849656
Zn7	Zn	1.366966	-0.496463	0.496445
Zn8	Zn	1.866966	0.003537	0.996445
O9	O	1.464196	-0.423067	0.423055
O10	O	1.964196	0.076933	0.923055
O11	O	1.699090	-0.374335	0.471812
O12	O	2.199090	0.125665	0.971812
O13	O	1.537729	-0.464968	0.238816
O14	O	2.037729	0.035032	0.738816
O15	O	1.415766	-0.233634	0.362294
O16	O	1.915766	0.266366	0.862294
O17	O	1.698993	-0.471818	0.374325
O18	O	2.198993	0.028182	0.874325
O19	O	1.537954	-0.238825	0.464967
O20	O	2.037954	0.261175	0.964967
O21	O	1.415638	-0.362294	0.233630
O22	O	1.915638	0.137706	0.733630
O23	O	1.236262	-0.369130	0.369120
O24	O	1.736262	0.130870	0.869120
O25	O	1.383705	-0.483833	0.612474
O26	O	1.883705	0.016167	1.112474
O27	O	1.222441	-0.476983	0.476964
O28	O	1.722441	0.023017	0.976964
O29	O	1.519713	-0.381170	0.607302
O30	O	2.019713	0.118830	1.107302
O31	O	1.519488	-0.607314	0.381151
O32	O	2.019488	-0.107314	0.881151
O33	O	1.383577	-0.612493	0.483809
O34	O	1.883577	-0.112493	0.983809
C35	C	1.191230	-0.423056	0.423040
C36	C	1.691230	0.076944	0.923040
C37	C	1.074452	-0.423072	0.423055
C38	C	1.574452	0.076928	0.923055
C39	C	1.060099	-0.535544	0.535189
C40	C	1.560099	-0.035544	1.035189
C41	C	0.998061	-0.591786	0.591259
C42	C	1.498061	-0.091786	1.091259
C43	C	0.888338	-0.591797	0.591270
C44	C	1.388338	-0.091797	1.091270
C45	C	0.840651	-0.535557	0.535207
C46	C	1.340651	-0.035557	1.035207
C47	C	0.902689	-0.479315	0.479137
C48	C	1.402689	0.020685	0.979137
C49	C	1.012414	-0.479312	0.479130
C50	C	1.512414	0.020688	0.979130
C51	C	0.917042	-0.366841	0.367007
C52	C	1.417042	0.133159	0.867007
C53	C	1.026765	-0.366833	0.366991
C54	C	1.526765	0.133167	0.866991
C55	C	0.869355	-0.310601	0.310944
C56	C	1.369355	0.189399	0.810944
C57	C	0.931393	-0.254361	0.254868
C58	C	1.431393	0.245639	0.754868
C59	C	1.041122	-0.254354	0.254859
C60	C	1.541122	0.245646	0.754859
C61	C	1.088803	-0.310590	0.310921
C62	C	1.588803	0.189410	0.810921
C63	C	1.449504	-0.640232	0.434028
C64	C	1.949504	-0.140232	0.934028
C65	C	1.443313	-0.733138	0.438750
C66	C	1.943313	-0.233138	0.938750
C67	C	1.432015	-0.903239	0.447389
C68	C	1.932015	-0.403239	0.947389
C69	C	1.496565	-0.942055	0.398736
C70	C	1.996565	-0.442055	0.898736
C71	C	1.490279	-1.036704	0.403542
C72	C	1.990279	-0.536704	0.903542
C73	C	1.438300	-0.808580	0.442583
C74	C	1.938300	-0.308580	0.942583
C75	C	1.738228	-0.423078	0.423071
C76	C	2.238228	0.076922	0.923071
C77	C	1.855004	-0.423083	0.423077
C78	C	2.355004	0.076917	0.923077
C79	C	1.449625	-0.434076	0.641063
C80	C	1.949625	0.065924	1.141063
C81	C	1.443416	-0.438768	0.733965
C82	C	1.943416	0.061232	1.233965
C83	C	1.478973	-0.205054	0.412058
C84	C	1.978973	0.294946	0.912058
C85	C	1.485270	-0.112150	0.407372
C86	C	1.985270	0.387850	0.907372
C87	C	1.478775	-0.412039	0.205893
C88	C	1.978775	0.087961	0.705893
C89	C	1.485203	-0.407112	0.112980
C90	C	1.985203	0.092888	0.612980
C91	C	1.496576	-0.398578	0.942889
C92	C	1.996576	0.101422	1.442889
C93	C	1.432047	-0.447299	0.904050
C94	C	1.932047	0.052701	1.404050
C95	C	1.438375	-0.442551	0.809406
C96	C	1.938375	0.057449	1.309406
C97	C	1.490250	-0.403326	1.037542
C98	C	1.990250	0.096674	1.537542
H99	H	1.149440	-0.535546	0.535181
H100	H	1.649440	-0.035546	1.035181
H101	H	1.556569	-0.353305	0.905062
H102	H	2.056569	0.146695	1.405062
H103	H	1.036900	-0.637574	0.636907
H104	H	1.536900	-0.137574	1.136907
O105	O	0.828225	-0.646504	0.645771
O106	O	1.328225	-0.146504	1.145771
C107	C	0.893835	-0.696122	0.695271
C108	C	1.393835	-0.196122	1.195271
H109	H	0.974140	-0.697235	0.661171
H110	H	1.474140	-0.197235	1.161171
H111	H	0.857084	-0.762436	0.707411
H112	H	1.357084	-0.262436	1.207411
H113	H	0.903336	-0.668818	0.757257
H114	H	1.403336	-0.168818	1.257257
O115	O	1.360559	-0.948358	0.501498
O116	O	1.860559	-0.448358	1.001498
C117	C	1.379223	-0.931246	0.583760
C118	C	1.879223	-0.431246	1.083760
H119	H	1.464433	-0.907330	0.586847
H120	H	1.964433	-0.407330	1.086847
H121	H	1.363631	-0.990782	0.627900
H122	H	1.863631	-0.490782	1.127900
H123	H	1.324700	-0.881791	0.603051
H124	H	1.824700	-0.381791	1.103051
H125	H	0.751308	-0.535564	0.535227
H126	H	1.251308	-0.035564	1.035227
H127	H	0.780012	-0.310610	0.310960
H128	H	1.280012	0.189390	0.810960
H129	H	0.892557	-0.208572	0.209230
H130	H	1.392557	0.291428	0.709230
H131	H	1.091628	-0.208548	0.209206
H132	H	1.591628	0.291452	0.709206
H133	H	1.556548	-0.904201	0.353472
H134	H	2.056548	-0.404201	0.853472
O135	O	1.195377	-0.310737	0.310914
O136	O	1.695377	0.189263	0.810914
C137	C	1.228059	-0.389709	0.293329
C138	C	1.728059	0.110291	0.793329
H139	H	1.160624	-0.438598	0.309963
H140	H	1.660624	0.061402	0.809963
H141	H	1.297946	-0.406528	0.331750
H142	H	1.797946	0.093472	0.831750
H143	H	1.252036	-0.387860	0.224056
H144	H	1.752036	0.112140	0.724056
H145	H	1.372044	-0.492572	0.941879
H146	H	1.872044	0.007428	1.441879
