data_functionalizedCrystal
_audit_creation_method	'MofGen! by Chris Wilmer'
_symmetry_space_group_name_H-M	'P1'
_symmetry_Int_Tables_number	1
_symmetry_cell_setting	triclinic
loop_
_symmetry_equiv_pos_as_xyz
  x,y,z
_cell_length_a	10.654545
_cell_length_b	16.109301
_cell_length_c	9.130313
_cell_angle_alpha	89.994060
_cell_angle_beta	89.996934
_cell_angle_gamma	83.972280
loop_
_atom_site_label
_atom_site_type_symbol
_atom_site_fract_x
_atom_site_fract_y
_atom_site_fract_z
O1	O	1.666259	0.116756	-0.121790
O2	O	1.300629	0.127885	-0.121797
O3	O	1.493488	0.001349	-0.121778
O4	O	1.473400	0.243292	-0.121808
O5	O	1.493475	0.001346	0.121821
O6	O	1.300615	0.127882	0.121802
O7	O	1.666246	0.116752	0.121809
Cu8	Cu	1.483429	0.122317	0.144048
Cu9	Cu	1.483445	0.122321	-0.144036
O10	O	1.473386	0.243288	0.121790
C11	C	1.253835	0.127067	0.000002
C12	C	1.114425	0.124625	0.000000
C13	C	1.048929	0.123473	0.132787
C14	C	0.917940	0.121164	0.132787
C15	C	0.917955	0.121163	-0.132798
C16	C	1.048942	0.123465	-0.132796
C17	C	1.492668	-0.029632	0.000022
C18	C	1.490228	-0.121942	0.000024
C19	C	1.598994	-0.343569	0.000003
C20	C	1.596692	-0.430303	-0.000009
C21	C	1.367871	-0.411787	-0.000008
C22	C	1.370175	-0.325054	-0.000006
C23	C	1.485740	-0.290948	0.000007
C24	C	1.481134	-0.464414	-0.000007
C25	C	1.478638	-0.558455	-0.000020
C26	C	1.488237	-0.196901	0.000017
C27	C	1.713039	0.117571	0.000007
C28	C	1.852450	0.120013	-0.000001
C29	C	1.474207	0.274270	-0.000013
C30	C	1.476646	0.366580	-0.000025
N31	N	1.483428	0.122313	0.346671
N32	N	1.483457	0.122318	-0.346658
C33	C	1.568854	0.066307	0.423331
C34	C	1.568866	0.066307	0.576668
C35	C	1.398021	0.178327	0.576671
C36	C	1.398004	0.178322	0.423337
H37	H	0.864623	0.120219	-0.240916
O38	O	1.255696	-0.445019	-0.000202
C39	C	1.247506	-0.494612	-0.126380
H40	H	1.346495	-0.515640	-0.168445
H41	H	1.191933	-0.456614	-0.214722
C42	C	1.058331	-0.545882	-0.036384
C43	C	1.179911	-0.571715	-0.088042
H44	H	1.016630	-0.593441	-0.012740
H45	H	1.063845	-0.512468	0.048622
H46	H	1.012036	-0.514216	-0.110011
H47	H	1.226208	-0.603371	-0.014409
H48	H	1.174403	-0.605136	-0.173036
H49	H	1.102240	0.124417	0.240918
H50	H	1.693095	-0.315803	0.000010
O51	O	1.651974	0.011873	0.650907
C52	C	1.727338	-0.037574	0.550353
H53	H	1.728726	-0.003478	0.441044
H54	H	1.686598	-0.099590	0.534067
C55	C	1.861116	-0.095751	0.744428
C56	C	1.862829	-0.053870	0.610176
H57	H	1.944693	-0.105807	0.781331
H58	H	1.810340	-0.062440	0.812175
H59	H	1.827161	-0.147426	0.730838
H60	H	1.896770	-0.002192	0.623771
H61	H	1.913615	-0.087173	0.542432
H62	H	0.864619	0.120226	0.240915
H63	H	1.102271	0.124401	-0.240934
O64	O	1.314877	0.232650	0.651086
C65	C	1.190572	0.218379	0.613625
H66	H	1.189991	0.151808	0.571491
H67	H	1.153650	0.264233	0.524618
C68	C	1.106163	0.312537	0.801604
C69	C	1.105448	0.230771	0.749866
H70	H	1.053651	0.320185	0.885641
H71	H	1.189909	0.322155	0.826839
H72	H	1.075397	0.350740	0.727419
H73	H	1.136228	0.192571	0.824043
H74	H	1.021704	0.221147	0.724646
H75	H	1.638410	0.020699	0.360913
H76	H	1.328433	0.223930	0.360916
O77	O	1.260036	-0.274051	0.000064
C78	C	1.157541	-0.322751	0.000028
H79	H	1.189431	-0.387294	0.046148
H80	H	1.122123	-0.329121	-0.116839
C81	C	1.011180	-0.200881	0.038910
C82	C	1.050346	-0.280152	0.095568
H83	H	0.945054	-0.174604	0.097837
H84	H	1.080232	-0.168071	0.038929
H85	H	0.981673	-0.206201	-0.058478
H86	H	1.079866	-0.274831	0.192946
H87	H	0.981296	-0.312961	0.095567
O88	O	1.706592	-0.481538	-0.000076
C89	C	1.679786	-0.565405	-0.000051
H90	H	1.581148	-0.569292	-0.046170
H91	H	1.684553	-0.590468	0.116812
C92	C	1.898455	-0.613136	-0.038945
C93	C	1.777311	-0.617911	-0.095601
H94	H	1.958616	-0.645526	-0.097879
H95	H	1.916517	-0.556634	-0.038957
H96	H	1.902410	-0.634021	0.058440
H97	H	1.773354	-0.597017	-0.192976
H98	H	1.759251	-0.674411	-0.095608
