data_functionalizedCrystal
_audit_creation_method	'MofGen! by Chris Wilmer'
_symmetry_space_group_name_H-M	'P1'
_symmetry_Int_Tables_number	1
_symmetry_cell_setting	triclinic
loop_
_symmetry_equiv_pos_as_xyz
  x,y,z
_cell_length_a	19.077105
_cell_length_b	14.908178
_cell_length_c	19.076919
_cell_angle_alpha	91.159747
_cell_angle_beta	89.923776
_cell_angle_gamma	90.879305
loop_
_atom_site_label
_atom_site_type_symbol
_atom_site_fract_x
_atom_site_fract_y
_atom_site_fract_z
Zn1	Zn	1.039568	-0.434467	0.420095
Zn2	Zn	1.037992	-0.578863	0.295834
Zn3	Zn	0.927303	-0.422436	0.298451
Zn4	Zn	0.915837	-0.578321	0.408612
O5	O	0.980175	-0.503522	0.355748
O6	O	1.137464	-0.458883	0.407322
O7	O	1.027448	-0.553304	0.198075
O8	O	0.947654	-0.298363	0.320489
O9	O	1.136306	-0.564970	0.316028
O10	O	1.030134	-0.307202	0.409860
O11	O	0.946126	-0.438378	0.199998
O12	O	0.827677	-0.437853	0.309354
O13	O	0.928111	-0.564047	0.508242
O14	O	0.819253	-0.552381	0.390288
O15	O	1.019015	-0.458358	0.516678
O16	O	1.016329	-0.704460	0.304893
O17	O	0.926582	-0.704062	0.387751
C18	C	0.798027	-0.493754	0.348859
C19	C	0.720102	-0.489597	0.345928
C20	C	0.679124	-0.547357	0.386615
C21	C	0.605905	-0.543439	0.383864
C22	C	0.573666	-0.481767	0.340423
C23	C	0.614649	-0.424002	0.299735
C24	C	0.687867	-0.427915	0.302490
C25	C	0.355158	-0.463656	0.327678
C26	C	0.281935	-0.459749	0.324924
C27	C	0.273196	-0.579186	0.409055
C28	C	0.346416	-0.583097	0.411803
C29	C	0.387393	-0.525329	0.371117
N30	N	0.498825	-0.477764	0.337609
N31	N	0.462232	-0.529329	0.373936
C32	C	0.970059	-0.736847	0.344808
C33	C	0.965794	-0.836670	0.340153
C34	C	1.043595	-1.033301	0.424563
C35	C	1.039591	-1.127093	0.420192
C36	C	0.953778	-1.118048	0.327045
C37	C	0.957782	-1.024256	0.331416
C38	C	1.002693	-0.981886	0.380176
C39	C	1.006701	-0.888092	0.384543
C40	C	0.920885	-0.879048	0.291399
C41	C	0.916880	-0.972840	0.287028
C42	C	1.163034	-0.513329	0.362664
C43	C	1.240957	-0.517508	0.365611
C44	C	0.972460	-0.512484	0.538609
C45	C	0.969172	-0.516303	0.616533
C46	C	0.990349	-0.269287	0.366747
C47	C	0.994684	-0.169470	0.371434
C48	C	0.987903	-0.494532	0.173603
C49	C	0.991338	-0.490467	0.095696
C50	C	1.014954	-0.463073	0.657536
C51	C	1.011856	-0.466657	0.730754
C52	C	0.962980	-0.523477	0.762968
C53	C	0.917193	-0.576709	0.721960
C54	C	0.920287	-0.573120	0.648744
C55	C	0.948646	-0.540110	0.981471
C56	C	0.945556	-0.543697	1.054693
C57	C	1.040219	-0.433644	1.063482
C58	C	1.043312	-0.430063	0.990264
C59	C	0.997523	-0.483291	0.949262
N60	N	0.959814	-0.527145	0.837809
N61	N	1.000686	-0.479619	0.874423
H62	H	0.388513	-0.416623	0.294543
H63	H	1.080169	-0.998803	0.464261
H64	H	0.588394	-0.373783	0.264367
C65	C	1.040765	-1.237644	0.509957
C66	C	1.084551	-1.183612	0.468984
H67	H	1.068523	-1.272532	0.540083
H68	H	1.013455	-1.276298	0.480292
H69	H	1.010631	-1.200741	0.537293
H70	H	1.114683	-1.220515	0.441644
H71	H	1.111874	-1.144953	0.498652
H72	H	1.083115	-0.383796	0.964040
H73	H	0.705367	-0.597580	0.421987
C74	C	1.105095	-0.788039	0.402861
C75	C	1.056065	-0.841519	0.438140
H76	H	1.135572	-0.759295	0.435953
H77	H	1.081311	-0.743994	0.377058
H78	H	1.131663	-0.824565	0.371652
H79	H	1.029494	-0.804991	0.469345
H80	H	1.079852	-0.885569	0.463955
C81	C	0.869347	-1.099697	0.235418
C82	C	0.904408	-1.164631	0.273457
H83	H	0.838864	-1.128458	0.202340
H84	H	0.902607	-1.063426	0.211484
H85	H	0.842782	-1.063180	0.266635
H86	H	0.930977	-1.201144	0.242240
H87	H	0.871143	-1.200917	0.297393
H88	H	0.887581	-0.837175	0.255254
C89	C	1.108207	-0.354643	0.673585
C90	C	1.068680	-0.400611	0.622130
H91	H	1.141371	-0.316076	0.651727
H92	H	1.132117	-0.396608	0.701318
H93	H	1.077938	-0.320058	0.702600
H94	H	1.098949	-0.435202	0.593118
H95	H	1.044769	-0.358641	0.594385
H96	H	0.255689	-0.409517	0.289554
C97	C	0.517922	-0.660316	0.384675
C98	C	0.560856	-0.606931	0.428582
H99	H	0.490107	-0.699509	0.412285
H100	H	0.546283	-0.694631	0.353559
H101	H	0.488251	-0.623010	0.358414
H102	H	0.590531	-0.644236	0.454840
H103	H	0.532492	-0.572613	0.459711
H104	H	0.721230	-0.380877	0.269362
C105	C	0.330420	-0.700758	0.494691
C106	C	0.381851	-0.650888	0.459557
H107	H	0.352298	-0.742607	0.524173
H108	H	0.301662	-0.732020	0.461419
H109	H	0.302427	-0.661466	0.522316
H110	H	0.409840	-0.690179	0.431927
H111	H	0.410621	-0.619624	0.492833
C112	C	1.023359	-0.350399	0.819115
C113	C	1.062179	-0.408133	0.775818
H114	H	1.054428	-0.314259	0.846930
H115	H	0.993818	-0.384749	0.848782
H116	H	0.995513	-0.313024	0.790995
H117	H	1.090022	-0.445513	0.803939
H118	H	1.091732	-0.373780	0.746148
C119	C	1.077505	-0.390271	1.179621
C120	C	1.090542	-0.375128	1.108553
H121	H	1.108569	-0.354136	1.207444
H122	H	1.084642	-0.451739	1.189173
H123	H	1.030462	-0.375191	1.190444
H124	H	1.137583	-0.390214	1.097728
H125	H	1.083410	-0.313645	1.098996
H126	H	0.880313	-1.007351	0.247331
H127	H	0.905752	-0.589969	1.080919
C128	C	0.795626	-0.615187	0.737954
C129	C	0.863464	-0.639167	0.757368
H130	H	0.762458	-0.653746	0.759816
H131	H	0.790921	-0.620670	0.688487
H132	H	0.787489	-0.554886	0.752405
H133	H	0.871603	-0.699466	0.742913
H134	H	0.868172	-0.633693	0.806846
H135	H	0.911370	-0.583466	0.948096
H136	H	0.239825	-0.626216	0.442180
H137	H	0.883000	-0.616456	0.615360
