data_functionalizedCrystal
_audit_creation_method	'MofGen! by Chris Wilmer'
_symmetry_space_group_name_H-M	'P1'
_symmetry_Int_Tables_number	1
_symmetry_cell_setting	triclinic
loop_
_symmetry_equiv_pos_as_xyz
  x,y,z
_cell_length_a	12.837943
_cell_length_b	12.811434
_cell_length_c	11.892095
_cell_angle_alpha	99.326143
_cell_angle_beta	94.310562
_cell_angle_gamma	90.588387
loop_
_atom_site_label
_atom_site_type_symbol
_atom_site_fract_x
_atom_site_fract_y
_atom_site_fract_z
O1	O	-1.381293	0.268699	-0.066428
O2	O	-1.079528	0.255125	-0.067826
O3	O	-1.239108	0.108871	-0.082814
O4	O	-1.221712	0.414953	-0.051440
O5	O	-1.225803	0.121045	0.106441
O6	O	-1.066222	0.267298	0.121429
O7	O	-1.367988	0.280873	0.122827
Zn8	Zn	-1.214992	0.276019	0.152176
Zn9	Zn	-1.232523	0.259979	-0.097175
O10	O	-1.208407	0.427127	0.137815
C11	C	-1.034268	0.256626	0.026330
C12	C	-0.919231	0.242950	0.024925
C13	C	-1.231889	0.075509	0.007767
C14	C	-1.230189	-0.042039	-0.004289
C15	C	-1.215626	0.460489	0.047231
C16	C	-1.217327	0.578036	0.059280
C17	C	-1.413248	0.279372	0.028668
C18	C	-1.528285	0.293048	0.030066
C19	C	-0.677790	0.407364	0.041794
C20	C	-0.569702	0.394519	0.040476
C21	C	-0.594964	0.204416	0.020977
C22	C	-0.703052	0.217261	0.022296
C23	C	-0.744461	0.318738	0.032703
C24	C	-0.852552	0.331582	0.034014
C25	C	-0.877811	0.141480	0.014524
C26	C	-0.769723	0.128635	0.013205
N27	N	-1.203036	0.286965	0.322352
C28	C	-1.235050	0.785648	-0.124427
C29	C	-1.236649	0.896093	-0.113112
C30	C	-1.222132	0.909375	0.093225
C31	C	-1.220533	0.798930	0.081910
C32	C	-1.226991	0.737069	-0.026920
C33	C	-1.225384	0.626622	-0.038234
C34	C	-1.210874	0.639906	0.168102
C35	C	-1.212473	0.750351	0.179417
N36	N	-1.244488	0.249025	-0.267352
C37	C	-1.327687	0.172795	0.547300
C38	C	-1.319337	0.180455	0.666427
C39	C	-1.177982	0.309938	0.679734
C40	C	-1.186332	0.302279	0.560607
C41	C	-1.261188	0.233706	0.494394
C42	C	-1.269542	0.226052	0.375266
C43	C	-1.128182	0.355530	0.388575
C44	C	-1.119832	0.363189	0.507702
H45	H	-0.886265	0.414210	0.042489
H46	H	-1.373486	0.130854	0.709499
C47	C	-1.202012	0.586461	0.275367
N48	N	-1.195336	0.546205	0.356157
H49	H	-0.711506	0.489990	0.050266
H50	H	-1.388645	0.116968	0.493389
C51	C	-1.095621	0.385335	0.752586
N52	N	-1.033580	0.442117	0.807458
H53	H	-1.058883	0.419017	0.561625
C54	C	-1.245512	0.949525	-0.220378
N55	N	-1.252187	0.989770	-0.301176
H56	H	-1.074037	0.405131	0.345486
H57	H	-1.330496	0.170220	0.321356
C58	C	-1.215026	0.977440	0.212929
N59	N	-1.209669	1.028708	0.303090
H60	H	-0.932108	0.069314	0.007113
C61	C	-0.549393	0.092800	0.009543
N62	N	-0.515068	0.008730	0.000931
C63	C	-0.724160	0.017015	0.001756
N64	N	-0.689844	-0.067059	-0.006872
C65	C	-0.496367	0.492015	0.050477
N66	N	-0.441131	0.565453	0.058013
H67	H	-1.230636	0.576257	-0.126849
H68	H	-1.240293	0.735280	-0.213041
H69	H	-1.207220	0.800733	0.268023
