data_functionalizedCrystal
_audit_creation_method	'MofGen! by Chris Wilmer'
_symmetry_space_group_name_H-M	'P1'
_symmetry_Int_Tables_number	1
_symmetry_cell_setting	triclinic
loop_
_symmetry_equiv_pos_as_xyz
  x,y,z
_cell_length_a	19.188925
_cell_length_b	10.654550
_cell_length_c	9.130313
_cell_angle_alpha	89.999737
_cell_angle_beta	89.995528
_cell_angle_gamma	83.813740
loop_
_atom_site_label
_atom_site_type_symbol
_atom_site_fract_x
_atom_site_fract_y
_atom_site_fract_z
O1	O	0.927171	0.156747	-0.121817
O2	O	0.723998	0.177859	-0.121812
O3	O	0.830256	-0.015535	-0.121821
O4	O	0.820913	0.350141	-0.121808
O5	O	0.830249	-0.015541	0.121778
O6	O	0.723990	0.177854	0.121787
O7	O	0.927164	0.156741	0.121781
Cu8	Cu	0.825577	0.167297	0.144027
Cu9	Cu	0.825585	0.167304	-0.144057
O10	O	0.820906	0.350136	0.121790
C11	C	0.697978	0.177174	-0.000012
C12	C	0.620460	0.175125	-0.000010
C13	C	0.829566	-0.062321	-0.000026
C14	C	0.827514	-0.201721	-0.000040
N15	N	0.825575	0.167292	0.346649
C16	C	0.059343	0.274883	-0.000010
C17	C	0.132178	0.276819	-0.000018
C18	C	0.176371	0.163341	-0.000019
C19	C	0.147722	0.047919	-0.000050
C20	C	0.074887	0.045986	-0.000057
N21	N	0.296508	0.081186	0.082901
N22	N	0.365697	0.083030	0.082910
C23	C	0.395818	0.169158	-0.000002
N24	N	0.354134	0.253392	-0.082906
N25	N	0.284938	0.251551	-0.082909
C26	C	0.255349	0.165425	-0.000013
C27	C	0.503435	0.286673	0.000010
C28	C	0.576273	0.288604	-0.000007
C29	C	0.591815	0.059701	-0.000024
C30	C	0.518979	0.057773	-0.000022
C31	C	0.474793	0.171262	0.000002
C32	C	0.953183	0.157427	-0.000022
C33	C	1.030701	0.159476	-0.000033
C34	C	0.821595	0.396922	-0.000008
C35	C	0.823648	0.536322	-0.000003
C36	C	0.761085	0.617133	-0.000005
C37	C	0.763017	0.748113	-0.000029
C38	C	0.890082	0.717457	-0.000042
C39	C	0.888148	0.586480	-0.000029
N40	N	0.825592	0.167299	-0.346680
C41	C	0.872643	0.081692	0.423297
C42	C	0.872649	0.081692	0.576634
C43	C	0.778519	0.252903	0.576662
C44	C	0.778510	0.252896	0.423328
H45	H	0.023370	0.367295	0.000002
H46	H	0.627796	-0.032695	-0.000036
O47	O	0.159895	0.389041	0.000076
C48	C	0.105277	0.488793	0.000054
H49	H	0.055631	0.453862	0.046156
H50	H	0.120884	0.569381	0.070800
H51	H	0.095150	0.523798	-0.116806
O52	O	0.190718	-0.062230	-0.000244
C53	C	0.233311	-0.067964	-0.126418
H54	H	0.237476	0.031697	-0.168466
H55	H	0.287816	-0.115043	-0.098041
H56	H	0.209083	-0.125180	-0.214773
O57	O	0.047177	-0.066236	-0.000006
C58	C	0.101797	-0.165984	-0.000054
H59	H	0.151438	-0.131061	0.046066
H60	H	0.086185	-0.246591	0.070661
H61	H	0.111935	-0.200961	-0.116925
O62	O	0.732737	0.336104	0.650923
C63	C	0.691202	0.411673	0.550385
H64	H	0.690161	0.360184	0.441088
H65	H	0.635542	0.431074	0.594711
H66	H	0.714314	0.504865	0.534061
O67	O	0.604185	0.400634	0.000188
C68	C	0.645840	0.408608	0.126356
H69	H	0.663493	0.309528	0.168418
H70	H	0.693772	0.458392	0.097966
H71	H	0.613940	0.464350	0.214706
H72	H	0.712072	0.813906	-0.000032
O73	O	0.491268	-0.054446	0.000040
C74	C	0.545889	-0.154192	0.000000
H75	H	0.595528	-0.119266	0.046123
H76	H	0.530277	-0.234797	0.070718
H77	H	0.556030	-0.189172	-0.116868
O78	O	0.460609	0.397025	-0.000052
C79	C	0.501511	0.499306	-0.000016
H80	H	0.555711	0.467132	-0.046133
H81	H	0.475034	0.578791	-0.070740
H82	H	0.506862	0.534703	0.116851
H83	H	0.939098	0.520679	-0.000034
O84	O	0.698372	0.568617	-0.000061
C85	C	0.643567	0.668037	-0.000035
H86	H	0.663574	0.756905	-0.046160
H87	H	0.598578	0.640911	-0.070758
H88	H	0.624233	0.686689	0.116829
H89	H	0.910965	0.011987	0.360869
O90	O	0.918439	-0.001504	0.650862
C91	C	0.959962	-0.077079	0.550297
H92	H	0.960991	-0.025595	0.440994
H93	H	1.015627	-0.096481	0.594578
H94	H	0.936847	-0.170270	0.534001
O95	O	0.952674	0.766393	0.000011
C96	C	0.940967	0.899326	-0.000033
H97	H	0.886630	0.930390	0.046086
H98	H	0.982274	0.939318	0.070686
H99	H	0.944531	0.935763	-0.116902
H100	H	0.740179	0.322601	0.360917
