data_functionalizedCrystal
_audit_creation_method	'MofGen! by Chris Wilmer'
_symmetry_space_group_name_H-M	'P1'
_symmetry_Int_Tables_number	1
_symmetry_cell_setting	triclinic
loop_
_symmetry_equiv_pos_as_xyz
  x,y,z
_cell_length_a	19.121215
_cell_length_b	19.120786
_cell_length_c	19.121243
_cell_angle_alpha	94.785083
_cell_angle_beta	94.784136
_cell_angle_gamma	94.789602
loop_
_atom_site_label
_atom_site_type_symbol
_atom_site_fract_x
_atom_site_fract_y
_atom_site_fract_z
Zn1	Zn	1.083005	-0.215140	0.434264
Zn2	Zn	1.333005	0.034860	0.684264
Zn3	Zn	1.583005	0.284860	0.934264
Zn4	Zn	1.833005	0.534860	1.184264
Zn5	Zn	1.072438	-0.338270	0.311103
Zn6	Zn	1.322438	-0.088270	0.561103
Zn7	Zn	1.572438	0.161730	0.811103
Zn8	Zn	1.822438	0.411730	1.061103
Zn9	Zn	0.959878	-0.225621	0.311112
Zn10	Zn	1.209878	0.024379	0.561112
Zn11	Zn	1.459878	0.274379	0.811112
Zn12	Zn	1.709878	0.524379	1.061112
Zn13	Zn	0.959817	-0.338252	0.423698
Zn14	Zn	1.209817	-0.088252	0.673698
Zn15	Zn	1.459817	0.161748	0.923698
Zn16	Zn	1.709817	0.411748	1.173698
O17	O	1.018785	-0.279321	0.370044
O18	O	1.268785	-0.029321	0.620044
O19	O	1.518785	0.220679	0.870044
O20	O	1.768785	0.470679	1.120044
O21	O	1.180265	-0.227094	0.422344
O22	O	1.430265	0.022906	0.672344
O23	O	1.680265	0.272906	0.922344
O24	O	1.930265	0.522906	1.172344
O25	O	1.053110	-0.327721	0.212443
O26	O	1.303110	-0.077721	0.462443
O27	O	1.553110	0.172279	0.712443
O28	O	1.803110	0.422279	0.962443
O29	O	0.980659	-0.125563	0.331874
O30	O	1.230659	0.124437	0.581874
O31	O	1.480659	0.374437	0.831874
O32	O	1.730659	0.624437	1.081874
O33	O	1.172502	-0.317558	0.331859
O34	O	1.422502	-0.067558	0.581859
O35	O	1.672502	0.182442	0.831859
O36	O	1.922502	0.432442	1.081859
O37	O	1.071121	-0.117863	0.422353
O38	O	1.321121	0.132137	0.672353
O39	O	1.571121	0.382137	0.922353
O40	O	1.821121	0.632137	1.172353
O41	O	0.970413	-0.244958	0.212450
O42	O	1.220413	0.005042	0.462450
O43	O	1.470413	0.255042	0.712450
O44	O	1.720413	0.505042	0.962450
O45	O	0.861208	-0.244941	0.321629
O46	O	1.111208	0.005059	0.571629
O47	O	1.361208	0.255059	0.821629
O48	O	1.611208	0.505059	1.071629
O49	O	0.980555	-0.317527	0.523760
O50	O	1.230555	-0.067527	0.773760
O51	O	1.480555	0.182473	1.023760
O52	O	1.730555	0.432473	1.273760
O53	O	0.861163	-0.327691	0.404345
O54	O	1.111163	-0.077691	0.654345
O55	O	1.361163	0.172309	0.904345
O56	O	1.611163	0.422309	1.154345
O57	O	1.071061	-0.227077	0.531523
O58	O	1.321061	0.022923	0.781523
O59	O	1.571061	0.272923	1.031523
O60	O	1.821061	0.522923	1.281523
O61	O	1.053051	-0.436935	0.321613
O62	O	1.303051	-0.186935	0.571613
O63	O	1.553051	0.063065	0.821613
O64	O	1.803051	0.313065	1.071613
O65	O	0.970308	-0.436922	0.404336
O66	O	1.220308	-0.186922	0.654336
O67	O	1.470308	0.063078	0.904336
O68	O	1.720308	0.313078	1.154336
C69	C	0.835604	-0.287452	0.361842
C70	C	1.085604	-0.037452	0.611842
C71	C	1.335604	0.212548	0.861842
C72	C	1.585604	0.462548	1.111842
C73	C	0.757239	-0.290946	0.358349
C74	C	1.007239	-0.040946	0.608349
C75	C	1.257239	0.209054	0.858349
C76	C	1.507239	0.459054	1.108349
C77	C	0.313817	-0.313069	0.336249
C78	C	0.563817	-0.063069	0.586249
C79	C	0.813817	0.186931	0.836249
C80	C	1.063817	0.436931	1.086249
C81	C	0.387450	-0.309782	0.339526
C82	C	0.637450	-0.059782	0.589526
C83	C	0.887450	0.190218	0.839526
C84	C	1.137450	0.440218	1.089526
C85	C	0.428310	-0.261109	0.388346
C86	C	0.678310	-0.011109	0.638346
C87	C	0.928310	0.238891	0.888346
C88	C	1.178310	0.488891	1.138346
C89	C	0.395534	-0.215716	0.433887
C90	C	0.645534	0.034284	0.683887
C91	C	0.895534	0.284284	0.933887
C92	C	1.145534	0.534284	1.183887
C93	C	0.321903	-0.219000	0.430606
C94	C	0.571903	0.031000	0.680606
C95	C	0.821903	0.281000	0.930606
C96	C	1.071903	0.531000	1.180606
C97	C	0.650832	-0.248837	0.400609
C98	C	0.900832	0.001163	0.650609
C99	C	1.150832	0.251163	0.900609
C100	C	1.400832	0.501163	1.150609
C101	C	0.724468	-0.245558	0.403888
C102	C	0.974468	0.004442	0.653888
C103	C	1.224468	0.254442	0.903888
C104	C	1.474468	0.504442	1.153888
C105	C	0.716378	-0.339623	0.309526
C106	C	0.966378	-0.089623	0.559526
C107	C	1.216378	0.160377	0.809526
C108	C	1.466378	0.410377	1.059526
C109	C	0.642745	-0.342906	0.306252
C110	C	0.892745	-0.092906	0.556252
C111	C	1.142745	0.157094	0.806252
C112	C	1.392745	0.407094	1.056252
C113	C	0.609976	-0.297510	0.351790
C114	C	0.859976	-0.047510	0.601790
C115	C	1.109976	0.202490	0.851790
C116	C	1.359976	0.452490	1.101790
C117	C	0.503575	-0.257750	0.391698
C118	C	0.753575	-0.007750	0.641698
C119	C	1.003575	0.242250	0.891698
C120	C	1.253575	0.492250	1.141698
C121	C	0.534713	-0.300867	0.348434
C122	C	0.784713	-0.050867	0.598434
C123	C	1.034713	0.199133	0.848434
C124	C	1.284713	0.449133	1.098434
C125	C	1.010546	-0.462510	0.361843
C126	C	1.260546	-0.212510	0.611843
C127	C	1.510546	0.037490	0.861843
C128	C	1.760546	0.287490	1.111843
C129	C	1.007087	-0.540876	0.358361
C130	C	1.257087	-0.290876	0.608361
C131	C	1.507087	-0.040876	0.858361
C132	C	1.757087	0.209124	1.108361
C133	C	1.052528	-0.573622	0.403868
C134	C	1.302528	-0.323622	0.653868
C135	C	1.552528	-0.073622	0.903868
C136	C	1.802528	0.176378	1.153868
C137	C	1.049275	-0.647255	0.400598
C138	C	1.299275	-0.397255	0.650598
C139	C	1.549275	-0.147255	0.900598
C140	C	1.799275	0.102745	1.150598
C141	C	1.000584	-0.688139	0.351816
C142	C	1.250584	-0.438139	0.601816
C143	C	1.500584	-0.188139	0.851816
C144	C	1.750584	0.061861	1.101816
C145	C	0.955138	-0.655388	0.306307
C146	C	1.205138	-0.405388	0.556307
C147	C	1.455138	-0.155388	0.806307
C148	C	1.705138	0.094612	1.056307
C149	C	0.958388	-0.581757	0.309582
C150	C	1.208388	-0.331757	0.559582
C151	C	1.458388	-0.081757	0.809582
C152	C	1.708388	0.168243	1.059582
C153	C	0.988413	-0.910662	0.339574
C154	C	1.238413	-0.660662	0.589574
C155	C	1.488413	-0.410662	0.839574
C156	C	1.738413	-0.160662	1.089574
C157	C	0.985168	-0.984298	0.336302
C158	C	1.235168	-0.734298	0.586302
C159	C	1.485168	-0.484298	0.836302
C160	C	1.735168	-0.234298	1.086302
C161	C	1.079304	-0.976159	0.430593
C162	C	1.329304	-0.726159	0.680593
C163	C	1.579304	-0.476159	0.930593
C164	C	1.829304	-0.226159	1.180593
C165	C	1.082553	-0.902527	0.433861
C166	C	1.332553	-0.652527	0.683861
C167	C	1.582553	-0.402527	0.933861
C168	C	1.832553	-0.152527	1.183861
C169	C	1.037104	-0.869782	0.388354
C170	C	1.287104	-0.619782	0.638354
C171	C	1.537104	-0.369782	0.888354
C172	C	1.787104	-0.119782	1.138354
C173	C	0.997259	-0.763404	0.348471
C174	C	1.247259	-0.513404	0.598471
C175	C	1.497259	-0.263404	0.848471
C176	C	1.747259	-0.013404	1.098471
C177	C	1.040426	-0.794519	0.391704
C178	C	1.290426	-0.544519	0.641704
C179	C	1.540426	-0.294519	0.891704
C180	C	1.790426	-0.044519	1.141704
C181	C	1.202681	-0.271159	0.378279
C182	C	1.452681	-0.021159	0.628279
C183	C	1.702681	0.228841	0.878279
C184	C	1.952681	0.478841	1.128279
C185	C	1.281046	-0.267681	0.381788
C186	C	1.531046	-0.017681	0.631788
C187	C	1.781046	0.232319	0.881788
C188	C	2.031046	0.482319	1.131788
C189	C	1.026980	-0.271131	0.553939
C190	C	1.276980	-0.021131	0.803939
C191	C	1.526980	0.228869	1.053939
C192	C	1.776980	0.478869	1.303939
C193	C	1.030472	-0.267641	0.632304
C194	C	1.280472	-0.017641	0.882304
C195	C	1.530472	0.232359	1.132304
C196	C	1.780472	0.482359	1.382304
C197	C	1.027076	-0.095415	0.378293
C198	C	1.277076	0.154585	0.628293
C199	C	1.527076	0.404585	0.878293
C200	C	1.777076	0.654585	1.128293
C201	C	1.030609	-0.017045	0.381809
C202	C	1.280609	0.232955	0.631809
C203	C	1.530609	0.482955	0.881809
C204	C	1.780609	0.732955	1.131809
C205	C	0.984992	-0.313090	0.665079
C206	C	1.234992	-0.063090	0.915079
C207	C	1.484992	0.186910	1.165079
C208	C	1.734992	0.436910	1.415079
C209	C	0.988279	-0.309811	0.738712
C210	C	1.238279	-0.059811	0.988712
C211	C	1.488279	0.190189	1.238712
C212	C	1.738279	0.440189	1.488712
C213	C	1.037044	-0.261078	0.779567
C214	C	1.287044	-0.011078	1.029567
C215	C	1.537044	0.238922	1.279567
C216	C	1.787044	0.488922	1.529567
C217	C	1.082528	-0.215626	0.746787
C218	C	1.332528	0.034374	0.996787
C219	C	1.582528	0.284374	1.246787
C220	C	1.832528	0.534374	1.496787
C221	C	1.079244	-0.218910	0.673156
C222	C	1.329244	0.031090	0.923156
C223	C	1.579244	0.281090	1.173156
C224	C	1.829244	0.531090	1.423156
C225	C	1.049321	-0.248811	1.002088
C226	C	1.299321	0.001189	1.252088
C227	C	1.549321	0.251189	1.502088
C228	C	1.799321	0.501189	1.752088
C229	C	1.052600	-0.245530	1.075724
C230	C	1.302600	0.004470	1.325724
C231	C	1.552600	0.254470	1.575724
C232	C	1.802600	0.504470	1.825724
C233	C	0.958351	-0.339716	1.067644
C234	C	1.208351	-0.089716	1.317644
C235	C	1.458351	0.160284	1.567644
C236	C	1.708351	0.410284	1.817644
C237	C	0.955069	-0.342992	0.994011
C238	C	1.205069	-0.092992	1.244011
C239	C	1.455069	0.157008	1.494011
C240	C	1.705069	0.407008	1.744011
C241	C	1.000556	-0.297543	0.961237
C242	C	1.250556	-0.047543	1.211237
C243	C	1.500556	0.202457	1.461237
C244	C	1.750556	0.452457	1.711237
C245	C	1.040403	-0.257723	0.854831
C246	C	1.290403	-0.007723	1.104831
C247	C	1.540403	0.242277	1.354831
C248	C	1.790403	0.492277	1.604831
C249	C	0.997199	-0.300902	0.885974
C250	C	1.247199	-0.050902	1.135974
C251	C	1.497199	0.199098	1.385974
C252	C	1.747199	0.449098	1.635974
C253	C	1.010615	-0.287493	1.186864
C254	C	1.260615	-0.037493	1.436864
C255	C	1.510615	0.212507	1.686864
C256	C	1.760615	0.462507	1.936864
C257	C	1.007120	-0.290979	1.108499
C258	C	1.257120	-0.040979	1.358499
C259	C	1.507120	0.209021	1.608499
C260	C	1.757120	0.459021	1.858499
H261	H	0.414128	-0.346741	0.302442
H262	H	0.664128	-0.096741	0.552442
H263	H	0.914128	0.153259	0.802442
H264	H	1.164128	0.403259	1.052442
H265	H	0.957616	-0.796701	0.308751
H266	H	1.207616	-0.546701	0.558751
H267	H	1.457616	-0.296701	0.808751
H268	H	1.707616	-0.046701	1.058751
H269	H	0.951408	-0.884007	0.302520
H270	H	1.201408	-0.634007	0.552520
H271	H	1.451408	-0.384007	0.802520
H272	H	1.701408	-0.134007	1.052520
F273	F	0.270336	-0.364878	0.284293
F274	F	0.520336	-0.114878	0.534293
F275	F	0.770336	0.135122	0.784293
F276	F	1.020336	0.385122	1.034293
H277	H	0.945275	-0.352766	0.631820
H278	H	1.195275	-0.102766	0.881820
H279	H	1.445275	0.147234	1.131820
H280	H	1.695275	0.397234	1.381820
H281	H	0.951245	-0.346822	0.765394
H282	H	1.201245	-0.096822	1.015394
H283	H	1.451245	0.153178	1.265394
H284	H	1.701245	0.403178	1.515394
F285	F	0.767954	-0.193751	0.455850
F286	F	1.017954	0.056249	0.705850
F287	F	1.267954	0.306249	0.955850
F288	F	1.517954	0.556249	1.205850
H289	H	1.092180	-0.540338	0.443588
H290	H	1.342180	-0.290338	0.693588
H291	H	1.592180	-0.040338	0.943588
H292	H	1.842180	0.209662	1.193588
H293	H	1.086360	-0.211803	0.975412
H294	H	1.336360	0.038197	1.225412
H295	H	1.586360	0.288197	1.475412
H296	H	1.836360	0.538197	1.725412
H297	H	0.743067	-0.376581	0.272450
H298	H	0.993067	-0.126581	0.522450
H299	H	1.243067	0.123419	0.772450
H300	H	1.493067	0.373419	1.022450
H301	H	1.092308	-0.205839	1.108987
H302	H	1.342308	0.044161	1.358987
H303	H	1.592308	0.294161	1.608987
H304	H	1.842308	0.544161	1.858987
H305	H	0.915489	-0.688683	0.266591
H306	H	1.165489	-0.438683	0.516591
H307	H	1.415489	-0.188683	0.766591
H308	H	1.665489	0.061317	1.016591
F309	F	1.092299	-0.205858	0.898319
F310	F	1.342299	0.044142	1.148319
F311	F	1.592299	0.294142	1.398319
F312	F	1.842299	0.544142	1.648319
H313	H	0.609481	-0.382540	0.266497
H314	H	0.859481	-0.132540	0.516497
H315	H	1.109481	0.117460	0.766497
H316	H	1.359481	0.367460	1.016497
F317	F	0.615965	-0.200527	0.449080
F318	F	0.865965	0.049473	0.699080
F319	F	1.115965	0.299473	0.949080
F320	F	1.365965	0.549473	1.199080
F321	F	0.945304	-0.352767	0.842492
F322	F	1.195304	-0.102767	1.092492
F323	F	1.445304	0.147233	1.342492
F324	F	1.695304	0.397233	1.592492
F325	F	0.439023	-0.163913	0.485843
F326	F	0.689023	0.086087	0.735843
F327	F	0.939023	0.336087	0.985843
F328	F	1.189023	0.586087	1.235843
H329	H	0.915370	-0.382686	0.960751
H330	H	1.165370	-0.132686	1.210751
H331	H	1.415370	0.117314	1.460751
H332	H	1.665370	0.367314	1.710751
H333	H	0.921384	-0.555096	0.272526
H334	H	1.171384	-0.305096	0.522526
H335	H	1.421384	-0.055096	0.772526
H336	H	1.671384	0.194904	1.022526
H337	H	0.921319	-0.376718	1.094336
H338	H	1.171319	-0.126718	1.344336
H339	H	1.421319	0.123282	1.594336
H340	H	1.671319	0.373282	1.844336
H341	H	1.122236	-0.175950	0.780057
H342	H	1.372236	0.074050	1.030057
H343	H	1.622236	0.324050	1.280057
H344	H	1.872236	0.574050	1.530057
F345	F	1.092242	-0.751005	0.443622
F346	F	1.342242	-0.501005	0.693622
F347	F	1.592242	-0.251005	0.943622
F348	F	1.842242	-0.001005	1.193622
H349	H	1.116279	-0.181900	0.646471
H350	H	1.366279	0.068100	0.896471
H351	H	1.616279	0.318100	1.146471
H352	H	1.866279	0.568100	1.396471
F353	F	0.287026	-0.170689	0.479073
F354	F	0.537026	0.079311	0.729073
F355	F	0.787026	0.329311	0.979073
F356	F	1.037026	0.579311	1.229073
H357	H	1.086283	-0.673913	0.437649
H358	H	1.336283	-0.423913	0.687649
H359	H	1.586283	-0.173913	0.937649
H360	H	1.836283	0.076087	1.187649
F361	F	0.491225	-0.352663	0.296476
F362	F	0.741225	-0.102663	0.546476
F363	F	0.991225	0.147337	0.796476
F364	F	1.241225	0.397337	1.046476
H365	H	0.536851	-0.218122	0.431449
H366	H	0.786851	0.031878	0.681449
H367	H	1.036851	0.281878	0.931449
H368	H	1.286851	0.531878	1.181449
H369	H	1.122201	-0.869240	0.473582
H370	H	1.372201	-0.619240	0.723582
H371	H	1.622201	-0.369240	0.973582
H372	H	1.872201	-0.119240	1.223582
H373	H	1.116305	-1.002828	0.467643
H374	H	1.366305	-0.752828	0.717643
H375	H	1.616305	-0.502828	0.967643
H376	H	1.866305	-0.252828	1.217643
H377	H	0.945514	-1.017585	0.296577
H378	H	1.195514	-0.767585	0.546577
H379	H	1.445514	-0.517585	0.796577
H380	H	1.695514	-0.267585	1.046577
