data_functionalizedCrystal
_audit_creation_method	'MofGen! by Chris Wilmer'
_symmetry_space_group_name_H-M	'P1'
_symmetry_Int_Tables_number	1
_symmetry_cell_setting	triclinic
loop_
_symmetry_equiv_pos_as_xyz
  x,y,z
_cell_length_a	14.908783
_cell_length_b	18.101397
_cell_length_c	18.101390
_cell_angle_alpha	89.964458
_cell_angle_beta	86.680743
_cell_angle_gamma	93.311144
loop_
_atom_site_label
_atom_site_type_symbol
_atom_site_fract_x
_atom_site_fract_y
_atom_site_fract_z
Zn1	Zn	1.379250	-0.229553	-0.484151
Zn2	Zn	1.879250	0.270447	0.015849
Zn3	Zn	1.379150	-0.353414	-0.360299
Zn4	Zn	1.879150	0.146586	0.139701
Zn5	Zn	1.228382	-0.236724	-0.353167
Zn6	Zn	1.728382	0.263276	0.146833
Zn7	Zn	1.228351	-0.360495	-0.476945
Zn8	Zn	1.728351	0.139505	0.023055
O9	O	1.303783	-0.295046	-0.418641
O10	O	1.803783	0.204954	0.081359
O11	O	1.505485	-0.240019	-0.473723
O12	O	2.005485	0.259981	0.026277
O13	O	1.359121	-0.337973	-0.255719
O14	O	1.859121	0.162027	0.244281
O15	O	1.248450	-0.132137	-0.370573
O16	O	1.748450	0.367863	0.129427
O17	O	1.505411	-0.331019	-0.382729
O18	O	2.005411	0.168981	0.117271
O19	O	1.359292	-0.126868	-0.466806
O20	O	1.859292	0.373132	0.033194
O21	O	1.248353	-0.252241	-0.250479
O22	O	1.748353	0.247759	0.249521
O23	O	1.102130	-0.259107	-0.363586
O24	O	1.602130	0.240893	0.136414
O25	O	1.248397	-0.343088	-0.581536
O26	O	1.748397	0.156912	-0.081536
O27	O	1.102107	-0.350041	-0.454525
O28	O	1.602107	0.149959	0.045475
O29	O	1.359261	-0.246885	-0.586830
O30	O	1.859261	0.253115	-0.086830
O31	O	1.359091	-0.457989	-0.375742
O32	O	1.859091	0.042011	0.124258
O33	O	1.248300	-0.463192	-0.461441
O34	O	1.748300	0.036808	0.038559
C35	C	1.069384	-0.306121	-0.407500
C36	C	1.569384	0.193879	0.092500
C37	C	0.969106	-0.310877	-0.402752
C38	C	1.469106	0.189123	0.097248
C39	C	0.780749	-0.225184	-0.488725
C40	C	1.280749	0.274816	0.011275
C41	C	0.686530	-0.229649	-0.484266
C42	C	1.186530	0.270351	0.015734
C43	C	0.686447	-0.324270	-0.389371
C44	C	1.186447	0.175730	0.110629
C45	C	0.780666	-0.319804	-0.393830
C46	C	1.280666	0.180196	0.106170
C47	C	0.827814	-0.270260	-0.443510
C48	C	1.327814	0.229740	0.056490
C49	C	0.922035	-0.265799	-0.447972
C50	C	1.422035	0.234201	0.052028
C51	C	0.921950	-0.360415	-0.353074
C52	C	1.421950	0.139585	0.146926
C53	C	0.827731	-0.364880	-0.348615
C54	C	1.327731	0.135120	0.151385
C55	C	1.303706	-0.487461	-0.418601
C56	C	1.803706	0.012539	0.081399
C57	C	1.303756	-0.569772	-0.418613
C58	C	1.803756	-0.069772	0.081387
C59	C	1.303871	-0.868858	-0.418686
C60	C	1.803871	-0.368858	0.081314
C61	C	1.373383	-0.834238	-0.364604
C62	C	1.873383	-0.334238	0.135396
C63	C	1.373624	-0.748608	-0.364764
C64	C	1.873624	-0.248608	0.135236
C65	C	1.303814	-0.720478	-0.418649
C66	C	1.803814	-0.220478	0.081351
C67	C	1.329587	-0.750259	-0.497932
C68	C	1.829587	-0.250259	0.002068
C69	C	1.330125	-0.835879	-0.497645
C70	C	1.830125	-0.335879	0.002355
C71	C	1.208400	-0.841885	-0.394152
C72	C	1.708400	-0.341885	0.105848
C73	C	1.208871	-0.756213	-0.392432
C74	C	1.708871	-0.256213	0.107568
C75	C	1.303780	-0.636620	-0.418633
C76	C	1.803780	-0.136620	0.081367
C77	C	1.303907	-0.952716	-0.418707
C78	C	1.803907	-0.452716	0.081293
C79	C	1.539098	-0.283929	-0.429825
C80	C	2.039098	0.216071	0.070175
C81	C	1.639375	-0.279192	-0.434591
C82	C	2.139375	0.220808	0.065409
C83	C	1.303837	-0.294976	-0.611805
C84	C	1.803837	0.205024	-0.111805
C85	C	1.303860	-0.294946	-0.694120
C86	C	1.803860	0.205054	-0.194120
C87	C	1.303885	-0.101880	-0.418698
C88	C	1.803885	0.398120	0.081302
C89	C	1.303929	-0.019564	-0.418722
C90	C	1.803929	0.480436	0.081278
C91	C	1.303908	-0.294898	-0.993214
C92	C	1.803908	0.205102	-0.493214
C93	C	1.373891	-0.234560	-0.965230
C94	C	1.873891	0.265440	-0.465230
C95	C	1.373673	-0.234359	-0.879602
C96	C	1.873673	0.265641	-0.379602
C97	C	1.303885	-0.294922	-0.844830
C98	C	1.803885	0.205078	-0.344830
C99	C	1.208838	-0.278215	-0.871396
C100	C	1.708838	0.221785	-0.371396
C101	C	1.209257	-0.277768	-0.957061
C102	C	1.709257	0.222232	-0.457061
C103	C	1.328135	-0.372129	-0.962772
C104	C	1.828135	0.127871	-0.462772
C105	C	1.330221	-0.371631	-0.877221
C106	C	1.830221	0.128369	-0.377221
C107	C	1.303866	-0.294937	-0.760970
C108	C	1.803866	0.205063	-0.260970
C109	C	1.303921	-0.294881	-1.077074
C110	C	1.803921	0.205119	-0.577074
C111	C	1.303782	-0.295060	-0.226230
C112	C	1.803782	0.204940	0.273770
C113	C	1.303934	-0.294873	-0.143924
C114	C	1.803934	0.205127	0.356076
H115	H	1.357453	-0.855640	-0.305794
H116	H	1.857453	-0.355640	0.194206
O117	O	1.267613	-0.433905	-0.845892
O118	O	1.767613	0.066095	-0.345892
H119	H	1.216515	-0.411052	-0.806574
H120	H	1.716515	0.088948	-0.306574
O121	O	0.972710	-0.409036	-0.304297
O122	O	1.472710	0.090964	0.195703
H123	H	1.046148	-0.397606	-0.315739
H124	H	1.546148	0.102394	0.184261
H125	H	0.648213	-0.192942	-0.521083
H126	H	1.148213	0.307058	-0.021083
O127	O	1.467555	-0.247478	-0.996976
O128	O	1.967555	0.252522	-0.496976
H129	H	1.465234	-0.297039	-1.033042
H130	H	1.965234	0.202961	-0.533042
H131	H	1.280505	-0.732218	-0.539506
H132	H	1.780505	-0.232218	-0.039506
O133	O	1.467034	-0.247509	-0.856196
O134	O	1.967034	0.252491	-0.356196
H135	H	1.464727	-0.298504	-0.821893
H136	H	1.964727	0.201496	-0.321893
H137	H	1.357635	-0.177054	-0.858371
H138	H	1.857635	0.322946	-0.358371
H139	H	1.357499	-0.728414	-0.306118
H140	H	1.857499	-0.228414	0.193882
O141	O	1.420995	-0.717459	-0.525099
O142	O	1.920995	-0.217459	-0.025099
H143	H	1.448216	-0.679949	-0.482271
H144	H	1.948216	-0.179949	0.017729
O145	O	1.137890	-0.334892	-0.841032
O146	O	1.637890	0.165108	-0.341032
H147	H	1.071396	-0.321832	-0.860618
H148	H	1.571396	0.178168	-0.360618
O149	O	0.635581	-0.377693	-0.335785
O150	O	1.135581	0.122307	0.164215
H151	H	0.653646	-0.434977	-0.349229
H152	H	1.153646	0.065023	0.150771
O153	O	1.136573	-0.731303	-0.440305
O154	O	1.636573	-0.231303	0.059695
H155	H	1.070479	-0.757529	-0.420292
H156	H	1.570479	-0.257529	0.079708
O157	O	0.972891	-0.212364	-0.501552
O158	O	1.472891	0.287636	-0.001552
H159	H	1.015815	-0.172620	-0.470500
H160	H	1.515815	0.327380	0.029500
H161	H	0.819138	-0.184846	-0.529179
H162	H	1.319138	0.315154	-0.029179
O163	O	1.181122	-0.204482	-0.841691
O164	O	1.681122	0.295518	-0.341691
H165	H	1.170476	-0.167033	-0.888566
H166	H	1.670476	0.332967	-0.388566
H167	H	1.156608	-0.864597	-0.433487
H168	H	1.656608	-0.364597	0.066513
H169	H	1.443716	-0.852378	-0.381024
H170	H	1.943716	-0.352378	0.118976
O171	O	0.776878	-0.418315	-0.295033
O172	O	1.276878	0.081685	0.204967
H173	H	0.703454	-0.413851	-0.299529
H174	H	1.203454	0.086149	0.200471
O175	O	1.467297	-0.716952	-0.386740
O176	O	1.967297	-0.216952	0.113260
H177	H	1.512599	-0.762816	-0.397303
H178	H	2.012599	-0.262816	0.102697
H179	H	1.399910	-0.852495	-0.517902
H180	H	1.899910	-0.352495	-0.017902
H181	H	1.281713	-0.858892	-0.539575
H182	H	1.781713	-0.358892	-0.039575
O183	O	1.352907	-0.159062	-0.992741
O184	O	1.852907	0.340938	-0.492741
H185	H	1.292851	-0.164326	-1.026258
H186	H	1.792851	0.335674	-0.526258
H187	H	1.188721	-0.221446	-0.976080
H188	H	1.688721	0.278554	-0.476080
H189	H	1.184953	-0.864660	-0.337105
H190	H	1.684953	-0.364660	0.162895
O191	O	1.183113	-0.730602	-0.315119
O192	O	1.683113	-0.230602	0.184881
H193	H	1.237694	-0.692576	-0.295443
H194	H	1.737694	-0.192576	0.204557
O195	O	1.137834	-0.333762	-0.981110
O196	O	1.637834	0.166238	-0.481110
H197	H	1.103144	-0.361036	-0.931559
H198	H	1.603144	0.138964	-0.431559
H199	H	1.396229	-0.388215	-0.987645
H200	H	1.896229	0.111785	-0.487645
O201	O	1.422876	-0.388429	-0.854721
O202	O	1.922876	0.111571	-0.354721
H203	H	1.423043	-0.390366	-0.793440
H204	H	1.923043	0.109634	-0.293440
O205	O	1.260628	-0.431613	-0.986383
O206	O	1.760628	0.068387	-0.486383
H207	H	1.210062	-0.406342	-1.019639
H208	H	1.710062	0.093658	-0.519639
