data_functionalizedCrystal
_audit_creation_method	'MofGen! by Chris Wilmer'
_symmetry_space_group_name_H-M	'P1'
_symmetry_Int_Tables_number	1
_symmetry_cell_setting	triclinic
loop_
_symmetry_equiv_pos_as_xyz
  x,y,z
_cell_length_a	14.853567
_cell_length_b	14.853567
_cell_length_c	13.930277
_cell_angle_alpha	90.004245
_cell_angle_beta	89.999243
_cell_angle_gamma	96.365070
loop_
_atom_site_label
_atom_site_type_symbol
_atom_site_fract_x
_atom_site_fract_y
_atom_site_fract_z
O1	O	0.117704	-1.196368	-0.079756
O2	O	0.617704	-0.696368	0.420244
O3	O	0.131725	-0.933909	-0.079772
O4	O	0.631725	-0.433909	0.420228
O5	O	-0.006516	-1.072149	-0.079767
O6	O	0.493484	-0.572149	0.420233
O7	O	0.255944	-1.058128	-0.079762
O8	O	0.755944	-0.558128	0.420238
O9	O	-0.006519	-1.072130	0.079895
O10	O	0.493481	-0.572130	0.579895
O11	O	0.131722	-0.933890	0.079890
O12	O	0.631722	-0.433890	0.579890
O13	O	0.117701	-1.196349	0.079905
O14	O	0.617701	-0.696349	0.579905
Zn15	Zn	0.124711	-1.065116	0.105247
Zn16	Zn	0.624711	-0.565116	0.605247
Zn17	Zn	0.124715	-1.065142	-0.105114
Zn18	Zn	0.624715	-0.565142	0.394886
O19	O	0.255941	-1.058109	0.079900
O20	O	0.755941	-0.558109	0.579900
C21	C	0.131088	-0.900311	0.000057
C22	C	0.631088	-0.400311	0.500057
C23	C	0.129184	-0.800227	0.000051
C24	C	0.629184	-0.300227	0.500051
N25	N	0.124708	-1.065106	0.248814
N26	N	0.624708	-0.565106	0.748814
C27	C	-0.040106	-1.071504	0.000061
C28	C	0.459894	-0.571504	0.500061
C29	C	-0.140189	-1.069601	0.000053
C30	C	0.359811	-0.569601	0.500053
C31	C	-0.552723	-0.979435	0.000066
C32	C	-0.052723	-0.479435	0.500066
C33	C	-0.574004	-1.143668	0.000076
C34	C	-0.074004	-0.643668	0.500076
C35	C	-0.479971	-1.145458	0.000070
C36	C	0.020029	-0.645458	0.500070
C37	C	-0.422309	-1.064235	0.000064
C38	C	0.077691	-0.564235	0.500064
C39	C	-0.458680	-0.981223	0.000063
C40	C	0.041320	-0.481223	0.500063
C41	C	-0.443591	-1.228469	0.000080
C42	C	0.056409	-0.728469	0.500080
C43	C	-0.349552	-1.230262	0.000076
C44	C	0.150448	-0.730262	0.500076
C45	C	-0.291889	-1.149039	0.000063
C46	C	0.208111	-0.649039	0.500063
C47	C	-0.328266	-1.066023	0.000061
C48	C	0.171734	-0.566023	0.500061
C49	C	-0.270604	-0.984800	0.000055
C50	C	0.229396	-0.484800	0.500055
C51	C	-0.306979	-0.901783	0.000047
C52	C	0.193021	-0.401783	0.500047
C53	C	-0.401017	-0.899999	0.000050
C54	C	0.098983	-0.399999	0.500050
C55	C	-0.197851	-1.150823	0.000059
C56	C	0.302149	-0.650823	0.500059
C57	C	-0.176561	-0.986588	0.000052
C58	C	0.323439	-0.486588	0.500052
C59	C	0.289531	-1.058754	0.000070
C60	C	0.789531	-0.558754	0.500070
C61	C	0.389615	-1.060657	0.000072
C62	C	0.889615	-0.560657	0.500072
C63	C	0.118337	-1.229947	0.000075
C64	C	0.618337	-0.729947	0.500075
C65	C	0.120241	-1.330031	0.000075
C66	C	0.620241	-0.830031	0.500075
C67	C	0.039019	-0.387693	0.000070
C68	C	0.539019	0.112307	0.500070
C69	C	0.203251	-0.366412	0.000073
C70	C	0.703251	0.133588	0.500073
C71	C	0.205042	-0.460446	0.000070
C72	C	0.705042	0.039554	0.500070
C73	C	0.123819	-0.518108	0.000066
C74	C	0.623819	-0.018108	0.500066
C75	C	0.040806	-0.481736	0.000065
C76	C	0.540806	0.018264	0.500065
C77	C	0.288053	-0.496825	0.000061
C78	C	0.788053	0.003175	0.500061
C79	C	0.289846	-0.590864	0.000057
C80	C	0.789846	-0.090864	0.500057
C81	C	0.208623	-0.648528	0.000060
C82	C	0.708623	-0.148528	0.500060
C83	C	0.125607	-0.612150	0.000060
C84	C	0.625607	-0.112150	0.500060
C85	C	0.044384	-0.669812	0.000056
C86	C	0.544384	-0.169812	0.500056
C87	C	-0.038633	-0.633437	0.000063
C88	C	0.461367	-0.133437	0.500063
C89	C	-0.040417	-0.539399	0.000067
C90	C	0.459583	-0.039399	0.500067
C91	C	0.210407	-0.742565	0.000055
C92	C	0.710407	-0.242565	0.500055
C93	C	0.046172	-0.763855	0.000050
C94	C	0.546172	-0.263855	0.500050
N95	N	0.124711	-1.065160	-0.248680
N96	N	0.624711	-0.565160	0.251320
C97	C	0.185904	-1.003926	0.701081
C98	C	0.685904	-0.503926	1.201081
C99	C	0.063519	-1.126382	0.701055
C100	C	0.563519	-0.626382	1.201055
C101	C	0.063516	-1.126371	0.600559
C102	C	0.563516	-0.626371	1.100559
C103	C	0.124709	-1.065138	0.550319
C104	C	0.624709	-0.565138	1.050319
C105	C	0.185904	-1.003916	0.600576
C106	C	0.685904	-0.503916	1.100576
C107	C	0.002328	-1.187598	0.550295
C108	C	0.502328	-0.687598	1.050295
C109	C	0.002323	-1.187591	0.449793
C110	C	0.502323	-0.687591	0.949793
C111	C	0.063512	-1.126353	0.399552
C112	C	0.563512	-0.626353	0.899552
C113	C	0.124710	-1.065127	0.449814
C114	C	0.624710	-0.565127	0.949814
C115	C	0.185902	-1.003894	0.399575
C116	C	0.685902	-0.503894	0.899575
C117	C	0.247096	-0.942664	0.449835
C118	C	0.747096	-0.442664	0.949835
C119	C	0.247094	-0.942677	0.550334
C120	C	0.747094	-0.442677	1.050334
C121	C	0.063515	-1.126339	0.299053
C122	C	0.563515	-0.626339	0.799053
C123	C	0.185903	-1.003883	0.299070
C124	C	0.685903	-0.503883	0.799070
H125	H	-0.129618	-0.920445	0.000043
H126	H	0.370382	-0.420445	0.500043
H127	H	0.354180	-0.449870	0.000054
H128	H	0.854180	0.050130	0.500054
Br129	Br	0.330137	-0.859586	0.618546
Br130	Br	0.830137	-0.359586	1.118546
H131	H	-0.260019	-0.835652	0.000048
H132	H	0.239981	-0.335652	0.500048
H133	H	0.235724	-0.954071	0.742005
H134	H	0.735724	-0.454071	1.242005
H135	H	-0.430643	-0.832411	0.000044
H136	H	0.069357	-0.332411	0.500044
H137	H	0.235731	-0.954016	0.258171
H138	H	0.735731	-0.454016	0.758171
Br139	Br	-0.148859	-0.711703	0.000046
Br140	Br	0.351141	-0.211703	0.500046
H141	H	-0.319944	-1.297860	0.000082
H142	H	0.180056	-0.797860	0.500082
Br143	Br	-0.148487	-1.263479	0.000094
Br144	Br	0.351513	-0.763479	0.500094
Br145	Br	-0.652259	-1.253893	0.000105
Br146	Br	-0.152259	-0.753893	0.500105
H147	H	0.357443	-0.620472	0.000051
H148	H	0.857443	-0.120472	0.500051
Br149	Br	-0.602086	-0.866774	0.000041
Br150	Br	-0.102086	-0.366774	0.500041
Br151	Br	0.330149	-0.859573	0.381643
Br152	Br	0.830149	-0.359573	0.881643
Br153	Br	-0.521849	-1.338693	0.000115
Br154	Br	-0.021849	-0.838693	0.500115
Br155	Br	-0.064065	-0.842104	0.000056
Br156	Br	0.435935	-0.342104	0.500056
Br157	Br	-0.080723	-1.270685	0.381588
Br158	Br	0.419277	-0.770685	0.881588
H159	H	-0.108005	-0.509774	0.000096
H160	H	0.391995	-0.009774	0.500096
H161	H	0.013702	-1.176240	0.741963
H162	H	0.513702	-0.676240	1.241963
H163	H	-0.028572	-0.358072	0.000080
H164	H	0.471428	0.141928	0.500080
H165	H	0.269379	-0.319459	0.000068
H166	H	0.769379	0.180541	0.500068
H167	H	0.277998	-0.772178	0.000051
H168	H	0.777998	-0.272178	0.500051
H169	H	-0.047489	-1.237457	0.591203
H170	H	0.452511	-0.737457	1.091203
H171	H	0.013696	-1.176196	0.258136
H172	H	0.513696	-0.676196	0.758136
