data_functionalizedCrystal
_audit_creation_method	'MofGen! by Chris Wilmer'
_symmetry_space_group_name_H-M	'P1'
_symmetry_Int_Tables_number	1
_symmetry_cell_setting	triclinic
loop_
_symmetry_equiv_pos_as_xyz
  x,y,z
_cell_length_a	13.033293
_cell_length_b	18.101397
_cell_length_c	18.101389
_cell_angle_alpha	89.975007
_cell_angle_beta	82.792788
_cell_angle_gamma	97.189579
loop_
_atom_site_label
_atom_site_type_symbol
_atom_site_fract_x
_atom_site_fract_y
_atom_site_fract_z
Zn1	Zn	1.597709	-0.151247	-0.562770
Zn2	Zn	1.597601	-0.275091	-0.438913
Zn3	Zn	1.422951	-0.166969	-0.423186
Zn4	Zn	1.422908	-0.290766	-0.546963
O5	O	1.510292	-0.221018	-0.492958
O6	O	1.743942	-0.154536	-0.559537
O7	O	1.574406	-0.260768	-0.333191
O8	O	1.446196	-0.061245	-0.441736
O9	O	1.743862	-0.245524	-0.468540
O10	O	1.574591	-0.049694	-0.544288
O11	O	1.446091	-0.181331	-0.321637
O12	O	1.276698	-0.196530	-0.426408
O13	O	1.446123	-0.272239	-0.652695
O14	O	1.276666	-0.287483	-0.517346
O15	O	1.574549	-0.169735	-0.664308
O16	O	1.574364	-0.380809	-0.453212
O17	O	1.446018	-0.392325	-0.532596
C18	C	1.238762	-0.245414	-0.468456
C19	C	1.122600	-0.255869	-0.457991
C20	C	1.070851	-0.215581	-0.498419
C21	C	0.950791	-0.226385	-0.487605
C22	C	1.510203	-0.413437	-0.492914
C23	C	1.510260	-0.495746	-0.492928
C24	C	1.510393	-0.794825	-0.493008
C25	C	1.590920	-0.756243	-0.442888
C26	C	1.591199	-0.670600	-0.443062
C27	C	1.510327	-0.646448	-0.492968
C28	C	1.540179	-0.674779	-0.573720
C29	C	1.540802	-0.760368	-0.573464
C30	C	1.399800	-0.773274	-0.463032
C31	C	1.400346	-0.687575	-0.461339
C32	C	1.510288	-0.562592	-0.492950
C33	C	1.510435	-0.878680	-0.493032
C34	C	1.782883	-0.196528	-0.517556
C35	C	1.899045	-0.186091	-0.528038
C36	C	1.510343	-0.220982	-0.686124
C37	C	1.510365	-0.220966	-0.768441
C38	C	1.510410	-0.027846	-0.493021
C39	C	1.510461	0.054473	-0.493048
C40	C	1.510404	-0.220905	-0.919153
C41	C	1.429615	-0.285385	-0.943201
C42	C	1.429321	-0.285210	-1.028792
C43	C	1.510443	-0.220846	-1.067539
C44	C	1.480947	-0.145403	-1.033801
C45	C	1.480338	-0.145821	-0.948101
C46	C	1.620902	-0.231155	-0.960682
C47	C	1.620332	-0.232895	-1.046281
C48	C	1.510466	-0.220808	-1.151400
C49	C	1.510378	-0.220938	-0.835291
C50	C	1.510301	-0.220996	-0.300548
C51	C	1.510482	-0.220785	-0.218251
H52	H	1.572524	-0.651311	-0.383498
H53	H	0.943618	-0.143593	-0.570656
Br54	Br	1.293920	-0.275556	-0.895102
Br55	Br	1.721223	-0.152683	-0.935953
H56	H	1.447801	-0.341848	-0.924241
H57	H	1.399579	-0.136003	-0.920844
Br58	Br	1.145141	-0.144753	-0.569451
Br59	Br	1.574183	-0.063885	-0.922011
H60	H	1.372642	-0.797370	-0.404649
Br61	Br	0.876505	-0.297205	-0.416559
Br62	Br	1.299797	-0.816048	-0.523670
Br63	Br	1.048310	-0.326686	-0.386949
Br64	Br	1.362820	-0.657171	-0.362209
Br65	Br	1.560179	-0.793406	-0.343352
Br66	Br	1.726719	-0.779815	-0.476936
H67	H	1.347455	-0.279176	-1.041900
Br68	Br	1.460006	-0.378958	-1.066586
H69	H	1.337121	-0.671877	-0.494370
H70	H	1.621641	-0.773022	-0.597698
Br71	Br	1.727740	-0.624080	-0.477437
Br72	Br	1.447278	-0.803334	-0.638709
H73	H	1.683728	-0.188569	-1.073396
H74	H	1.483320	-0.659536	-0.612496
H75	H	1.620112	-0.646088	-0.598159
Br76	Br	1.576033	-0.063826	-1.076304
Br77	Br	1.347840	-0.128384	-1.057548
H78	H	1.647812	-0.284733	-0.941504
H79	H	1.642578	-0.288370	-1.068596
