data_functionalizedCrystal
_audit_creation_method	'MofGen! by Chris Wilmer'
_symmetry_space_group_name_H-M	'P1'
_symmetry_Int_Tables_number	1
_symmetry_cell_setting	triclinic
loop_
_symmetry_equiv_pos_as_xyz
  x,y,z
_cell_length_a	10.723022
_cell_length_b	14.519731
_cell_length_c	9.198806
_cell_angle_alpha	89.995832
_cell_angle_beta	89.996352
_cell_angle_gamma	84.078040
loop_
_atom_site_label
_atom_site_type_symbol
_atom_site_fract_x
_atom_site_fract_y
_atom_site_fract_z
O1	O	1.655993	0.129339	-0.120887
O2	O	1.292726	0.141722	-0.120892
O3	O	1.483977	0.001342	-0.120876
O4	O	1.464742	0.269719	-0.120903
O5	O	1.483962	0.001342	0.120909
O6	O	1.292710	0.141721	0.120893
O7	O	1.655978	0.129339	0.120898
Cu8	Cu	1.474343	0.135530	0.142973
Cu9	Cu	1.474361	0.135531	-0.142966
O10	O	1.464726	0.269718	0.120882
C11	C	1.246227	0.140821	0.000000
C12	C	1.107697	0.138126	-0.000002
C13	C	1.059885	0.057174	0.000006
C14	C	0.916708	0.054386	0.000004
C15	C	1.483068	-0.033022	0.000017
C16	C	1.480367	-0.135416	0.000018
C17	C	1.478173	-0.218571	0.000014
C18	C	1.475431	-0.322894	0.000003
C19	C	1.473254	-0.406044	-0.000006
C20	C	1.470512	-0.510373	-0.000015
C21	C	1.702477	0.130240	0.000003
C22	C	1.841006	0.132935	-0.000005
C23	C	1.465635	0.304082	-0.000014
C24	C	1.468336	0.406476	-0.000024
N25	N	1.474339	0.135529	0.344087
N26	N	1.474374	0.135524	-0.344080
C27	C	1.554642	0.076328	0.416290
C28	C	1.554662	0.076325	0.583703
H29	H	1.124949	-0.010068	0.000006
H30	H	1.405598	0.186208	0.406209
O31	O	1.392471	0.196125	0.581931
C32	C	1.413267	0.287508	0.619037
H33	H	1.513171	0.288451	0.660951
H34	H	1.399261	0.333655	0.518874
H35	H	1.344186	0.314314	0.707287
O36	O	1.636856	0.015944	0.657700
C37	C	1.760532	0.031468	0.620555
H38	H	1.761625	0.105263	0.578615
H39	H	1.823039	0.021210	0.720704
H40	H	1.796940	-0.019514	0.532313
H41	H	0.875537	-0.014924	-0.000026
H42	H	0.882168	0.202249	-0.000003
O43	O	1.030214	0.218412	0.000181
C44	C	1.052962	0.270103	0.125418
H45	H	1.151663	0.248173	0.167173
H46	H	1.043855	0.346964	0.097246
H47	H	0.981765	0.256974	0.213101
O48	O	1.636503	0.015858	0.342000
C49	C	1.569276	-0.041300	0.253960
H50	H	1.471782	-0.005057	0.231357
H51	H	1.621186	-0.055517	0.146843
H52	H	1.560498	-0.109544	0.312485
