data_functionalizedCrystal
_audit_creation_method	'MofGen! by Chris Wilmer'
_symmetry_space_group_name_H-M	'P1'
_symmetry_Int_Tables_number	1
_symmetry_cell_setting	triclinic
loop_
_symmetry_equiv_pos_as_xyz
  x,y,z
_cell_length_a	14.519731
_cell_length_b	14.519709
_cell_length_c	7.681481
_cell_angle_alpha	95.753692
_cell_angle_beta	84.265469
_cell_angle_gamma	83.684499
loop_
_atom_site_label
_atom_site_type_symbol
_atom_site_fract_x
_atom_site_fract_y
_atom_site_fract_z
O1	O	1.215150	0.129701	0.146437
O2	O	0.946675	0.143918	0.146441
O3	O	1.088031	0.002571	0.146423
O4	O	1.073793	0.271048	0.146455
O5	O	1.105430	-0.014866	-0.146437
O6	O	0.964074	0.126481	-0.146419
O7	O	1.232548	0.112265	-0.146422
Zn8	Zn	1.101073	0.116604	-0.192919
Zn9	Zn	1.078150	0.139578	0.192937
O10	O	1.091192	0.253612	-0.146405
C11	C	0.921015	0.134533	0.000011
C12	C	0.818635	0.132537	0.000012
C13	C	1.096067	-0.040508	-0.000007
C14	C	1.094079	-0.142889	-0.000008
C15	C	0.735490	0.130916	0.000019
C16	C	0.631181	0.128889	0.000019
C17	C	0.548042	0.127281	0.000019
C18	C	0.443727	0.125254	0.000022
C19	C	1.086757	-0.517783	0.000038
C20	C	1.088790	-0.413475	0.000024
C21	C	1.090418	-0.330339	0.000013
C22	C	1.092452	-0.226025	0.000003
C23	C	1.258208	0.121649	0.000011
C24	C	1.360588	0.123646	0.000022
C25	C	1.083156	0.296690	0.000029
C26	C	1.085143	0.399072	0.000042
N27	N	1.116725	0.100925	-0.456255
N28	N	1.062506	0.155250	0.456273
H29	H	1.172081	0.045477	-0.531468
H30	H	1.007160	0.210701	-0.468523
