data_functionalizedCrystal
_audit_creation_method	'MofGen! by Chris Wilmer'
_symmetry_space_group_name_H-M	'P1'
_symmetry_Int_Tables_number	1
_symmetry_cell_setting	triclinic
loop_
_symmetry_equiv_pos_as_xyz
  x,y,z
_cell_length_a	19.805407
_cell_length_b	19.805406
_cell_length_c	19.805399
_cell_angle_alpha	89.985648
_cell_angle_beta	90.021064
_cell_angle_gamma	90.001047
loop_
_atom_site_label
_atom_site_type_symbol
_atom_site_fract_x
_atom_site_fract_y
_atom_site_fract_z
Zn1	Zn	-1.034860	-0.269497	-0.382809
Zn2	Zn	-1.034827	-0.382685	-0.269647
Zn3	Zn	-0.921675	-0.269514	-0.269630
Zn4	Zn	-0.921690	-0.382647	-0.382791
O5	O	-0.978263	-0.326086	-0.326219
O6	O	-1.129572	-0.284521	-0.367812
O7	O	-1.019797	-0.367696	-0.174928
O8	O	-0.936696	-0.174795	-0.284645
O9	O	-1.129548	-0.367680	-0.284672
O10	O	-1.019853	-0.174783	-0.367796
O11	O	-0.936664	-0.284549	-0.174916
O12	O	-0.826960	-0.284512	-0.284627
O13	O	-0.936723	-0.367615	-0.477510
O14	O	-0.826972	-0.367631	-0.367765
O15	O	-1.019868	-0.284484	-0.477523
O16	O	-1.019812	-0.477397	-0.284655
O17	O	-0.936691	-0.477369	-0.367781
C18	C	-0.802407	-0.326070	-0.326193
C19	C	-0.727175	-0.326079	-0.326197
C20	C	-0.691855	-0.369424	-0.369417
C21	C	-0.621166	-0.369424	-0.369424
C22	C	-0.585800	-0.326082	-0.326209
C23	C	-0.621125	-0.282733	-0.282988
C24	C	-0.691812	-0.282730	-0.282984
C25	C	-0.336052	-0.282743	-0.283003
C26	C	-0.265359	-0.282750	-0.283009
C27	C	-0.265406	-0.369437	-0.369443
C28	C	-0.336093	-0.369434	-0.369439
C29	C	-0.371412	-0.326082	-0.326221
C30	C	-0.448061	-0.326082	-0.326214
C31	C	-0.509152	-0.326085	-0.326212
C32	C	-0.978268	-0.501942	-0.326232
C33	C	-0.978332	-0.577174	-0.326261
C34	C	-0.978301	-0.326043	-0.502762
C35	C	-0.978317	-0.326025	-0.577994
C36	C	-0.154806	-0.326098	-0.326240
C37	C	-0.230038	-0.326092	-0.326232
C38	C	-0.978277	-0.149543	-0.326221
C39	C	-0.978282	-0.074311	-0.326221
C40	C	-0.934992	-0.038972	-0.282931
C41	C	-0.934997	0.031716	-0.282938
C42	C	-0.978295	0.067064	-0.326233
C43	C	-1.021587	0.031721	-0.369529
C44	C	-1.021578	-0.038967	-0.369524
C45	C	-1.021620	0.316794	-0.369549
C46	C	-1.021626	0.387486	-0.369549
C47	C	-0.935038	0.387477	-0.282962
C48	C	-0.935030	0.316789	-0.282958
C49	C	-0.978319	0.281452	-0.326256
C50	C	-0.978313	0.204803	-0.326248
C51	C	-0.978305	0.143711	-0.326238
C52	C	-1.021612	-0.282737	-0.613346
C53	C	-1.021619	-0.282717	-0.684035
C54	C	-0.978334	-0.325990	-0.719370
C55	C	-0.935035	-0.369280	-0.684012
C56	C	-0.935025	-0.369296	-0.613325
C57	C	-0.935073	-0.369217	-0.969086
C58	C	-0.935087	-0.369200	-1.039778
C59	C	-1.021667	-0.282638	-1.039795
C60	C	-1.021657	-0.282654	-0.969108
C61	C	-0.978355	-0.325941	-0.933757
C62	C	-0.978347	-0.325961	-0.857109
C63	C	-0.978345	-0.325974	-0.796017
C64	C	-0.978264	-0.326080	-0.150363
C65	C	-0.978379	-0.325907	-0.075132
H66	H	-0.364800	-0.247448	-0.247807
H67	H	-1.056838	0.060505	-0.404784
H68	H	-0.236640	-0.404733	-0.404636
O69	O	-0.586804	-0.240532	-0.241080
C70	C	-0.604092	-0.173093	-0.255968
H71	H	-0.623544	-0.169746	-0.310045
H72	H	-0.645109	-0.155351	-0.219707
C73	C	-0.517404	-0.132021	-0.181743
C74	C	-0.541289	-0.127910	-0.248164
H75	H	-0.478665	-0.104150	-0.176927
H76	H	-0.505757	-0.177456	-0.171711
H77	H	-0.551590	-0.117238	-0.151534
H78	H	-0.507106	-0.142701	-0.278371
H79	H	-0.552928	-0.082477	-0.258201
H80	H	-0.899824	-0.404474	-0.940312
H81	H	-0.720569	-0.247431	-0.247794
O82	O	-1.063645	-0.240571	-0.718296
C83	C	-1.048846	-0.173115	-0.701025
H84	H	-1.022816	-0.171728	-0.649697
H85	H	-1.014058	-0.150299	-0.740801
C86	C	-1.146805	-0.133830	-0.760806
C87	C	-1.114840	-0.132126	-0.697762
H88	H	-1.187512	-0.108544	-0.758796
H89	H	-1.156774	-0.179276	-0.772445
H90	H	-1.117808	-0.114817	-0.793946
H91	H	-1.143833	-0.151146	-0.664625
H92	H	-1.104877	-0.086682	-0.686118
H93	H	-1.056923	-0.247389	-1.068587
O94	O	-1.063590	0.421899	-0.411646
C95	C	-1.025060	0.462790	-0.455361
H96	H	-0.973765	0.473378	-0.431475
H97	H	-1.017626	0.435562	-0.505519
C98	C	-1.125308	0.516933	-0.496963
C99	C	-1.062309	0.529941	-0.467623
H100	H	-1.148285	0.558353	-0.504529
H101	H	-1.151267	0.489382	-0.467513
H102	H	-1.119104	0.494241	-0.538758
H103	H	-1.068514	0.552624	-0.425825
H104	H	-1.036352	0.557497	-0.497066
H105	H	-0.899837	-0.404439	-1.068546
H106	H	-0.899736	-0.067748	-0.247672
O107	O	-1.063725	-0.240554	-0.934889
C108	C	-1.101952	-0.202353	-0.981251
H109	H	-1.074237	-0.199996	-1.031634
H110	H	-1.153358	-0.227140	-0.988778
C111	C	-1.145746	-0.133217	-0.891785
C112	C	-1.111703	-0.130318	-0.953665
H113	H	-1.151764	-0.088784	-0.874768
H114	H	-1.119994	-0.158956	-0.860550
H115	H	-1.188580	-0.153877	-0.898066
H116	H	-1.068867	-0.109666	-0.947382
H117	H	-1.137448	-0.104574	-0.984899
O118	O	-0.892929	0.065939	-0.240816
C119	C	-0.854705	0.019582	-0.202608
H120	H	-0.882423	-0.030810	-0.200272
H121	H	-0.803299	0.012077	-0.227377
C122	C	-0.810906	0.109048	-0.133438
C123	C	-0.844953	0.047157	-0.130564
H124	H	-0.804887	0.126058	-0.088998
H125	H	-0.836656	0.140280	-0.159180
H126	H	-0.768072	0.102785	-0.154081
H127	H	-0.887789	0.053422	-0.109928
H128	H	-0.819210	0.015926	-0.104816
H129	H	-1.056876	0.288030	-0.404797
H130	H	-0.364885	-0.404729	-0.404627
H131	H	-1.056824	-0.067739	-0.404782
H132	H	-0.236566	-0.247452	-0.247817
H133	H	-0.899774	0.288012	-0.247700
O134	O	-1.063564	-0.240665	-0.578952
C135	C	-1.025024	-0.196943	-0.538070
H136	H	-0.973728	-0.220815	-0.527466
H137	H	-1.017590	-0.146779	-0.565315
C138	C	-1.125258	-0.155379	-0.483960
C139	C	-1.062259	-0.184702	-0.470930
H140	H	-1.148227	-0.147825	-0.442546
H141	H	-1.151225	-0.184833	-0.511504
H142	H	-1.119055	-0.113579	-0.506666
H143	H	-1.068463	-0.226505	-0.448233
H144	H	-1.036294	-0.155254	-0.443381
O145	O	-0.893049	-0.411293	-0.718439
C146	C	-0.902330	-0.401987	-0.788411
H147	H	-0.954568	-0.379824	-0.798078
H148	H	-0.862189	-0.365933	-0.808463
C149	C	-0.831964	-0.497682	-0.812825
C150	C	-0.896127	-0.470467	-0.824699
H151	H	-0.828135	-0.539923	-0.835210
H152	H	-0.825709	-0.503951	-0.765684
H153	H	-0.798521	-0.467631	-0.829535
H154	H	-0.929568	-0.500514	-0.807981
H155	H	-0.902387	-0.464205	-0.871838
O156	O	-0.892955	-0.411419	-0.579086
C157	C	-0.854745	-0.449602	-0.625430
H158	H	-0.882472	-0.451930	-0.675826
H159	H	-0.803338	-0.424818	-0.632931
C160	C	-0.810940	-0.518790	-0.535943
C161	C	-0.844997	-0.521653	-0.597840
H162	H	-0.804923	-0.563233	-0.518924
H163	H	-0.836680	-0.493064	-0.504720
H164	H	-0.768104	-0.498133	-0.542203
H165	H	-0.887835	-0.542301	-0.591578
H166	H	-0.819263	-0.547384	-0.629062
O167	O	-0.893002	0.421909	-0.240970
C168	C	-0.902300	0.491880	-0.250244
H169	H	-0.924476	0.501543	-0.302484
H170	H	-0.938338	0.511929	-0.210105
C171	C	-0.806579	0.516306	-0.179868
C172	C	-0.833811	0.528175	-0.244032
H173	H	-0.764333	0.538696	-0.176033
H174	H	-0.800316	0.469166	-0.173618
H175	H	-0.836617	0.533013	-0.146426
H176	H	-0.803777	0.511460	-0.277473
H177	H	-0.840068	0.575314	-0.250288
H178	H	-0.592412	-0.404720	-0.404617
H179	H	-0.720645	-0.404720	-0.404605
