data_functionalizedCrystal
_audit_creation_method	'MofGen! by Chris Wilmer'
_symmetry_space_group_name_H-M	'P1'
_symmetry_Int_Tables_number	1
_symmetry_cell_setting	triclinic
loop_
_symmetry_equiv_pos_as_xyz
  x,y,z
_cell_length_a	8.634740
_cell_length_b	7.088929
_cell_length_c	16.109301
_cell_angle_alpha	96.223316
_cell_angle_beta	92.015894
_cell_angle_gamma	82.825047
loop_
_atom_site_label
_atom_site_type_symbol
_atom_site_fract_x
_atom_site_fract_y
_atom_site_fract_z
O1	O	2.030090	0.159003	0.278337
O2	O	1.581149	0.159006	0.255608
O3	O	1.817954	0.158985	0.146930
O4	O	1.793285	0.159024	0.387015
O5	O	1.849601	-0.158993	0.132368
O6	O	1.612796	-0.158972	0.241046
O7	O	2.061736	-0.158975	0.263775
Cu8	Cu	1.840156	-0.188008	0.251081
Cu9	Cu	1.802730	0.188038	0.268302
O10	O	1.824931	-0.158954	0.372452
C11	C	1.539525	0.000017	0.243178
C12	C	1.368349	0.000017	0.227825
N13	N	1.866490	-0.452498	0.238968
C14	C	2.103360	0.000018	0.276205
C15	C	2.274535	0.000030	0.291558
C16	C	1.832778	-0.000005	0.108594
C17	C	1.829783	-0.000008	0.016058
N18	N	1.776407	0.452529	0.280409
C19	C	1.963329	0.000022	-0.195495
C20	C	1.960501	0.000037	-0.282442
C21	C	1.679543	0.000032	-0.285115
C22	C	1.682371	0.000030	-0.198170
C23	C	1.824270	0.000015	-0.153362
C24	C	1.818613	0.000033	-0.327254
C25	C	1.815546	0.000050	-0.421526
C26	C	1.827338	0.000001	-0.059085
C27	C	1.810106	0.000040	0.410789
C28	C	1.813100	0.000055	0.503325
H29	H	1.325179	0.000028	0.357872
H30	H	1.959868	-0.534162	0.196029
H31	H	1.569125	0.000030	-0.163864
H32	H	1.317708	0.000056	0.161518
O33	O	2.116374	0.000038	-0.147170
H34	H	2.137307	-0.129571	-0.113438
O35	O	1.652735	-0.439315	0.337292
H36	H	1.590097	-0.542385	0.366118
H37	H	1.564014	0.000040	-0.321608
O38	O	2.110487	0.000020	-0.327890
H39	H	2.209628	-0.000009	-0.282123
