data_functionalizedCrystal
_audit_creation_method	'MofGen! by Chris Wilmer'
_symmetry_space_group_name_H-M	'P1'
_symmetry_Int_Tables_number	1
_symmetry_cell_setting	triclinic
loop_
_symmetry_equiv_pos_as_xyz
  x,y,z
_cell_length_a	16.959454
_cell_length_b	16.959455
_cell_length_c	17.077396
_cell_angle_alpha	89.981150
_cell_angle_beta	89.975265
_cell_angle_gamma	90.019503
loop_
_atom_site_label
_atom_site_type_symbol
_atom_site_fract_x
_atom_site_fract_y
_atom_site_fract_z
Zn1	Zn	-0.314694	1.208416	-0.443850
Zn2	Zn	0.185306	1.708416	0.056150
Zn3	Zn	-0.446881	1.208329	-0.312592
Zn4	Zn	0.053119	1.708329	0.187408
Zn5	Zn	-0.314720	1.076235	-0.312599
Zn6	Zn	0.185280	1.576235	0.187401
Zn7	Zn	-0.446833	1.076209	-0.443817
Zn8	Zn	0.053167	1.576209	0.056183
O9	O	-0.380782	1.142297	-0.378214
O10	O	0.119218	1.642297	0.121786
O11	O	-0.332238	1.319015	-0.426449
O12	O	0.167762	1.819015	0.073551
O13	O	-0.429381	1.190781	-0.202746
O14	O	0.070619	1.690781	0.297254
O15	O	-0.204105	1.093816	-0.330026
O16	O	0.295895	1.593816	0.169974
O17	O	-0.429356	1.318951	-0.330014
O18	O	0.070644	1.818951	0.169986
O19	O	-0.204086	1.190929	-0.426455
O20	O	0.295914	1.690929	0.073545
O21	O	-0.332282	1.093732	-0.202751
O22	O	0.167718	1.593732	0.297249
O23	O	-0.332235	0.965621	-0.329995
O24	O	0.167765	1.465621	0.170005
O25	O	-0.429273	1.093772	-0.553668
O26	O	0.070727	1.593772	-0.053668
O27	O	-0.429298	0.965602	-0.426400
O28	O	0.070702	1.465602	0.073600
O29	O	-0.332191	1.190904	-0.553692
O30	O	0.167809	1.690904	-0.053692
O31	O	-0.557486	1.190756	-0.329983
O32	O	-0.057486	1.690756	0.170017
O33	O	-0.557450	1.093688	-0.426393
O34	O	-0.057450	1.593688	0.073607
C35	C	-0.380765	0.936931	-0.378195
C36	C	0.119235	1.436931	0.121805
C37	C	-0.380776	0.849075	-0.378205
C38	C	0.119224	1.349075	0.121795
C39	C	-0.431269	0.807765	-0.327925
C40	C	0.068731	1.307765	0.172075
C41	C	-0.330290	0.807830	-0.428492
C42	C	0.169710	1.307830	0.071508
C43	C	-0.330296	0.725284	-0.428501
C44	C	0.169704	1.225284	0.071499
C45	C	-0.380789	0.683975	-0.378221
C46	C	0.119211	1.183975	0.121779
C47	C	-0.431275	0.725212	-0.327931
C48	C	0.068725	1.225212	0.172069
C49	C	-0.279805	0.684041	-0.478784
C50	C	0.220195	1.184041	0.021216
C51	C	-0.279808	0.601490	-0.478795
C52	C	0.220192	1.101490	0.021205
C53	C	-0.330306	0.560180	-0.428518
C54	C	0.169694	1.060180	0.071482
C55	C	-0.380795	0.601422	-0.378227
C56	C	0.119205	1.101422	0.121773
C57	C	-0.431288	0.560112	-0.327947
C58	C	0.068712	1.060112	0.172053
C59	C	-0.481781	0.601353	-0.277659
C60	C	0.018219	1.101353	0.222341
C61	C	-0.481773	0.683901	-0.277654
C62	C	0.018227	1.183901	0.222346
C63	C	-0.330314	0.477631	-0.428523
C64	C	0.169686	0.977631	0.071477
C65	C	-0.431294	0.477559	-0.327953
C66	C	0.068706	0.977559	0.172047
C67	C	-0.586148	1.142231	-0.378201
C68	C	-0.086148	1.642231	0.121799
C69	C	-0.674005	1.142275	-0.378222
C70	C	-0.174005	1.642275	0.121778
C71	C	-1.045492	1.091828	-0.428410
C72	C	-0.545492	1.591828	0.071590
C73	C	-1.045469	1.192987	-0.328099
C74	C	-0.545469	1.692987	0.171901
C75	C	-0.962923	1.192960	-0.328092
C76	C	-0.462923	1.692960	0.171908
C77	C	-0.921658	1.142364	-0.378243
C78	C	-0.421658	1.642364	0.121757
C79	C	-0.962938	1.091797	-0.428403
C80	C	-0.462938	1.591797	0.071597
C81	C	-0.921636	1.243521	-0.277928
C82	C	-0.421636	1.743521	0.222072
C83	C	-0.839085	1.243495	-0.277918
C84	C	-0.339085	1.743495	0.222082
C85	C	-0.797819	1.192903	-0.328074
C86	C	-0.297819	1.692903	0.171926
C87	C	-0.839104	1.142334	-0.378236
C88	C	-0.339104	1.642334	0.121764
C89	C	-0.797839	1.091738	-0.428388
C90	C	-0.297839	1.591738	0.071612
C91	C	-0.839123	1.041172	-0.478554
C92	C	-0.339123	1.541172	0.021446
C93	C	-0.921671	1.041205	-0.478559
C94	C	-0.421671	1.541205	0.021441
C95	C	-0.715270	1.192871	-0.328070
C96	C	-0.215270	1.692871	0.171930
C97	C	-0.715285	1.091707	-0.428381
C98	C	-0.215285	1.591707	0.071619
C99	C	-0.174614	1.142385	-0.378245
C100	C	0.325386	1.642385	0.121755
C101	C	-0.086757	1.142423	-0.378258
C102	C	0.413243	1.642423	0.121742
C103	C	-0.380724	1.142345	-0.582959
C104	C	0.119276	1.642345	-0.082959
C105	C	-0.380699	1.142366	-0.670209
C106	C	0.119301	1.642366	-0.170209
C107	C	-0.380800	1.348466	-0.378234
C108	C	0.119200	1.848466	0.121766
C109	C	-0.380807	1.436322	-0.378243
C110	C	0.119193	1.936322	0.121757
C111	C	-0.330144	1.192944	-0.711212
C112	C	0.169856	1.692944	-0.211212
C113	C	-0.330118	1.192953	-0.793193
C114	C	0.169882	1.692953	-0.293193
C115	C	-0.380651	1.142388	-0.834168
C116	C	0.119349	1.642388	-0.334168
C117	C	-0.431208	1.091804	-0.793159
C118	C	0.068792	1.591804	-0.293159
C119	C	-0.431229	1.091791	-0.711180
C120	C	0.068771	1.591791	-0.211180
C121	C	-0.431160	1.091836	-0.964029
C122	C	0.068840	1.591836	-0.464029
C123	C	-0.431140	1.091850	-1.046013
C124	C	0.068860	1.591850	-0.546013
C125	C	-0.330048	1.192998	-1.046042
C126	C	0.169952	1.692998	-0.546042
C127	C	-0.330070	1.192985	-0.964063
C128	C	0.169930	1.692985	-0.464063
C129	C	-0.380628	1.142402	-0.923059
C130	C	0.119372	1.642402	-0.423059
C131	C	-0.380783	1.142295	-0.174267
C132	C	0.119217	1.642295	0.325733
C133	C	-0.380585	1.142428	-0.087017
C134	C	0.119415	1.642428	0.412983
H135	H	-0.289177	0.841469	-0.469424
H136	H	0.210823	1.341469	0.030576
H137	H	-0.289197	0.444057	-0.469461
H138	H	0.210803	0.944057	0.030539
O139	O	-0.225355	0.557010	-0.533034
O140	O	0.274645	1.057010	-0.033034
H141	H	-0.190248	0.599605	-0.567998
H142	H	0.309752	1.099605	-0.067998
H143	H	-1.079072	1.234175	-0.287263
H144	H	-0.579072	1.734175	0.212737
H145	H	-0.472388	1.050597	-0.677795
H146	H	0.027612	1.550597	-0.177795
H147	H	-0.955292	1.000036	-0.519401
H148	H	-0.455292	1.500036	-0.019401
H149	H	-0.681660	1.234037	-0.287221
H150	H	-0.181660	1.734037	0.212779
H151	H	-0.472415	0.443931	-0.287011
H152	H	0.027585	0.943931	0.212989
H153	H	-0.681692	1.050509	-0.469224
H154	H	-0.181692	1.550509	0.030776
O155	O	-0.794617	0.986596	-0.532645
O156	O	-0.294617	1.486596	-0.032645
H157	H	-0.756961	1.021935	-0.572611
H158	H	-0.256961	1.521935	-0.072611
O159	O	-0.536239	0.556796	-0.223426
O160	O	-0.036239	1.056796	0.276574
H161	H	-0.527757	0.492468	-0.231883
H162	H	-0.027757	0.992468	0.268117
H163	H	-1.079109	1.050660	-0.469256
H164	H	-0.579109	1.550660	0.030744
O165	O	-0.225342	0.728592	-0.533009
O166	O	0.274658	1.228592	-0.033009
H167	H	-0.233828	0.792921	-0.524561
H168	H	0.266172	1.292921	-0.024561
O169	O	-0.536220	0.728379	-0.223408
O170	O	-0.036220	1.228379	0.276592
H171	H	-0.527722	0.792719	-0.231843
H172	H	-0.027722	1.292719	0.268157
H173	H	-0.472350	1.050630	-0.826527
H174	H	0.027650	1.550630	-0.326527
O175	O	-0.966139	1.298118	-0.223865
O176	O	-0.466139	1.798118	0.276135
H177	H	-1.030476	1.289661	-0.232317
H178	H	-0.530476	1.789661	0.267683
O179	O	-0.275509	1.247548	-1.090265
O180	O	0.224491	1.747548	-0.590265
H181	H	-0.310879	1.287747	-1.127625
H182	H	0.189121	1.787747	-0.627625
O183	O	-0.794558	1.298039	-0.223823
O184	O	-0.294558	1.798039	0.276177
H185	H	-0.837122	1.333230	-0.188957
H186	H	-0.337122	1.833230	0.311043
O187	O	-0.485634	1.037306	-1.090213
O188	O	0.014366	1.537306	-0.590213
H189	H	-0.520784	1.002120	-1.047930
H190	H	-0.020784	1.502120	-0.547930
H191	H	-0.288996	1.234123	-0.677856
H192	H	0.211004	1.734123	-0.177856
H193	H	-0.472318	1.050633	-0.930646
H194	H	0.027682	1.550633	-0.430646
H195	H	-0.288926	1.234165	-0.930703
H196	H	0.211074	1.734165	-0.430703
O197	O	-0.485724	0.852237	-0.273681
O198	O	0.014276	1.352237	0.226319
H199	H	-0.477237	0.916579	-0.282117
H200	H	0.022763	1.416579	0.217883
O201	O	-0.275596	1.247510	-0.837422
O202	O	0.224404	1.747510	-0.337422
H203	H	-0.240470	1.282677	-0.795156
H204	H	0.259530	1.782677	-0.295156
