data_functionalizedCrystal
_audit_creation_method	'MofGen! by Chris Wilmer'
_symmetry_space_group_name_H-M	'P1'
_symmetry_Int_Tables_number	1
_symmetry_cell_setting	triclinic
loop_
_symmetry_equiv_pos_as_xyz
  x,y,z
_cell_length_a	14.395555
_cell_length_b	14.809374
_cell_length_c	14.809374
_cell_angle_alpha	60.797835
_cell_angle_beta	90.002017
_cell_angle_gamma	67.425796
loop_
_atom_site_label
_atom_site_type_symbol
_atom_site_fract_x
_atom_site_fract_y
_atom_site_fract_z
Zr1	Zr	1.026088	0.955167	-0.203622
O2	O	0.912293	1.113092	-0.350786
O3	O	1.044862	0.777400	-0.145544
O4	O	1.082861	0.926546	-0.332082
O5	O	0.862646	0.993441	-0.031851
O6	O	1.235734	0.926541	-0.332074
O7	O	0.874294	0.963945	-0.164248
O8	O	1.167760	0.659746	0.001608
O9	O	0.930619	1.260237	-0.365533
O10	O	1.186420	0.857863	-0.136431
O11	O	1.063640	0.879880	-0.037630
O12	O	1.108379	1.055480	-0.257255
O13	O	0.985598	1.077497	-0.158454
Zr14	Zr	1.251324	1.002202	0.007549
Zr15	Zr	1.269902	0.955159	-0.203609
Zr16	Zr	1.007510	1.002210	0.007537
Zr17	Zr	1.055316	1.189847	-0.227141
Zr18	Zr	1.222097	0.767522	0.031069
O19	O	1.232551	1.179969	-0.050528
O20	O	1.258966	1.113080	-0.350769
O21	O	0.885878	1.179981	-0.050546
O22	O	1.365119	0.844277	0.154714
O23	O	1.391534	0.777388	-0.145526
O24	O	1.018447	0.844289	0.154697
O25	O	1.414766	0.963927	-0.164221
O26	O	1.194552	1.030823	0.136009
O27	O	1.041679	1.030828	0.136002
O28	O	1.403118	0.993424	-0.031824
O29	O	1.124419	1.260231	-0.365524
O30	O	1.152993	0.697138	0.169451
O31	O	1.346793	0.697132	0.169461
O32	O	1.361560	0.659739	0.001618
O33	O	0.915853	1.297630	-0.197690
O34	O	1.109652	1.297623	-0.197681
O35	O	1.169034	0.901889	0.061182
O36	O	1.291814	0.879872	-0.037619
O37	O	1.213773	1.077489	-0.158442
O38	O	1.090993	1.099506	-0.059641
C39	C	1.102147	0.685136	-0.068617
C40	C	1.089738	0.585508	-0.058632
C41	C	1.145114	0.530169	-0.103192
C42	C	1.132291	0.427199	-0.092874
C43	C	0.833732	0.978695	-0.098051
C44	C	0.730226	0.978698	-0.098057
C45	C	0.627085	1.086449	-0.163926
C46	C	0.592229	1.017888	-0.196966
C47	C	0.580660	1.047253	-0.065024
C48	C	0.696738	0.910124	-0.131150
C49	C	0.685163	0.939518	0.000841
C50	C	0.650367	0.870874	-0.032166
C51	C	1.443681	0.978674	-0.098021
C52	C	1.547186	0.978671	-0.098015
C53	C	1.161944	0.919841	-0.362163
C54	C	1.169831	0.899870	-0.451806
C55	C	1.175266	1.272233	-0.127456
C56	C	1.187674	1.371861	-0.137440
C57	C	1.134633	0.988998	-0.551708
C58	C	1.142784	0.968359	-0.644359
C59	C	1.115468	1.037528	0.166091
C60	C	1.107582	1.057499	0.255734
C61	C	1.407121	0.685126	-0.068601
C62	C	1.498218	0.585495	-0.058611
C63	C	1.078909	0.743979	0.195511
C64	C	1.058614	0.664323	0.295138
C65	C	1.383883	0.743969	0.195526
C66	C	1.467094	0.664309	0.295158
C67	C	0.893529	1.213400	-0.391598
C68	C	0.810319	1.293060	-0.491231
C69	C	0.870291	1.272243	-0.127471
C70	C	0.779194	1.371874	-0.137461
C71	C	1.198504	1.213390	-0.391583
C72	C	1.218799	1.293046	-0.491210
C73	C	1.485985	0.527216	-0.105508
C74	C	1.571575	0.433611	-0.096142
C75	C	1.669396	0.398280	-0.039873
C76	C	1.681628	0.456568	0.007024
C77	C	1.596041	0.550177	-0.002348
C78	C	1.104097	0.638405	0.393512
C79	C	1.085025	0.563574	0.487129
C80	C	1.020474	0.514655	0.482370
C81	C	0.974986	0.540579	0.383986
C82	C	0.994053	0.615416	0.290370
C83	C	1.570271	0.615407	0.290374
C84	C	1.648468	0.540569	0.383980
C85	C	1.623485	0.514628	0.482370
C86	C	1.520298	0.563538	0.487151
C87	C	1.442104	0.638381	0.393546
C88	C	0.707143	1.341973	-0.486447
C89	C	0.628950	1.416840	-0.580056
C90	C	0.653933	1.442786	-0.678446
C91	C	0.757119	1.393870	-0.683228
C92	C	0.835311	1.319011	-0.589621
C93	C	0.791429	1.430160	-0.090574
C94	C	0.705845	1.523787	-0.099966
C95	C	0.608024	1.559120	-0.156238
C96	C	0.595791	1.500828	-0.203131
C97	C	0.681376	1.407209	-0.193745
C98	C	1.283354	1.341943	-0.486417
C99	C	1.302443	1.416778	-0.580018
C100	C	1.256970	1.442722	-0.678411
C101	C	1.192411	1.393817	-0.683202
C102	C	1.173329	1.318977	-0.589601
H103	H	1.032839	0.556651	-0.012840
C104	C	1.142439	1.422322	-0.791441
N105	N	1.104812	1.443782	-0.872969
H106	H	1.120759	1.279173	-0.593519
H107	H	1.272516	1.503664	-0.754619
H108	H	0.538344	1.635352	-0.163872
C109	C	0.615185	1.209512	-0.239272
N110	N	0.606227	1.302199	-0.296025
H111	H	1.202021	0.559018	-0.148977
C112	C	0.662550	0.747678	0.043099
N113	N	0.671721	0.654889	0.099783
H114	H	1.606015	0.597618	0.035848
C115	C	1.055412	0.388227	-0.031010
N116	N	0.997507	0.358872	0.015583
H117	H	1.156658	0.678229	0.397406
C118	C	0.944024	0.643901	0.182163
N119	N	0.906339	0.665350	0.100663
C120	C	0.537739	1.062638	-0.309921
N121	N	0.496684	1.096358	-0.394997
H122	H	1.122074	0.542477	0.567228
H123	H	0.871071	1.401402	-0.044745
H124	H	1.320387	1.320833	-0.406309
H125	H	1.732481	0.500752	0.380067
C126	C	0.903987	0.486752	0.378770
N127	N	0.850516	0.446200	0.374845
C128	C	1.085782	1.112729	-0.574596
N129	N	1.048988	1.205926	-0.591838
H130	H	0.686780	1.320852	-0.406341
C131	C	0.999521	0.432323	0.585361
N132	N	0.983748	0.370305	0.662939
H133	H	1.590632	0.636516	0.210269
H134	H	1.761286	0.427788	0.052837
H135	H	0.746708	0.852177	-0.159166
C136	C	0.719322	1.587883	-0.048366
N137	N	0.729476	1.636156	-0.009497
H138	H	0.530558	1.105239	-0.037104
C139	C	1.709512	0.432287	0.585330
N140	N	1.774312	0.370262	0.662877
H141	H	1.244584	0.400706	-0.183228
H142	H	0.516135	1.529611	-0.248947
H143	H	1.178958	0.876768	-0.627415
H144	H	1.071414	1.149091	-0.761213
H145	H	1.499971	0.542406	0.567273
H146	H	1.406344	0.555977	-0.151340
H147	H	0.671399	1.359755	-0.231924
C148	C	1.373455	1.470567	-0.574725
N149	N	1.426939	1.511080	-0.570736
H150	H	0.725471	0.906445	0.084439
C151	C	1.328608	0.692164	0.398827
N152	N	1.243123	0.732672	0.402813
C153	C	0.567906	1.525126	-0.781407
N154	N	0.503105	1.587140	-0.858953
H155	H	0.544937	1.456656	-0.576142
H156	H	0.777450	1.415005	-0.763348
H157	H	1.561595	0.386163	-0.134333
C158	C	1.218692	0.776139	-0.428918
N159	N	1.255494	0.682942	-0.411675
H160	H	1.739078	0.322055	-0.032249
H161	H	0.919320	1.279184	-0.593527
