data_functionalizedCrystal
_audit_creation_method	'MofGen! by Chris Wilmer'
_symmetry_space_group_name_H-M	'P1'
_symmetry_Int_Tables_number	1
_symmetry_cell_setting	triclinic
loop_
_symmetry_equiv_pos_as_xyz
  x,y,z
_cell_length_a	14.519709
_cell_length_b	10.489716
_cell_length_c	13.596369
_cell_angle_alpha	89.998063
_cell_angle_beta	90.000291
_cell_angle_gamma	84.104640
loop_
_atom_site_label
_atom_site_type_symbol
_atom_site_fract_x
_atom_site_fract_y
_atom_site_fract_z
O1	O	1.224769	0.167205	-0.081654
O2	O	0.956398	0.186896	-0.081683
O3	O	1.096702	-0.008613	-0.081672
O4	O	1.084465	0.362714	-0.081666
O5	O	1.096688	-0.008623	0.081911
O6	O	0.956384	0.186885	0.081900
O7	O	1.224755	0.167195	0.081929
Zn8	Zn	1.090567	0.177039	0.107887
Zn9	Zn	1.090586	0.177052	-0.107641
O10	O	1.084451	0.362704	0.081917
C11	C	0.922026	0.185973	0.000104
C12	C	0.819630	0.183223	0.000093
C13	C	1.095775	-0.056141	0.000117
C14	C	1.093025	-0.197743	0.000108
C15	C	0.444680	0.173100	0.000138
C16	C	0.549003	0.175911	0.000125
C17	C	0.632152	0.178161	0.000114
C18	C	0.736481	0.180973	0.000103
C19	C	1.179063	-0.296314	0.000126
C20	C	1.133606	-0.373196	-0.080531
C21	C	1.133572	-0.373170	0.080748
C22	C	1.047603	-0.272760	-0.080616
C23	C	1.047582	-0.272729	0.080736
C24	C	1.002060	-0.349560	0.000059
C25	C	1.259126	0.168118	0.000139
C26	C	1.361523	0.170868	0.000144
C27	C	1.085377	0.410232	0.000127
C28	C	1.088128	0.551834	0.000129
N29	N	1.090561	0.177028	0.254978
N30	N	1.090599	0.177052	-0.254733
C31	C	1.090584	0.177054	0.656269
C32	C	1.090575	0.177051	0.544618
C33	C	1.090573	0.177042	0.455627
C34	C	1.090563	0.177037	0.343969
H35	H	1.253902	-0.272417	0.000052
F36	F	1.000157	-0.215332	0.169861
H37	H	1.169904	-0.417025	0.148936
F38	F	0.904168	-0.380476	-0.000005
H39	H	1.169932	-0.417065	-0.148715
F40	F	1.000165	-0.215664	-0.169846
