data_functionalizedCrystal
_audit_creation_method	'MofGen! by Chris Wilmer'
_symmetry_space_group_name_H-M	'P1'
_symmetry_Int_Tables_number	1
_symmetry_cell_setting	triclinic
loop_
_symmetry_equiv_pos_as_xyz
  x,y,z
_cell_length_a	14.560438
_cell_length_b	14.560438
_cell_length_c	23.196401
_cell_angle_alpha	60.013760
_cell_angle_beta	90.014604
_cell_angle_gamma	59.999712
loop_
_atom_site_label
_atom_site_type_symbol
_atom_site_fract_x
_atom_site_fract_y
_atom_site_fract_z
Zr1	Zr	0.884780	1.005177	-0.075544
O2	O	0.738104	1.196767	-0.167581
O3	O	0.929739	0.813590	-0.047342
O4	O	0.929701	1.005178	-0.167594
O5	O	0.738178	1.005176	0.047543
O6	O	1.080841	1.005175	-0.167591
O7	O	0.738142	1.005179	-0.047328
O8	O	1.080910	0.662460	0.047519
O9	O	0.738110	1.347892	-0.167567
O10	O	1.061714	0.892389	-0.035297
O11	O	0.948946	0.892390	0.035502
O12	O	0.948902	1.117959	-0.106080
O13	O	0.836134	1.117960	-0.035281
Zr14	Zr	1.125890	1.005168	0.075770
Zr15	Zr	1.125832	1.005172	-0.075539
Zr16	Zr	0.884838	1.005173	0.075765
Zr17	Zr	0.884790	1.246204	-0.075522
Zr18	Zr	1.125880	0.764141	0.075748
O19	O	1.080931	1.196755	0.047568
O20	O	1.080849	1.196760	-0.167574
O21	O	0.738186	1.196761	0.047561
O22	O	1.272566	0.813579	0.167807
O23	O	1.272484	0.813584	-0.047335
O24	O	0.929821	0.813585	0.167800
O25	O	1.272492	1.005169	-0.047317
O26	O	1.080969	1.005167	0.167821
O27	O	0.929828	1.005170	0.167818
O28	O	1.272528	1.005166	0.047554
O29	O	0.929714	1.347888	-0.167563
O30	O	1.080956	0.662457	0.167789
O31	O	1.272560	0.662453	0.167793
O32	O	1.272514	0.662456	0.047523
O33	O	0.738156	1.347889	-0.047296
O34	O	0.929760	1.347885	-0.047292
O35	O	1.061768	0.892386	0.106306
O36	O	1.174536	0.892385	0.035507
O37	O	1.061723	1.117956	-0.035276
O38	O	0.948955	1.117956	0.035523
C39	C	1.005323	0.703684	0.000085
C40	C	1.005319	0.601361	0.000076
C41	C	0.922041	0.636491	-0.052164
C42	C	0.922059	0.540302	-0.052129
C43	C	1.088637	0.373855	0.052393
C44	C	1.088623	0.470043	0.052354
C45	C	0.838736	0.767809	-0.104442
C46	C	0.755451	0.802945	-0.156686
C47	C	0.755469	0.706756	-0.156651
C48	C	0.838772	0.575431	-0.104372
C49	C	0.703815	1.005178	0.000107
C50	C	0.601482	1.005180	0.000105
C51	C	0.553379	1.005184	-0.052159
C52	C	0.457233	1.005171	-0.052150
C53	C	0.457300	1.005158	0.052391
C54	C	0.553448	1.005161	0.052384
C55	C	0.601413	1.005203	-0.104438
C56	C	0.553309	1.005208	-0.156707
C57	C	0.457163	1.005196	-0.156698
C58	C	0.409121	1.005179	-0.104419
C59	C	1.306855	1.005167	0.000119
C60	C	1.409188	1.005165	0.000122
C61	C	1.005263	1.005177	-0.189151
C62	C	1.005238	1.005179	-0.253386
C63	C	1.005347	1.306661	0.000141
C64	C	1.005351	1.408984	0.000150
C65	C	0.946357	1.122921	-0.320507
C66	C	0.946385	1.122922	-0.380862
C67	C	1.005280	1.005176	-0.374092
C68	C	1.064175	0.887418	-0.306959
C69	C	1.064154	0.887420	-0.246606
C70	C	0.996913	0.914966	-0.441418
C71	C	0.996926	0.914970	-0.501771
C72	C	1.005351	1.005166	-0.560240
C73	C	1.013741	1.095380	-0.558354
C74	C	1.013720	1.095382	-0.498001
C75	C	1.005310	1.005161	-0.439531
C76	C	0.946498	1.122917	-0.692807
C77	C	0.946534	1.122914	-0.753162
C78	C	1.064316	0.887407	-0.679257
C79	C	1.064287	0.887413	-0.618904
C80	C	1.005372	1.005172	-0.625684
C81	C	1.005407	1.005168	0.189378
C82	C	1.005432	1.005166	0.253612
C83	C	1.306843	0.703678	0.000092
C84	C	1.409172	0.601354	0.000084
C85	C	1.005395	0.703679	0.189350
C86	C	1.005415	0.601355	0.253575
C87	C	1.306915	0.703673	0.189356
C88	C	1.409268	0.601347	0.253583
C89	C	0.703755	1.306672	-0.189130
C90	C	0.601402	1.408998	-0.253357
C91	C	0.703827	1.306667	0.000135
C92	C	0.601498	1.408991	0.000142
C93	C	1.005275	1.306666	-0.189123
C94	C	1.005254	1.408990	-0.253349
C95	C	1.064317	0.553300	0.320701
C96	C	1.064332	0.457170	0.381053
C97	C	1.005451	0.409088	0.374278
C98	C	0.946542	0.457152	0.307145
C99	C	0.946522	0.553288	0.246794
C100	C	1.516208	0.553294	0.246789
C101	C	1.612389	0.457161	0.307131
C102	C	1.601628	0.409077	0.374268
C103	C	1.494677	0.457140	0.381061
C104	C	1.398498	0.553278	0.320719
C105	C	0.494462	1.457063	-0.246562
C106	C	0.398280	1.553226	-0.306905
C107	C	0.409042	1.601315	-0.374041
C108	C	0.515993	1.553246	-0.380835
C109	C	0.612172	1.457091	-0.320493
C110	C	1.064146	1.457041	-0.246551
C111	C	1.064149	1.553173	-0.306891
C112	C	1.005253	1.601258	-0.374029
C113	C	0.946359	1.553198	-0.380826
C114	C	0.946363	1.457062	-0.320486
C115	C	1.398357	0.553280	-0.036876
C116	C	1.494510	0.457143	-0.036885
C117	C	1.612288	0.457158	0.037032
C118	C	1.516137	0.553300	0.037036
C119	C	1.291392	0.601334	-0.073828
C120	C	1.280573	0.553259	-0.110790
C121	C	1.376726	0.457122	-0.110799
C122	C	1.483698	0.409059	-0.073846
H123	H	0.687634	0.909873	-0.199254
H124	H	1.561987	0.330783	-0.073860
H125	H	0.898434	1.218805	-0.435522
H126	H	1.524946	0.592443	0.067132
N127	N	1.165206	0.605085	-0.150641
H128	H	1.156170	0.644981	-0.202341
H129	H	1.106006	0.673227	-0.144970
H130	H	0.898402	1.417949	-0.326031
H131	H	1.679952	0.330795	0.423396
N132	N	1.127689	1.405168	-0.174140
H133	H	1.073708	1.421899	-0.147446
H134	H	1.164998	1.450219	-0.179056
N135	N	0.405480	1.005139	0.108771
H136	H	0.325540	1.085211	0.085977
H137	H	0.450624	1.005084	0.141866
N138	N	1.727738	0.405304	0.299801
H139	H	1.770278	0.422037	0.323185
H140	H	1.719865	0.450362	0.248102
N141	N	1.178445	0.432155	0.108700
H142	H	1.142125	0.468380	0.136146
H143	H	1.222149	0.468335	0.085824
H144	H	0.838710	0.846140	-0.104476
N145	N	1.127784	0.760412	-0.546508
H146	H	1.073774	0.755166	-0.519838
H147	H	1.187028	0.755233	-0.519859
H148	H	1.112265	0.592438	0.326231
N149	N	1.005269	1.704941	-0.439101
H150	H	0.971773	1.784711	-0.439114
H151	H	0.959046	1.728016	-0.482636
N152	N	0.987886	0.817664	-0.503800
H153	H	0.989171	0.831352	-0.550906
H154	H	0.915094	0.829733	-0.497056
N155	N	1.005482	0.305391	0.439371
H156	H	0.971991	0.338856	0.468421
H157	H	1.085263	0.225657	0.468355
H158	H	0.699245	1.417957	-0.326033
H159	H	0.311206	1.592347	-0.301360
N160	N	1.127676	1.604994	-0.299552
H161	H	1.164975	1.559947	-0.247863
H162	H	1.073618	1.701508	-0.322976
N163	N	0.405284	1.005185	-0.213064
H164	H	0.450307	1.005197	-0.246181
H165	H	0.325339	1.085257	-0.240463
H166	H	1.485931	0.417976	0.435732
H167	H	0.592615	1.005156	0.094943
H168	H	0.898407	1.592364	-0.435498
N169	N	0.882830	1.249926	-0.327818
H170	H	0.845537	1.324516	-0.379501
H171	H	0.936891	1.255048	-0.304371
N172	N	1.283154	0.605085	0.328049
H173	H	1.240609	0.701596	0.304667
H174	H	1.291032	0.559935	0.379749
N175	N	0.665642	0.744659	-0.213001
H176	H	0.621908	0.708481	-0.190182
H177	H	0.702040	0.708448	-0.240436
H178	H	0.330718	1.679609	-0.423170
H179	H	0.838797	0.497114	-0.104358
N180	N	1.178482	0.232221	0.108777
H181	H	1.165853	0.176618	0.100874
H182	H	1.174821	0.212713	0.156726
N183	N	0.705107	1.005225	-0.104451
H184	H	0.728238	1.005239	-0.145499
H185	H	0.768262	0.925147	-0.058780
N186	N	0.605122	1.005219	-0.213088
H187	H	0.673326	1.005230	-0.205167
H188	H	0.548245	1.085297	-0.261037
N189	N	0.482838	1.405202	-0.174156
H190	H	0.400491	1.450258	-0.179018
H191	H	0.520185	1.421923	-0.147499
H192	H	1.367912	0.417991	-0.140902
N193	N	0.987831	0.817673	-0.378354
H194	H	0.982510	0.760532	-0.388708
H195	H	0.918334	0.865218	-0.368247
N196	N	0.305430	1.005147	-0.104401
H197	H	0.282247	1.005145	-0.145442
H198	H	0.242300	1.085219	-0.108978
N199	N	1.527822	0.605161	0.174380
H200	H	1.490550	0.588427	0.147688
H201	H	1.610187	0.560107	0.179296
H202	H	1.020554	1.168835	-0.496468
H203	H	1.699390	0.418016	0.067118
N204	N	0.527591	1.605118	-0.453248
H205	H	0.450429	1.673318	-0.490437
H206	H	0.570091	1.531698	-0.458850
H207	H	1.112306	0.418047	0.435710
H208	H	1.213093	0.679607	-0.073821
H209	H	1.020597	1.168831	-0.605962
H210	H	0.898526	1.218804	-0.698329
H211	H	0.898603	0.417990	0.301639
N212	N	0.883069	1.249913	-0.825562
H213	H	0.845757	1.324507	-0.820695
H214	H	0.823885	1.255074	-0.852251
H215	H	0.898561	0.592401	0.192139
H216	H	1.112271	0.791535	-0.673743
H217	H	1.112129	0.791548	-0.301450
N218	N	1.127666	0.760422	-0.174205
H219	H	1.164986	0.685826	-0.179071
H220	H	1.073595	0.755292	-0.147572
