data_functionalizedCrystal
_audit_creation_method	'MofGen! by Chris Wilmer'
_symmetry_space_group_name_H-M	'P1'
_symmetry_Int_Tables_number	1
_symmetry_cell_setting	triclinic
loop_
_symmetry_equiv_pos_as_xyz
  x,y,z
_cell_length_a	14.971482
_cell_length_b	15.944493
_cell_length_c	13.448316
_cell_angle_alpha	89.999270
_cell_angle_beta	89.993798
_cell_angle_gamma	83.543826
loop_
_atom_site_label
_atom_site_type_symbol
_atom_site_fract_x
_atom_site_fract_y
_atom_site_fract_z
O1	O	1.186807	0.109452	-0.082666
O2	O	0.926389	0.122564	-0.082669
O3	O	1.063737	-0.006264	-0.082675
O4	O	1.049460	0.238279	-0.082659
O5	O	1.063719	-0.006272	0.082708
O6	O	0.926372	0.122556	0.082715
O7	O	1.186790	0.109444	0.082718
Cu8	Cu	1.056579	0.115999	0.097817
Cu9	Cu	1.056600	0.116008	-0.097768
O10	O	1.049443	0.238271	0.082725
C11	C	0.893057	0.121974	0.000022
C12	C	0.793762	0.120218	0.000020
C13	C	0.747109	0.119387	0.090172
C14	C	0.653813	0.117724	0.090173
C15	C	0.607170	0.116898	0.000021
C16	C	0.653830	0.117727	-0.090137
C17	C	0.747125	0.119384	-0.090137
C18	C	0.459372	0.114276	-0.090131
C19	C	0.366070	0.112620	-0.090132
C20	C	0.366060	0.112616	0.090179
C21	C	0.459355	0.114273	0.090179
C22	C	0.506008	0.115103	0.000020
C23	C	1.063145	-0.037563	0.000012
C24	C	1.061395	-0.130813	-0.000000
C25	C	1.142241	-0.366497	0.000019
C26	C	1.098652	-0.417102	-0.081523
C27	C	1.058154	-0.301538	0.000012
C28	C	1.098616	-0.417086	0.081532
C29	C	1.055029	-0.466450	0.000028
C30	C	1.014588	-0.350914	-0.081599
C31	C	1.014563	-0.350895	0.081530
C32	C	0.970913	-0.401467	-0.000033
C33	C	1.059956	-0.206536	0.000002
C34	C	1.053219	-0.561449	0.000031
C35	C	1.220122	0.110033	0.000025
C36	C	1.319417	0.111789	0.000020
C37	C	1.050035	0.269570	0.000035
C38	C	1.051784	0.362821	0.000041
N39	N	1.056572	0.115992	0.235382
N40	N	1.056615	0.116009	-0.235332
C41	C	1.117408	0.058970	0.287419
C42	C	1.117413	0.058970	0.391522
C43	C	1.056586	0.115995	0.443586
C44	C	0.995744	0.173019	0.391542
C45	C	0.995734	0.173015	0.287440
C46	C	0.995768	0.173025	0.608522
C47	C	0.995779	0.173030	0.712630
C48	C	1.117447	0.058979	0.712604
C49	C	1.117438	0.058975	0.608502
C50	C	1.056596	0.116001	0.556465
H51	H	0.497328	0.114950	0.163589
H52	H	0.328070	0.111940	0.163590
C53	C	0.968131	-0.224196	0.173097
C54	C	0.966653	-0.311839	0.174594
H55	H	0.938552	-0.200086	0.230553
H56	H	1.028654	-0.211624	0.172520
H57	H	0.938173	-0.201439	0.115207
H58	H	0.996617	-0.334597	0.232480
H59	H	0.906119	-0.324419	0.175180
H60	H	0.946194	0.219447	0.245072
H61	H	0.946246	0.219465	0.755015
H62	H	0.785109	0.120062	-0.163548
H63	H	1.166986	0.012548	0.754979
H64	H	0.946222	0.219458	0.566156
H65	H	0.497355	0.114952	-0.163548
C66	C	0.875468	0.285742	0.381103
C67	C	0.928874	0.235698	0.448767
H68	H	0.834182	0.324434	0.416432
H69	H	0.912685	0.316017	0.340493
H70	H	0.843308	0.250713	0.340507
H71	H	0.961040	0.270727	0.489358
H72	H	0.891652	0.205421	0.489394
H73	H	1.214671	-0.350801	-0.000062
H74	H	0.898426	-0.417001	-0.000078
H75	H	1.166972	0.012545	0.566112
C76	C	1.236215	-0.438824	0.174428
C77	C	1.146560	-0.456094	0.174598
H78	H	1.265815	-0.462901	0.231883
H79	H	1.265478	-0.462377	0.116530
H80	H	1.238154	-0.379478	0.174772
H81	H	1.144621	-0.515440	0.174246
H82	H	1.117289	-0.432545	0.232511
H83	H	0.615847	0.117049	-0.163541
H84	H	1.166944	0.012537	0.245036
C85	C	1.086009	-0.497054	-0.231169
C86	C	1.146593	-0.456130	-0.174591
H87	H	1.115609	-0.521139	-0.288625
H88	H	1.064329	-0.540330	-0.192506
H89	H	1.037008	-0.457439	-0.250759
H90	H	1.195591	-0.495746	-0.154995
H91	H	1.168287	-0.412849	-0.213261
C92	C	0.375447	0.112787	-0.268363
C93	C	0.314798	0.111714	-0.189227
H94	H	0.343792	0.112225	-0.329539
H95	H	0.405007	0.162372	-0.264613
H96	H	0.418666	0.064480	-0.264612
H97	H	0.271583	0.160025	-0.192973
H98	H	0.285224	0.062124	-0.192979
C99	C	0.737719	0.119203	0.268400
C100	C	0.798374	0.120290	0.189272
H101	H	0.769370	0.119753	0.329580
H102	H	0.694502	0.167501	0.264656
H103	H	0.708161	0.069609	0.264634
H104	H	0.827928	0.169888	0.193033
H105	H	0.841607	0.071988	0.193017
C106	C	0.558985	0.043687	0.194781
C107	C	0.602541	0.116801	0.189276
H108	H	0.527341	0.043112	0.255971
H109	H	0.517852	0.042964	0.141104
H110	H	0.602229	-0.004601	0.191018
H111	H	0.559297	0.165089	0.193032
H112	H	0.643679	0.117532	0.242968
H113	H	0.979104	-0.322125	-0.150610
H114	H	1.166950	0.012538	0.433891
