data_functionalizedCrystal
_audit_creation_method	'MofGen! by Chris Wilmer'
_symmetry_space_group_name_H-M	'P1'
_symmetry_Int_Tables_number	1
_symmetry_cell_setting	triclinic
loop_
_symmetry_equiv_pos_as_xyz
  x,y,z
_cell_length_a	20.875641
_cell_length_b	14.560432
_cell_length_c	20.875641
_cell_angle_alpha	90.001982
_cell_angle_beta	60.089808
_cell_angle_gamma	62.441128
loop_
_atom_site_label
_atom_site_type_symbol
_atom_site_fract_x
_atom_site_fract_y
_atom_site_fract_z
Zr1	Zr	0.694364	0.926791	-0.105772
O2	O	0.820601	0.792201	-0.209036
O3	O	0.563109	0.963014	-0.070841
O4	O	0.687133	0.976540	-0.204313
O5	O	0.704031	0.773735	0.025995
O6	O	0.687135	1.127677	-0.204313
O7	O	0.696578	0.778676	-0.075564
O8	O	0.465280	1.103483	0.034444
O9	O	0.925887	0.797929	-0.212762
O10	O	0.618956	1.097340	-0.059901
O11	O	0.624516	0.980860	0.015892
O12	O	0.770538	0.996784	-0.141254
O13	O	0.776098	0.880305	-0.065462
Zr14	Zr	0.706255	1.159959	0.056202
Zr15	Zr	0.694368	1.167838	-0.105773
Zr16	Zr	0.706251	0.918911	0.056203
Zr17	Zr	0.862281	0.935927	-0.111715
Zr18	Zr	0.538337	1.150823	0.062145
O19	O	0.837510	1.123735	0.021271
O20	O	0.820608	1.134939	-0.209037
O21	O	0.837504	0.780997	0.021272
O22	O	0.580017	1.294549	0.159466
O23	O	0.563115	1.305753	-0.070842
O24	O	0.580011	0.951810	0.159467
O25	O	0.696588	1.313015	-0.075565
O26	O	0.713486	1.110210	0.154743
O27	O	0.713483	0.959072	0.154743
O28	O	0.704041	1.308074	0.025994
O29	O	0.925890	0.989530	-0.212763
O30	O	0.474729	1.097220	0.163193
O31	O	0.474732	1.288820	0.163192
O32	O	0.465283	1.295084	0.034444
O33	O	0.935335	0.791666	-0.084014
O34	O	0.935339	0.983267	-0.084014
O35	O	0.630081	1.089965	0.091684
O36	O	0.624520	1.206445	0.015892
O37	O	0.776102	1.105890	-0.065462
O38	O	0.781663	0.989410	0.010331
C39	C	0.490270	1.031947	-0.017352
C40	C	0.418984	1.028069	-0.014829
C41	C	0.382592	1.087045	-0.053207
C42	C	0.315607	1.083403	-0.050829
C43	C	0.285021	1.020778	-0.010078
C44	C	0.321416	0.961800	0.028305
C45	C	0.388395	0.965449	0.025931
C46	C	0.085009	1.003352	0.001268
C47	C	0.018027	0.999705	0.003637
C48	C	0.012221	1.121310	-0.075496
C49	C	0.079206	1.124948	-0.077870
C50	C	0.115592	1.065974	-0.039484
N51	N	0.216554	1.017051	-0.007648
N52	N	0.184054	1.069708	-0.041910
C53	C	0.700304	0.741861	-0.024784
C54	C	0.700302	0.639531	-0.024784
C55	C	0.542048	0.744494	0.060142
C56	C	0.462924	0.748900	0.102602
C57	C	0.462928	0.652748	0.102600
C58	C	0.542064	0.552182	0.060135
C59	C	0.621189	0.547777	0.017676
C60	C	0.621176	0.643937	0.017681
C61	C	0.779441	0.442814	-0.067245
C62	C	0.779439	0.538965	-0.067249
C63	C	0.858578	0.342248	-0.109710
C64	C	0.937704	0.337842	-0.152175
C65	C	0.937697	0.434002	-0.152171
C66	C	0.858563	0.534560	-0.109708
C67	C	0.910349	1.054803	-0.032218
C68	C	0.981635	1.058681	-0.034741
C69	C	0.685440	1.053231	-0.227391
C70	C	0.680394	1.056576	-0.296154
C71	C	0.700315	1.344888	-0.024786
C72	C	0.700317	1.447219	-0.024786
C73	C	0.757145	1.005661	-0.370924
C74	C	0.752398	1.008818	-0.435531
C75	C	0.670899	1.062885	-0.425366
C76	C	0.594142	1.113807	-0.350588
C77	C	0.598890	1.110656	-0.285983
C78	C	0.648215	1.077944	-0.614032
C79	C	0.643474	1.081089	-0.678646
C80	C	0.801730	0.976101	-0.763585
C81	C	0.806471	0.972949	-0.698974
C82	C	0.729714	1.023876	-0.624202
N83	N	0.666045	1.066111	-0.491404
N84	N	0.734569	1.020657	-0.558166
C85	C	0.715179	1.033519	0.177821
C86	C	0.720225	1.030173	0.246584
C87	C	0.490275	1.333461	-0.017352
C88	C	0.418992	1.431913	-0.014830
C89	C	0.505139	1.022091	0.185254
C90	C	0.438900	1.014867	0.256540
C91	C	0.505144	1.323604	0.185254
C92	C	0.438907	1.418712	0.256539
C93	C	0.895475	0.763146	-0.234824
C94	C	0.961712	0.668038	-0.306109
C95	C	0.910344	0.753289	-0.032218
C96	C	0.981627	0.654837	-0.034740
C97	C	0.895480	1.064659	-0.234824
C98	C	0.961719	1.071883	-0.306110
C99	C	0.382611	1.421196	-0.053215
C100	C	0.315640	1.513694	-0.050860
C101	C	0.285048	1.616909	-0.010115
C102	C	0.321435	1.627624	0.028271
C103	C	0.388408	1.535127	0.025911
C104	C	0.410698	1.068426	0.329586
C105	C	0.348469	1.061635	0.396572
C106	C	0.314439	1.001290	0.390511
C107	C	0.342646	0.947724	0.317457
C108	C	0.404879	0.954510	0.250472
C109	C	0.404899	1.524186	0.250452
C110	C	0.342671	1.613560	0.317426
C111	C	0.314448	1.597456	0.390486
C112	C	0.348462	1.491970	0.396571
C113	C	0.410694	1.402599	0.329598
C114	C	0.995728	0.562564	-0.300023
C115	C	1.057977	0.473192	-0.366997
C116	C	1.086204	0.489296	-0.440057
C117	C	1.052185	0.594781	-0.446142
C118	C	0.989942	0.684151	-0.379168
C119	C	1.018014	0.665555	0.003638
C120	C	1.085002	0.573058	0.001264
C121	C	1.115597	0.469844	-0.039483
C122	C	1.079207	0.459128	-0.077865
C123	C	1.012225	0.551624	-0.075496
C124	C	0.995730	1.132237	-0.300024
C125	C	1.057961	1.139045	-0.366997
C126	C	1.086183	1.085493	-0.440057
C127	C	1.052165	1.025136	-0.446141
C128	C	0.989931	1.018335	-0.379168
H129	H	-0.006872	0.948703	0.036821
C130	C	0.211372	1.718648	-0.007516
H131	H	0.198360	1.781659	0.022244
H132	H	0.160674	1.714765	0.015511
H133	H	0.229637	1.722292	-0.058706
H134	H	0.114624	0.955336	0.032528
C135	C	1.112862	0.345590	-0.122677
H136	H	1.157957	0.292045	-0.118579
H137	H	1.135176	0.341087	-0.175655
H138	H	1.066210	0.333582	-0.101427
H139	H	0.438375	1.316720	0.334564
H140	H	1.136858	1.091039	-0.494585
C141	C	0.448127	1.134803	0.336265
H142	H	0.489227	1.131189	0.285913
H143	H	0.476230	1.105836	0.362181
H144	H	0.402010	1.208345	0.364815
C145	C	0.964699	0.544829	-0.219666
H146	H	0.993890	0.469208	-0.225645
H147	H	0.903436	0.575132	-0.190573
H148	H	0.977655	0.579187	-0.193213
C149	C	1.083223	0.966224	-0.526509
H150	H	1.125166	0.978914	-0.565519
H151	H	1.034736	0.992943	-0.530492
H152	H	1.108951	0.890455	-0.533105
H153	H	0.858550	0.612859	-0.109704
C154	C	0.317445	1.120565	0.476923
H155	H	0.275516	1.107876	0.515953
H156	H	0.291731	1.196326	0.483510
H157	H	0.365956	1.093828	0.480878
H158	H	0.542061	0.473894	0.060145
H159	H	1.085665	0.387309	-0.362027
C160	C	0.416256	1.307670	-0.098038
H161	H	0.461350	1.254106	-0.093947
H162	H	0.438570	1.303192	-0.151013
H163	H	0.369601	1.295671	-0.076798
H164	H	0.864222	0.934640	-0.824469
H165	H	0.104108	1.175942	-0.111053
C166	C	0.435936	1.541922	0.170096
H167	H	0.406770	1.617544	0.176074
H168	H	0.422985	1.507578	0.143633
H169	H	0.497205	1.511604	0.141011
C170	C	0.896120	0.913475	-0.710160
H171	H	0.941152	0.883609	-0.763946
H172	H	0.901256	0.856798	-0.686724
H173	H	0.901264	0.963335	-0.686722
C174	C	0.287770	1.741161	0.073094
H175	H	0.242665	1.794705	0.069005
H176	H	0.334408	1.753185	0.051867
H177	H	0.265445	1.745645	0.126074
H178	H	0.263766	0.995774	0.445060
C179	C	1.154658	0.390981	-0.513720
H180	H	1.170861	0.325860	-0.499624
H181	H	1.204780	0.395221	-0.544808
H182	H	1.130549	0.391197	-0.542166
H183	H	0.982600	0.542882	-0.106746
H184	H	0.286022	1.504948	-0.082119
H185	H	1.075175	0.607881	-0.505635
C186	C	0.428423	1.546923	0.068137
H187	H	0.472698	1.477060	0.060896
H188	H	0.384152	1.581735	0.121886
H189	H	0.453121	1.589247	0.047664
C190	C	1.189274	0.368108	-0.042080
H191	H	1.206553	0.389282	-0.013379
H192	H	1.237838	0.329901	-0.094332
H193	H	1.168872	0.322385	-0.020112
H194	H	0.285976	1.131426	-0.082079
C195	C	-0.027813	1.186187	-0.117707
H196	H	-0.072090	1.175056	-0.110453
H197	H	0.016445	1.162267	-0.171460
H198	H	-0.052513	1.261279	-0.097235
C199	C	0.287748	0.892953	0.073162
H200	H	0.319003	0.858372	0.095693
H201	H	0.296201	0.839485	0.038649
H202	H	0.227259	0.938550	0.112839
C203	C	0.952495	0.800168	-0.385868
H204	H	0.911377	0.851096	-0.335521
H205	H	0.924409	0.808435	-0.411794
H206	H	0.998598	0.812551	-0.414416
H207	H	0.993110	0.749588	0.036824
C208	C	0.553821	1.140537	-0.667461
H209	H	0.508786	1.170414	-0.613676
H210	H	0.548697	1.090657	-0.690900
H211	H	0.548667	1.197219	-0.690899
H212	H	0.972762	1.175847	-0.240541
H213	H	0.527784	1.157836	-0.342316
C214	C	0.563786	1.133949	-0.531793
H215	H	0.514571	1.166587	-0.534995
H216	H	0.562343	1.188173	-0.504819
H217	H	0.562349	1.081627	-0.504828
C218	C	1.095379	1.205424	-0.360291
H219	H	1.069667	1.236322	-0.307186
H220	H	1.082672	1.261702	-0.383450
H221	H	1.156889	1.159183	-0.386089
H222	H	0.823511	0.961626	-0.379211
C223	C	0.514464	1.166658	-0.203735
H224	H	0.465245	1.199301	-0.206933
H225	H	0.513027	1.220878	-0.176765
H226	H	0.513026	1.114335	-0.176770
C227	C	1.125011	0.584863	0.043496
H228	H	1.097182	0.659582	0.068113
H229	H	1.185739	0.554922	0.007118
H230	H	1.116777	0.547383	0.081327
C231	C	0.305197	0.881364	0.310800
H232	H	0.264087	0.885013	0.361159
H233	H	0.351295	0.807821	0.282255
H234	H	0.277083	0.910343	0.284890
H235	H	0.427831	0.910898	0.190998
C236	C	0.952536	0.951928	-0.385873
H237	H	0.978269	0.921002	-0.438979
H238	H	0.891029	0.998140	-0.360080
H239	H	0.965259	0.895650	-0.362711
C240	C	0.245987	1.695770	0.464149
H241	H	0.229772	1.760890	0.450054
H242	H	0.270076	1.695564	0.492608
H243	H	0.195864	1.691519	0.495225
H244	H	1.002130	0.255958	-0.186742
C245	C	0.428430	0.900571	0.068143
H246	H	0.400628	0.862743	0.092748
H247	H	0.420201	0.948973	0.105969
H248	H	0.489162	0.849953	0.031750
H249	H	0.407494	1.138035	-0.086395
H250	H	0.325473	1.478874	0.456065
C251	C	0.305257	1.729579	0.310719
H252	H	0.330970	1.726361	0.257615
H253	H	0.317968	1.768998	0.333877
H254	H	0.243747	1.764948	0.336517
C255	C	0.375880	0.859518	0.149306
H256	H	0.387206	0.916155	0.143222
H257	H	0.345987	0.863592	0.202549
H258	H	0.340752	0.867056	0.130947
C259	C	1.024737	0.429151	-0.198815
H260	H	1.013406	0.500816	-0.192712
H261	H	1.054688	0.393556	-0.252069
H262	H	1.059813	0.390096	-0.180408
C263	C	0.836825	0.952806	-0.517777
H264	H	0.886042	0.920143	-0.514577
H265	H	0.838270	1.005117	-0.544746
H266	H	0.838257	0.898582	-0.544744
C267	C	0.542041	0.850261	0.060146
H268	H	0.483581	0.910783	0.091520
H269	H	0.568644	0.854368	0.008669
H270	H	0.573881	0.850892	0.080270
H271	H	0.398498	0.656339	0.137177
H272	H	0.858575	0.263960	-0.109704
