data_functionalizedCrystal
_audit_creation_method	'MofGen! by Chris Wilmer'
_symmetry_space_group_name_H-M	'P1'
_symmetry_Int_Tables_number	1
_symmetry_cell_setting	triclinic
loop_
_symmetry_equiv_pos_as_xyz
  x,y,z
_cell_length_a	18.215407
_cell_length_b	18.050590
_cell_length_c	18.215407
_cell_angle_alpha	90.013001
_cell_angle_beta	90.007771
_cell_angle_gamma	90.015996
loop_
_atom_site_label
_atom_site_type_symbol
_atom_site_fract_x
_atom_site_fract_y
_atom_site_fract_z
Zn1	Zn	1.125035	-0.295833	0.416063
Zn2	Zn	1.458368	0.037500	0.749397
Zn3	Zn	1.791701	0.370834	1.082730
Zn4	Zn	1.124977	-0.419994	0.292995
Zn5	Zn	1.458311	-0.086661	0.626329
Zn6	Zn	1.791644	0.246673	0.959662
Zn7	Zn	1.001988	-0.295817	0.293016
Zn8	Zn	1.335321	0.037517	0.626349
Zn9	Zn	1.668654	0.370850	0.959683
Zn10	Zn	1.001947	-0.419980	0.416025
Zn11	Zn	1.335280	-0.086647	0.749359
Zn12	Zn	1.668613	0.246686	1.082692
O13	O	1.063487	-0.357906	0.354525
O14	O	1.396820	-0.024573	0.687858
O15	O	1.730153	0.308761	1.021192
O16	O	1.228011	-0.312316	0.399745
O17	O	1.561345	0.021017	0.733078
O18	O	1.894678	0.354351	1.066412
O19	O	1.108656	-0.403520	0.190014
O20	O	1.441989	-0.070187	0.523347
O21	O	1.775322	0.263146	0.856680
O22	O	1.018351	-0.191894	0.309363
O23	O	1.351685	0.141439	0.642696
O24	O	1.685018	0.474772	0.976030
O25	O	1.227969	-0.403536	0.309328
O26	O	1.561302	-0.070203	0.642661
O27	O	1.894636	0.263130	0.975994
O28	O	1.108753	-0.191906	0.399765
O29	O	1.442087	0.141427	0.733098
O30	O	1.775420	0.474760	1.066432
O31	O	1.018296	-0.312288	0.190029
O32	O	1.351629	0.021045	0.523362
O33	O	1.684962	0.354379	0.856696
O34	O	0.898998	-0.312275	0.309326
O35	O	1.232331	0.021059	0.642660
O36	O	1.565665	0.354392	0.975993
O37	O	1.018281	-0.403513	0.519015
O38	O	1.351615	-0.070180	0.852348
O39	O	1.684948	0.263154	1.185681
O40	O	0.898968	-0.403497	0.399701
O41	O	1.232301	-0.070164	0.733034
O42	O	1.565635	0.263170	1.066367
O43	O	1.108713	-0.312303	0.519042
O44	O	1.442047	0.021031	0.852376
O45	O	1.775380	0.354364	1.185709
O46	O	1.108616	-0.523917	0.309291
O47	O	1.441949	-0.190583	0.642624
O48	O	1.775282	0.142750	0.975958
O49	O	1.018226	-0.523907	0.399681
O50	O	1.351559	-0.190573	0.733014
O51	O	1.684892	0.142760	1.066347
C52	C	0.872280	-0.357883	0.354512
C53	C	1.205614	-0.024550	0.687845
C54	C	1.538947	0.308784	1.021179
C55	C	0.790481	-0.357891	0.354524
C56	C	1.123815	-0.024558	0.687857
C57	C	1.457148	0.308775	1.021191
C58	C	0.602308	-0.310491	0.401679
C59	C	0.935642	0.022843	0.735012
C60	C	1.268975	0.356176	1.068345
C61	C	0.525450	-0.310497	0.401681
C62	C	0.858783	0.022836	0.735015
C63	C	1.192116	0.356170	1.068348
C64	C	0.525417	-0.405342	0.307384
C65	C	0.858750	-0.072009	0.640717
C66	C	1.192083	0.261324	0.974051
C67	C	0.602274	-0.405332	0.307378
C68	C	0.935607	-0.071998	0.640712
C69	C	1.268941	0.261335	0.974045
C70	C	0.640718	-0.357907	0.354530
C71	C	0.974051	-0.024574	0.687863
C72	C	1.307385	0.308760	1.021197
C73	C	0.487002	-0.357924	0.354538
C74	C	0.820335	-0.024591	0.687871
C75	C	1.153668	0.308743	1.021205
C76	C	0.403668	-0.357931	0.354540
C77	C	0.737001	-0.024598	0.687874
C78	C	1.070335	0.308736	1.021207
C79	C	0.724057	-0.357898	0.354527
C80	C	1.057390	-0.024565	0.687860
C81	C	1.390724	0.308768	1.021194
C82	C	1.063430	-0.550858	0.354496
C83	C	1.396763	-0.217525	0.687829
C84	C	1.730097	0.115809	1.021162
C85	C	1.063473	-0.633404	0.354508
C86	C	1.396806	-0.300071	0.687841
C87	C	1.730140	0.033263	1.021174
C88	C	1.112729	-0.832833	0.305422
C89	C	1.446063	-0.499500	0.638756
C90	C	1.779396	-0.166166	0.972089
C91	C	1.130695	-0.882185	0.372588
C92	C	1.464029	-0.548851	0.705922
C93	C	1.797362	-0.215518	1.039255
C94	C	1.063515	-0.784534	0.354537
C95	C	1.396848	-0.451201	0.687870
C96	C	1.730182	-0.117868	1.021204
C97	C	1.045624	-0.882264	0.287401
C98	C	1.378957	-0.548931	0.620734
C99	C	1.712291	-0.215598	0.954068
C100	C	1.063557	-0.930519	0.354559
C101	C	1.396890	-0.597186	0.687893
C102	C	1.730223	-0.263853	1.021226
C103	C	1.081515	-0.832799	0.421738
C104	C	1.414848	-0.499465	0.755072
C105	C	1.748182	-0.166132	1.088405
C106	C	0.996413	-0.832874	0.336506
C107	C	1.329746	-0.499541	0.669839
C108	C	1.663079	-0.166207	1.003172
C109	C	1.014353	-0.882203	0.403718
C110	C	1.347686	-0.548870	0.737052
C111	C	1.681020	-0.215537	1.070385
C112	C	1.063493	-0.700436	0.354523
C113	C	1.396826	-0.367103	0.687856
C114	C	1.730159	-0.033769	1.021190
C115	C	1.063579	-1.014616	0.354581
C116	C	1.396912	-0.681282	0.687914
C117	C	1.730245	-0.347949	1.021248
C118	C	1.255439	-0.357929	0.354538
C119	C	1.588773	-0.024596	0.687872
C120	C	1.922106	0.308737	1.021205
C121	C	1.337238	-0.357939	0.354544
C122	C	1.670572	-0.024606	0.687877
C123	C	2.003905	0.308727	1.021211
C124	C	1.063499	-0.357908	0.546478
C125	C	1.396833	-0.024575	0.879811
C126	C	1.730166	0.308759	1.213145
C127	C	1.063505	-0.357909	0.628277
C128	C	1.396838	-0.024575	0.961610
C129	C	1.730171	0.308758	1.294943
C130	C	1.063563	-0.164200	0.354571
C131	C	1.396897	0.169133	0.687904
C132	C	1.730230	0.502466	1.021237
C133	C	1.063596	-0.081655	0.354590
C134	C	1.396929	0.251679	0.687923
C135	C	1.730263	0.585012	1.021257
C136	C	1.110578	-0.310423	0.816486
C137	C	1.443911	0.022910	1.149820
C138	C	1.777245	0.356243	1.483153
C139	C	1.110574	-0.310423	0.893345
C140	C	1.443907	0.022910	1.226678
C141	C	1.777241	0.356244	1.560012
C142	C	1.016407	-0.405405	0.893305
C143	C	1.349741	-0.072072	1.226638
C144	C	1.683074	0.261262	1.559972
C145	C	1.016408	-0.405401	0.816448
C146	C	1.349742	-0.072068	1.149781
C147	C	1.683075	0.261266	1.483114
C148	C	1.063498	-0.357911	0.778040
C149	C	1.396831	-0.024578	1.111374
C150	C	1.730164	0.308755	1.444707
C151	C	1.063493	-0.357915	0.931756
C152	C	1.396826	-0.024582	1.265090
C153	C	1.730159	0.308752	1.598423
C154	C	1.063488	-0.357915	1.015090
C155	C	1.396821	-0.024582	1.348423
C156	C	1.730155	0.308752	1.681757
C157	C	1.063502	-0.357910	0.694701
C158	C	1.396835	-0.024577	1.028035
C159	C	1.730168	0.308756	1.361368
C160	C	1.063474	-0.357920	1.163319
C161	C	1.396808	-0.024587	1.496652
C162	C	1.730141	0.308747	1.829985
C163	C	1.063486	-0.357918	1.081520
C164	C	1.396819	-0.024584	1.414853
C165	C	1.730153	0.308749	1.748186
H166	H	0.633548	-0.443944	0.268980
H167	H	0.966881	-0.110611	0.602314
H168	H	1.300215	0.222722	0.935647
Br169	Br	1.182116	-0.796700	0.236264
Br170	Br	1.515449	-0.463366	0.569597
Br171	Br	1.848782	-0.130033	0.902931
H172	H	1.187460	-0.903847	0.387854
H173	H	1.520793	-0.570513	0.721187
H174	H	1.854127	-0.237180	1.054520
Br175	Br	1.106885	-0.796743	0.516410
Br176	Br	1.440219	-0.463410	0.849744
Br177	Br	1.773552	-0.130076	1.183077
H178	H	1.030475	-0.903992	0.230616
H179	H	1.363808	-0.570659	0.563949
H180	H	1.697141	-0.237325	0.897283
H181	H	0.972752	-0.903744	0.445311
H182	H	1.306085	-0.570410	0.778644
H183	H	1.639418	-0.237077	1.111977
Br184	Br	1.174483	-0.245972	0.764364
Br185	Br	1.507817	0.087361	1.097697
Br186	Br	1.841150	0.420695	1.431031
H187	H	1.148910	-0.271752	0.924644
H188	H	1.482244	0.061581	1.257978
H189	H	1.815577	0.394914	1.591311
H190	H	0.939664	-0.811196	0.321220
H191	H	1.272998	-0.477863	0.654554
H192	H	1.606331	-0.144529	0.987887
H193	H	0.494180	-0.271885	0.440073
H194	H	0.827513	0.061449	0.773407
H195	H	1.160847	0.394782	1.106740
Br196	Br	0.952506	-0.469855	0.945434
Br197	Br	1.285839	-0.136522	1.278767
Br198	Br	1.619172	0.196812	1.612100
H199	H	0.978065	-0.444071	0.785144
H200	H	1.311398	-0.110738	1.118477
H201	H	1.644731	0.222596	1.451811
Br202	Br	0.654480	-0.246127	0.465668
Br203	Br	0.987813	0.087206	0.799001
Br204	Br	1.321147	0.420540	1.132334
Br205	Br	0.473238	-0.469702	0.243397
Br206	Br	0.806572	-0.136369	0.576730
Br207	Br	1.139905	0.196964	0.910064
