data_functionalizedCrystal
_audit_creation_method	'MofGen! by Chris Wilmer'
_symmetry_space_group_name_H-M	'P1'
_symmetry_Int_Tables_number	1
_symmetry_cell_setting	triclinic
loop_
_symmetry_equiv_pos_as_xyz
  x,y,z
_cell_length_a	10.654550
_cell_length_b	14.519709
_cell_length_c	9.130313
_cell_angle_alpha	89.997798
_cell_angle_beta	89.996220
_cell_angle_gamma	84.082524
loop_
_atom_site_label
_atom_site_type_symbol
_atom_site_fract_x
_atom_site_fract_y
_atom_site_fract_z
O1	O	1.666589	0.129528	-0.121923
O2	O	1.300991	0.141869	-0.121900
O3	O	1.493483	0.001510	-0.121899
O4	O	1.474097	0.269887	-0.121924
O5	O	1.493481	0.001514	0.121700
O6	O	1.300989	0.141873	0.121699
O7	O	1.666586	0.129532	0.121676
Cu8	Cu	1.483787	0.135703	0.143930
Cu9	Cu	1.483790	0.135698	-0.144154
O10	O	1.474094	0.269891	0.121675
C11	C	1.254201	0.140965	-0.000098
C12	C	1.114784	0.138254	-0.000088
C13	C	1.034504	0.220895	-0.000117
C14	C	0.903507	0.218342	-0.000143
C15	C	0.933085	0.050500	-0.000116
C16	C	1.064078	0.053054	-0.000080
C17	C	1.085209	0.306095	-0.000126
C18	C	1.004928	0.388743	-0.000157
C19	C	0.873931	0.386190	-0.000182
C20	C	0.823217	0.300989	-0.000176
C21	C	1.492579	-0.032852	-0.000099
C22	C	1.489871	-0.135247	-0.000098
C23	C	1.479904	-0.510195	-0.000136
C24	C	1.482672	-0.405873	-0.000125
C25	C	1.484887	-0.322725	-0.000116
C26	C	1.487656	-0.218396	-0.000108
C27	C	1.713377	0.130436	-0.000130
C28	C	1.852794	0.133147	-0.000149
C29	C	1.474999	0.304253	-0.000128
C30	C	1.477707	0.406648	-0.000139
N31	N	1.483795	0.135705	0.346552
N32	N	1.483793	0.135688	-0.346777
C33	C	1.569052	0.073576	0.423205
C34	C	1.569048	0.073565	0.576542
C35	C	1.398527	0.197821	0.576560
C36	C	1.398525	0.197827	0.423226
C37	C	1.654321	0.011454	0.346531
C38	C	1.739586	-0.050679	0.423184
C39	C	1.739583	-0.050691	0.576520
C40	C	1.654315	0.011432	0.653205
H41	H	1.654334	0.011460	0.221677
H42	H	0.716549	0.298917	-0.000174
H43	H	0.808569	0.453485	-0.000192
C44	C	0.745409	-0.027937	-0.000177
C45	C	0.877340	-0.043148	-0.000130
H46	H	0.711000	-0.085753	-0.000200
H47	H	0.717850	0.006118	0.084758
H48	H	0.717905	0.006129	-0.085139
H49	H	0.904846	-0.077208	0.084838
H50	H	0.904910	-0.077217	-0.085074
C51	C	1.080167	-0.113108	-0.000091
C52	C	1.152332	-0.037786	-0.000067
H53	H	1.134654	-0.169188	-0.000090
H54	H	1.028444	-0.110618	0.084841
H55	H	1.028474	-0.110607	-0.085056
H56	H	1.204018	-0.040283	0.084905
H57	H	1.204077	-0.040277	-0.085007
C58	C	1.956857	-0.103370	0.375894
C59	C	1.833281	-0.118967	0.338869
H60	H	2.014691	-0.145535	0.323839
H61	H	1.970627	-0.041732	0.350772
H62	H	1.969065	-0.112283	0.478181
H63	H	1.821071	-0.110048	0.236582
H64	H	1.819506	-0.180620	0.363980
C65	C	1.812996	-0.209847	0.623700
C66	C	1.833300	-0.118989	0.660777
H67	H	1.870865	-0.252009	0.675709
H68	H	1.729178	-0.220436	0.648843
H69	H	1.825199	-0.218718	0.521403
H70	H	1.821088	-0.110116	0.763073
H71	H	1.917139	-0.108396	0.635644
H72	H	1.329100	0.248417	0.360815
H73	H	1.654311	0.011412	0.778062
C74	C	1.229966	0.320638	0.561183
C75	C	1.304806	0.266105	0.660847
H76	H	1.172103	0.362791	0.613221
H77	H	1.282306	0.354174	0.501379
H78	H	1.184717	0.281931	0.501376
H79	H	1.350063	0.304812	0.720648
H80	H	1.252460	0.232567	0.720676
C81	C	1.256758	0.401134	-0.000101
C82	C	1.229201	0.308903	-0.000091
H83	H	1.345652	0.402864	-0.000073
H84	H	1.221688	0.431535	-0.085059
H85	H	1.221638	0.431549	0.084839
H86	H	1.264313	0.278490	-0.085037
H87	H	1.264286	0.278490	0.084875
H88	H	1.046228	0.458110	-0.000149
