data_functionalizedCrystal
_audit_creation_method	'MofGen! by Chris Wilmer'
_symmetry_space_group_name_H-M	'P1'
_symmetry_Int_Tables_number	1
_symmetry_cell_setting	triclinic
loop_
_symmetry_equiv_pos_as_xyz
  x,y,z
_cell_length_a	12.645331
_cell_length_b	21.295417
_cell_length_c	12.645323
_cell_angle_alpha	90.032945
_cell_angle_beta	90.015738
_cell_angle_gamma	90.028938
loop_
_atom_site_label
_atom_site_type_symbol
_atom_site_fract_x
_atom_site_fract_y
_atom_site_fract_z
Zn1	Zn	1.620643	-0.250617	0.599191
Zn2	Zn	1.953976	0.082716	0.932524
Zn3	Zn	2.287309	0.416050	1.265857
Zn4	Zn	1.620487	-0.355892	0.421906
Zn5	Zn	1.953821	-0.022558	0.755239
Zn6	Zn	2.287154	0.310775	1.088572
Zn7	Zn	1.443357	-0.250639	0.421956
Zn8	Zn	1.776691	0.082694	0.755290
Zn9	Zn	2.110024	0.416028	1.088623
Zn10	Zn	1.443302	-0.355851	0.599142
Zn11	Zn	1.776635	-0.022518	0.932476
Zn12	Zn	2.109969	0.310816	1.265809
O13	O	1.531947	-0.303250	0.510549
O14	O	1.865281	0.030084	0.843882
O15	O	2.198614	0.363417	1.177215
O16	O	1.768969	-0.264590	0.575672
O17	O	2.102303	0.068743	0.909006
O18	O	2.435636	0.402077	1.242339
O19	O	1.596949	-0.341956	0.273565
O20	O	1.930282	-0.008622	0.606898
O21	O	2.263615	0.324711	0.940232
O22	O	1.466963	-0.162547	0.445508
O23	O	1.800296	0.170787	0.778842
O24	O	2.133629	0.504120	1.112175
O25	O	1.768855	-0.341935	0.445422
O26	O	2.102188	-0.008601	0.778755
O27	O	2.435522	0.324732	1.112088
O28	O	1.597214	-0.162531	0.575721
O29	O	1.930547	0.170803	0.909055
O30	O	2.263880	0.504136	1.242388
O31	O	1.466812	-0.264627	0.273602
O32	O	1.800145	0.068706	0.606936
O33	O	2.133479	0.402040	0.940269
O34	O	1.295003	-0.264588	0.445462
O35	O	1.628336	0.068746	0.778795
O36	O	1.961669	0.402079	1.112128
O37	O	1.466868	-0.341865	0.747496
O38	O	1.800202	-0.008532	1.080830
O39	O	2.133535	0.324801	1.414163
O40	O	1.294962	-0.341886	0.575639
O41	O	1.628295	-0.008553	0.908973
O42	O	1.961629	0.324780	1.242306
O43	O	1.597160	-0.264551	0.747532
O44	O	1.930493	0.068783	1.080865
O45	O	2.263827	0.402116	1.414198
O46	O	1.596895	-0.443976	0.445375
O47	O	1.930228	-0.110642	0.778708
O48	O	2.263562	0.222691	1.112042
O49	O	1.466718	-0.443946	0.575590
O50	O	1.800051	-0.110612	0.908924
O51	O	2.133384	0.222721	1.242257
C52	C	1.256518	-0.303235	0.510551
C53	C	1.589851	0.030098	0.843885
C54	C	1.923184	0.363431	1.177218
C55	C	1.138688	-0.303244	0.510578
C56	C	1.472021	0.030089	0.843911
C57	C	1.805354	0.363422	1.177244
C58	C	0.971133	-0.352140	0.592046
C59	C	1.304467	-0.018807	0.925379
C60	C	1.637800	0.314527	1.258712
C61	C	1.093693	-0.351982	0.592386
C62	C	1.427027	-0.018649	0.925720
C63	C	1.760360	0.314685	1.259053
C64	C	1.094233	-0.236943	0.541115
C65	C	1.427566	0.096390	0.874448
C66	C	1.760900	0.429723	1.207782
C67	C	0.971635	-0.237242	0.541689
C68	C	1.304968	0.096092	0.875022
C69	C	1.638301	0.429425	1.208355
C70	C	0.971436	-0.320116	0.398314
C71	C	1.304769	0.013217	0.731648
C72	C	1.638103	0.346550	1.064981
C73	C	1.094041	-0.321566	0.398920
C74	C	1.427375	0.011767	0.732253
C75	C	1.760708	0.345100	1.065586
C76	C	1.531812	-0.466801	0.510495
C77	C	1.865145	-0.133468	0.843828
C78	C	2.198479	0.199865	1.177162
C79	C	1.531851	-0.536769	0.510508
C80	C	1.865185	-0.203436	0.843841
C81	C	2.198518	0.129897	1.177174
C82	C	1.599634	-0.569571	0.578358
C83	C	1.932967	-0.236237	0.911691
C84	C	2.266301	0.097096	1.245025
C85	C	1.599672	-0.635313	0.578384
C86	C	1.933005	-0.301980	0.911718
C87	C	2.266338	0.031354	1.245051
C88	C	1.531937	-0.668252	0.510541
C89	C	1.865271	-0.334919	0.843874
C90	C	2.198604	-0.001585	1.177208
C91	C	1.464141	-0.635443	0.442686
C92	C	1.797475	-0.302109	0.776019
C93	C	2.130808	0.031224	1.109352
C94	C	1.464098	-0.569702	0.442669
C95	C	1.797432	-0.236368	0.776002
C96	C	2.130765	0.096965	1.109336
N97	N	1.523925	-0.771516	0.417766
N98	N	1.857259	-0.438183	0.751099
N99	N	2.190592	-0.104849	1.084432
N100	N	1.523972	-0.833967	0.417784
N101	N	1.857306	-0.500634	0.751118
N102	N	2.190639	-0.167301	1.084451
C103	C	1.532061	-0.866327	0.510589
C104	C	1.865394	-0.532993	0.843922
C105	C	2.198728	-0.199660	1.177255
N106	N	1.540122	-0.833875	0.603376
N107	N	1.873455	-0.500542	0.936709
N108	N	2.206788	-0.167208	1.270042
N109	N	1.540080	-0.771418	0.603356
N110	N	1.873413	-0.438084	0.936689
N111	N	2.206747	-0.104751	1.270022
C112	C	1.531976	-0.739537	0.510552
C113	C	1.865309	-0.406204	0.843885
C114	C	2.198643	-0.072871	1.177219
C115	C	1.599888	-0.970413	0.578473
C116	C	1.933221	-0.637080	0.911807
C117	C	2.266555	-0.303747	1.245140
C118	C	1.599918	-1.036157	0.578501
C119	C	1.933251	-0.702824	0.911835
C120	C	2.266585	-0.369490	1.245168
C121	C	1.464393	-1.036285	0.442793
C122	C	1.797727	-0.702952	0.776127
C123	C	2.131060	-0.369619	1.109460
C124	C	1.464358	-0.970543	0.442775
C125	C	1.797691	-0.637210	0.776108
C126	C	2.131025	-0.303876	1.109442
C127	C	1.532111	-0.937611	0.510613
C128	C	1.865444	-0.604277	0.843947
C129	C	2.198778	-0.270944	1.177280
C130	C	1.808452	-0.303264	0.510547
C131	C	2.141786	0.030069	0.843880
C132	C	2.475119	0.363402	1.177213
C133	C	1.926282	-0.303271	0.510546
C134	C	2.259616	0.030063	0.843879
C135	C	2.592949	0.363396	1.177212
C136	C	1.532025	-0.303201	0.787054
C137	C	1.865359	0.030132	1.120388
C138	C	2.198692	0.363466	1.453721
C139	C	1.532059	-0.303180	0.904884
C140	C	1.865392	0.030153	1.238218
C141	C	2.198725	0.363486	1.571551
C142	C	1.532112	-0.139059	0.510626
C143	C	1.865445	0.194274	0.843959
C144	C	2.198778	0.527607	1.177292
C145	C	1.532182	-0.069091	0.510659
C146	C	1.865515	0.264242	0.843992
C147	C	2.198849	0.597575	1.177325
C148	C	1.531930	-0.303253	0.235119
C149	C	1.865264	0.030081	0.568452
C150	C	2.198597	0.363414	0.901786
C151	C	1.532103	-0.303096	0.117290
C152	C	1.865436	0.030237	0.450623
C153	C	2.198769	0.363571	0.783956
C154	C	1.449839	-0.351590	1.072426
C155	C	1.783173	-0.018256	1.405760
C156	C	2.116506	0.315077	1.739093
C157	C	1.450055	-0.351830	0.949866
C158	C	1.783388	-0.018496	1.283200
C159	C	2.116721	0.314837	1.616533
C160	C	1.643752	-0.321184	0.949386
C161	C	1.977085	0.012149	1.282720
C162	C	2.310419	0.345482	1.616053
C163	C	1.643301	-0.321488	1.071985
C164	C	1.976634	0.011845	1.405318
C165	C	2.309968	0.345179	1.738651
C166	C	1.503641	-0.236496	1.072101
C167	C	1.836974	0.096837	1.405435
C168	C	2.170308	0.430171	1.738768
C169	C	1.501149	-0.236895	0.949495
C170	C	1.834482	0.096438	1.282829
C171	C	2.167815	0.429771	1.616162
H172	H	0.940346	-0.341136	0.674721
H173	H	1.273679	-0.007802	1.008054
H174	H	1.607013	0.325531	1.341387
H175	H	1.556690	-0.198855	0.918876
H176	H	1.890023	0.134479	1.252210
H177	H	2.223356	0.467812	1.585543
H178	H	1.423614	-0.220085	1.103019
H179	H	1.756947	0.113249	1.436352
H180	H	2.090280	0.446582	1.769686
H181	H	1.409167	-0.943834	0.387520
H182	H	1.742500	-0.610501	0.720854
H183	H	2.075834	-0.277168	1.054187
Cl184	Cl	1.378983	-0.676851	0.357404
Cl185	Cl	1.712316	-0.343517	0.690737
Cl186	Cl	2.045650	-0.010184	1.024070
Cl187	Cl	1.139020	-0.334769	0.720777
Cl188	Cl	1.472353	-0.001435	1.054111
Cl189	Cl	1.805686	0.331898	1.387444
Cl190	Cl	0.925824	-0.179120	0.454043
Cl191	Cl	1.259158	0.154213	0.787377
Cl192	Cl	1.592491	0.487546	1.120710
H193	H	1.408900	-0.542994	0.387416
H194	H	1.742234	-0.209661	0.720749
H195	H	2.075567	0.123672	1.054083
Cl196	Cl	1.680549	-0.396656	1.116140
Cl197	Cl	2.013882	-0.063322	1.449473
Cl198	Cl	2.347215	0.270011	1.782807
Cl199	Cl	1.741081	-0.269289	1.117812
Cl200	Cl	2.074415	0.064044	1.451145
Cl201	Cl	2.407748	0.397378	1.784478
H202	H	1.418952	-0.223318	0.920409
H203	H	1.752286	0.110016	1.253742
H204	H	2.085619	0.443349	1.587076
H205	H	1.655054	-0.943599	0.633715
H206	H	1.988387	-0.610265	0.967048
H207	H	2.321720	-0.276932	1.300382
H208	H	1.655115	-1.062863	0.633758
H209	H	1.988448	-0.729529	0.967091
H210	H	2.321781	-0.396196	1.300425
Cl211	Cl	0.926653	-0.265162	0.304559
Cl212	Cl	1.259986	0.068172	0.637892
Cl213	Cl	1.593319	0.401505	0.971225
Cl214	Cl	1.322180	-0.334432	0.903406
Cl215	Cl	1.655513	-0.001099	1.236739
Cl216	Cl	1.988847	0.332234	1.570073
Cl217	Cl	1.140101	-0.427897	0.562881
Cl218	Cl	1.473434	-0.094564	0.896215
Cl219	Cl	1.806767	0.238770	1.229548
H220	H	1.409236	-1.063104	0.387561
H221	H	1.742569	-0.729770	0.720894
H222	H	2.075903	-0.396437	1.054227
Cl223	Cl	1.141671	-0.214479	0.666417
Cl224	Cl	1.475005	0.118854	0.999751
Cl225	Cl	1.808338	0.452188	1.333084
Cl226	Cl	1.321577	-0.334361	1.117940
Cl227	Cl	1.654911	-0.001028	1.451273
Cl228	Cl	1.988244	0.332306	1.784607
Cl229	Cl	1.596146	-0.180714	1.116897
Cl230	Cl	1.929479	0.152619	1.450230
Cl231	Cl	2.262812	0.485953	1.783563
H232	H	0.943065	-0.222953	0.623735
H233	H	1.276398	0.110380	0.957068
H234	H	1.609732	0.443714	1.290402
Cl235	Cl	1.478498	-0.427335	1.120063
Cl236	Cl	1.811832	-0.094001	1.453396
Cl237	Cl	2.145165	0.239332	1.786730
Cl238	Cl	0.923654	-0.393482	0.355456
Cl239	Cl	1.256987	-0.060148	0.688789
Cl240	Cl	1.590320	0.273185	1.022122
H241	H	1.123379	-0.199543	0.483609
H242	H	1.456712	0.133791	0.816943
H243	H	1.790045	0.467124	1.150276
H244	H	1.654860	-0.662025	0.633649
H245	H	1.988193	-0.328692	0.966982
H246	H	2.321526	0.004642	1.300315
H247	H	1.468842	-0.401203	0.920538
H248	H	1.802175	-0.067870	1.253872
H249	H	2.135508	0.265463	1.587205
H250	H	1.706686	-0.286981	0.920252
H251	H	2.040020	0.046352	1.253585
H252	H	2.373353	0.379686	1.586918
Cl253	Cl	1.681646	-0.395565	0.901988
Cl254	Cl	2.014980	-0.062231	1.235321
Cl255	Cl	2.348313	0.271102	1.568655
Cl256	Cl	1.138898	-0.396897	0.363365
Cl257	Cl	1.472231	-0.063563	0.696698
Cl258	Cl	1.805564	0.269770	1.030032
Cl259	Cl	1.141319	-0.270595	0.300132
Cl260	Cl	1.474652	0.062738	0.633465
Cl261	Cl	1.807985	0.396071	0.966799
Cl262	Cl	0.925566	-0.428302	0.562832
Cl263	Cl	1.258899	-0.094969	0.896165
Cl264	Cl	1.592232	0.238364	1.229499
H265	H	1.654800	-0.542759	0.633599
H266	H	1.988133	-0.209426	0.966932
H267	H	2.321467	0.123908	1.300265
