data_functionalizedCrystal
_audit_creation_method	'MofGen! by Chris Wilmer'
_symmetry_space_group_name_H-M	'P1'
_symmetry_Int_Tables_number	1
_symmetry_cell_setting	triclinic
loop_
_symmetry_equiv_pos_as_xyz
  x,y,z
_cell_length_a	18.101398
_cell_length_b	18.101395
_cell_length_c	12.759393
_cell_angle_alpha	89.966555
_cell_angle_beta	89.972514
_cell_angle_gamma	90.028835
loop_
_atom_site_label
_atom_site_type_symbol
_atom_site_fract_x
_atom_site_fract_y
_atom_site_fract_z
Zn1	Zn	1.132141	-0.294831	-0.594220
Zn2	Zn	1.132031	-0.418692	-0.418534
Zn3	Zn	1.008294	-0.294864	-0.418531
Zn4	Zn	1.008250	-0.418630	-0.594148
O5	O	1.070179	-0.356754	-0.506358
O6	O	1.235759	-0.311273	-0.570946
O7	O	1.115589	-0.402306	-0.271512
O8	O	1.024787	-0.191227	-0.441866
O9	O	1.235678	-0.402274	-0.441870
O10	O	1.115776	-0.191202	-0.570943
O11	O	1.024680	-0.311330	-0.271511
O12	O	0.904655	-0.311270	-0.441796
O13	O	1.024713	-0.402168	-0.741178
O14	O	0.904623	-0.402200	-0.570821
O15	O	1.115734	-0.311213	-0.741231
O16	O	1.115547	-0.522317	-0.441800
O17	O	1.024606	-0.522271	-0.570823
C18	C	0.877768	-0.356733	-0.506301
C19	C	0.795454	-0.356741	-0.506302
C20	C	0.644746	-0.356756	-0.506349
C21	C	0.613387	-0.299463	-0.425305
C22	C	0.527769	-0.299248	-0.425571
C23	C	0.496363	-0.356771	-0.506394
C24	C	0.527507	-0.335929	-0.617241
C25	C	0.613152	-0.335505	-0.616746
C26	C	0.613141	-0.435039	-0.477522
C27	C	0.527490	-0.434627	-0.475107
C28	C	0.412504	-0.356781	-0.506426
C29	C	0.728605	-0.356745	-0.506324
C30	C	1.070080	-0.549165	-0.506327
C31	C	1.070105	-0.631479	-0.506349
C32	C	1.070268	-0.930570	-0.506406
C33	C	1.013183	-0.899247	-0.587785
C34	C	1.012912	-0.813629	-0.587530
C35	C	1.070187	-0.782187	-0.506379
C36	C	1.049054	-0.813346	-0.395649
C37	C	1.048686	-0.898991	-0.396136
C38	C	1.148610	-0.898915	-0.534782
C39	C	1.148150	-0.813263	-0.537210
C40	C	1.070143	-0.698328	-0.506356
C41	C	1.070310	-1.014429	-0.506421
C42	C	1.263341	-0.356777	-0.506416
C43	C	1.345655	-0.356786	-0.506441
C44	C	1.070231	-0.356680	-0.780392
C45	C	1.070253	-0.356648	-0.897168
C46	C	1.070299	-0.163592	-0.506412
C47	C	1.070350	-0.081278	-0.506435
C48	C	1.117654	-0.309283	-0.952060
C49	C	1.117672	-0.309256	-1.061784
C50	C	1.022885	-0.403965	-1.061716
C51	C	1.022864	-0.403988	-0.951994
C52	C	1.165044	-0.261943	-0.897234
C53	C	1.212450	-0.214575	-0.952126
C54	C	1.212467	-0.214548	-1.061850
C55	C	1.165079	-0.261889	-1.116683
C56	C	1.070170	-0.356775	-0.233391
C57	C	1.070291	-0.356599	-0.116615
H58	H	0.634936	-0.241786	-0.444198
Cl59	Cl	0.923256	-0.782090	-0.558514
Cl60	Cl	0.644471	-0.500943	-0.568629
H61	H	0.633926	-0.312319	-0.342854
H62	H	1.251027	-0.176027	-0.907474
Cl63	Cl	1.165027	-0.261976	-0.759296
Cl64	Cl	0.961571	-0.780336	-0.357873
Cl65	Cl	0.494513	-0.504023	-0.559579
Cl66	Cl	0.963271	-0.463532	-0.882982
Cl67	Cl	1.272064	-0.155003	-1.130853
Cl68	Cl	1.033322	-0.781095	-0.714295
H69	H	1.165088	-0.261855	-1.206027
Cl70	Cl	1.033388	-0.930965	-0.714963
H71	H	1.167877	-0.920457	-0.614150
Cl72	Cl	0.495251	-0.319315	-0.298691
H73	H	0.991418	-0.919034	-0.372100
Cl74	Cl	1.172758	-0.781817	-0.663026
Cl75	Cl	0.646421	-0.464420	-0.354808
H76	H	0.955466	-0.920832	-0.569225
H77	H	0.633900	-0.375437	-0.679221
H78	H	0.507308	-0.241245	-0.444709
H79	H	1.088461	-0.919715	-0.333434
Cl80	Cl	1.111225	-0.781908	-0.299477
H81	H	0.507168	-0.376387	-0.679297
Cl82	Cl	0.494439	-0.248574	-0.655528
H83	H	1.192931	-0.791857	-0.482259
Cl84	Cl	0.963318	-0.463478	-1.130649
Cl85	Cl	1.214278	-0.930203	-0.443289
Cl86	Cl	0.496055	-0.458904	-0.349157
H87	H	0.633157	-0.278292	-0.641112
