data_functionalizedCrystal
_audit_creation_method	'MofGen! by Chris Wilmer'
_symmetry_space_group_name_H-M	'P1'
_symmetry_Int_Tables_number	1
_symmetry_cell_setting	triclinic
loop_
_symmetry_equiv_pos_as_xyz
  x,y,z
_cell_length_a	27.732048
_cell_length_b	26.809956
_cell_length_c	27.732048
_cell_angle_alpha	89.999364
_cell_angle_beta	97.357345
_cell_angle_gamma	90.003258
loop_
_atom_site_label
_atom_site_type_symbol
_atom_site_fract_x
_atom_site_fract_y
_atom_site_fract_z
O1	O	0.640931	0.041421	-0.057510
O2	O	0.500138	0.041436	-0.066256
O3	O	0.574907	0.041419	0.008514
O4	O	0.566162	0.041439	-0.132280
O5	O	0.574893	-0.041541	0.008502
O6	O	0.500123	-0.041523	-0.066267
O7	O	0.640917	-0.041539	-0.057522
Zn8	Zn	0.570518	-0.054702	-0.061896
Zn9	Zn	0.570536	0.054600	-0.061881
O10	O	0.566147	-0.041521	-0.132291
C11	C	0.482124	-0.000041	-0.066078
C12	C	0.428469	-0.000036	-0.065525
N13	N	0.570509	-0.129298	-0.061906
C14	C	0.089654	-0.000051	-0.106229
C15	C	-0.112006	-0.000056	-0.104178
O16	O	-0.143262	-0.000073	-0.141398
N17	N	-0.131130	-0.000062	-0.059843
C18	C	-0.099835	-0.000069	-0.016017
O19	O	-0.120728	-0.000079	0.021740
C20	C	0.101824	-0.000068	-0.018068
C21	C	0.120944	-0.000057	-0.062407
C22	C	0.108775	-0.000042	-0.150563
C23	C	0.159187	-0.000038	-0.151076
C24	C	0.190477	-0.000044	-0.107253
C25	C	0.171356	-0.000054	-0.062919
C26	C	0.133117	-0.000079	0.025757
C27	C	0.183535	-0.000080	0.025240
C28	C	0.202655	-0.000069	-0.019098
C29	C	0.253059	-0.000056	-0.019609
N30	N	0.272183	-0.000050	-0.063944
C31	C	0.240892	-0.000044	-0.107766
C32	C	-0.205709	-0.000069	-0.014943
C33	C	-0.256124	-0.000068	-0.014430
C34	C	-0.268291	-0.000056	-0.102591
C35	C	-0.217876	-0.000053	-0.103104
C36	C	-0.186585	-0.000063	-0.059278
C37	C	0.346761	-0.000036	-0.108839
C38	C	0.397178	-0.000030	-0.109347
C39	C	0.409341	-0.000044	-0.021186
C40	C	0.358929	-0.000048	-0.020678
C41	C	0.327639	-0.000045	-0.064508
O42	O	0.284343	-0.000045	0.017592
O43	O	0.261794	-0.000045	-0.145518
C44	C	0.039242	-0.000055	-0.105716
C45	C	0.020120	-0.000065	-0.061382
C46	C	0.051411	-0.000071	-0.017560
C47	C	-0.030294	-0.000065	-0.060869
C48	C	-0.061585	-0.000059	-0.104691
C49	C	-0.042461	-0.000053	-0.149026
C50	C	0.007951	-0.000049	-0.149539
C51	C	0.032287	-0.000077	0.026775
C52	C	-0.018125	-0.000080	0.027284
C53	C	-0.049416	-0.000074	-0.016538
C54	C	0.603640	-0.473932	-0.028781
C55	C	0.603652	-0.682810	-0.028774
O56	O	0.631801	-0.709820	-0.000613
N57	N	0.570539	-0.708925	-0.061870
C58	C	0.537419	-0.682818	-0.094969
O59	O	0.509252	-0.709824	-0.123116
C60	C	0.537406	-0.473941	-0.094974
C61	C	0.570524	-0.447829	-0.061878
C62	C	0.636755	-0.447819	0.004312
C63	C	0.636754	-0.395603	0.004308
C64	C	0.603637	-0.369500	-0.028789
C65	C	0.570522	-0.395612	-0.061882
C66	C	0.504284	-0.447835	-0.128070
C67	C	0.504283	-0.395613	-0.128067
C68	C	0.537401	-0.369500	-0.094972
C69	C	0.537405	-0.317293	-0.094983
N70	N	0.570517	-0.291177	-0.061887
C71	C	0.603633	-0.317281	-0.028790
C72	C	0.537429	-0.792481	-0.094965
C73	C	0.537433	-0.844700	-0.094964
C74	C	0.603665	-0.844689	-0.028768
C75	C	0.603663	-0.792469	-0.028772
C76	C	0.570542	-0.766366	-0.061868
C77	C	0.603628	-0.207623	-0.028801
C78	C	0.603625	-0.155402	-0.028809
C79	C	0.537392	-0.155418	-0.095003
C80	C	0.537396	-0.207635	-0.094997
C81	C	0.570516	-0.233735	-0.061892
O82	O	0.509266	-0.290250	-0.123126
O83	O	0.631789	-0.290266	-0.000640
C84	C	0.603642	-0.526149	-0.028777
C85	C	0.570527	-0.552261	-0.061870
C86	C	0.537410	-0.526158	-0.094968
C87	C	0.570531	-0.604480	-0.061870
C88	C	0.603647	-0.630584	-0.028773
C89	C	0.636759	-0.604468	0.004324
C90	C	0.636758	-0.552252	0.004320
C91	C	0.504298	-0.552273	-0.128064
C92	C	0.504303	-0.604489	-0.128058
C93	C	0.537419	-0.630593	-0.094961
C94	C	0.658931	-0.000060	-0.057699
C95	C	0.712586	-0.000062	-0.058252
C96	C	0.574716	-0.000062	0.026515
C97	C	0.574164	-0.000066	0.080170
N98	N	0.570549	0.129196	-0.061867
C99	C	0.566338	-0.000039	-0.150292
C100	C	0.566891	-0.000031	-0.203947
C101	C	0.614867	-0.000045	0.418985
C102	C	0.612816	-0.000038	0.620645
O103	O	0.650037	-0.000021	0.651900
N104	N	0.568481	-0.000034	0.639768
C105	C	0.524656	-0.000028	0.608474
O106	O	0.486899	-0.000019	0.629367
C107	C	0.526707	-0.000031	0.406815
C108	C	0.571045	-0.000041	0.387694
C109	C	0.659202	-0.000054	0.399864
C110	C	0.659714	-0.000059	0.349452
C111	C	0.615892	-0.000054	0.318161
C112	C	0.571557	-0.000045	0.337282
C113	C	0.482882	-0.000022	0.375521
C114	C	0.483399	-0.000021	0.325104
C115	C	0.527737	-0.000031	0.305983
C116	C	0.528247	-0.000045	0.255580
N117	N	0.572583	-0.000050	0.236456
C118	C	0.616405	-0.000054	0.267747
C119	C	0.523582	-0.000027	0.714348
C120	C	0.523069	-0.000027	0.764762
C121	C	0.611230	-0.000036	0.776930
C122	C	0.611742	-0.000040	0.726514
C123	C	0.567917	-0.000031	0.695224
C124	C	0.617477	-0.000064	0.161878
C125	C	0.617986	-0.000071	0.111461
C126	C	0.529825	-0.000059	0.099298
C127	C	0.529316	-0.000055	0.149710
C128	C	0.573147	-0.000056	0.180999
O129	O	0.491047	-0.000057	0.224296
O130	O	0.654156	-0.000053	0.246844
C131	C	0.614355	-0.000041	0.469397
C132	C	0.570021	-0.000032	0.488518
C133	C	0.526198	-0.000027	0.457228
C134	C	0.569508	-0.000032	0.538933
C135	C	0.613330	-0.000036	0.570223
C136	C	0.657665	-0.000041	0.551100
C137	C	0.658177	-0.000045	0.500688
C138	C	0.481863	-0.000023	0.476351
C139	C	0.481355	-0.000019	0.526764
C140	C	0.525177	-0.000023	0.558054
H141	H	0.412743	-0.000021	-0.145454
H142	H	0.083302	-0.000038	-0.186251
H143	H	0.487892	-0.000020	0.688875
H144	H	-0.033688	-0.000085	0.063392
Cl145	Cl	0.426766	-0.000016	0.437021
H146	H	0.174750	-0.000029	-0.187180
H147	H	0.694889	-0.000056	0.425336
Cl148	Cl	-0.307637	-0.000051	-0.157681
H149	H	0.630630	-0.865951	-0.001820
Cl150	Cl	0.071617	-0.000084	0.081872
H151	H	0.510430	-0.134157	-0.121952
Cl152	Cl	0.645266	-0.240427	0.012817
H153	H	-0.271687	-0.000069	0.021674
Cl154	Cl	-0.166379	-0.000080	0.040158
H155	H	0.510471	-0.865958	-0.121919
Cl156	Cl	0.031981	-0.000037	-0.205281
Cl157	Cl	0.678393	-0.519432	0.045928
Cl158	Cl	0.427139	-0.000006	0.399546
H159	H	0.209009	-0.000089	0.060929
Cl160	Cl	0.109093	-0.000084	0.081500
Cl161	Cl	0.428300	-0.000010	0.285770
Cl162	Cl	0.713920	-0.000053	0.476658
H163	H	0.343360	-0.000049	0.015426
H164	H	0.663726	-0.625730	0.031271
H165	H	0.693347	-0.000047	0.576585
Cl166	Cl	0.467327	-0.000024	0.788793
Cl167	Cl	0.495766	-0.240460	-0.136609
H168	H	0.653168	-0.000063	0.187348
Cl169	Cl	0.667483	-0.000051	0.702482
Cl170	Cl	0.448687	-0.000054	0.033901
H171	H	0.477317	-0.469089	-0.155019
H172	H	0.663720	-0.374345	0.031258
Cl173	Cl	0.425609	-0.000009	0.550794
Cl174	Cl	0.645263	-0.122577	0.012799
Cl175	Cl	0.307434	-0.000032	-0.163940
H176	H	-0.202311	-0.000047	-0.139207
Cl177	Cl	0.473577	-0.000052	0.173748
Cl178	Cl	0.462663	-0.519464	-0.169676
H179	H	0.494146	-0.000057	0.073812
Cl180	Cl	-0.081807	-0.000044	-0.204117
Cl181	Cl	0.678393	-0.480627	0.045925
H182	H	0.510457	-0.771232	-0.121917
Cl183	Cl	0.645297	-0.759647	0.012837
Cl184	Cl	0.462641	-0.362802	-0.169677
Cl185	Cl	0.462666	-0.637311	-0.169670
Cl186	Cl	0.673729	-0.000082	0.087427
H187	H	0.695819	-0.000065	0.333889
H188	H	0.646911	-0.000040	0.802415
