data_functionalizedCrystal
_audit_creation_method	'MofGen! by Chris Wilmer'
_symmetry_space_group_name_H-M	'P1'
_symmetry_Int_Tables_number	1
_symmetry_cell_setting	triclinic
loop_
_symmetry_equiv_pos_as_xyz
  x,y,z
_cell_length_a	14.908610
_cell_length_b	14.908520
_cell_length_c	14.908308
_cell_angle_alpha	83.639235
_cell_angle_beta	89.826017
_cell_angle_gamma	90.203296
loop_
_atom_site_label
_atom_site_type_symbol
_atom_site_fract_x
_atom_site_fract_y
_atom_site_fract_z
Zn1	Zn	-1.316647	0.470677	-0.613097
Zn2	Zn	-1.316545	0.613316	-0.470461
Zn3	Zn	-1.176017	0.453349	-0.453154
Zn4	Zn	-1.157638	0.612237	-0.612051
O5	O	-1.241712	0.537395	-0.537191
O6	O	-1.441990	0.497302	-0.601857
O7	O	-1.305552	0.585296	-0.341973
O8	O	-1.202406	0.329458	-0.467565
O9	O	-1.441916	0.602099	-0.497063
O10	O	-1.305726	0.342189	-0.585075
O11	O	-1.202307	0.467769	-0.329257
O12	O	-1.048222	0.466723	-0.466551
O13	O	-1.171082	0.600259	-0.738383
O14	O	-1.034719	0.583457	-0.583292
O15	O	-1.287905	0.496256	-0.739151
O16	O	-1.287732	0.739363	-0.496049
O17	O	-1.170984	0.738570	-0.600074
C18	C	-1.008967	0.523093	-0.522930
C19	C	-0.909395	0.516997	-0.516852
C20	C	-0.776056	0.447549	-0.447594
C21	C	-0.869613	0.453272	-0.453301
C22	C	-0.855612	0.575002	-0.574702
C23	C	-0.762055	0.569280	-0.568995
C24	C	-0.722280	0.505552	-0.505438
C25	C	-0.628721	0.499834	-0.499727
C26	C	-0.614722	0.621560	-0.621131
C27	C	-0.708280	0.627283	-0.626838
C28	C	-1.227376	0.771689	-0.549847
C29	C	-1.221323	0.871928	-0.555297
C30	C	-1.227455	0.550070	-0.772402
C31	C	-1.221380	0.555471	-0.872635
C32	C	-0.475367	0.551745	-0.551500
C33	C	-0.574939	0.557840	-0.557577
C34	C	-1.256127	0.302189	-0.524506
C35	C	-1.262270	0.201958	-0.519100
C36	C	-1.331630	1.061064	-0.457316
C37	C	-1.325946	1.155247	-0.462434
C38	C	-1.204275	1.154479	-0.570655
C39	C	-1.209959	1.060296	-0.565537
C40	C	-1.273638	1.013591	-0.508865
C41	C	-1.279317	0.919406	-0.503743
C42	C	-1.157651	0.918641	-0.611968
C43	C	-1.151967	1.012824	-0.617086
C44	C	-1.331610	0.457301	-1.061784
C45	C	-1.325905	0.462373	-1.155962
C46	C	-1.204260	0.570682	-1.155170
C47	C	-1.209966	0.565610	-1.060992
C48	C	-1.273643	0.508919	-1.014303
C49	C	-1.279352	0.503852	-0.920124
C50	C	-1.157704	0.612156	-0.919333
C51	C	-1.151999	0.617228	-1.013510
C52	C	-1.255968	0.524707	-0.302894
C53	C	-1.262233	0.519063	-0.202658
H54	H	-0.740677	0.679166	-0.678586
H55	H	-1.152437	1.192523	-0.616801
H56	H	-1.110506	0.654189	-0.880663
H57	H	-1.331203	0.457692	-0.882111
C58	C	-0.584969	0.429734	-0.429823
H59	H	-0.630399	0.396003	-0.396198
H60	H	-0.548745	0.459810	-0.390105
H61	H	-0.548784	0.390125	-0.460046
C62	C	-1.081963	0.679586	-1.064874
H63	H	-1.086869	0.675219	-1.127764
H64	H	-1.023515	0.661869	-1.045041
H65	H	-1.092310	0.740152	-1.053513
C66	C	-1.093851	0.866424	-0.668671
H67	H	-1.055109	0.907731	-0.703147
H68	H	-1.127914	0.833852	-0.708091
H69	H	-1.059154	0.825482	-0.629745
C70	C	-0.555567	0.685364	-0.684763
H71	H	-0.494151	0.672828	-0.672266
H72	H	-0.568009	0.746154	-0.675676
H73	H	-0.568039	0.676459	-0.745606
H74	H	-1.383463	0.411145	-1.023770
C75	C	-1.349363	0.868032	-0.441411
H76	H	-1.383093	0.909798	-0.411451
H77	H	-1.319733	0.827114	-0.397995
H78	H	-1.388493	0.835502	-0.476341
C79	C	-1.389671	0.405603	-1.208194
H80	H	-1.377153	0.416738	-1.270970
H81	H	-1.449986	0.421666	-1.197155
H82	H	-1.381203	0.343373	-1.188689
C83	C	-0.732300	0.377456	-0.377686
H84	H	-0.777728	0.343728	-0.344054
H85	H	-0.696075	0.407539	-0.337975
H86	H	-0.696115	0.337843	-0.407905
C87	C	-0.928763	0.389471	-0.389673
H88	H	-0.891672	0.350703	-0.351002
H89	H	-0.965569	0.354329	-0.424339
H90	H	-0.965532	0.424022	-0.354406
C91	C	-0.899376	0.645076	-0.644625
H92	H	-0.962796	0.640171	-0.639739
H93	H	-0.881175	0.634287	-0.703587
H94	H	-0.881164	0.704004	-0.633678
C95	C	-1.401669	1.009685	-0.394979
H96	H	-1.435396	1.051448	-0.365012
H97	H	-1.372031	0.968767	-0.351569
H98	H	-1.440803	0.977155	-0.429904
H99	H	-1.373171	1.193895	-0.420460
C100	C	-1.081923	1.064204	-0.679415
H101	H	-1.086838	1.127095	-0.675076
H102	H	-1.092233	1.052802	-0.739977
H103	H	-1.023475	1.044418	-0.661629
H104	H	-1.152417	0.616837	-1.193201
