data_functionalizedCrystal
_audit_creation_method	'MofGen! by Chris Wilmer'
_symmetry_space_group_name_H-M	'P1'
_symmetry_Int_Tables_number	1
_symmetry_cell_setting	triclinic
loop_
_symmetry_equiv_pos_as_xyz
  x,y,z
_cell_length_a	17.699083
_cell_length_b	12.503552
_cell_length_c	17.699083
_cell_angle_alpha	93.511598
_cell_angle_beta	96.716985
_cell_angle_gamma	93.510006
loop_
_atom_site_label
_atom_site_type_symbol
_atom_site_fract_x
_atom_site_fract_y
_atom_site_fract_z
O1	O	1.008446	0.089172	-0.091335
O2	O	1.341779	0.422505	0.241998
O3	O	1.675113	0.755838	0.575331
O4	O	0.788069	0.089207	-0.103786
O5	O	1.121403	0.422540	0.229547
O6	O	1.454736	0.755874	0.562881
O7	O	0.904483	0.089179	0.012628
O8	O	1.237817	0.422512	0.345961
O9	O	1.571150	0.755846	0.679295
O10	O	0.892032	0.089200	-0.207749
O11	O	1.225365	0.422533	0.125584
O12	O	1.558699	0.755867	0.458917
O13	O	0.895718	-0.089461	0.003865
O14	O	1.229052	0.243872	0.337199
O15	O	1.562385	0.577205	0.670532
O16	O	0.779304	-0.089433	-0.112549
O17	O	1.112638	0.243900	0.220785
O18	O	1.445971	0.577233	0.554118
O19	O	0.999681	-0.089469	-0.100098
O20	O	1.333014	0.243865	0.233235
O21	O	1.666348	0.577198	0.566569
Cu22	Cu	0.888692	-0.105762	-0.107124
Cu23	Cu	1.222026	0.227571	0.226210
Cu24	Cu	1.555359	0.560904	0.559543
Cu25	Cu	0.899058	0.105501	-0.096761
Cu26	Cu	1.232391	0.438834	0.236573
Cu27	Cu	1.565725	0.772167	0.569906
O28	O	0.883267	-0.089440	-0.216512
O29	O	1.216600	0.243893	0.116821
O30	O	1.549934	0.577226	0.450155
C31	C	0.755490	-0.000109	-0.107721
C32	C	1.088823	0.333225	0.225612
C33	C	1.422157	0.666558	0.558946
C34	C	0.671473	-0.000095	-0.106382
C35	C	1.004806	0.333238	0.226952
C36	C	1.338139	0.666571	0.560285
C37	C	0.622852	-0.000089	-0.174715
C38	C	0.956185	0.333244	0.158618
C39	C	1.289519	0.666577	0.491952
C40	C	0.543908	-0.000103	-0.173453
C41	C	0.877241	0.333230	0.159880
C42	C	1.210575	0.666563	0.493213
C43	C	0.513587	-0.000116	-0.103857
C44	C	0.846920	0.333218	0.229476
C45	C	1.180253	0.666551	0.562809
C46	C	0.562213	-0.000125	-0.035519
C47	C	0.895547	0.333208	0.297814
C48	C	1.228880	0.666542	0.631147
C49	C	0.641155	-0.000119	-0.036782
C50	C	0.974489	0.333215	0.296551
C51	C	1.307822	0.666548	0.629885
C52	C	0.243849	-0.000152	-0.030425
C53	C	0.577182	0.333181	0.302908
C54	C	0.910516	0.666515	0.636241
C55	C	0.164901	-0.000155	-0.029168
C56	C	0.498234	0.333178	0.304166
C57	C	0.831567	0.666511	0.637499
C58	C	0.146602	-0.000137	-0.167097
C59	C	0.479935	0.333197	0.166237
C60	C	0.813268	0.666530	0.499570
C61	C	0.225544	-0.000130	-0.168359
C62	C	0.558877	0.333203	0.164974
C63	C	0.892210	0.666536	0.498307
C64	C	0.274163	-0.000145	-0.100022
C65	C	0.607496	0.333188	0.233311
C66	C	0.940830	0.666521	0.566645
C67	C	0.359763	-0.000132	-0.101391
C68	C	0.693096	0.333201	0.231943
C69	C	1.026430	0.666535	0.565276
C70	C	0.427989	-0.000121	-0.102487
C71	C	0.761322	0.333212	0.230846
C72	C	1.094655	0.666545	0.564179
N73	N	0.881407	-0.254353	-0.114412
N74	N	1.214740	0.078980	0.218922
N75	N	1.548074	0.412313	0.552255
C76	C	0.917062	-0.526795	-0.078743
C77	C	1.250396	-0.193462	0.254591
C78	C	1.583729	0.139872	0.587924
C79	C	0.870697	-0.473460	-0.125133
C80	C	1.204030	-0.140126	0.208200
C81	C	1.537363	0.193207	0.541534
C82	C	0.876658	-0.351538	-0.119166
C83	C	1.209991	-0.018204	0.214167
C84	C	1.543324	0.315129	0.547501
C85	C	0.911102	-0.648728	-0.084709
C86	C	1.244436	-0.315395	0.248625
C87	C	1.577769	0.017938	0.581958
C88	C	1.032260	-0.000151	-0.096163
C89	C	1.365594	0.333183	0.237170
C90	C	1.698927	0.666516	0.570504
C91	C	1.116278	-0.000157	-0.097502
C92	C	1.449612	0.333177	0.235831
C93	C	1.782945	0.666510	0.569165
C94	C	0.899655	-0.000141	0.036444
C95	C	1.232988	0.333192	0.369777
C96	C	1.566321	0.666525	0.703110
C97	C	0.898316	-0.000142	0.120462
C98	C	1.231649	0.333192	0.453795
C99	C	1.564983	0.666525	0.787128
N100	N	0.906349	0.254092	-0.089466
N101	N	1.239683	0.587425	0.243867
N102	N	1.573016	0.920758	0.577200
C103	C	0.888096	-0.000118	-0.240328
C104	C	1.221429	0.333215	0.093006
C105	C	1.554762	0.666549	0.426339
C106	C	0.889435	-0.000111	-0.324345
C107	C	1.222768	0.333223	0.008988
C108	C	1.556101	0.666556	0.342321
C109	C	0.966649	-0.000154	0.169082
C110	C	1.299982	0.333179	0.502415
C111	C	1.633316	0.666513	0.835749
C112	C	0.965387	-0.000144	0.248026
C113	C	1.298720	0.333189	0.581359
C114	C	1.632054	0.666522	0.914692
C115	C	0.895791	-0.000130	0.278347
C116	C	1.229125	0.333203	0.611681
C117	C	1.562458	0.666537	0.945014
C118	C	0.827453	-0.000114	0.229721
C119	C	1.160787	0.333219	0.563054
C120	C	1.494120	0.666553	0.896388
C121	C	0.828716	-0.000116	0.150779
C122	C	1.162050	0.333217	0.484112
C123	C	1.495383	0.666551	0.817446
C124	C	0.822359	-0.000105	0.548084
C125	C	1.155692	0.333229	0.881418
C126	C	1.489025	0.666562	1.214751
C127	C	0.821101	-0.000106	0.627032
C128	C	1.154434	0.333228	0.960366
C129	C	1.487767	0.666561	1.293699
C130	C	0.959029	-0.000133	0.645331
C131	C	1.292363	0.333201	0.978665
C132	C	1.625696	0.666534	1.311998
C133	C	0.960292	-0.000135	0.566389
C134	C	1.293626	0.333199	0.899723
C135	C	1.626959	0.666532	1.233056
C136	C	0.891955	-0.000113	0.517770
C137	C	1.225288	0.333220	0.851103
C138	C	1.558622	0.666553	1.184437
C139	C	0.893324	-0.000122	0.432171
C140	C	1.226658	0.333211	0.765504
C141	C	1.559991	0.666545	1.098837
C142	C	0.894421	-0.000129	0.363945
C143	C	1.227754	0.333204	0.697278
C144	C	1.561088	0.666538	1.030612
H145	H	0.504324	-0.000097	-0.229097
H146	H	0.837657	0.333236	0.104236
H147	H	1.170990	0.666570	0.437570
Br148	Br	0.266690	-0.000103	-0.262813
Br149	Br	0.600024	0.333230	0.070520
Br150	Br	0.933357	0.666563	0.403853
H151	H	0.107005	-0.000130	-0.222741
H152	H	0.440339	0.333203	0.110593
H153	H	0.773672	0.666537	0.443926
Br154	Br	0.990682	-0.450291	-0.005082
Br155	Br	1.324015	-0.116957	0.328252
Br156	Br	1.657349	0.216376	0.661585
H157	H	1.023321	-0.000172	0.144401
H158	H	1.356655	0.333161	0.477734
H159	H	1.689988	0.666494	0.811067
H160	H	0.764424	-0.000096	0.651716
H161	H	1.097757	0.333237	0.985050
H162	H	1.431091	0.666571	1.318383
Br163	Br	0.735976	-0.000090	0.084793
Br164	Br	1.069309	0.333243	0.418126
Br165	Br	1.402642	0.666576	0.751460
H166	H	0.140217	-0.000167	0.027509
H167	H	0.473550	0.333166	0.360842
H168	H	0.806883	0.666500	0.694176
H169	H	1.021031	-0.000157	0.287610
H170	H	1.354364	0.333176	0.620943
H171	H	1.687697	0.666510	0.954276
H172	H	0.826526	-0.519365	-0.169331
H173	H	1.159859	-0.186031	0.164003
H174	H	1.493193	0.147302	0.497336
Br175	Br	0.729615	-0.000069	0.482111
Br176	Br	1.062949	0.333265	0.815445
Br177	Br	1.396282	0.666598	1.148778
Br178	Br	1.054747	-0.000154	0.525243
Br179	Br	1.388080	0.333180	0.858576
Br180	Br	1.721413	0.666513	1.191910
Br181	Br	1.051775	-0.000161	0.711319
Br182	Br	1.385108	0.333172	1.044652
Br183	Br	1.718442	0.666505	1.377985
H184	H	0.647533	-0.000078	-0.231388
H185	H	0.980866	0.333255	0.101945
H186	H	1.314200	0.666588	0.435279
Br187	Br	0.309823	-0.000175	0.062319
Br188	Br	0.643156	0.333158	0.395652
Br189	Br	0.976489	0.666491	0.728985
H190	H	0.770788	-0.000095	0.254415
H191	H	1.104121	0.333238	0.587748
H192	H	1.437454	0.666571	0.921082
H193	H	0.680742	-0.000123	0.018862
H194	H	1.014076	0.333210	0.352195
H195	H	1.347409	0.666543	0.685529
Br196	Br	0.521063	-0.000153	0.058933
Br197	Br	0.854397	0.333181	0.392267
Br198	Br	1.187730	0.666514	0.725600
