data_functionalizedCrystal
_audit_creation_method	'MofGen! by Chris Wilmer'
_symmetry_space_group_name_H-M	'P1'
_symmetry_Int_Tables_number	1
_symmetry_cell_setting	triclinic
loop_
_symmetry_equiv_pos_as_xyz
  x,y,z
_cell_length_a	11.792241
_cell_length_b	19.188930
_cell_length_c	10.268362
_cell_angle_alpha	89.989600
_cell_angle_beta	89.999626
_cell_angle_gamma	83.669099
loop_
_atom_site_label
_atom_site_type_symbol
_atom_site_fract_x
_atom_site_fract_y
_atom_site_fract_z
O1	O	1.505476	0.095695	-0.108190
O2	O	2.005476	0.595695	0.391810
O3	O	1.174988	0.105558	-0.108222
O4	O	1.674988	0.605558	0.391778
O5	O	1.349769	-0.000975	-0.108179
O6	O	1.849769	0.499025	0.391821
O7	O	1.330695	0.202228	-0.108232
O8	O	1.830695	0.702228	0.391768
O9	O	1.349754	-0.000980	0.108421
O10	O	1.849754	0.499020	0.608421
O11	O	1.174973	0.105553	0.108379
O12	O	1.674973	0.605553	0.608379
O13	O	1.505461	0.095691	0.108411
O14	O	2.005461	0.595691	0.608411
Cu15	Cu	1.340216	0.100622	0.128172
Cu16	Cu	1.840216	0.600622	0.628172
Cu17	Cu	1.340233	0.100627	-0.127983
Cu18	Cu	1.840233	0.600627	0.372017
O19	O	1.330680	0.202224	0.108368
O20	O	1.830680	0.702224	0.608368
C21	C	1.132699	0.104936	0.000075
C22	C	1.632699	0.604936	0.500075
C23	C	1.006713	0.103082	0.000064
C24	C	1.506713	0.603082	0.500064
C25	C	0.776051	0.099672	0.000102
C26	C	1.276051	0.599672	0.500102
C27	C	0.904408	0.101566	0.000081
C28	C	1.404408	0.601566	0.500081
C29	C	1.349144	-0.026992	0.000125
C30	C	1.849144	0.473008	0.500125
C31	C	1.347290	-0.104507	0.000136
C32	C	1.847290	0.395493	0.500136
C33	C	1.449846	-0.148850	0.000152
C34	C	1.949846	0.351150	0.500152
C35	C	1.448104	-0.221684	0.000131
C36	C	1.948104	0.278316	0.500131
C37	C	1.343800	-0.250171	0.000120
C38	C	1.843800	0.249829	0.500120
C39	C	1.241230	-0.205818	0.000096
C40	C	1.741230	0.294182	0.500096
C41	C	1.242975	-0.132986	0.000104
C42	C	1.742975	0.367014	0.500104
N43	N	1.264067	-0.358629	0.073825
N44	N	1.764067	0.141371	0.573825
N45	N	1.262416	-0.427817	0.073820
N46	N	1.762416	0.072183	0.573820
C47	C	1.338536	-0.469609	0.000093
C48	C	1.838536	0.030391	0.500093
N49	N	1.416387	-0.439602	-0.073614
N50	N	1.916387	0.060398	0.426386
N51	N	1.418041	-0.370407	-0.073603
N52	N	1.918041	0.129593	0.426397
C53	C	1.341896	-0.329144	0.000110
C54	C	1.841896	0.170856	0.500110
C55	C	1.439211	-0.592928	0.000084
C56	C	1.939211	-0.092928	0.500084
C57	C	1.437464	-0.665762	0.000055
C58	C	1.937464	-0.165762	0.500055
C59	C	1.230588	-0.649895	0.000034
C60	C	1.730588	-0.149895	0.500034
C61	C	1.232337	-0.577062	0.000050
C62	C	1.732337	-0.077062	0.500050
C63	C	1.336652	-0.548583	0.000081
C64	C	1.836652	-0.048583	0.500081
C65	C	1.547751	0.096313	0.000111
C66	C	2.047751	0.596313	0.500111
C67	C	1.673737	0.098167	0.000114
C68	C	2.173737	0.598167	0.500114
C69	C	1.331305	0.228240	0.000062
C70	C	1.831305	0.728240	0.500062
C71	C	1.333159	0.305755	0.000042
C72	C	1.833159	0.805755	0.500042
N73	N	1.340211	0.100617	0.308338
N74	N	1.840211	0.600617	0.808338
N75	N	1.340247	0.100625	-0.308149
N76	N	1.840247	0.600625	0.191851
C77	C	1.340228	0.100625	0.574009
C78	C	1.840228	0.600625	1.074009
C79	C	1.340215	0.100623	0.426171
C80	C	1.840215	0.600623	0.926171
H81	H	1.534787	-0.125667	0.000173
H82	H	2.034787	0.374333	0.500173
O83	O	1.540563	-0.565289	-0.000137
O84	O	2.040563	-0.065289	0.499863
C85	C	1.717935	-0.556577	-0.112309
C86	C	2.217935	-0.056577	0.387691
C87	C	1.603186	-0.587909	-0.112231
C88	C	2.103186	-0.087909	0.387769
H89	H	1.768609	-0.574865	-0.202913
H90	H	2.268609	-0.074865	0.297087
H91	H	1.701630	-0.496901	-0.112383
H92	H	2.201630	0.003099	0.387617
H93	H	1.768554	-0.574808	-0.021623
H94	H	2.268554	-0.074808	0.478377
H95	H	1.552508	-0.569732	-0.202901
H96	H	2.052508	-0.069732	0.297099
H97	H	1.619571	-0.647581	-0.112089
H98	H	2.119571	-0.147581	0.387911
H99	H	1.520981	-0.701866	0.000061
H100	H	2.020981	-0.201866	0.500061
H101	H	1.531620	-0.257795	0.000139
H102	H	2.031620	0.242205	0.500139
O103	O	1.129365	-0.677674	0.000074
O104	O	1.629365	-0.177674	0.500074
C105	C	1.034991	-0.782844	-0.000047
C106	C	1.534991	-0.282844	0.499953
C107	C	1.149708	-0.751474	-0.000052
C108	C	1.649708	-0.251474	0.499948
H109	H	1.051398	-0.842515	-0.000176
H110	H	1.551398	-0.342515	0.499824
H111	H	0.984298	-0.764677	0.090616
H112	H	1.484298	-0.264677	0.590616
H113	H	0.984340	-0.764557	-0.090678
H114	H	1.484340	-0.264557	0.409322
H115	H	1.200451	-0.769747	0.090518
H116	H	1.700451	-0.269747	0.590518
H117	H	1.200314	-0.769638	-0.090774
H118	H	1.700314	-0.269638	0.409226
O119	O	1.132637	-0.534055	-0.000123
O120	O	1.632637	-0.034055	0.499877
C121	C	0.956395	-0.498168	-0.112389
C122	C	1.456395	0.001832	0.387611
C123	C	1.069256	-0.546924	-0.112335
C124	C	1.569256	-0.046924	0.387665
H125	H	0.905131	-0.508545	-0.203116
H126	H	1.405131	-0.008545	0.296884
H127	H	0.904961	-0.508597	-0.021810
H128	H	1.404961	-0.008597	0.478190
H129	H	0.975584	-0.441226	-0.112317
H130	H	1.475584	0.058774	0.387683
H131	H	1.050171	-0.603884	-0.112453
H132	H	1.550171	-0.103884	0.387547
H133	H	1.120657	-0.536435	-0.202906
H134	H	1.620657	-0.036435	0.297094
O135	O	1.139981	-0.233570	-0.000086
O136	O	1.639981	0.266430	0.499914
C137	C	1.017934	-0.306547	-0.112361
C138	C	1.517934	0.193453	0.387639
C139	C	1.132653	-0.275180	-0.112293
C140	C	1.632653	0.224820	0.387707
H141	H	1.011962	-0.340184	-0.203085
H142	H	1.511962	0.159816	0.296915
H143	H	1.011919	-0.340304	-0.021778
H144	H	1.511919	0.159696	0.478222
H145	H	0.944949	-0.262328	-0.112308
H146	H	1.444949	0.237672	0.387692
H147	H	1.205704	-0.319353	-0.112392
H148	H	1.705704	0.180647	0.387608
H149	H	1.138569	-0.241405	-0.202868
H150	H	1.638569	0.258595	0.297132
H151	H	1.159459	-0.096881	0.000091
H152	H	1.659459	0.403119	0.500091
