data_functionalizedCrystal
_audit_creation_method	'MofGen! by Chris Wilmer'
_symmetry_space_group_name_H-M	'P1'
_symmetry_Int_Tables_number	1
_symmetry_cell_setting	triclinic
loop_
_symmetry_equiv_pos_as_xyz
  x,y,z
_cell_length_a	11.026607
_cell_length_b	13.330367
_cell_length_c	14.853567
_cell_angle_alpha	90.008763
_cell_angle_beta	83.889526
_cell_angle_gamma	90.008285
loop_
_atom_site_label
_atom_site_type_symbol
_atom_site_fract_x
_atom_site_fract_y
_atom_site_fract_z
O1	O	1.610806	0.083402	-0.377611
O2	O	1.257427	0.083406	-0.334611
O3	O	1.443556	0.083407	-0.226404
O4	O	1.424677	0.083401	-0.485818
O5	O	1.443527	-0.083440	-0.226422
O6	O	1.257399	-0.083441	-0.334629
O7	O	1.610777	-0.083445	-0.377628
Cu8	Cu	1.434086	-0.098677	-0.356130
Cu9	Cu	1.434119	0.098639	-0.356109
O10	O	1.424649	-0.083446	-0.485835
C11	C	1.212189	-0.000017	-0.326687
C12	C	1.077435	-0.000015	-0.303039
C13	C	1.003739	-0.000016	-0.368335
C14	C	0.864464	-0.000014	-0.343895
N15	N	1.434071	-0.237459	-0.356145
C16	C	1.507843	-0.710073	-0.422769
C17	C	1.360432	-0.710058	-0.289420
C18	C	1.360415	-0.605040	-0.289431
C19	C	1.434114	-0.552533	-0.356111
C20	C	1.507830	-0.605045	-0.422780
C21	C	1.286709	-0.552520	-0.222758
C22	C	1.286689	-0.447495	-0.222765
C23	C	1.360383	-0.394987	-0.289450
C24	C	1.434101	-0.447505	-0.356123
C25	C	1.507800	-0.394999	-0.422803
C26	C	1.581512	-0.447515	-0.489480
C27	C	1.581523	-0.552537	-0.489465
C28	C	1.360372	-0.289965	-0.289465
C29	C	1.507787	-0.289971	-0.422815
C30	C	1.656016	-0.000020	-0.385552
C31	C	1.790770	-0.000015	-0.409200
C32	C	1.442686	-0.000014	-0.192686
C33	C	1.440123	-0.000005	-0.092189
N34	N	1.434144	0.237420	-0.356088
C35	C	1.425519	-0.000023	-0.519553
C36	C	1.428082	-0.000025	-0.620050
C37	C	1.318723	-0.000023	0.339934
C38	C	1.539848	-0.000025	0.325534
C39	C	1.542258	-0.000019	0.231112
C40	C	1.432899	-0.000016	0.191096
C41	C	1.321130	-0.000020	0.245503
C42	C	1.654025	-0.000026	0.176698
C43	C	1.656440	-0.000021	0.082269
C44	C	1.547080	-0.000011	0.042252
C45	C	1.435306	-0.000014	0.096665
C46	C	1.325947	-0.000011	0.056649
C47	C	1.214172	-0.000006	0.111061
C48	C	1.211769	-0.000010	0.205486
C49	C	1.549482	-0.000007	-0.052173
C50	C	1.328354	-0.000008	-0.037782
H51	H	1.037419	0.000012	-0.229045
H52	H	0.830779	-0.000023	-0.483200
C53	C	1.206735	-0.609700	-0.150466
C54	C	1.222410	-0.712916	-0.164783
C55	C	1.148740	-0.765623	-0.098210
H56	H	1.229162	-0.592633	-0.092393
H57	H	1.123691	-0.592517	-0.153679
H58	H	1.305435	-0.730092	-0.161561
H59	H	1.199975	-0.730013	-0.222842
H60	H	1.065696	-0.748439	-0.101423
H61	H	1.171173	-0.748547	-0.040142
H62	H	1.159356	-0.835659	-0.107920
H63	H	1.239299	-0.000002	-0.070355
C64	C	1.587936	-0.233149	-0.495264
C65	C	1.652508	-0.301621	-0.553635
C66	C	1.726364	-0.249314	-0.620378
H67	H	1.538389	-0.192194	-0.528770
H68	H	1.643802	-0.192184	-0.467432
H69	H	1.596649	-0.342569	-0.581465
H70	H	1.702078	-0.342579	-0.520155
H71	H	1.782230	-0.208349	-0.592547
H72	H	1.676808	-0.208361	-0.653877
H73	H	1.770193	-0.295764	-0.659986
C74	C	1.206522	-0.390664	-0.150332
C75	C	1.141963	-0.459127	-0.091948
C76	C	1.068086	-0.406809	-0.025221
H77	H	1.256054	-0.349665	-0.116832
H78	H	1.150649	-0.349742	-0.178177
H79	H	1.197829	-0.500031	-0.064105
H80	H	1.092408	-0.500128	-0.125422
H81	H	1.012213	-0.365887	-0.053066
H82	H	1.117627	-0.365812	0.008272
H83	H	1.024265	-0.453253	0.014395
H84	H	1.043756	-0.000023	-0.442329
H85	H	1.640487	-0.000018	-0.096471
H86	H	0.824453	0.000013	-0.269896
H87	H	1.641523	-0.404751	-0.543768
C88	C	1.095573	0.000046	0.067438
C89	C	1.121615	0.000066	-0.026901
C90	C	1.012397	0.000127	-0.067119
H91	H	1.049647	-0.058119	0.085759
H92	H	1.049751	0.058256	0.085819
H93	H	1.167417	-0.058138	-0.045274
H94	H	1.167524	0.058226	-0.045247
H95	H	0.966576	0.058336	-0.048738
H96	H	0.966480	-0.058039	-0.048792
H97	H	1.030052	0.000149	-0.131132
C98	C	1.197336	0.000190	0.398959
C99	C	1.131252	0.086044	0.380355
C100	C	1.019432	0.086282	0.434720
H101	H	1.152144	-0.057924	0.386484
H102	H	1.211509	0.000246	0.460939
H103	H	1.117075	0.085979	0.318389
H104	H	1.176407	0.144172	0.392834
H105	H	1.033605	0.086338	0.496700
H106	H	0.974251	0.028164	0.422241
H107	H	0.974585	0.144536	0.422111
C108	C	1.661516	-0.609736	-0.561744
C109	C	1.645780	-0.712947	-0.547443
C110	C	1.719462	-0.765674	-0.613998
H111	H	1.639138	-0.592675	-0.619826
H112	H	1.744563	-0.592563	-0.558498
H113	H	1.562751	-0.730114	-0.550697
H114	H	1.668165	-0.730038	-0.489374
H115	H	1.802509	-0.748500	-0.610752
H116	H	1.697078	-0.748605	-0.672075
H117	H	1.708804	-0.835708	-0.604299
C118	C	1.090389	0.000195	0.264518
C119	C	1.024295	0.086050	0.245930
C120	C	0.912484	0.086277	0.300306
H121	H	1.045196	-0.057918	0.252041
H122	H	1.104573	0.000243	0.326496
H123	H	1.010107	0.085993	0.183966
H124	H	1.069450	0.144177	0.258412
H125	H	0.926668	0.086325	0.362284
H126	H	0.867303	0.028160	0.287825
H127	H	0.867631	0.144533	0.287708
C128	C	1.777667	-0.000064	0.023044
C129	C	1.756374	-0.000079	-0.068216
C130	C	1.868018	-0.000127	-0.122801
H131	H	1.822799	0.058103	0.035461
H132	H	1.822707	-0.058271	0.035495
H133	H	1.711354	0.058122	-0.080662
H134	H	1.711261	-0.058242	-0.080661
H135	H	1.913058	-0.058333	-0.110350
H136	H	1.913142	0.058042	-0.110376
H137	H	1.853587	-0.000146	-0.184727
H138	H	1.567854	-0.752837	-0.477057
H139	H	1.300438	-0.752815	-0.235127
H140	H	1.300360	-0.247211	-0.235176
H141	H	1.628883	-0.000035	0.358121
H142	H	1.743059	-0.000037	0.209286
