data_functionalizedCrystal
_audit_creation_method	'MofGen! by Chris Wilmer'
_symmetry_space_group_name_H-M	'P1'
_symmetry_Int_Tables_number	1
_symmetry_cell_setting	triclinic
loop_
_symmetry_equiv_pos_as_xyz
  x,y,z
_cell_length_a	12.837943
_cell_length_b	11.792241
_cell_length_c	11.295483
_cell_angle_alpha	94.123059
_cell_angle_beta	85.461227
_cell_angle_gamma	89.511178
loop_
_atom_site_label
_atom_site_type_symbol
_atom_site_fract_x
_atom_site_fract_y
_atom_site_fract_z
O1	O	1.384055	0.288341	-0.099005
O2	O	1.082168	0.273757	-0.099012
O3	O	1.240437	0.116622	-0.099000
O4	O	1.225787	0.445476	-0.099017
O5	O	1.226536	0.130400	0.099050
O6	O	1.068267	0.287535	0.099038
O7	O	1.370154	0.302119	0.099045
Cu8	Cu	1.217941	0.296085	0.117125
Cu9	Cu	1.234381	0.279791	-0.117092
O10	O	1.211885	0.459254	0.099033
C11	C	1.036570	0.275719	0.000012
C12	C	0.921410	0.261025	0.000010
C13	C	0.681444	0.437671	0.000018
C14	C	0.573241	0.423870	0.000016
C15	C	0.596797	0.219624	0.000014
C16	C	0.705001	0.233425	0.000016
C17	C	0.747320	0.342452	0.000016
C18	C	0.855526	0.356251	0.000008
C19	C	0.879080	0.152006	0.000015
C20	C	0.770877	0.138205	0.000013
C21	C	1.232566	0.081127	0.000025
C22	C	1.229812	-0.045167	0.000023
C23	C	1.224748	-0.276394	0.000003
C24	C	1.227561	-0.147723	0.000014
C25	C	1.415753	0.300157	0.000018
C26	C	1.530913	0.314850	0.000013
C27	C	1.219756	0.494749	0.000006
C28	C	1.222512	0.621042	-0.000001
N29	N	1.206386	0.307545	0.281860
N30	N	1.245945	0.268322	-0.281827
C31	C	1.329126	0.185760	0.531159
C32	C	1.320401	0.194430	0.655822
C33	C	1.180207	0.333547	0.655852
C34	C	1.188932	0.324878	0.531189
C35	C	1.263395	0.250983	0.468847
C36	C	1.272124	0.242320	0.344181
C37	C	1.131925	0.381431	0.344213
C38	C	1.123200	0.390100	0.468876
H39	H	0.932729	0.074471	0.000005
H40	H	0.889980	0.445026	0.000010
C41	C	1.060669	0.452454	0.276626
C42	C	1.076020	0.567987	0.306931
C43	C	1.010412	0.633451	0.244684
H44	H	0.989904	0.434163	0.297020
H45	H	1.076533	0.436792	0.193439
H46	H	1.060149	0.583642	0.390099
H47	H	1.146772	0.586313	0.286534
H48	H	1.026276	0.617789	0.161498
H49	H	0.939651	0.615151	0.265083
H50	H	1.020826	0.711847	0.265229
H51	H	0.562315	0.130866	0.000112
H52	H	1.119573	0.393702	0.706627
H53	H	1.062571	0.450261	0.519649
C54	C	0.727476	0.555992	-0.000233
C55	C	0.796039	0.562799	-0.102140
C56	C	0.838451	0.671783	-0.102419
H57	H	0.764427	0.570539	0.068751
H58	H	0.672778	0.610760	-0.000301
H59	H	0.850728	0.508047	-0.102060
H60	H	0.759113	0.548273	-0.171140
H61	H	0.783754	0.726551	-0.102487
H62	H	0.875397	0.686321	-0.033431
H63	H	0.884968	0.676419	-0.171566
H64	H	0.519607	0.501409	0.000021
C65	C	1.352837	0.161877	0.276587
C66	C	1.333213	0.050573	0.306934
C67	C	1.407534	-0.023579	0.244696
H68	H	1.420748	0.182992	0.296960
H69	H	1.348637	0.165949	0.193399
H70	H	1.337423	0.046505	0.390103
H71	H	1.265316	0.029422	0.286558
H72	H	1.403334	-0.019507	0.161508
H73	H	1.475440	-0.002453	0.265074
H74	H	1.394224	-0.099108	0.265269
C75	C	0.724729	0.019928	-0.000049
C76	C	0.615871	0.028216	-0.000077
C77	C	0.573329	-0.080720	-0.000155
H78	H	0.742342	-0.015075	0.068993
H79	H	0.752090	-0.024586	-0.069145
H80	H	0.588519	0.072713	0.069011
H81	H	0.598228	0.063199	-0.069114
H82	H	0.600690	-0.125234	-0.069250
H83	H	0.590950	-0.115714	0.068888
H84	H	0.499465	-0.075112	-0.000185
C85	C	1.409848	0.105363	0.463512
C86	C	1.390287	-0.005970	0.493797
C87	C	1.464620	-0.080059	0.431487
H88	H	1.477759	0.126501	0.483867
H89	H	1.405616	0.109477	0.380334
H90	H	1.394529	-0.010080	0.576956
H91	H	1.322390	-0.027143	0.473438
H92	H	1.460388	-0.075945	0.348309
H93	H	1.532526	-0.058911	0.451847
H94	H	1.451352	-0.155608	0.452018
H95	H	1.373924	0.141318	0.706553
