data_functionalizedCrystal
_audit_creation_method	'MofGen! by Chris Wilmer'
_symmetry_space_group_name_H-M	'P1'
_symmetry_Int_Tables_number	1
_symmetry_cell_setting	triclinic
loop_
_symmetry_equiv_pos_as_xyz
  x,y,z
_cell_length_a	16.109317
_cell_length_b	9.016244
_cell_length_c	16.109301
_cell_angle_alpha	90.002250
_cell_angle_beta	96.535101
_cell_angle_gamma	89.997252
loop_
_atom_site_label
_atom_site_type_symbol
_atom_site_fract_x
_atom_site_fract_y
_atom_site_fract_z
O1	O	-1.103127	0.123182	0.106929
O2	O	-0.861067	0.123220	0.120214
O3	O	-0.988747	0.123190	-0.007459
O4	O	-0.975448	0.123212	0.234602
O5	O	-0.988728	-0.123491	-0.007456
O6	O	-0.861048	-0.123461	0.120217
O7	O	-1.103109	-0.123499	0.106932
Cu8	Cu	-0.982077	-0.146004	0.113575
Cu9	Cu	-0.982099	0.145725	0.113571
O10	O	-0.975429	-0.123469	0.234605
C11	C	-0.830083	-0.000116	0.119675
C12	C	-0.737789	-0.000102	0.118054
N13	N	-0.982067	-0.351190	0.113577
C14	C	-0.438725	0.134347	0.112819
C15	C	-0.525446	0.134353	0.114336
C16	C	-0.525445	-0.134591	0.114328
C17	C	-0.438726	-0.134596	0.112805
C18	C	-0.395368	-0.000123	0.112054
C19	C	-0.568808	-0.000111	0.115095
C20	C	-0.662835	-0.000105	0.116740
C21	C	-0.301335	-0.000128	0.110408
C22	C	-0.913562	-0.586207	0.181648
C23	C	-0.913710	-0.414315	0.181899
C24	C	-1.068814	-0.413540	0.132507
C25	C	-1.068439	-0.585485	0.132988
C26	C	-0.964692	-0.585738	0.026346
C27	C	-0.962692	-0.413783	0.026931
C28	C	-0.134092	-0.000152	0.107472
C29	C	-0.226387	-0.000133	0.109095
C30	C	-0.988199	-0.000149	-0.038433
C31	C	-0.986583	-0.000147	-0.130728
N32	N	-0.982115	0.350911	0.113563
C33	C	-1.057066	-0.000133	-0.439722
C34	C	-1.058591	-0.000141	-0.353002
C35	C	-0.907104	-0.000138	-0.333137
C36	C	-0.905579	-0.000139	-0.419856
C37	C	-0.980563	-0.000129	-0.473147
C38	C	-0.983613	-0.000136	-0.299708
C39	C	-0.985266	-0.000146	-0.205681
C40	C	-0.978910	-0.000123	-0.567179
C41	C	-0.975977	-0.000126	0.265578
C42	C	-0.977592	-0.000118	0.357874
H43	H	-0.403425	0.243844	0.112207
H44	H	-0.403423	-0.244105	0.112181
H45	H	-1.120888	-0.000147	-0.325792
Cl46	Cl	-1.151331	-0.000128	-0.506713
Cl47	Cl	-0.812844	-0.000138	-0.266139
Cl48	Cl	-0.814141	-0.349228	0.164544
H49	H	-0.848877	-0.627591	0.170556
Cl50	Cl	-0.809396	-0.000144	-0.461879
H51	H	-0.560744	0.243852	0.114957
H52	H	-0.902817	-0.629177	0.008137
H53	H	-1.014685	-0.626402	-0.024321
H54	H	-0.924531	-0.629396	0.246006
Cl55	Cl	-0.579957	-0.303634	0.115280
H56	H	-0.924828	-0.373165	0.246623
Cl57	Cl	-1.092146	-0.647381	0.231191
Cl58	Cl	-1.149485	-0.649711	0.059255
H59	H	-1.121039	-0.372647	0.084237
H60	H	-0.898881	-0.373033	0.012564
Cl61	Cl	-1.093086	-0.347033	0.229593
Cl62	Cl	-1.034778	-0.347473	-0.054957
