data_functionalizedCrystal
_audit_creation_method	'MofGen! by Chris Wilmer'
_symmetry_space_group_name_H-M	'P1'
_symmetry_Int_Tables_number	1
_symmetry_cell_setting	triclinic
loop_
_symmetry_equiv_pos_as_xyz
  x,y,z
_cell_length_a	10.967926
_cell_length_b	10.967961
_cell_length_c	17.766277
_cell_angle_alpha	77.867152
_cell_angle_beta	102.119897
_cell_angle_gamma	87.248961
loop_
_atom_site_label
_atom_site_type_symbol
_atom_site_fract_x
_atom_site_fract_y
_atom_site_fract_z
O1	O	1.657139	0.175007	0.129665
O2	O	1.294002	0.191765	0.080386
O3	O	1.483940	0.001810	0.129664
O4	O	1.467201	0.364963	0.080387
O5	O	1.483906	0.001800	0.254850
O6	O	1.293968	0.191755	0.205571
O7	O	1.657106	0.174997	0.254851
Cu8	Cu	1.475534	0.183375	0.241641
Cu9	Cu	1.475574	0.183387	0.093595
O10	O	1.467168	0.364953	0.205572
C11	C	1.247487	0.190542	0.137105
C12	C	1.108938	0.186896	0.119606
C13	C	1.482702	-0.044695	0.198129
C14	C	1.479049	-0.183249	0.215623
C15	C	1.473668	-0.388219	0.176654
C16	C	1.477440	-0.245015	0.158568
C17	C	1.047151	0.185265	0.176653
C18	C	0.903953	0.181497	0.158568
C19	C	1.703620	0.176221	0.198130
C20	C	1.842169	0.179867	0.215624
C21	C	1.468406	0.411458	0.137106
C22	C	1.472059	0.550012	0.119607
N23	N	1.475515	0.183366	0.345770
N24	N	1.475603	0.183387	-0.010531
C25	C	1.559647	0.099296	0.406976
C26	C	1.559654	0.099290	0.485779
C27	C	1.475541	0.183377	0.503373
C28	C	1.391393	0.267453	0.442155
C29	C	1.391380	0.267448	0.363354
C30	C	1.460168	0.296889	0.611493
C31	C	1.460190	0.296896	0.690293
C32	C	1.475575	0.183392	0.746422
C33	C	1.490964	0.069876	0.723744
C34	C	1.490950	0.069871	0.644942
C35	C	1.475546	0.183391	0.588818
C36	C	1.559719	0.099308	0.893077
C37	C	1.559718	0.099301	0.971881
C38	C	1.391463	0.267475	0.928254
C39	C	1.391458	0.267471	0.849452
C40	C	1.475593	0.183390	0.831869
H41	H	1.472247	-0.441353	0.238883
Cl42	Cl	1.476863	-0.265266	0.311709
H43	H	1.322971	0.335935	0.942578
H44	H	1.628224	0.030840	0.878760
Cl45	Cl	1.665432	-0.006407	0.562734
Cl46	Cl	1.129146	0.187414	0.272735
H47	H	1.055823	0.185499	0.057376
H48	H	0.850843	0.180100	0.096335
Cl49	Cl	1.665486	-0.006404	1.048830
H50	H	1.478844	-0.191884	0.096332
H51	H	0.895278	0.181256	0.277859
Cl52	Cl	1.510281	-0.072827	0.616432
H53	H	1.628152	0.030829	0.392663
Cl54	Cl	1.510315	-0.072825	0.794299
Cl55	Cl	1.474232	-0.367961	0.023524
H56	H	1.322955	0.335935	0.799615
H57	H	1.447668	0.389327	0.708752
H58	H	1.447619	0.389324	0.565794
H59	H	1.322905	0.335916	0.456484
Cl60	Cl	1.285606	0.373147	0.286404
