data_functionalizedCrystal
_audit_creation_method	'MofGen! by Chris Wilmer'
_symmetry_space_group_name_H-M	'P1'
_symmetry_Int_Tables_number	1
_symmetry_cell_setting	triclinic
loop_
_symmetry_equiv_pos_as_xyz
  x,y,z
_cell_length_a	10.686285
_cell_length_b	18.215407
_cell_length_c	18.215399
_cell_angle_alpha	89.980167
_cell_angle_beta	85.609148
_cell_angle_gamma	85.632014
loop_
_atom_site_label
_atom_site_type_symbol
_atom_site_fract_x
_atom_site_fract_y
_atom_site_fract_z
Zn1	Zn	-0.502344	1.147639	-0.393704
Zn2	Zn	-0.713359	1.157027	-0.261223
Zn3	Zn	-0.502385	1.024574	-0.270649
Zn4	Zn	-0.713289	1.034014	-0.384251
O5	O	-0.607844	1.090813	-0.327457
O6	O	-0.530347	1.251869	-0.376141
O7	O	-0.685420	1.139435	-0.159487
O8	O	-0.325804	1.033019	-0.294874
O9	O	-0.685380	1.258767	-0.278808
O10	O	-0.325774	1.123434	-0.385281
O11	O	-0.530418	1.042122	-0.166413
O12	O	-0.530350	0.922841	-0.285708
O13	O	-0.685260	1.049109	-0.488492
O14	O	-0.685300	0.929777	-0.369171
O15	O	-0.530279	1.132588	-0.495436
O16	O	-0.889925	1.148589	-0.269642
O17	O	-0.889873	1.058212	-0.360030
C18	C	-0.607823	0.899606	-0.327437
C19	C	-0.607844	0.817808	-0.327444
C20	C	-0.688653	0.633251	-0.370839
C21	C	-0.688657	0.556392	-0.370848
C22	C	-0.527058	0.549129	-0.284090
C23	C	-0.527049	0.625986	-0.284086
C24	C	-0.607853	0.668045	-0.327459
C25	C	-0.607867	0.514330	-0.327472
C26	C	-0.607870	0.430996	-0.327482
C27	C	-0.607848	0.751384	-0.327450
C28	C	-0.935683	1.105463	-0.312804
C29	C	-1.075934	1.111798	-0.306560
C30	C	-0.278725	1.076126	-0.342183
C31	C	-0.138474	1.069867	-0.348459
C32	C	-0.607867	1.282767	-0.327478
C33	C	-0.607876	1.364567	-0.327486
C34	C	-0.607757	1.090854	-0.519414
C35	C	-0.607720	1.090872	-0.601214
C36	C	-0.526946	1.134353	-0.793029
C37	C	-0.526909	1.134360	-0.869890
C38	C	-0.688299	1.047434	-0.862646
C39	C	-0.688328	1.047423	-0.785788
C40	C	-0.607654	1.090887	-0.750981
C41	C	-0.607588	1.090905	-0.904700
C42	C	-0.607548	1.090912	-0.988036
C43	C	-0.607691	1.090879	-0.667640
C44	C	-0.607840	1.090811	-0.136251
C45	C	-0.607521	1.090920	-0.054467
H46	H	-0.461244	0.654316	-0.248761
C47	C	-0.777034	0.999624	-0.900941
N48	N	-0.843870	0.963613	-0.929784
C49	C	-1.148550	1.166838	-0.251637
N50	N	-1.203253	1.208294	-0.210268
C51	C	-0.438184	0.502857	-0.236379
N52	N	-0.371245	0.468006	-0.200439
C53	C	-0.438191	1.182158	-0.754745
N54	N	-0.371333	1.218163	-0.725912
H55	H	-1.084716	1.029120	-0.389112
C56	C	-0.777531	0.679513	-0.418556
N57	N	-0.844473	0.714355	-0.454500
C58	C	-0.777114	0.999602	-0.739532
N59	N	-0.843981	0.963582	-0.704692
C60	C	-0.777555	0.518123	-0.418562
N61	N	-0.844521	0.489299	-0.454500
C62	C	-0.438127	1.182179	-0.916139
N63	N	-0.371253	1.218198	-0.950974
