data_functionalizedCrystal
_audit_creation_method	'MofGen! by Chris Wilmer'
_symmetry_space_group_name_H-M	'P1'
_symmetry_Int_Tables_number	1
_symmetry_cell_setting	triclinic
loop_
_symmetry_equiv_pos_as_xyz
  x,y,z
_cell_length_a	17.019282
_cell_length_b	17.038272
_cell_length_c	16.098687
_cell_angle_alpha	92.928906
_cell_angle_beta	83.405193
_cell_angle_gamma	87.241387
loop_
_atom_site_label
_atom_site_type_symbol
_atom_site_fract_x
_atom_site_fract_y
_atom_site_fract_z
O1	O	1.053662	0.099226	-0.006336
O2	O	0.824068	0.112770	0.010137
O3	O	0.937501	-0.007811	0.001992
O4	O	0.940229	0.219808	0.001809
O5	O	0.944091	-0.014831	-0.136992
O6	O	0.830658	0.105751	-0.128846
O7	O	1.060253	0.092206	-0.145320
Zn8	Zn	0.946502	0.097864	-0.159149
Zn9	Zn	0.937819	0.107113	0.023967
O10	O	0.946819	0.212788	-0.137174
C11	C	0.797841	0.108887	-0.057236
C12	C	0.709874	0.107766	-0.050925
C13	C	0.672144	0.103411	-0.123721
C14	C	0.589491	0.102345	-0.117794
C15	C	0.544569	0.105640	-0.039068
C16	C	0.582304	0.109993	0.033734
C17	C	0.664956	0.111053	0.027805
C18	C	0.294833	0.102624	-0.017377
C19	C	0.212176	0.101566	-0.011454
C20	C	0.219368	0.093916	-0.162982
C21	C	0.302021	0.094982	-0.168904
C22	C	0.339750	0.099331	-0.096102
C23	C	0.460084	0.104553	-0.033007
C24	C	0.424234	0.100412	-0.102164
C25	C	0.938314	-0.040438	-0.067322
C26	C	0.930908	-0.127198	-0.066790
C27	C	0.998900	-0.177620	-0.071670
C28	C	0.991936	-0.259138	-0.071162
C29	C	0.916981	-0.290234	-0.065781
C30	C	0.848984	-0.239805	-0.060899
C31	C	0.855948	-0.158287	-0.061401
C32	C	0.892379	-0.535879	-0.064004
C33	C	0.885420	-0.617403	-0.063506
C34	C	1.028373	-0.636731	-0.073767
C35	C	1.035331	-0.555212	-0.074274
C36	C	0.967333	-0.504790	-0.069387
C37	C	0.909861	-0.373559	-0.065265
C38	C	0.974453	-0.421466	-0.069897
C39	C	1.086479	0.096089	-0.077944
C40	C	1.174446	0.097211	-0.084250
C41	C	0.946006	0.245415	-0.067859
C42	C	0.953412	0.332174	-0.068385
N43	N	0.952433	0.091551	-0.284122
C44	C	0.980049	0.062258	-0.810912
C45	C	0.975882	0.066684	-0.723426
C46	C	0.923553	0.122267	-0.676090
C47	C	0.875395	0.173433	-0.716244
C48	C	0.879567	0.169011	-0.803729
C49	C	0.908447	0.138295	-0.411762
C50	C	0.904277	0.142712	-0.324271
C51	C	1.004765	0.035963	-0.331458
C52	C	1.008929	0.031542	-0.418945
C53	C	0.960774	0.082711	-0.459092
C54	C	0.919290	0.126791	-0.586664
C55	C	0.965041	0.078191	-0.548516
N56	N	0.931893	0.113419	0.148939
H57	H	0.695674	0.114601	0.087084
H58	H	0.423499	0.107235	0.031091
H59	H	0.876682	0.172047	-0.548116
H60	H	0.837010	-0.494835	-0.060026
H61	H	0.460813	0.097726	-0.166261
Br62	Br	1.051064	-0.013186	-0.875145
H63	H	1.015095	0.025026	-0.690738
H64	H	1.059937	-0.152309	-0.076056
H65	H	0.787953	-0.265128	-0.056512
H66	H	1.051539	-0.013718	-0.457485
Br67	Br	1.084215	-0.327566	-0.077784
Br68	Br	0.538288	0.096447	-0.216594
Br69	Br	0.362981	0.090519	-0.275749
H70	H	0.848832	-0.398885	-0.060886
Br71	Br	1.070118	-0.033475	-0.276970
Br72	Br	1.036062	0.002763	-0.612759
Br73	Br	1.137058	-0.513016	-0.081550
H74	H	1.083732	-0.677793	-0.077744
H75	H	0.861661	0.187977	-0.285733
H76	H	0.188641	0.090374	-0.222253
Br77	Br	0.804382	0.248875	-0.652006
Br78	Br	0.151209	0.106043	0.095395
Br79	Br	0.521341	0.114430	0.140577
Br80	Br	0.733102	0.098947	-0.230568
Br81	Br	0.783688	-0.659603	-0.056211
H82	H	0.869235	0.179957	-0.444443
H83	H	0.840353	0.210672	-0.836417
H84	H	0.325542	0.106163	0.041904
H85	H	0.800581	-0.117234	-0.057427
H86	H	1.035481	-0.396144	-0.074260
