data_functionalizedCrystal
_audit_creation_method	'MofGen! by Chris Wilmer'
_symmetry_space_group_name_H-M	'P1'
_symmetry_Int_Tables_number	1
_symmetry_cell_setting	triclinic
loop_
_symmetry_equiv_pos_as_xyz
  x,y,z
_cell_length_a	14.971491
_cell_length_b	13.339070
_cell_length_c	13.448316
_cell_angle_alpha	89.996829
_cell_angle_beta	89.991393
_cell_angle_gamma	99.622765
loop_
_atom_site_label
_atom_site_type_symbol
_atom_site_fract_x
_atom_site_fract_y
_atom_site_fract_z
O1	O	1.219554	0.131899	-0.082732
O2	O	1.719554	0.631899	0.417268
O3	O	0.963057	0.147685	-0.082725
O4	O	1.463057	0.647685	0.417275
O5	O	1.061868	-0.007508	-0.082725
O6	O	1.561868	0.492492	0.417275
O7	O	1.120743	0.287092	-0.082732
O8	O	1.620743	0.787092	0.417268
O9	O	1.061848	-0.007517	0.082659
O10	O	1.561848	0.492483	0.582659
O11	O	0.963038	0.147676	0.082659
O12	O	1.463038	0.647676	0.582659
O13	O	1.219534	0.131889	0.082652
O14	O	1.719534	0.631889	0.582652
Cu15	Cu	1.091284	0.139782	0.097756
Cu16	Cu	1.591284	0.639782	0.597756
Cu17	Cu	1.091307	0.139793	-0.097829
Cu18	Cu	1.591307	0.639793	0.402171
O19	O	1.120723	0.287082	0.082652
O20	O	1.620723	0.787082	0.582652
C21	C	0.929548	0.146974	-0.000032
C22	C	1.429548	0.646974	0.499968
C23	C	0.829727	0.144855	-0.000029
C24	C	1.329727	0.644855	0.499971
C25	C	0.399773	0.135719	-0.090202
C26	C	0.899773	0.635719	0.409798
C27	C	0.493564	0.137706	-0.090199
C28	C	0.993564	0.637706	0.409801
C29	C	0.540447	0.138701	-0.000044
C30	C	1.040447	0.638701	0.499956
C31	C	0.493531	0.137699	0.090112
C32	C	0.993531	0.637699	0.590112
C33	C	0.399740	0.135704	0.090107
C34	C	0.899740	0.635704	0.590107
C35	C	0.689021	0.141859	0.090115
C36	C	1.189021	0.641859	0.590115
C37	C	0.782819	0.143856	0.090121
C38	C	1.282819	0.643856	0.590121
C39	C	0.782845	0.143861	-0.090190
C40	C	1.282845	0.643861	0.409810
C41	C	0.689054	0.141866	-0.090195
C42	C	1.189054	0.641866	0.409805
C43	C	0.642146	0.140866	-0.000038
C44	C	1.142146	0.640866	0.499962
C45	C	1.051913	-0.045214	-0.000034
C46	C	1.551913	0.454786	0.499966
C47	C	1.022269	-0.157552	-0.000037
C48	C	1.522269	0.342448	0.499963
C49	C	1.252766	-0.522062	-0.000043
C50	C	1.752766	-0.022062	0.499957
C51	C	1.280621	-0.416515	-0.000035
C52	C	1.780621	0.083485	0.499965
C53	C	1.216035	-0.351769	-0.000036
C54	C	1.716035	0.148231	0.499964
C55	C	1.123590	-0.392580	-0.000044
C56	C	1.623590	0.107420	0.499956
C57	C	1.095732	-0.498138	-0.000045
C58	C	1.595732	0.001862	0.499955
C59	C	1.059002	-0.327845	-0.000037
C60	C	1.559002	0.172155	0.499963
C61	C	0.966556	-0.368657	-0.000046
C62	C	1.466556	0.131343	0.499954
C63	C	0.938703	-0.474204	-0.000048
C64	C	1.438703	0.025796	0.499952
C65	C	1.003289	-0.538949	-0.000047
C66	C	1.503289	-0.038949	0.499953
C67	C	1.086859	-0.222288	-0.000037
C68	C	1.586859	0.277712	0.499963
C69	C	0.929826	-0.198364	-0.000039
C70	C	1.429826	0.301636	0.499961
C71	C	0.901971	-0.303911	-0.000047
C72	C	1.401971	0.196089	0.499953
C73	C	1.253043	0.132601	-0.000043
C74	C	1.753043	0.632601	0.499957
C75	C	1.352864	0.134719	-0.000053
C76	C	1.852864	0.634719	0.499947
C77	C	1.130678	0.324788	-0.000041
C78	C	1.630678	0.824788	0.499959
C79	C	1.160323	0.437127	-0.000045
C80	C	1.660323	0.937127	0.499955
N81	N	1.091274	0.139773	0.235321
N82	N	1.591274	0.639773	0.735321
N83	N	1.091322	0.139793	-0.235394
N84	N	1.591322	0.639793	0.264606
C85	C	1.135053	0.071082	0.287361
C86	C	1.635053	0.571082	0.787361
C87	C	1.135059	0.071081	0.391464
C88	C	1.635059	0.571081	0.891464
C89	C	1.091290	0.139777	0.443525
C90	C	1.591290	0.639777	0.943525
C91	C	1.047505	0.208471	0.391477
C92	C	1.547505	0.708471	0.891477
C93	C	1.047495	0.208467	0.287376
C94	C	1.547495	0.708467	0.787376
C95	C	1.047532	0.208478	0.608458
C96	C	1.547532	0.708478	1.108458
C97	C	1.047543	0.208485	0.712566
C98	C	1.547543	0.708485	1.212566
C99	C	1.135096	0.071093	0.712546
C100	C	1.635096	0.571093	1.212546
C101	C	1.135085	0.071088	0.608444
C102	C	1.635085	0.571088	1.108444
C103	C	1.091302	0.139784	0.556404
C104	C	1.591302	0.639784	1.056404
H105	H	0.821043	0.144677	-0.163599
H106	H	1.321043	0.644677	0.336401
H107	H	1.170700	0.015146	0.244980
H108	H	1.670700	0.515146	0.744980
H109	H	1.011901	0.264423	0.754949
H110	H	1.511901	0.764423	1.254949
H111	H	0.820989	0.144671	0.163532
H112	H	1.320989	0.644671	0.663532
Br113	Br	0.336075	0.134333	0.212458
Br114	Br	0.836075	0.634333	0.712458
H115	H	1.238720	-0.265828	-0.000028
H116	H	1.738720	0.234172	0.499972
Br117	Br	0.336157	0.134380	-0.212561
Br118	Br	0.836157	0.634380	0.287439
Br119	Br	1.194470	-0.022148	0.462094
Br120	Br	1.694470	0.477852	0.962094
Br121	Br	1.194496	-0.022133	0.537786
Br122	Br	1.694496	0.477867	1.037786
Br123	Br	1.340407	-0.609932	-0.000018
Br124	Br	1.840407	-0.109932	0.499982
Br125	Br	0.625430	0.140529	-0.212548
Br126	Br	1.125430	0.640529	0.287452
Br127	Br	1.406076	-0.361134	-0.000044
Br128	Br	1.906076	0.138866	0.499956
Br129	Br	0.965488	-0.682199	-0.000193
Br130	Br	1.465488	-0.182199	0.499807
H131	H	0.826700	-0.337155	-0.000054
H132	H	1.326700	0.162845	0.499946
Br133	Br	0.842167	-0.110504	-0.000028
Br134	Br	1.342167	0.389496	0.499972
H135	H	0.650833	0.141056	0.163531
H136	H	1.150833	0.641056	0.663531
H137	H	0.531709	0.138503	0.163517
H138	H	1.031709	0.638503	0.663517
Br139	Br	1.194520	-0.022132	0.783175
Br140	Br	1.694520	0.477868	1.283175
H141	H	0.531752	0.138514	-0.163607
H142	H	1.031752	0.638514	0.336393
Br143	Br	0.988104	0.301706	0.537834
Br144	Br	1.488104	0.801706	1.037834
Br145	Br	0.813242	-0.529589	-0.000041
Br146	Br	1.313242	-0.029589	0.499959
Br147	Br	0.988094	0.301697	0.462128
Br148	Br	1.488094	0.801697	0.962128
H149	H	1.162129	-0.189070	-0.000029
H150	H	1.662129	0.310930	0.499971
H151	H	1.011844	0.264401	0.245006
H152	H	1.511844	0.764401	0.745006
