data_functionalizedCrystal
_audit_creation_method	'MofGen! by Chris Wilmer'
_symmetry_space_group_name_H-M	'P1'
_symmetry_Int_Tables_number	1
_symmetry_cell_setting	triclinic
loop_
_symmetry_equiv_pos_as_xyz
  x,y,z
_cell_length_a	11.792241
_cell_length_b	10.654546
_cell_length_c	9.730223
_cell_angle_alpha	90.008468
_cell_angle_beta	90.001333
_cell_angle_gamma	95.661529
loop_
_atom_site_label
_atom_site_type_symbol
_atom_site_fract_x
_atom_site_fract_y
_atom_site_fract_z
O1	O	1.507303	-0.172126	-0.114186
O2	O	1.177002	-0.189867	-0.114221
O3	O	1.349749	0.001765	-0.114162
O4	O	1.334556	-0.363757	-0.114245
O5	O	1.349737	0.001752	0.114418
O6	O	1.176991	-0.189879	0.114359
O7	O	1.507291	-0.172139	0.114394
Zn8	Zn	1.342139	-0.181011	0.150668
Zn9	Zn	1.342154	-0.180994	-0.150496
O10	O	1.334545	-0.363770	0.114335
C11	C	1.134703	-0.188759	0.000065
C12	C	1.008682	-0.185423	0.000053
C13	C	1.348628	0.048553	0.000135
C14	C	1.345293	0.187987	0.000157
N15	N	1.342137	-0.181022	0.356204
C16	C	0.777956	-0.179290	0.000094
C17	C	0.906349	-0.182698	0.000072
C18	C	1.549590	-0.173247	0.000105
C19	C	1.675612	-0.176582	0.000107
C20	C	1.447003	0.267761	0.000187
C21	C	1.443863	0.398773	0.000202
C22	C	1.237294	0.370225	0.000165
C23	C	1.240435	0.239215	0.000139
C24	C	1.566265	0.284244	0.000214
C25	C	1.563124	0.415256	0.000230
C26	C	1.335668	0.589442	0.000083
C27	C	1.339011	0.450009	0.000198
N28	N	1.342165	-0.180973	-0.356032
C29	C	1.272725	-0.104304	0.572036
C30	C	1.272714	-0.104325	0.428153
C31	C	1.411585	-0.257695	0.428146
C32	C	1.411602	-0.257667	0.572027
C33	C	1.192545	-0.015761	0.572039
C34	C	1.192533	-0.015781	0.428156
H35	H	1.151921	0.411952	0.000149
C36	C	1.564348	-0.266590	0.733794
C37	C	1.487949	-0.341930	0.651089
H38	H	1.611489	-0.318613	0.782595
H39	H	1.522999	-0.220930	0.797232
H40	H	1.610381	-0.209146	0.677637
H41	H	1.441910	-0.399368	0.707247
H42	H	1.529302	-0.387611	0.587644
H43	H	1.608056	0.457138	0.095901
C44	C	1.124117	0.075307	0.117568
C45	C	1.128637	0.151520	0.000087
H46	H	1.055097	0.021162	0.117525
H47	H	1.127160	0.127001	0.197277
H48	H	1.187020	0.026055	0.117561
H49	H	1.065738	0.200779	0.000099
H50	H	1.125582	0.099819	-0.079643
H51	H	1.468119	-0.320135	0.369554
H52	H	1.103013	-0.046930	0.389118
H53	H	1.599172	0.461006	-0.098452
H54	H	1.107072	-0.055467	0.616679
C55	C	1.253167	0.199181	0.512811
C56	C	1.230285	0.118050	0.624751
H57	H	1.276470	0.281786	0.545357
H58	H	1.186341	0.200744	0.458590
H59	H	1.312222	0.170045	0.458581
H60	H	1.171223	0.147182	0.678976
H61	H	1.297118	0.116493	0.678995
H62	H	1.604236	0.248718	0.098907
C63	C	1.664272	0.351885	-0.207220
C64	C	1.629230	0.244782	-0.128918
H65	H	1.703135	0.327518	-0.286942
H66	H	1.713939	0.408286	-0.154059
H67	H	1.599501	0.392474	-0.233781
H68	H	1.694002	0.204197	-0.102348
H69	H	1.579560	0.188360	-0.182089
H70	H	1.228251	0.078881	0.383523
