data_functionalizedCrystal
_audit_creation_method	'MofGen! by Chris Wilmer'
_symmetry_space_group_name_H-M	'P1'
_symmetry_Int_Tables_number	1
_symmetry_cell_setting	triclinic
loop_
_symmetry_equiv_pos_as_xyz
  x,y,z
_cell_length_a	16.120490
_cell_length_b	13.897447
_cell_length_c	13.897441
_cell_angle_alpha	89.970673
_cell_angle_beta	87.082329
_cell_angle_gamma	87.112011
loop_
_atom_site_label
_atom_site_type_symbol
_atom_site_fract_x
_atom_site_fract_y
_atom_site_fract_z
Zn1	Zn	1.274600	-0.458940	-0.620074
Zn2	Zn	1.607933	-0.125607	-0.286741
Zn3	Zn	1.941266	0.207727	0.046593
Zn4	Zn	1.274503	-0.620256	-0.458773
Zn5	Zn	1.607837	-0.286923	-0.125440
Zn6	Zn	1.941170	0.046411	0.207893
Zn7	Zn	1.135176	-0.450783	-0.450623
Zn8	Zn	1.468509	-0.117450	-0.117290
Zn9	Zn	1.801843	0.215884	0.216044
Zn10	Zn	1.135156	-0.611994	-0.611861
Zn11	Zn	1.468489	-0.278661	-0.278528
Zn12	Zn	1.801822	0.054672	0.054806
O13	O	1.204859	-0.535493	-0.535333
O14	O	1.538192	-0.202160	-0.201999
O15	O	1.871525	0.131173	0.131334
O16	O	1.391254	-0.487210	-0.605525
O17	O	1.724587	-0.153877	-0.272192
O18	O	2.057920	0.179457	0.061141
O19	O	1.255990	-0.597819	-0.322709
O20	O	1.589323	-0.264486	0.010625
O21	O	1.922656	0.068848	0.343958
O22	O	1.153719	-0.316886	-0.473127
O23	O	1.487053	0.016447	-0.139794
O24	O	1.820386	0.349780	0.193539
O25	O	1.391183	-0.605728	-0.487018
O26	O	1.724516	-0.272395	-0.153685
O27	O	2.057850	0.060938	0.179648
O28	O	1.256153	-0.322879	-0.597622
O29	O	1.589487	0.010454	-0.264289
O30	O	1.922820	0.343788	0.069044
O31	O	1.153626	-0.473308	-0.316721
O32	O	1.486960	-0.139975	0.016613
O33	O	1.820293	0.193359	0.349946
O34	O	1.018506	-0.465297	-0.465163
O35	O	1.351840	-0.131964	-0.131830
O36	O	1.685173	0.201370	0.201503
O37	O	1.153685	-0.591647	-0.747934
O38	O	1.487018	-0.258314	-0.414601
O39	O	1.820352	0.075019	-0.081267
O40	O	1.018491	-0.583738	-0.583624
O41	O	1.351825	-0.250405	-0.250291
O42	O	1.685158	0.082929	0.083042
O43	O	1.256134	-0.479199	-0.753968
O44	O	1.589467	-0.145866	-0.420635
O45	O	1.922800	0.187468	-0.087301
O46	O	1.255970	-0.754139	-0.479055
O47	O	1.589303	-0.420806	-0.145721
O48	O	1.922637	-0.087472	0.187612
O49	O	1.153592	-0.748069	-0.591527
O50	O	1.486925	-0.414736	-0.258194
O51	O	1.820258	-0.081402	0.075139
C52	C	0.988248	-0.522737	-0.522619
C53	C	1.321582	-0.189403	-0.189285
C54	C	1.654915	0.143930	0.144048
C55	C	0.895582	-0.517302	-0.517202
C56	C	1.228915	-0.183969	-0.183869
C57	C	1.562248	0.149364	0.149464
C58	C	1.204791	-0.786104	-0.535307
C59	C	1.538124	-0.452770	-0.201973
C60	C	1.871458	-0.119437	0.131360
C61	C	1.204838	-0.893320	-0.535332
C62	C	1.538171	-0.559987	-0.201999
C63	C	1.871505	-0.226654	0.131335
C64	C	1.204878	-0.980393	-0.535356
C65	C	1.538212	-0.647059	-0.202023
C66	C	1.871545	-0.313726	0.131310
C67	C	1.204937	-1.089628	-0.535385
C68	C	1.538270	-0.756295	-0.202051
C69	C	1.871604	-0.422962	0.131282
C70	C	0.684645	-0.563674	-0.563430
C71	C	1.017978	-0.230340	-0.230096
C72	C	1.351311	0.102993	0.103237
C73	C	0.725924	-0.507390	-0.507312
C74	C	1.059257	-0.174057	-0.173979
C75	C	1.392590	0.159277	0.159354
C76	C	0.820330	-0.512907	-0.512817
C77	C	1.153664	-0.179574	-0.179484
C78	C	1.486997	0.153760	0.153850
C79	C	0.590230	-0.558158	-0.557926
C80	C	0.923563	-0.224825	-0.224593
C81	C	1.256896	0.108509	0.108740
C82	C	1.422315	-0.548301	-0.548097
C83	C	1.755648	-0.214967	-0.214764
C84	C	2.088981	0.118366	0.118570
C85	C	1.514981	-0.553758	-0.553537
C86	C	1.848315	-0.220425	-0.220203
C87	C	2.181648	0.112908	0.113130
C88	C	1.204918	-0.535412	-0.786929
C89	C	1.538251	-0.202078	-0.453596
C90	C	1.871584	0.131255	-0.120263
C91	C	1.204943	-0.535377	-0.894145
C92	C	1.538276	-0.202043	-0.560812
C93	C	1.871610	0.131290	-0.227478
C94	C	1.204949	-0.283906	-0.535382
C95	C	1.538283	0.049428	-0.202048
C96	C	1.871616	0.382761	0.131285
C97	C	1.204988	-0.176694	-0.535403
C98	C	1.538321	0.156639	-0.202069
C99	C	1.871655	0.489973	0.131264
C100	C	1.204966	-0.535313	-1.090441
C101	C	1.538299	-0.201979	-0.757108
C102	C	1.871632	0.131354	-0.423775
C103	C	1.204950	-0.535351	-0.981208
C104	C	1.538284	-0.202018	-0.647875
C105	C	1.871617	0.131316	-0.314541
C106	C	1.204848	-0.535508	-0.284718
C107	C	1.538181	-0.202175	0.048615
C108	C	1.871514	0.131159	0.381949
C109	C	1.204984	-0.535281	-0.177512
C110	C	1.538317	-0.201947	0.155821
C111	C	1.871651	0.131386	0.489154
H112	H	0.690362	-0.455061	-0.455135
H113	H	1.023696	-0.121727	-0.121802
H114	H	1.357029	0.211606	0.211532
H115	H	0.720204	-0.616000	-0.615602
H116	H	1.053537	-0.282666	-0.282269
H117	H	1.386871	0.050667	0.051065
