data_functionalizedCrystal
_audit_creation_method	'MofGen! by Chris Wilmer'
_symmetry_space_group_name_H-M	'P1'
_symmetry_Int_Tables_number	1
_symmetry_cell_setting	triclinic
loop_
_symmetry_equiv_pos_as_xyz
  x,y,z
_cell_length_a	6.817900
_cell_length_b	11.102244
_cell_length_c	10.992410
_cell_angle_alpha	91.891210
_cell_angle_beta	108.764651
_cell_angle_gamma	108.604870
loop_
_atom_site_label
_atom_site_type_symbol
_atom_site_fract_x
_atom_site_fract_y
_atom_site_fract_z
V1	V	-4.113413	-0.175838	-0.400590
O2	O	-4.072416	0.008450	-0.392968
O3	O	-4.090171	-0.348658	-0.397847
O4	O	-4.091018	-0.173134	-0.575302
O5	O	-4.071563	-0.168290	-0.214284
V6	V	-4.590411	-0.153795	-0.378306
O7	O	-4.388984	-0.224192	-0.449470
O8	O	-4.765038	-0.105442	-0.329426
O9	O	-4.390447	0.019024	-0.381049
O10	O	-4.748805	-0.338084	-0.385929
O11	O	-4.749658	-0.161344	-0.564613
O12	O	-4.389600	-0.156500	-0.203594
C13	C	-3.940450	-0.390788	-0.391526
C14	C	-4.002907	-0.532070	-0.390448
C15	C	-3.971524	-0.580305	-0.272289
C16	C	-4.030224	-0.713057	-0.271291
C17	C	-4.151683	-0.749329	-0.506622
C18	C	-4.092998	-0.616580	-0.507619
C19	C	-3.881433	-0.495795	-0.155118
C20	C	-3.850042	-0.544028	-0.036949
C21	C	-3.908742	-0.676781	-0.035951
C22	C	-3.998833	-0.761300	-0.153122
C23	C	-3.941529	-0.166887	-0.617887
C24	C	-4.004669	-0.165819	-0.760715
C25	C	-3.871838	-0.156089	-0.955839
C26	C	-3.806280	-0.157726	-0.807356
C27	C	-4.202090	-0.291130	-0.837817
C28	C	-4.266409	-0.290022	-0.986384
C29	C	-4.145327	-0.047376	-0.948356
C30	C	-4.074621	-0.046781	-0.799343
C31	C	-4.203510	0.061147	-0.387366
C32	C	-4.120292	0.202428	-0.388453
C33	C	-4.202430	-0.162751	-0.161002
C34	C	-4.118528	-0.163812	-0.018173
H35	H	-3.776705	-0.475206	0.058447
H36	H	-4.042865	0.047782	-0.968717
H37	H	-3.658253	-0.067623	-0.754017
F38	F	-4.504217	-0.304241	-1.042106
F39	F	-4.247555	-0.839283	-0.631314
H40	H	-4.352416	-0.301577	-0.809014
H41	H	-4.046640	-0.869394	-0.152300
H42	H	-3.931807	0.045918	-0.746987
F43	F	-4.245523	-0.405257	-1.046864
H44	H	-4.118585	-0.577308	-0.603836
F45	F	-3.719173	-0.037408	-0.980280
H46	H	-3.846503	-0.239750	-1.003830
F47	F	-3.875359	-0.728112	0.089812
H48	H	-3.833618	-0.387699	-0.155917
F49	F	-4.141736	-0.406652	-0.804348
F50	F	-3.731028	-0.268601	-0.774914
F51	F	-4.260370	-0.044848	-0.756839
H52	H	-4.324289	-0.051930	-0.989197
