data_functionalizedCrystal
_audit_creation_method	'MofGen! by Chris Wilmer'
_symmetry_space_group_name_H-M	'P1'
_symmetry_Int_Tables_number	1
_symmetry_cell_setting	triclinic
loop_
_symmetry_equiv_pos_as_xyz
  x,y,z
_cell_length_a	21.295419
_cell_length_b	12.594517
_cell_length_c	12.594509
_cell_angle_alpha	90.021327
_cell_angle_beta	89.980178
_cell_angle_gamma	89.998484
loop_
_atom_site_label
_atom_site_type_symbol
_atom_site_fract_x
_atom_site_fract_y
_atom_site_fract_z
Zn1	Zn	0.250594	1.627373	0.601922
Zn2	Zn	0.355872	1.627308	0.423970
Zn3	Zn	0.250620	1.449377	0.423951
Zn4	Zn	0.355828	1.449404	0.601900
O5	O	0.303229	1.538365	0.512936
O6	O	0.264566	1.776310	0.578334
O7	O	0.341940	1.603667	0.275022
O8	O	0.162527	1.473004	0.447561
O9	O	0.341914	1.776263	0.447593
O10	O	0.162508	1.603777	0.578316
O11	O	0.264612	1.472942	0.275008
O12	O	0.264569	1.300435	0.447539
O13	O	0.341839	1.473050	0.750849
O14	O	0.341865	1.300454	0.578277
O15	O	0.264524	1.603803	0.750865
O16	O	0.443956	1.603693	0.447571
O17	O	0.443924	1.472987	0.578296
C18	C	0.303216	1.261824	0.512904
C19	C	0.303226	1.143519	0.512916
C20	C	0.139038	1.538395	0.512939
C21	C	0.069070	1.538408	0.512940
C22	C	0.261127	1.074224	0.441943
C23	C	0.318547	1.003438	0.415778
C24	C	0.245834	1.003507	0.539100
C25	C	0.360676	1.074291	0.486700
C26	C	0.287924	1.074366	0.610068
C27	C	0.345384	1.003611	0.583939
C28	C	0.036191	1.470356	0.580996
C29	C	-0.029551	1.470366	0.581011
C30	C	-0.062412	1.538417	0.512951
C31	C	-0.029525	1.606481	0.444890
C32	C	0.036216	1.606477	0.444885
N33	N	-0.165616	1.546562	0.419791
N34	N	-0.228067	1.546560	0.419799
C35	C	-0.260487	1.538436	0.512965
N36	N	-0.228096	1.530294	0.606124
N37	N	-0.165639	1.530290	0.606115
C38	C	-0.133698	1.538430	0.512950
C39	C	-0.364651	1.470392	0.581043
C40	C	-0.430395	1.470410	0.581060
C41	C	-0.430368	1.606519	0.444930
C42	C	-0.364626	1.606507	0.444923
C43	C	-0.331771	1.538438	0.512978
C44	C	0.466780	1.538365	0.512956
C45	C	0.536748	1.538462	0.513000
C46	C	0.303173	1.538437	0.790557
C47	C	0.303150	1.538467	0.908862
C48	C	0.303242	1.815986	0.512968
C49	C	0.303247	1.934292	0.512982
C50	C	0.303238	1.538356	0.236395
C51	C	0.303084	1.538531	0.118090
C52	C	0.345178	1.467373	0.978107
C53	C	0.360559	1.564500	1.048901
C54	C	0.287731	1.441416	1.048867
C55	C	0.318561	1.635645	0.978098
C56	C	0.245707	1.512495	0.978059
C57	C	0.261066	1.609690	1.048821
H58	H	0.331503	0.972284	0.333647
H59	H	0.197295	0.972359	0.561183
H60	H	0.409235	1.105253	0.464490
O61	O	0.270743	1.115683	0.718824
H62	H	0.223049	1.087388	0.740354
O63	O	0.335810	1.744546	0.937329
H64	H	0.301032	1.803379	0.966482
O65	O	-0.329154	1.679897	0.371515
H66	H	-0.341751	1.661617	0.287975
H67	H	-0.457123	1.661931	0.389519
O68	O	-0.064963	1.679883	0.371483
H69	H	-0.052348	1.763420	0.389764
O70	O	0.392325	1.387805	0.936948
H71	H	0.439946	1.409655	0.965316
O72	O	0.270489	1.332664	1.090041
H73	H	0.227077	1.338376	1.138506
H74	H	0.381035	0.972801	0.643986
O75	O	0.214015	1.115308	0.362352
H76	H	0.214110	1.203429	0.363564
H77	H	0.062937	1.414926	0.636408
H78	H	0.409109	1.586502	1.080018
O79	O	-0.465852	1.396997	0.654469
H80	H	-0.495807	1.444640	0.708649
O81	O	-0.065026	1.396954	0.654403
H82	H	-0.031135	1.349614	0.701717
H83	H	0.062985	1.661895	0.389465
H84	H	0.225496	1.669909	1.079674
O85	O	-0.329208	1.396994	0.654453
H86	H	-0.363118	1.349687	0.701794
H87	H	0.197170	1.490465	0.946918
