data_functionalizedCrystal
_audit_creation_method	'MofGen! by Chris Wilmer'
_symmetry_space_group_name_H-M	'P1'
_symmetry_Int_Tables_number	1
_symmetry_cell_setting	triclinic
loop_
_symmetry_equiv_pos_as_xyz
  x,y,z
_cell_length_a	12.759401
_cell_length_b	21.295417
_cell_length_c	12.759393
_cell_angle_alpha	90.037460
_cell_angle_beta	90.020459
_cell_angle_gamma	90.032032
loop_
_atom_site_label
_atom_site_type_symbol
_atom_site_fract_x
_atom_site_fract_y
_atom_site_fract_z
Zn1	Zn	1.606146	-0.250557	0.593965
Zn2	Zn	2.106146	0.249443	1.093965
Zn3	Zn	1.605990	-0.355838	0.418261
Zn4	Zn	2.105990	0.144162	0.918261
Zn5	Zn	1.430446	-0.250589	0.418300
Zn6	Zn	1.930446	0.249411	0.918300
Zn7	Zn	1.430388	-0.355795	0.593899
Zn8	Zn	1.930388	0.144205	1.093899
O9	O	1.518243	-0.303195	0.506106
O10	O	2.018243	0.196805	1.006106
O11	O	1.753146	-0.264527	0.570669
O12	O	2.253146	0.235473	1.070669
O13	O	1.582663	-0.341908	0.271245
O14	O	2.082663	0.158092	0.771245
O15	O	1.453843	-0.162496	0.441646
O16	O	1.953843	0.337504	0.941646
O17	O	1.753032	-0.341877	0.441580
O18	O	2.253032	0.158123	0.941580
O19	O	1.582929	-0.162472	0.570706
O20	O	2.082929	0.337528	1.070706
O21	O	1.453692	-0.264582	0.271274
O22	O	1.953692	0.235418	0.771274
O23	O	1.283417	-0.264541	0.441582
O24	O	1.783417	0.235459	0.941582
O25	O	1.453744	-0.341804	0.740929
O26	O	1.953744	0.158196	1.240929
O27	O	1.283375	-0.341835	0.570594
O28	O	1.783375	0.158165	1.070594
O29	O	1.582872	-0.264486	0.740977
O30	O	2.082872	0.235514	1.240977
O31	O	1.582607	-0.443922	0.441516
O32	O	2.082607	0.056078	0.941516
O33	O	1.453593	-0.443890	0.570556
O34	O	1.953593	0.056110	1.070556
C35	C	1.245275	-0.303187	0.506085
C36	C	1.745275	0.196813	1.006085
C37	C	1.128499	-0.303199	0.506101
C38	C	1.628499	0.196801	1.006101
C39	C	1.073642	-0.343507	0.573172
C40	C	1.573642	0.156493	1.073172
C41	C	0.963918	-0.343510	0.573193
C42	C	1.463918	0.156490	1.073193
C43	C	0.963917	-0.262894	0.439063
C44	C	1.463917	0.237106	0.939063
C45	C	1.073639	-0.262889	0.439048
C46	C	1.573639	0.237111	0.939048
C47	C	1.518105	-0.466747	0.506048
C48	C	2.018105	0.033253	1.006048
C49	C	1.518142	-0.536715	0.506058
C50	C	2.018142	-0.036715	1.006058
C51	C	1.585379	-0.569577	0.438936
C52	C	2.085379	-0.069577	0.938936
C53	C	1.585429	-0.635319	0.438960
C54	C	2.085429	-0.135319	0.938960
C55	C	1.518222	-0.668197	0.506094
C56	C	2.018222	-0.168197	1.006094
C57	C	1.450980	-0.635327	0.573230
C58	C	1.950980	-0.135327	1.073230
C59	C	1.450940	-0.569586	0.573212
C60	C	1.950940	-0.069586	1.073212
N61	N	1.426315	-0.771464	0.514097
N62	N	1.926315	-0.271464	1.014097
N63	N	1.426356	-0.833915	0.514108
N64	N	1.926356	-0.333915	1.014108
C65	C	1.518339	-0.866272	0.506155
C66	C	2.018339	-0.366272	1.006155
N67	N	1.610283	-0.833818	0.498169
N68	N	2.110283	-0.333818	0.998169
N69	N	1.610241	-0.771360	0.498153
N70	N	2.110241	-0.271360	0.998153
C71	C	1.518258	-0.739482	0.506122
C72	C	2.018258	-0.239482	1.006122
C73	C	1.585636	-0.970419	0.439054
C74	C	2.085636	-0.470419	0.939054
C75	C	1.585687	-1.036163	0.439085
C76	C	2.085687	-0.536163	0.939085
C77	C	1.451229	-1.036170	0.573350
C78	C	1.951229	-0.536170	1.073350
C79	C	1.451187	-0.970427	0.573325
C80	C	1.951187	-0.470427	1.073325
C81	C	1.518389	-0.937556	0.506171
C82	C	2.018389	-0.437556	1.006171
C83	C	1.792276	-0.303203	0.506128
C84	C	2.292276	0.196797	1.006128
C85	C	1.909052	-0.303207	0.506137
C86	C	2.409052	0.196793	1.006137
C87	C	1.518319	-0.303136	0.780140
C88	C	2.018319	0.196864	1.280140
C89	C	1.518351	-0.303111	0.896916
C90	C	2.018351	0.196889	1.396916
C91	C	1.518410	-0.139005	0.506188
C92	C	2.018410	0.360995	1.006188
C93	C	1.518481	-0.069036	0.506222
C94	C	2.018481	0.430964	1.006222
C95	C	1.518227	-0.303208	0.233139
C96	C	2.018227	0.196792	0.733139
C97	C	1.518398	-0.303056	0.116363
C98	C	2.018398	0.196944	0.616363
C99	C	1.585535	-0.343328	1.061499
C100	C	2.085535	0.156672	1.561499
C101	C	1.585509	-0.343358	0.951775
C102	C	2.085509	0.156642	1.451775
C103	C	1.451208	-0.262837	0.951787
C104	C	1.951208	0.237163	1.451787
C105	C	1.451229	-0.262811	1.061510
C106	C	1.951229	0.237189	1.561510
H107	H	1.640185	-0.662081	0.384301
H108	H	2.140185	-0.162081	0.884301
H109	H	1.640227	-0.376099	1.106157
H110	H	2.140227	0.123901	1.606157
H111	H	0.919258	-0.376332	0.627810
H112	H	1.419258	0.123668	1.127810
C113	C	0.903568	-0.218563	0.365300
C114	C	1.403568	0.281437	0.865300
H115	H	0.830364	-0.224344	0.374905
H116	H	1.330364	0.275656	0.874905
H117	H	0.921587	-0.176277	0.380799
H118	H	1.421587	0.323723	0.880799
H119	H	0.921512	-0.227731	0.294676
H120	H	1.421512	0.272269	0.794676
H121	H	1.640359	-0.943655	0.384377
H122	H	2.140359	-0.443655	0.884377
H123	H	1.396522	-0.230070	0.907113
H124	H	1.896522	0.269930	1.407113
C125	C	1.133985	-0.218548	0.365266
C126	C	1.633985	0.281452	0.865266
H127	H	1.085600	-0.194548	0.325323
H128	H	1.585600	0.305452	0.825323
H129	H	1.176830	-0.191149	0.405536
H130	H	1.676830	0.308851	0.905536
H131	H	1.176745	-0.242598	0.319406
H132	H	1.676745	0.257402	0.819406
C133	C	1.659310	-0.533422	0.365082
C134	C	2.159310	-0.033422	0.865082
H135	H	1.699369	-0.562413	0.325117
H136	H	2.199369	-0.062413	0.825117
H137	H	1.619135	-0.507818	0.319262
H138	H	2.119135	-0.007818	0.819262
H139	H	1.705056	-0.507735	0.405315
H140	H	2.205056	-0.007735	0.905315
H141	H	1.396261	-0.662100	0.627893
H142	H	1.896261	-0.162100	1.127893
H143	H	1.396553	-0.230015	1.106181
H144	H	1.896553	0.269985	1.606181
C145	C	1.659651	-1.072312	0.365246
C146	C	2.159651	-0.572312	0.865246
H147	H	1.699658	-1.043317	0.325246
H148	H	2.199658	-0.543317	0.825246
H149	H	1.705428	-1.097912	0.405478
H150	H	2.205428	-0.597912	0.905478
H151	H	1.619490	-1.098002	0.319443
H152	H	2.119490	-0.598002	0.819443
H153	H	1.396186	-0.542829	0.627872
H154	H	1.896186	-0.042829	1.127872
H155	H	1.396512	-1.062938	0.628017
H156	H	1.896512	-0.562938	1.128017
H157	H	1.396432	-0.943669	0.627977
H158	H	1.896432	-0.443669	1.127977
H159	H	1.118305	-0.376329	0.627773
H160	H	1.618305	0.123671	1.127773
H161	H	1.640178	-0.376152	0.907110
H162	H	2.140178	0.123848	1.407110
