data_functionalizedCrystal
_audit_creation_method	'MofGen! by Chris Wilmer'
_symmetry_space_group_name_H-M	'P1'
_symmetry_Int_Tables_number	1
_symmetry_cell_setting	triclinic
loop_
_symmetry_equiv_pos_as_xyz
  x,y,z
_cell_length_a	13.930277
_cell_length_b	19.288864
_cell_length_c	19.288865
_cell_angle_alpha	83.136245
_cell_angle_beta	90.009791
_cell_angle_gamma	90.021060
loop_
_atom_site_label
_atom_site_type_symbol
_atom_site_fract_x
_atom_site_fract_y
_atom_site_fract_z
O1	O	-0.080150	-0.921351	-0.086647
O2	O	-0.080085	-0.719090	-0.098336
O3	O	-0.080100	-0.826065	0.008639
O4	O	-0.080135	-0.814376	-0.193622
O5	O	0.079561	-0.826050	0.008641
O6	O	0.079576	-0.719076	-0.098334
O7	O	0.079512	-0.921336	-0.086645
Zn8	Zn	0.104894	-0.820204	-0.092489
Zn9	Zn	-0.105467	-0.820223	-0.092492
O10	O	0.079527	-0.814362	-0.193620
C11	C	-0.000246	-0.693207	-0.097959
C12	C	-0.000221	-0.616103	-0.096830
N13	N	0.248460	-0.820195	-0.092486
N14	N	-0.249033	-0.820237	-0.092489
C15	C	0.700736	-0.772853	-0.139842
C16	C	0.700692	-0.867612	-0.045137
C17	C	0.600196	-0.867604	-0.045134
C18	C	0.549966	-0.820220	-0.092487
C19	C	0.600231	-0.772845	-0.139842
C20	C	0.549924	-0.914984	0.002215
C21	C	0.449422	-0.914978	0.002219
C22	C	0.399190	-0.867590	-0.045131
C23	C	0.449461	-0.820212	-0.092488
C24	C	0.399230	-0.772828	-0.139841
C25	C	0.449500	-0.725446	-0.187195
C26	C	0.549999	-0.725457	-0.187193
C27	C	0.298691	-0.867579	-0.045134
C28	C	0.298725	-0.772820	-0.139842
C29	C	-0.000267	-0.825682	0.034516
C30	C	-0.000258	-0.824553	0.111620
C31	C	-0.000329	-0.947220	-0.087022
C32	C	-0.000361	-1.024324	-0.088151
C33	C	-0.000246	-0.571407	-0.159598
C34	C	-0.000257	-0.498960	-0.158537
C35	C	-0.000261	-0.471212	-0.094705
C36	C	-0.000230	-0.515918	-0.031929
C37	C	-0.000210	-0.588364	-0.032991
C38	C	-0.056221	-0.362955	-0.044526
C39	C	-0.056247	-0.290511	-0.043467
C40	C	-0.000318	-0.247767	-0.091425
C41	C	0.055624	-0.277474	-0.140455
C42	C	0.055644	-0.349920	-0.141518
C43	C	-0.000282	-0.392658	-0.093546
C44	C	-0.000354	-0.124514	-0.153047
C45	C	-0.000359	-0.052066	-0.151984
C46	C	-0.000341	-0.069026	-0.025374
C47	C	-0.000327	-0.141473	-0.026439
C48	C	-0.000338	-0.169212	-0.090278
C49	C	-0.000309	-0.814745	-0.219497
C50	C	-0.000324	-0.815874	-0.296601
C51	C	-0.000273	-0.887321	0.156316
C52	C	-0.000288	-0.886260	0.228763
C53	C	-0.000268	-0.822428	0.256511
C54	C	-0.000258	-0.759652	0.211805
C55	C	-0.000253	-0.760714	0.139359
C56	C	0.055674	-0.772243	0.364799
C57	C	0.055675	-0.771183	0.437244
C58	C	-0.000289	-0.819148	0.479956
C59	C	-0.056240	-0.868185	0.450218
C60	C	-0.056235	-0.869247	0.377772
C61	C	-0.000274	-0.821269	0.335065
C62	C	-0.000321	-0.880770	0.603209
C63	C	-0.000342	-0.879707	0.675657
C64	C	-0.000303	-0.753097	0.658697
C65	C	-0.000292	-0.754162	0.586250
C66	C	-0.000296	-0.818001	0.558511
H67	H	0.257834	-0.734231	-0.178400
F68	F	-0.000229	-0.486386	0.036006
F69	F	0.396030	-0.675022	-0.237594
F70	F	-0.115785	-0.921431	0.346124
F71	F	0.754151	-0.918044	0.005253
H72	H	-0.000304	-0.937375	0.265162
F73	F	0.754234	-0.722425	-0.190235
F74	F	0.115152	-0.231988	-0.191501
H75	H	0.408499	-0.953558	0.040777
H76	H	0.590934	-0.686881	-0.225747
H77	H	-0.000374	-0.015674	-0.203099
H78	H	-0.000404	-0.046435	0.026600
H79	H	-0.101803	-0.266329	-0.003546
F80	F	-0.000322	-0.948712	0.573684
F81	F	0.603382	-0.965415	0.052605
F82	F	0.115183	-0.381534	-0.193696
F83	F	-0.000272	-0.687355	0.538679
H84	H	-0.000311	-0.177866	0.024674
F85	F	0.245196	-0.918007	0.005257
F86	F	-0.000255	-0.600925	-0.227541
F87	F	-0.000282	-0.451382	-0.225346
H88	H	-0.101771	-0.397753	-0.005471
H89	H	-0.000189	-0.624756	0.018124
F90	F	-0.000364	-0.946517	0.723227
H91	H	-0.000280	-0.939303	0.133736
H92	H	0.101251	-0.733182	0.330027
F93	F	-0.115806	-0.919236	0.495670
H94	H	-0.000349	-0.147101	-0.205028
F95	F	-0.000287	-0.685161	0.688223
H96	H	0.101228	-0.731252	0.461451
H97	H	-0.000244	-0.707679	0.234401
H98	H	-0.000240	-0.709599	0.102967
