data_functionalizedCrystal
_audit_creation_method	'MofGen! by Chris Wilmer'
_symmetry_space_group_name_H-M	'P1'
_symmetry_Int_Tables_number	1
_symmetry_cell_setting	triclinic
loop_
_symmetry_equiv_pos_as_xyz
  x,y,z
_cell_length_a	15.944493
_cell_length_b	27.732048
_cell_length_c	15.021413
_cell_angle_alpha	89.999048
_cell_angle_beta	89.993251
_cell_angle_gamma	83.058849
loop_
_atom_site_label
_atom_site_type_symbol
_atom_site_fract_x
_atom_site_fract_y
_atom_site_fract_z
O1	O	1.113746	0.062201	-0.074030
O2	O	0.869089	0.069916	-0.074036
O3	O	0.999016	-0.004307	-0.074016
O4	O	0.983819	0.136423	-0.074050
O5	O	0.998995	-0.004296	0.074048
O6	O	0.869068	0.069926	0.074029
O7	O	1.113725	0.062211	0.074034
Zn8	Zn	0.991393	0.066070	0.097540
Zn9	Zn	0.991420	0.066056	-0.097541
O10	O	0.983798	0.136433	0.074014
C11	C	0.837788	0.069606	-0.000004
C12	C	0.744551	0.068660	-0.000005
C13	C	0.508220	0.112349	-0.000017
C14	C	0.457960	0.088795	0.072996
C15	C	0.573853	0.066909	-0.000003
C16	C	0.457985	0.088774	-0.072983
C17	C	0.408966	0.065220	-0.000005
C18	C	0.524821	0.043366	0.073070
C19	C	0.524849	0.043352	-0.072975
C20	C	0.474622	0.019764	0.000055
C21	C	0.668840	0.067883	-0.000001
C22	C	0.313981	0.064242	-0.000001
C23	C	0.998686	-0.022310	0.000019
C24	C	0.997726	-0.075968	0.000026
C25	C	1.068457	-0.414486	-0.000018
C26	C	1.064893	-0.616160	-0.000030
O27	O	1.129571	-0.647144	-0.000068
N28	N	0.987851	-0.635608	-0.000031
C29	C	0.911696	-0.604635	-0.000035
O30	O	0.846085	-0.625804	-0.000045
C31	C	0.915260	-0.402961	-0.000029
C32	C	0.992307	-0.383516	-0.000019
C33	C	1.145497	-0.395040	-0.000009
C34	C	1.146387	-0.344624	-0.000001
C35	C	1.070237	-0.313654	-0.000002
C36	C	0.993197	-0.333100	-0.000011
C37	C	0.839106	-0.371988	-0.000039
C38	C	0.840004	-0.321567	-0.000040
C39	C	0.917050	-0.302122	-0.000030
C40	C	0.917937	-0.251714	-0.000004
N41	N	0.994979	-0.232266	-0.000003
C42	C	1.071129	-0.263236	-0.000002
C43	C	0.909829	-0.710516	-0.000037
C44	C	0.908938	-0.760935	-0.000036
C45	C	1.062135	-0.772457	-0.000034
C46	C	1.063026	-0.722038	-0.000027
C47	C	0.986871	-0.691068	-0.000036
C48	C	1.072992	-0.157359	0.000015
C49	C	1.073876	-0.106938	0.000027
C50	C	0.920679	-0.095421	0.000019
C51	C	0.919795	-0.145837	0.000012
C52	C	0.995958	-0.176805	0.000007
O53	O	0.853293	-0.220703	0.000023
O54	O	1.136729	-0.242057	-0.000012
C55	C	1.067567	-0.464901	-0.000026
C56	C	0.990526	-0.484347	-0.000035
C57	C	0.914377	-0.453377	-0.000036
C58	C	0.989635	-0.534765	-0.000035
C59	C	1.065785	-0.565735	-0.000034
C60	C	1.142826	-0.546287	-0.000033
C61	C	1.143717	-0.495871	-0.000025
C62	C	0.837335	-0.472825	-0.000037
C63	C	0.836451	-0.523241	-0.000044
C64	C	0.912601	-0.554211	-0.000043
C65	C	1.145026	0.062521	0.000001
C66	C	1.238262	0.063467	-0.000004
C67	C	0.984127	0.154436	-0.000022
C68	C	0.985088	0.208095	-0.000035
N69	N	0.991381	0.066080	0.230677
N70	N	0.991440	0.066043	-0.230679
C71	C	0.931294	0.100384	0.470351
C72	C	1.007073	0.109759	0.529685
C73	C	0.991402	0.066068	0.412284
C74	C	0.915643	0.056703	0.529693
C75	C	0.991416	0.066057	0.587708
C76	C	1.067220	0.075464	0.470311
C77	C	0.975740	0.022390	0.470314
C78	C	1.051575	0.031746	0.529620
C79	C	0.991393	0.066075	0.311227
C80	C	0.991435	0.066049	0.688763
H81	H	0.428804	0.107969	-0.134701
H82	H	0.773706	-0.539068	-0.000044
N83	N	1.152110	0.086010	0.435908
H84	H	1.164082	0.118884	0.458031
H85	H	1.197496	0.060222	0.457978
N86	N	0.864020	0.138850	0.435882
H87	H	0.875970	0.171828	0.457483
H88	H	0.864157	0.138337	0.368654
H89	H	1.136619	-0.091109	0.000037
N90	N	1.155138	-0.190756	0.000010
H91	H	1.204071	-0.170781	0.000019
H92	H	1.158100	-0.211928	0.054898
N93	N	1.144271	-0.805865	-0.000030
H94	H	1.132007	-0.840754	-0.000032
H95	H	1.177879	-0.799570	-0.054922
H96	H	1.102468	0.002720	0.555480
H97	H	0.459669	-0.019408	0.000107
N98	N	1.024633	0.158677	0.564245
H99	H	1.077916	0.154622	0.601231
H100	H	1.032011	0.180970	0.512403
H101	H	0.523332	0.151492	0.000042
H102	H	0.962456	-0.014531	0.444215
N103	N	0.830775	0.046216	0.564253
H104	H	0.785413	0.072165	0.542695
H105	H	0.818546	0.013470	0.541724
N106	N	0.563310	0.017976	0.154929
H107	H	0.550897	-0.016885	0.155194
H108	H	0.626453	0.018831	0.154395
H109	H	1.206456	-0.480044	-0.000017
H110	H	1.204830	-0.571512	-0.000028
N111	N	0.419289	0.114214	0.154752
H112	H	0.431200	0.149167	0.154692
H113	H	0.356220	0.113065	0.154401
N114	N	1.229487	-0.323655	0.000006
H115	H	1.277586	-0.350930	0.000004
H116	H	1.233205	-0.302987	-0.054882
H117	H	0.554055	0.024172	-0.134695
H118	H	0.775323	-0.447614	-0.000040
N119	N	0.827681	-0.677120	-0.000035
H120	H	0.824626	-0.655945	0.054853
H121	H	0.824681	-0.655976	-0.054958
N122	N	1.227637	-0.428439	-0.000007
H123	H	1.276569	-0.408462	-0.000001
H124	H	1.230598	-0.449607	0.054885
N125	N	1.146127	-0.701069	-0.000019
H126	H	1.149927	-0.680408	-0.054906
H127	H	1.149854	-0.680432	0.054905
N128	N	0.825839	-0.781905	-0.000023
H129	H	0.777738	-0.754631	-0.000023
H130	H	0.822131	-0.802573	-0.054911
H131	H	0.777987	-0.296353	-0.000048
N132	N	0.755997	-0.392945	-0.000058
H133	H	0.752217	-0.413604	-0.054949
H134	H	0.752235	-0.413583	0.054862
N135	N	0.836694	-0.166810	0.000008
H136	H	0.832918	-0.187467	-0.054885
H137	H	0.832950	-0.187452	0.054926
N138	N	0.838548	-0.062013	0.000043
H139	H	0.850810	-0.027124	0.000052
H140	H	0.804941	-0.068301	-0.054845
