data_functionalizedCrystal
_audit_creation_method	'MofGen! by Chris Wilmer'
_symmetry_space_group_name_H-M	'P1'
_symmetry_Int_Tables_number	1
_symmetry_cell_setting	triclinic
loop_
_symmetry_equiv_pos_as_xyz
  x,y,z
_cell_length_a	16.120297
_cell_length_b	16.959455
_cell_length_c	16.959453
_cell_angle_alpha	89.983065
_cell_angle_beta	92.871658
_cell_angle_gamma	87.120459
loop_
_atom_site_label
_atom_site_type_symbol
_atom_site_fract_x
_atom_site_fract_y
_atom_site_fract_z
Zn1	Zn	-0.471356	-1.185758	-0.337425
Zn2	Zn	-0.331944	-1.192373	-0.462905
Zn3	Zn	-0.331963	-1.060278	-0.330739
Zn4	Zn	-0.471313	-1.053554	-0.469557
O5	O	-0.401644	-1.122991	-0.400156
O6	O	-0.452874	-1.297246	-0.354085
O7	O	-0.215284	-1.180433	-0.439791
O8	O	-0.350480	-1.076969	-0.221016
O9	O	-0.350448	-1.302106	-0.446275
O10	O	-0.452892	-1.169159	-0.225929
O11	O	-0.215297	-1.083383	-0.342689
O12	O	-0.350437	-0.948776	-0.349138
O13	O	-0.587981	-1.065509	-0.457611
O14	O	-0.452817	-0.943835	-0.451127
O15	O	-0.588014	-1.162639	-0.360535
O16	O	-0.350405	-1.173913	-0.574397
O17	O	-0.452799	-1.071923	-0.579284
C18	C	-0.401625	-0.917625	-0.400129
C19	C	-0.401636	-0.829768	-0.400138
C20	C	-0.619093	-1.112586	-0.410561
C21	C	-0.711756	-1.108152	-0.414995
C22	C	-0.401613	-1.122926	-0.605521
C23	C	-0.401628	-1.122970	-0.693379
C24	C	-0.881414	-1.100027	-0.423072
C25	C	-0.922726	-1.146110	-0.377004
C26	C	-1.017129	-1.141589	-0.381499
C27	C	-0.787002	-1.104547	-0.418579
C28	C	-0.185041	-1.133401	-0.389736
C29	C	-0.092378	-1.137988	-0.385079
C30	C	-0.401664	-1.329158	-0.400184
C31	C	-0.401672	-1.417014	-0.400196
C32	C	-0.348446	-0.460835	-0.347015
C33	C	-0.454889	-0.455747	-0.453366
C34	C	-0.454884	-0.538293	-0.453354
C35	C	-0.401659	-0.582114	-0.400173
C36	C	-0.348438	-0.543389	-0.347003
C37	C	-0.508098	-0.577025	-0.506528
C38	C	-0.508095	-0.659577	-0.506519
C39	C	-0.454872	-0.703399	-0.453333
C40	C	-0.401650	-0.664668	-0.400161
C41	C	-0.348424	-0.708489	-0.346980
C42	C	-0.295206	-0.669760	-0.293803
C43	C	-0.295215	-0.587211	-0.293817
C44	C	-0.454862	-0.785947	-0.453319
C45	C	-0.348416	-0.791043	-0.346968
C46	C	-0.455071	-1.171054	-1.067359
C47	C	-0.348341	-1.075142	-1.062356
C48	C	-0.348322	-1.075114	-0.979810
C49	C	-0.401679	-1.123055	-0.941034
C50	C	-0.455055	-1.171025	-0.984805
C51	C	-0.294953	-1.027139	-0.936033
C52	C	-0.294933	-1.027108	-0.853481
C53	C	-0.348286	-1.075054	-0.814703
C54	C	-0.401663	-1.123027	-0.858480
C55	C	-0.455020	-1.170968	-0.819704
C56	C	-0.508394	-1.218945	-0.863478
C57	C	-0.508408	-1.218971	-0.946028
C58	C	-0.348272	-1.075028	-0.732154
C59	C	-0.455004	-1.170939	-0.737150
C60	C	-0.401693	-1.123076	-0.193991
C61	C	-0.401714	-1.123112	-0.106135
H62	H	-0.887196	-1.188957	-0.334189
H63	H	-0.551841	-1.257976	-0.831898
H64	H	-0.916942	-1.057184	-0.465884
N65	N	-0.290794	-1.023440	-1.104177
H66	H	-0.231238	-1.038612	-1.086976
H67	H	-0.303751	-0.966350	-1.090444
N68	N	-0.512253	-0.827721	-0.510667
H69	H	-0.478296	-0.863583	-0.545614
H70	H	-0.545956	-0.787386	-0.544308
N71	N	-0.291016	-0.838304	-0.289599
H72	H	-0.257310	-0.801242	-0.255915
H73	H	-0.252367	-0.874392	-0.319858
H74	H	-0.251865	-0.705450	-0.250506
H75	H	-0.251887	-0.555670	-0.250525
N76	N	-0.565972	-1.270713	-0.993240
H77	H	-0.557887	-1.263452	-1.051418
H78	H	-0.625498	-1.255511	-0.981642
H79	H	-0.305119	-0.429298	-0.303717
H80	H	-0.498218	-0.420064	-0.496668
N81	N	-0.290704	-1.023294	-0.684942
H82	H	-0.298787	-1.030553	-0.626763
H83	H	-0.303630	-0.966218	-0.700018
H84	H	-0.551426	-0.541341	-0.549830
N85	N	-0.237405	-0.975437	-0.977853
H86	H	-0.177849	-0.990605	-0.960645
H87	H	-0.250367	-0.918346	-0.964126
N88	N	-0.565490	-0.701346	-0.563871
H89	H	-0.599208	-0.661059	-0.597562
H90	H	-0.604130	-0.733757	-0.533596
N91	N	-0.512550	-1.222653	-0.695329
H92	H	-0.546361	-1.253047	-0.735587
H93	H	-0.551097	-1.188591	-0.662932
N94	N	-0.512632	-1.222803	-1.114565
H95	H	-0.504547	-1.215552	-1.172745
H96	H	-0.572159	-1.207601	-1.102971
N97	N	-0.237365	-0.975369	-0.806270
H98	H	-0.203566	-0.945005	-0.843361
H99	H	-0.198808	-1.009412	-0.770174
