data_functionalizedCrystal
_audit_creation_method	'MofGen! by Chris Wilmer'
_symmetry_space_group_name_H-M	'P1'
_symmetry_Int_Tables_number	1
_symmetry_cell_setting	triclinic
loop_
_symmetry_equiv_pos_as_xyz
  x,y,z
_cell_length_a	8.497374
_cell_length_b	13.032831
_cell_length_c	13.032721
_cell_angle_alpha	89.097115
_cell_angle_beta	97.169095
_cell_angle_gamma	97.172717
loop_
_atom_site_label
_atom_site_type_symbol
_atom_site_fract_x
_atom_site_fract_y
_atom_site_fract_z
Zn1	Zn	1.299749	1.519982	0.609635
Zn2	Zn	1.064703	1.498071	0.781567
Zn3	Zn	0.998870	1.348061	0.587743
Zn4	Zn	1.291326	1.326132	0.759681
O5	O	1.163662	1.423062	0.684657
O6	O	1.299646	1.660983	0.650764
O7	O	0.835209	1.478179	0.755853
O8	O	1.014756	1.389213	0.446737
O9	O	1.126959	1.644885	0.777081
O10	O	1.235810	1.515523	0.462821
O11	O	0.786842	1.367967	0.613452
O12	O	1.006589	1.201245	0.592230
O13	O	1.513205	1.351839	0.739780
O14	O	1.221455	1.185134	0.718552
O15	O	1.519393	1.494260	0.629542
O16	O	1.118792	1.456916	0.922574
O17	O	1.285291	1.330593	0.906494
C18	C	1.105965	1.155876	0.650641
C19	C	1.081324	1.041569	0.636114
C20	C	1.208312	1.389026	0.951852
C21	C	1.227486	1.374559	1.066171
C22	C	1.176523	0.982652	0.692239
C23	C	1.151057	0.864510	0.677225
C24	C	1.575141	1.423054	0.684657
C25	C	1.753788	1.423055	0.684668
C26	C	1.221586	1.691291	0.718806
C27	C	1.246269	1.805594	0.733358
C28	C	1.118879	1.457259	0.416421
C29	C	1.099795	1.471831	0.302116
C30	C	1.153738	1.430666	1.125067
C31	C	1.173554	1.415716	1.243222
H32	H	1.276884	1.019674	0.751400
H33	H	1.075935	1.489775	1.088019
C34	C	0.945749	0.991571	0.556181
H35	H	0.889331	1.043857	0.522910
H36	H	0.874507	0.944656	0.590159
H37	H	0.989778	0.955371	0.506144
H38	H	1.050699	0.827493	0.618052
C39	C	1.278675	1.335866	1.293260
H40	H	1.278196	1.336288	1.366108
H41	H	1.384997	1.353064	1.277572
H42	H	1.237658	1.268976	1.266979
C43	C	0.994635	1.551660	1.252077
H44	H	0.995084	1.551224	1.179227
H45	H	1.035603	1.618555	1.278350
H46	H	0.888314	1.534428	1.267771
C47	C	1.332602	1.294713	1.116214
H48	H	1.332123	1.295135	1.189062
H49	H	1.438924	1.311911	1.100526
H50	H	1.291585	1.227823	1.089933
H51	H	1.346641	0.842611	0.792522
