data_functionalizedCrystal
_audit_creation_method	'MofGen! by Chris Wilmer'
_symmetry_space_group_name_H-M	'P1'
_symmetry_Int_Tables_number	1
_symmetry_cell_setting	triclinic
loop_
_symmetry_equiv_pos_as_xyz
  x,y,z
_cell_length_a	21.606444
_cell_length_b	14.560438
_cell_length_c	14.560438
_cell_angle_alpha	90.000131
_cell_angle_beta	60.001016
_cell_angle_gamma	59.999093
loop_
_atom_site_label
_atom_site_type_symbol
_atom_site_fract_x
_atom_site_fract_y
_atom_site_fract_z
Zr1	Zr	0.677437	0.884760	-0.120464
O2	O	0.806557	0.738112	-0.267110
O3	O	0.548318	0.929717	-0.075513
O4	O	0.677436	0.929719	-0.267110
O5	O	0.677438	0.738108	0.075627
O6	O	0.677434	1.080860	-0.267105
O7	O	0.677438	0.738111	-0.075513
O8	O	0.446465	1.080857	0.075627
O9	O	0.908408	0.738111	-0.267105
O10	O	0.601424	1.061684	-0.056333
O11	O	0.601425	0.948887	0.056457
O12	O	0.753446	0.948889	-0.169123
O13	O	0.753447	0.836092	-0.056333
Zr14	Zr	0.677433	1.125808	0.120595
Zr15	Zr	0.677433	1.125813	-0.120456
Zr16	Zr	0.677436	0.884755	0.120587
Zr17	Zr	0.839877	0.884758	-0.120456
Zr18	Zr	0.514993	1.125810	0.120587
O19	O	0.806552	1.080851	0.075644
O20	O	0.806553	1.080858	-0.267098
O21	O	0.806556	0.738106	0.075633
O22	O	0.548313	1.272456	0.267241
O23	O	0.548313	1.272463	-0.075502
O24	O	0.548317	0.929710	0.267230
O25	O	0.677432	1.272461	-0.075495
O26	O	0.677433	1.080849	0.267241
O27	O	0.677435	0.929708	0.267236
O28	O	0.677431	1.272458	0.075644
O29	O	0.908405	0.929715	-0.267098
O30	O	0.446464	1.080853	0.267230
O31	O	0.446462	1.272457	0.267236
O32	O	0.446462	1.272461	0.075633
O33	O	0.908407	0.738107	-0.075502
O34	O	0.908405	0.929711	-0.075496
O35	O	0.601424	1.061679	0.169255
O36	O	0.601422	1.174476	0.056464
O37	O	0.753444	1.061681	-0.056326
O38	O	0.753446	0.948884	0.056464
C39	C	0.677439	0.703764	0.000056
C40	C	0.677440	0.601431	0.000052
C41	C	0.474247	1.005287	0.000056
C42	C	0.405287	1.005288	0.000052
C43	C	0.677441	0.553350	-0.083210
C44	C	0.677433	0.457204	-0.083195
C45	C	0.677426	0.457227	0.083349
C46	C	0.677428	0.553376	0.083338
C47	C	0.677450	0.553332	-0.179366
C48	C	0.677441	0.457187	-0.179351
C49	C	0.372888	1.064165	-0.058824
C50	C	0.308088	1.064169	-0.058817
C51	C	0.275692	1.005289	0.000062
C52	C	0.308093	0.946411	0.058946
C53	C	0.372888	0.946414	0.058944
C54	C	0.046784	0.946398	0.058955
C55	C	-0.018013	0.946396	0.058950
C56	C	-0.018015	1.064152	-0.058806
C57	C	0.046779	1.064155	-0.058807
C58	C	0.079171	1.005283	0.000081
C59	C	0.149433	1.005281	0.000074
C60	C	0.205436	1.005284	0.000063
C61	C	0.880623	1.005281	0.000075
C62	C	0.949583	1.005280	0.000079
C63	C	0.677435	1.005290	-0.301452
C64	C	0.677435	1.005292	-0.403784
C65	C	0.677431	1.306804	0.000075
C66	C	0.677430	1.409137	0.000079
C67	C	0.677438	1.088552	-0.451865
C68	C	0.677434	1.088546	-0.548014
C69	C	0.677429	0.922012	-0.547995
C70	C	0.677426	0.922023	-0.451843
C71	C	0.677445	1.184696	-0.451880
C72	C	0.677441	1.184691	-0.548029
C73	C	0.677434	1.005278	0.301583
C74	C	0.677434	1.005276	0.403915
C75	C	0.474243	1.306807	0.000066
C76	C	0.405282	1.409141	0.000066
C77	C	0.474246	1.005281	0.301573
C78	C	0.405286	1.005280	0.403902
C79	C	0.474243	1.306801	0.301583
C80	C	0.405281	1.409133	0.403915
C81	C	0.880627	0.703767	-0.301452
C82	C	0.949589	0.601435	-0.403784
C83	C	0.880627	0.703761	0.000065
C84	C	0.949588	0.601427	0.000065
C85	C	0.880623	1.005287	-0.301442
C86	C	0.949584	1.005288	-0.403771
C87	C	0.372897	1.398322	-0.058823
C88	C	0.308110	1.494466	-0.058846
C89	C	0.275703	1.601429	0.000028
C90	C	0.308094	1.612246	0.058919
C91	C	0.372885	1.516103	0.058934
C92	C	0.372901	1.064156	0.510846
C93	C	0.308114	1.064151	0.607004
C94	C	0.275710	1.005276	0.596216
C95	C	0.308102	0.946392	0.489260
C96	C	0.372891	0.946392	0.393105
C97	C	0.372895	1.516078	0.393096
C98	C	0.308108	1.612239	0.489239
C99	C	0.275702	1.601453	0.596200
C100	C	0.308094	1.494496	0.607016
C101	C	0.372885	1.398338	0.510875
C102	C	0.981982	0.494490	-0.392965
C103	C	1.046790	0.398329	-0.489108
C104	C	1.079199	0.409115	-0.596068
C105	C	1.046802	0.516072	-0.606885
C106	C	0.982000	0.612231	-0.510744
C107	C	0.981979	0.612246	0.058945
C108	C	1.046785	0.516102	0.058941
C109	C	1.079194	0.409139	0.000063
C110	C	1.046800	0.398322	-0.058823
C111	C	0.982000	0.494465	-0.058825
C112	C	0.981967	1.064175	-0.392946
C113	C	1.046754	1.064198	-0.489086
C114	C	1.079161	1.005326	-0.596049
C115	C	1.046770	0.946438	-0.606871
C116	C	0.981980	0.946422	-0.510733
H117	H	0.677415	0.592531	0.151145
H118	H	0.222954	1.005285	0.674521
C119	C	0.272474	1.128907	-0.123617
N120	N	0.245657	1.177660	-0.172438
H121	H	0.955626	0.699308	-0.519566
H122	H	-0.044399	1.112094	-0.106752
C123	C	0.272442	0.881640	0.477412
N124	N	0.245578	0.832875	0.468491
C125	C	0.595142	1.295635	-0.355569
N126	N	0.533152	1.379191	-0.283027
H127	H	0.399277	1.112100	0.519652
H128	H	0.222945	1.679706	0.000007
H129	H	0.222945	1.679760	0.674475
C130	C	0.272430	1.729916	0.123685
N131	N	0.245562	1.818549	0.172474
H132	H	1.073197	0.311220	-0.106760
H133	H	0.399270	1.524882	0.306012
H134	H	0.677415	0.418091	0.151159
C135	C	0.408491	1.528023	0.123734
N136	N	0.435307	1.537010	0.172546
C137	C	1.150472	0.303388	0.000082
N138	N	1.204156	0.223741	0.000105
H139	H	0.399246	1.311261	0.519700
H140	H	0.399251	0.898451	0.306030
H141	H	0.281740	1.699319	0.480412
H142	H	0.281749	1.112105	0.694082
C143	C	0.272432	1.482650	0.724684
N144	N	0.245564	1.473730	0.813315
C145	C	0.408526	0.881645	0.123713
N146	N	0.435365	0.832862	0.172502
C147	C	0.946351	0.482597	-0.275317
N148	N	0.919522	0.473630	-0.186706
C149	C	1.082413	0.280688	-0.477184
N150	N	1.109242	0.192083	-0.468200
C151	C	0.677522	0.830358	-0.399030
N152	N	0.677633	0.761284	-0.359280
H153	H	1.131965	0.330808	-0.674344
C154	C	0.082379	0.881676	0.123776
N155	N	0.109181	0.832941	0.172617
H156	H	1.073198	0.524841	-0.693984
C157	C	1.150434	1.005353	-0.701794
N158	N	1.204118	1.005374	-0.781437
H159	H	0.399282	1.311236	-0.106780
H160	H	0.955597	0.699332	0.106897
H161	H	0.740301	1.167894	-0.468693
H162	H	1.073149	0.524931	0.106897
H163	H	0.738366	1.176395	-0.619329
H164	H	0.281745	1.485637	-0.106802
H165	H	0.738364	0.385882	-0.261463
H166	H	0.740305	0.536514	-0.255842
C167	C	0.946328	1.128950	-0.275295
N168	N	0.919484	1.177748	-0.186683
C169	C	0.946377	0.881621	-0.522659
N170	N	0.919566	0.832805	-0.531650
H171	H	0.616525	0.624627	-0.171077
H172	H	0.955629	0.485640	-0.106768
C173	C	0.677417	0.830422	-0.600868
N174	N	0.677408	0.761434	-0.640690
H175	H	0.614583	0.474005	-0.162551
H176	H	1.073120	1.112150	-0.480252
H177	H	0.614585	1.261168	-0.531218
C178	C	0.408518	1.128939	-0.123596
N179	N	0.435349	1.177733	-0.172380
C180	C	0.082410	1.128929	-0.123576
N181	N	0.109243	1.177724	-0.172357
H182	H	1.073166	0.898507	-0.693973
H183	H	0.281707	0.898476	0.106892
C184	C	-0.053669	0.881653	0.123756
N185	N	-0.080532	0.832900	0.172575
