data_functionalizedCrystal
_audit_creation_method	'MofGen! by Chris Wilmer'
_symmetry_space_group_name_H-M	'P1'
_symmetry_Int_Tables_number	1
_symmetry_cell_setting	triclinic
loop_
_symmetry_equiv_pos_as_xyz
  x,y,z
_cell_length_a	18.050590
_cell_length_b	18.050590
_cell_length_c	18.050591
_cell_angle_alpha	90.005734
_cell_angle_beta	89.986577
_cell_angle_gamma	90.007719
loop_
_atom_site_label
_atom_site_type_symbol
_atom_site_fract_x
_atom_site_fract_y
_atom_site_fract_z
Zn1	Zn	1.135250	-0.296050	0.419597
Zn2	Zn	1.385250	-0.046050	0.669597
Zn3	Zn	1.635250	0.203950	0.919597
Zn4	Zn	1.885250	0.453950	1.169597
Zn5	Zn	1.135209	-0.420195	0.295406
Zn6	Zn	1.385209	-0.170195	0.545406
Zn7	Zn	1.635209	0.079805	0.795406
Zn8	Zn	1.885209	0.329805	1.045406
Zn9	Zn	1.011096	-0.296000	0.295456
Zn10	Zn	1.261096	-0.046000	0.545456
Zn11	Zn	1.511096	0.204000	0.795456
Zn12	Zn	1.761096	0.454000	1.045456
Zn13	Zn	1.011038	-0.420180	0.419588
Zn14	Zn	1.261038	-0.170180	0.669588
Zn15	Zn	1.511038	0.079820	0.919588
Zn16	Zn	1.761038	0.329820	1.169588
O17	O	1.073148	-0.358106	0.357512
O18	O	1.323148	-0.108106	0.607512
O19	O	1.573148	0.141894	0.857512
O20	O	1.823148	0.391894	1.107512
O21	O	1.239169	-0.312546	0.403106
O22	O	1.489169	-0.062546	0.653106
O23	O	1.739169	0.187454	0.903106
O24	O	1.989169	0.437454	1.153106
O25	O	1.118752	-0.403706	0.191488
O26	O	1.368752	-0.153706	0.441488
O27	O	1.618752	0.096294	0.691488
O28	O	1.868752	0.346294	0.941488
O29	O	1.027607	-0.192082	0.311948
O30	O	1.277607	0.057918	0.561948
O31	O	1.527607	0.307918	0.811948
O32	O	1.777607	0.557918	1.061948
O33	O	1.239139	-0.403755	0.311863
O34	O	1.489139	-0.153755	0.561863
O35	O	1.739139	0.096245	0.811863
O36	O	1.989139	0.346245	1.061863
O37	O	1.118822	-0.192119	0.403154
O38	O	1.368822	0.057881	0.653154
O39	O	1.618822	0.307881	0.903154
O40	O	1.868822	0.557881	1.153154
O41	O	1.027567	-0.312461	0.191524
O42	O	1.277567	-0.062461	0.441524
O43	O	1.527567	0.187539	0.691524
O44	O	1.777567	0.437539	0.941524
O45	O	0.907164	-0.312445	0.311939
O46	O	1.157164	-0.062445	0.561939
O47	O	1.407164	0.187555	0.811939
O48	O	1.657164	0.437555	1.061939
O49	O	1.027507	-0.403728	0.523514
O50	O	1.277507	-0.153728	0.773514
O51	O	1.527507	0.096272	1.023514
O52	O	1.777507	0.346272	1.273514
O53	O	0.907121	-0.403679	0.403139
O54	O	1.157121	-0.153679	0.653139
O55	O	1.407121	0.096321	0.903139
O56	O	1.657121	0.346321	1.153139
O57	O	1.118765	-0.312531	0.523521
O58	O	1.368765	-0.062531	0.773521
O59	O	1.618765	0.187469	1.023521
O60	O	1.868765	0.437469	1.273521
O61	O	1.118696	-0.524118	0.311854
O62	O	1.368696	-0.274118	0.561854
O63	O	1.618696	-0.024118	0.811854
O64	O	1.868696	0.225882	1.061854
O65	O	1.027468	-0.524106	0.403091
O66	O	1.277468	-0.274106	0.653091
O67	O	1.527468	-0.024106	0.903091
O68	O	1.777468	0.225894	1.153091
C69	C	0.880196	-0.358056	0.357544
C70	C	1.130196	-0.108056	0.607544
C71	C	1.380196	0.141944	0.857544
C72	C	1.630196	0.391944	1.107544
C73	C	0.797650	-0.358052	0.357575
C74	C	1.047650	-0.108052	0.607575
C75	C	1.297650	0.141948	0.857575
C76	C	1.547650	0.391948	1.107575
C77	C	0.598198	-0.407807	0.407052
C78	C	0.848198	-0.157807	0.657052
C79	C	1.098198	0.092193	0.907052
C80	C	1.348198	0.342193	1.157052
C81	C	0.548789	-0.340098	0.425328
C82	C	0.798789	-0.090098	0.675328
C83	C	1.048789	0.159902	0.925328
C84	C	1.298789	0.409902	1.175328
C85	C	0.646520	-0.358093	0.357539
C86	C	0.896520	-0.108093	0.607539
C87	C	1.146520	0.141907	0.857539
C88	C	1.396520	0.391907	1.107539
C89	C	0.548847	-0.425842	0.339262
C90	C	0.798847	-0.175842	0.589262
C91	C	1.048847	0.074158	0.839262
C92	C	1.298847	0.324158	1.089262
C93	C	0.500535	-0.358139	0.357505
C94	C	0.750535	-0.108139	0.607505
C95	C	1.000535	0.141861	0.857505
C96	C	1.250535	0.391861	1.107505
C97	C	0.598199	-0.290348	0.375850
C98	C	0.848199	-0.040348	0.625850
C99	C	1.098199	0.209652	0.875850
C100	C	1.348199	0.459652	1.125850
C101	C	0.598260	-0.376138	0.289753
C102	C	0.848260	-0.126138	0.539753
C103	C	1.098260	0.123862	0.789753
C104	C	1.348260	0.373862	1.039753
C105	C	0.548874	-0.308382	0.308003
C106	C	0.798874	-0.058382	0.558003
C107	C	1.048874	0.191618	0.808003
C108	C	1.298874	0.441618	1.058003
C109	C	0.730618	-0.358068	0.357560
C110	C	0.980618	-0.108068	0.607560
C111	C	1.230618	0.141932	0.857560
C112	C	1.480618	0.391932	1.107560
C113	C	0.416438	-0.358157	0.357484
C114	C	0.666438	-0.108157	0.607484
C115	C	0.916438	0.141843	0.857484
C116	C	1.166438	0.391843	1.107484
C117	C	1.073091	-0.551059	0.357482
C118	C	1.323091	-0.301059	0.607482
C119	C	1.573091	-0.051059	0.857482
C120	C	1.823091	0.198941	1.107482
C121	C	1.073135	-0.633604	0.357494
C122	C	1.323135	-0.383604	0.607494
C123	C	1.573135	-0.133604	0.857494
C124	C	1.823135	0.116396	1.107494
C125	C	1.122847	-0.833034	0.307949
C126	C	1.372847	-0.583034	0.557949
C127	C	1.622847	-0.333034	0.807949
C128	C	1.872847	-0.083034	1.057949
C129	C	1.140968	-0.882397	0.375724
C130	C	1.390968	-0.632397	0.625724
C131	C	1.640968	-0.382397	0.875724
C132	C	1.890968	-0.132397	1.125724
C133	C	1.073177	-0.784735	0.357524
C134	C	1.323177	-0.534735	0.607524
C135	C	1.573177	-0.284735	0.857524
C136	C	1.823177	-0.034735	1.107524
C137	C	1.055132	-0.882453	0.289779
C138	C	1.305132	-0.632453	0.539779
C139	C	1.555132	-0.382453	0.789779
C140	C	1.805132	-0.132453	1.039779
C141	C	1.073219	-0.930720	0.357547
C142	C	1.323219	-0.680720	0.607547
C143	C	1.573219	-0.430720	0.857547
C144	C	1.823219	-0.180720	1.107547
C145	C	1.091332	-0.833010	0.425335
C146	C	1.341332	-0.583010	0.675335
C147	C	1.591332	-0.333010	0.925335
C148	C	1.841332	-0.083010	1.175335
C149	C	1.005464	-0.833062	0.339344
C150	C	1.255464	-0.583062	0.589344
C151	C	1.505464	-0.333062	0.839344
C152	C	1.755464	-0.083062	1.089344
C153	C	1.023559	-0.882403	0.407166
C154	C	1.273559	-0.632403	0.657166
C155	C	1.523559	-0.382403	0.907166
C156	C	1.773559	-0.132403	1.157166
C157	C	1.073154	-0.700636	0.357510
C158	C	1.323154	-0.450636	0.607510
C159	C	1.573154	-0.200636	0.857510
C160	C	1.823154	0.049364	1.107510
C161	C	1.073241	-1.014816	0.357568
C162	C	1.323241	-0.764816	0.607568
C163	C	1.573241	-0.514816	0.857568
C164	C	1.823241	-0.264816	1.107568
C165	C	1.266854	-0.358158	0.357480
C166	C	1.516854	-0.108158	0.607480
C167	C	1.766854	0.141842	0.857480
C168	C	2.016854	0.391842	1.107480
C169	C	1.349399	-0.358180	0.357467
C170	C	1.599399	-0.108180	0.607467
C171	C	1.849399	0.141820	0.857467
C172	C	2.099399	0.391820	1.107467
C173	C	1.073134	-0.358133	0.551217
C174	C	1.323134	-0.108133	0.801217
C175	C	1.573134	0.141867	1.051217
C176	C	1.823134	0.391867	1.301217
C177	C	1.073129	-0.358144	0.633763
C178	C	1.323129	-0.108144	0.883763
C179	C	1.573129	0.141856	1.133763
C180	C	1.823129	0.391856	1.383763
C181	C	1.073226	-0.164401	0.357558
C182	C	1.323226	0.085599	0.607558
C183	C	1.573226	0.335599	0.857558
C184	C	1.823226	0.585599	1.107558
C185	C	1.073259	-0.081855	0.357577
C186	C	1.323259	0.168145	0.607577
C187	C	1.573259	0.418145	0.857577
C188	C	1.823259	0.668145	1.107577
C189	C	1.023496	-0.407731	0.833210
C190	C	1.273496	-0.157731	1.083210
C191	C	1.523496	0.092269	1.333210
C192	C	1.773496	0.342269	1.583210
C193	C	1.091244	-0.425912	0.882583
C194	C	1.341244	-0.175912	1.132583
C195	C	1.591244	0.074088	1.382583
C196	C	1.841244	0.324088	1.632583
C197	C	1.073132	-0.358134	0.784893
C198	C	1.323132	-0.108134	1.034893
C199	C	1.573132	0.141866	1.284893
C200	C	1.823132	0.391866	1.534893
C201	C	1.005389	-0.339977	0.882603
C202	C	1.255389	-0.089977	1.132603
C203	C	1.505389	0.160023	1.382603
C204	C	1.755389	0.410023	1.632603
C205	C	1.073129	-0.358126	0.930879
C206	C	1.323129	-0.108126	1.180879
C207	C	1.573129	0.141874	1.430879
C208	C	1.823129	0.391874	1.680879
C209	C	1.140915	-0.376351	0.833179
C210	C	1.390915	-0.126351	1.083179
C211	C	1.640915	0.123649	1.333179
C212	C	1.890915	0.373649	1.583179
C213	C	1.055015	-0.290384	0.833194
C214	C	1.305015	-0.040384	1.083194
C215	C	1.555015	0.209616	1.333194
C216	C	1.805015	0.459616	1.583194
C217	C	1.122809	-0.308540	0.882545
C218	C	1.372809	-0.058540	1.132545
C219	C	1.622809	0.191460	1.382545
C220	C	1.872809	0.441460	1.632545
C221	C	1.073132	-0.358141	0.700795
C222	C	1.323132	-0.108141	0.950795
C223	C	1.573132	0.141859	1.200795
C224	C	1.823132	0.391859	1.450795
C225	C	1.073136	-0.358119	1.014975
C226	C	1.323136	-0.108119	1.264975
C227	C	1.573136	0.141881	1.514975
C228	C	1.823136	0.391881	1.764975
C229	C	1.073149	-0.358104	1.164560
C230	C	1.323149	-0.108104	1.414560
C231	C	1.573149	0.141896	1.664560
C232	C	1.823149	0.391896	1.914560
C233	C	1.073133	-0.358113	1.082014
C234	C	1.323133	-0.108113	1.332014
C235	C	1.573133	0.141887	1.582014
C236	C	1.823133	0.391887	1.832014
H237	H	0.527060	-0.324850	0.482638
H238	H	0.777060	-0.074850	0.732638
H239	H	1.027060	0.175150	0.982638
H240	H	1.277060	0.425150	1.232638
H241	H	1.106555	-0.811384	0.482684
H242	H	1.356555	-0.561384	0.732684
H243	H	1.606555	-0.311384	0.982684
H244	H	1.856555	-0.061384	1.232684
H245	H	0.981572	-0.903943	0.449148
H246	H	1.231572	-0.653943	0.699148
H247	H	1.481572	-0.403943	0.949148
H248	H	1.731572	-0.153943	1.199148
N249	N	1.034888	-0.911209	0.213876
N250	N	1.284888	-0.661209	0.463876
N251	N	1.534888	-0.411209	0.713876
N252	N	1.784888	-0.161209	0.963876
H253	H	0.984093	-0.892487	0.199752
H254	H	1.234093	-0.642487	0.449752
H255	H	1.484093	-0.392487	0.699752
H256	H	1.734093	-0.142487	0.949752
H257	H	1.034624	-0.967155	0.214606
H258	H	1.284624	-0.717155	0.464606
H259	H	1.534624	-0.467155	0.714606
H260	H	1.784624	-0.217155	0.964606
H261	H	0.527164	-0.483115	0.323820
H262	H	0.777164	-0.233115	0.573820
H263	H	1.027164	0.016885	0.823820
H264	H	1.277164	0.266885	1.073820
H265	H	0.981575	-0.449709	0.811549
H266	H	1.231575	-0.199709	1.061549
H267	H	1.481575	0.050291	1.311549
H268	H	1.731575	0.300291	1.561549
H269	H	1.039667	-0.233109	0.811484
H270	H	1.289667	0.016891	1.061484
H271	H	1.539667	0.266891	1.311484
H272	H	1.789667	0.516891	1.561484
N273	N	0.929611	-0.804329	0.318936
N274	N	1.179611	-0.554329	0.568936
N275	N	1.429611	-0.304329	0.818936
N276	N	1.679611	-0.054329	1.068936
H277	H	0.916007	-0.822283	0.267717
H278	H	1.166007	-0.572283	0.517717
H279	H	1.416007	-0.322283	0.767717
H280	H	1.666007	-0.072283	1.017717
H281	H	0.930097	-0.748384	0.319601
H282	H	1.180097	-0.498384	0.569601
H283	H	1.430097	-0.248384	0.819601
H284	H	1.680097	0.001616	1.069601
N285	N	1.111554	-0.501797	0.911321
N286	N	1.361554	-0.251797	1.161321
N287	N	1.611554	-0.001797	1.411321
N288	N	1.861554	0.248203	1.661321
H289	H	1.074034	-0.539232	0.893380
H290	H	1.324034	-0.289232	1.143380
H291	H	1.574034	-0.039232	1.393380
H292	H	1.824034	0.210768	1.643380
H293	H	1.111887	-0.501043	0.967266
H294	H	1.361887	-0.251043	1.217266
H295	H	1.611887	-0.001043	1.467266
H296	H	1.861887	0.248957	1.717266
H297	H	0.619786	-0.233057	0.391359
H298	H	0.869786	0.016943	0.641359
H299	H	1.119786	0.266943	0.891359
H300	H	1.369786	0.516943	1.141359
N301	N	0.520366	-0.252663	0.252515
N302	N	0.770366	-0.002663	0.502515
N303	N	1.020366	0.247337	0.752515
N304	N	1.270366	0.497337	1.002515
H305	H	0.538417	-0.201551	0.266402
H306	H	0.788417	0.048449	0.516402
H307	H	1.038417	0.298449	0.766402
H308	H	1.288417	0.548449	1.016402
H309	H	0.464418	-0.253350	0.252518
H310	H	0.714418	-0.003350	0.502518
H311	H	0.964418	0.246650	0.752518
H312	H	1.214418	0.496650	1.002518
N313	N	0.627060	-0.396350	0.213855
N314	N	0.877060	-0.146350	0.463855
N315	N	1.127060	0.103650	0.713855
N316	N	1.377060	0.353650	0.963855
H317	H	0.609138	-0.447544	0.200104
H318	H	0.859138	-0.197544	0.450104
H319	H	1.109138	0.052456	0.700104
H320	H	1.359138	0.302456	0.950104
H321	H	0.683005	-0.395660	0.214363
H322	H	0.933005	-0.145660	0.464363
H323	H	1.183005	0.104340	0.714363
H324	H	1.433005	0.354340	0.964363
N325	N	1.216823	-0.396775	0.804552
N326	N	1.466823	-0.146775	1.054552
N327	N	1.716823	0.103225	1.304552
N328	N	1.966823	0.353225	1.554552
H329	H	1.216351	-0.396674	0.748601
H330	H	1.466351	-0.146674	0.998601
H331	H	1.716351	0.103326	1.248601
H332	H	1.966351	0.353326	1.498601
H333	H	1.230574	-0.447769	0.823007
H334	H	1.480574	-0.197769	1.073007
H335	H	1.730574	0.052231	1.323007
H336	H	1.980574	0.302231	1.573007
H337	H	0.619857	-0.449774	0.448970
H338	H	0.869857	-0.199774	0.698970
H339	H	1.119857	0.050226	0.948970
H340	H	1.369857	0.300226	1.198970
H341	H	1.164866	-0.811357	0.266069
H342	H	1.414866	-0.561357	0.516069
H343	H	1.664866	-0.311357	0.766069
H344	H	1.914866	-0.061357	1.016069
N345	N	1.216838	-0.911110	0.396117
N346	N	1.466838	-0.661110	0.646117
N347	N	1.716838	-0.411110	0.896117
N348	N	1.966838	-0.161110	1.146117
H349	H	1.254310	-0.893158	0.358632
H350	H	1.504310	-0.643158	0.608632
H351	H	1.754310	-0.393158	0.858632
H352	H	2.004310	-0.143158	1.108632
H353	H	1.216099	-0.967055	0.396457
H354	H	1.466099	-0.717055	0.646457
H355	H	1.716099	-0.467055	0.896457
H356	H	1.966099	-0.217055	1.146457
H357	H	1.164831	-0.266594	0.904070
H358	H	1.414831	-0.016594	1.154070
H359	H	1.664831	0.233406	1.404070
H360	H	1.914831	0.483406	1.654070
N361	N	0.929509	-0.319635	0.911364
N362	N	1.179509	-0.069635	1.161364
N363	N	1.429509	0.180365	1.411364
N364	N	1.679509	0.430365	1.661364
H365	H	0.892061	-0.357139	0.893418
H366	H	1.142061	-0.107139	1.143418
H367	H	1.392061	0.142861	1.393418
H368	H	1.642061	0.392861	1.643418
H369	H	0.915505	-0.268815	0.892621
H370	H	1.165505	-0.018815	1.142621
H371	H	1.415505	0.231185	1.392621
H372	H	1.665505	0.481185	1.642621
