data_functionalizedCrystal
_audit_creation_method	'MofGen! by Chris Wilmer'
_symmetry_space_group_name_H-M	'P1'
_symmetry_Int_Tables_number	1
_symmetry_cell_setting	triclinic
loop_
_symmetry_equiv_pos_as_xyz
  x,y,z
_cell_length_a	19.121063
_cell_length_b	19.121215
_cell_length_c	19.805399
_cell_angle_alpha	87.535432
_cell_angle_beta	92.411105
_cell_angle_gamma	95.002544
loop_
_atom_site_label
_atom_site_type_symbol
_atom_site_fract_x
_atom_site_fract_y
_atom_site_fract_z
Zn1	Zn	-0.234359	1.063742	-0.436177
Zn2	Zn	-0.352029	1.058631	-0.327610
Zn3	Zn	-0.239386	0.946075	-0.318359
Zn4	Zn	-0.356997	0.941017	-0.436115
O5	O	-0.295692	1.002366	-0.379565
O6	O	-0.245785	1.161529	-0.425673
O7	O	-0.337111	1.043678	-0.231667
O8	O	-0.140253	0.965939	-0.330143
O9	O	-0.332236	1.157775	-0.345909
O10	O	-0.136560	1.052388	-0.416703
O11	O	-0.254353	0.960983	-0.224870
O12	O	-0.259170	0.846938	-0.330082
O13	O	-0.340704	0.957319	-0.530839
O14	O	-0.345579	0.843222	-0.416596
O15	O	-0.250602	1.047484	-0.530885
O16	O	-0.451153	1.038773	-0.345849
O17	O	-0.454804	0.952363	-0.425567
C18	C	-0.303460	0.819549	-0.372329
C19	C	-0.306799	0.741338	-0.369250
C20	C	-0.478509	0.994484	-0.386720
C21	C	-0.556716	0.991176	-0.389807
C22	C	-0.327942	0.298895	-0.349772
C23	C	-0.324800	0.372383	-0.352659
C24	C	-0.278292	0.411080	-0.395705
C25	C	-0.234918	0.376287	-0.435861
C26	C	-0.238057	0.302801	-0.432969
C27	C	-0.266564	0.633059	-0.406514
C28	C	-0.263430	0.706550	-0.409404
C29	C	-0.353312	0.702640	-0.326201
C30	C	-0.356449	0.629153	-0.323317
C31	C	-0.313073	0.594366	-0.363470
C32	C	-0.275081	0.486196	-0.398660
C33	C	-0.316280	0.519252	-0.360511
C34	C	-0.591532	1.034646	-0.349789
C35	C	-0.665016	1.031540	-0.352696
C36	C	-0.703682	0.984959	-0.395617
C37	C	-0.668860	0.941486	-0.435639
C38	C	-0.595378	0.944597	-0.432735
C39	C	-0.925647	0.973317	-0.406462
C40	C	-0.999135	0.970208	-0.409361
C41	C	-0.995285	1.060262	-0.326418
C42	C	-0.921802	1.063366	-0.323515
C43	C	-0.886987	1.019897	-0.363540
C44	C	-0.778794	0.981780	-0.398587
C45	C	-0.811876	1.023079	-0.360573
C46	C	-0.112161	1.010298	-0.372398
C47	C	-0.033951	1.013678	-0.369343
C48	C	-0.295646	1.002407	-0.556108
C49	C	-0.295627	1.002425	-0.631340
C50	C	-0.287895	1.185897	-0.386830
C51	C	-0.284573	1.264107	-0.389926
C52	C	-0.248709	1.049375	-0.666709
C53	C	-0.248688	1.049383	-0.737397
C54	C	-0.295589	1.002444	-0.772715
C55	C	-0.342510	0.955489	-0.737341
C56	C	-0.342527	0.955478	-0.666654
C57	C	-0.342443	0.955531	-1.022413
C58	C	-0.342424	0.955547	-1.093105
C59	C	-0.248604	1.049437	-1.093156
C60	C	-0.248621	1.049426	-1.022469
C61	C	-0.295538	1.002468	-0.987101
C62	C	-0.295559	1.002459	-0.910453
C63	C	-0.295572	1.002456	-0.849362
C64	C	-0.295686	1.002367	-0.203709
C65	C	-0.295501	1.002495	-0.128475
H66	H	-0.365818	0.267393	-0.314723
H67	H	-0.700348	0.903562	-0.470589
Br68	Br	-0.406200	0.891753	-0.618651
Br69	Br	-0.184927	1.113165	-1.141159
H70	H	-0.202739	0.274478	-0.465665
H71	H	-0.225553	0.738056	-0.444456
H72	H	-0.237216	0.517712	-0.433709
Br73	Br	-0.548125	0.885604	-0.487052
H74	H	-0.360115	0.400704	-0.319960
Br75	Br	-0.412175	0.749854	-0.271709
H76	H	-0.780392	1.061008	-0.325629
Br77	Br	-0.207700	0.585857	-0.461013
Br78	Br	-0.419549	0.576640	-0.264875
Br79	Br	-0.539064	1.097860	-0.291529
H80	H	-0.693360	1.066937	-0.320109
Br81	Br	-0.185058	1.113087	-0.618785
H82	H	-0.354145	0.487741	-0.325462
Br83	Br	-0.406081	0.891840	-1.141037
H84	H	-0.380656	0.917305	-0.993626
H85	H	-0.890321	1.101296	-0.288566
Br86	Br	-1.042538	1.119257	-0.272106
H87	H	-1.030615	0.932284	-0.444325
H88	H	-0.897307	0.937921	-0.439050
H89	H	-0.810284	0.943853	-0.433533
Br90	Br	-0.406159	0.891780	-0.785271
H91	H	-0.197047	0.407801	-0.470907
H92	H	-0.210431	1.087651	-0.993717
Br93	Br	-0.185042	1.113136	-0.785398
