data_functionalizedCrystal
_audit_creation_method	'MofGen! by Chris Wilmer'
_symmetry_space_group_name_H-M	'P1'
_symmetry_Int_Tables_number	1
_symmetry_cell_setting	triclinic
loop_
_symmetry_equiv_pos_as_xyz
  x,y,z
_cell_length_a	9.065218
_cell_length_b	16.109304
_cell_length_c	8.140239
_cell_angle_alpha	89.999293
_cell_angle_beta	89.997198
_cell_angle_gamma	84.239262
loop_
_atom_site_label
_atom_site_type_symbol
_atom_site_fract_x
_atom_site_fract_y
_atom_site_fract_z
O1	O	1.957451	0.121905	-0.136606
O2	O	2.290784	0.455238	0.196727
O3	O	2.624117	0.788572	0.530061
O4	O	1.527924	0.131904	-0.136607
O5	O	1.861257	0.465237	0.196726
O6	O	2.194591	0.798571	0.530059
O7	O	1.754485	0.005964	-0.136608
O8	O	2.087818	0.339298	0.196726
O9	O	2.421151	0.672631	0.530059
O10	O	1.730890	0.247845	-0.136606
O11	O	2.064223	0.581178	0.196727
O12	O	2.397557	0.914511	0.530061
O13	O	1.754472	0.005963	0.136619
O14	O	2.087805	0.339296	0.469953
O15	O	2.421139	0.672629	0.803286
O16	O	1.527912	0.131903	0.136620
O17	O	1.861245	0.465236	0.469953
O18	O	2.194578	0.798569	0.803286
O19	O	1.957438	0.121903	0.136621
O20	O	2.290771	0.455237	0.469954
O21	O	2.624105	0.788570	0.803288
Zn22	Zn	1.742673	0.126903	0.180001
Zn23	Zn	2.076006	0.460236	0.513334
Zn24	Zn	2.409339	0.793569	0.846668
Zn25	Zn	1.742689	0.126905	-0.179987
Zn26	Zn	2.076023	0.460238	0.153346
Zn27	Zn	2.409356	0.793571	0.486679
O28	O	1.730877	0.247843	0.136621
O29	O	2.064211	0.581177	0.469955
O30	O	2.397544	0.914510	0.803288
C31	C	1.472954	0.130942	0.000006
C32	C	1.806288	0.464276	0.333339
C33	C	2.139621	0.797609	0.666672
C34	C	1.309181	0.128069	0.000005
C35	C	1.642514	0.461402	0.333338
C36	C	1.975848	0.794736	0.666672
C37	C	1.753522	-0.025019	0.000002
C38	C	2.086855	0.308315	0.333336
C39	C	2.420189	0.641648	0.666669
C40	C	1.750654	-0.117336	-0.000009
C41	C	2.083988	0.215997	0.333324
C42	C	2.417321	0.549331	0.666658
C43	C	1.744036	-0.329723	-0.148939
C44	C	2.077369	0.003610	0.184394
C45	C	2.410703	0.336943	0.517728
C46	C	1.741328	-0.416464	-0.148937
C47	C	2.074661	-0.083131	0.184396
C48	C	2.407995	0.250202	0.517729
C49	C	1.741322	-0.416463	0.148950
C50	C	2.074655	-0.083130	0.482283
C51	C	2.407988	0.250204	0.815616
C52	C	1.744019	-0.329723	0.148946
C53	C	2.077352	0.003611	0.482280
C54	C	2.410686	0.336944	0.815613
C55	C	1.745384	-0.286356	-0.000003
C56	C	2.078717	0.046978	0.333331
C57	C	2.412050	0.380311	0.666664
C58	C	1.739978	-0.459837	0.000002
C59	C	2.073312	-0.126503	0.333335
C60	C	2.406645	0.206830	0.666669
C61	C	1.737042	-0.553885	0.000005
C62	C	2.070376	-0.220552	0.333338
C63	C	2.403709	0.112782	0.666671
C64	C	1.748317	-0.192301	-0.000006
C65	C	2.081651	0.141032	0.333327
C66	C	2.414984	0.474365	0.666660
C67	C	2.012408	0.122865	0.000004
C68	C	2.345741	0.456198	0.333338
C69	C	2.679074	0.789532	0.666671
C70	C	2.176181	0.125739	-0.000006
C71	C	2.509514	0.459072	0.333328
C72	C	2.842848	0.792405	0.666661
C73	C	1.731840	0.278826	0.000008
C74	C	2.065173	0.612159	0.333341
C75	C	2.398507	0.945493	0.666674
C76	C	1.734708	0.371143	0.000008
C77	C	2.068041	0.704477	0.333341
C78	C	2.401374	1.037810	0.666675
N79	N	1.742672	0.126901	0.425684
N80	N	2.076006	0.460234	0.759017
N81	N	2.409339	0.793568	1.092350
N82	N	1.742701	0.126900	-0.425670
N83	N	2.076035	0.460233	-0.092337
N84	N	2.409368	0.793567	0.240997
H85	H	1.745143	-0.294416	-0.270223
H86	H	2.078476	0.038917	0.063110
H87	H	2.411810	0.372251	0.396444
H88	H	1.740227	-0.451770	-0.270216
H89	H	2.073561	-0.118437	0.063117
H90	H	2.406894	0.214897	0.396450
H91	H	1.740214	-0.451783	0.270219
H92	H	2.073547	-0.118450	0.603552
H93	H	2.406880	0.214884	0.936885
H94	H	1.745108	-0.294411	0.270236
H95	H	2.078442	0.038922	0.603569
H96	H	2.411775	0.372255	0.936902
