data_functionalizedCrystal
_audit_creation_method	'MofGen! by Chris Wilmer'
_symmetry_space_group_name_H-M	'P1'
_symmetry_Int_Tables_number	1
_symmetry_cell_setting	triclinic
loop_
_symmetry_equiv_pos_as_xyz
  x,y,z
_cell_length_a	12.759395
_cell_length_b	12.645330
_cell_length_c	12.759387
_cell_angle_alpha	90.028515
_cell_angle_beta	89.978972
_cell_angle_gamma	89.973052
loop_
_atom_site_label
_atom_site_type_symbol
_atom_site_fract_x
_atom_site_fract_y
_atom_site_fract_z
Zn1	Zn	1.606185	0.421962	-0.594036
Zn2	Zn	1.606040	0.599264	-0.418364
Zn3	Zn	1.430483	0.422017	-0.418372
Zn4	Zn	1.430440	0.599186	-0.594001
O5	O	1.518287	0.510607	-0.506193
O6	O	1.753187	0.445491	-0.570744
O7	O	1.582710	0.575808	-0.271344
O8	O	1.453869	0.273663	-0.441692
O9	O	1.753081	0.575754	-0.441678
O10	O	1.582956	0.273622	-0.570752
O11	O	1.453728	0.445585	-0.271349
O12	O	1.283456	0.445510	-0.441658
O13	O	1.453796	0.575621	-0.741027
O14	O	1.283425	0.575675	-0.570692
O15	O	1.582915	0.445415	-0.741053
O16	O	1.582668	0.747601	-0.441644
O17	O	1.453655	0.747544	-0.570685
C18	C	1.245320	0.510591	-0.506173
C19	C	1.128543	0.510609	-0.506189
C20	C	0.909219	0.375209	-0.640837
C21	C	0.964140	0.307486	-0.708131
C22	C	1.073862	0.307468	-0.708113
C23	C	1.128664	0.375182	-0.640795
C24	C	1.073743	0.442905	-0.573501
C25	C	0.964019	0.442913	-0.573525
C26	C	1.073621	0.578332	-0.438895
C27	C	0.963900	0.578346	-0.438906
C28	C	1.128424	0.646046	-0.371577
C29	C	1.073502	0.713765	-0.304276
C30	C	0.963774	0.713780	-0.304296
C31	C	0.908978	0.646069	-0.371612
C32	C	1.518170	0.786037	-0.506183
C33	C	1.518216	0.903867	-0.506213
C34	C	1.437364	1.071439	-0.587645
C35	C	1.436969	0.948880	-0.587382
C36	C	1.488234	0.948470	-0.395492
C37	C	1.487722	1.071069	-0.395988
C38	C	1.629489	1.070953	-0.534611
C39	C	1.628825	0.948346	-0.537030
C40	C	1.792320	0.510625	-0.506214
C41	C	1.909097	0.510632	-0.506224
C42	C	1.518396	1.234102	-0.506231
C43	C	1.518349	1.116272	-0.506256
C44	C	1.518366	0.510503	-0.780227
C45	C	1.518400	0.510459	-0.897004
C46	C	1.652861	0.374885	-0.897050
C47	C	1.720106	0.307082	-0.951934
C48	C	1.720131	0.307043	-1.061656
C49	C	1.652903	0.374812	-1.116496
C50	C	1.585658	0.442616	-1.061612
C51	C	1.585642	0.442649	-0.951888
C52	C	1.451193	0.578183	-1.061565
C53	C	1.451171	0.578229	-0.951844
C54	C	1.383964	0.645953	-1.116405
C55	C	1.316723	0.713763	-1.061521
C56	C	1.316701	0.713799	-0.951793
C57	C	1.383926	0.646032	-0.896960
C58	C	1.518268	0.510634	-0.233226
C59	C	1.518438	0.510380	-0.116450
H60	H	0.919064	0.768933	-0.249501
H61	H	0.819637	0.646061	-0.371622
H62	H	1.689825	1.099945	-0.475332
C63	C	1.679540	0.475795	-0.739864
C64	C	1.652835	0.374931	-0.776442
H65	H	1.679529	0.475818	-0.665405
H66	H	1.629880	0.525843	-0.764668
H67	H	1.747334	0.494120	-0.764698
H68	H	1.585038	0.356609	-0.751614
H69	H	1.702497	0.324867	-0.751627
H70	H	0.819878	0.375194	-0.640836
H71	H	1.217765	0.646033	-0.371573
C72	C	1.265421	0.893315	-0.917972
C73	C	1.242794	0.788339	-0.891460
H74	H	1.219799	0.939333	-0.880720
H75	H	1.255803	0.902981	-0.991157
H76	H	1.336004	0.908828	-0.900002
H77	H	1.172214	0.772823	-0.909438
H78	H	1.252404	0.778668	-0.818259
H79	H	1.774840	0.251903	-0.907271
H80	H	1.118131	0.768898	-0.249477
C81	C	1.389078	1.069934	-0.769497
C82	C	1.462436	1.111129	-0.698848
H83	H	1.404564	1.094437	-0.838150
H84	H	1.320789	1.092538	-0.750027
H85	H	1.392145	0.994886	-0.768237
H86	H	1.459364	1.186178	-0.700102
H87	H	1.530742	1.088531	-0.718323
H88	H	1.455728	0.918719	-0.669481
H89	H	1.118579	0.252324	-0.762912
C90	C	1.255767	0.946669	-0.638017
C91	C	1.325755	0.909413	-0.562008
H92	H	1.187105	0.922310	-0.622343
H93	H	1.276308	0.921180	-0.704984
H94	H	1.256412	1.021788	-0.638260
H95	H	1.325116	0.834294	-0.561772
H96	H	1.305208	0.934897	-0.495024
C97	C	1.385993	1.171542	-0.272785
C98	C	1.378047	1.109815	-0.363571
H99	H	1.318280	1.195452	-0.252773
H100	H	1.429841	1.230701	-0.286151
H101	H	1.415233	1.130328	-0.217855
H102	H	1.348814	1.151031	-0.418503
H103	H	1.334182	1.050648	-0.350210
C104	C	1.285905	0.301430	-0.714065
C105	C	1.249272	0.375167	-0.640780
H106	H	1.360364	0.301420	-0.714048
H107	H	1.261114	0.319855	-0.781825
H108	H	1.261093	0.233004	-0.696010
H109	H	1.274078	0.443595	-0.658839
H110	H	1.274073	0.356749	-0.573005
C111	C	1.609759	1.024673	-0.260375
C112	C	1.563877	1.111120	-0.311323
H113	H	1.656763	1.049398	-0.208100
H114	H	1.647015	0.982989	-0.309889
H115	H	1.556613	0.983014	-0.228568
H116	H	1.617023	1.152775	-0.343137
H117	H	1.526620	1.152821	-0.261800
H118	H	1.656828	1.101790	-0.613977
C119	C	1.853051	0.173039	-1.050693
C120	C	1.794048	0.232515	-1.121991
H121	H	1.898687	0.127035	-1.087944
H122	H	1.807295	0.132494	-1.007901
H123	H	1.893200	0.219256	-1.007892
H124	H	1.753893	0.186299	-1.164787
H125	H	1.839810	0.273064	-1.164801
C126	C	1.726139	0.300937	-1.273696
C127	C	1.652924	0.374765	-1.237104
H128	H	1.726154	0.300915	-1.348155
H129	H	1.708003	0.232545	-1.248882
H130	H	1.793919	0.319296	-1.248881
H131	H	1.585143	0.356401	-1.261913
H132	H	1.671055	0.443172	-1.261929
C133	C	1.674383	0.995832	-0.713422
C134	C	1.659309	0.909005	-0.647051
H135	H	1.693179	0.971546	-0.781352
H136	H	1.728810	1.039172	-0.686365
H137	H	1.611374	1.035654	-0.717573
H138	H	1.722321	0.869188	-0.642893
H139	H	1.604878	0.865648	-0.674114
H140	H	1.355485	1.102343	-0.569101
C141	C	1.353998	0.947605	-0.263565
C142	C	1.379708	0.907166	-0.362473
H143	H	1.286999	0.922101	-0.243185
H144	H	1.352593	1.022645	-0.266495
H145	H	1.404957	0.925478	-0.213935
H146	H	1.328752	0.929300	-0.412106
H147	H	1.381105	0.832110	-0.359551
C148	C	1.410707	0.746756	-1.273563
C149	C	1.383989	0.645915	-1.237013
H150	H	1.410716	0.746735	-1.348022
H151	H	1.478483	0.765097	-1.248751
H152	H	1.361030	0.796824	-1.248717
H153	H	1.433671	0.595848	-1.261854
H154	H	1.316204	0.627562	-1.261836
C155	C	1.138793	0.765359	-1.095267
C156	C	1.242831	0.788246	-1.121803
H157	H	1.093177	0.811340	-1.132491
H158	H	1.129165	0.775098	-1.022076
H159	H	1.123477	0.694119	-1.113256
H160	H	1.258150	0.859484	-1.103807
H161	H	1.252464	0.778516	-1.195010
C162	C	1.763099	0.992462	-0.412711
C163	C	1.714586	0.906984	-0.462829
H164	H	1.816044	0.966926	-0.366899
H165	H	1.712441	1.030821	-0.373534
H166	H	1.793727	1.037601	-0.463712
H167	H	1.683951	0.861848	-0.411827
H168	H	1.765252	0.868608	-0.502007
H169	H	1.545358	0.919316	-0.333193
C170	C	1.310707	0.719915	-0.739754
C171	C	1.383919	0.646087	-0.776352
H172	H	1.310714	0.719953	-0.665295
H173	H	1.242931	0.701553	-0.764548
H174	H	1.328839	0.788313	-0.764586
H175	H	1.365783	0.577687	-0.751526
H176	H	1.451709	0.664443	-0.751547
C177	C	0.795995	0.247359	-0.767926
C178	C	0.903900	0.233052	-0.782120
H179	H	0.758810	0.201402	-0.813600
H180	H	0.778002	0.318597	-0.783191
H181	H	0.777992	0.231762	-0.697360
H182	H	0.921904	0.248656	-0.852684
H183	H	0.921900	0.161797	-0.766863
