data_functionalizedCrystal
_audit_creation_method	'MofGen! by Chris Wilmer'
_symmetry_space_group_name_H-M	'P1'
_symmetry_Int_Tables_number	1
_symmetry_cell_setting	triclinic
loop_
_symmetry_equiv_pos_as_xyz
  x,y,z
_cell_length_a	9.065218
_cell_length_b	14.971486
_cell_length_c	7.540329
_cell_angle_alpha	89.996600
_cell_angle_beta	89.996214
_cell_angle_gamma	84.315040
loop_
_atom_site_label
_atom_site_type_symbol
_atom_site_fract_x
_atom_site_fract_y
_atom_site_fract_z
O1	O	-1.957736	-0.131153	0.147574
O2	O	-1.624403	0.202181	0.480908
O3	O	-1.291069	0.535514	0.814241
O4	O	-1.528233	-0.141910	0.147558
O5	O	-1.194900	0.191423	0.480891
O6	O	-0.861566	0.524756	0.814225
O7	O	-1.754496	-0.006417	0.147554
O8	O	-1.421163	0.326916	0.480887
O9	O	-1.087830	0.660250	0.814221
O10	O	-1.731473	-0.266646	0.147578
O11	O	-1.398139	0.066688	0.480912
O12	O	-1.064806	0.400021	0.814245
O13	O	-1.754488	-0.006416	-0.147411
O14	O	-1.421155	0.326917	0.185922
O15	O	-1.087822	0.660251	0.519256
O16	O	-1.528225	-0.141909	-0.147407
O17	O	-1.194892	0.191424	0.185926
O18	O	-0.861558	0.524758	0.519260
O19	O	-1.957728	-0.131152	-0.147391
O20	O	-1.624395	0.202182	0.185943
O21	O	-1.291061	0.535515	0.519276
Cu22	Cu	-1.742976	-0.136530	-0.174332
Cu23	Cu	-1.409643	0.196803	0.159002
Cu24	Cu	-1.076309	0.530136	0.492335
Cu25	Cu	-1.742985	-0.136531	0.174499
Cu26	Cu	-1.409652	0.196802	0.507832
Cu27	Cu	-1.076318	0.530135	0.841166
O28	O	-1.731465	-0.266645	-0.147387
O29	O	-1.398131	0.066689	0.185947
O30	O	-1.064798	0.400022	0.519280
C31	C	-1.473263	-0.140876	0.000073
C32	C	-1.139930	0.192458	0.333407
C33	C	-0.806597	0.525791	0.666740
C34	C	-1.309483	-0.137784	0.000067
C35	C	-0.976150	0.195549	0.333400
C36	C	-0.642817	0.528882	0.666733
C37	C	-1.753463	0.026916	0.000072
C38	C	-1.420129	0.360249	0.333405
C39	C	-1.086796	0.693582	0.666739
C40	C	-1.750377	0.126236	0.000073
C41	C	-1.417044	0.459569	0.333407
C42	C	-1.083710	0.792903	0.666740
N43	N	-1.742980	-0.136529	-0.419680
N44	N	-1.409647	0.196804	-0.086347
N45	N	-1.076314	0.530138	0.246987
C46	C	-1.012698	-0.132186	0.000087
C47	C	-0.679364	0.201147	0.333420
C48	C	-0.346031	0.534481	0.666754
C49	C	-1.176478	-0.135277	0.000072
C50	C	-0.843145	0.198056	0.333405
C51	C	-0.509811	0.531390	0.666739
C52	C	-1.732498	-0.299977	0.000099
C53	C	-1.399165	0.033356	0.333433
C54	C	-1.065832	0.366689	0.666766
C55	C	-1.735584	-0.399298	0.000109
C56	C	-1.402251	-0.065964	0.333443
C57	C	-1.068917	0.267369	0.666776
C58	C	-1.883301	0.182470	0.000077
C59	C	-1.549967	0.515804	0.333411
C60	C	-1.216634	0.849137	0.666744
C61	C	-1.880393	0.275792	0.000095
C62	C	-1.547059	0.609125	0.333428
C63	C	-1.213726	0.942458	0.666762
C64	C	-1.744559	0.312876	0.000096
C65	C	-1.411226	0.646210	0.333430
C66	C	-1.077893	0.979543	0.666763
C67	C	-1.611626	0.256634	0.000098
C68	C	-1.278292	0.589968	0.333431
C69	C	-0.944959	0.923301	0.666764
C70	C	-1.614535	0.163315	0.000093
C71	C	-1.281202	0.496648	0.333426
C72	C	-0.947869	0.829982	0.666759
C73	C	-1.605571	0.451142	0.000104
C74	C	-1.272237	0.784475	0.333437
C75	C	-0.938904	1.117809	0.666771
C76	C	-1.602660	0.544468	0.000106
C77	C	-1.269327	0.877801	0.333439
C78	C	-0.935994	1.211134	0.666772
C79	C	-1.871428	0.563619	0.000106
C80	C	-1.538095	0.896952	0.333440
C81	C	-1.204761	1.230285	0.666773
C82	C	-1.874338	0.470299	0.000101
C83	C	-1.541004	0.803633	0.333434
C84	C	-1.207671	1.136966	0.666768
C85	C	-1.741403	0.414064	0.000099
C86	C	-1.408070	0.747397	0.333433
C87	C	-1.074736	1.080730	0.666766
N88	N	-1.742993	-0.136526	0.419847
N89	N	-1.409659	0.196807	0.753181
N90	N	-1.076326	0.530141	1.086514
H91	H	-1.993912	0.152284	0.000065
H92	H	-1.660578	0.485617	0.333399
H93	H	-1.327245	0.818951	0.666732
Cl94	Cl	-1.440863	0.303255	0.000121
Cl95	Cl	-1.107529	0.636589	0.333455
Cl96	Cl	-0.774196	0.969922	0.666788
Cl97	Cl	-2.038546	0.634314	0.000118
Cl98	Cl	-1.705212	0.967647	0.333451
Cl99	Cl	-1.371879	1.300980	0.666785
Cl100	Cl	-1.431896	0.591088	0.000106
Cl101	Cl	-1.098563	0.924421	0.333439
Cl102	Cl	-0.765230	1.257754	0.666772
Cl103	Cl	-2.047505	0.346483	0.000094
Cl104	Cl	-1.714171	0.679817	0.333428
Cl105	Cl	-1.380838	1.013150	0.666761
Cl106	Cl	-2.045102	0.423680	0.000108
Cl107	Cl	-1.711768	0.757013	0.333442
Cl108	Cl	-1.378435	1.090346	0.666775
H109	H	-1.497321	0.405357	0.000107
H110	H	-1.163988	0.738690	0.333440
H111	H	-0.830654	1.072024	0.666774
Cl112	Cl	-1.447424	0.092619	0.000095
Cl113	Cl	-1.114091	0.425953	0.333428
Cl114	Cl	-0.780757	0.759286	0.666761
