data_functionalizedCrystal
_audit_creation_method	'MofGen! by Chris Wilmer'
_symmetry_space_group_name_H-M	'P1'
_symmetry_Int_Tables_number	1
_symmetry_cell_setting	triclinic
loop_
_symmetry_equiv_pos_as_xyz
  x,y,z
_cell_length_a	30.700809
_cell_length_b	30.711276
_cell_length_c	30.700862
_cell_angle_alpha	59.998386
_cell_angle_beta	89.999414
_cell_angle_gamma	60.000191
loop_
_atom_site_label
_atom_site_type_symbol
_atom_site_fract_x
_atom_site_fract_y
_atom_site_fract_z
O1	O	-0.371254	-0.311651	0.012944
O2	O	-0.307913	-0.222487	-0.012907
O3	O	-0.307911	-0.311650	0.076286
O4	O	-0.371257	-0.222488	-0.076249
O5	O	-0.235466	-0.384070	0.076286
O6	O	-0.235468	-0.294907	-0.012907
O7	O	-0.298809	-0.384071	0.012944
Cu8	Cu	-0.260524	-0.346102	0.000018
Cu9	Cu	-0.346199	-0.260456	0.000019
O10	O	-0.298812	-0.294908	-0.076249
C11	C	-0.234796	-0.137097	-0.018777
C12	C	-0.261674	-0.083360	-0.015076
C13	C	-0.182374	-0.163176	-0.019143
C14	C	-0.234798	-0.215942	-0.018783
C15	C	-0.261678	-0.246507	-0.015089
C16	C	-0.182376	-0.241901	-0.019150
C17	C	-0.155920	-0.215947	-0.018777
C18	C	-0.098463	-0.246515	-0.015075
C19	C	-0.261132	-0.163172	-0.019150
C20	C	-0.574961	-0.535511	0.039265
C21	C	-0.548506	-0.588283	0.039634
C22	C	-0.496086	-0.535509	0.039262
C23	C	-0.469751	-0.588281	0.039632
C24	C	-0.496085	-0.614360	0.039265
C25	C	-0.548507	-0.509552	0.039632
C26	C	-0.765169	-0.393516	0.024987
C27	C	-0.819034	-0.364488	0.020950
C28	C	-0.846055	-0.389406	0.018925
C29	C	-0.904462	-0.357927	0.014538
C30	C	-0.819206	-0.443357	0.020941
C31	C	-0.765344	-0.472385	0.024984
C32	C	-0.738325	-0.447463	0.027007
C33	C	-0.447920	-0.790230	0.024988
C34	C	-0.423094	-0.840041	0.020951
C35	C	-0.371150	-0.865027	0.018921
C36	C	-0.344230	-0.919028	0.014536
C37	C	-0.344030	-0.840201	0.020935
C38	C	-0.368852	-0.790399	0.024981
C39	C	-0.420803	-0.765414	0.027004
C40	C	-0.447922	-0.393510	0.024977
C41	C	-0.423099	-0.364475	0.020931
C42	C	-0.371152	-0.389391	0.018903
C43	C	-0.344235	-0.357911	0.014513
C44	C	-0.344034	-0.443338	0.020916
C45	C	-0.368860	-0.472368	0.024960
C46	C	-0.420804	-0.447452	0.026995
C47	C	-0.679920	-0.478941	0.031387
C48	C	-0.633366	-0.504032	0.034880
C49	C	-0.469171	-0.504029	0.034875
C50	C	-0.447717	-0.478936	0.031380
C51	C	-0.469170	-0.668361	0.034880
C52	C	-0.447716	-0.711408	0.031386
C53	C	-0.496432	-0.071057	-0.503890
C54	C	-0.548853	-0.018285	-0.530226
C55	C	-0.496432	-0.071056	-0.425015
C56	C	-0.548854	-0.018284	-0.451470
C57	C	-0.575308	0.007793	-0.503892
C58	C	-0.470097	-0.097014	-0.451469
C59	C	-0.368666	-0.213054	-0.552051
C60	C	-0.343664	-0.242084	-0.576877
C61	C	-0.370616	-0.217167	-0.628824
C62	C	-0.343513	-0.248647	-0.655741
C63	C	-0.422570	-0.163216	-0.655945
C64	C	-0.447565	-0.134187	-0.631122
C65	C	-0.420611	-0.159108	-0.579173
C66	C	-0.765518	0.183662	-0.631659
C67	C	-0.819384	0.233473	-0.656662
C68	C	-0.846408	0.258459	-0.629712
C69	C	-0.904813	0.312461	-0.656813
C70	C	-0.819559	0.233635	-0.577758
C71	C	-0.765694	0.183833	-0.552761
C72	C	-0.738677	0.158847	-0.579717
C73	C	-0.368668	-0.213052	-0.234803
C74	C	-0.343669	-0.242086	-0.180935
C75	C	-0.370621	-0.217169	-0.153914
C76	C	-0.343519	-0.248648	-0.095506
C77	C	-0.422573	-0.163222	-0.180762
C78	C	-0.447570	-0.134193	-0.234627
C79	C	-0.420610	-0.159111	-0.261646
C80	C	-0.447720	-0.127629	-0.552258
C81	C	-0.469327	-0.102536	-0.530805
C82	C	-0.469328	-0.102535	-0.366609
C83	C	-0.447721	-0.127627	-0.320054
C84	C	-0.633714	0.061794	-0.530997
C85	C	-0.680269	0.104841	-0.552605
O86	O	0.076277	-0.384081	0.012960
O87	O	-0.076257	-0.294916	-0.012894
O88	O	0.012931	-0.384083	0.076300
O89	O	-0.012910	-0.294914	-0.076234
O90	O	0.012933	-0.311666	0.076306
O91	O	-0.076254	-0.222499	-0.012888
O92	O	0.076280	-0.311664	0.012966
Cu93	Cu	0.000013	-0.260469	0.000040
Cu94	Cu	0.000010	-0.346111	0.000033
O95	O	-0.012908	-0.222497	-0.076228
O96	O	-0.298805	0.063292	0.012964
O97	O	-0.235462	-0.063346	-0.012888
O98	O	-0.235465	-0.063353	0.076305
O99	O	-0.298803	0.063300	-0.076229
O100	O	-0.307912	-0.063350	0.076299
O101	O	-0.307909	-0.063342	-0.012895
O102	O	-0.371252	0.063295	0.012958
Cu103	Cu	-0.346196	-0.000023	0.000031
Cu104	Cu	-0.260519	-0.000027	0.000039
O105	O	-0.371250	0.063303	-0.076236
O106	O	-1.076607	0.456783	-0.692421
O107	O	-0.924074	0.330140	-0.629074
O108	O	-1.013262	0.330138	-0.629073
O109	O	-0.987418	0.456785	-0.692422
O110	O	-1.013261	0.330136	-0.701518
O111	O	-0.924072	0.330138	-0.701518
O112	O	-1.076605	0.456781	-0.764865
Cu113	Cu	-1.000338	0.393460	-0.739807
Cu114	Cu	-1.000340	0.393461	-0.654133
O115	O	-0.987417	0.456783	-0.764866
O116	O	-0.307911	-0.311650	-0.764507
O117	O	-0.371254	-0.222491	-0.701165
O118	O	-0.371252	-0.311652	-0.701162
O119	O	-0.307912	-0.222489	-0.764510
O120	O	-0.298806	-0.384074	-0.628716
O121	O	-0.298807	-0.294912	-0.628719
O122	O	-0.235464	-0.384072	-0.692061
Cu123	Cu	-0.260521	-0.346105	-0.653775
Cu124	Cu	-0.346197	-0.260458	-0.739451
O125	O	-0.235466	-0.294910	-0.692064
C126	C	-0.155920	-0.469469	0.234827
C127	C	-0.098464	-0.523208	0.261706
C128	C	-0.182375	-0.443392	0.261162
C129	C	-0.234797	-0.390619	0.155950
C130	C	-0.261676	-0.360052	0.098494
C131	C	-0.261132	-0.364662	0.182405
C132	C	-0.234797	-0.390620	0.234826
C133	C	-0.261675	-0.360052	0.261704
C134	C	-0.182375	-0.443391	0.182406
C135	C	0.018810	-0.390643	0.234846
C136	C	0.015111	-0.360079	0.261727
C137	C	0.019176	-0.443414	0.261179
C138	C	0.018812	-0.390637	0.155967
C139	C	0.015115	-0.360067	0.098511
C140	C	0.019178	-0.443408	0.182420
C141	C	0.018807	-0.469488	0.234841
C142	C	0.015106	-0.523226	0.261717
C143	C	0.019180	-0.364683	0.182425
C144	C	-0.234799	-0.215977	0.234834
C145	C	-0.261678	-0.246545	0.261708
C146	C	-0.182376	-0.241940	0.261172
C147	C	-0.234798	-0.137119	0.155964
C148	C	-0.261676	-0.083372	0.098509
C149	C	-0.182375	-0.163202	0.182421
C150	C	-0.155921	-0.215981	0.234841
C151	C	-0.098464	-0.246554	0.261721
C152	C	-0.261134	-0.163198	0.182415
C153	C	-0.039199	0.007461	-0.503869
C154	C	-0.039568	-0.018614	-0.530207
C155	C	-0.039203	-0.071390	-0.424995
C156	C	-0.039572	-0.097344	-0.451452
C157	C	-0.039201	-0.071385	-0.503874
C158	C	-0.039570	-0.018618	-0.451448
C159	C	-0.024912	0.183325	-0.552025
C160	C	-0.020873	0.233135	-0.576849
C161	C	-0.018844	0.258123	-0.628796
C162	C	-0.014454	0.312124	-0.655711
C163	C	-0.020859	0.233301	-0.655918
C164	C	-0.024906	0.183500	-0.631097
C165	C	-0.026932	0.158512	-0.579148
C166	C	-0.024920	-0.133799	-0.631644
C167	C	-0.020882	-0.162650	-0.656647
C168	C	-0.018855	-0.216605	-0.629699
C169	C	-0.014470	-0.247897	-0.656801
C170	C	-0.020872	-0.241704	-0.577746
C171	C	-0.024919	-0.212847	-0.552747
C172	C	-0.026939	-0.158893	-0.579702
C173	C	-0.024929	-0.133823	-0.234783
C174	C	-0.020887	-0.162684	-0.180915
C175	C	-0.018862	-0.216639	-0.153896
C176	C	-0.014477	-0.247936	-0.095488
C177	C	-0.020875	-0.241733	-0.180745
C178	C	-0.024915	-0.212872	-0.234610
C179	C	-0.026947	-0.158912	-0.261627
C180	C	-0.031316	0.104507	-0.552235
C181	C	-0.034811	0.061462	-0.530782
C182	C	-0.034820	-0.102682	-0.366590
C183	C	-0.031328	-0.127624	-0.320035
C184	C	-0.034816	-0.102672	-0.530980
C185	C	-0.031322	-0.127610	-0.552588
O186	O	-0.012940	-0.294936	0.371303
O187	O	0.012923	-0.384099	0.307961
O188	O	-0.076273	-0.294935	0.307950
O189	O	0.076257	-0.384100	0.371315
O190	O	-0.076265	-0.222515	0.235508
O191	O	0.012932	-0.311679	0.235520
O192	O	-0.012931	-0.222517	0.298862
Cu193	Cu	0.000001	-0.260485	0.260576
Cu194	Cu	-0.000009	-0.346130	0.346247
O195	O	0.076266	-0.311681	0.298873
C196	C	-0.574962	0.464558	-0.503864
C197	C	-0.548506	0.490518	-0.530195
C198	C	-0.496085	0.385697	-0.424987
C199	C	-0.469749	0.411776	-0.451438
C200	C	-0.496084	0.464555	-0.503857
C201	C	-0.548507	0.411779	-0.451444
C202	C	-0.765173	0.526994	-0.552039
C203	C	-0.819039	0.555852	-0.576867
C204	C	-0.846061	0.609814	-0.628812
C205	C	-0.904469	0.641114	-0.655732
C206	C	-0.819211	0.634913	-0.655928
C207	C	-0.765348	0.606050	-0.631102
C208	C	-0.738329	0.552088	-0.579155
C209	C	-0.447916	0.606561	-0.631604
C210	C	-0.423088	0.635592	-0.656601
C211	C	-0.371143	0.610674	-0.629648
C212	C	-0.344222	0.642150	-0.656742
C213	C	-0.344023	0.556716	-0.577696
C214	C	-0.368845	0.527681	-0.552704
C215	C	-0.420798	0.552613	-0.579664
C216	C	-0.447920	0.209802	-0.234786
C217	C	-0.423096	0.159988	-0.180919
C218	C	-0.371148	0.134996	-0.153895
C219	C	-0.344230	0.080987	-0.095489
C220	C	-0.344029	0.159823	-0.180737
C221	C	-0.368856	0.209637	-0.234602
C222	C	-0.420801	0.234620	-0.261624
C223	C	-0.679923	0.520797	-0.552238
C224	C	-0.633367	0.495853	-0.530781
C225	C	-0.469169	0.331687	-0.366583
C226	C	-0.447714	0.288634	-0.320030
C227	C	-0.469167	0.496035	-0.530956
C228	C	-0.447712	0.521128	-0.552558
H229	H	-0.161139	-0.284365	-0.019743
C230	C	-0.153991	-0.134199	0.154096
C231	C	-0.108352	-0.176975	0.151479
C232	C	-0.082196	-0.150277	0.125384
H233	H	-0.143957	-0.122291	0.173252
H234	H	-0.177240	-0.098983	0.119006
H235	H	-0.085107	-0.212179	0.186562
H236	H	-0.118370	-0.188886	0.132318
H237	H	-0.105445	-0.115062	0.090294
H238	H	-0.072166	-0.138370	0.144543
H239	H	-0.051230	-0.179294	0.123600
H240	H	-0.489870	-0.090268	-0.256484
C241	C	0.019864	-0.307989	0.154039
C242	C	-0.025541	-0.259753	0.108396
C243	C	-0.024932	-0.207517	0.082237
H244	H	0.050936	-0.317109	0.144009
H245	H	0.019996	-0.296149	0.177286
H246	H	-0.025668	-0.271591	0.085154
H247	H	-0.056619	-0.250614	0.118411
H248	H	-0.024800	-0.195677	0.105484
H249	H	0.006141	-0.216644	0.072211
H250	H	-0.055741	-0.174781	0.051268
C251	C	-0.154135	-0.133951	-0.020071
C252	C	-0.182542	-0.073440	-0.065972
C253	C	-0.156545	-0.046493	-0.066867
H254	H	-0.119075	-0.156989	-0.020284
H255	H	-0.152299	-0.133671	0.010671
H256	H	-0.184372	-0.073723	-0.096706
H257	H	-0.217601	-0.050386	-0.065768
H258	H	-0.154709	-0.046213	-0.036125
H259	H	-0.121486	-0.069536	-0.067079
H260	H	-0.175818	-0.005432	-0.098008
H261	H	-0.304205	-0.141343	-0.019747
H262	H	-0.161141	-0.284407	0.304244
C263	C	-0.027137	0.156307	-0.495634
C264	C	-0.024524	0.188714	-0.477202
C265	C	-0.026578	0.163845	-0.425260
H266	H	0.002137	0.114201	-0.472903
H267	H	-0.059586	0.159571	-0.495637
H268	H	0.007921	0.185444	-0.477195
H269	H	-0.053795	0.230820	-0.499918
H270	H	-0.059027	0.167109	-0.425263
H271	H	0.002697	0.121740	-0.402534
H272	H	-0.024810	0.185833	-0.412749
H273	H	-0.346709	-0.233340	-0.256801
H274	H	-0.346776	-0.516292	0.026600
C275	C	-0.576916	-0.617291	0.040419
C276	C	-0.628588	-0.583133	0.040650
C277	C	-0.654772	-0.609838	0.041374
H278	H	-0.557783	-0.658357	0.071523
H279	H	-0.578769	-0.617501	0.009640
H280	H	-0.626732	-0.582931	0.071426
H281	H	-0.647735	-0.542068	0.009549
H282	H	-0.656624	-0.610048	0.010596
H283	H	-0.635634	-0.650903	0.072479
H284	H	-0.689835	-0.586663	0.041526
C285	C	-0.287659	-0.867206	0.018662
C286	C	-0.286576	-0.821680	-0.025879
C287	C	-0.234655	-0.846531	-0.027987
H288	H	-0.276700	-0.900411	0.015938
H289	H	-0.264132	-0.881732	0.050168
H290	H	-0.310095	-0.807163	-0.057378
H291	H	-0.297525	-0.788472	-0.023166
H292	H	-0.211129	-0.861057	0.003519
H293	H	-0.223701	-0.879736	-0.030709
H294	H	-0.233913	-0.815644	-0.058205
H295	H	-0.304205	-0.141373	0.161175
C296	C	-0.018699	0.260183	-0.547500
C297	C	-0.014735	0.309157	-0.580361
C298	C	-0.012737	0.334093	-0.553344
H299	H	0.011494	0.229370	-0.515845
H300	H	-0.050233	0.274702	-0.538543
H301	H	0.016795	0.294637	-0.589310
H302	H	-0.044924	0.339983	-0.612015
H303	H	-0.044271	0.348611	-0.544388
H304	H	0.017455	0.303275	-0.521691
H305	H	-0.010053	0.367327	-0.575639
C306	C	-0.040410	-0.153933	-0.423062
C307	C	-0.040668	-0.171183	-0.371399
C308	C	-0.041456	-0.223297	-0.345238
H309	H	-0.009655	-0.186793	-0.421186
H310	H	-0.071535	-0.144718	-0.442235
H311	H	-0.009547	-0.180402	-0.352231
H312	H	-0.071422	-0.138340	-0.373258
H313	H	-0.072580	-0.214082	-0.364410
H314	H	-0.010700	-0.256152	-0.343366
H315	H	-0.041636	-0.235005	-0.310183
C316	C	-0.412308	-0.617319	0.040461
C317	C	-0.394799	-0.583175	0.040713
C318	C	-0.341885	-0.609915	0.041490
H319	H	-0.410199	-0.617554	0.009703
H320	H	-0.390396	-0.658386	0.071584
H321	H	-0.416706	-0.542120	0.009593
H322	H	-0.396895	-0.582938	0.071469
H323	H	-0.319972	-0.650981	0.072613
H324	H	-0.339781	-0.610149	0.010732
H325	H	-0.329997	-0.586755	0.041666
C326	C	-0.018542	0.260370	-0.712272
C327	C	0.029316	0.255492	-0.712093
C328	C	0.031475	0.280411	-0.763996
H329	H	-0.047783	0.302494	-0.734994
H330	H	-0.020292	0.238449	-0.724877
H331	H	0.031061	0.277415	-0.699495
H332	H	0.058566	0.213375	-0.689382
H333	H	0.029725	0.258489	-0.776601
H334	H	0.002232	0.322533	-0.786714
H335	H	0.063948	0.277099	-0.763881
C336	C	-0.154004	-0.472440	0.318559
C337	C	-0.108369	-0.472663	0.321417
C338	C	-0.082231	-0.499406	0.374280
H339	H	-0.143967	-0.513530	0.340512
H340	H	-0.177265	-0.449328	0.330525
H341	H	-0.085112	-0.495776	0.309458
H342	H	-0.118391	-0.431581	0.299476
H343	H	-0.105492	-0.476294	0.386245
H344	H	-0.072198	-0.540494	0.396228
H345	H	-0.051268	-0.499556	0.376225
C346	C	-0.154130	-0.472489	0.154060
C347	C	-0.182498	-0.489993	0.139396
C348	C	-0.156491	-0.516794	0.113283
H349	H	-0.119057	-0.507735	0.177297
H350	H	-0.152328	-0.443542	0.123048
H351	H	-0.184294	-0.518938	0.170404
H352	H	-0.217570	-0.454758	0.116153
H353	H	-0.154689	-0.487847	0.082271
H354	H	-0.121419	-0.552037	0.136523
H355	H	-0.175738	-0.528668	0.103326
H356	H	-0.445174	0.679524	-0.698898
H357	H	-0.569749	-0.467085	0.040220
H358	H	-0.445184	-0.320548	0.019287
H359	H	-0.346767	-0.770191	0.026621
C360	C	0.020076	-0.472558	0.154114
C361	C	0.065965	-0.490067	0.139468
C362	C	0.066814	-0.516929	0.113403
H363	H	-0.010662	-0.443661	0.123099
H364	H	0.020272	-0.507810	0.177390
H365	H	0.065764	-0.454819	0.116193
H366	H	0.096712	-0.518970	0.170473
H367	H	0.067010	-0.552182	0.136679
H368	H	0.036073	-0.488029	0.082390
H369	H	0.097951	-0.528818	0.103466
H370	H	-0.490220	-0.373215	0.026628
C371	C	-0.040287	0.010532	-0.587615
C372	C	-0.040487	0.062397	-0.605105
C373	C	-0.041123	0.089241	-0.657975
H374	H	-0.071371	0.022511	-0.609601
H375	H	-0.009488	-0.018420	-0.589626
H376	H	-0.071282	0.091343	-0.603098
H377	H	-0.009406	0.050434	-0.583133
H378	H	-0.010325	0.060289	-0.659986
H379	H	-0.072208	0.101216	-0.679957
H380	H	-0.041254	0.124430	-0.669847
H381	H	-0.840890	-0.320560	0.019306
C382	C	0.019848	-0.472421	0.318572
C383	C	-0.025567	-0.429646	0.321413
C384	C	-0.024972	-0.456347	0.374270
H385	H	0.050913	-0.484335	0.340531
H386	H	0.019985	-0.507633	0.330539
H387	H	-0.025699	-0.394444	0.309452
H388	H	-0.056639	-0.417728	0.299465
H389	H	-0.024836	-0.491559	0.386237
H390	H	0.006094	-0.468260	0.396224
H391	H	-0.055788	-0.427330	0.376203
H392	H	-0.346770	0.229846	-0.256454
C393	C	-0.040394	0.010590	-0.423225
C394	C	-0.040642	0.062487	-0.457631
C395	C	-0.041411	0.089413	-0.431654
H396	H	-0.009635	-0.018291	-0.392232
H397	H	-0.071515	0.022542	-0.413267
H398	H	-0.009524	0.050534	-0.467582
H399	H	-0.071399	0.091381	-0.488625
H400	H	-0.072532	0.101366	-0.421696
H401	H	-0.010651	0.060529	-0.400662
H402	H	-0.041584	0.124632	-0.454996
H403	H	-0.019235	-0.142256	-0.159055
H404	H	-0.346761	0.483749	-0.510407
H405	H	-0.841210	-0.463642	0.019294
C406	C	-0.027222	-0.239998	-0.496386
C407	C	-0.075076	-0.196958	-0.496468
C408	C	-0.077217	-0.221952	-0.444559
H409	H	0.002023	-0.249894	-0.473602
H410	H	-0.025467	-0.276249	-0.483906
H411	H	-0.076825	-0.160719	-0.508941
H412	H	-0.104329	-0.187058	-0.519241
H413	H	-0.075463	-0.258203	-0.432078
H414	H	-0.047971	-0.231848	-0.421779
H415	H	-0.109688	-0.192756	-0.444608
H416	H	-0.026581	-0.089888	-0.256777
C417	C	-0.735916	-0.366395	0.027230
C418	C	-0.770947	-0.312955	0.024626
C419	C	-0.744012	-0.287968	0.026707
H420	H	-0.723062	-0.356508	-0.002039
H421	H	-0.706737	-0.395583	0.059684
H422	H	-0.800117	-0.283774	-0.007825
H423	H	-0.783802	-0.322826	0.053892
H424	H	-0.714833	-0.317156	0.059161
H425	H	-0.731160	-0.278085	-0.002563
H426	H	-0.767776	-0.251710	0.024945
C427	C	-0.318587	-0.308093	0.154167
C428	C	-0.350752	-0.321803	0.182545
C429	C	-0.403678	-0.269706	0.156549
H430	H	-0.330615	-0.296255	0.119093
H431	H	-0.320644	-0.275290	0.152365
H432	H	-0.348698	-0.354596	0.184340
H433	H	-0.338741	-0.333634	0.217617
H434	H	-0.405734	-0.236903	0.154747
H435	H	-0.415700	-0.257872	0.121476
H436	H	-0.425507	-0.278999	0.175802
H437	H	-0.743487	-0.516312	0.026628
C438	C	-0.027059	0.156618	-0.660619
C439	C	-0.024403	0.189149	-0.711419
C440	C	-0.026376	0.164396	-0.738627
H441	H	-0.059487	0.159861	-0.663979
H442	H	0.002238	0.114516	-0.641258
H443	H	-0.053698	0.231240	-0.730776
H444	H	0.008023	0.185909	-0.708075
H445	H	0.002922	0.122294	-0.719266
H446	H	-0.058804	0.167639	-0.741983
H447	H	-0.024569	0.186460	-0.773095
C448	C	-0.027140	-0.075205	-0.661008
C449	C	-0.024526	-0.059391	-0.711859
C450	C	-0.026577	-0.005416	-0.738924
H451	H	0.002134	-0.081749	-0.641617
H452	H	-0.059589	-0.042768	-0.664271
H453	H	0.007919	-0.091820	-0.708594
H454	H	-0.053798	-0.052835	-0.731264
H455	H	-0.059025	0.027021	-0.742187
H456	H	0.002699	-0.011966	-0.719528
H457	H	-0.024808	0.005324	-0.773431
C458	C	-0.018595	-0.135530	-0.713014
C459	C	0.029250	-0.178590	-0.712925
C460	C	0.031374	-0.153634	-0.764841
H461	H	-0.020345	-0.099279	-0.725540
H462	H	-0.047858	-0.125653	-0.735764
H463	H	0.058505	-0.188458	-0.690183
H464	H	0.031010	-0.214843	-0.700409
H465	H	0.002111	-0.143757	-0.787592
H466	H	0.029623	-0.117383	-0.777363
H467	H	0.063834	-0.182847	-0.764789
C468	C	-0.504310	-0.763216	0.027213
C469	C	-0.522740	-0.795628	0.024602
C470	C	-0.574680	-0.770763	0.026657
H471	H	-0.527042	-0.721110	-0.002062
H472	H	-0.504308	-0.766480	0.059662
H473	H	-0.522746	-0.792358	-0.007843
H474	H	-0.500023	-0.837733	0.053875
H475	H	-0.574678	-0.774026	0.059106
H476	H	-0.597407	-0.728657	-0.002619
H477	H	-0.587189	-0.792753	0.024891
H478	H	-0.019230	-0.285631	-0.555806
C479	C	-0.848447	0.693476	-0.712335
C480	C	-0.813404	0.709268	-0.730772
C481	C	-0.840314	0.763209	-0.782735
H482	H	-0.877637	0.725943	-0.712383
H483	H	-0.861276	0.686882	-0.735033
H484	H	-0.800583	0.715865	-0.708080
H485	H	-0.784213	0.676816	-0.730737
H486	H	-0.853142	0.756615	-0.805433
H487	H	-0.869503	0.795672	-0.782778
H488	H	-0.816540	0.773928	-0.795253
H489	H	-0.026556	-0.233307	-0.256467
C490	C	-0.018709	-0.300293	-0.151330
C491	C	-0.014759	-0.320188	-0.098416
C492	C	-0.012773	-0.374122	-0.071308
H493	H	0.011484	-0.331381	-0.151883
H494	H	-0.050243	-0.292290	-0.168279
H495	H	0.016772	-0.328194	-0.081471
H496	H	-0.044949	-0.289116	-0.097847
H497	H	-0.044308	-0.366119	-0.088257
H498	H	0.017420	-0.405205	-0.071865
H499	H	-0.010098	-0.387625	-0.035404
H500	H	-0.743837	0.163627	-0.510462
C501	C	-0.412310	0.382566	-0.423035
C502	C	-0.394804	0.330665	-0.371371
C503	C	-0.341895	0.303741	-0.345195
H504	H	-0.410213	0.411446	-0.421159
H505	H	-0.390389	0.370618	-0.442197
H506	H	-0.416719	0.342615	-0.352213
H507	H	-0.396888	0.301772	-0.373231
H508	H	-0.319974	0.291792	-0.364357
H509	H	-0.339803	0.332625	-0.343323
H510	H	-0.330009	0.268520	-0.310140
C511	C	-0.576932	0.547182	-0.587606
C512	C	-0.628612	0.564465	-0.605104
C513	C	-0.654818	0.616672	-0.657980
H514	H	-0.557822	0.538076	-0.609583
H515	H	-0.578771	0.579985	-0.589625
H516	H	-0.626770	0.531670	-0.603089
H517	H	-0.647736	0.573584	-0.583142
H518	H	-0.656657	0.649475	-0.659998
H519	H	-0.635703	0.607561	-0.679952
H520	H	-0.689886	0.628409	-0.669857
C521	C	-0.504354	0.633664	-0.660810
C522	C	-0.537654	0.648099	-0.632037
C523	C	-0.589649	0.673072	-0.658926
H524	H	-0.504416	0.604514	-0.664055
H525	H	-0.516978	0.669974	-0.695322
H526	H	-0.525033	0.611793	-0.597534
H527	H	-0.537608	0.677254	-0.628791
H528	H	-0.602273	0.709383	-0.693438
H529	H	-0.589705	0.643919	-0.662170
H530	H	-0.612250	0.682874	-0.639410
C531	C	-0.576916	0.382793	-0.423159
C532	C	-0.622560	0.425573	-0.420550
C533	C	-0.648745	0.398895	-0.394502
H534	H	-0.553701	0.347569	-0.388070
H535	H	-0.586940	0.370911	-0.442355
H536	H	-0.612535	0.437446	-0.401353
H537	H	-0.645788	0.460798	-0.455631
H538	H	-0.658769	0.387013	-0.413698
H539	H	-0.625525	0.363672	-0.359415
H540	H	-0.679719	0.427918	-0.392733
H541	H	-0.743490	0.626486	-0.653184
H542	H	-0.301369	-0.286012	-0.159078
H543	H	-0.445180	-0.860248	0.019309
C544	C	-0.452618	0.133102	-0.151877
C545	C	-0.503417	0.165636	-0.187075
C546	C	-0.530626	0.140880	-0.160344
H547	H	-0.455977	0.136339	-0.122690
H548	H	-0.433258	0.091002	-0.139062
H549	H	-0.522772	0.207726	-0.199882
H550	H	-0.500074	0.162402	-0.216263
H551	H	-0.511266	0.098780	-0.147529
H552	H	-0.533981	0.144118	-0.131157
H553	H	-0.565094	0.162946	-0.184222
C554	C	-0.287641	-0.470474	0.018697
C555	C	-0.269213	-0.523921	0.021314
C556	C	-0.217270	-0.548930	0.019263
H557	H	-0.264910	-0.480356	0.047972
H558	H	-0.287640	-0.441300	-0.013752
H559	H	-0.269210	-0.553089	0.053759
H560	H	-0.291928	-0.514055	-0.007959
H561	H	-0.217270	-0.519757	-0.013186
H562	H	-0.194545	-0.558809	0.048539
H563	H	-0.204762	-0.585194	0.021034
C564	C	-0.577076	0.010747	-0.423073
C565	C	-0.542670	-0.023400	-0.371406
C566	C	-0.568647	0.003330	-0.345236
H567	H	-0.608067	0.010975	-0.421201
H568	H	-0.587040	0.051815	-0.442236
H569	H	-0.532714	-0.064458	-0.352248
H570	H	-0.511679	-0.023631	-0.373262
H571	H	-0.578611	0.044398	-0.364399
H572	H	-0.599637	0.003556	-0.343368
H573	H	-0.545305	-0.019832	-0.310179
H574	H	-0.570087	0.003544	-0.573301
H575	H	-0.490217	0.230142	-0.256784
H576	H	-0.427024	-0.139478	-0.430231
H577	H	-0.743179	0.483055	-0.509743
H578	H	-0.840896	0.535415	-0.554785
H579	H	-0.346713	-0.233351	-0.509753
H580	H	-0.301723	0.536422	-0.555753
C581	C	-0.287228	-0.300595	-0.547408
C582	C	-0.252777	-0.288537	-0.534246
C583	C	-0.200784	-0.342423	-0.507097
H584	H	-0.276130	-0.314356	-0.569591
H585	H	-0.286424	-0.331566	-0.515730
H586	H	-0.253579	-0.257577	-0.565920
H587	H	-0.263858	-0.274784	-0.512058
H588	H	-0.199980	-0.373393	-0.475418
H589	H	-0.189691	-0.356179	-0.529282
H590	H	-0.177404	-0.334250	-0.498159
C591	C	-0.451752	-0.136279	-0.712329
C592	C	-0.418749	-0.173257	-0.728260
C593	C	-0.445619	-0.148465	-0.780195
H594	H	-0.460723	-0.095815	-0.735906
H595	H	-0.483395	-0.134852	-0.713172
H596	H	-0.387116	-0.174677	-0.727421
H597	H	-0.409776	-0.213722	-0.704697
H598	H	-0.477262	-0.147038	-0.781038
H599	H	-0.454589	-0.108001	-0.803768
H600	H	-0.423232	-0.173554	-0.791009
C601	C	-0.503978	-0.075635	-0.660646
C602	C	-0.522237	-0.060032	-0.711447
C603	C	-0.574204	-0.006103	-0.738657
H604	H	-0.504089	-0.043105	-0.664003
H605	H	-0.526736	-0.082171	-0.641288
H606	H	-0.499485	-0.053493	-0.730801
H607	H	-0.522138	-0.092547	-0.708105
H608	H	-0.596962	-0.012639	-0.719299
H609	H	-0.574311	0.026423	-0.742011
H610	H	-0.586601	0.004488	-0.773127
C611	C	-0.287620	0.132588	-0.151314
C612	C	-0.271675	0.083640	-0.098401
C613	C	-0.219715	0.058533	-0.071284
H614	H	-0.286724	0.163327	-0.151865
H615	H	-0.264083	0.118009	-0.168258
H616	H	-0.295205	0.098219	-0.081461
H617	H	-0.272559	0.052887	-0.097834
H618	H	-0.196178	0.043954	-0.088228
H619	H	-0.218823	0.089277	-0.071839
H620	H	-0.208887	0.025315	-0.035381
H621	H	-0.841239	0.253681	-0.698962
C622	C	-0.736189	0.156659	-0.661003
C623	C	-0.737174	0.202190	-0.707609
C624	C	-0.710157	0.177338	-0.734652
H625	H	-0.753126	0.142122	-0.670026
H626	H	-0.700250	0.123457	-0.638709
H627	H	-0.773106	0.235381	-0.729899
H628	H	-0.720234	0.216731	-0.698601
H629	H	-0.674218	0.144136	-0.712358
H630	H	-0.727097	0.162801	-0.743671
H631	H	-0.710818	0.208225	-0.766274
C632	C	-0.848936	0.260884	-0.548590
C633	C	-0.867816	0.322943	-0.577379
C634	C	-0.894887	0.348066	-0.550528
H635	H	-0.825284	0.239043	-0.514072
H636	H	-0.878153	0.257678	-0.545372
H637	H	-0.838603	0.326145	-0.580590
H638	H	-0.891475	0.344800	-0.611896
H639	H	-0.924104	0.344860	-0.547311
H640	H	-0.871232	0.326221	-0.516012
H641	H	-0.907705	0.390177	-0.570060
C642	C	-0.451741	-0.136242	-0.151343
C643	C	-0.418729	-0.173198	-0.098428
C644	C	-0.445577	-0.148359	-0.071315
H645	H	-0.483390	-0.134790	-0.151899
H646	H	-0.460690	-0.095776	-0.168287
H647	H	-0.409787	-0.213653	-0.081488
H648	H	-0.387080	-0.174654	-0.097856
H649	H	-0.454526	-0.107893	-0.088259
H650	H	-0.477225	-0.146908	-0.071875
H651	H	-0.423180	-0.173427	-0.035411
