data_functionalizedCrystal
_audit_creation_method	'MofGen! by Chris Wilmer'
_symmetry_space_group_name_H-M	'P1'
_symmetry_Int_Tables_number	1
_symmetry_cell_setting	triclinic
loop_
_symmetry_equiv_pos_as_xyz
  x,y,z
_cell_length_a	14.853567
_cell_length_b	17.666332
_cell_length_c	14.853576
_cell_angle_alpha	90.005408
_cell_angle_beta	83.636707
_cell_angle_gamma	90.006378
loop_
_atom_site_label
_atom_site_type_symbol
_atom_site_fract_x
_atom_site_fract_y
_atom_site_fract_z
O1	O	1.196375	0.062894	0.117705
O2	O	0.933916	0.062907	0.131727
O3	O	1.072152	0.062897	-0.006513
O4	O	1.058138	0.062904	0.255945
O5	O	1.072127	-0.062999	-0.006521
O6	O	0.933891	-0.062990	0.131719
O7	O	1.196350	-0.063002	0.117698
Cu8	Cu	1.065119	-0.074491	0.124708
Cu9	Cu	1.065147	0.074396	0.124717
O10	O	1.058114	-0.062993	0.255938
C11	C	0.900315	-0.000040	0.131088
C12	C	0.800231	-0.000035	0.129184
N13	N	1.065105	-0.179211	0.124701
C14	C	0.387694	-0.000054	0.039018
C15	C	0.366418	-0.000049	0.203251
C16	C	0.460452	-0.000047	0.205041
C17	C	0.518111	-0.000047	0.123818
C18	C	0.481737	-0.000049	0.040806
C19	C	0.496834	-0.000036	0.288052
C20	C	0.590873	-0.000033	0.289845
C21	C	0.648534	-0.000039	0.208622
C22	C	0.612154	-0.000042	0.125606
C23	C	0.669814	-0.000042	0.044384
C24	C	0.633436	-0.000051	-0.038633
C25	C	0.539398	-0.000055	-0.040417
C26	C	0.742572	-0.000035	0.210406
C27	C	0.763856	-0.000037	0.046171
C28	C	1.126336	-0.218825	0.063519
C29	C	1.126341	-0.298072	0.063514
C30	C	1.065124	-0.337703	0.124708
C31	C	1.003882	-0.298079	0.185895
C32	C	1.003872	-0.218833	0.185892
N33	N	1.053750	-0.462119	0.204466
N34	N	1.053765	-0.537400	0.204466
C35	C	1.065148	-0.576467	0.124721
N36	N	1.076533	-0.537410	0.044972
N37	N	1.076523	-0.462123	0.044973
C38	C	1.065127	-0.423632	0.124718
C39	C	1.126388	-0.702010	0.063528
C40	C	1.126387	-0.781259	0.063523
C41	C	1.003932	-0.781265	0.185912
C42	C	1.003928	-0.702017	0.185909
C43	C	1.065161	-0.662395	0.124719
C44	C	1.229951	-0.000054	0.118337
C45	C	1.330035	-0.000054	0.120241
C46	C	1.071503	-0.000050	-0.040106
C47	C	1.069596	-0.000047	-0.140189
N48	N	1.065168	0.179116	0.124716
C49	C	1.068712	0.068582	-0.187200
C50	C	1.068696	-0.068675	-0.187221
C51	C	1.066909	-0.068675	-0.281255
C52	C	1.066025	-0.000045	-0.328266
C53	C	1.066928	0.068584	-0.281243
C54	C	1.066016	-0.137304	-0.328287
C55	C	1.064230	-0.137307	-0.422327
C56	C	1.063339	-0.068676	-0.469339
C57	C	1.064241	-0.000043	-0.422309
C58	C	1.063357	0.068586	-0.469320
C59	C	1.064252	0.137220	-0.422292
C60	C	1.066037	0.137215	-0.328255
C61	C	1.061554	-0.068671	-0.563376
C62	C	1.061572	0.068589	-0.563363
C63	C	1.058763	-0.000044	0.289530
C64	C	1.060670	-0.000041	0.389613
H65	H	0.810798	-0.000040	-0.019971
O66	O	0.626320	-0.000122	0.370424
C67	C	0.720104	-0.065347	0.467777
C68	C	0.680033	-0.065335	0.376485
H69	H	0.763524	-0.118074	0.472715
H70	H	0.763661	-0.012691	0.472724
H71	H	0.662731	-0.065305	0.525510
H72	H	0.737348	-0.065403	0.318699
H73	H	0.636452	-0.117986	0.371617
H74	H	1.176246	-0.813514	0.013696
O75	O	0.352468	0.000041	-0.041676
C76	C	0.341844	0.065283	-0.182566
C77	C	0.381815	0.065260	-0.091221
H78	H	0.365539	0.118014	-0.222641
H79	H	0.365607	0.012632	-0.222774
H80	H	0.264730	0.065240	-0.169874
H81	H	0.458930	0.065329	-0.103831
H82	H	0.357981	0.117906	-0.051042
O83	O	1.069703	0.135299	-0.141640
C84	C	1.148333	0.252595	-0.122932
C85	C	1.147310	0.177073	-0.174612
H86	H	1.211082	0.286384	-0.149558
H87	H	1.084988	0.286490	-0.133281
H88	H	1.149713	0.240794	-0.047643
H89	H	1.145962	0.188806	-0.249918
H90	H	1.210652	0.143202	-0.164188
H91	H	0.509770	-0.000080	-0.108005
H92	H	0.954036	-0.330351	0.235719
H93	H	1.069423	-0.124550	-0.148940
O94	O	0.777954	0.000107	0.291014
C95	C	0.871830	0.065315	0.388321
C96	C	0.831804	0.065259	0.297005
H97	H	0.915392	0.117977	0.393187
H98	H	0.814503	0.065367	0.446103
H99	H	0.915280	0.012604	0.393250
H100	H	0.788365	0.117962	0.291988
H101	H	0.889174	0.065168	0.239268
H102	H	0.319467	-0.000043	0.269378
H103	H	1.176193	-0.186567	0.013691
O104	O	1.185762	-0.663407	0.004100
C105	C	1.204888	-0.573897	-0.118938
C106	C	1.137531	-0.617568	-0.051707
H107	H	1.165920	-0.536838	-0.164088
H108	H	1.249914	-0.536760	-0.079902
H109	H	1.248707	-0.615812	-0.162639
H110	H	1.093653	-0.575708	-0.007989
H111	H	1.092568	-0.654716	-0.090799
H112	H	1.063500	-0.193192	-0.460609
H113	H	1.066742	-0.193178	-0.290004
H114	H	1.176204	-0.330332	0.013690
O115	O	0.944421	-0.663649	0.245437
C116	C	0.822930	-0.672020	0.366792
C117	C	0.890293	-0.715565	0.299440
H118	H	0.779137	-0.713975	0.410458
H119	H	0.861856	-0.634928	0.411963
H120	H	0.777884	-0.634910	0.327767
H121	H	0.935356	-0.752716	0.338391
H122	H	0.851310	-0.752610	0.254270
H123	H	0.954009	-0.186579	0.235715
O124	O	1.060743	0.135325	-0.608891
C125	C	1.060855	0.271467	-0.598933
C126	C	1.061827	0.195944	-0.547266
H127	H	1.061712	0.320498	-0.549130
H128	H	1.123074	0.274965	-0.651105
H129	H	0.996989	0.274846	-0.634815
H130	H	1.125651	0.192515	-0.511330
H131	H	0.999565	0.192479	-0.495146
H132	H	1.060828	-0.124551	-0.601662
O133	O	0.440698	-0.000072	0.366861
C134	C	0.286393	-0.000043	0.436885
C135	C	0.349869	-0.000018	0.347563
H136	H	0.212945	0.000016	0.421314
H137	H	0.299567	-0.052740	0.477739
H138	H	0.299684	0.052635	0.477737
H139	H	0.336615	-0.052660	0.306639
H140	H	0.336682	0.052714	0.306778
O141	O	1.063258	0.203929	-0.467854
C142	C	0.984615	0.321199	-0.486573
C143	C	0.985650	0.245692	-0.434881
H144	H	0.921865	0.354979	-0.459947
H145	H	1.047959	0.355114	-0.476236
H146	H	0.983228	0.309376	-0.561859
H147	H	0.987005	0.257447	-0.359579
H148	H	0.922310	0.211801	-0.445293
O149	O	1.067043	0.203935	-0.282703
C150	C	1.145703	0.321223	-0.264034
C151	C	1.144654	0.245695	-0.315699
H152	H	1.208454	0.355000	-0.290677
H153	H	1.082361	0.355125	-0.274376
H154	H	1.147095	0.309430	-0.188744
H155	H	1.143293	0.257419	-0.391004
H156	H	1.207991	0.211816	-0.305281
H157	H	0.680394	-0.000046	-0.104764
H158	H	0.954084	-0.813531	0.235733
