data_functionalizedCrystal
_audit_creation_method	'MofGen! by Chris Wilmer'
_symmetry_space_group_name_H-M	'P1'
_symmetry_Int_Tables_number	1
_symmetry_cell_setting	triclinic
loop_
_symmetry_equiv_pos_as_xyz
  x,y,z
_cell_length_a	15.944551
_cell_length_b	15.944499
_cell_length_c	14.421503
_cell_angle_alpha	89.989779
_cell_angle_beta	89.990818
_cell_angle_gamma	96.511826
loop_
_atom_site_label
_atom_site_type_symbol
_atom_site_fract_x
_atom_site_fract_y
_atom_site_fract_z
O1	O	-0.108114	1.114556	-0.077157
O2	O	0.391886	1.614556	0.422843
O3	O	-0.121515	0.870001	-0.077145
O4	O	0.378485	1.370001	0.422855
O5	O	0.007462	0.998957	-0.077157
O6	O	0.507462	1.498957	0.422843
O7	O	-0.237090	0.985600	-0.077146
O8	O	0.262910	1.485600	0.422854
O9	O	0.007442	0.998935	0.077066
O10	O	0.507442	1.498935	0.577066
O11	O	-0.121534	0.869979	0.077078
O12	O	0.378466	1.369979	0.577078
O13	O	-0.108133	1.114535	0.077066
O14	O	0.391867	1.614535	0.577066
Cu15	Cu	-0.114835	0.992255	0.091154
Cu16	Cu	0.385165	1.492255	0.591154
Cu17	Cu	-0.114813	0.992281	-0.091233
Cu18	Cu	0.385187	1.492281	0.408767
O19	O	-0.237110	0.985579	0.077078
O20	O	0.262890	1.485579	0.577078
C21	C	-0.120976	0.838695	-0.000032
C22	C	0.379024	1.338695	0.499968
C23	C	-0.119331	0.745447	-0.000029
C24	C	0.380669	1.245447	0.499971
C25	C	-0.194263	0.453911	-0.000039
C26	C	0.305737	0.953911	0.499961
C27	C	-0.155302	0.514951	-0.076083
C28	C	0.344698	1.014951	0.423917
C29	C	-0.113355	0.409810	-0.000050
C30	C	0.386645	0.909810	0.499950
C31	C	-0.155299	0.514916	0.075970
C32	C	0.344701	1.014916	0.575970
C33	C	-0.116296	0.574719	-0.000038
C34	C	0.383704	1.074719	0.499962
C35	C	-0.074371	0.469622	-0.076157
C36	C	0.425629	0.969622	0.423843
C37	C	-0.074380	0.469581	0.075964
C38	C	0.425620	0.969581	0.575964
C39	C	-0.035360	0.530603	-0.000098
C40	C	0.464640	1.030603	0.499902
C41	C	-0.111663	0.314810	-0.000058
C42	C	0.388337	0.814810	0.499942
C43	C	-0.117981	0.669718	-0.000037
C44	C	0.382019	1.169718	0.499963
C45	C	-0.268394	0.986144	-0.000033
C46	C	0.231606	1.486144	0.499967
C47	C	-0.361640	0.987806	-0.000029
C48	C	0.138360	1.487806	0.499971
C49	C	-0.576481	1.071713	-0.000047
C50	C	-0.076481	1.571713	0.499953
C51	C	-0.637514	1.032739	0.075996
C52	C	-0.137514	1.532739	0.575996
C53	C	-0.532365	0.990814	-0.000037
C54	C	-0.032365	1.490814	0.499963
C55	C	-0.637480	1.032741	-0.076056
C56	C	-0.137480	1.532741	0.423944
C57	C	-0.697277	0.993725	-0.000049
C58	C	-0.197277	1.493725	0.499951
C59	C	-0.592170	0.951818	0.076069
C60	C	-0.092170	1.451818	0.576069
C61	C	-0.592130	0.951831	-0.076052
C62	C	-0.092130	1.451831	0.423948
C63	C	-0.653145	0.912798	0.000010
C64	C	-0.153145	1.412798	0.500010
C65	C	-0.437363	0.989139	-0.000029
C66	C	0.062637	1.489139	0.499971
C67	C	-0.792278	0.995393	-0.000050
C68	C	-0.292278	1.495393	0.499950
C69	C	0.038746	0.998392	-0.000049
C70	C	0.538746	1.498392	0.499951
C71	C	0.131992	0.996729	-0.000059
C72	C	0.631992	1.496729	0.499941
C73	C	-0.108672	1.145840	-0.000049
C74	C	0.391328	1.645840	0.499951
C75	C	-0.110317	1.239089	-0.000059
C76	C	0.389683	1.739089	0.499941
N77	N	-0.114851	0.992244	0.219435
N78	N	0.385149	1.492244	0.719435
N79	N	-0.114791	0.992299	-0.219514
N80	N	0.385209	1.492299	0.280486
C81	C	-0.174463	0.932604	0.469094
C82	C	0.325537	1.432604	0.969094
C83	C	-0.190756	1.008506	0.530894
C84	C	0.309244	1.508506	1.030894
C85	C	-0.114831	0.992264	0.408597
C86	C	0.385169	1.492264	0.908597
C87	C	-0.098557	0.916382	0.530891
C88	C	0.401443	1.416382	1.030891
C89	C	-0.114813	0.992277	0.591318
C90	C	0.385187	1.492277	1.091318
C91	C	-0.131162	1.068204	0.469036
C92	C	0.368838	1.568204	0.969036
C93	C	-0.038930	0.976030	0.469027
C94	C	0.461070	1.476030	0.969027
C95	C	-0.055191	1.051987	0.530799
C96	C	0.444809	1.551987	1.030799
C97	C	-0.114843	0.992255	0.303336
C98	C	0.385157	1.492255	0.803336
C99	C	-0.114800	0.992294	0.696577
C100	C	0.385200	1.492294	1.196577
H101	H	-0.261409	0.420581	-0.000109
H102	H	0.238591	0.920581	0.499891
O103	O	-0.080330	0.831375	0.566887
O104	O	0.419670	1.331375	1.066887
H105	H	-0.017803	0.817470	0.541050
H106	H	0.482197	1.317470	1.041050
H107	H	-0.189518	0.535058	-0.140364
H108	H	0.310482	1.035058	0.359636
O109	O	-0.029074	0.443182	-0.161416
O110	O	0.470926	0.943182	0.338584
H111	H	-0.028218	0.373673	-0.160771
H112	H	0.471782	0.873673	0.339229
O113	O	-0.149482	1.153236	0.433203
O114	O	0.350518	1.653236	0.933203
H115	H	-0.158545	1.195495	0.492644
H116	H	0.341455	1.695495	0.992644
H117	H	-0.254936	1.022248	0.558069
H118	H	0.245064	1.522248	1.058069
H119	H	0.031846	0.563780	-0.000142
H120	H	0.531846	1.063780	0.499858
H121	H	-0.040195	0.449455	0.140252
H122	H	0.459805	0.949455	0.640252
O123	O	0.011619	1.118890	0.566482
O124	O	0.511619	1.618890	1.066482
H125	H	-0.002088	1.181783	0.541577
H126	H	0.497912	1.681783	1.041577
O127	O	-0.532401	1.160683	-0.000087
O128	O	-0.032401	1.660683	0.499913
H129	H	-0.463039	1.158739	-0.000787
H130	H	0.036961	1.658739	0.499213
O131	O	-0.664166	1.078045	0.161146
O132	O	-0.164166	1.578045	0.661146
H133	H	-0.633170	1.143991	0.160987
H134	H	-0.133170	1.643991	0.660987
H135	H	-0.572193	0.917618	0.140427
H136	H	-0.072193	1.417618	0.640427
H137	H	-0.572000	0.917652	-0.140341
H138	H	-0.072000	1.417652	0.359659
H139	H	0.025230	0.962264	0.441831
H140	H	0.525230	1.462264	0.941831
O141	O	-0.697099	0.823779	0.000065
O142	O	-0.197099	1.323779	0.500065
H143	H	-0.678959	0.790402	0.063248
H144	H	-0.178959	1.290402	0.563248
O145	O	-0.200648	0.541500	0.161129
O146	O	0.299352	1.041500	0.661129
H147	H	-0.266582	0.510475	0.160965
H148	H	0.233418	1.010475	0.660965
H149	H	-0.224932	0.882202	0.442001
H150	H	0.275068	1.382202	0.942001
O151	O	-0.664067	1.078083	-0.161219
O152	O	-0.164067	1.578083	0.338781
H153	H	-0.633051	1.144021	-0.161057
H154	H	-0.133051	1.644021	0.338943
