data_functionalizedCrystal
_audit_creation_method	'MofGen! by Chris Wilmer'
_symmetry_space_group_name_H-M	'P1'
_symmetry_Int_Tables_number	1
_symmetry_cell_setting	triclinic
loop_
_symmetry_equiv_pos_as_xyz
  x,y,z
_cell_length_a	12.759401
_cell_length_b	19.120786
_cell_length_c	12.759393
_cell_angle_alpha	87.522507
_cell_angle_beta	89.982891
_cell_angle_gamma	92.464298
loop_
_atom_site_label
_atom_site_type_symbol
_atom_site_fract_x
_atom_site_fract_y
_atom_site_fract_z
Zn1	Zn	1.588319	-0.279606	-0.576098
Zn2	Zn	1.580688	-0.397083	-0.392904
Zn3	Zn	1.412623	-0.279641	-0.400435
Zn4	Zn	1.405084	-0.397026	-0.568549
O5	O	1.496679	-0.338339	-0.484497
O6	O	1.734327	-0.295199	-0.551805
O7	O	1.558356	-0.381543	-0.246879
O8	O	1.442279	-0.181346	-0.430049
O9	O	1.728721	-0.381509	-0.417213
O10	O	1.571362	-0.181320	-0.559107
O11	O	1.434879	-0.295259	-0.252413
O12	O	1.264603	-0.295203	-0.422728
O13	O	1.429429	-0.381412	-0.716574
O14	O	1.259064	-0.381446	-0.546241
O15	O	1.564051	-0.295143	-0.722120
O16	O	1.551045	-0.495366	-0.409892
O17	O	1.422029	-0.495325	-0.538938
C18	C	1.223712	-0.338323	-0.484483
C19	C	1.106935	-0.338332	-0.484501
C20	C	1.054980	-0.293476	-0.554682
C21	C	0.945255	-0.293489	-0.554688
C22	C	0.939450	-0.383222	-0.414328
C23	C	1.049173	-0.383205	-0.414318
C24	C	1.058331	-0.241671	-0.635720
C25	C	0.948606	-0.241684	-0.635726
C26	C	1.484920	-0.520831	-0.472801
C27	C	1.479985	-0.598902	-0.467833
C28	C	1.544824	-0.635506	-0.532748
C29	C	1.540183	-0.708862	-0.528082
C30	C	1.470708	-0.745613	-0.458495
C31	C	1.405863	-0.709003	-0.393578
C32	C	1.410499	-0.635649	-0.398250
C33	C	1.453346	-0.967100	-0.441028
C34	C	1.448717	-1.040459	-0.436359
C35	C	1.583036	-1.040313	-0.570865
C36	C	1.587670	-0.966957	-0.575526
C37	C	1.522821	-0.930354	-0.510613
C38	C	1.465966	-0.820594	-0.453721
C39	C	1.527559	-0.855374	-0.515393
C40	C	1.770711	-0.338356	-0.484511
C41	C	1.887487	-0.338363	-0.484517
C42	C	1.496750	-0.338267	-0.758535
C43	C	1.496780	-0.338237	-0.875313
C44	C	1.508512	-0.155134	-0.496260
C45	C	1.513555	-0.077063	-0.501273
C46	C	1.426751	-0.383120	-1.037016
C47	C	1.426709	-0.383140	-0.927291
C48	C	1.566890	-0.293305	-0.933067
C49	C	1.566926	-0.293281	-1.042791
C50	C	1.345821	-0.434988	-1.033680
C51	C	1.345779	-0.435009	-0.923955
C52	C	1.496672	-0.338360	-0.211528
C53	C	1.496857	-0.338193	-0.094762
H54	H	0.917878	-0.189987	-0.610033
H55	H	1.269727	-0.415529	-0.891179
N56	N	1.602489	-0.815733	-0.590440
H57	H	1.676761	-0.828461	-0.573374
H58	H	1.585242	-0.828482	-0.664655
H59	H	1.635831	-1.070123	-0.623715
N60	N	1.662597	-0.927323	-0.650589
H61	H	1.655697	-0.875298	-0.643696
H62	H	1.736832	-0.940111	-0.633486
H63	H	1.624006	-0.256692	-1.089805
N64	N	1.380016	-0.503429	-1.074362
H65	H	1.321777	-0.525052	-1.117535
H66	H	1.444689	-0.494521	-1.119445
N67	N	1.642479	-0.244878	-0.877012
H68	H	1.631823	-0.251712	-0.798739
H69	H	1.716806	-0.255823	-0.895493
N70	N	0.877150	-0.431615	-0.338630
H71	H	0.799756	-0.424818	-0.349281
H72	H	0.893113	-0.481791	-0.351635
N73	N	1.102394	-0.169587	-0.611650
H74	H	1.042915	-0.137433	-0.600909
H75	H	1.146171	-0.172710	-0.545815
N76	N	0.907947	-0.261071	-0.742218
H77	H	0.968944	-0.269718	-0.789733
H78	H	0.861123	-0.304944	-0.734544
N79	N	1.369985	-0.507072	-0.879860
H80	H	1.380824	-0.539214	-0.939325
H81	H	1.435797	-0.503898	-0.836056
H82	H	1.601402	-0.605589	-0.589408
H83	H	1.392137	-1.070380	-0.379692
H84	H	1.091471	-0.419725	-0.357161
H85	H	1.400545	-0.937303	-0.388171
H86	H	1.409402	-0.850525	-0.397060
H87	H	1.349291	-0.738932	-0.336923
N88	N	1.101795	-0.267557	-0.736373
H89	H	1.079398	-0.236303	-0.797421
H90	H	1.180903	-0.266606	-0.732599
N91	N	1.610062	-0.748343	-0.598149
H92	H	1.654764	-0.713931	-0.642953
H93	H	1.656798	-0.778794	-0.553538
H94	H	1.357700	-0.605847	-0.345391
H95	H	1.265401	-0.420409	-1.064395
