data_functionalizedCrystal
_audit_creation_method	'MofGen! by Chris Wilmer'
_symmetry_space_group_name_H-M	'P1'
_symmetry_Int_Tables_number	1
_symmetry_cell_setting	triclinic
loop_
_symmetry_equiv_pos_as_xyz
  x,y,z
_cell_length_a	13.032831
_cell_length_b	21.295417
_cell_length_c	13.032268
_cell_angle_alpha	97.140648
_cell_angle_beta	90.886977
_cell_angle_gamma	82.834379
loop_
_atom_site_label
_atom_site_type_symbol
_atom_site_fract_x
_atom_site_fract_y
_atom_site_fract_z
Zn1	Zn	1.498336	-0.425102	-0.780728
Zn2	Zn	1.520047	-0.518887	-0.608724
Zn3	Zn	1.348204	-0.398806	-0.586976
Zn4	Zn	1.326296	-0.515483	-0.758850
O5	O	1.423221	-0.464570	-0.683820
O6	O	1.645133	-0.449972	-0.776169
O7	O	1.515506	-0.493377	-0.461925
O8	O	1.368201	-0.314216	-0.612731
O9	O	1.661084	-0.518875	-0.649799
O10	O	1.478503	-0.333535	-0.755080
O11	O	1.389253	-0.405155	-0.445946
O12	O	1.201381	-0.401855	-0.591517
O13	O	1.330864	-0.513075	-0.905667
O14	O	1.185286	-0.487577	-0.717793
O15	O	1.457261	-0.446672	-0.921740
O16	O	1.494263	-0.606514	-0.628585
O17	O	1.351916	-0.604014	-0.738882
C18	C	1.156018	-0.441494	-0.649922
C19	C	1.041704	-0.431638	-0.635445
C20	C	0.982815	-0.469713	-0.691375
C21	C	0.864665	-0.459528	-0.676414
C22	C	1.423093	-0.628106	-0.683746
C23	C	1.423128	-0.698078	-0.683760
C24	C	1.497299	-0.732235	-0.626403
C25	C	1.497344	-0.797983	-0.626433
C26	C	1.423202	-0.829569	-0.683806
C27	C	1.349025	-0.795405	-0.741175
C28	C	1.348989	-0.729659	-0.741152
N29	N	1.332239	-0.925592	-0.680232
N30	N	1.332278	-0.988048	-0.680248
C31	C	1.423310	-1.027658	-0.683879
N32	N	1.514306	-1.002451	-0.687474
N33	N	1.514267	-0.939990	-0.687452
C34	C	1.423234	-0.900860	-0.683837
C35	C	1.497535	-1.133107	-0.626551
C36	C	1.497581	-1.198857	-0.626588
C37	C	1.349254	-1.196276	-0.741323
C38	C	1.349216	-1.130528	-0.741293
C39	C	1.423356	-1.098947	-0.683901
C40	C	1.691467	-0.487736	-0.717850
C41	C	1.805778	-0.497609	-0.732352
C42	C	1.389197	-0.482427	-0.952062
C43	C	1.374697	-0.490036	-1.066371
C44	C	1.423374	-0.300399	-0.683920
C45	C	1.423439	-0.230439	-0.683963
C46	C	1.430772	-0.460574	-1.125287
C47	C	1.415788	-0.468438	-1.243431
C48	C	1.457172	-0.446742	-0.416628
C49	C	1.471870	-0.438972	-0.302345
H50	H	0.842824	-0.537746	-0.791324
O51	O	1.501272	-0.423584	-1.080963
C52	C	1.580416	-0.381970	-0.922789
C53	C	1.500552	-0.423892	-0.972848
H54	H	1.579845	-0.382194	-0.835369
H55	H	1.660712	-0.401578	-0.954289
H56	H	1.559761	-0.331061	-0.941651
H57	H	1.521110	-0.474810	-0.954006
H58	H	1.420279	-0.404231	-0.941345
H59	H	1.557907	-1.107393	-0.579823
O60	O	0.997349	-0.383806	-0.565105
C61	C	0.839143	-0.330011	-0.486119
C62	C	0.889237	-0.384211	-0.565806
H63	H	0.751726	-0.330312	-0.486675
H64	H	0.870634	-0.337267	-0.405777
H65	H	0.857989	-0.282294	-0.506964
H66	H	0.870412	-0.431952	-0.545057
H67	H	0.857744	-0.376899	-0.646125
H68	H	1.530970	-0.407920	-1.265324
H69	H	1.557670	-0.706524	-0.579675
H70	H	1.356676	-0.499481	-1.280452
O71	O	1.304332	-0.527160	-1.110596
C72	C	1.275128	-0.618948	-1.230248
C73	C	1.354929	-0.576965	-1.180230
H74	H	1.316002	-0.659217	-1.286574
H75	H	1.235254	-0.639959	-1.167561
H76	H	1.215029	-0.588714	-1.273691
H77	H	1.415090	-0.607155	-1.136793
H78	H	1.394724	-0.555949	-1.242963
H79	H	1.019867	-0.509849	-0.750340
H80	H	0.827617	-0.419386	-0.617453
O81	O	1.569804	-1.232069	-0.571087
C82	C	1.710537	-1.317252	-0.575167
C83	C	1.628759	-1.279693	-0.638112
H84	H	1.758210	-1.355773	-0.629327
H85	H	1.763576	-1.283390	-0.534233
H86	H	1.670309	-1.340425	-0.515318
H87	H	1.668899	-1.256516	-0.698013
H88	H	1.575726	-1.313584	-0.678973
O89	O	1.569438	-0.831071	-0.570616
C90	C	1.716575	-0.826701	-0.456843
C91	C	1.634976	-0.789153	-0.519990
H92	H	1.769597	-0.792829	-0.415913
H93	H	1.676291	-0.849849	-0.396999
H94	H	1.764291	-0.865240	-0.510936
H95	H	1.587235	-0.750584	-0.465979
H96	H	1.675323	-0.766051	-0.579846
O97	O	1.277139	-0.826169	-0.796974
C98	C	1.245622	-0.908381	-0.934107
C99	C	1.327140	-0.873604	-0.870970
H100	H	1.286015	-0.946731	-0.993961
H101	H	1.197904	-0.931466	-0.880098
H102	H	1.192584	-0.872655	-0.975049
H103	H	1.380247	-0.909290	-0.830020
H104	H	1.374783	-0.850508	-0.925028
H105	H	1.288589	-0.701847	-0.787860
O106	O	1.277280	-1.227045	-0.796968
C107	C	1.211648	-1.327195	-0.847916
C108	C	1.293199	-1.292422	-0.784826
H109	H	1.224504	-1.380060	-0.838139
H110	H	1.131002	-1.306003	-0.819266
H111	H	1.219108	-1.321267	-0.933121
H112	H	1.285835	-1.298337	-0.699609
H113	H	1.373812	-1.313620	-0.813562
H114	H	1.288816	-1.102715	-0.787994
