data_functionalizedCrystal
_audit_creation_method	'MofGen! by Chris Wilmer'
_symmetry_space_group_name_H-M	'P1'
_symmetry_Int_Tables_number	1
_symmetry_cell_setting	triclinic
loop_
_symmetry_equiv_pos_as_xyz
  x,y,z
_cell_length_a	21.395362
_cell_length_b	13.897448
_cell_length_c	21.395355
_cell_angle_alpha	90.015629
_cell_angle_beta	90.043940
_cell_angle_gamma	90.033571
loop_
_atom_site_label
_atom_site_type_symbol
_atom_site_fract_x
_atom_site_fract_y
_atom_site_fract_z
Zn1	Zn	0.957916	-0.383718	0.354598
Zn2	Zn	0.957842	-0.544997	0.249826
Zn3	Zn	0.853131	-0.383763	0.249799
Zn4	Zn	0.853124	-0.545017	0.354531
O5	O	0.905503	-0.464374	0.302189
O6	O	1.045584	-0.405085	0.340739
O7	O	0.943924	-0.523620	0.162145
O8	O	0.867065	-0.248775	0.263718
O9	O	1.045530	-0.523576	0.263764
O10	O	0.944050	-0.248742	0.340714
O11	O	0.866993	-0.405161	0.162125
O12	O	0.765452	-0.405181	0.263653
O13	O	0.867053	-0.523610	0.442218
O14	O	0.765447	-0.523654	0.340599
O15	O	0.944043	-0.405104	0.442267
O16	O	0.943918	-0.679982	0.263698
O17	O	0.866981	-0.679996	0.340624
C18	C	0.742716	-0.464425	0.302116
C19	C	0.673074	-0.464470	0.302100
C20	C	0.905458	-0.714988	0.302170
C21	C	0.905495	-0.822202	0.302184
C22	C	0.640375	-0.526240	0.342105
C23	C	0.574940	-0.526217	0.342133
C24	C	0.542206	-0.464433	0.302144
C25	C	0.574913	-0.402650	0.262136
C26	C	0.640348	-0.402669	0.262114
C27	C	0.438480	-0.456662	0.245739
C28	C	0.373047	-0.456650	0.245760
C29	C	0.340385	-0.464370	0.302214
C30	C	0.373165	-0.472121	0.358647
C31	C	0.438599	-0.472140	0.358625
C32	C	0.471254	-0.464405	0.302164
C33	C	0.236734	-0.526118	0.342253
C34	C	0.171297	-0.526088	0.342282
C35	C	0.171272	-0.402526	0.262279
C36	C	0.236707	-0.402551	0.262255
C37	C	0.269434	-0.464352	0.302242
C38	C	0.905561	-1.018497	0.302223
C39	C	0.905523	-0.909265	0.302203
C40	C	1.068927	-0.464323	0.302262
C41	C	1.138568	-0.464302	0.302293
C42	C	0.905555	-0.464354	0.465612
C43	C	0.905578	-0.464346	0.535253
C44	C	0.905566	-0.212781	0.302221
C45	C	0.905593	-0.105567	0.302234
C46	C	0.905488	-0.464324	0.139401
C47	C	0.905587	-0.464060	0.069760
C48	C	0.945665	-0.402637	0.567993
C49	C	0.945664	-0.402596	0.633429
C50	C	0.905582	-0.464280	0.666122
C51	C	0.865488	-0.525993	0.633374
C52	C	0.865485	-0.526026	0.567940
C53	C	0.900619	-0.551135	0.769788
C54	C	0.900626	-0.551103	0.835221
C55	C	0.905586	-0.464178	0.867942
C56	C	0.910553	-0.377282	0.835223
C57	C	0.910550	-0.377315	0.769788
C58	C	0.905580	-0.464251	0.737074
C59	C	0.945675	-0.402419	0.971635
C60	C	0.945669	-0.402376	1.037072
C61	C	0.865496	-0.525782	1.037016
C62	C	0.865498	-0.525817	0.971580
C63	C	0.905591	-0.464137	0.938894
H64	H	0.667017	-0.576562	0.374666
C65	C	0.895161	-0.646683	0.871207
H66	H	0.892194	-0.698456	0.842350
H67	H	0.931066	-0.655148	0.896760
H68	H	0.858839	-0.645418	0.896706
H69	H	0.978317	-0.352190	0.945020
H70	H	0.346573	-0.478406	0.404617
H71	H	0.914593	-0.306560	0.743151
C72	C	0.989768	-0.334494	1.073086
H73	H	1.013648	-0.297774	1.044245
H74	H	0.965815	-0.292455	1.098592
H75	H	1.017058	-0.371382	1.098633
C76	C	0.821409	-0.593704	0.935562
H77	H	0.827144	-0.584884	0.891910
H78	H	0.830561	-0.658505	0.946294
H79	H	0.779313	-0.579588	0.946254
H80	H	0.465068	-0.450372	0.199765
H81	H	0.548311	-0.576517	0.374713
C82	C	0.135273	-0.334552	0.218300
H83	H	0.091619	-0.343387	0.224042
H84	H	0.146045	-0.269771	0.227545
H85	H	0.145938	-0.348573	0.176177
H86	H	0.346364	-0.450344	0.199808
H87	H	0.144674	-0.576387	0.374863
C88	C	0.474654	-0.480652	0.420697
H89	H	0.445834	-0.485240	0.454325
H90	H	0.500153	-0.536567	0.419813
H91	H	0.500210	-0.425380	0.426253
H92	H	0.263332	-0.352256	0.229675
H93	H	0.914593	-0.306499	0.861863
C94	C	0.895026	-0.646740	0.733801
H95	H	0.892037	-0.698480	0.762658
H96	H	0.858674	-0.645373	0.708299
H97	H	0.930887	-0.655348	0.708252
H98	H	0.263381	-0.576435	0.374815
C99	C	0.821402	-0.593849	0.669333
H100	H	0.827150	-0.584999	0.712993
H101	H	0.779307	-0.579753	0.658581
H102	H	0.830560	-0.658663	0.658616
C103	C	0.538910	-0.334690	0.218149
H104	H	0.495256	-0.343531	0.223888
H105	H	0.549675	-0.269904	0.227390
H106	H	0.549580	-0.348718	0.176030
C107	C	0.821396	-0.593922	0.531924
H108	H	0.797527	-0.630660	0.560764
H109	H	0.794105	-0.557055	0.506371
H110	H	0.845363	-0.635958	0.506424
C111	C	0.821412	-0.593640	1.072970
H112	H	0.827157	-0.584789	1.116630
H113	H	0.779316	-0.579551	1.062216
H114	H	0.830574	-0.658454	1.062254
C115	C	0.676318	-0.334723	0.218102
H116	H	0.647454	-0.297925	0.194287
H117	H	0.701895	-0.292760	0.242107
H118	H	0.701792	-0.371576	0.190749
H119	H	0.978306	-0.352340	0.660091
C120	C	0.989759	-0.334784	0.532042
H121	H	1.013630	-0.298021	0.560916
H122	H	1.017048	-0.371685	0.506535
H123	H	0.965798	-0.292770	0.506499
