data_functionalizedCrystal
_audit_creation_method	'MofGen! by Chris Wilmer'
_symmetry_space_group_name_H-M	'P1'
_symmetry_Int_Tables_number	1
_symmetry_cell_setting	triclinic
loop_
_symmetry_equiv_pos_as_xyz
  x,y,z
_cell_length_a	19.288840
_cell_length_b	14.853559
_cell_length_c	13.330367
_cell_angle_alpha	89.999454
_cell_angle_beta	90.012240
_cell_angle_gamma	83.378735
loop_
_atom_site_label
_atom_site_type_symbol
_atom_site_fract_x
_atom_site_fract_y
_atom_site_fract_z
O1	O	0.921737	0.112352	0.083586
O2	O	1.421737	0.612352	0.583586
O3	O	0.719525	0.127546	0.083551
O4	O	1.219525	0.627546	0.583551
O5	O	0.826035	-0.011313	0.083569
O6	O	1.326035	0.488687	0.583569
O7	O	0.815226	0.251211	0.083569
O8	O	1.315226	0.751211	0.583569
O9	O	0.826024	-0.011308	-0.083279
O10	O	1.326024	0.488692	0.416721
O11	O	0.719514	0.127551	-0.083296
O12	O	1.219514	0.627551	0.416704
O13	O	0.921726	0.112356	-0.083261
O14	O	1.421726	0.612356	0.416739
Cu15	Cu	0.820619	0.119954	-0.098513
Cu16	Cu	1.320619	0.619954	0.401487
Cu17	Cu	0.820632	0.119949	0.098803
Cu18	Cu	1.320632	0.619949	0.598803
O19	O	0.815215	0.251215	-0.083278
O20	O	1.315215	0.751215	0.416722
C21	C	0.693641	0.127063	0.000123
C22	C	1.193641	0.627063	0.500123
C23	C	0.616531	0.125607	0.000110
C24	C	1.116531	0.625607	0.500110
C25	C	0.580332	0.124905	0.091061
C26	C	1.080332	0.624905	0.591061
C27	C	0.507880	0.123527	0.091073
C28	C	1.007880	0.623527	0.591073
C29	C	0.471633	0.122832	0.000129
C30	C	0.971633	0.622832	0.500129
C31	C	0.507841	0.123539	-0.090834
C32	C	1.007841	0.623539	0.409166
C33	C	0.580290	0.124927	-0.090844
C34	C	1.080290	0.624927	0.409156
C35	C	0.362116	0.067830	-0.069533
C36	C	0.862116	0.567830	0.430467
C37	C	0.289669	0.066437	-0.069519
C38	C	0.789669	0.566437	0.430481
C39	C	0.248175	0.118556	0.000155
C40	C	0.748175	0.618556	0.500155
C41	C	0.279138	0.172058	0.069833
C42	C	0.779138	0.672058	0.569833
C43	C	0.351588	0.173445	0.069823
C44	C	0.851588	0.673445	0.569823
C45	C	0.393074	0.121328	0.000129
C46	C	0.893074	0.621328	0.500129
C47	C	0.133415	0.116361	0.091126
C48	C	0.633415	0.616361	0.591126
C49	C	0.060961	0.114988	0.091134
C50	C	0.560961	0.614988	0.591134
C51	C	0.060925	0.114992	-0.090775
C52	C	0.560925	0.614992	0.409225
C53	C	0.133376	0.116374	-0.090781
C54	C	0.633376	0.616374	0.409219
C55	C	0.169617	0.117054	0.000172
C56	C	0.669617	0.617054	0.500172
C57	C	0.825541	-0.044897	0.000147
C58	C	1.325541	0.455103	0.500147
C59	C	0.824077	-0.144972	0.000152
C60	C	1.324077	0.355028	0.500152
C61	C	0.817870	-0.568113	0.091100
C62	C	1.317870	-0.068113	0.591100
C63	C	0.817858	-0.568104	-0.090804
C64	C	1.317858	-0.068104	0.409196
C65	C	0.819240	-0.474078	-0.090804
C66	C	1.319240	0.025922	0.409196
C67	C	0.819935	-0.427066	0.000148
C68	C	1.319935	0.072934	0.500148
C69	C	0.819250	-0.474079	0.091102
C70	C	1.319250	0.025921	0.591102
C71	C	0.819918	-0.427057	-0.181756
C72	C	1.319918	0.072943	0.318244
C73	C	0.821299	-0.333026	-0.181760
C74	C	1.321299	0.166974	0.318240
C75	C	0.822000	-0.286013	-0.090806
C76	C	1.322000	0.213987	0.409194
C77	C	0.821315	-0.333032	0.000151
C78	C	1.321315	0.166968	0.500151
C79	C	0.822011	-0.286019	0.091103
C80	C	1.322011	0.213981	0.591103
C81	C	0.821331	-0.333038	0.182061
C82	C	1.321331	0.166962	0.682061
C83	C	0.819951	-0.427066	0.182056
C84	C	1.319951	0.072934	0.682056
C85	C	0.823381	-0.191984	-0.090801
C86	C	1.323381	0.308016	0.409199
C87	C	0.823391	-0.191985	0.091105
C88	C	1.323391	0.308015	0.591105
C89	C	0.947610	0.112839	0.000169
C90	C	1.447610	0.612839	0.500169
C91	C	1.024719	0.114295	0.000189
C92	C	1.524719	0.614295	0.500189
C93	C	0.815709	0.284799	0.000146
C94	C	1.315709	0.784799	0.500146
C95	C	0.817174	0.384874	0.000147
C96	C	1.317174	0.884874	0.500147
N97	N	0.820615	0.119956	-0.237294
N98	N	1.320615	0.619956	0.262706
C99	C	0.773445	0.181425	-0.289828
C100	C	1.273445	0.681425	0.210172
C101	C	0.867788	0.058485	-0.289789
C102	C	1.367788	0.558485	0.210211
C103	C	0.867795	0.058481	-0.394808
C104	C	1.367795	0.558481	0.105192
C105	C	0.820626	0.119949	-0.447341
C106	C	1.320626	0.619949	0.052659
C107	C	0.773449	0.181421	-0.394856
C108	C	1.273449	0.681421	0.105144
C109	C	0.914966	-0.002996	-0.447301
C110	C	1.414966	0.497004	0.052699
C111	C	0.914975	-0.003002	-0.552326
C112	C	1.414975	0.496998	-0.052326
C113	C	0.867808	0.058471	-0.604861
C114	C	1.367808	0.558471	-0.104861
C115	C	0.820630	0.119946	-0.552369
C116	C	1.320630	0.619946	-0.052369
C117	C	0.773461	0.181414	-0.604902
C118	C	1.273461	0.681414	-0.104902
C119	C	0.726286	0.242894	-0.552412
C120	C	1.226286	0.742894	-0.052412
C121	C	0.726283	0.242894	-0.447391
C122	C	1.226283	0.742894	0.052609
C123	C	0.867811	0.058471	-0.709882
C124	C	1.367811	0.558471	-0.209882
C125	C	0.773465	0.181410	-0.709930
C126	C	1.273465	0.681410	-0.209930
N127	N	0.820641	0.119939	0.237585
N128	N	1.320641	0.619939	0.737585
H129	H	0.245355	0.214502	0.126565
H130	H	0.745355	0.714502	0.626565
F131	F	0.918011	-0.006962	-0.765739
F132	F	1.418011	0.493038	-0.265739
F133	F	0.022352	0.114260	-0.187565
F134	F	0.522352	0.614260	0.312435
F135	F	0.817107	-0.618138	-0.187596
F136	F	1.317107	-0.118138	0.312404
F137	F	0.965182	-0.068431	-0.608182
F138	F	1.465182	0.431569	-0.108182
H139	H	0.478324	0.122976	-0.164881
H140	H	0.978324	0.622976	0.335119
H141	H	0.031488	0.114422	0.165200
H142	H	0.531488	0.614422	0.665200
H143	H	0.609835	0.125459	0.165122
H144	H	1.109835	0.625459	0.665122
F145	F	0.469346	0.122780	0.187879
F146	F	0.969346	0.622780	0.687879
F147	F	0.384538	0.230386	0.143974
F148	F	0.884538	0.730386	0.643974
H149	H	0.823919	-0.153704	-0.164857
H150	H	1.323919	0.346296	0.335143
H151	H	0.162851	0.116939	-0.164843
H152	H	0.662851	0.616939	0.335157
F153	F	0.817152	-0.618154	0.187899
F154	F	1.317152	-0.118154	0.687899
H155	H	0.735056	0.231469	-0.752696
H156	H	1.235056	0.731469	-0.252696
F157	F	0.819164	-0.477093	-0.278547
F158	F	1.319164	0.022907	0.221453
F159	F	0.822020	-0.282994	-0.278564
F160	F	1.322020	0.217006	0.221436
H161	H	0.264465	0.022869	-0.126250
H162	H	0.764465	0.522869	0.373750
F163	F	0.171987	0.117092	0.187924
F164	F	0.671987	0.617092	0.687924
H165	H	0.395896	0.025385	-0.126275
H166	H	0.895896	0.525385	0.373725
F167	F	0.618818	0.125674	-0.187650
F168	F	1.118818	0.625674	0.312350
F169	F	0.965161	-0.068417	-0.391392
F170	F	1.465161	0.431583	0.108608
H171	H	0.823961	-0.153715	0.165171
H172	H	1.323961	0.346285	0.665171
F173	F	0.822073	-0.282993	0.278856
F174	F	1.322073	0.217007	0.778856
H175	H	0.687877	0.292938	-0.595197
H176	H	1.187877	0.792938	-0.095197
H177	H	0.819396	-0.465356	0.256109
H178	H	1.319396	0.034644	0.756109
H179	H	0.687874	0.292948	-0.404647
H180	H	1.187874	0.792948	0.095353
H181	H	0.735038	0.231483	-0.247088
H182	H	1.235038	0.731483	0.252912
H183	H	0.906189	0.008435	-0.247014
H184	H	1.406189	0.508435	0.252986
