data_functionalizedCrystal
_audit_creation_method	'MofGen! by Chris Wilmer'
_symmetry_space_group_name_H-M	'P1'
_symmetry_Int_Tables_number	1
_symmetry_cell_setting	triclinic
loop_
_symmetry_equiv_pos_as_xyz
  x,y,z
_cell_length_a	15.538191
_cell_length_b	23.532407
_cell_length_c	14.185569
_cell_angle_alpha	76.924933
_cell_angle_beta	97.875798
_cell_angle_gamma	65.060386
loop_
_atom_site_label
_atom_site_type_symbol
_atom_site_fract_x
_atom_site_fract_y
_atom_site_fract_z
O1	O	1.230119	-0.167965	-0.083405
O2	O	1.730119	0.332035	0.416595
O3	O	0.955241	-0.102078	-0.083414
O4	O	1.455241	0.397922	0.416586
O5	O	1.100973	-0.219642	-0.083391
O6	O	1.600973	0.280358	0.416609
O7	O	1.084386	-0.050401	-0.083428
O8	O	1.584386	0.449599	0.416572
O9	O	1.144024	-0.254369	0.083451
O10	O	1.644024	0.245631	0.583451
O11	O	0.998292	-0.136805	0.083427
O12	O	1.498292	0.363195	0.583427
O13	O	1.273169	-0.202692	0.083436
O14	O	1.773169	0.297308	0.583436
Cu15	Cu	1.139661	-0.172919	0.098666
Cu16	Cu	1.639661	0.327081	0.598666
Cu17	Cu	1.088749	-0.131851	-0.098643
Cu18	Cu	1.588749	0.368149	0.401357
O19	O	1.127437	-0.085128	0.083413
O20	O	1.627437	0.414872	0.583413
C21	C	0.941606	-0.112548	0.000006
C22	C	1.441606	0.387452	0.500006
C23	C	0.836839	-0.092014	0.000003
C24	C	1.336839	0.407986	0.500003
C25	C	0.550965	-0.296010	0.000032
C26	C	1.050965	0.203990	0.500032
C27	C	0.452518	-0.276701	0.000027
C28	C	0.952518	0.223299	0.500027
C29	C	0.429052	-0.168092	0.000004
C30	C	0.929052	0.331908	0.500004
C31	C	0.527501	-0.187393	0.000014
C32	C	1.027501	0.312607	0.500014
C33	C	0.588450	-0.251353	0.000027
C34	C	1.088450	0.248647	0.500027
C35	C	0.564986	-0.142735	0.000008
C36	C	1.064986	0.357265	0.500008
C37	C	0.663425	-0.162034	0.000013
C38	C	1.163425	0.337966	0.500013
C39	C	0.724379	-0.225991	0.000023
C40	C	1.224379	0.274009	0.500023
C41	C	0.686889	-0.270652	0.000031
C42	C	1.186889	0.229348	0.500031
C43	C	0.504034	-0.078774	-0.000012
C44	C	1.004034	0.421226	0.499988
C45	C	0.541519	-0.034116	-0.000018
C46	C	1.041519	0.465884	0.499982
C47	C	0.639961	-0.053416	-0.000006
C48	C	1.139961	0.446584	0.499994
C49	C	0.700915	-0.117373	0.000004
C50	C	1.200915	0.382627	0.500004
C51	C	0.677451	-0.008755	-0.000015
C52	C	1.177451	0.491245	0.499985
C53	C	0.775890	-0.028054	-0.000010
C54	C	1.275890	0.471946	0.499990
C55	C	0.799355	-0.136672	0.000009
C56	C	1.299355	0.363328	0.500009
C57	C	1.122077	-0.258136	0.000032
C58	C	1.622077	0.241864	0.500032
C59	C	1.120810	-0.321097	0.000040
C60	C	1.620810	0.178903	0.500040
C61	C	1.199074	-0.736103	-0.000012
C62	C	1.699074	-0.236103	0.499988
C63	C	1.197893	-0.795262	-0.000020
C64	C	1.697893	-0.295262	0.499980
O65	O	1.270447	-0.846751	-0.000055
O66	O	1.770447	-0.346751	0.499945
N67	N	1.111258	-0.800275	-0.000022
N68	N	1.611258	-0.300275	0.499978
C69	C	1.025796	-0.746122	-0.000027
C70	C	1.525796	-0.246122	0.499973
O71	O	0.951997	-0.755818	-0.000030
O72	O	1.451997	-0.255818	0.499970
C73	C	1.026976	-0.686963	-0.000026
C74	C	1.526976	-0.186963	0.499974
C75	C	1.113619	-0.681957	-0.000014
C76	C	1.613619	-0.181957	0.499986
C77	C	1.285710	-0.731095	-0.000001
C78	C	1.785710	-0.231095	0.499999
C79	C	1.286891	-0.671940	0.000008
C80	C	1.786891	-0.171940	0.500008
C81	C	1.201436	-0.617794	0.000007
C82	C	1.701436	-0.117794	0.500007
C83	C	1.114800	-0.622802	-0.000004
C84	C	1.614800	-0.122802	0.499996
C85	C	0.941513	-0.632810	-0.000038
C86	C	1.441513	-0.132810	0.499962
C87	C	0.942700	-0.573649	-0.000038
C88	C	1.442700	-0.073649	0.499962
C89	C	1.029343	-0.568643	-0.000026
C90	C	1.529343	-0.068643	0.499974
C91	C	1.030526	-0.509502	0.000003
C92	C	1.530526	-0.009502	0.500003
N93	N	1.117161	-0.504489	0.000006
N94	N	1.617161	-0.004489	0.500006
C95	C	1.202616	-0.558635	0.000007
C96	C	1.702616	-0.058635	0.500007
C97	C	1.023323	-0.870361	-0.000030
C98	C	1.523323	-0.370361	0.499970
C99	C	1.022144	-0.929521	-0.000023
C100	C	1.522144	-0.429521	0.499977
C101	C	1.194241	-0.978656	-0.000018
C102	C	1.694241	-0.478656	0.499982
C103	C	1.195421	-0.919497	-0.000017
C104	C	1.695421	-0.419497	0.499983
C105	C	1.109958	-0.865349	-0.000027
C106	C	1.609958	-0.365349	0.499973
C107	C	1.205090	-0.434404	0.000028
C108	C	1.705090	0.065596	0.500028
C109	C	1.206265	-0.375243	0.000042
C110	C	1.706265	0.124757	0.500042
C111	C	1.034167	-0.326112	0.000032
C112	C	1.534167	0.173888	0.500032
C113	C	1.032993	-0.385269	0.000023
C114	C	1.532993	0.114731	0.500023
C115	C	1.118462	-0.439415	0.000018
C116	C	1.618462	0.060585	0.500018
O117	O	0.958009	-0.457984	0.000034
O118	O	1.458009	0.042016	0.500034
O119	O	1.276399	-0.548925	-0.000003
O120	O	1.776399	-0.048925	0.499997
C121	C	1.286804	-0.192222	0.000014
C122	C	1.786804	0.307778	0.500014
C123	C	1.391568	-0.212754	0.000010
C124	C	1.891568	0.287246	0.500010
C125	C	1.106332	-0.046633	-0.000012
C126	C	1.606332	0.453367	0.499988
C127	C	1.107598	0.016329	-0.000026
C128	C	1.607598	0.516329	0.499974
N129	N	1.175477	-0.201806	0.237443
N130	N	1.675477	0.298194	0.737443
N131	N	1.052941	-0.102970	-0.237420
N132	N	1.552941	0.397030	0.262580
C133	C	0.947714	-0.018124	0.605056
C134	C	1.447714	0.481876	1.105056
C135	C	0.974850	-0.040003	0.710082
C136	C	1.474850	0.459997	1.210082
C137	C	1.103922	-0.144083	0.710064
C138	C	1.603922	0.355917	1.210064
C139	C	1.076793	-0.122214	0.605036
C140	C	1.576793	0.377786	1.105036
C141	C	0.998689	-0.059234	0.552540
C142	C	1.498689	0.440766	1.052540
C143	C	1.127769	-0.163323	0.552520
C144	C	1.627769	0.336677	1.052520
C145	C	1.100645	-0.141454	0.447501
C146	C	1.600645	0.358546	0.947501
C147	C	1.022546	-0.078476	0.394998
C148	C	1.522546	0.421524	0.894998
C149	C	0.971565	-0.037365	0.447521
C150	C	1.471565	0.462635	0.947521
C151	C	1.205877	-0.226302	0.605017
C152	C	1.705877	0.273698	1.105017
C153	C	1.256852	-0.267411	0.552501
C154	C	1.756852	0.232589	1.052501
C155	C	1.229724	-0.245544	0.447480
C156	C	1.729724	0.254456	0.947480
C157	C	1.151625	-0.182566	0.394977
C158	C	1.651625	0.317434	0.894977
C159	C	1.280705	-0.286655	0.394957
C160	C	1.780705	0.213345	0.894957
C161	C	1.253581	-0.264786	0.289938
C162	C	1.753581	0.235214	0.789938
C163	C	1.124502	-0.160697	0.289959
C164	C	1.624502	0.339303	0.789959
H165	H	0.804531	-0.241700	0.000013
H166	H	1.304531	0.258300	0.500013
H167	H	0.379414	-0.116014	-0.000011
H168	H	0.879414	0.383986	0.499989
F169	F	1.376670	-0.788716	-0.000000
F170	F	1.876670	-0.288716	0.500000
H171	H	0.873104	-0.529560	-0.000048
H172	H	1.373104	-0.029560	0.499952
F173	F	1.339977	-0.334437	0.608379
F174	F	1.839977	0.165563	1.108379
F175	F	1.187047	-0.211109	0.765942
F176	F	1.687047	0.288891	1.265942
F177	F	0.920588	0.003759	0.765967
F178	F	1.420588	0.503759	1.265967
F179	F	0.399265	-0.058235	-0.000018
F180	F	0.899265	0.441765	0.499982
F181	F	0.412631	-0.324240	0.000046
F182	F	0.912631	0.175760	0.500046
F183	F	1.287637	-0.914176	-0.000005
F184	F	1.787637	-0.414176	0.499995
F185	F	0.864576	0.048904	0.549184
F186	F	1.364576	0.548904	1.049184
F187	F	0.612570	0.059316	-0.000044
F188	F	1.112570	0.559316	0.499956
F189	F	1.041365	-0.093669	0.234087
F190	F	1.541365	0.406331	0.734087
H191	H	0.600596	-0.348094	0.000049
H192	H	1.100596	0.151906	0.500049
F193	F	0.815787	0.019476	-0.000018
F194	F	1.315787	0.519476	0.499982
H195	H	1.263822	-1.022753	-0.000020
H196	H	1.763822	-0.522753	0.499980
F197	F	1.307839	-0.308540	0.234046
F198	F	1.807839	0.191460	0.734046
H199	H	0.491880	0.017961	-0.000033
H200	H	0.991880	0.517961	0.499967
F201	F	1.296055	-0.492023	0.000022
F202	F	1.796055	0.007977	0.500022
H203	H	0.736520	-0.322736	0.000048
H204	H	1.236520	0.177264	0.500048
H205	H	1.276824	-0.371174	0.000054
H206	H	1.776824	0.128826	0.500054
H207	H	1.344304	-0.337932	0.437712
H208	H	1.844304	0.162068	0.937712
F209	F	0.932358	-0.812736	-0.000031
F210	F	1.432358	-0.312736	0.499969
H211	H	1.357443	-0.667871	0.000014
H212	H	1.857443	-0.167871	0.500014
F213	F	0.929931	-0.934844	-0.000018
F214	F	1.429931	-0.434844	0.499982
H215	H	0.870957	-0.636872	-0.000054
H216	H	1.370957	-0.136872	0.499946
H217	H	0.962449	-0.389350	0.000041
H218	H	1.462449	0.110650	0.500041
F219	F	0.943225	-0.268477	0.000030
F220	F	1.443225	0.231523	0.500030
F221	F	0.993683	-0.055200	0.283226
F222	F	1.493683	0.444800	0.783226
H223	H	1.227961	-0.244104	0.690530
H224	H	1.727961	0.255896	1.190530
F225	F	0.864230	-0.204748	0.000034
F226	F	1.364230	0.295252	0.500034
F227	F	0.888428	0.029663	0.391649
F228	F	1.388428	0.529663	0.891649
