data_functionalizedCrystal
_audit_creation_method	'MofGen! by Chris Wilmer'
_symmetry_space_group_name_H-M	'P1'
_symmetry_Int_Tables_number	1
_symmetry_cell_setting	triclinic
loop_
_symmetry_equiv_pos_as_xyz
  x,y,z
_cell_length_a	19.805407
_cell_length_b	19.805405
_cell_length_c	19.805399
_cell_angle_alpha	89.973385
_cell_angle_beta	89.980427
_cell_angle_gamma	90.026726
loop_
_atom_site_label
_atom_site_type_symbol
_atom_site_fract_x
_atom_site_fract_y
_atom_site_fract_z
Zn1	Zn	1.034734	-0.269479	-0.382724
Zn2	Zn	1.368068	0.063854	-0.049391
Zn3	Zn	1.701401	0.397188	0.283942
Zn4	Zn	1.034648	-0.382667	-0.269538
Zn5	Zn	1.367982	-0.049334	0.063795
Zn6	Zn	1.701315	0.283999	0.397129
Zn7	Zn	0.921549	-0.269498	-0.269549
Zn8	Zn	1.254882	0.063836	0.063785
Zn9	Zn	1.588216	0.397169	0.397118
Zn10	Zn	0.921512	-0.382631	-0.382685
Zn11	Zn	1.254845	-0.049298	-0.049351
Zn12	Zn	1.588178	0.284035	0.283982
O13	O	0.978111	-0.326069	-0.326124
O14	O	1.311444	0.007265	0.007209
O15	O	1.644777	0.340598	0.340543
O16	O	1.129439	-0.284501	-0.367722
O17	O	1.462773	0.048833	-0.034388
O18	O	1.796106	0.382166	0.298945
O19	O	1.019625	-0.367678	-0.174823
O20	O	1.352958	-0.034345	0.158511
O21	O	1.686292	0.298989	0.491844
O22	O	0.936615	-0.174778	-0.284583
O23	O	1.269948	0.158555	0.048750
O24	O	1.603281	0.491888	0.382084
O25	O	1.129376	-0.367660	-0.284564
O26	O	1.462710	-0.034326	0.048769
O27	O	1.796043	0.299007	0.382102
O28	O	1.019771	-0.174765	-0.367732
O29	O	1.353105	0.158569	-0.034399
O30	O	1.686438	0.491902	0.298934
O31	O	0.936531	-0.284533	-0.174831
O32	O	1.269865	0.048801	0.158503
O33	O	1.603198	0.382134	0.491836
O34	O	0.826827	-0.284498	-0.284544
O35	O	1.160161	0.048836	0.048789
O36	O	1.493494	0.382169	0.382122
O37	O	0.936551	-0.367598	-0.477406
O38	O	1.269885	-0.034265	-0.144073
O39	O	1.603218	0.299068	0.189260
O40	O	0.826800	-0.367617	-0.367665
O41	O	1.160133	-0.034283	-0.034332
O42	O	1.493467	0.299050	0.299002
O43	O	1.019735	-0.284466	-0.477436
O44	O	1.353069	0.048867	-0.144102
O45	O	1.686402	0.382201	0.189231
O46	O	1.019589	-0.477379	-0.284526
O47	O	1.352922	-0.144046	0.048807
O48	O	1.686256	0.189288	0.382141
O49	O	0.936468	-0.477353	-0.367654
O50	O	1.269801	-0.144019	-0.034321
O51	O	1.603135	0.189314	0.299012
C52	C	0.802255	-0.326056	-0.326102
C53	C	1.135588	0.007278	0.007231
C54	C	1.468921	0.340611	0.340565
C55	C	0.727023	-0.326067	-0.326109
C56	C	1.060356	0.007267	0.007225
C57	C	1.393689	0.340600	0.340558
C58	C	0.691682	-0.369412	-0.369319
C59	C	1.025015	-0.036078	-0.035986
C60	C	1.358349	0.297255	0.297347
C61	C	0.620994	-0.369413	-0.369329
C62	C	0.954327	-0.036080	-0.035996
C63	C	1.287660	0.297254	0.297338
C64	C	0.585647	-0.326072	-0.326124
C65	C	0.918981	0.007262	0.007210
C66	C	1.252314	0.340595	0.340543
C67	C	0.620993	-0.282722	-0.282911
C68	C	0.954326	0.050611	0.050422
C69	C	1.287659	0.383945	0.383755
C70	C	0.691680	-0.282718	-0.282906
C71	C	1.025013	0.050616	0.050428
C72	C	1.358347	0.383949	0.383761
C73	C	0.335920	-0.282737	-0.282934
C74	C	0.669253	0.050596	0.050400
C75	C	1.002586	0.383930	0.383733
C76	C	0.265227	-0.282746	-0.282941
C77	C	0.598561	0.050588	0.050392
C78	C	0.931894	0.383921	0.383726
C79	C	0.265233	-0.369432	-0.369357
C80	C	0.598567	-0.036099	-0.036024
C81	C	0.931900	0.297235	0.297310
C82	C	0.335920	-0.369428	-0.369351
C83	C	0.669254	-0.036094	-0.036018
C84	C	1.002587	0.297239	0.297315
C85	C	0.371260	-0.326076	-0.326142
C86	C	0.704593	0.007258	0.007192
C87	C	1.037926	0.340591	0.340525
C88	C	0.447908	-0.326074	-0.326133
C89	C	0.781242	0.007259	0.007201
C90	C	1.114575	0.340593	0.340534
C91	C	0.509000	-0.326076	-0.326129
C92	C	0.842333	0.007257	0.007205
C93	C	1.175667	0.340590	0.340538
C94	C	0.978034	-0.501925	-0.326099
C95	C	1.311367	-0.168591	0.007234
C96	C	1.644700	0.164742	0.340567
C97	C	0.978063	-0.577157	-0.326112
C98	C	1.311396	-0.243823	0.007222
C99	C	1.644729	0.089510	0.340555
C100	C	1.021337	-0.612436	-0.369441
C101	C	1.354670	-0.279102	-0.036108
C102	C	1.688003	0.054231	0.297225
C103	C	1.021361	-0.683124	-0.369454
C104	C	1.354694	-0.349791	-0.036121
C105	C	1.688028	-0.016457	0.297213
C106	C	0.978114	-0.718532	-0.326133
C107	C	1.311448	-0.385199	0.007201
C108	C	1.644781	-0.051866	0.340534
C109	C	0.934835	-0.683249	-0.282801
C110	C	1.268169	-0.349915	0.050532
C111	C	1.601502	-0.016582	0.383866
C112	C	0.934808	-0.612561	-0.282792
C113	C	1.268141	-0.279228	0.050541
C114	C	1.601475	0.054105	0.383874
C115	C	0.934944	-0.968322	-0.282836
C116	C	1.268277	-0.634988	0.050498
C117	C	1.601611	-0.301655	0.383831
C118	C	0.934976	-1.039014	-0.282846
C119	C	1.268310	-0.705681	0.050487
C120	C	1.601643	-0.372347	0.383820
C121	C	1.021497	-1.038884	-0.369497
C122	C	1.354831	-0.705551	-0.036164
C123	C	1.688164	-0.372218	0.297169
C124	C	1.021470	-0.968197	-0.369489
C125	C	1.354803	-0.634864	-0.036155
C126	C	1.688137	-0.301531	0.297178
C127	C	0.978189	-0.932920	-0.326160
C128	C	1.311522	-0.599586	0.007174
C129	C	1.644855	-0.266253	0.340507
C130	C	0.978162	-0.856271	-0.326147
C131	C	1.311495	-0.522938	0.007186
C132	C	1.644829	-0.189605	0.340519
C133	C	0.978144	-0.795179	-0.326141
C134	C	1.311477	-0.461846	0.007192
C135	C	1.644811	-0.128513	0.340526
C136	C	1.154653	-0.326082	-0.326146
C137	C	1.487987	0.007251	0.007187
C138	C	1.821320	0.340584	0.340520
C139	C	1.229885	-0.326088	-0.326156
C140	C	1.563219	0.007245	0.007178
C141	C	1.896552	0.340579	0.340511
C142	C	0.978149	-0.326026	-0.502667
C143	C	1.311482	0.007307	-0.169333
C144	C	1.644815	0.340641	0.164000
C145	C	0.978165	-0.326008	-0.577899
C146	C	1.311498	0.007325	-0.244565
C147	C	1.644832	0.340659	0.088768
C148	C	0.978207	-0.149526	-0.326163
C149	C	1.311540	0.183807	0.007170
C150	C	1.644873	0.517141	0.340503
C151	C	0.978248	-0.074294	-0.326180
C152	C	1.311581	0.259039	0.007153
C153	C	1.644914	0.592373	0.340487
C154	C	1.021480	-0.282719	-0.613259
C155	C	1.354813	0.050615	-0.279926
C156	C	1.688147	0.383948	0.053408
C157	C	1.021487	-0.282699	-0.683948
C158	C	1.354820	0.050634	-0.350614
C159	C	1.688153	0.383968	-0.017281
C160	C	0.978182	-0.325973	-0.719274
C161	C	1.311515	0.007361	-0.385941
C162	C	1.644848	0.340694	-0.052608
C163	C	0.934862	-0.369264	-0.683909
C164	C	1.268195	-0.035930	-0.350576
C165	C	1.601529	0.297403	-0.017242
C166	C	0.934852	-0.369279	-0.613222
C167	C	1.268186	-0.035946	-0.279888
C168	C	1.601519	0.297387	0.053445
C169	C	0.934900	-0.369201	-0.968982
C170	C	1.268234	-0.035867	-0.635649
C171	C	1.601567	0.297466	-0.302316
C172	C	0.934915	-0.369183	-1.039675
C173	C	1.268248	-0.035850	-0.706341
C174	C	1.601582	0.297484	-0.373008
C175	C	1.021535	-0.282620	-1.039708
C176	C	1.354868	0.050713	-0.706375
C177	C	1.688202	0.384046	-0.373042
C178	C	1.021525	-0.282636	-0.969021
C179	C	1.354858	0.050697	-0.635688
C180	C	1.688192	0.384031	-0.302354
C181	C	0.978203	-0.325924	-0.933662
C182	C	1.311536	0.007409	-0.600328
C183	C	1.644870	0.340742	-0.266995
C184	C	0.978195	-0.325944	-0.857013
C185	C	1.311529	0.007389	-0.523680
C186	C	1.644862	0.340723	-0.190347
C187	C	0.978193	-0.325957	-0.795922
C188	C	1.311526	0.007377	-0.462588
C189	C	1.644859	0.340710	-0.129255
C190	C	0.978112	-0.326062	-0.150268
C191	C	1.311445	0.007271	0.183065
C192	C	1.644779	0.340604	0.516399
C193	C	0.978227	-0.325890	-0.075036
C194	C	1.311560	0.007444	0.258297
C195	C	1.644894	0.340777	0.591630
H196	H	0.236450	-0.247448	-0.247758
H197	H	0.569784	0.085885	0.085575
H198	H	0.903117	0.419219	0.418908
H199	H	0.899600	-0.404495	-0.712678
H200	H	1.232933	-0.071162	-0.379344
H201	H	1.566267	0.262171	-0.046011
H202	H	0.720453	-0.247418	-0.247723
H203	H	1.053787	0.085915	0.085611
H204	H	1.387120	0.419249	0.418944
Cl205	Cl	1.075972	-0.228306	-0.728398
Cl206	Cl	1.409306	0.105028	-0.395064
Cl207	Cl	1.742639	0.438361	-0.061731
Cl208	Cl	0.880461	-0.727762	-0.228346
Cl209	Cl	1.213794	-0.394429	0.104987
Cl210	Cl	1.547128	-0.061095	0.438320
Cl211	Cl	1.075995	-0.228197	-1.084164
Cl212	Cl	1.409328	0.105136	-0.750831
Cl213	Cl	1.742662	0.438470	-0.417497
Cl214	Cl	0.736111	-0.423904	-0.423634
Cl215	Cl	1.069444	-0.090571	-0.090301
Cl216	Cl	1.402777	0.242762	0.243032
Cl217	Cl	0.576568	-0.423907	-0.423654
Cl218	Cl	0.909902	-0.090573	-0.090320
Cl219	Cl	1.243235	0.242760	0.243013
H220	H	0.899648	-0.404423	-1.068436
H221	H	1.232981	-0.071090	-0.735102
H222	H	1.566314	0.262244	-0.401769
H223	H	0.364684	-0.247442	-0.247744
H224	H	0.698018	0.085891	0.085589
H225	H	1.031351	0.419225	0.418922
Cl226	Cl	0.220802	-0.423932	-0.423679
Cl227	Cl	0.554136	-0.090599	-0.090346
Cl228	Cl	0.887469	0.242734	0.242987
H229	H	0.899705	-0.939604	-0.247554
H230	H	1.233038	-0.606271	0.085779
H231	H	1.566371	-0.272938	0.419112
H232	H	0.899635	-0.404459	-0.940201
H233	H	1.232968	-0.071125	-0.606868
H234	H	1.566301	0.262208	-0.273535
Cl235	Cl	1.075970	-0.228235	-0.924614
Cl236	Cl	1.409303	0.105099	-0.591281
Cl237	Cl	1.742636	0.438432	-0.257947
Cl238	Cl	0.880403	-0.568211	-0.228319
Cl239	Cl	1.213736	-0.234877	0.105014
Cl240	Cl	1.547070	0.098456	0.438348
Cl241	Cl	1.075927	-0.228318	-0.568855
Cl242	Cl	1.409261	0.105016	-0.235522
Cl243	Cl	1.742594	0.438349	0.097811
H244	H	0.899574	-0.404523	-0.584432
H245	H	1.232907	-0.071190	-0.251099
H246	H	1.566241	0.262143	0.082234
H247	H	1.056556	-0.583611	-0.404715
H248	H	1.389889	-0.250277	-0.071382
H249	H	1.723223	0.083056	0.261951
Cl250	Cl	0.380352	-0.423918	-0.423666
Cl251	Cl	0.713685	-0.090585	-0.090333
Cl252	Cl	1.047019	0.242749	0.243001
H253	H	0.592208	-0.247430	-0.247736
H254	H	0.925541	0.085903	0.085598
H255	H	1.258875	0.419237	0.418931
H256	H	1.056605	-0.711845	-0.404732
H257	H	1.389938	-0.378511	-0.071399
H258	H	1.723271	-0.045178	0.261934
H259	H	1.056688	-0.939370	-0.404762
H260	H	1.390021	-0.606037	-0.071429
H261	H	1.723354	-0.272703	0.261904
H262	H	1.056737	-1.067616	-0.404780
H263	H	1.390070	-0.734282	-0.071447
H264	H	1.723403	-0.400949	0.261887
H265	H	0.899756	-1.067841	-0.247568
H266	H	1.233090	-0.734508	0.085765
H267	H	1.566423	-0.401175	0.419099
