data_functionalizedCrystal
_audit_creation_method	'MofGen! by Chris Wilmer'
_symmetry_space_group_name_H-M	'P1'
_symmetry_Int_Tables_number	1
_symmetry_cell_setting	triclinic
loop_
_symmetry_equiv_pos_as_xyz
  x,y,z
_cell_length_a	16.959455
_cell_length_b	16.959454
_cell_length_c	12.759393
_cell_angle_alpha	90.029640
_cell_angle_beta	90.021619
_cell_angle_gamma	90.017022
loop_
_atom_site_label
_atom_site_type_symbol
_atom_site_fract_x
_atom_site_fract_y
_atom_site_fract_z
Zn1	Zn	1.208441	-0.314708	0.594045
Zn2	Zn	1.708441	0.185292	1.094045
Zn3	Zn	1.208346	-0.446907	0.418368
Zn4	Zn	1.708346	0.053093	0.918368
Zn5	Zn	1.076252	-0.314739	0.418378
Zn6	Zn	1.576252	0.185261	0.918378
Zn7	Zn	1.076234	-0.446841	0.594003
Zn8	Zn	1.576234	0.053159	1.094003
O9	O	1.142318	-0.380799	0.506199
O10	O	1.642318	0.119201	1.006199
O11	O	1.319039	-0.332259	0.570755
O12	O	1.819039	0.167741	1.070755
O13	O	1.190792	-0.429415	0.271348
O14	O	1.690792	0.070585	0.771348
O15	O	1.093835	-0.204124	0.441703
O16	O	1.593835	0.295876	0.941703
O17	O	1.318970	-0.429385	0.441685
O18	O	1.818970	0.070615	0.941685
O19	O	1.190953	-0.204101	0.570765
O20	O	1.690953	0.295899	1.070765
O21	O	1.093743	-0.332312	0.271356
O22	O	1.593743	0.167688	0.771356
O23	O	0.965639	-0.332248	0.441662
O24	O	1.465639	0.167752	0.941662
O25	O	1.093803	-0.429273	0.741030
O26	O	1.593803	0.070727	1.241030
O27	O	0.965625	-0.429303	0.570693
O28	O	1.465625	0.070697	1.070693
O29	O	1.190935	-0.332195	0.741061
O30	O	1.690935	0.167805	1.241061
O31	O	1.190774	-0.557509	0.441645
O32	O	1.690774	-0.057509	0.941645
O33	O	1.093712	-0.557461	0.570683
O34	O	1.593712	-0.057461	1.070683
C35	C	0.936952	-0.380773	0.506175
C36	C	1.436952	0.119227	1.006175
C37	C	0.849095	-0.380780	0.506189
C38	C	1.349095	0.119220	1.006189
C39	C	0.477603	-0.330221	0.439153
C40	C	0.977603	0.169779	0.939153
C41	C	0.477637	-0.431441	0.573305
C42	C	0.977637	0.068559	1.073305
C43	C	0.560183	-0.431430	0.573299
C44	C	1.060183	0.068570	1.073299
C45	C	0.601442	-0.380814	0.506217
C46	C	1.101442	0.119186	1.006217
C47	C	0.560156	-0.330210	0.439142
C48	C	1.060156	0.169790	0.939142
C49	C	0.601476	-0.482039	0.640365
C50	C	1.101476	0.017961	1.140365
C51	C	0.684027	-0.482031	0.640360
C52	C	1.184027	0.017969	1.140360
C53	C	0.725288	-0.431410	0.573283
C54	C	1.225288	0.068590	1.073283
C55	C	0.683996	-0.380803	0.506206
C56	C	1.183996	0.119197	1.006206
C57	C	0.725255	-0.330187	0.439125
C58	C	1.225255	0.169813	0.939125
C59	C	0.683965	-0.279575	0.372053
C60	C	1.183965	0.220425	0.872053
C61	C	0.601417	-0.279589	0.372065
C62	C	1.101417	0.220411	0.872065
C63	C	0.807836	-0.431396	0.573271
C64	C	1.307836	0.068604	1.073271
C65	C	0.807809	-0.330176	0.439114
C66	C	1.307809	0.169824	0.939114
C67	C	1.142252	-0.586165	0.506181
C68	C	1.642252	-0.086165	1.006181
C69	C	1.142296	-0.674022	0.506208
C70	C	1.642296	-0.174022	1.006208
C71	C	1.091851	-1.045502	0.573382
C72	C	1.591851	-0.545502	1.073382
C73	C	1.193006	-1.045492	0.439123
C74	C	1.693006	-0.545492	0.939123
C75	C	1.192978	-0.962946	0.439113
C76	C	1.692978	-0.462946	0.939113
C77	C	1.142385	-0.921674	0.506238
C78	C	1.642385	-0.421674	1.006238
C79	C	1.091820	-0.962948	0.573372
C80	C	1.591820	-0.462948	1.073372
C81	C	1.243536	-0.921666	0.371972
C82	C	1.743536	-0.421666	0.871972
C83	C	1.243510	-0.839115	0.371959
C84	C	1.743510	-0.339115	0.871959
C85	C	1.192921	-0.797842	0.439090
C86	C	1.692921	-0.297842	0.939090
C87	C	1.142355	-0.839121	0.506228
C88	C	1.642355	-0.339121	1.006228
C89	C	1.091762	-0.797849	0.573353
C90	C	1.591762	-0.297849	1.073353
C91	C	1.041199	-0.839126	0.640497
C92	C	1.541199	-0.339126	1.140497
C93	C	1.041231	-0.921675	0.640503
C94	C	1.541231	-0.421675	1.140503
C95	C	1.192889	-0.715293	0.439084
C96	C	1.692889	-0.215293	0.939084
C97	C	1.091731	-0.715295	0.573343
C98	C	1.591731	-0.215295	1.073343
C99	C	1.348486	-0.380825	0.506224
C100	C	1.848486	0.119175	1.006224
C101	C	1.436343	-0.380837	0.506234
C102	C	1.936343	0.119163	1.006234
C103	C	1.142377	-0.380723	0.780232
C104	C	1.642377	0.119277	1.280232
C105	C	1.142403	-0.380690	0.897009
C106	C	1.642403	0.119310	1.397009
C107	C	1.142406	-0.174630	0.506240
C108	C	1.642406	0.325370	1.006240
C109	C	1.142444	-0.086774	0.506257
C110	C	1.642444	0.413226	1.006257
C111	C	1.142305	-0.380817	0.233231
C112	C	1.642305	0.119183	0.733231
C113	C	1.142433	-0.380627	0.116455
C114	C	1.642433	0.119373	0.616455
C115	C	1.192983	-0.330134	0.951889
C116	C	1.692983	0.169866	1.451889
C117	C	1.192996	-0.330100	1.061613
C118	C	1.692996	0.169900	1.561613
C119	C	1.091847	-0.431186	1.061568
C120	C	1.591847	0.068814	1.561568
C121	C	1.091830	-0.431215	0.951846
C122	C	1.591830	0.068785	1.451846
H123	H	0.841451	-0.472606	0.627877
H124	H	1.341451	0.027394	1.127877
H125	H	1.234160	-0.288991	0.907244
H126	H	1.734160	0.211009	1.407244
H127	H	0.567791	-0.238385	0.317457
H128	H	1.067791	0.261615	0.817457
H129	H	0.567876	-0.523254	0.694971
H130	H	1.067876	-0.023254	1.194971
Br131	Br	0.421570	-0.261530	0.348139
Br132	Br	0.921570	0.238470	0.848139
Br133	Br	1.261493	-0.659277	0.347953
Br134	Br	1.761493	-0.159277	0.847953
H135	H	1.234183	-0.288930	1.106291
H136	H	1.734183	0.211070	1.606291
H137	H	1.050674	-0.472323	1.106229
H138	H	1.550674	0.027677	1.606229
Br139	Br	0.740056	-0.550716	0.731385
Br140	Br	1.240056	-0.050716	1.231385
H141	H	1.284682	-0.805512	0.317289
H142	H	1.784682	-0.305512	0.817289
Br143	Br	1.023173	-0.499826	0.877359
Br144	Br	1.523173	0.000174	1.377359
H145	H	0.841397	-0.288953	0.384494
H146	H	1.341397	0.211047	0.884494
Br147	Br	1.261663	-1.101504	0.348028
Br148	Br	1.761663	-0.601504	0.848028
Br149	Br	1.023072	-0.659290	0.664455
Br150	Br	1.523072	-0.159290	1.164455
Br151	Br	0.739970	-0.210892	0.281007
Br152	Br	1.239970	0.289108	0.781007
H153	H	0.444039	-0.472655	0.627913
H154	H	0.944039	0.027345	1.127913
Br155	Br	0.972534	-0.783105	0.731583
Br156	Br	1.472534	-0.283105	1.231583
H157	H	1.000065	-0.955290	0.695167
H158	H	1.500065	-0.455290	1.195167
Br159	Br	1.023239	-1.101517	0.664509
Br160	Br	1.523239	-0.601517	1.164509
H161	H	1.284720	-0.955276	0.317315
H162	H	1.784720	-0.455276	0.817315
