data_functionalizedCrystal
_audit_creation_method	'MofGen! by Chris Wilmer'
_symmetry_space_group_name_H-M	'P1'
_symmetry_Int_Tables_number	1
_symmetry_cell_setting	triclinic
loop_
_symmetry_equiv_pos_as_xyz
  x,y,z
_cell_length_a	16.109301
_cell_length_b	14.421503
_cell_length_c	16.109304
_cell_angle_alpha	89.995625
_cell_angle_beta	83.462059
_cell_angle_gamma	89.990199
loop_
_atom_site_label
_atom_site_type_symbol
_atom_site_fract_x
_atom_site_fract_y
_atom_site_fract_z
O1	O	1.103120	0.077047	0.106861
O2	O	0.861058	0.077061	0.120160
O3	O	0.988737	0.077054	-0.007520
O4	O	0.975440	0.077054	0.234541
O5	O	0.988753	-0.077169	-0.007512
O6	O	0.861073	-0.077162	0.120168
O7	O	1.103135	-0.077176	0.106869
Cu8	Cu	0.982106	-0.091251	0.113520
Cu9	Cu	0.982087	0.091136	0.113510
O10	O	0.975456	-0.077169	0.234550
C11	C	0.830091	-0.000049	0.119626
C12	C	0.737795	-0.000043	0.118010
C13	C	0.515524	-0.000054	0.190018
C14	C	0.428803	-0.000060	0.188494
C15	C	0.448676	-0.000056	0.037005
C16	C	0.535395	-0.000057	0.038530
C17	C	0.568816	-0.000051	0.115039
C18	C	0.395377	-0.000056	0.111990
C19	C	0.301351	-0.000063	0.110337
C20	C	0.662848	-0.000046	0.116693
N21	N	0.982125	-0.219532	0.113526
C22	C	1.041176	-0.469164	0.054473
C23	C	0.966055	-0.530957	0.038347
C24	C	0.982106	-0.408694	0.113516
C25	C	1.057209	-0.530995	0.129594
C26	C	0.982095	-0.591415	0.113504
C27	C	0.906947	-0.469125	0.097352
C28	C	0.998151	-0.469158	0.188631
C29	C	0.922976	-0.530923	0.172537
C30	C	0.982114	-0.303433	0.113520
C31	C	0.982079	-0.696674	0.113500
C32	C	1.134102	-0.000064	0.107404
C33	C	1.226398	-0.000064	0.109019
C34	C	0.988206	-0.000055	-0.038491
C35	C	0.986590	-0.000049	-0.130786
N36	N	0.982075	0.219417	0.113497
C37	C	0.982848	0.084015	-0.343128
C38	C	0.981322	0.084014	-0.429848
C39	C	0.981343	-0.084129	-0.429836
C40	C	0.982863	-0.084127	-0.343117
C41	C	0.983620	-0.000052	-0.299766
C42	C	0.980573	-0.000055	-0.473205
C43	C	0.978919	-0.000056	-0.567231
C44	C	0.985273	-0.000050	-0.205734
C45	C	0.975987	-0.000058	0.265520
C46	C	0.977603	-0.000058	0.357816
H47	H	0.578788	-0.000057	-0.022530
C48	C	0.983684	0.175196	-0.295912
C49	C	0.985193	0.157209	-0.210686
C50	C	0.985963	0.241185	-0.167168
H51	H	0.934983	0.209791	-0.303681
H52	H	1.031897	0.209763	-0.316427
H53	H	0.936985	0.122657	-0.190178
H54	H	1.033891	0.122629	-0.202892
H55	H	1.034176	0.275751	-0.187683
H56	H	0.937261	0.275773	-0.174944
H57	H	0.986995	0.228992	-0.109339
C58	C	0.980360	-0.175433	-0.476842
C59	C	0.909241	-0.226145	-0.446390
C60	C	0.908305	-0.310254	-0.489679
H61	H	1.029011	-0.210086	-0.469009
H62	H	0.979302	-0.163432	-0.534702
H63	H	0.910306	-0.238148	-0.388545
H64	H	0.860578	-0.191520	-0.454224
H65	H	0.907247	-0.298253	-0.547539
H66	H	0.956959	-0.344899	-0.481842
H67	H	0.860048	-0.344669	-0.469029
C68	C	0.551650	-0.000104	0.273167
C69	C	0.486413	-0.000134	0.338503
C70	C	0.519657	-0.000196	0.415113
H71	H	0.585045	0.053662	0.277031
H72	H	0.585050	-0.053908	0.276955
H73	H	0.453027	0.053664	0.334716
H74	H	0.453012	-0.053896	0.334666
H75	H	0.553057	-0.053999	0.418901
H76	H	0.553052	0.053571	0.418968
H77	H	0.475400	-0.000225	0.459452
C78	C	0.370846	0.000088	0.269838
C79	C	0.320452	0.079419	0.273374
C80	C	0.267045	0.079580	0.348294
H81	H	0.403070	0.000139	0.315687
H82	H	0.336563	-0.053667	0.272404
H83	H	0.354731	0.133159	0.270816
H84	H	0.288211	0.079385	0.227543
H85	H	0.232762	0.025825	0.350860
H86	H	0.299275	0.079628	0.394137
H87	H	0.232841	0.133400	0.350700
C88	C	0.412227	-0.000006	-0.045973
C89	C	0.324875	0.000021	-0.031263
C90	C	0.291272	0.000082	-0.107684
H91	H	0.430435	-0.053771	-0.076909
H92	H	0.430468	0.053798	-0.076853
H93	H	0.306641	-0.053777	-0.000397
H94	H	0.306643	0.053782	-0.000340
H95	H	0.309513	0.053886	-0.138564
H96	H	0.309487	-0.053684	-0.138614
H97	H	0.232001	0.000109	-0.097714
C98	C	1.141857	-0.567176	0.147936
C99	C	1.159014	-0.534530	0.226038
C100	C	1.236977	-0.567847	0.242970
H101	H	1.183857	-0.546058	0.106029
H102	H	1.141098	-0.633047	0.148364
H103	H	1.159780	-0.468673	0.225603
H104	H	1.117035	-0.555645	0.267961
H105	H	1.236217	-0.633719	0.243398
H106	H	1.278970	-0.546727	0.201059
H107	H	1.248624	-0.545709	0.295966
H108	H	0.983487	-0.152589	-0.307810
H109	H	0.872963	-0.557869	0.222466
H110	H	0.952474	-0.558103	-0.025181
H111	H	0.980691	0.152470	-0.465150
H112	H	1.091077	-0.442047	0.004515
H113	H	0.843414	-0.442063	0.083677
H114	H	1.011756	-0.441993	0.252140
