data_functionalizedCrystal
_audit_creation_method	'MofGen! by Chris Wilmer'
_symmetry_space_group_name_H-M	'P1'
_symmetry_Int_Tables_number	1
_symmetry_cell_setting	triclinic
loop_
_symmetry_equiv_pos_as_xyz
  x,y,z
_cell_length_a	21.395362
_cell_length_b	16.120484
_cell_length_c	21.395356
_cell_angle_alpha	87.128486
_cell_angle_beta	90.042977
_cell_angle_gamma	92.942400
loop_
_atom_site_label
_atom_site_type_symbol
_atom_site_fract_x
_atom_site_fract_y
_atom_site_fract_z
Zn1	Zn	0.945241	-0.331581	0.367212
Zn2	Zn	1.278575	0.001753	0.700546
Zn3	Zn	1.611908	0.335086	1.033879
Zn4	Zn	0.939842	-0.471001	0.267744
Zn5	Zn	1.273176	-0.137667	0.601077
Zn6	Zn	1.606509	0.195666	0.934411
Zn7	Zn	0.840456	-0.331642	0.262416
Zn8	Zn	1.173789	0.001692	0.595749
Zn9	Zn	1.507122	0.335025	0.929082
Zn10	Zn	0.835123	-0.470995	0.372448
Zn11	Zn	1.168456	-0.137662	0.705782
Zn12	Zn	1.501789	0.195671	1.039115
O13	O	0.890165	-0.401305	0.317455
O14	O	1.223499	-0.067971	0.650788
O15	O	1.556832	0.265362	0.984122
O16	O	1.032204	-0.350051	0.354056
O17	O	1.365537	-0.016718	0.687389
O18	O	1.698871	0.316615	1.020723
O19	O	0.926631	-0.452542	0.179360
O20	O	1.259964	-0.119209	0.512694
O21	O	1.593298	0.214125	0.846027
O22	O	0.858847	-0.214966	0.271896
O23	O	1.192180	0.118367	0.605229
O24	O	1.525514	0.451701	0.938563
O25	O	1.028237	-0.452483	0.280977
O26	O	1.361571	-0.119149	0.614310
O27	O	1.694904	0.214184	0.947644
O28	O	0.935833	-0.214921	0.348890
O29	O	1.269166	0.118412	0.682223
O30	O	1.602499	0.451746	1.015556
O31	O	0.853612	-0.350156	0.175446
O32	O	1.186945	-0.016822	0.508779
O33	O	1.520279	0.316511	0.842112
O34	O	0.752069	-0.350151	0.276973
O35	O	1.085403	-0.016817	0.610307
O36	O	1.418736	0.316516	0.943640
O37	O	0.849758	-0.452474	0.459431
O38	O	1.183091	-0.119141	0.792764
O39	O	1.516424	0.214193	1.126097
O40	O	0.748151	-0.452533	0.357814
O41	O	1.081485	-0.119200	0.691147
O42	O	1.414818	0.214133	1.024481
O43	O	0.930661	-0.350046	0.455584
O44	O	1.263995	-0.016713	0.788917
O45	O	1.597328	0.316620	1.122250
O46	O	0.921460	-0.587668	0.286054
O47	O	1.254793	-0.254334	0.619388
O48	O	1.588126	0.078999	0.952721
O49	O	0.844522	-0.587664	0.362980
O50	O	1.177856	-0.254330	0.696314
O51	O	1.511189	0.079003	1.029647
C52	C	0.727376	-0.401349	0.317384
C53	C	1.060709	-0.068015	0.650717
C54	C	1.394043	0.265318	0.984051
C55	C	0.657733	-0.401388	0.317369
C56	C	0.991067	-0.068054	0.650703
C57	C	1.324400	0.265279	0.984036
C58	C	0.622994	-0.454769	0.359406
C59	C	0.956327	-0.121435	0.692739
C60	C	1.289660	0.211898	1.026072
C61	C	0.557559	-0.454748	0.359433
C62	C	0.890892	-0.121415	0.692766
C63	C	1.224226	0.211918	1.026099
C64	C	0.526866	-0.401355	0.317413
C65	C	0.860200	-0.068022	0.650746
C66	C	1.193533	0.265311	0.984079
C67	C	0.561614	-0.347964	0.275373
C68	C	0.894948	-0.014631	0.608707
C69	C	1.228281	0.318703	0.942040
C70	C	0.627048	-0.347980	0.275352
C71	C	0.960381	-0.014647	0.608685
C72	C	1.293714	0.318687	0.942018
C73	C	0.423398	-0.394651	0.260752
C74	C	0.756731	-0.061318	0.594086
C75	C	1.090064	0.272016	0.927419
C76	C	0.357965	-0.394641	0.260773
C77	C	0.691298	-0.061308	0.594106
C78	C	1.024632	0.272026	0.927440
C79	C	0.325048	-0.401301	0.317480
C80	C	0.658381	-0.067968	0.650813
C81	C	0.991714	0.265366	0.984147
C82	C	0.357570	-0.407989	0.374168
C83	C	0.690904	-0.074656	0.707501
C84	C	1.024237	0.258678	1.040835
C85	C	0.423004	-0.408005	0.374146
C86	C	0.756337	-0.074672	0.707480
C87	C	1.089671	0.258662	1.040813
C88	C	0.455915	-0.401332	0.317432
C89	C	0.789248	-0.067998	0.650765
C90	C	1.122582	0.265335	0.984099
C91	C	0.219356	-0.454663	0.359549
C92	C	0.552690	-0.121330	0.692882
C93	C	0.886023	0.212004	1.026216
C94	C	0.153921	-0.454637	0.359577
C95	C	0.487254	-0.121303	0.692910
C96	C	0.820587	0.212030	1.026244
C97	C	0.157977	-0.347857	0.275512
C98	C	0.491310	-0.014523	0.608845
C99	C	0.824644	0.318810	0.942179
C100	C	0.223411	-0.347878	0.275490
C101	C	0.556745	-0.014545	0.608823
C102	C	0.890078	0.318788	0.942156
C103	C	0.254097	-0.401286	0.317507
C104	C	0.587430	-0.067953	0.650841
C105	C	0.920764	0.265381	0.984174
C106	C	0.881844	-0.617916	0.325677
C107	C	1.215177	-0.284583	0.659011
C108	C	1.548510	0.048750	0.992344
C109	C	0.878341	-0.710584	0.329216
C110	C	1.211674	-0.377250	0.662549
C111	C	1.545007	-0.043917	0.995882
C112	C	0.871949	-0.880248	0.335689
C113	C	1.205282	-0.546915	0.669022
C114	C	1.538616	-0.213581	1.002356
C115	C	0.908494	-0.921520	0.299232
C116	C	1.241827	-0.588187	0.632565
C117	C	1.575161	-0.254854	0.965898
C118	C	0.904938	-1.015927	0.302833
C119	C	1.238271	-0.682594	0.636167
C120	C	1.571604	-0.349261	0.969500
C121	C	0.875505	-0.785832	0.332088
C122	C	1.208838	-0.452499	0.665421
C123	C	1.542171	-0.119166	0.998755
C124	C	1.053590	-0.401261	0.317527
C125	C	1.386924	-0.067928	0.650860
C126	C	1.720257	0.265406	0.984193
C127	C	1.123232	-0.401242	0.317557
C128	C	1.456566	-0.067909	0.650891
C129	C	1.789899	0.265424	0.984224
C130	C	0.890217	-0.401253	0.480876
C131	C	1.223550	-0.067920	0.814210
C132	C	1.556883	0.265414	1.147543
C133	C	0.890239	-0.401231	0.550517
C134	C	1.223572	-0.067897	0.883850
C135	C	1.556905	0.265436	1.217184
C136	C	0.898537	-0.183847	0.309214
C137	C	1.231870	0.149486	0.642548
C138	C	1.565204	0.482820	0.975881
C139	C	0.902104	-0.091179	0.305703
C140	C	1.235438	0.242154	0.639036
C141	C	1.568771	0.575487	0.972369
C142	C	0.890153	-0.401296	0.154667
C143	C	1.223486	-0.067963	0.488001
C144	C	1.556819	0.265371	0.821334
C145	C	0.890261	-0.401083	0.085018
C146	C	1.223595	-0.067750	0.418352
C147	C	1.556928	0.265584	0.751685
C148	C	0.852229	-0.347912	0.581182
C149	C	1.185562	-0.014579	0.914515
C150	C	1.518895	0.318754	1.247848
C151	C	0.852227	-0.347897	0.646617
C152	C	1.185560	-0.014563	0.979950
C153	C	1.518894	0.318770	1.313283
C154	C	0.890247	-0.401191	0.681384
C155	C	1.223580	-0.067858	1.014717
C156	C	1.556914	0.265476	1.348050
C157	C	0.928260	-0.454520	0.650712
C158	C	1.261593	-0.121187	0.984045
C159	C	1.594926	0.212147	1.317378
C160	C	0.928255	-0.454540	0.585278
C161	C	1.261589	-0.121207	0.918611
C162	C	1.594922	0.212127	1.251945
C163	C	0.946450	-0.407725	0.785338
C164	C	1.279784	-0.074392	1.118671
C165	C	1.613117	0.258942	1.452005
C166	C	0.946456	-0.407699	0.850770
C167	C	1.279789	-0.074366	1.184103
C168	C	1.613123	0.258967	1.517437
C169	C	0.890259	-0.401135	0.883203
C170	C	1.223593	-0.067802	1.216536
C171	C	1.556926	0.265532	1.549869
C172	C	0.834056	-0.394579	0.850194
C173	C	1.167390	-0.061245	1.183528
C174	C	1.500723	0.272088	1.516861
C175	C	0.834052	-0.394598	0.784761
C176	C	1.167386	-0.061265	1.118094
C177	C	1.500719	0.272068	1.451427
C178	C	0.890256	-0.401176	0.752336
C179	C	1.223589	-0.067843	1.085669
C180	C	1.556922	0.265491	1.419002
C181	C	0.852244	-0.347797	0.984819
C182	C	1.185578	-0.014463	1.318152
C183	C	1.518911	0.318870	1.651486
C184	C	0.852242	-0.347787	1.050255
C185	C	1.185575	-0.014454	1.383589
C186	C	1.518908	0.318880	1.716922
C187	C	0.928280	-0.454406	1.054349
C188	C	1.261613	-0.121073	1.387682
C189	C	1.594947	0.212261	1.721016
C190	C	0.928277	-0.454420	0.988914
C191	C	1.261610	-0.121087	1.322247
C192	C	1.594944	0.212247	1.655581
C193	C	0.890260	-0.401111	0.954153
C194	C	1.223594	-0.067778	1.287486
C195	C	1.556927	0.265556	1.620820
H196	H	0.647974	-0.498256	0.393621
H197	H	0.981307	-0.164923	0.726954
H198	H	1.314640	0.168410	1.060287
Cl199	Cl	0.819522	-0.935159	0.388050
Cl200	Cl	1.152855	-0.601826	0.721383
Cl201	Cl	1.486188	-0.268492	1.054716
Cl202	Cl	0.804454	-0.280844	0.685174
Cl203	Cl	1.137787	0.052489	1.018508
Cl204	Cl	1.471120	0.385822	1.351841
H205	H	0.942452	-0.885952	0.265314
H206	H	1.275785	-0.552619	0.598647
H207	H	1.609118	-0.219286	0.931981
Cl208	Cl	0.804433	-0.280899	0.537485
Cl209	Cl	1.137766	0.052434	0.870819
Cl210	Cl	1.471100	0.385767	1.204152
Cl211	Cl	0.513877	-0.521862	0.412282
Cl212	Cl	0.847211	-0.188528	0.745616
Cl213	Cl	1.180544	0.144805	1.078949
H214	H	0.788290	-0.389262	0.757888
H215	H	1.121623	-0.055928	1.091222
H216	H	1.454956	0.277405	1.424555
H217	H	0.125637	-0.498105	0.393812
H218	H	0.458970	-0.164771	0.727145
H219	H	0.792303	0.168562	1.060479
Cl220	Cl	0.463888	-0.416407	0.445408
Cl221	Cl	0.797221	-0.083073	0.778741
Cl222	Cl	1.130554	0.250260	1.112075
Cl223	Cl	0.670723	-0.280867	0.222501
Cl224	Cl	1.004056	0.052467	0.555835
Cl225	Cl	1.337390	0.385800	0.889168
H226	H	0.788296	-0.389227	0.876599
H227	H	1.121630	-0.055894	1.209932
H228	H	1.454963	0.277439	1.543266
Cl229	Cl	0.804449	-0.280786	0.941117
Cl230	Cl	1.137783	0.052547	1.274450
Cl231	Cl	1.471116	0.385881	1.607783
Cl232	Cl	0.804434	-0.280775	1.088807
Cl233	Cl	1.137768	0.052558	1.422140
Cl234	Cl	1.471101	0.385891	1.755473
Cl235	Cl	0.976073	-0.521411	1.098050
Cl236	Cl	1.309406	-0.188078	1.431384
Cl237	Cl	1.642740	0.145256	1.764717
Cl238	Cl	0.976069	-0.521447	0.950362
Cl239	Cl	1.309402	-0.188114	1.283695
Cl240	Cl	1.642735	0.145219	1.617028
H241	H	0.330771	-0.413411	0.420344
H242	H	0.664104	-0.080078	0.753678
H243	H	0.997437	0.253256	1.087011
H244	H	0.992220	-0.413034	0.877640
H245	H	1.325553	-0.079700	1.210974
H246	H	1.658887	0.253633	1.544307
H247	H	0.992217	-0.413063	0.758937
H248	H	1.325550	-0.079730	1.092270
H249	H	1.658883	0.253603	1.425603
H250	H	0.244342	-0.498146	0.393766
H251	H	0.577675	-0.164813	0.727099
H252	H	0.911009	0.168520	1.060432
H253	H	0.132988	-0.304379	0.241301
H254	H	0.466321	0.028954	0.574635
H255	H	0.799654	0.362288	0.907968
H256	H	0.959216	-0.497913	0.679023
H257	H	1.292549	-0.164580	1.012357
H258	H	1.625882	0.168754	1.345690
H259	H	0.251697	-0.304414	0.241256
H260	H	0.585030	0.028920	0.574589
H261	H	0.918363	0.362253	0.907923
Cl262	Cl	0.317086	-0.386232	0.189509
Cl263	Cl	0.650419	-0.052899	0.522842
Cl264	Cl	0.983753	0.280434	0.856176
Cl265	Cl	0.976045	-0.521573	0.546726
Cl266	Cl	1.309378	-0.188240	0.880059
Cl267	Cl	1.642711	0.145093	1.213393
H268	H	0.536620	-0.304489	0.241161
H269	H	0.869953	0.028844	0.574495
H270	H	1.203287	0.362177	0.907828
Cl271	Cl	0.464772	-0.386281	0.189456
Cl272	Cl	0.798106	-0.052948	0.522790
Cl273	Cl	1.131439	0.280386	0.856123
