data_functionalizedCrystal
_audit_creation_method	'MofGen! by Chris Wilmer'
_symmetry_space_group_name_H-M	'P1'
_symmetry_Int_Tables_number	1
_symmetry_cell_setting	triclinic
loop_
_symmetry_equiv_pos_as_xyz
  x,y,z
_cell_length_a	6.817900
_cell_length_b	9.582860
_cell_length_c	16.418042
_cell_angle_alpha	93.122023
_cell_angle_beta	103.389568
_cell_angle_gamma	111.206767
loop_
_atom_site_label
_atom_site_type_symbol
_atom_site_fract_x
_atom_site_fract_y
_atom_site_fract_z
V1	V	-4.065734	-0.208271	-0.260999
V2	V	-3.732400	0.125062	0.072334
V3	V	-3.399067	0.458395	0.405667
O4	O	-4.011405	0.008757	-0.256189
O5	O	-3.678072	0.342090	0.077144
O6	O	-3.344739	0.675423	0.410478
O7	O	-4.056512	-0.411763	-0.259062
O8	O	-3.723179	-0.078430	0.074271
O9	O	-3.389846	0.254904	0.407604
O10	O	-4.016296	-0.205617	-0.374899
O11	O	-3.682963	0.127717	-0.041566
O12	O	-3.349629	0.461050	0.291767
O13	O	-4.051900	-0.198817	-0.139550
O14	O	-3.718567	0.134517	0.193783
O15	O	-3.385233	0.467850	0.527117
V16	V	-4.544419	-0.182247	-0.246491
V17	V	-4.211086	0.151086	0.086842
V18	V	-3.877753	0.484419	0.420175
O19	O	-4.337603	-0.265357	-0.292823
O20	O	-4.004270	0.067976	0.040510
O21	O	-3.670936	0.401310	0.373843
O22	O	-4.722747	-0.125162	-0.214667
O23	O	-4.389414	0.208172	0.118666
O24	O	-4.056081	0.541505	0.451999
O25	O	-4.330434	0.021245	-0.248428
O26	O	-3.997101	0.354578	0.084905
O27	O	-3.663767	0.687911	0.418238
O28	O	-4.716145	-0.399275	-0.251302
O29	O	-4.382811	-0.065942	0.082032
O30	O	-4.049478	0.267391	0.415365
O31	O	-4.675650	-0.191702	-0.367941
O32	O	-4.342317	0.141631	-0.034607
O33	O	-4.008983	0.474965	0.298726
O34	O	-4.370650	-0.184902	-0.132591
O35	O	-4.037317	0.148432	0.200742
O36	O	-3.703984	0.481765	0.534075
C37	C	-3.911078	-0.461353	-0.254906
C38	C	-3.577745	-0.128020	0.078428
C39	C	-3.244411	0.205314	0.411761
C40	C	-3.984818	-0.627714	-0.254081
C41	C	-3.651485	-0.294380	0.079252
C42	C	-3.318152	0.038953	0.412585
C43	C	-3.859777	-0.198391	-0.402666
C44	C	-3.526443	0.134942	-0.069333
C45	C	-3.193110	0.468276	0.264000
C46	C	-3.900899	-0.197567	-0.495779
C47	C	-3.567565	0.135766	-0.162446
C48	C	-3.234232	0.469100	0.170887
C49	C	-4.178993	-0.203134	-0.714261
C50	C	-3.845660	0.130199	-0.380928
C51	C	-3.512327	0.463533	-0.047594
C52	C	-4.217610	-0.202347	-0.801749
C53	C	-3.884277	0.130986	-0.468416
C54	C	-3.550944	0.464320	-0.135082
C55	C	-3.850514	-0.187377	-0.793218
C56	C	-3.517181	0.145957	-0.459884
C57	C	-3.183848	0.479290	-0.126551
C58	C	-3.811895	-0.188153	-0.705730
C59	C	-3.478562	0.145180	-0.372397
C60	C	-3.145228	0.478514	-0.039064
C61	C	-3.976145	-0.196040	-0.666255
C62	C	-3.642812	0.137294	-0.332922
C63	C	-3.309479	0.470627	0.000412
C64	C	-4.053381	-0.194476	-0.841230
C65	C	-3.720048	0.138857	-0.507897
C66	C	-3.386715	0.472190	-0.174564
C67	C	-4.095250	-0.193623	-0.936089
C68	C	-3.761917	0.139710	-0.602756
C69	C	-3.428584	0.473044	-0.269422
C70	C	-3.934273	-0.196890	-0.571390
C71	C	-3.600940	0.136443	-0.238057
C72	C	-3.267606	0.469776	0.095276
C73	C	-4.139212	0.070826	-0.252583
C74	C	-3.805879	0.404160	0.080751
C75	C	-3.472545	0.737493	0.414084
C76	C	-4.044710	0.237186	-0.253413
C77	C	-3.711377	0.570519	0.079921
C78	C	-3.378043	0.903852	0.413254
C79	C	-4.190513	-0.192133	-0.104820
C80	C	-3.857180	0.141201	0.228513
C81	C	-3.523846	0.474534	0.561847
C82	C	-4.128628	-0.192949	-0.011706
C83	C	-3.795295	0.140385	0.321627
C84	C	-3.461961	0.473718	0.654960
H85	H	-4.312738	-0.209553	-0.682123
H86	H	-3.979404	0.123780	-0.348790
H87	H	-3.646071	0.457114	-0.015456
F88	F	-4.433506	-0.209898	-0.852837
F89	F	-4.100173	0.123436	-0.519504
F90	F	-3.766840	0.456769	-0.186171
F91	F	-3.675729	-0.178999	-0.835239
F92	F	-3.342396	0.154335	-0.501905
F93	F	-3.009063	0.487668	-0.168572
F94	F	-3.595984	-0.180598	-0.654635
F95	F	-3.262651	0.152735	-0.321302
F96	F	-2.929317	0.486068	0.012032
