data_functionalizedCrystal
_audit_creation_method	'MofGen! by Chris Wilmer'
_symmetry_space_group_name_H-M	'P1'
_symmetry_Int_Tables_number	1
_symmetry_cell_setting	triclinic
loop_
_symmetry_equiv_pos_as_xyz
  x,y,z
_cell_length_a	10.685969
_cell_length_b	10.686285
_cell_length_c	10.685910
_cell_angle_alpha	80.943388
_cell_angle_beta	89.668786
_cell_angle_gamma	81.628116
loop_
_atom_site_label
_atom_site_type_symbol
_atom_site_fract_x
_atom_site_fract_y
_atom_site_fract_z
Zn1	Zn	-2.015628	0.617703	0.511367
Zn2	Zn	-2.015593	0.846172	0.282876
Zn3	Zn	-1.789642	0.615208	0.317929
Zn4	Zn	-1.819660	0.813635	0.511365
O5	O	-1.910131	0.723180	0.405884
O6	O	-2.192198	0.662671	0.466388
O7	O	-1.973043	0.828107	0.110948
O8	O	-1.807071	0.436882	0.358259
O9	O	-2.192172	0.830526	0.298516
O10	O	-1.973102	0.438715	0.500377
O11	O	-1.807038	0.658419	0.136701
O12	O	-1.617049	0.626869	0.358258
O13	O	-1.858233	0.775071	0.687943
O14	O	-1.639104	0.772652	0.500374
O15	O	-2.002209	0.631121	0.687944
O16	O	-2.002151	1.020513	0.298514
O17	O	-1.858199	0.996608	0.466384
C18	C	-1.582293	0.695960	0.433120
C19	C	-1.442047	0.684344	0.444799
C20	C	-1.933465	1.054885	0.378670
C21	C	-1.943566	1.196797	0.367060
C22	C	-1.933573	0.699745	0.735008
C23	C	-1.943563	0.689759	0.875261
C24	C	-1.239247	0.750495	0.378529
C25	C	-1.379492	0.762106	0.366838
C26	C	-1.886742	0.390179	0.433229
C27	C	-1.876775	0.248275	0.444881
C28	C	-1.886771	0.746550	1.078038
C29	C	-1.876778	0.756533	0.937785
H30	H	-1.388310	0.608884	0.520487
H31	H	-1.811866	1.183782	0.520391
H32	H	-2.008388	0.624956	0.929029
H33	H	-1.811958	0.821349	0.884010
O34	O	-2.021191	1.273772	0.277148
C35	C	-2.113146	1.352438	0.336088
H36	H	-2.125047	1.305700	0.438107
H37	H	-2.081575	1.449946	0.335441
C38	C	-2.225547	1.427190	0.138232
C39	C	-2.240172	1.369780	0.263531
H40	H	-2.303901	1.437894	0.093474
H41	H	-2.163593	1.374195	0.098522
H42	H	-2.199233	1.508441	0.137711
H43	H	-2.266469	1.288525	0.264052
H44	H	-2.302133	1.422762	0.303240
O45	O	-1.443785	0.852037	0.276573
C46	C	-1.574201	0.844028	0.284619
H47	H	-1.588108	0.744077	0.332710
H48	H	-1.621735	0.918151	0.342391
C49	C	-1.616582	0.992932	0.091340
C50	C	-1.633663	0.870166	0.150396
H51	H	-1.653264	1.009061	0.008546
H52	H	-1.528719	0.998332	0.085920
H53	H	-1.656194	1.054687	0.139496
H54	H	-1.594038	0.808414	0.102249
H55	H	-1.721521	0.864757	0.155805
