data_functionalizedCrystal
_audit_creation_method	'MofGen! by Chris Wilmer'
_symmetry_space_group_name_H-M	'P1'
_symmetry_Int_Tables_number	1
_symmetry_cell_setting	triclinic
loop_
_symmetry_equiv_pos_as_xyz
  x,y,z
_cell_length_a	19.077105
_cell_length_b	25.639240
_cell_length_c	19.076919
_cell_angle_alpha	87.738531
_cell_angle_beta	89.923776
_cell_angle_gamma	87.728718
loop_
_atom_site_label
_atom_site_type_symbol
_atom_site_fract_x
_atom_site_fract_y
_atom_site_fract_z
Zn1	Zn	1.058223	-0.252939	0.440357
Zn2	Zn	1.062848	-0.337004	0.322829
Zn3	Zn	0.945443	-0.245935	0.318152
Zn4	Zn	0.940670	-0.336688	0.435582
O5	O	1.001796	-0.293141	0.379230
O6	O	1.157168	-0.267153	0.428722
O7	O	1.051207	-0.322124	0.223878
O8	O	0.960465	-0.173702	0.334403
O9	O	1.160566	-0.328915	0.342375
O10	O	1.043325	-0.178847	0.424186
O11	O	0.964949	-0.255216	0.220442
O12	O	0.846478	-0.254910	0.329773
O13	O	0.952330	-0.328378	0.534546
O14	O	0.842971	-0.321587	0.416049
O15	O	1.038697	-0.266848	0.538054
O16	O	1.046578	-0.410124	0.337746
O17	O	0.956815	-0.409892	0.420585
C18	C	0.819229	-0.287455	0.371886
C19	C	0.741125	-0.285035	0.368761
C20	C	0.702627	-0.318661	0.412141
C21	C	0.629240	-0.316381	0.409208
C22	C	0.594353	-0.280476	0.362890
C23	C	0.632856	-0.246846	0.319508
C24	C	0.706241	-0.249124	0.322445
C25	C	0.375067	-0.269932	0.349300
C26	C	0.301677	-0.267657	0.346365
C27	C	0.298066	-0.337192	0.436066
C28	C	0.371453	-0.339469	0.438996
C29	C	0.409950	-0.305837	0.395616
N30	N	0.519340	-0.278145	0.359890
N31	N	0.484961	-0.308166	0.398621
C32	C	1.001699	-0.428979	0.379171
C33	C	1.001721	-0.487094	0.379172
C34	C	1.044960	-0.850105	0.426062
C35	C	1.044980	-0.904710	0.426077
O36	O	1.081628	-0.935193	0.465884
N37	N	1.001891	-0.929385	0.379302
C38	C	0.958773	-0.899452	0.332513
O39	O	0.922123	-0.925454	0.292729
C40	C	0.958750	-0.844848	0.332502
C41	C	1.001847	-0.820176	0.379275
C42	C	1.088053	-0.825433	0.472833
C43	C	1.088034	-0.770831	0.472816
C44	C	1.044921	-0.740902	0.426030
C45	C	1.001828	-0.765574	0.379259
C46	C	0.915629	-0.814915	0.285717
C47	C	0.915609	-0.760308	0.285710
C48	C	0.958706	-0.735636	0.332484
C49	C	0.958696	-0.681043	0.332456
N50	N	1.001785	-0.656368	0.379232
C51	C	1.044898	-0.686297	0.426019
C52	C	0.958824	-1.014125	0.332541
C53	C	0.958851	-1.068728	0.332548
C54	C	1.045057	-1.073983	0.426113
C55	C	1.045034	-1.019379	0.426102
C56	C	1.001914	-0.989450	0.379316
C57	C	1.044854	-0.571630	0.425981
C58	C	1.044833	-0.517023	0.425958
C59	C	0.958625	-0.511774	0.332396
C60	C	0.958648	-0.566375	0.332415
C61	C	1.001765	-0.596303	0.379214
O62	O	0.922064	-0.650527	0.292672
O63	O	1.081534	-0.660288	0.465803
C64	C	1.185076	-0.298851	0.386603
C65	C	1.263179	-0.301284	0.389745
C66	C	0.994465	-0.298359	0.562509
C67	C	0.991342	-0.300582	0.640611
C68	C	1.001912	-0.156774	0.379305
C69	C	1.001961	-0.098662	0.379337
C70	C	1.009138	-0.287908	0.196666
C71	C	1.012398	-0.285541	0.118569
C72	C	1.034838	-0.269593	0.679131
C73	C	1.031894	-0.271679	0.752517
C74	C	0.985457	-0.304759	0.787381
C75	C	0.941956	-0.335750	0.748855
C76	C	0.944897	-0.333660	0.675471
C77	C	0.971838	-0.314442	1.006660
C78	C	0.968902	-0.316531	1.080049
C79	C	1.058839	-0.252460	1.083705
C80	C	1.061779	-0.250375	1.010320
C81	C	1.018275	-0.281364	0.971801
N82	N	0.982449	-0.306894	0.862392
N83	N	1.021281	-0.279225	0.896790
H84	H	0.604444	-0.217610	0.281799
O85	O	0.747770	-0.212863	0.275649
H86	H	0.711183	-0.187518	0.242941
O87	O	1.084924	-0.233914	0.641529
H88	H	1.114670	-0.212712	0.680646
O89	O	0.918806	-0.352204	1.117658
H90	H	0.931373	-0.393214	1.104035
O91	O	0.912328	-0.981845	0.282063
H92	H	0.882380	-1.008181	0.249536
H93	H	0.597898	-0.343763	0.444532
O94	O	0.891865	-0.371424	0.786458
H95	H	0.904438	-0.412432	0.772832
O96	O	0.740255	-0.357385	0.462101
H97	H	0.701153	-0.380380	0.491778
H98	H	0.399854	-0.368707	0.476711
O99	O	1.105737	-0.219026	1.125259
H100	H	1.140125	-0.244484	1.160132
H101	H	0.266715	-0.364572	0.471384
H102	H	0.909470	-0.358889	0.644109
H103	H	1.067316	-0.246446	0.783877
O104	O	1.091522	-0.992771	0.476548
H105	H	1.077226	-1.004431	0.531203
O106	O	0.924882	-0.347836	0.965116
H107	H	0.892091	-0.371181	1.001690
H108	H	1.079931	-0.496937	0.464047
H109	H	0.273273	-0.238414	0.308652
H110	H	0.923525	-0.487397	0.294300
O111	O	1.091553	-1.106272	0.476582
H112	H	1.121520	-1.079946	0.509106
H113	H	1.079959	-0.595990	0.464093
O114	O	0.869139	-0.841519	0.235272
H115	H	0.839154	-0.811525	0.202749
O116	O	0.416586	-0.233676	0.302493
H117	H	0.379996	-0.208336	0.269782
O118	O	1.134528	-0.744223	0.523255
H119	H	1.164508	-0.774215	0.555786
O120	O	1.111870	-0.214698	0.972720
H121	H	1.099291	-0.173689	0.986335
O122	O	1.134560	-0.857710	0.523297
H123	H	1.164520	-0.831371	0.555809
H124	H	0.923764	-1.088811	0.294453
H125	H	0.880493	-0.735942	0.247612
H126	H	0.923560	-0.586464	0.294323
