data_functionalizedCrystal
_audit_creation_method	'MofGen! by Chris Wilmer'
_symmetry_space_group_name_H-M	'P1'
_symmetry_Int_Tables_number	1
_symmetry_cell_setting	triclinic
loop_
_symmetry_equiv_pos_as_xyz
  x,y,z
_cell_length_a	11.792254
_cell_length_b	14.044209
_cell_length_c	10.868271
_cell_angle_alpha	89.995960
_cell_angle_beta	90.004308
_cell_angle_gamma	91.306725
loop_
_atom_site_label
_atom_site_type_symbol
_atom_site_fract_x
_atom_site_fract_y
_atom_site_fract_z
O1	O	1.519107	-0.130040	0.102330
O2	O	1.852440	0.203294	0.435663
O3	O	2.185774	0.536627	0.768997
O4	O	1.190024	-0.143424	0.102334
O5	O	1.523357	0.189910	0.435667
O6	O	1.856691	0.523243	0.769000
O7	O	1.349627	0.001279	0.102314
O8	O	1.682961	0.334612	0.435648
O9	O	2.016294	0.667945	0.768981
O10	O	1.359504	-0.274742	0.102349
O11	O	1.692837	0.058591	0.435683
O12	O	2.026170	0.391925	0.769016
O13	O	1.349612	0.001274	-0.102330
O14	O	1.682945	0.334607	0.231003
O15	O	2.016279	0.667941	0.564336
O16	O	1.190009	-0.143428	-0.102311
O17	O	1.523342	0.189905	0.231022
O18	O	1.856675	0.523238	0.564356
O19	O	1.519092	-0.130044	-0.102315
O20	O	1.852425	0.203289	0.231019
O21	O	2.185758	0.536622	0.564352
Zn22	Zn	1.354548	-0.136737	-0.134805
Zn23	Zn	1.687881	0.196596	0.198529
Zn24	Zn	2.021214	0.529930	0.531862
Zn25	Zn	1.354568	-0.136731	0.134824
Zn26	Zn	1.687901	0.196603	0.468157
Zn27	Zn	2.021235	0.529936	0.801490
O28	O	1.359488	-0.274747	-0.102295
O29	O	1.692822	0.058587	0.231038
O30	O	2.026155	0.391920	0.564371
C31	C	1.147647	-0.142583	0.000011
C32	C	1.480980	0.190751	0.333345
C33	C	1.814313	0.524084	0.666678
C34	C	1.021397	-0.140059	0.000012
C35	C	1.354730	0.193274	0.333346
C36	C	1.688063	0.526607	0.666679
C37	C	0.918868	-0.138009	0.000017
C38	C	1.252201	0.195324	0.333351
C39	C	1.585534	0.528658	0.666684
C40	C	0.790240	-0.135445	0.000018
C41	C	1.123574	0.197888	0.333351
C42	C	1.456907	0.531222	0.666684
C43	C	1.345296	0.036613	-0.000010
C44	C	1.678629	0.369947	0.333324
C45	C	2.011962	0.703280	0.666657
C46	C	1.332398	0.141906	-0.000015
C47	C	1.665731	0.475239	0.333318
C48	C	1.999064	0.808573	0.666651
C49	C	1.308818	0.334690	-0.000005
C50	C	1.642151	0.668023	0.333329
C51	C	1.975484	1.001356	0.666662
C52	C	1.400303	0.391849	-0.000004
C53	C	1.733636	0.725183	0.333329
C54	C	2.066969	1.058516	0.666663
C55	C	1.387182	0.499121	0.000002
C56	C	1.720516	0.832454	0.333335
C57	C	2.053849	1.165787	0.666668
C58	C	1.321936	0.227408	-0.000011
C59	C	1.655269	0.560741	0.333323
C60	C	1.988603	0.894075	0.666656
C61	C	1.561469	-0.130885	0.000010
C62	C	1.894802	0.202448	0.333343
C63	C	2.228136	0.535782	0.666677
C64	C	1.687719	-0.133409	0.000018
C65	C	2.021052	0.199925	0.333351
C66	C	2.354386	0.533258	0.666684
C67	C	1.363823	0.689919	0.000022
C68	C	1.697156	1.023253	0.333355
C69	C	2.030489	1.356586	0.666688
C70	C	1.376728	0.584627	0.000006
C71	C	1.710061	0.917961	0.333340
C72	C	2.043394	1.251294	0.666673
N73	N	1.354542	-0.136741	-0.318819
N74	N	1.687876	0.196593	0.014515
N75	N	2.021209	0.529926	0.347848
C76	C	1.354551	-0.136741	-0.430156
C77	C	1.687884	0.196592	-0.096823
C78	C	2.021218	0.529926	0.236510
C79	C	1.354565	-0.136732	-0.569834
C80	C	1.687898	0.196601	-0.236501
C81	C	2.021232	0.529935	0.096833
N82	N	1.354582	-0.136720	0.318838
N83	N	1.687915	0.196614	0.652171
N84	N	2.021248	0.529947	0.985504
H85	H	1.488479	0.360222	0.000079
H86	H	1.821813	0.693555	0.333412
H87	H	2.155146	1.026888	0.666746
H88	H	1.220648	0.366315	-0.000002
H89	H	1.553981	0.699649	0.333331
H90	H	1.887315	1.032982	0.666664
