data_functionalizedCrystal
_audit_creation_method	'MofGen! by Chris Wilmer'
_symmetry_space_group_name_H-M	'P1'
_symmetry_Int_Tables_number	1
_symmetry_cell_setting	triclinic
loop_
_symmetry_equiv_pos_as_xyz
  x,y,z
_cell_length_a	8.634740
_cell_length_b	19.188924
_cell_length_c	7.088929
_cell_angle_alpha	83.795552
_cell_angle_beta	97.174953
_cell_angle_gamma	91.856135
loop_
_atom_site_label
_atom_site_type_symbol
_atom_site_fract_x
_atom_site_fract_y
_atom_site_fract_z
O1	O	2.028640	0.233645	-0.159010
O2	O	1.579818	0.214565	-0.159012
O3	O	1.817189	0.123338	-0.158988
O4	O	1.791269	0.324872	-0.159034
O5	O	1.848911	0.111114	0.158990
O6	O	1.611540	0.202341	0.158966
O7	O	2.060363	0.221421	0.158968
Cu8	Cu	1.838848	0.210765	0.188001
Cu9	Cu	1.801333	0.225221	-0.188045
O10	O	1.822992	0.312648	0.158945
C11	C	1.538258	0.204131	-0.000023
C12	C	1.367163	0.191244	-0.000023
C13	C	1.832213	0.091157	0.000002
C14	C	1.829699	0.013480	0.000008
C15	C	1.811234	-0.016336	-0.173323
C16	C	1.808849	-0.089322	-0.173337
C17	C	1.824961	-0.132489	-0.000012
C18	C	1.843420	-0.102665	0.173342
C19	C	1.845789	-0.029681	0.173351
N20	N	1.921823	-0.251345	0.128991
N21	N	1.919574	-0.320677	0.128970
C22	C	1.817819	-0.352388	-0.000030
N23	N	1.718415	-0.312147	-0.129038
N24	N	1.720670	-0.242808	-0.129022
C25	C	1.822392	-0.211629	-0.000003
C26	C	1.796764	-0.461343	-0.173388
C27	C	1.794370	-0.534331	-0.173396
C28	C	1.828957	-0.547672	0.173288
C29	C	1.831335	-0.474686	0.173291
C30	C	1.815246	-0.431526	-0.000053
C31	C	2.101922	0.231855	-0.000025
C32	C	2.273016	0.244743	-0.000037
C33	C	1.807967	0.344829	-0.000050
C34	C	1.810479	0.422507	-0.000068
N35	N	1.865246	0.200598	0.452492
N36	N	1.774947	0.235384	-0.452536
H37	H	1.793802	-0.113603	-0.314488
N38	N	1.860807	-0.149219	0.360289
H39	H	1.856515	-0.199979	0.333983
H40	H	1.964303	-0.138605	0.435973
H41	H	1.958847	0.164553	0.534157
H42	H	1.316867	0.135583	-0.000060
H43	H	1.323315	0.300409	-0.000037
H44	H	1.860820	-0.005406	0.314502
N45	N	1.650961	0.283128	0.439327
H46	H	1.671962	0.332526	0.474045
H47	H	1.652875	0.282347	0.297411
N48	N	1.779352	-0.414750	-0.360277
H49	H	1.866876	-0.423739	-0.436134
H50	H	1.675787	-0.425306	-0.435888
H51	H	1.798128	0.018801	-0.314473
N52	N	1.774582	-0.566492	-0.360354
H53	H	1.764800	-0.528072	-0.470156
H54	H	1.868431	-0.595700	-0.367773
H55	H	1.842064	-0.582818	0.314414
H56	H	1.846384	-0.450410	0.314435
