data_functionalizedCrystal
_audit_creation_method	'MofGen! by Chris Wilmer'
_symmetry_space_group_name_H-M	'P1'
_symmetry_Int_Tables_number	1
_symmetry_cell_setting	triclinic
loop_
_symmetry_equiv_pos_as_xyz
  x,y,z
_cell_length_a	14.971486
_cell_length_b	8.140239
_cell_length_c	14.971486
_cell_angle_alpha	90.003728
_cell_angle_beta	83.614129
_cell_angle_gamma	89.997766
loop_
_atom_site_label
_atom_site_type_symbol
_atom_site_fract_x
_atom_site_fract_y
_atom_site_fract_z
O1	O	1.186943	0.136425	0.116561
O2	O	1.520276	0.469759	0.449895
O3	O	1.853609	0.803092	0.783228
O4	O	0.926542	0.136470	0.130520
O5	O	1.259876	0.469804	0.463853
O6	O	1.593209	0.803137	0.797187
O7	O	1.063722	0.136435	-0.006659
O8	O	1.397055	0.469768	0.326674
O9	O	1.730389	0.803102	0.660007
O10	O	1.049763	0.136461	0.253741
O11	O	1.383096	0.469794	0.587074
O12	O	1.716430	0.803127	0.920407
O13	O	1.063714	-0.136792	-0.006661
O14	O	1.397048	0.196541	0.326672
O15	O	1.730381	0.529874	0.660006
O16	O	0.926535	-0.136757	0.130519
O17	O	1.259868	0.196576	0.463852
O18	O	1.593201	0.529910	0.797185
O19	O	1.186935	-0.136802	0.116560
O20	O	1.520268	0.196532	0.449893
O21	O	1.853602	0.529865	0.783226
Zn22	Zn	1.056734	-0.180160	0.123539
Zn23	Zn	1.390067	0.153173	0.456872
Zn24	Zn	1.723400	0.486507	0.790206
Zn25	Zn	1.056744	0.179828	0.123541
Zn26	Zn	1.390077	0.513162	0.456874
Zn27	Zn	1.723410	0.846495	0.790208
O28	O	1.049756	-0.136766	0.253739
O29	O	1.383089	0.196567	0.587073
O30	O	1.716422	0.529900	0.920406
C31	C	0.893214	-0.000138	0.129895
C32	C	1.226547	0.333196	0.463228
C33	C	1.559881	0.666529	0.796562
C34	C	0.793917	-0.000121	0.128024
C35	C	1.127250	0.333212	0.461358
C36	C	1.460583	0.666546	0.794691
N37	N	1.056733	-0.425843	0.123537
N38	N	1.390067	-0.092509	0.456870
N39	N	1.723400	0.240824	0.790204
C40	C	0.736692	-0.000115	0.208614
C41	C	1.070025	0.333218	0.541947
C42	C	1.403358	0.666551	0.875280
C43	C	0.643392	-0.000140	0.206850
C44	C	0.976725	0.333193	0.540184
C45	C	1.310059	0.666527	0.873517
C46	C	0.607320	-0.000159	0.124497
C47	C	0.940653	0.333175	0.457831
C48	C	1.273986	0.666508	0.791164
C49	C	0.664552	-0.000169	0.043902
C50	C	0.997886	0.333164	0.377235
C51	C	1.331219	0.666498	0.710569
C52	C	0.757850	-0.000156	0.045666
C53	C	1.091183	0.333177	0.378999
C54	C	1.424517	0.666510	0.712333
C55	C	0.470090	-0.000192	0.040231
C56	C	0.803423	0.333141	0.373564
C57	C	1.136757	0.666475	0.706897
C58	C	0.376786	-0.000202	0.038466
C59	C	0.710119	0.333131	0.371800
C60	C	1.043453	0.666465	0.705133
C61	C	0.355632	-0.000176	0.201415
C62	C	0.688965	0.333157	0.534749
C63	C	1.022299	0.666491	0.868082
C64	C	0.448930	-0.000163	0.203179
C65	C	0.782263	0.333170	0.536513
C66	C	1.115596	0.666504	0.869846
C67	C	0.506156	-0.000170	0.122584
C68	C	0.839489	0.333163	0.455917
C69	C	1.172822	0.666496	0.789250
C70	C	1.220263	-0.000190	0.117185
C71	C	1.553597	0.333143	0.450518
C72	C	1.886930	0.666476	0.783851
C73	C	1.319561	-0.000196	0.119056
C74	C	1.652894	0.333137	0.452389
C75	C	1.986227	0.666470	0.785722
C76	C	1.063094	-0.000178	-0.039985
C77	C	1.396427	0.333155	0.293348
C78	C	1.729761	0.666489	0.626682
C79	C	1.061223	-0.000176	-0.139282
C80	C	1.394556	0.333157	0.194051
C81	C	1.727890	0.666490	0.527385
N82	N	1.056751	0.425511	0.123536
N83	N	1.390084	0.758844	0.456869
N84	N	1.723418	1.092178	0.790202
C85	C	1.141812	-0.000191	-0.196507
C86	C	1.475146	0.333142	0.136826
C87	C	1.808479	0.666475	0.470159
C88	C	1.140049	-0.000175	-0.289807
C89	C	1.473383	0.333159	0.043527
C90	C	1.806716	0.666492	0.376860
C91	C	1.057696	-0.000154	-0.325879
C92	C	1.391029	0.333179	0.007454
C93	C	1.724363	0.666512	0.340788
C94	C	0.977101	-0.000134	-0.268646
C95	C	1.310434	0.333199	0.064687
C96	C	1.643767	0.666532	0.398020
C97	C	0.978865	-0.000139	-0.175349
C98	C	1.312198	0.333194	0.157985
C99	C	1.645531	0.666527	0.491318
C100	C	0.973430	-0.000128	-0.463109
C101	C	1.306763	0.333206	-0.129776
C102	C	1.640096	0.666539	0.203558
C103	C	0.971665	-0.000126	-0.556413
C104	C	1.304998	0.333208	-0.223080
C105	C	1.638332	0.666541	0.110254
C106	C	1.134614	-0.000163	-0.577567
C107	C	1.467947	0.333170	-0.244233
C108	C	1.801281	0.666504	0.089100
C109	C	1.136378	-0.000168	-0.484269
C110	C	1.469712	0.333165	-0.150936
C111	C	1.803045	0.666499	0.182397
C112	C	1.055782	-0.000151	-0.427043
C113	C	1.389116	0.333182	-0.093710
C114	C	1.722449	0.666516	0.239624
C115	C	1.050384	-0.000150	0.287065
C116	C	1.383717	0.333183	0.620398
C117	C	1.717050	0.666517	0.953731
C118	C	1.052254	-0.000141	0.386362
C119	C	1.385588	0.333192	0.719695
C120	C	1.718921	0.666526	1.053028
H121	H	0.596802	-0.000133	0.272474
H122	H	0.930136	0.333200	0.605808
H123	H	1.263469	0.666533	0.939141
H124	H	0.907800	-0.000110	-0.416517
H125	H	1.241133	0.333224	-0.083184
H126	H	1.574466	0.666557	0.250150
O127	O	1.225205	-0.000184	-0.445368
O128	O	1.558539	0.333149	-0.112035
O129	O	1.891872	0.666482	0.221298
H130	H	1.229908	-0.111556	-0.403379
H131	H	1.563242	0.221777	-0.070046
H132	H	1.896575	0.555111	0.263288
H133	H	0.516682	-0.000201	-0.025399
H134	H	0.850015	0.333133	0.307934
H135	H	1.183348	0.666466	0.641268
O136	O	1.221546	-0.000189	-0.639282
O137	O	1.554880	0.333144	-0.305949
O138	O	1.888213	0.666477	0.027384
H139	H	1.260966	0.111149	-0.626435
H140	H	1.594299	0.444482	-0.293102
H141	H	1.927633	0.777816	0.040231
O142	O	0.775597	-0.000111	0.297438
O143	O	1.108931	0.333222	0.630771
O144	O	1.442264	0.666555	0.964105
H145	H	0.720127	-0.000133	0.353180
H146	H	1.053460	0.333200	0.686513
H147	H	1.386793	0.666534	1.019846
H148	H	1.208874	-0.000218	-0.167145
H149	H	1.542207	0.333115	0.166188
H150	H	1.875541	0.666449	0.499522
H151	H	0.635175	-0.000208	-0.023152
H152	H	0.968508	0.333126	0.310182
H153	H	1.301842	0.666459	0.643515
O154	O	0.337881	-0.000243	-0.050359
O155	O	0.671214	0.333090	0.282975
O156	O	1.004548	0.666423	0.616308
H157	H	0.295881	-0.111610	-0.055042
H158	H	0.629215	0.221723	0.278291
H159	H	0.962548	0.555057	0.611624
O160	O	0.819579	-0.000157	-0.041254
O161	O	1.152912	0.333176	0.292079
O162	O	1.486245	0.666510	0.625413
H163	H	0.778823	-0.000157	-0.098817
H164	H	1.112157	0.333176	0.234517
H165	H	1.445490	0.666509	0.567850
O166	O	1.226969	-0.000218	-0.351532
O167	O	1.560303	0.333115	-0.018198
O168	O	1.893636	0.666449	0.315135
H169	H	1.284531	-0.000263	-0.310774
H170	H	1.617864	0.333071	0.022559
H171	H	1.951197	0.666404	0.355892
H172	H	0.309033	-0.000177	0.267039
H173	H	0.642367	0.333156	0.600373
H174	H	0.975700	0.666490	0.933706
O175	O	0.882844	-0.000076	-0.595326
O176	O	1.216178	0.333257	-0.261993
O177	O	1.549511	0.666591	0.071341
H178	H	0.827097	-0.000034	-0.539861
H179	H	1.160430	0.333299	-0.206528
H180	H	1.493764	0.666633	0.126806
H181	H	0.910047	-0.000108	-0.298024
H182	H	1.243380	0.333226	0.035310
H183	H	1.576714	0.666559	0.368643
H184	H	0.478296	-0.000132	0.270239
H185	H	0.811630	0.333201	0.603572
H186	H	1.144963	0.666535	0.936905
H187	H	0.913240	-0.000127	-0.128756
H188	H	1.246574	0.333206	0.204577
H189	H	1.579907	0.666540	0.537911
