data_functionalizedCrystal
_audit_creation_method	'MofGen! by Chris Wilmer'
_symmetry_space_group_name_H-M	'P1'
_symmetry_Int_Tables_number	1
_symmetry_cell_setting	triclinic
loop_
_symmetry_equiv_pos_as_xyz
  x,y,z
_cell_length_a	13.032831
_cell_length_b	16.625546
_cell_length_c	13.033255
_cell_angle_alpha	97.150402
_cell_angle_beta	76.666554
_cell_angle_gamma	82.826778
loop_
_atom_site_label
_atom_site_type_symbol
_atom_site_fract_x
_atom_site_fract_y
_atom_site_fract_z
Zn1	Zn	1.700029	-0.566816	-0.806342
Zn2	Zn	2.200029	-0.066816	-0.306342
Zn3	Zn	1.677351	-0.682035	-0.628717
Zn4	Zn	2.177351	-0.182035	-0.128717
Zn5	Zn	1.499862	-0.527601	-0.606242
Zn6	Zn	1.999862	-0.027601	-0.106242
Zn7	Zn	1.522363	-0.681963	-0.783759
Zn8	Zn	2.022363	-0.181963	-0.283759
O9	O	1.599902	-0.614604	-0.706265
O10	O	2.099902	-0.114604	-0.206265
O11	O	1.845655	-0.598542	-0.801637
O12	O	2.345655	-0.098542	-0.301637
O13	O	1.634900	-0.645168	-0.477108
O14	O	2.134900	-0.145168	0.022892
O15	O	1.526489	-0.419982	-0.632831
O16	O	2.026489	0.080018	-0.132831
O17	O	1.828993	-0.683193	-0.671137
O18	O	2.328993	-0.183193	-0.171137
O19	O	1.673551	-0.448793	-0.779843
O20	O	2.173551	0.051207	-0.279843
O21	O	1.504499	-0.531706	-0.460596
O22	O	2.004499	-0.031706	0.039404
O23	O	1.354213	-0.531635	-0.610933
O24	O	1.854213	-0.031635	-0.110933
O25	O	1.564838	-0.683070	-0.935382
O26	O	2.064838	-0.183070	-0.435382
O27	O	1.370744	-0.645044	-0.741354
O28	O	1.870744	-0.145044	-0.241354
O29	O	1.695369	-0.598472	-0.951974
O30	O	2.195369	-0.098472	-0.451974
O31	O	1.656718	-0.794846	-0.649239
O32	O	2.156718	-0.294846	-0.149239
O33	O	1.542848	-0.794793	-0.763147
O34	O	2.042848	-0.294793	-0.263147
C35	C	1.323940	-0.584077	-0.671254
C36	C	1.823940	-0.084077	-0.171254
C37	C	1.205886	-0.571040	-0.656302
C38	C	1.705886	-0.071040	-0.156302
C39	C	1.161448	-0.621408	-0.714069
C40	C	1.661448	-0.121408	-0.214069
C41	C	1.039433	-0.607935	-0.698616
C42	C	1.539433	-0.107935	-0.198616
C43	C	1.599795	-0.824079	-0.706208
C44	C	2.099795	-0.324079	-0.206208
C45	C	1.599852	-0.913708	-0.706231
C46	C	2.099852	-0.413708	-0.206231
C47	C	1.600051	-1.241916	-0.706365
C48	C	2.100051	-0.741916	-0.206365
C49	C	1.599992	-1.150598	-0.706330
C50	C	2.099992	-0.650598	-0.206330
C51	C	1.599950	-1.077814	-0.706298
C52	C	2.099950	-0.577814	-0.206298
C53	C	1.599894	-0.986491	-0.706264
C54	C	2.099894	-0.486491	-0.206264
C55	C	1.876941	-0.645250	-0.741413
C56	C	2.376941	-0.145250	-0.241413
C57	C	1.994998	-0.658310	-0.756391
C58	C	2.494998	-0.158310	-0.256391
C59	C	1.635143	-0.645137	-0.983293
C60	C	2.135143	-0.145137	-0.483293
C61	C	1.650161	-0.658149	-1.101346
C62	C	2.150161	-0.158149	-0.601346
C63	C	1.600040	-0.404317	-0.706349
C64	C	2.100040	0.095683	-0.206349
C65	C	1.600099	-0.314705	-0.706385
C66	C	2.100099	0.185295	-0.206385
C67	C	1.607865	-0.621257	-1.267827
C68	C	2.107865	-0.121257	-0.767827
C69	C	1.592334	-0.607806	-1.145812
C70	C	2.092334	-0.107806	-0.645812
C71	C	1.564858	-0.584138	-0.430322
C72	C	2.064858	-0.084138	0.069678
C73	C	1.550046	-0.570922	-0.312296
C74	C	2.050046	-0.070922	0.187704
H75	H	1.213735	-0.674502	-0.774968
H76	H	1.713735	-0.174502	-0.274968
F77	F	1.729893	-0.727500	-1.169641
F78	F	2.229893	-0.227500	-0.669641
F79	F	1.687590	-0.690606	-1.336127
F80	F	2.187590	-0.190606	-0.836127
H81	H	1.153600	-0.517941	-0.595410
H82	H	1.653600	-0.017941	-0.095410
F83	F	1.470309	-0.501581	-1.243995
F84	F	1.970309	-0.001581	-0.743995
F85	F	0.971100	-0.538525	-0.619019
F86	F	1.471100	-0.038525	-0.119019
F87	F	1.063332	-0.727708	-0.836007
F88	F	1.563332	-0.227708	-0.336007
H89	H	1.531329	-0.554753	-1.093556
H90	H	2.031329	-0.054753	-0.593556
