data_functionalizedCrystal
_audit_creation_method	'MofGen! by Chris Wilmer'
_symmetry_space_group_name_H-M	'P1'
_symmetry_Int_Tables_number	1
_symmetry_cell_setting	triclinic
loop_
_symmetry_equiv_pos_as_xyz
  x,y,z
_cell_length_a	14.519731
_cell_length_b	19.288865
_cell_length_c	17.766277
_cell_angle_alpha	90.011603
_cell_angle_beta	89.990550
_cell_angle_gamma	96.587450
loop_
_atom_site_label
_atom_site_type_symbol
_atom_site_fract_x
_atom_site_fract_y
_atom_site_fract_z
O1	O	1.223284	-0.091121	-0.062605
O2	O	0.954742	-0.101828	-0.062607
O3	O	1.096772	0.004627	-0.062591
O4	O	1.081253	-0.197577	-0.062621
O5	O	1.096747	0.004633	0.062598
O6	O	0.954717	-0.101823	0.062581
O7	O	1.223259	-0.091116	0.062584
Cu8	Cu	1.088985	-0.096469	0.074013
Cu9	Cu	1.089015	-0.096475	-0.074037
O10	O	1.081228	-0.197571	0.062568
C11	C	0.920373	-0.101324	-0.000013
C12	C	0.818002	-0.099820	-0.000013
C13	C	0.734866	-0.098599	-0.000016
C14	C	0.630567	-0.097073	-0.000016
C15	C	0.547435	-0.095861	-0.000016
C16	C	0.443130	-0.094335	-0.000017
C17	C	1.096260	0.030508	0.000006
C18	C	1.094761	0.107617	0.000012
C19	C	1.257627	-0.091620	-0.000012
C20	C	1.359998	-0.093124	-0.000017
C21	C	1.081740	-0.223452	-0.000031
C22	C	1.083239	-0.300561	-0.000042
N23	N	1.088971	-0.096464	0.178144
C24	C	1.178099	0.152009	0.000017
C25	C	1.176690	0.224461	0.000005
C26	C	1.091940	0.252518	0.000003
C27	C	1.008592	0.208117	-0.000005
C28	C	1.010003	0.135666	-0.000001
C29	C	1.025308	0.361051	0.043854
C30	C	1.023901	0.433501	0.043854
C31	C	1.087586	0.475980	-0.000013
C32	C	1.152694	0.446002	-0.043871
C33	C	1.154104	0.373551	-0.043867
C34	C	1.090401	0.331078	-0.000002
C35	C	1.169402	0.598933	-0.000023
C36	C	1.167990	0.671386	-0.000040
C37	C	0.999889	0.655041	-0.000042
C38	C	1.001303	0.582589	-0.000033
C39	C	1.086062	0.554540	-0.000020
N40	N	1.089036	-0.096475	-0.178167
C41	C	1.151883	-0.049349	0.217538
C42	C	1.151888	-0.049345	0.296339
C43	C	1.088991	-0.096469	0.335744
C44	C	1.026068	-0.143588	0.296341
C45	C	1.026058	-0.143585	0.217540
C46	C	1.076645	-0.159712	0.460573
C47	C	1.076661	-0.159716	0.539372
C48	C	1.089016	-0.096478	0.578791
C49	C	1.101374	-0.033234	0.539401
C50	C	1.101364	-0.033231	0.460601
C51	C	1.088994	-0.096477	0.421190
C52	C	1.151936	-0.049355	0.703630
C53	C	1.151935	-0.049351	0.782434
C54	C	1.026119	-0.143600	0.782433
C55	C	1.026116	-0.143598	0.703632
C56	C	1.089029	-0.096476	0.664235
H57	H	1.247116	0.129176	0.000024
Br58	Br	0.893573	0.246193	-0.000016
H59	H	0.933441	0.546444	-0.000032
H60	H	0.974827	-0.181953	0.185465
Br61	Br	0.940748	-0.207547	0.835905
H62	H	1.203162	-0.010984	0.671552
Br63	Br	0.938870	0.303408	0.103394
H64	H	0.942137	0.099522	-0.000004
Br65	Br	1.237274	0.014603	0.349812
H66	H	1.204552	0.480587	-0.079593
Br67	Br	1.289799	0.284719	0.000007
Br68	Br	1.237260	0.014602	0.164070
Br69	Br	1.118126	0.052596	0.407145
H70	H	1.207115	0.349146	-0.079579
H71	H	1.111433	0.018261	0.571494
H72	H	1.203162	-0.010980	0.814509
Br73	Br	0.884869	0.693110	-0.000051
H74	H	0.974891	-0.181967	0.671555
Br75	Br	1.059900	-0.245546	0.592821
Br76	Br	1.284428	0.560862	0.000002
H77	H	1.066568	-0.211211	0.428484
Br78	Br	0.940699	-0.207538	0.349815
H79	H	1.235856	0.707530	-0.000040
H80	H	0.970882	0.457903	0.079561
