data_functionalizedCrystal
_audit_creation_method	'MofGen! by Chris Wilmer'
_symmetry_space_group_name_H-M	'P1'
_symmetry_Int_Tables_number	1
_symmetry_cell_setting	triclinic
loop_
_symmetry_equiv_pos_as_xyz
  x,y,z
_cell_length_a	16.974810
_cell_length_b	19.188930
_cell_length_c	16.053802
_cell_angle_alpha	92.551696
_cell_angle_beta	88.925582
_cell_angle_gamma	96.731094
loop_
_atom_site_label
_atom_site_type_symbol
_atom_site_fract_x
_atom_site_fract_y
_atom_site_fract_z
O1	O	-1.048768	0.089015	0.001456
O2	O	-0.819271	0.099700	-0.014060
O3	O	-0.940641	-0.007267	-0.005838
O4	O	-0.927397	0.195982	-0.006766
O5	O	-0.933961	-0.001404	0.132568
O6	O	-0.812590	0.105563	0.124346
O7	O	-1.042088	0.094879	0.139863
Zn8	Zn	-0.926278	0.101152	0.154079
Zn9	Zn	-0.935080	0.093427	-0.028277
O10	O	-0.920717	0.201846	0.131640
C11	C	-0.786569	0.102117	0.053158
C12	C	-0.699082	0.100576	0.047244
C13	C	-0.654343	0.103047	0.119912
C14	C	-0.572142	0.101588	0.114358
C15	C	-0.534679	0.097664	0.036133
C16	C	-0.579424	0.095191	-0.036541
C17	C	-0.661625	0.096645	-0.030985
C18	C	-0.289225	0.092968	0.011428
C19	C	-0.207018	0.091516	0.005878
C20	C	-0.199741	0.097913	0.156777
C21	C	-0.281944	0.099370	0.162325
C22	C	-0.326682	0.096894	0.089651
N23	N	-0.450655	0.096175	0.030454
N24	N	-0.410705	0.098378	0.095332
C25	C	-0.936872	-0.030348	0.063339
C26	C	-0.935584	-0.107858	0.063259
C27	C	-0.074790	0.092458	0.072641
C28	C	-0.162279	0.093987	0.078546
C29	C	-1.006801	-0.152456	0.068078
C30	C	-1.005592	-0.225286	0.067983
C31	C	-0.933161	-0.253514	0.063085
C32	C	-0.861935	-0.208907	0.058261
C33	C	-0.863147	-0.136079	0.058348
N34	N	-0.875523	-0.359777	0.106444
N35	N	-0.874377	-0.428961	0.106364
C36	C	-0.929507	-0.472940	0.062821
N37	N	-0.985838	-0.445123	0.019373
N38	N	-0.986986	-0.375933	0.019457
C39	C	-0.931840	-0.332483	0.062990
C40	C	-0.999418	-0.596509	0.067536
C41	C	-0.998206	-0.669340	0.067436
C42	C	-0.854547	-0.652959	0.057722
C43	C	-0.855761	-0.580130	0.057814
C44	C	-0.928198	-0.551909	0.062725
C45	C	-0.924486	0.224927	0.062462
C46	C	-0.925775	0.302437	0.062536
N47	N	-0.920277	0.106424	0.278533
N48	N	-0.941088	0.088149	-0.152730
C49	C	-0.971939	0.060926	0.325727
C50	C	-0.967749	0.064620	0.412850
C51	C	-0.911899	0.113817	0.452777
C52	C	-0.860231	0.159317	0.405577
C53	C	-0.864419	0.155619	0.318456
C54	C	-0.893607	0.129951	0.712948
C55	C	-0.889425	0.133647	0.800076
C56	C	-0.996942	0.038949	0.807342
C57	C	-1.001128	0.035258	0.720219
C58	C	-0.949458	0.080756	0.673026
N59	N	-0.907616	0.117596	0.541831
N60	N	-0.953738	0.076973	0.583974
H61	H	-0.684838	0.106248	0.183611
F62	F	-1.060570	-0.017101	0.677726
H63	H	-0.325642	0.090949	-0.047749
H64	H	-1.065785	-0.129485	0.072074
F65	F	-0.809430	0.204043	0.268229
H66	H	-1.063587	-0.261605	0.071904
F67	F	-1.031387	0.008566	0.283242
F68	F	-0.167149	0.087341	-0.077383
H69	H	-0.698050	0.094634	-0.090160
F70	F	-1.051928	-0.009471	0.857573
H71	H	-0.802962	-0.231894	0.054271
H72	H	-1.058401	-0.573531	0.071531
F73	F	-0.524529	0.104227	0.191702
H74	H	-0.843943	0.173712	0.832580
H75	H	-0.548916	0.091990	-0.100232
F76	F	-0.800787	0.211673	0.448072
F77	F	-0.321808	0.103551	0.245582
H78	H	-1.009815	0.027571	0.451275
F79	F	-0.152123	0.100546	0.234116
F80	F	-0.787345	-0.088612	0.053218
F81	F	-0.838619	0.178375	0.662729
F82	F	-1.074009	-0.716806	0.072559
H83	H	-0.795573	-0.675941	0.053730
H84	H	-0.797768	-0.543817	0.053895
