data_functionalizedCrystal
_audit_creation_method	'MofGen! by Chris Wilmer'
_symmetry_space_group_name_H-M	'P1'
_symmetry_Int_Tables_number	1
_symmetry_cell_setting	triclinic
loop_
_symmetry_equiv_pos_as_xyz
  x,y,z
_cell_length_a	21.295417
_cell_length_b	12.759401
_cell_length_c	21.295411
_cell_angle_alpha	90.022412
_cell_angle_beta	89.978356
_cell_angle_gamma	89.971344
loop_
_atom_site_label
_atom_site_type_symbol
_atom_site_fract_x
_atom_site_fract_y
_atom_site_fract_z
Zn1	Zn	-0.250712	-1.606169	-0.355875
Zn2	Zn	0.249288	-1.106169	0.144125
Zn3	Zn	-0.355964	-1.606007	-0.250601
Zn4	Zn	0.144036	-1.106007	0.249399
Zn5	Zn	-0.250709	-1.430463	-0.250624
Zn6	Zn	0.249291	-0.930463	0.249376
Zn7	Zn	-0.355944	-1.430412	-0.355836
Zn8	Zn	0.144056	-0.930412	0.144164
O9	O	-0.303332	-1.518263	-0.303234
O10	O	0.196668	-1.018263	0.196766
O11	O	-0.264683	-1.753169	-0.341917
O12	O	0.235317	-1.253169	0.158083
O13	O	-0.342009	-1.582674	-0.162514
O14	O	0.157991	-1.082674	0.337486
O15	O	-0.162620	-1.453860	-0.264612
O16	O	0.337380	-0.953860	0.235388
O17	O	-0.342012	-1.753049	-0.264572
O18	O	0.157988	-1.253049	0.235428
O19	O	-0.162622	-1.582951	-0.341940
O20	O	0.337378	-1.082951	0.158060
O21	O	-0.264678	-1.453702	-0.162532
O22	O	0.235322	-0.953702	0.337468
O23	O	-0.264659	-1.283435	-0.264574
O24	O	0.235341	-0.783435	0.235426
O25	O	-0.341978	-1.453773	-0.443931
O26	O	0.158022	-0.953773	0.056069
O27	O	-0.341975	-1.283397	-0.341873
O28	O	0.158025	-0.783397	0.158127
O29	O	-0.264664	-1.582902	-0.443960
O30	O	0.235336	-1.082902	0.056040
O31	O	-0.444051	-1.582624	-0.264534
O32	O	0.055949	-1.082624	0.235466
O33	O	-0.444036	-1.453615	-0.341850
O34	O	0.055964	-0.953615	0.158150
C35	C	-0.303315	-1.245295	-0.303223
C36	C	0.196685	-0.745295	0.196777
C37	C	-0.303323	-1.128519	-0.303233
C38	C	0.196677	-0.628519	0.196767
C39	C	-0.466884	-1.518125	-0.303199
C40	C	0.033116	-1.018125	0.196801
C41	C	-0.536852	-1.518162	-0.303205
C42	C	-0.036852	-1.018162	0.196795
C43	C	-0.343644	-1.073664	-0.343415
C44	C	0.156356	-0.573664	0.156585
C45	C	-0.343650	-0.963940	-0.343421
C46	C	0.156350	-0.463940	0.156579
C47	C	-0.263011	-0.963934	-0.263056
C48	C	0.236989	-0.463934	0.236944
C49	C	-0.263002	-1.073656	-0.263054
C50	C	0.236998	-0.573656	0.236946
C51	C	-0.390202	-1.073667	-0.389811
C52	C	0.109798	-0.573667	0.110189
C53	C	-0.390208	-0.963943	-0.389816
C54	C	0.109792	-0.463943	0.110184
C55	C	-0.569705	-1.585397	-0.262988
C56	C	-0.069705	-1.085397	0.237012
C57	C	-0.635448	-1.585446	-0.263002
C58	C	-0.135448	-1.085446	0.236998
C59	C	-0.668334	-1.518242	-0.303227
C60	C	-0.168334	-1.018242	0.196773
C61	C	-0.635473	-1.451002	-0.343452
C62	C	-0.135473	-0.951002	0.156548
C63	C	-0.569732	-1.450963	-0.343441
C64	C	-0.069732	-0.950963	0.156559
N65	N	-0.771599	-1.426335	-0.308022
N66	N	-0.271599	-0.926335	0.191978
N67	N	-0.834051	-1.426376	-0.308029
N68	N	-0.334051	-0.926376	0.191971
C69	C	-0.866409	-1.518359	-0.303263
C70	C	-0.366409	-1.018359	0.196737
N71	N	-0.833957	-1.610303	-0.298478
N72	N	-0.333957	-1.110303	0.201522
N73	N	-0.771500	-1.610261	-0.298469
N74	N	-0.271500	-1.110261	0.201531
C75	C	-0.739620	-1.518278	-0.303244
C76	C	-0.239620	-1.018278	0.196756
C77	C	-0.970548	-1.585653	-0.263059
C78	C	-0.470548	-1.085653	0.236941
C79	C	-1.036292	-1.585704	-0.263078
C80	C	-0.536292	-1.085704	0.236922
C81	C	-1.036316	-1.451251	-0.343524
C82	C	-0.536316	-0.951251	0.156476
C83	C	-0.970573	-1.451210	-0.343509
C84	C	-0.470573	-0.951210	0.156491
C85	C	-0.937693	-1.518409	-0.303273
C86	C	-0.437693	-1.018409	0.196727
C87	C	-0.139142	-1.518429	-0.303283
C88	C	0.360858	-1.018429	0.196717
C89	C	-0.069174	-1.518501	-0.303304
C90	C	0.430826	-1.018501	0.196696
C91	C	-0.303319	-1.518350	-0.467424
C92	C	0.196681	-1.018350	0.032576
C93	C	-0.303313	-1.518387	-0.537393
C94	C	0.196687	-1.018387	-0.037393
C95	C	-0.303345	-0.792296	-0.303243
C96	C	0.196655	-0.292296	0.196757
C97	C	-0.303337	-0.909072	-0.303240
C98	C	0.196663	-0.409072	0.196760
C99	C	-0.263054	-1.585621	-0.570275
C100	C	0.236946	-1.085621	-0.070275
C101	C	-0.263027	-1.585620	-0.636018
C102	C	0.236973	-1.085620	-0.136018
C103	C	-0.303270	-1.518395	-0.668875
C104	C	0.196730	-1.018395	-0.168875
C105	C	-0.343532	-1.451148	-0.635985
C106	C	0.156468	-0.951148	-0.135985
C107	C	-0.343553	-1.451144	-0.570243
C108	C	0.156447	-0.951144	-0.070243
N109	N	-0.358338	-1.510289	-0.772091
N110	N	0.141662	-1.010289	-0.272091
N111	N	-0.358315	-1.510299	-0.834542
N112	N	0.141685	-1.010299	-0.334542
C113	C	-0.303206	-1.518402	-0.866950
C114	C	0.196794	-1.018402	-0.366950
N115	N	-0.248119	-1.526514	-0.834547
N116	N	0.251881	-1.026514	-0.334547
N117	N	-0.248142	-1.526510	-0.772090
N118	N	0.251858	-1.026510	-0.272090
C119	C	-0.303251	-1.518392	-0.740161
C120	C	0.196749	-1.018392	-0.240161
C121	C	-0.262914	-1.585638	-0.971118
C122	C	0.237086	-1.085638	-0.471118
C123	C	-0.262886	-1.585629	-1.036862
C124	C	0.237114	-1.085629	-0.536862
C125	C	-0.343396	-1.451163	-1.036828
C126	C	0.156604	-0.951163	-0.536828
C127	C	-0.343419	-1.451166	-0.971085
C128	C	0.156581	-0.951166	-0.471085
C129	C	-0.303179	-1.518409	-0.938234
C130	C	0.196821	-1.018409	-0.438234
C131	C	-0.303300	-1.518236	-0.139683
C132	C	0.196700	-1.018236	0.360317
C133	C	-0.303128	-1.518403	-0.069715
C134	C	0.196872	-1.018403	0.430285
H135	H	-0.230165	-1.118314	-0.230338
H136	H	0.269835	-0.618314	0.269662
H137	H	-0.943776	-1.640375	-0.230298
H138	H	-0.443776	-1.140375	0.269702
Cl139	Cl	-0.465445	-0.917896	-0.369496
Cl140	Cl	0.034555	-0.417896	0.130504
H141	H	-0.542936	-1.640117	-0.230227
H142	H	-0.042936	-1.140117	0.269773
H143	H	-0.662202	-1.640200	-0.230253
H144	H	-0.162202	-1.140200	0.269747
Cl145	Cl	-0.929270	-1.366676	-0.394068
Cl146	Cl	-0.429270	-0.866676	0.105932
H147	H	-0.542982	-1.396211	-0.376192
H148	H	-0.042982	-0.896211	0.123808
Cl149	Cl	-0.461679	-1.126156	-0.362773
Cl150	Cl	0.038321	-0.626156	0.137227
H151	H	-0.662254	-1.396286	-0.376205
H152	H	-0.162254	-0.896286	0.123795
Cl153	Cl	-1.077594	-1.670244	-0.212519
Cl154	Cl	-0.577594	-1.170244	0.287481
H155	H	-0.376336	-1.396389	-0.543471
H156	H	0.123664	-0.896389	-0.043471
Cl157	Cl	-0.370154	-1.119713	-0.465118
Cl158	Cl	0.129846	-0.619713	0.034882
Cl159	Cl	-1.077653	-1.366772	-0.394098
Cl160	Cl	-0.577653	-0.866772	0.105902
H161	H	-0.230183	-0.919252	-0.230345
H162	H	0.269817	-0.419252	0.269655
Cl163	Cl	-0.394120	-1.366633	-0.677290
Cl164	Cl	0.105880	-0.866633	-0.177290
H165	H	-0.372819	-0.929957	-0.436165
H166	H	0.127181	-0.429957	0.063835
Cl167	Cl	-0.212399	-1.670128	-0.677365
Cl168	Cl	0.287601	-1.170128	-0.177365
Cl169	Cl	-0.212463	-1.670149	-0.528980
Cl170	Cl	0.287537	-1.170149	-0.028980
H171	H	-0.230145	-1.640386	-0.944370
H172	H	0.269855	-1.140386	-0.444370
H173	H	-0.230099	-1.640378	-1.063634
H174	H	0.269901	-1.140378	-0.563634
H175	H	-0.376156	-1.396416	-1.063580
H176	H	0.123844	-0.896416	-0.563580
H177	H	-0.376206	-1.396423	-0.944312
H178	H	0.123794	-0.896423	-0.444312
