data_functionalizedCrystal
_audit_creation_method	'MofGen! by Chris Wilmer'
_symmetry_space_group_name_H-M	'P1'
_symmetry_Int_Tables_number	1
_symmetry_cell_setting	triclinic
loop_
_symmetry_equiv_pos_as_xyz
  x,y,z
_cell_length_a	17.077404
_cell_length_b	18.215405
_cell_length_c	18.215399
_cell_angle_alpha	89.969449
_cell_angle_beta	89.980408
_cell_angle_gamma	90.025110
loop_
_atom_site_label
_atom_site_type_symbol
_atom_site_fract_x
_atom_site_fract_y
_atom_site_fract_z
Zn1	Zn	1.200044	-0.292987	-0.416098
Zn2	Zn	1.199947	-0.416059	-0.293026
Zn3	Zn	1.068776	-0.293011	-0.293046
Zn4	Zn	1.068740	-0.416017	-0.416051
O5	O	1.134377	-0.354519	-0.354555
O6	O	1.309878	-0.309321	-0.399783
O7	O	1.182521	-0.399763	-0.190044
O8	O	1.086245	-0.190024	-0.309397
O9	O	1.309807	-0.399740	-0.309363
O10	O	1.182688	-0.190006	-0.399802
O11	O	1.086150	-0.309361	-0.190059
O12	O	0.958924	-0.309321	-0.309352
O13	O	1.086183	-0.399670	-0.519042
O14	O	0.958898	-0.399693	-0.399723
O15	O	1.182652	-0.309280	-0.519076
O16	O	1.182486	-0.519037	-0.309318
O17	O	1.086088	-0.519007	-0.399704
C18	C	0.930429	-0.354505	-0.354535
C19	C	0.843179	-0.354517	-0.354544
C20	C	0.802196	-0.401645	-0.401525
C21	C	0.720215	-0.401647	-0.401537
C22	C	0.679220	-0.354524	-0.354563
C23	C	0.720209	-0.307391	-0.307580
C24	C	0.802188	-0.307386	-0.307572
C25	C	0.549339	-0.307405	-0.307598
C26	C	0.467354	-0.307411	-0.307604
C27	C	0.467366	-0.401666	-0.401562
C28	C	0.549345	-0.401661	-0.401554
C29	C	0.590329	-0.354529	-0.354570
C30	C	1.134294	-0.545725	-0.354520
C31	C	1.134330	-0.627524	-0.354529
C32	C	1.184642	-0.815709	-0.307552
C33	C	1.184677	-0.892568	-0.307570
C34	C	1.084212	-0.892576	-0.401612
C35	C	1.084181	-0.815719	-0.401597
C36	C	1.134395	-0.777287	-0.354563
C37	C	1.134461	-0.931003	-0.354595
C38	C	1.134499	-1.014337	-0.354615
C39	C	1.134359	-0.693948	-0.354544
C40	C	1.339121	-0.354533	-0.354576
C41	C	1.426371	-0.354538	-0.354585
C42	C	1.134425	-0.354468	-0.546508
C43	C	1.134445	-0.354446	-0.628307
C44	C	1.134481	-0.162566	-0.354607
C45	C	1.134526	-0.080767	-0.354629
C46	C	1.184694	-0.307336	-0.816520
C47	C	1.184704	-0.307315	-0.893379
C48	C	1.084251	-0.401442	-0.893332
C49	C	1.084238	-0.401459	-0.816475
C50	C	1.134464	-0.354408	-0.778071
C51	C	1.134486	-0.354369	-0.931787
C52	C	1.134496	-0.354346	-1.015121
C53	C	1.134454	-0.354429	-0.694732
C54	C	1.134374	-0.354516	-0.163349
C55	C	1.134506	-0.354330	-0.081551
H56	H	0.835568	-0.440021	-0.439774
H57	H	1.225590	-0.269022	-0.785254
O58	O	0.680525	-0.447505	-0.447189
C59	C	0.734288	-0.489089	-0.488652
H60	H	0.792711	-0.491585	-0.458500
H61	H	0.743040	-0.462224	-0.544600
C62	C	0.630515	-0.564370	-0.536134
C63	C	0.702270	-0.567440	-0.499097
H64	H	0.610764	-0.612699	-0.542581
H65	H	0.594293	-0.536352	-0.508202
H66	H	0.637819	-0.541978	-0.582753
H67	H	0.694964	-0.589822	-0.452476
H68	H	0.738490	-0.595463	-0.527022
O69	O	0.842035	-0.261530	-0.262037
C70	C	0.889508	-0.214059	-0.304017
H71	H	0.864833	-0.209590	-0.361989
H72	H	0.951631	-0.236811	-0.306504
C73	C	0.921085	-0.142997	-0.196999
C74	C	0.890774	-0.137503	-0.268201
H75	H	0.921869	-0.095774	-0.174905
H76	H	0.889104	-0.174980	-0.168716
H77	H	0.972851	-0.161960	-0.199081
H78	H	0.839005	-0.118549	-0.266117
H79	H	0.922746	-0.105515	-0.296483
O80	O	1.035406	-0.778472	-0.447368
C81	C	1.052534	-0.797171	-0.520736
H82	H	1.082727	-0.852953	-0.522300
H83	H	1.092861	-0.753868	-0.545550
C84	C	0.938897	-0.732232	-0.563327
C85	C	0.975975	-0.800746	-0.565248
H86	H	0.891674	-0.734433	-0.590785
H87	H	0.927359	-0.719630	-0.513898
H88	H	0.972512	-0.696153	-0.584003
H89	H	0.942365	-0.836821	-0.544564
H90	H	0.987506	-0.813353	-0.614675
O91	O	0.427680	-0.447521	-0.447226
C92	C	0.481443	-0.489103	-0.488692
H93	H	0.539865	-0.491604	-0.458537
H94	H	0.490199	-0.462233	-0.544637
C95	C	0.377669	-0.564375	-0.536185
C96	C	0.449422	-0.567451	-0.499146
H97	H	0.357916	-0.612702	-0.542637
H98	H	0.341447	-0.536358	-0.508252
H99	H	0.384976	-0.541979	-0.582802
H100	H	0.442113	-0.589838	-0.452527
H101	H	0.485642	-0.595473	-0.527072
H102	H	1.225531	-0.784420	-0.269255
H103	H	1.225605	-0.268984	-0.924681
O104	O	0.427651	-0.261563	-0.261955
C105	C	0.481401	-0.219970	-0.220476
H106	H	0.539855	-0.217456	-0.250616
H107	H	0.490082	-0.246840	-0.164530
C108	C	0.377632	-0.144721	-0.173006
C109	C	0.449424	-0.141629	-0.210028
H110	H	0.357906	-0.096398	-0.166558
H111	H	0.341418	-0.172745	-0.200949
H112	H	0.384876	-0.167116	-0.126388
H113	H	0.442177	-0.119243	-0.256648
H114	H	0.485635	-0.113600	-0.182092
O115	O	0.589240	-0.261726	-0.261920
C116	C	0.636605	-0.303569	-0.214299
H117	H	0.648871	-0.359372	-0.240156
H118	H	0.604982	-0.311588	-0.159750
C119	C	0.699424	-0.194523	-0.169281
C120	C	0.714495	-0.263059	-0.201042
H121	H	0.747469	-0.169535	-0.161101
H122	H	0.667512	-0.166333	-0.201362
H123	H	0.673070	-0.201216	-0.123827
H124	H	0.740839	-0.256366	-0.246500
H125	H	0.746413	-0.291248	-0.168968
H126	H	1.043360	-0.439752	-0.924610
H127	H	1.043329	-0.439790	-0.785168
H128	H	0.582721	-0.440037	-0.439800
O129	O	1.233615	-0.929787	-0.261939
C130	C	1.311818	-0.910913	-0.278123
H131	H	1.313365	-0.855095	-0.306419
H132	H	1.338266	-0.954119	-0.315985
C133	C	1.357528	-0.975891	-0.171677
C134	C	1.359429	-0.907331	-0.206426
H135	H	1.386898	-0.973685	-0.127452
H136	H	1.304842	-0.988610	-0.160775
H137	H	1.379566	-1.011889	-0.203237
H138	H	1.337382	-0.871337	-0.174870
H139	H	1.412113	-0.894607	-0.217321
O140	O	0.680426	-0.261508	-0.262028
C141	C	0.700510	-0.188181	-0.278233
H142	H	0.723072	-0.184541	-0.337031
H143	H	0.748088	-0.168891	-0.238810
C144	C	0.599993	-0.143529	-0.197545
C145	C	0.627697	-0.139057	-0.269764
H146	H	0.555080	-0.113225	-0.192318
H147	H	0.586463	-0.192930	-0.186625
H148	H	0.639647	-0.127455	-0.164701
H149	H	0.588046	-0.155139	-0.302605
H150	H	0.641219	-0.089656	-0.280689
O151	O	1.035456	-0.930024	-0.447224
C152	C	1.046268	-1.006099	-0.437168
H153	H	1.072020	-1.016618	-0.380400
H154	H	1.088048	-1.027849	-0.480863
C155	C	0.935225	-1.032694	-0.513569
C156	C	0.966848	-1.045613	-0.443842
H157	H	0.886237	-1.057069	-0.517689
H158	H	0.927943	-0.981440	-0.520346
H159	H	0.970049	-1.050818	-0.549974
H160	H	0.932029	-1.027480	-0.407440
H161	H	0.974124	-1.096865	-0.437059
