data_functionalizedCrystal
_audit_creation_method	'MofGen! by Chris Wilmer'
_symmetry_space_group_name_H-M	'P1'
_symmetry_Int_Tables_number	1
_symmetry_cell_setting	triclinic
loop_
_symmetry_equiv_pos_as_xyz
  x,y,z
_cell_length_a	9.065215
_cell_length_b	13.596369
_cell_length_c	9.065218
_cell_angle_alpha	90.004126
_cell_angle_beta	94.984675
_cell_angle_gamma	89.995444
loop_
_atom_site_label
_atom_site_type_symbol
_atom_site_fract_x
_atom_site_fract_y
_atom_site_fract_z
O1	O	-1.960405	0.081771	0.216340
O2	O	-1.627072	0.415104	0.549673
O3	O	-1.293739	0.748437	0.883007
O4	O	-1.531120	0.081776	0.234091
O5	O	-1.197787	0.415109	0.567424
O6	O	-0.864453	0.748443	0.900757
O7	O	-1.754636	0.081771	0.010573
O8	O	-1.421303	0.415105	0.343906
O9	O	-1.087969	0.748438	0.677240
O10	O	-1.736889	0.081775	0.439858
O11	O	-1.403556	0.415109	0.773191
O12	O	-1.070223	0.748442	1.106525
O13	O	-1.754613	-0.081812	0.010561
O14	O	-1.421280	0.251522	0.343894
O15	O	-1.087947	0.584855	0.677227
O16	O	-1.531097	-0.081807	0.234079
O17	O	-1.197764	0.251526	0.567412
O18	O	-0.864431	0.584860	0.900745
O19	O	-1.960383	-0.081812	0.216328
O20	O	-1.627049	0.251521	0.549661
O21	O	-1.293716	0.584855	0.882994
Zn22	Zn	-1.745736	-0.107782	0.225201
Zn23	Zn	-1.412403	0.225551	0.558535
Zn24	Zn	-1.079070	0.558885	0.891868
Zn25	Zn	-1.745766	0.107746	0.225217
Zn26	Zn	-1.412433	0.441079	0.558551
Zn27	Zn	-1.079100	0.774412	0.891884
O28	O	-1.736867	-0.081807	0.439846
O29	O	-1.403533	0.251526	0.773179
O30	O	-1.070200	0.584859	1.106512
C31	C	-1.476122	-0.000015	0.232380
C32	C	-1.142789	0.333319	0.565713
C33	C	-0.809455	0.666652	0.899046
C34	C	-1.312279	-0.000013	0.227282
C35	C	-0.978946	0.333321	0.560615
C36	C	-0.645612	0.666654	0.893948
N37	N	-1.745727	-0.254874	0.225189
N38	N	-1.412393	0.078460	0.558523
N39	N	-1.079060	0.411793	0.891856
C40	C	-1.745764	-0.656165	0.225219
C41	C	-1.412431	-0.322831	0.558552
C42	C	-1.079098	0.010502	0.891886
C43	C	-1.745750	-0.544513	0.225216
C44	C	-1.412416	-0.211180	0.558549
C45	C	-1.079083	0.122153	0.891882
C46	C	-1.745746	-0.455523	0.225205
C47	C	-1.412413	-0.122189	0.558539
C48	C	-1.079080	0.211144	0.891872
C49	C	-1.745730	-0.343864	0.225200
C50	C	-1.412397	-0.010531	0.558533
C51	C	-1.079063	0.322802	0.891866
C52	C	-1.015381	-0.000019	0.218039
C53	C	-0.682047	0.333315	0.551372
C54	C	-0.348714	0.666648	0.884705
C55	C	-1.179224	-0.000012	0.223136
C56	C	-0.845890	0.333321	0.556470
C57	C	-0.512557	0.666654	0.889803
C58	C	-1.752919	-0.000019	-0.044420
C59	C	-1.419586	0.333315	0.288914
C60	C	-1.086252	0.666648	0.622247
C61	C	-1.747819	-0.000014	-0.208263
C62	C	-1.414486	0.333320	0.125071
C63	C	-1.081153	0.666653	0.458404
N64	N	-1.745787	0.254838	0.225218
N65	N	-1.412454	0.588171	0.558551
N66	N	-1.079121	0.921504	0.891884
C67	C	-1.738584	-0.000015	0.494838
C68	C	-1.405250	0.333318	0.828172
C69	C	-1.071917	0.666651	1.161505
C70	C	-1.743683	-0.000014	0.658681
C71	C	-1.410350	0.333320	0.992015
C72	C	-1.077017	0.666653	1.325348
