data_functionalizedCrystal
_audit_creation_method	'MofGen! by Chris Wilmer'
_symmetry_space_group_name_H-M	'P1'
_symmetry_Int_Tables_number	1
_symmetry_cell_setting	triclinic
loop_
_symmetry_equiv_pos_as_xyz
  x,y,z
_cell_length_a	9.065215
_cell_length_b	15.995292
_cell_length_c	7.540329
_cell_angle_alpha	89.999602
_cell_angle_beta	89.997574
_cell_angle_gamma	84.241657
loop_
_atom_site_label
_atom_site_type_symbol
_atom_site_fract_x
_atom_site_fract_y
_atom_site_fract_z
O1	O	1.957465	0.122762	-0.147448
O2	O	1.527939	0.132835	-0.147454
O3	O	1.754488	0.005997	-0.147454
O4	O	1.730916	0.249600	-0.147448
O5	O	1.754475	0.005995	0.147512
O6	O	1.527925	0.132833	0.147511
O7	O	1.957452	0.122760	0.147517
Cu8	Cu	1.742687	0.127796	0.174447
Cu9	Cu	1.742703	0.127798	-0.174384
O10	O	1.730902	0.249598	0.147517
C11	C	1.472969	0.131866	0.000027
C12	C	1.309195	0.128973	0.000024
C13	C	1.753522	-0.025207	0.000025
C14	C	1.750646	-0.118182	0.000011
C15	C	1.740072	-0.456001	0.000027
C16	C	1.903589	-0.431449	0.000689
C17	C	1.906697	-0.334750	0.000018
C18	C	1.745319	-0.288405	0.000020
C19	C	1.663576	-0.318124	-0.168415
C20	C	1.661607	-0.414930	-0.168550
C21	C	1.658253	-0.414814	0.166881
C22	C	1.664312	-0.318276	0.169101
C23	C	1.748275	-0.193686	0.000010
C24	C	1.737110	-0.550719	0.000025
C25	C	2.012422	0.123728	0.000032
C26	C	2.176196	0.126621	0.000024
C27	C	1.731869	0.280802	0.000035
C28	C	1.734745	0.373777	0.000036
N29	N	1.742687	0.127795	0.419795
N30	N	1.742715	0.127794	-0.419732
H31	H	1.966611	-0.458969	0.121481
H32	H	1.966271	-0.459991	-0.119424
O33	O	1.498827	-0.434563	0.168398
H34	H	1.424418	-0.375100	0.164059
O35	O	1.726095	-0.451718	0.336002
H36	H	1.818897	-0.499833	0.303013
H37	H	1.970716	-0.315240	0.120756
O38	O	1.992006	-0.309711	-0.160193
H39	H	1.918685	-0.266425	-0.244395
H40	H	1.718230	-0.441316	-0.294460
H41	H	1.723834	-0.299260	0.293708
H42	H	1.541715	-0.430389	-0.176179
H43	H	1.546522	-0.286199	0.179275
O44	O	1.506276	-0.277103	-0.176742
H45	H	1.484642	-0.234994	-0.060643
H46	H	1.720351	-0.297633	-0.293765
