data_functionalizedCrystal
_audit_creation_method	'MofGen! by Chris Wilmer'
_symmetry_space_group_name_H-M	'P1'
_symmetry_Int_Tables_number	1
_symmetry_cell_setting	triclinic
loop_
_symmetry_equiv_pos_as_xyz
  x,y,z
_cell_length_a	13.339070
_cell_length_b	9.730223
_cell_length_c	10.654550
_cell_angle_alpha	90.001479
_cell_angle_beta	79.942888
_cell_angle_gamma	89.996398
loop_
_atom_site_label
_atom_site_type_symbol
_atom_site_fract_x
_atom_site_fract_y
_atom_site_fract_z
O1	O	1.346709	-0.114305	-0.631121
O2	O	1.051601	-0.114301	-0.548282
O3	O	1.205940	-0.114304	-0.409253
O4	O	1.192370	-0.114302	-0.770150
O5	O	1.205930	0.114276	-0.409245
O6	O	1.051591	0.114278	-0.548274
O7	O	1.346699	0.114275	-0.631112
Zn8	Zn	1.199143	0.150569	-0.589691
Zn9	Zn	1.199156	-0.150595	-0.589703
O10	O	1.192360	0.114278	-0.770141
C11	C	1.013808	-0.000011	-0.534285
C12	C	0.901214	-0.000010	-0.492575
C13	C	1.204938	-0.000018	-0.362115
C14	C	1.201957	-0.000027	-0.221665
N15	N	1.199142	0.356105	-0.589686
C16	C	0.538696	-0.000030	-0.816889
C17	C	0.644484	-0.000035	-0.856082
C18	C	0.708672	-0.000028	-0.765208
C19	C	0.667061	-0.000017	-0.635136
C20	C	0.561263	-0.000023	-0.595939
C21	C	0.731238	-0.000021	-0.544259
C22	C	0.689628	-0.000010	-0.414186
C23	C	0.583840	-0.000015	-0.374996
C24	C	0.519653	-0.000022	-0.465870
C25	C	0.837036	-0.000016	-0.583455
C26	C	0.859603	-0.000009	-0.362505
C27	C	0.753816	-0.000004	-0.323313
C28	C	1.384491	-0.000019	-0.645110
C29	C	1.497086	-0.000029	-0.686819
N30	N	1.199166	-0.356132	-0.589702
C31	C	1.267507	0.428030	-0.528167
C32	C	1.267517	0.571913	-0.528171
C33	C	1.130794	0.571934	-0.651221
C34	C	1.130779	0.428053	-0.651209
C35	C	1.193361	-0.000012	-0.817280
C36	C	1.196342	-0.000012	-0.957730
C37	C	1.197751	-0.124616	-0.023707
C38	C	1.200562	-0.124624	-0.155676
C39	C	1.200552	0.124586	-0.155679
C40	C	1.197748	0.124593	-0.023713
H41	H	0.794808	-0.000036	-0.797127
H42	H	1.201695	0.226035	-0.209419
C43	C	1.341796	0.650178	-0.461601
C44	C	1.404325	0.732788	-0.550336
C45	C	1.472755	0.804918	-0.489050
H46	H	1.382603	0.586876	-0.424958
H47	H	1.304986	0.706397	-0.396486
H48	H	1.441131	0.676573	-0.615428
H49	H	1.363546	0.796116	-0.586984
H50	H	1.435946	0.861137	-0.423935
H51	H	1.513555	0.741606	-0.452410
H52	H	1.515183	0.860986	-0.549245
H53	H	1.075136	0.630528	-0.701315
C54	C	1.056506	0.350201	-0.718131
C55	C	0.996665	0.444002	-0.772051
C56	C	0.928244	0.372335	-0.833716
H57	H	1.013880	0.294086	-0.658210
H58	H	1.093319	0.294085	-0.783328
H59	H	0.959854	0.500094	-0.706862
H60	H	1.039263	0.500120	-0.831990
H61	H	0.965057	0.316219	-0.898913
H62	H	0.885625	0.316222	-0.773787
H63	H	0.887640	0.435967	-0.870318
H64	H	1.196604	0.226067	0.030006
C65	C	1.196266	-0.260040	0.047699
C66	C	1.198118	-0.369163	-0.038337
C67	C	1.196756	-0.493939	0.027391
H68	H	1.136148	-0.265395	0.110162
H69	H	1.254221	-0.265313	0.088170
H70	H	1.140168	-0.363893	-0.078787
H71	H	1.258231	-0.363854	-0.100801
H72	H	1.254711	-0.499212	0.067861
H73	H	1.136638	-0.499280	0.089851
H74	H	1.198022	-0.567994	-0.030976
C75	C	0.538519	0.000194	-0.233819
C76	C	0.478409	0.117769	-0.204866
C77	C	0.436633	0.117997	-0.074831
H78	H	0.591786	0.000269	-0.185161
H79	H	0.497669	-0.079480	-0.213914
H80	H	0.519257	0.197423	-0.224757
H81	H	0.425126	0.117719	-0.253491
H82	H	0.395783	0.038322	-0.054926
H83	H	0.489907	0.118068	-0.026184
H84	H	0.395837	0.197763	-0.055172
H85	H	0.870905	-0.000019	-0.689361
H86	H	0.678355	-0.000055	-0.961987
C87	C	0.468887	-0.000256	-0.915400
C88	C	0.407487	-0.117844	-0.899325
C89	C	0.343155	-0.118092	-0.990045
H90	H	0.508687	-0.000327	-0.998540
H91	H	0.427079	0.079410	-0.904685
H92	H	0.449290	-0.197488	-0.910050
H93	H	0.367666	-0.117798	-0.816203
H94	H	0.301348	-0.038426	-0.979331
H95	H	0.382963	-0.118159	-1.073180
H96	H	0.301481	-0.197867	-0.979143
C97	C	1.201867	-0.259834	-0.227388
C98	C	1.116372	-0.267055	-0.286913
C99	C	1.117519	-0.391598	-0.352975
H100	H	1.200559	-0.334123	-0.169286
H101	H	1.261947	-0.265117	-0.289947
H102	H	1.056307	-0.261786	-0.224361
H103	H	1.117662	-0.192795	-0.345035
H104	H	1.177599	-0.396881	-0.415535
H105	H	1.116214	-0.465877	-0.294864
H106	H	1.059518	-0.396509	-0.393380
H107	H	0.719921	-0.000006	-0.217405
H108	H	0.911865	-0.000009	-0.288508
C109	C	1.341600	0.350022	-0.461088
C110	C	1.324249	0.385057	-0.331645
C111	C	1.392474	0.313232	-0.269790
H112	H	1.409418	0.373535	-0.498227
H113	H	1.331816	0.254010	-0.469779
H114	H	1.334042	0.481048	-0.322962
H115	H	1.256444	0.361541	-0.294470
H116	H	1.382690	0.217219	-0.278481
H117	H	1.460288	0.336750	-0.306939
H118	H	1.380705	0.336983	-0.181954
H119	H	0.433510	-0.000017	-0.433965
