data_functionalizedCrystal
_audit_creation_method	'MofGen! by Chris Wilmer'
_symmetry_space_group_name_H-M	'P1'
_symmetry_Int_Tables_number	1
_symmetry_cell_setting	triclinic
loop_
_symmetry_equiv_pos_as_xyz
  x,y,z
_cell_length_a	17.699083
_cell_length_b	10.489741
_cell_length_c	16.176319
_cell_angle_alpha	89.993511
_cell_angle_beta	89.998611
_cell_angle_gamma	83.911094
loop_
_atom_site_label
_atom_site_type_symbol
_atom_site_fract_x
_atom_site_fract_y
_atom_site_fract_z
O1	O	1.005134	0.161296	-0.068630
O2	O	0.784893	0.182281	-0.068657
O3	O	0.900025	-0.013903	-0.068638
O4	O	0.890002	0.357479	-0.068649
O5	O	0.900009	-0.013915	0.068855
O6	O	0.784877	0.182268	0.068836
O7	O	1.005118	0.161283	0.068863
Cu8	Cu	0.894996	0.171775	0.081404
Cu9	Cu	0.895015	0.171789	-0.081198
O10	O	0.889986	0.357467	0.068844
C11	C	0.756683	0.181523	0.000086
C12	C	0.672650	0.179267	0.000076
C13	C	0.899260	-0.061427	0.000108
C14	C	0.896995	-0.203014	0.000106
C15	C	0.624782	0.294422	0.000073
C16	C	0.545825	0.292295	0.000083
C17	C	0.514737	0.175011	0.000091
C18	C	0.562611	0.059847	0.000097
C19	C	0.641567	0.061975	0.000092
C20	C	0.244192	0.051260	0.000118
C21	C	0.165230	0.049140	0.000120
C22	C	0.148450	0.281580	0.000109
C23	C	0.227406	0.283709	0.000104
C24	C	0.275273	0.168545	0.000114
C25	C	0.360887	0.170853	0.000104
C26	C	0.429124	0.172702	0.000096
C27	C	0.823740	-0.269793	0.000091
C28	C	0.858337	-0.362565	0.067887
C29	C	0.858370	-0.362527	-0.067671
C30	C	0.931622	-0.293921	0.067958
C31	C	0.931645	-0.293874	-0.067661
C32	C	0.966296	-0.386619	0.000151
C33	C	1.033328	0.162042	0.000118
C34	C	1.117361	0.164297	0.000123
C35	C	0.890751	0.404991	0.000096
C36	C	0.893016	0.546578	0.000093
N37	N	0.894988	0.171764	0.195769
N38	N	0.895029	0.171790	-0.195563
C39	C	0.945984	0.084929	0.239042
C40	C	0.945988	0.084928	0.325589
C41	C	0.894999	0.171768	0.368862
C42	C	0.843997	0.258607	0.325583
C43	C	0.843990	0.258601	0.239037
C44	C	0.844023	0.258631	0.674611
C45	C	0.844036	0.258632	0.761163
C46	C	0.946021	0.084957	0.761162
C47	C	0.946014	0.084951	0.674617
C48	C	0.895010	0.171785	0.631346
C49	C	0.895006	0.171784	0.537502
C50	C	0.895006	0.171776	0.462704
H51	H	0.650088	0.389929	0.000065
H52	H	0.139922	-0.046372	0.000128
H53	H	0.283156	-0.042514	0.000127
H54	H	0.987509	0.014219	0.203815
O55	O	1.001004	-0.008706	0.372265
H56	H	1.036470	-0.069073	0.327635
O57	O	0.817304	-0.402793	-0.143590
H58	H	0.816462	-0.508444	-0.143197
O59	O	0.972680	-0.253573	-0.143593
H60	H	1.031496	-0.302285	-0.144090
O61	O	1.001005	-0.008717	0.627942
H62	H	1.036461	-0.069111	0.672573
H63	H	0.802495	0.329336	0.639387
O64	O	1.001034	-0.008712	0.807829
H65	H	0.968849	-0.070653	0.847263
O66	O	0.789049	0.352318	0.807841
H67	H	0.753582	0.412700	0.763213
O68	O	0.529086	-0.066658	0.000109
H69	H	0.466141	-0.048795	0.000104
H70	H	0.802477	0.329310	0.360821
O71	O	1.046159	-0.453529	0.000141
H72	H	1.043951	-0.558877	-0.000424
O73	O	0.743967	-0.202511	0.000172
H74	H	0.713296	-0.231154	-0.055545
O75	O	0.693201	-0.062227	0.000093
H76	H	0.658321	-0.144140	0.000092
O77	O	0.788991	0.352263	0.192358
H78	H	0.753541	0.412660	0.236986
H79	H	0.827334	-0.393005	0.125195
H80	H	0.962584	-0.263669	0.125338
O81	O	0.494196	0.416499	0.000083
H82	H	0.505316	0.472636	-0.055965
O83	O	0.260939	0.410206	0.000108
H84	H	0.214388	0.489926	0.000119
H85	H	0.109467	0.375352	0.000105
