data_functionalizedCrystal
_audit_creation_method	'MofGen! by Chris Wilmer'
_symmetry_space_group_name_H-M	'P1'
_symmetry_Int_Tables_number	1
_symmetry_cell_setting	triclinic
loop_
_symmetry_equiv_pos_as_xyz
  x,y,z
_cell_length_a	19.188930
_cell_length_b	18.266242
_cell_length_c	9.065218
_cell_angle_alpha	90.000210
_cell_angle_beta	95.919667
_cell_angle_gamma	90.020224
loop_
_atom_site_label
_atom_site_type_symbol
_atom_site_fract_x
_atom_site_fract_y
_atom_site_fract_z
O1	O	0.927578	0.061114	-0.184169
O2	O	0.724459	0.061063	-0.208962
O3	O	0.830217	0.061088	0.018222
O4	O	0.821820	0.061089	-0.411354
O5	O	0.830203	-0.060674	0.018215
O6	O	0.724446	-0.060699	-0.208970
O7	O	0.927564	-0.060648	-0.184176
Zn8	Zn	0.826003	-0.080006	-0.196574
Zn9	Zn	0.826021	0.080421	-0.196565
O10	O	0.821806	-0.060673	-0.411361
C11	C	0.698435	0.000176	-0.208163
C12	C	0.620912	0.000157	-0.205753
N13	N	0.825995	-0.189493	-0.196580
C14	C	0.868941	-0.771758	-0.285787
C15	C	0.868934	-0.695113	-0.285802
C16	C	0.826027	-0.656805	-0.196549
C17	C	0.783111	-0.695149	-0.107304
C18	C	0.783114	-0.771792	-0.107303
N19	N	0.823332	-0.536469	-0.067324
N20	N	0.823333	-0.463661	-0.067329
C21	C	0.826014	-0.425883	-0.196550
N22	N	0.828707	-0.463664	-0.325767
N23	N	0.828710	-0.536479	-0.325760
C24	C	0.826018	-0.573698	-0.196541
C25	C	0.868916	-0.304441	-0.285813
C26	C	0.868903	-0.227795	-0.285831
C27	C	0.783085	-0.227832	-0.107320
C28	C	0.783093	-0.304477	-0.107316
C29	C	0.826012	-0.342777	-0.196560
C30	C	0.577024	0.000168	-0.339058
C31	C	0.504182	0.000176	-0.336793
C32	C	0.475232	0.000187	-0.201217
C33	C	0.519130	0.000172	-0.067895
C34	C	0.591970	0.000156	-0.070163
N35	N	0.366452	0.041658	-0.097583
N36	N	0.297256	0.041674	-0.095438
C37	C	0.255771	0.000232	-0.194375
N38	N	0.286093	-0.041217	-0.295561
N39	N	0.355294	-0.041230	-0.297711
C40	C	0.396251	0.000204	-0.198742
C41	C	0.132899	0.000252	-0.325234
C42	C	0.060056	0.000255	-0.322964
C43	C	0.075006	0.000258	-0.054061
C44	C	0.147847	0.000247	-0.056335
C45	C	0.176789	0.000247	-0.191925
C46	C	0.953588	0.000241	-0.184976
C47	C	1.031112	0.000265	-0.187386
C48	C	0.829403	0.000208	0.073177
C49	C	0.826990	0.000211	0.236936
N50	N	0.826033	0.189908	-0.196547
C51	C	0.822620	0.000209	-0.466316
C52	C	0.825033	0.000211	-0.630075
H53	H	0.903873	-0.663895	-0.358478
O54	O	0.608235	0.000163	-0.485301
H55	H	0.666260	0.000156	-0.464489
H56	H	0.748145	-0.196643	-0.034658
O57	O	0.915204	-0.345749	-0.382077
H58	H	0.952288	-0.380641	-0.311144
O59	O	0.915225	-0.813063	-0.382057
H60	H	0.952305	-0.847962	-0.311134
H61	H	0.627705	0.000147	0.038393
O62	O	0.736841	-0.813153	-0.011044
H63	H	0.769821	-0.848058	0.068404
H64	H	0.183582	0.000241	0.052216
O65	O	0.164120	0.000235	-0.471470
H66	H	0.146576	0.049860	-0.535517
H67	H	0.748156	-0.335689	-0.034640
O68	O	0.456831	0.000197	-0.480575
H69	H	0.489194	0.000200	-0.575238
O70	O	0.487913	0.000184	0.078340
H71	H	0.429889	0.000203	0.057523
O72	O	0.915180	-0.186443	-0.382095
H73	H	0.945026	-0.225955	-0.444139
O74	O	0.012717	0.000260	-0.466753
H75	H	-0.020809	0.049889	-0.472140
O76	O	0.736866	-0.653838	-0.010963
H77	H	0.744089	-0.594102	-0.025917
O78	O	0.043794	0.000270	0.092175
H79	H	-0.014230	0.000286	0.071360
