data_functionalizedCrystal
_audit_creation_method	'MofGen! by Chris Wilmer'
_symmetry_space_group_name_H-M	'P1'
_symmetry_Int_Tables_number	1
_symmetry_cell_setting	triclinic
loop_
_symmetry_equiv_pos_as_xyz
  x,y,z
_cell_length_a	19.288864
_cell_length_b	10.723024
_cell_length_c	18.366186
_cell_angle_alpha	89.994974
_cell_angle_beta	89.977106
_cell_angle_gamma	83.802058
loop_
_atom_site_label
_atom_site_type_symbol
_atom_site_fract_x
_atom_site_fract_y
_atom_site_fract_z
O1	O	0.922366	0.155659	-0.060782
O2	O	0.720242	0.176657	-0.060732
O3	O	0.825966	-0.015516	-0.060755
O4	O	0.816641	0.347832	-0.060758
O5	O	0.825948	-0.015526	0.060344
O6	O	0.720223	0.176647	0.060368
O7	O	0.922347	0.155649	0.060318
Zn8	Zn	0.821282	0.166147	0.079570
Zn9	Zn	0.821306	0.166159	-0.079984
O10	O	0.816623	0.347822	0.060341
C11	C	0.694352	0.175976	-0.000176
C12	C	0.617235	0.173948	-0.000156
C13	C	0.573272	0.286707	-0.000169
C14	C	0.500813	0.284801	-0.000177
C15	C	0.472319	0.170131	-0.000187
C16	C	0.516291	0.057358	-0.000171
C17	C	0.588749	0.059266	-0.000155
C18	C	0.363477	0.079991	-0.042637
C19	C	0.291020	0.078087	-0.042657
C20	C	0.248835	0.164239	-0.000231
C21	C	0.279115	0.252317	0.042205
C22	C	0.351573	0.254226	0.042221
C23	C	0.393752	0.168049	-0.000203
C24	C	0.126303	0.274939	-0.000251
C25	C	0.053843	0.273029	-0.000255
C26	C	0.069323	0.045582	-0.000256
C27	C	0.141782	0.047496	-0.000245
C28	C	0.170267	0.162178	-0.000246
C29	C	0.825278	-0.062006	-0.000206
C30	C	0.823248	-0.200518	-0.000208
C31	C	0.882406	-0.276743	-0.000224
C32	C	0.880309	-0.419902	-0.000226
C33	C	0.948237	0.156330	-0.000240
C34	C	1.025354	0.158358	-0.000264
C35	C	0.817311	0.394313	-0.000209
C36	C	0.819341	0.532824	-0.000212
N37	N	0.821271	0.166138	0.188461
N38	N	0.821323	0.166159	-0.188875
C39	C	0.868102	0.081085	0.226551
C40	C	0.868106	0.081079	0.302779
C41	C	0.821287	0.166148	0.340914
C42	C	0.774447	0.251207	0.302815
C43	C	0.774440	0.251202	0.226588
C44	C	0.812728	0.279840	0.461675
C45	C	0.812741	0.279847	0.537899
C46	C	0.821307	0.166164	0.576021
C47	C	0.829874	0.052468	0.537909
C48	C	0.829867	0.052463	0.461682
C49	C	0.821290	0.166162	0.423569
C50	C	0.868144	0.081098	0.696766
C51	C	0.868144	0.081091	0.772995
C52	C	0.774489	0.251229	0.773030
C53	C	0.774486	0.251225	0.696802
C54	C	0.821317	0.166161	0.658675
H55	H	0.046124	-0.047784	-0.000309
O56	O	0.723961	0.342979	0.343945
H57	H	0.691395	0.402124	0.304649
O58	O	0.839108	-0.070163	0.579012
H59	H	0.837664	-0.051065	0.638419
O60	O	0.233626	0.345239	0.087975
H61	H	0.196623	0.403187	0.052192
O62	O	0.006420	0.394653	-0.000265
H63	H	0.038404	0.474712	-0.000270
H64	H	0.736304	0.320463	0.195575
O65	O	0.189203	-0.074127	-0.000234
H66	H	0.222618	-0.078693	-0.049581
H67	H	0.624544	-0.032558	-0.000146
O68	O	0.752248	-0.380443	-0.000190
H69	H	0.750137	-0.320419	-0.049548
H70	H	0.596460	0.380090	-0.000171
H71	H	0.149497	0.368320	-0.000241
O72	O	0.754101	-0.254455	-0.000192
H73	H	0.711085	-0.176842	-0.000185
O74	O	0.951553	-0.222805	-0.000240
H75	H	0.981517	-0.255006	-0.049610
O76	O	0.918601	-0.010674	0.185426
H77	H	0.951161	-0.069827	0.224724
O78	O	0.947397	-0.506649	-0.000236
H79	H	0.978100	-0.489035	-0.049597
H80	H	0.906242	0.011817	0.333797
O81	O	0.839095	-0.070153	0.420572
H82	H	0.845047	-0.149210	0.459880
O83	O	0.384245	0.349195	0.087992
H84	H	0.420673	0.299547	0.127826
H85	H	0.805741	0.372421	0.430642
O86	O	0.258363	-0.016918	-0.088415
H87	H	0.299869	-0.076526	-0.117899
O88	O	0.918643	-0.010659	0.655634
H89	H	0.951200	-0.069820	0.694931
H90	H	0.397819	0.009832	-0.077190
H91	H	0.493087	-0.036008	-0.000189
O92	O	0.453382	0.406422	-0.000198
H93	H	0.485363	0.486487	-0.000201
H94	H	0.906277	0.011824	0.804009
O95	O	0.723989	0.342989	0.814148
H96	H	0.731864	0.328710	0.873553
H97	H	0.736355	0.320488	0.665787
O98	O	0.803514	0.402468	0.579006
H99	H	0.797547	0.481518	0.539693
