data_functionalizedCrystal
_audit_creation_method	'MofGen! by Chris Wilmer'
_symmetry_space_group_name_H-M	'P1'
_symmetry_Int_Tables_number	1
_symmetry_cell_setting	triclinic
loop_
_symmetry_equiv_pos_as_xyz
  x,y,z
_cell_length_a	17.699077
_cell_length_b	8.597304
_cell_length_c	16.176319
_cell_angle_alpha	82.293375
_cell_angle_beta	89.993140
_cell_angle_gamma	84.313138
loop_
_atom_site_label
_atom_site_type_symbol
_atom_site_fract_x
_atom_site_fract_y
_atom_site_fract_z
O1	O	1.005727	0.198423	-0.082865
O2	O	1.505727	0.698423	0.417135
O3	O	0.785562	0.224254	-0.084709
O4	O	1.285562	0.724254	0.415291
O5	O	0.899976	-0.017147	-0.067511
O6	O	1.399976	0.482853	0.432489
O7	O	0.891313	0.439823	-0.100063
O8	O	1.391313	0.939823	0.399937
O9	O	0.899960	-0.017162	0.069983
O10	O	1.399960	0.482838	0.569983
O11	O	0.785546	0.224238	0.052786
O12	O	1.285546	0.724238	0.552786
O13	O	1.005711	0.198408	0.054629
O14	O	1.505711	0.698408	0.554629
Cu15	Cu	0.895627	0.211322	0.066262
Cu16	Cu	1.395627	0.711322	0.566262
Cu17	Cu	0.895646	0.211340	-0.096341
Cu18	Cu	1.395646	0.711340	0.403659
O19	O	0.891297	0.439808	0.037432
O20	O	1.391297	0.939808	0.537432
C21	C	0.757349	0.223322	-0.015896
C22	C	1.257349	0.723322	0.484104
C23	C	0.673308	0.220550	-0.015700
C24	C	1.173308	0.720550	0.484300
C25	C	0.633821	0.219236	0.059342
C26	C	1.133821	0.719236	0.559342
C27	C	0.554857	0.216606	0.059530
C28	C	1.054857	0.716606	0.559530
C29	C	0.515380	0.215302	-0.015326
C30	C	1.015380	0.715302	0.484674
C31	C	0.554873	0.216612	-0.090373
C32	C	1.054873	0.716612	0.409627
C33	C	0.633837	0.219231	-0.090560
C34	C	1.133837	0.719231	0.409440
C35	C	0.236422	0.206051	-0.089622
C36	C	0.736422	0.706051	0.410378
C37	C	0.157453	0.203437	-0.089430
C38	C	0.657453	0.703437	0.410570
C39	C	0.157442	0.203426	0.060467
C40	C	0.657442	0.703426	0.560467
C41	C	0.236406	0.206045	0.060281
C42	C	0.736406	0.706045	0.560281
C43	C	0.275892	0.207346	-0.014766
C44	C	0.775892	0.707346	0.485234
C45	C	0.361514	0.210194	-0.014969
C46	C	0.861514	0.710194	0.485031
C47	C	0.429759	0.212465	-0.015124
C48	C	0.929759	0.712465	0.484876
C49	C	0.899037	-0.075623	0.005399
C50	C	1.399037	0.424377	0.505399
C51	C	0.896254	-0.249840	0.017804
C52	C	1.396254	0.250160	0.517804
C53	C	1.033924	0.199339	-0.014185
C54	C	1.533924	0.699339	0.485815
C55	C	1.117965	0.202111	-0.014387
C56	C	1.617965	0.702111	0.485613
C57	C	0.892236	0.498284	-0.035481
C58	C	1.392236	0.998284	0.464519
C59	C	0.895019	0.672501	-0.047891
C60	C	1.395019	1.172501	0.452109
N61	N	0.895619	0.211308	0.180628
N62	N	1.395619	0.711308	0.680628
N63	N	0.895660	0.211341	-0.210707
N64	N	1.395660	0.711341	0.289293
C65	C	0.946297	0.104459	0.231504
C66	C	1.446297	0.604459	0.731504
C67	C	0.946301	0.104458	0.318051
C68	C	1.446301	0.604458	0.818051
C69	C	0.895630	0.211313	0.353720
C70	C	1.395630	0.711313	0.853720
C71	C	0.844946	0.318167	0.302837
C72	C	1.344946	0.818167	0.802837
C73	C	0.844939	0.318160	0.216292
C74	C	1.344939	0.818160	0.716292
C75	C	0.844972	0.318196	0.651864
C76	C	1.344972	0.818196	1.151864
C77	C	0.844985	0.318198	0.738415
C78	C	1.344985	0.818198	1.238415
C79	C	0.946334	0.104494	0.753622
C80	C	1.446334	0.604494	1.253622
C81	C	0.946327	0.104487	0.667077
C82	C	1.446327	0.604487	1.167077
C83	C	0.895641	0.211334	0.616203
C84	C	1.395641	0.711334	1.116203
C85	C	0.895637	0.211333	0.522359
C86	C	1.395637	0.711333	1.022359
C87	C	0.895637	0.211323	0.447562
C88	C	1.395637	0.711323	0.947562
H89	H	0.125283	0.202359	0.121574
H90	H	0.625283	0.702359	0.621574
H91	H	0.665956	0.220310	0.120297
H92	H	1.165956	0.720310	0.620297
C93	C	0.114027	0.201989	-0.171776
C94	C	0.614027	0.701989	0.328224
C95	C	0.132474	0.066114	-0.223922
C96	C	0.632474	0.566114	0.276078
C97	C	0.089048	0.064668	-0.306263
C98	C	0.589048	0.564668	0.193737
C99	C	0.027176	0.199099	-0.336457
C100	C	0.527176	0.699099	0.163543
C101	C	0.008727	0.334984	-0.284309
C102	C	0.508727	0.834984	0.215691
C103	C	0.052153	0.336430	-0.201969
C104	C	0.552153	0.836430	0.298031
H105	H	0.178278	-0.033409	-0.201572
H106	H	0.678278	0.466591	0.298428
H107	H	0.102706	-0.035924	-0.344865
H108	H	0.602706	0.464076	0.155135
H109	H	-0.004970	0.198028	-0.397410
H110	H	0.495030	0.698028	0.102590
H111	H	-0.037077	0.434507	-0.306660
H112	H	0.462923	0.934507	0.193340
H113	H	0.038495	0.437022	-0.163366
H114	H	0.538495	0.937022	0.336634
H115	H	0.895173	-0.316639	0.083547
H116	H	1.395173	0.183361	0.583547
C117	C	0.789238	0.435738	0.777653
C118	C	1.289238	0.935738	1.277653
C119	C	0.789252	0.435746	0.872849
C120	C	1.289252	0.935746	1.372849
C121	C	0.733509	0.553279	0.912089
C122	C	1.233509	1.053279	1.412089
C123	C	0.677753	0.670803	0.856132
C124	C	1.177753	1.170803	1.356132
C125	C	0.677737	0.670799	0.760930
C126	C	1.177737	1.170799	1.260930
C127	C	0.733480	0.553267	0.721691
C128	C	1.233480	1.053267	1.221691
H129	H	0.830528	0.348743	0.914277
H130	H	1.330528	0.848743	1.414277
H131	H	0.733521	0.553281	0.982564
H132	H	1.233521	1.053281	1.482564
H133	H	0.636489	0.757808	0.885179
H134	H	1.136489	1.257808	1.385179
H135	H	0.636462	0.757802	0.719503
H136	H	1.136462	1.257802	1.219503
H137	H	0.733468	0.553264	0.651216
H138	H	1.233468	1.053264	1.151216
C139	C	1.002038	-0.013086	0.192273
C140	C	1.502038	0.486914	0.692273
C141	C	1.002037	-0.013103	0.097078
C142	C	1.502037	0.486897	0.597078
C143	C	1.057778	-0.130656	0.057850
C144	C	1.557778	0.369344	0.557850
C145	C	1.113519	-0.248194	0.113819
C146	C	1.613519	0.251806	0.613819
C147	C	1.113522	-0.248182	0.209020
C148	C	1.613522	0.251818	0.709020
C149	C	1.057782	-0.130628	0.248247
C150	C	1.557782	0.369372	0.748247
H151	H	0.960772	0.073909	0.055642
H152	H	1.460772	0.573909	0.555642
H153	H	1.057775	-0.130664	-0.012624
H154	H	1.557775	0.369336	0.487376
H155	H	1.154781	-0.335214	0.084780
H156	H	1.654781	0.164786	0.584780
H157	H	1.154787	-0.335194	0.250456
H158	H	1.654787	0.164806	0.750456
H159	H	1.057784	-0.130620	0.318721
H160	H	1.557784	0.369380	0.818721
H161	H	0.522711	0.215509	0.120639
H162	H	1.022711	0.715509	0.620639
H163	H	0.803685	0.405166	0.331884
H164	H	1.303685	0.905166	0.831884
H165	H	0.987567	0.017453	0.359475
H166	H	1.487567	0.517453	0.859475
H167	H	0.896089	-0.260704	-0.113630
H168	H	1.396089	0.239296	0.386370
H169	H	0.268543	0.207114	0.121235
H170	H	0.768543	0.707114	0.621235
H171	H	0.268563	0.207105	-0.150729
H172	H	0.768563	0.707105	0.349271
H173	H	0.803703	0.405198	0.610448
H174	H	1.303703	0.905198	1.110448
H175	H	0.987591	0.017481	0.638039
H176	H	1.487591	0.517481	1.138039
H177	H	0.522726	0.215539	-0.151321
H178	H	1.022726	0.715539	0.348679
H179	H	0.803671	0.405165	0.174869
H180	H	1.303671	0.905165	0.674869
C181	C	1.002086	-0.013056	0.809587
C182	C	1.502086	0.486944	1.309587
C183	C	0.999502	-0.191772	0.810422
C184	C	1.499502	0.308228	1.310422
C185	C	1.055254	-0.309315	0.866383
C186	C	1.555254	0.190685	1.366383
C187	C	1.113589	-0.248142	0.921509
C188	C	1.613589	0.251858	1.421509
C189	C	1.116174	-0.069417	0.920676
C190	C	1.616174	0.430583	1.420676
C191	C	1.060423	0.048126	0.864715
C192	C	1.560423	0.548126	1.364715
H193	H	0.956318	-0.237065	0.769613
H194	H	1.456318	0.262935	1.269613
H195	H	1.053340	-0.441620	0.867000
H196	H	1.553340	0.058380	1.367000
H197	H	1.154859	-0.335155	0.962935
H198	H	1.654859	0.164845	1.462935
H199	H	1.159359	-0.024125	0.961485
H200	H	1.659359	0.475875	1.461485
H201	H	1.062337	0.180430	0.864098
H202	H	1.562337	0.680430	1.364098
H203	H	0.665986	0.220304	-0.151667
H204	H	1.165986	0.720304	0.348333
