data_functionalizedCrystal
_audit_creation_method	'MofGen! by Chris Wilmer'
_symmetry_space_group_name_H-M	'P1'
_symmetry_Int_Tables_number	1
_symmetry_cell_setting	triclinic
loop_
_symmetry_equiv_pos_as_xyz
  x,y,z
_cell_length_a	17.077404
_cell_length_b	18.050589
_cell_length_c	17.077396
_cell_angle_alpha	89.975358
_cell_angle_beta	89.980499
_cell_angle_gamma	90.028446
loop_
_atom_site_label
_atom_site_type_symbol
_atom_site_fract_x
_atom_site_fract_y
_atom_site_fract_z
Zn1	Zn	1.200026	-0.295655	-0.443864
Zn2	Zn	1.533359	0.037678	-0.110530
Zn3	Zn	1.866692	0.371012	0.222803
Zn4	Zn	1.199920	-0.419852	-0.312606
Zn5	Zn	1.533254	-0.086519	0.020727
Zn6	Zn	1.866587	0.246814	0.354060
Zn7	Zn	1.068757	-0.295681	-0.312612
Zn8	Zn	1.402091	0.037652	0.020722
Zn9	Zn	1.735424	0.370986	0.354055
Zn10	Zn	1.068713	-0.419808	-0.443830
Zn11	Zn	1.402046	-0.086475	-0.110497
Zn12	Zn	1.735380	0.246859	0.222837
O13	O	1.134354	-0.357749	-0.378228
O14	O	1.467687	-0.024416	-0.044895
O15	O	1.801021	0.308918	0.288439
O16	O	1.309858	-0.312138	-0.426464
O17	O	1.643192	0.021196	-0.093131
O18	O	1.976525	0.354529	0.240203
O19	O	1.182496	-0.403410	-0.202760
O20	O	1.515829	-0.070077	0.130573
O21	O	1.849163	0.263257	0.463907
O22	O	1.086233	-0.191753	-0.330039
O23	O	1.419566	0.141580	0.003295
O24	O	1.752900	0.474914	0.336628
O25	O	1.309781	-0.403385	-0.330030
O26	O	1.643115	-0.070051	0.003303
O27	O	1.976448	0.263282	0.336637
O28	O	1.182675	-0.191734	-0.426469
O29	O	1.516008	0.141599	-0.093136
O30	O	1.849342	0.474933	0.240198
O31	O	1.086131	-0.312182	-0.202764
O32	O	1.419464	0.021151	0.130569
O33	O	1.752798	0.354485	0.463903
O34	O	0.958905	-0.312139	-0.330006
O35	O	1.292238	0.021194	0.003327
O36	O	1.625571	0.354527	0.336661
O37	O	1.086157	-0.403310	-0.553681
O38	O	1.419491	-0.069976	-0.220348
O39	O	1.752824	0.263357	0.112985
O40	O	0.958872	-0.403335	-0.426412
O41	O	1.292205	-0.070002	-0.093078
O42	O	1.625539	0.263332	0.240255
O43	O	1.182632	-0.312095	-0.553706
O44	O	1.515965	0.021239	-0.220373
O45	O	1.849299	0.354572	0.112961
O46	O	1.182453	-0.523771	-0.329997
O47	O	1.515786	-0.190438	0.003336
O48	O	1.849120	0.142896	0.336669
O49	O	1.086056	-0.523739	-0.426407
O50	O	1.419389	-0.190405	-0.093073
O51	O	1.752722	0.142928	0.240260
C52	C	0.930406	-0.357736	-0.378206
C53	C	1.263740	-0.024402	-0.044873
C54	C	1.597073	0.308931	0.288460
C55	C	0.843156	-0.357748	-0.378216
C56	C	1.176490	-0.024414	-0.044882
C57	C	1.509823	0.308919	0.288451
C58	C	0.802170	-0.405305	-0.428333
C59	C	1.135503	-0.071972	-0.095000
C60	C	1.468837	0.261362	0.238333
C61	C	0.720189	-0.405307	-0.428346
C62	C	1.053523	-0.071973	-0.095013
C63	C	1.386856	0.261360	0.238321
C64	C	0.679197	-0.357754	-0.378236
C65	C	1.012530	-0.024421	-0.044903
C66	C	1.345864	0.308912	0.288431
C67	C	0.720189	-0.310192	-0.328116
C68	C	1.053523	0.023142	0.005217
C69	C	1.386856	0.356475	0.338551
C70	C	0.802168	-0.310187	-0.328108
C71	C	1.135502	0.023146	0.005225
C72	C	1.468835	0.356480	0.338559
C73	C	0.549319	-0.310206	-0.328135
C74	C	0.882653	0.023127	0.005198
C75	C	1.215986	0.356460	0.338532
C76	C	0.467335	-0.310212	-0.328142
C77	C	0.800668	0.023121	0.005192
C78	C	1.134001	0.356455	0.338525
C79	C	0.467340	-0.405326	-0.428373
C80	C	0.800674	-0.071993	-0.095040
C81	C	1.134007	0.261341	0.238294
C82	C	0.549319	-0.405321	-0.428365
C83	C	0.882653	-0.071988	-0.095032
C84	C	1.215986	0.261345	0.238302
C85	C	0.590306	-0.357760	-0.378244
C86	C	0.923639	-0.024426	-0.044910
C87	C	1.256973	0.308907	0.288423
C88	C	1.134259	-0.550701	-0.378215
C89	C	1.467593	-0.217368	-0.044882
C90	C	1.800926	0.115965	0.288452
C91	C	1.134291	-0.633247	-0.378236
C92	C	1.467624	-0.299914	-0.044902
C93	C	1.800957	0.033420	0.288431
C94	C	1.081921	-0.832707	-0.430645
C95	C	1.415255	-0.499374	-0.097311
C96	C	1.748588	-0.166040	0.236022
C97	C	1.062786	-0.882149	-0.359016
C98	C	1.396119	-0.548815	-0.025682
C99	C	1.729453	-0.215482	0.307651
C100	C	1.134368	-0.784377	-0.378246
C101	C	1.467701	-0.451044	-0.044912
C102	C	1.801034	-0.117711	0.288421
C103	C	1.153541	-0.882017	-0.449883
C104	C	1.486875	-0.548684	-0.116550
C105	C	1.820208	-0.215351	0.216784
C106	C	1.134441	-0.930362	-0.378262
C107	C	1.467774	-0.597029	-0.044929
C108	C	1.801107	-0.263696	0.288405
C109	C	1.115195	-0.832732	-0.306579
C110	C	1.448528	-0.499398	0.026755
C111	C	1.781862	-0.166065	0.360088
C112	C	1.205984	-0.832596	-0.397495
C113	C	1.539317	-0.499263	-0.064161
C114	C	1.872650	-0.165929	0.269172
C115	C	1.186876	-0.882016	-0.325816
C116	C	1.520209	-0.548682	0.007517
C117	C	1.853542	-0.215349	0.340851
C118	C	1.134324	-0.700279	-0.378238
C119	C	1.467657	-0.366946	-0.044904
C120	C	1.800990	-0.033612	0.288429
C121	C	1.134485	-1.014459	-0.378262
C122	C	1.467818	-0.681126	-0.044929
C123	C	1.801152	-0.347792	0.288404
C124	C	1.339098	-0.357763	-0.378250
C125	C	1.672432	-0.024430	-0.044917
C126	C	2.005765	0.308904	0.288417
C127	C	1.426348	-0.357769	-0.378260
C128	C	1.759681	-0.024436	-0.044926
C129	C	2.093015	0.308898	0.288407
C130	C	1.134402	-0.357694	-0.582972
C131	C	1.467735	-0.024361	-0.249639
C132	C	1.801068	0.308972	0.083694
C133	C	1.134422	-0.357671	-0.670222
C134	C	1.467755	-0.024338	-0.336889
C135	C	1.801089	0.308996	-0.003555
C136	C	1.134471	-0.164043	-0.378258
C137	C	1.467804	0.169290	-0.044925
C138	C	1.801137	0.502623	0.288408
C139	C	1.134520	-0.081498	-0.378271
C140	C	1.467854	0.251836	-0.044938
C141	C	1.801187	0.585169	0.288396
C142	C	1.184658	-0.310172	-0.711226
C143	C	1.517991	0.023162	-0.377893
C144	C	1.851325	0.356495	-0.044560
C145	C	1.184667	-0.310147	-0.793207
C146	C	1.518001	0.023186	-0.459874
C147	C	1.851334	0.356520	-0.126540
C148	C	1.134444	-0.357626	-0.834182
C149	C	1.467777	-0.024293	-0.500848
C150	C	1.801111	0.309041	-0.167515
C151	C	1.084202	-0.405128	-0.793172
C152	C	1.417536	-0.071794	-0.459838
C153	C	1.750869	0.261539	-0.126505
C154	C	1.084190	-0.405148	-0.711193
C155	C	1.417523	-0.071815	-0.377859
C156	C	1.750856	0.261519	-0.044526
C157	C	1.084234	-0.405083	-0.964042
C158	C	1.417567	-0.071750	-0.630708
C159	C	1.750901	0.261584	-0.297375
C160	C	1.084248	-0.405064	-1.046026
C161	C	1.417581	-0.071730	-0.712693
C162	C	1.750914	0.261603	-0.379360
C163	C	1.184712	-0.310082	-1.046056
C164	C	1.518045	0.023252	-0.712723
C165	C	1.851379	0.356585	-0.379389
C166	C	1.184699	-0.310102	-0.964077
C167	C	1.518032	0.023231	-0.630744
C168	C	1.851366	0.356564	-0.297410
C169	C	1.134458	-0.357605	-0.923073
C170	C	1.467792	-0.024272	-0.589739
C171	C	1.801125	0.309062	-0.256406
C172	C	1.134352	-0.357750	-0.174280
C173	C	1.467685	-0.024417	0.159053
C174	C	1.801019	0.308917	0.492387
C175	C	1.134484	-0.357564	-0.087031
C176	C	1.467817	-0.024231	0.246303
C177	C	1.801151	0.309103	0.579636
H178	H	0.686822	-0.444033	-0.469156
H179	H	1.020155	-0.110700	-0.135823
H180	H	1.353488	0.222633	0.197510
H181	H	1.169729	-0.903667	-0.510460
H182	H	1.503063	-0.570333	-0.177126
H183	H	1.836396	-0.237000	0.156207
Cl184	Cl	1.013348	-0.799276	-0.498963
Cl185	Cl	1.346681	-0.465942	-0.165630
Cl186	Cl	1.680015	-0.132609	0.167704
Cl187	Cl	1.247804	-0.250484	-0.659723
Cl188	Cl	1.581137	0.082850	-0.326390
Cl189	Cl	1.914470	0.416183	0.006943
Cl190	Cl	1.090095	-0.799450	-0.213026
Cl191	Cl	1.423428	-0.466117	0.120307
Cl192	Cl	1.756762	-0.132783	0.453641
Cl193	Cl	1.247873	-0.250365	-1.097604
Cl194	Cl	1.581206	0.082968	-0.764270
Cl195	Cl	1.914539	0.416302	-0.430937
Cl196	Cl	1.247859	-0.250463	-0.844752
Cl197	Cl	1.581193	0.082870	-0.511418
Cl198	Cl	1.914526	0.416203	-0.178085
H199	H	0.582693	-0.444047	-0.469164
H200	H	0.916027	-0.110713	-0.135831
H201	H	1.249360	0.222620	0.197502
H202	H	0.433965	-0.444050	-0.469186
H203	H	0.767299	-0.110717	-0.135853
H204	H	1.100632	0.222616	0.197481
Cl205	Cl	0.415802	-0.250434	-0.265142
Cl206	Cl	0.749135	0.082899	0.068191
Cl207	Cl	1.082469	0.416232	0.401525
Cl208	Cl	1.021100	-0.464744	-1.097537
Cl209	Cl	1.354433	-0.131411	-0.764203
Cl210	Cl	1.687767	0.201922	-0.430870
Cl211	Cl	0.969330	-0.915752	-0.333880
Cl212	Cl	1.302663	-0.582419	-0.000547
Cl213	Cl	1.635997	-0.249085	0.332786
Cl214	Cl	1.247843	-0.250418	-0.912567
Cl215	Cl	1.581176	0.082916	-0.579234
Cl216	Cl	1.914509	0.416249	-0.245900
Cl217	Cl	1.255403	-0.915234	-0.257337
Cl218	Cl	1.588736	-0.581901	0.075996
Cl219	Cl	1.922069	-0.248567	0.409329
Cl220	Cl	1.021061	-0.464813	-0.844683
Cl221	Cl	1.354394	-0.131480	-0.511350
Cl222	Cl	1.687728	0.201853	-0.178016
Cl223	Cl	0.600844	-0.250413	-0.265124
Cl224	Cl	0.934177	0.082920	0.068209
Cl225	Cl	1.267511	0.416253	0.401542
H226	H	1.266499	-0.810816	-0.413795
H227	H	1.599832	-0.477483	-0.080462
H228	H	1.933165	-0.144149	0.252872
Cl229	Cl	0.668656	-0.250406	-0.265125
Cl230	Cl	1.001989	0.082927	0.068208
Cl231	Cl	1.335322	0.416261	0.401541
H232	H	1.043310	-0.443753	-0.930658
H233	H	1.376644	-0.110420	-0.597325
H234	H	1.709977	0.222914	-0.263992
H235	H	0.835538	-0.271457	-0.287301
H236	H	1.168872	0.061876	0.046032
H237	H	1.502205	0.395210	0.379366
Cl238	Cl	1.021030	-0.464862	-0.659644
Cl239	Cl	1.354364	-0.131529	-0.326311
Cl240	Cl	1.687697	0.201805	0.007023
H241	H	0.835540	-0.444030	-0.469136
H242	H	1.168873	-0.110697	-0.135803
H243	H	1.502207	0.222636	0.197530
