data_functionalizedCrystal
_audit_creation_method	'MofGen! by Chris Wilmer'
_symmetry_space_group_name_H-M	'P1'
_symmetry_Int_Tables_number	1
_symmetry_cell_setting	triclinic
loop_
_symmetry_equiv_pos_as_xyz
  x,y,z
_cell_length_a	10.723023
_cell_length_b	14.044220
_cell_length_c	9.798715
_cell_angle_alpha	89.995876
_cell_angle_beta	89.996770
_cell_angle_gamma	88.828213
loop_
_atom_site_label
_atom_site_type_symbol
_atom_site_fract_x
_atom_site_fract_y
_atom_site_fract_z
O1	O	1.670498	0.133036	-0.113481
O2	O	1.308619	0.145772	-0.113487
O3	O	1.484127	0.001384	-0.113471
O4	O	1.494990	0.277424	-0.113498
O5	O	1.484112	0.001384	0.113511
O6	O	1.308605	0.145771	0.113495
O7	O	1.670483	0.133036	0.113501
Zn8	Zn	1.489542	0.139403	0.149536
Zn9	Zn	1.489561	0.139404	-0.149523
O10	O	1.494976	0.277423	0.113484
C11	C	1.262020	0.144845	0.000003
C12	C	1.123188	0.142072	0.000001
C13	C	0.917818	0.137971	-0.117582
C14	C	1.061307	0.140837	-0.117583
C15	C	1.479364	-0.033962	0.000021
C16	C	1.465180	-0.139280	0.000022
C17	C	1.439248	-0.332109	0.000002
C18	C	1.539850	-0.389089	-0.000000
C19	C	1.525421	-0.496386	-0.000012
C20	C	1.453675	-0.224802	0.000013
C21	C	1.717083	0.133963	0.000007
C22	C	1.855915	0.136735	0.000000
C23	C	1.499739	0.312769	-0.000010
C24	C	1.513923	0.418087	-0.000021
N25	N	1.489538	0.139403	0.353636
N26	N	1.489574	0.139397	-0.353622
C27	C	1.563202	0.078511	0.421420
C28	C	1.563222	0.078508	0.578582
H29	H	0.864586	0.136902	-0.218248
H30	H	1.342291	-0.363909	-0.000003
H31	H	1.636814	-0.357287	-0.000090
H32	H	1.069961	0.141015	0.100673
H33	H	1.626250	0.026378	0.363103
H34	H	0.909147	0.137794	0.100667
H35	H	1.626294	0.026379	0.636874
H36	H	1.426481	0.191528	0.411954
H37	H	1.114542	0.141905	-0.218250
H38	H	1.426508	0.191535	0.588095
