data_functionalizedCrystal
_audit_creation_method	'MofGen! by Chris Wilmer'
_symmetry_space_group_name_H-M	'P1'
_symmetry_Int_Tables_number	1
_symmetry_cell_setting	triclinic
loop_
_symmetry_equiv_pos_as_xyz
  x,y,z
_cell_length_a	21.395362
_cell_length_b	15.299816
_cell_length_c	21.395364
_cell_angle_alpha	80.317202
_cell_angle_beta	90.036401
_cell_angle_gamma	80.369816
loop_
_atom_site_label
_atom_site_type_symbol
_atom_site_fract_x
_atom_site_fract_y
_atom_site_fract_z
Zn1	Zn	1.000980	-0.358925	0.397799
Zn2	Zn	1.019029	-0.509691	0.311174
Zn3	Zn	0.896210	-0.358929	0.293001
Zn4	Zn	0.914304	-0.509748	0.415886
O5	O	0.957631	-0.434323	0.354465
O6	O	1.091049	-0.378899	0.386345
O7	O	1.002718	-0.489669	0.221083
O8	O	0.894982	-0.232714	0.291728
O9	O	1.104310	-0.489666	0.322701
O10	O	0.971956	-0.232711	0.368723
O11	O	0.912483	-0.378905	0.207731
O12	O	0.810935	-0.378960	0.309266
O13	O	0.925821	-0.489763	0.501167
O14	O	0.824229	-0.489767	0.399548
O15	O	0.989502	-0.378955	0.487879
O16	O	1.020263	-0.635913	0.340239
O17	O	0.943322	-0.635955	0.417170
C18	C	0.794849	-0.434371	0.354398
C19	C	0.725213	-0.434413	0.354387
C20	C	0.699447	-0.492186	0.401346
C21	C	0.634009	-0.492164	0.401372
C22	C	0.594340	-0.434378	0.354427
C23	C	0.620112	-0.376594	0.307464
C24	C	0.685548	-0.376611	0.307444
C25	C	0.489746	-0.427091	0.297145
C26	C	0.424312	-0.427080	0.297165
C27	C	0.392512	-0.434319	0.354490
C28	C	0.426157	-0.441588	0.411798
C29	C	0.491593	-0.441606	0.411778
C30	C	0.523385	-0.434352	0.354444
C31	C	0.295792	-0.492072	0.401480
C32	C	0.230352	-0.492043	0.401506
C33	C	0.216457	-0.376478	0.307593
C34	C	0.281895	-0.376501	0.307572
C35	C	0.321559	-0.434303	0.354516
C36	C	0.985731	-0.668660	0.382652
C37	C	0.997810	-0.768910	0.394732
C38	C	0.871712	-1.051802	0.268343
C39	C	0.860360	-0.957612	0.256995
C40	C	0.894721	-0.910432	0.291428
C41	C	0.940437	-0.957451	0.337211
C42	C	0.951787	-1.051650	0.348564
C43	C	0.974796	-0.910280	0.371649
C44	C	1.020512	-0.957299	0.417433
C45	C	1.031860	-1.051489	0.428783
C46	C	0.997498	-1.098669	0.394350
C47	C	0.963447	-0.816081	0.360297
C48	C	1.043522	-0.815929	0.440518
C49	C	1.054874	-0.910119	0.451866
C50	C	1.121048	-0.434276	0.354533
C51	C	1.190687	-0.434256	0.354562
C52	C	0.957666	-0.434365	0.517893
C53	C	0.957681	-0.434383	0.587537
C54	C	0.929437	-0.199071	0.326181
C55	C	0.917423	-0.098821	0.314128
C56	C	0.990835	-0.376694	0.613333
C57	C	0.990824	-0.376679	0.678767
C58	C	0.957667	-0.434369	0.718403
C59	C	0.924506	-0.492062	0.692600
C60	C	0.924513	-0.492069	0.627166
C61	C	0.962450	-0.515621	0.831850
C62	C	0.962447	-0.515615	0.897282
C63	C	0.957642	-0.434348	0.920222
C64	C	0.952852	-0.353084	0.877721
C65	C	0.952859	-0.353090	0.812287
C66	C	0.957656	-0.434368	0.789356
C67	C	0.990785	-0.376639	1.016968
C68	C	0.990769	-0.376623	1.082403
C69	C	0.924456	-0.492013	1.096235
C70	C	0.924468	-0.492021	1.030801
C71	C	0.957636	-0.434336	0.991171
C72	C	0.957602	-0.434309	1.191676
C73	C	0.957612	-0.434312	1.122035
H74	H	0.515632	-0.421193	0.250461
O75	O	1.026569	-0.314445	0.706607
H76	H	1.063272	-0.354798	0.741311
O77	O	0.914145	-0.765372	0.310917
H78	H	0.937032	-0.722419	0.273901
H79	H	0.897452	-0.538976	1.128506
H80	H	0.209375	-0.539087	0.439749
H81	H	0.396924	-0.421167	0.250501
O82	O	0.834659	-1.102699	0.231212
H83	H	0.783309	-1.084708	0.239731
O84	O	1.080597	-0.765059	0.477656
H85	H	1.047374	-0.722169	0.504329
O86	O	0.967631	-0.603282	0.807115
H87	H	0.966825	-0.589635	0.754476
H88	H	1.006740	-1.175367	0.403584
O89	O	0.882483	-0.808841	0.279180
H90	H	0.866798	-0.784001	0.323426
H91	H	0.966351	-0.581786	0.931882
H92	H	1.069082	-1.089769	0.466065
O93	O	0.811066	-0.906898	0.207609
H94	H	0.789086	-0.955527	0.185565
O95	O	1.104172	-0.960834	0.501254
H96	H	1.106284	-1.034257	0.503365
O97	O	0.888712	-0.554239	1.002964
H98	H	0.852004	-0.513864	0.968274
H99	H	1.017842	-0.329721	0.581070
O100	O	0.173676	-0.314148	0.256962
H101	H	0.202589	-0.273973	0.224305
O102	O	0.947690	-0.265450	0.766445
H103	H	0.944345	-0.208934	0.793383
H104	H	1.017789	-0.329663	0.984699
H105	H	0.948940	-0.286908	0.896396
H106	H	0.587809	-0.329542	0.269243
H107	H	0.706525	-0.329562	0.269203
H108	H	0.897508	-0.539031	0.724876
O109	O	1.026531	-0.314400	1.110231
H110	H	1.049600	-0.274299	1.071679
O111	O	0.888737	-0.554272	0.599335
H112	H	0.865673	-0.594381	0.637886
H113	H	0.328088	-0.539133	0.439707
H114	H	0.613026	-0.539210	0.439614
O115	O	0.742228	-0.554514	0.451982
H116	H	0.713312	-0.594677	0.484645
H117	H	0.400267	-0.447481	0.458477
O118	O	0.527879	-0.449425	0.473584
H119	H	0.523023	-0.513643	0.504624
O120	O	0.309694	-0.314212	0.256910
H121	H	0.271120	-0.274035	0.224263
