data_functionalizedCrystal
_audit_creation_method	'MofGen! by Chris Wilmer'
_symmetry_space_group_name_H-M	'P1'
_symmetry_Int_Tables_number	1
_symmetry_cell_setting	triclinic
loop_
_symmetry_equiv_pos_as_xyz
  x,y,z
_cell_length_a	25.639242
_cell_length_b	25.639240
_cell_length_c	16.625539
_cell_angle_alpha	89.966677
_cell_angle_beta	90.021538
_cell_angle_gamma	89.964534
loop_
_atom_site_label
_atom_site_type_symbol
_atom_site_fract_x
_atom_site_fract_y
_atom_site_fract_z
Zn1	Zn	0.799246	0.208257	0.455902
Zn2	Zn	1.299246	0.708257	0.955902
Zn3	Zn	0.799152	0.295695	0.321057
Zn4	Zn	1.299152	0.795695	0.821057
Zn5	Zn	0.711811	0.208264	0.321080
Zn6	Zn	1.211811	0.708264	0.821080
Zn7	Zn	0.711760	0.295652	0.455845
Zn8	Zn	1.211760	0.795652	0.955845
O9	O	0.755492	0.251967	0.388471
O10	O	1.255492	0.751967	0.888471
O11	O	0.872399	0.219871	0.438029
O12	O	1.372399	0.719871	0.938029
O13	O	0.787547	0.284118	0.208228
O14	O	1.287547	0.784118	0.708228
O15	O	0.723470	0.135098	0.338998
O16	O	1.223470	0.635098	0.838998
O17	O	0.872329	0.284112	0.338959
O18	O	1.372329	0.784112	0.838959
O19	O	0.787708	0.135093	0.438051
O20	O	1.287708	0.635093	0.938051
O21	O	0.723379	0.219883	0.208245
O22	O	1.223379	0.719883	0.708245
O23	O	0.638639	0.219841	0.338943
O24	O	1.138639	0.719841	0.838943
O25	O	0.723384	0.284038	0.568685
O26	O	1.223384	0.784038	1.068685
O27	O	0.638602	0.284044	0.437954
O28	O	1.138602	0.784044	0.937954
O29	O	0.787659	0.219829	0.568727
O30	O	1.287659	0.719829	1.068727
O31	O	0.787498	0.368855	0.338904
O32	O	1.287498	0.868855	0.838904
O33	O	0.723292	0.368823	0.437932
O34	O	1.223292	0.868823	0.937932
C35	C	0.619650	0.251939	0.388445
C36	C	1.119650	0.751939	0.888445
C37	C	0.561536	0.251939	0.388453
C38	C	1.061536	0.751939	0.888453
C39	C	0.755394	0.387810	0.388427
C40	C	1.255394	0.887810	0.888427
C41	C	0.755399	0.445924	0.388435
C42	C	1.255399	0.945924	0.888435
C43	C	0.310386	0.218576	0.440151
C44	C	0.810386	0.718576	0.940151
C45	C	0.364991	0.218571	0.440146
C46	C	0.864991	0.718571	0.940146
O47	O	0.393265	0.190182	0.484096
O48	O	0.893265	0.690182	0.984096
N49	N	0.392262	0.251961	0.388480
N50	N	0.892262	0.751961	0.888480
C51	C	0.364926	0.285362	0.336821
C52	C	0.864926	0.785362	0.836821
O53	O	0.393136	0.313762	0.292876
O54	O	0.893136	0.813762	0.792876
C55	C	0.310322	0.285369	0.336831
C56	C	0.810322	0.785369	0.836831
C57	C	0.283054	0.251973	0.388494
C58	C	0.783054	0.751973	0.888494
C59	C	0.283118	0.185184	0.491811
C60	C	0.783118	0.685184	0.991811
C61	C	0.228517	0.185189	0.491814
C62	C	0.728517	0.685189	0.991814
C63	C	0.201185	0.218586	0.440157
C64	C	0.701185	0.718586	0.940157
C65	C	0.228454	0.251978	0.388498
C66	C	0.728454	0.751978	0.888498
C67	C	0.282987	0.318772	0.285176
C68	C	0.782987	0.818772	0.785176
C69	C	0.228380	0.318777	0.285191
C70	C	0.728380	0.818777	0.785191
C71	C	0.201112	0.285381	0.336854
C72	C	0.701112	0.785381	0.836854
C73	C	0.146521	0.285380	0.336844
C74	C	0.646521	0.785380	0.836844
N75	N	0.119250	0.251990	0.388510
N76	N	0.619250	0.751990	0.888510
C77	C	0.146582	0.218593	0.440167
C78	C	0.646582	0.718593	0.940167
C79	C	0.479596	0.285344	0.336807
C80	C	0.979596	0.785344	0.836807
C81	C	0.534199	0.285334	0.336793
C82	C	1.034199	0.785334	0.836793
C83	C	0.534260	0.218545	0.440119
C84	C	1.034260	0.718545	0.940119
C85	C	0.479657	0.218552	0.440128
C86	C	0.979657	0.718552	0.940128
C87	C	0.452325	0.251955	0.388473
C88	C	0.952325	0.751955	0.888473
C89	C	0.031917	0.218605	0.440169
C90	C	0.531917	0.718605	0.940169
C91	C	-0.022689	0.218611	0.440166
C92	C	0.477311	0.718611	0.940166
C93	C	-0.022745	0.285402	0.336843
C94	C	0.477255	0.785402	0.836843
C95	C	0.031856	0.285395	0.336843
C96	C	0.531856	0.785395	0.836843
C97	C	0.059185	0.251994	0.388513
C98	C	0.559185	0.751994	0.888513
O99	O	0.118212	0.313756	0.292919
O100	O	0.618212	0.813756	0.792919
O101	O	0.118365	0.190202	0.484113
O102	O	0.618365	0.690202	0.984113
C103	C	0.788968	0.806291	0.336964
C104	C	1.288968	1.306291	0.836964
C105	C	0.788984	0.860895	0.336972
C106	C	1.288984	1.360895	0.836972
O107	O	0.817456	0.889135	0.293185
O108	O	1.317456	1.389135	0.793185
N109	N	0.755534	0.888206	0.388489
N110	N	1.255534	1.388206	0.888489
C111	C	0.722070	0.860910	0.440008
C112	C	1.222070	1.360910	0.940008
O113	O	0.693620	0.889154	0.483828
O114	O	1.193620	1.389154	0.983828
C115	C	0.722057	0.806307	0.440003
C116	C	1.222057	1.306307	0.940003
C117	C	0.755505	0.778998	0.388477
C118	C	1.255505	1.278998	0.888477
C119	C	0.822414	0.778982	0.285443
C120	C	1.322414	1.278982	0.785443
C121	C	0.822397	0.724382	0.285434
C122	C	1.322397	1.224382	0.785434
C123	C	0.788935	0.697090	0.336947
C124	C	1.288935	1.197090	0.836947
C125	C	0.755489	0.724398	0.388468
C126	C	1.255489	1.224398	0.888468
C127	C	0.688596	0.779012	0.491525
C128	C	1.188596	1.279012	0.991525
C129	C	0.688586	0.724405	0.491517
C130	C	1.188586	1.224405	0.991517
C131	C	0.722035	0.697096	0.439991
C132	C	1.222035	1.197096	0.939991
C133	C	0.722009	0.642505	0.439973
C134	C	1.222009	1.142505	0.939973
N135	N	0.755459	0.615194	0.388456
N136	N	1.255459	1.115194	0.888456
C137	C	0.788922	0.642486	0.336943
C138	C	1.288922	1.142486	0.836943
C139	C	0.722101	0.975581	0.440014
C140	C	1.222101	1.475581	0.940014
C141	C	0.722111	1.030183	0.440014
C142	C	1.222111	1.530183	0.940014
C143	C	0.789025	1.030164	0.336980
C144	C	1.289025	1.530164	0.836980
C145	C	0.789012	0.975561	0.336975
C146	C	1.289012	1.475561	0.836975
C147	C	0.755550	0.948269	0.388497
C148	C	1.255550	1.448269	0.888497
C149	C	0.788883	0.527821	0.336928
C150	C	1.288883	1.027821	0.836928
C151	C	0.788862	0.473216	0.336922
C152	C	1.288862	0.973216	0.836922
C153	C	0.721950	0.473239	0.439959
C154	C	1.221950	0.973239	0.939959
C155	C	0.721969	0.527840	0.439963
C156	C	1.221969	1.027840	0.939963
C157	C	0.755440	0.555130	0.388445
C158	C	1.255440	1.055130	0.888445
O159	O	0.693553	0.614230	0.483740
O160	O	1.193553	1.114230	0.983740
O161	O	0.817371	0.614235	0.293137
O162	O	1.317371	1.114235	0.793137
C163	C	0.891865	0.251996	0.388498
C164	C	1.391865	0.751996	0.888498
C165	C	0.949979	0.252008	0.388509
C166	C	1.449979	0.752008	0.888509
C167	C	0.755526	0.251928	0.598780
C168	C	1.255526	0.751928	1.098780
C169	C	0.755541	0.251911	0.688401
C170	C	1.255541	0.751911	1.188401
C171	C	0.755586	1.115594	0.388519
C172	C	1.255586	1.615594	0.888519
C173	C	0.755576	1.057480	0.388504
C174	C	1.255576	1.557480	0.888504
C175	C	0.755488	0.251968	0.178980
C176	C	1.255488	0.751968	0.678980
C177	C	0.755575	0.251837	0.089360
C178	C	1.255575	0.751837	0.589360
C179	C	0.755565	0.251853	1.016577
C180	C	1.255565	0.751853	1.516577
C181	C	0.755557	0.251871	0.925269
C182	C	1.255557	0.751871	1.425269
C183	C	0.755553	0.251883	0.852492
C184	C	1.255553	0.751883	1.352492
C185	C	0.755544	0.251900	0.761178
C186	C	1.255544	0.751900	1.261178
H187	H	0.054162	0.191407	0.482243
H188	H	0.554162	0.691407	0.982243
H189	H	0.206320	0.157997	0.533887
H190	H	0.706320	0.657997	1.033887
H191	H	0.556396	0.312523	0.294715
H192	H	1.056396	0.812523	0.794715
O193	O	0.450118	0.321363	0.281075
O194	O	0.950118	0.821363	0.781075
H195	H	0.478259	0.344573	0.245144
H196	H	0.978259	0.844573	0.745144
O197	O	0.686025	1.059631	0.495579
O198	O	1.186025	1.559631	0.995579
H199	H	0.691650	1.102187	0.486931
H200	H	1.191650	1.602187	0.986931
O201	O	0.858515	0.808411	0.229882
O202	O	1.358515	1.308411	0.729882
H203	H	0.852916	0.850970	0.238535
H204	H	1.352916	1.350970	0.738535
O205	O	0.061266	0.321411	0.281113
O206	O	0.561266	0.821411	0.781113
H207	H	0.086143	0.297976	0.240151
H208	H	0.586143	0.797976	0.740151
H209	H	0.694848	0.953363	0.481966
H210	H	1.194848	1.453363	0.981966
O211	O	0.198905	0.354804	0.229469
O212	O	0.698905	0.854804	0.729469
H213	H	0.156354	0.349202	0.238150
H214	H	0.656354	0.849202	0.738150
O215	O	0.312593	0.149159	0.547530
O216	O	0.812593	0.649159	1.047530
H217	H	0.337473	0.122526	0.511512
H218	H	0.837473	0.622526	1.011512
O219	O	0.652519	0.808454	0.547105
O220	O	1.152519	1.308454	1.047105
H221	H	0.658141	0.851010	0.538462
H222	H	1.158141	1.351010	1.038462
O223	O	0.685858	0.443794	0.495513
O224	O	1.185858	0.943794	0.995513
H225	H	0.662597	0.471953	0.531341
H226	H	1.162597	0.971953	1.031341
O227	O	0.652488	0.694968	0.547077
O228	O	1.152488	1.194968	1.047077
H229	H	0.629230	0.723134	0.582896
H230	H	1.129230	1.223134	1.082896
O231	O	-0.052229	0.321423	0.281128
O232	O	0.447771	0.821423	0.781128
H233	H	-0.094778	0.315816	0.289821
H234	H	0.405222	0.815816	0.789821
O235	O	0.824943	0.443760	0.281351
O236	O	1.324943	0.943760	0.781351
H237	H	0.848219	0.471916	0.245542
H238	H	1.348219	0.971916	0.745542
H239	H	0.457458	0.191358	0.482197
H240	H	0.957458	0.691358	0.982197
O241	O	0.824979	0.557252	0.281358
O242	O	1.324979	1.057252	0.781358
H243	H	0.848226	0.529082	0.245528
H244	H	1.348226	1.029082	0.745528
O245	O	0.858481	0.694930	0.229872
O246	O	1.358481	1.194930	0.729872
H247	H	0.881754	0.723089	0.194066
H248	H	1.381754	1.223089	0.694066
O249	O	0.563744	0.182526	0.495845
O250	O	1.063744	0.682526	0.995845
H251	H	0.606293	0.188139	0.487161
H252	H	1.106293	0.688139	0.987161
H253	H	0.305180	0.345966	0.243106
H254	H	0.805180	0.845966	0.743106
H255	H	0.816249	0.953330	0.295019
H256	H	1.316249	1.453330	0.795019
O257	O	0.685893	0.557299	0.495533
O258	O	1.185893	1.057299	0.995533
H259	H	0.662623	0.529145	0.531354
H260	H	1.162623	1.029145	1.031354
H261	H	0.816274	1.052395	0.295038
H262	H	1.316274	1.552395	0.795038
H263	H	-0.044888	0.191414	0.482236
H264	H	0.455112	0.691414	0.982236
