data_functionalizedCrystal
_audit_creation_method	'MofGen! by Chris Wilmer'
_symmetry_space_group_name_H-M	'P1'
_symmetry_Int_Tables_number	1
_symmetry_cell_setting	triclinic
loop_
_symmetry_equiv_pos_as_xyz
  x,y,z
_cell_length_a	19.188930
_cell_length_b	19.188930
_cell_length_c	18.266242
_cell_angle_alpha	89.988525
_cell_angle_beta	89.977082
_cell_angle_gamma	83.144779
loop_
_atom_site_label
_atom_site_type_symbol
_atom_site_fract_x
_atom_site_fract_y
_atom_site_fract_z
O1	O	0.926149	0.087169	-0.061124
O2	O	1.426149	0.587169	0.438876
O3	O	0.722838	0.098903	-0.061075
O4	O	1.222838	0.598903	0.438925
O5	O	0.830361	-0.008620	-0.061087
O6	O	1.330361	0.491380	0.438913
O7	O	0.818627	0.194691	-0.061113
O8	O	1.318627	0.694691	0.438887
O9	O	0.830343	-0.008625	0.060675
O10	O	1.330343	0.491375	0.560675
O11	O	0.722820	0.098897	0.060687
O12	O	1.222820	0.598897	0.560687
O13	O	0.926131	0.087163	0.060638
O14	O	1.426131	0.587163	0.560638
Zn15	Zn	0.824473	0.093029	0.079994
Zn16	Zn	1.324473	0.593029	0.579994
Zn17	Zn	0.824497	0.093037	-0.080432
Zn18	Zn	1.324497	0.593037	0.419568
O19	O	0.818608	0.194686	0.060649
O20	O	1.318608	0.694686	0.560649
C21	C	0.696818	0.098520	-0.000188
C22	C	1.196818	0.598520	0.499812
C23	C	0.619313	0.097380	-0.000169
C24	C	1.119313	0.597380	0.499831
C25	C	0.574389	0.160470	-0.000188
C26	C	1.074389	0.660470	0.499812
C27	C	0.501566	0.159399	-0.000196
C28	C	1.001566	0.659399	0.499804
C29	C	0.473669	0.095233	-0.000199
C30	C	0.973669	0.595233	0.499801
C31	C	0.518603	0.032133	-0.000175
C32	C	1.018603	0.532133	0.499825
C33	C	0.591425	0.033207	-0.000160
C34	C	1.091425	0.533207	0.499840
N35	N	0.365695	0.046188	-0.041663
N36	N	0.865695	0.546188	0.458337
N37	N	0.296516	0.045172	-0.041679
N38	N	0.796516	0.545172	0.458321
C39	C	0.254260	0.091994	-0.000243
C40	C	0.754260	0.591994	0.499757
N41	N	0.283795	0.139881	0.041200
N42	N	0.783795	0.639881	0.541200
N43	N	0.352980	0.140899	0.041213
N44	N	0.852980	0.640899	0.541213
C45	C	0.394707	0.094062	-0.000215
C46	C	0.894707	0.594062	0.499785
C47	C	0.130372	0.153928	-0.000270
C48	C	0.630372	0.653928	0.499730
C49	C	0.057547	0.152853	-0.000274
C50	C	0.557547	0.652853	0.499726
C51	C	0.074586	0.025586	-0.000261
C52	C	0.574586	0.525586	0.499739
C53	C	0.147409	0.026662	-0.000250
C54	C	0.647409	0.526662	0.499750
C55	C	0.175298	0.090835	-0.000258
C56	C	0.675298	0.590835	0.499742
C57	C	0.829972	-0.034634	-0.000204
C58	C	1.329972	0.465366	0.499796
C59	C	0.828831	-0.112138	-0.000197
C60	C	1.328831	0.387862	0.499803
C61	C	0.891922	-0.157062	-0.000209
C62	C	1.391922	0.342938	0.499791
C63	C	0.890850	-0.229886	-0.000220
C64	C	1.390850	0.270114	0.499780
C65	C	0.826684	-0.257782	-0.000206
C66	C	1.326684	0.242218	0.499794
C67	C	0.763585	-0.212849	-0.000198
C68	C	1.263585	0.287151	0.499802
C69	C	0.764658	-0.140026	-0.000194
C70	C	1.264658	0.359974	0.499806
N71	N	0.777631	-0.365789	0.041244
N72	N	1.277631	0.134211	0.541244
N73	N	0.776615	-0.434968	0.041242
N74	N	1.276615	0.065032	0.541242
C75	C	0.823446	-0.477191	-0.000220
C76	C	1.323446	0.022809	0.499780
N77	N	0.871341	-0.447624	-0.041669
N78	N	1.371341	0.052376	0.458331
N79	N	0.872359	-0.378439	-0.041664
N80	N	1.372359	0.121561	0.458336
C81	C	0.825513	-0.336745	-0.000210
C82	C	1.325513	0.163255	0.499790
C83	C	0.885379	-0.601079	-0.000245
C84	C	1.385379	-0.101079	0.499755
C85	C	0.884305	-0.673904	-0.000261
C86	C	1.384305	-0.173904	0.499739
C87	C	0.757038	-0.656865	-0.000231
C88	C	1.257038	-0.156865	0.499769
C89	C	0.758114	-0.584042	-0.000222
C90	C	1.258114	-0.084042	0.499778
C91	C	0.822287	-0.556154	-0.000226
C92	C	1.322287	-0.056154	0.499774
C93	C	0.952151	0.087546	-0.000252
C94	C	1.452151	0.587546	0.499748
C95	C	1.029656	0.088687	-0.000276
C96	C	1.529656	0.588687	0.499724
C97	C	0.818997	0.220700	-0.000236
C98	C	1.318997	0.720700	0.499764
C99	C	0.820138	0.298204	-0.000247
C100	C	1.320138	0.798204	0.499753
N101	N	0.824461	0.093024	0.189481
N102	N	1.324461	0.593024	0.689481
N103	N	0.824513	0.093037	-0.189919
N104	N	1.324513	0.593037	0.310081
C105	C	0.872088	0.045436	0.227785
C106	C	1.372088	0.545436	0.727785
C107	C	0.872092	0.045433	0.304430
C108	C	1.372092	0.545433	0.804430
C109	C	0.824477	0.093030	0.342768
C110	C	1.324477	0.593030	0.842768
C111	C	0.776841	0.140621	0.304455
C112	C	1.276841	0.640621	0.804455
C113	C	0.776834	0.140618	0.227812
C114	C	1.276834	0.640618	0.727812
N115	N	0.815401	0.154837	0.463094
N116	N	1.315401	0.654837	0.963094
N117	N	0.815413	0.154838	0.535902
N118	N	1.315413	0.654838	1.035902
C119	C	0.824496	0.093040	0.573691
C120	C	1.324496	0.593040	1.073691
N121	N	0.833582	0.031239	0.535920
N122	N	1.333582	0.531239	1.035920
N123	N	0.833574	0.031240	0.463106
N124	N	1.333574	0.531240	0.963106
C125	C	0.824480	0.093038	0.425875
C126	C	1.324480	0.593038	0.925875
C127	C	0.872131	0.045444	0.695101
C128	C	1.372131	0.545444	1.195101
C129	C	0.872130	0.045440	0.771748
C130	C	1.372130	0.545440	1.271748
C131	C	0.776882	0.140634	0.771772
C132	C	1.276882	0.640634	1.271772
C133	C	0.776879	0.140632	0.695127
C134	C	1.276879	0.640632	1.195127
C135	C	0.824507	0.093038	0.656796
C136	C	1.324507	0.593038	1.156796
H137	H	0.051874	-0.026659	-0.000309
H138	H	0.551874	0.473341	0.499691
C139	C	0.924510	-0.006913	0.652935
C140	C	1.424510	0.493087	1.152935
H141	H	0.952870	-0.035263	0.686728
H142	H	1.452870	0.464737	1.186728
H143	H	0.953494	0.018129	0.623015
H144	H	1.453494	0.518129	1.123015
H145	H	0.899477	-0.035917	0.623057
H146	H	1.399477	0.464083	1.123057
H147	H	0.711340	-0.235567	-0.000187
H148	H	1.211340	0.264433	0.499813
H149	H	0.942228	-0.266470	-0.000233
H150	H	1.442228	0.233530	0.499767
C151	C	0.955963	-0.570395	-0.000258
C152	C	1.455963	-0.070395	0.499742
H153	H	0.947566	-0.520590	-0.000244
H154	H	1.447566	-0.020590	0.499756
H155	H	0.981938	-0.585817	-0.042726
H156	H	1.481938	-0.085817	0.457274
H157	H	0.981924	-0.585842	0.042201
H158	H	1.481924	-0.085842	0.542201
C159	C	0.953708	-0.723321	-0.000272
C160	C	1.453708	-0.223321	0.499728
H161	H	0.992078	-0.696279	-0.000267
H162	H	1.492078	-0.196279	0.499733
H163	H	0.955948	-0.752074	-0.042736
H164	H	1.455948	-0.252074	0.457264
H165	H	0.955922	-0.752092	0.042192
H166	H	1.455922	-0.252092	0.542192
H167	H	0.153080	0.206181	-0.000267
H168	H	0.653080	0.706181	0.499733
H169	H	0.495885	-0.020111	-0.000188
H170	H	0.995885	0.479889	0.499812
H171	H	0.910911	0.006685	0.802935
H172	H	1.410911	0.506685	1.302935
C173	C	0.686456	-0.687543	-0.000217
C174	C	1.186456	-0.187543	0.499783
H175	H	0.694852	-0.737348	-0.000218
H176	H	1.194852	-0.237348	0.499782
H177	H	0.660494	-0.672097	-0.042671
H178	H	1.160494	-0.172097	0.457329
H179	H	0.660481	-0.672120	0.042257
H180	H	1.160481	-0.172120	0.542257
C181	C	0.008127	0.222255	-0.000296
C182	C	0.508127	0.722255	0.499704
H183	H	-0.039238	0.212427	-0.000296
H184	H	0.460762	0.712427	0.499704
H185	H	0.016584	0.248574	-0.042761
H186	H	0.516584	0.748574	0.457239
H187	H	0.016539	0.248577	0.042167
H188	H	0.516539	0.748577	0.542167
C189	C	0.924492	-0.006896	0.185622
C190	C	1.424492	0.493104	0.685622
H191	H	0.917678	-0.000074	0.134489
H192	H	1.417678	0.499926	0.634489
H193	H	0.917082	-0.053485	0.198188
H194	H	1.417082	0.446515	0.698188
H195	H	0.971057	0.000602	0.198169
H196	H	1.471057	0.500602	0.698169
H197	H	0.706738	-0.547464	-0.000208
H198	H	1.206738	-0.047464	0.499792
C199	C	0.724451	0.192973	0.185673
C200	C	1.224451	0.692973	0.685673
H201	H	0.731266	0.186154	0.134537
H202	H	1.231266	0.686154	0.634537
H203	H	0.731891	0.239552	0.198221
H204	H	1.231891	0.739552	0.698221
H205	H	0.677876	0.185504	0.198255
H206	H	1.177876	0.685504	0.698255
C207	C	0.724505	0.192991	0.813931
C208	C	1.224505	0.692991	1.313931
H209	H	0.696137	0.221332	0.780138
H210	H	1.196137	0.721332	1.280138
H211	H	0.749531	0.221994	0.843811
H212	H	1.249531	0.721994	1.343811
H213	H	0.695519	0.167943	0.843849
H214	H	1.195519	0.667943	1.343849
H215	H	0.910877	0.006680	0.335623
H216	H	1.410877	0.506680	0.835623
C217	C	0.695256	-0.090608	-0.000174
C218	C	1.195256	0.409392	0.499826
H219	H	0.656885	-0.117649	-0.000163
H220	H	1.156885	0.382351	0.499837
H221	H	0.693035	-0.061832	-0.042630
H222	H	1.193035	0.438168	0.457370
H223	H	0.693025	-0.061860	0.042298
H224	H	1.193025	0.438140	0.542298
H225	H	0.628003	-0.018171	-0.000145
H226	H	1.128003	0.481829	0.499855
C227	C	0.724468	0.192978	0.346624
C228	C	1.224468	0.692978	0.846624
H229	H	0.731298	0.186169	0.397757
H230	H	1.231298	0.686169	0.897757
H231	H	0.677894	0.185511	0.334093
H232	H	1.177894	0.685511	0.834093
H233	H	0.731908	0.239559	0.334045
H234	H	1.231908	0.739559	0.834045
C235	C	0.724497	0.192987	0.652991
C236	C	1.224497	0.692987	1.152991
H237	H	0.696143	0.221339	0.686799
H238	H	1.196143	0.721339	1.186799
H239	H	0.695509	0.167944	0.623112
H240	H	1.195509	0.667944	1.123112
H241	H	0.749525	0.221991	0.623074
H242	H	1.249525	0.721991	1.123074
H243	H	0.183988	-0.024713	-0.000238
H244	H	0.683988	0.475287	0.499762
H245	H	0.464982	0.210776	-0.000210
H246	H	0.964982	0.710776	0.499790
C247	C	0.962507	-0.126385	-0.000216
C248	C	1.462507	0.373615	0.499784
H249	H	0.954112	-0.076580	-0.000205
H250	H	1.454112	0.423420	0.499795
H251	H	0.988487	-0.141810	-0.042680
H252	H	1.488487	0.358190	0.457320
H253	H	0.988463	-0.141830	0.042247
H254	H	1.488463	0.358170	0.542247
C255	C	0.605063	0.231057	-0.000184
C256	C	1.105063	0.731057	0.499816
H257	H	0.567874	0.268479	-0.000189
H258	H	1.067874	0.768479	0.499811
H259	H	0.633144	0.234128	-0.042636
H260	H	1.133144	0.734128	0.457364
H261	H	0.633089	0.234117	0.042291
H262	H	1.133089	0.734117	0.542291
