data_functionalizedCrystal
_audit_creation_method	'MofGen! by Chris Wilmer'
_symmetry_space_group_name_H-M	'P1'
_symmetry_Int_Tables_number	1
_symmetry_cell_setting	triclinic
loop_
_symmetry_equiv_pos_as_xyz
  x,y,z
_cell_length_a	15.944551
_cell_length_b	15.944551
_cell_length_c	15.021413
_cell_angle_alpha	89.996935
_cell_angle_beta	89.997174
_cell_angle_gamma	96.501262
loop_
_atom_site_label
_atom_site_type_symbol
_atom_site_fract_x
_atom_site_fract_y
_atom_site_fract_z
O1	O	1.114529	-0.108321	-0.073941
O2	O	1.614529	0.391679	0.426059
O3	O	0.869979	-0.121677	-0.073964
O4	O	1.369979	0.378323	0.426036
O5	O	0.998932	0.007276	-0.073944
O6	O	1.498932	0.507276	0.426056
O7	O	0.985576	-0.237274	-0.073961
O8	O	1.485576	0.262726	0.426039
O9	O	0.998912	0.007257	0.074121
O10	O	1.498912	0.507257	0.574121
O11	O	0.869959	-0.121695	0.074101
O12	O	1.369959	0.378305	0.574101
O13	O	1.114508	-0.108339	0.074123
O14	O	1.614508	0.391661	0.574123
Zn15	Zn	0.992230	-0.115020	0.097620
Zn16	Zn	1.492230	0.384980	0.597620
Zn17	Zn	0.992257	-0.114996	-0.097461
Zn18	Zn	1.492257	0.385004	0.402539
O19	O	0.985555	-0.237292	0.074103
O20	O	1.485555	0.262708	0.574103
C21	C	0.838675	-0.121132	0.000066
C22	C	1.338675	0.378868	0.500066
C23	C	0.745429	-0.119470	0.000057
C24	C	1.245429	0.380530	0.500057
C25	C	0.530572	-0.035565	0.000081
C26	C	1.030572	0.464435	0.500081
C27	C	0.469562	-0.074518	-0.072926
C28	C	0.969562	0.425482	0.427074
C29	C	0.574703	-0.116462	0.000068
C30	C	1.074703	0.383538	0.500068
C31	C	0.469564	-0.074556	0.073054
C32	C	0.969564	0.425444	0.573054
C33	C	0.409790	-0.113551	0.000083
C34	C	0.909790	0.386449	0.500083
C35	C	0.514921	-0.155438	-0.072998
C36	C	1.014921	0.344562	0.427002
C37	C	0.514930	-0.155464	0.073047
C38	C	1.014930	0.344536	0.573047
C39	C	0.453937	-0.194476	0.000023
C40	C	0.953937	0.305524	0.500023
C41	C	0.669705	-0.118137	0.000059
C42	C	1.169705	0.381863	0.500059
C43	C	0.314789	-0.111883	0.000085
C44	C	0.814789	0.388117	0.500085
C45	C	0.998367	0.038561	0.000089
C46	C	1.498367	0.538561	0.500089
C47	C	0.996705	0.131807	0.000089
C48	C	1.496705	0.631807	0.500089
C49	C	1.145813	-0.108885	0.000092
C50	C	1.645813	0.391115	0.500092
C51	C	1.239059	-0.110547	0.000094
C52	C	1.739059	0.389453	0.500094
C53	C	0.986120	-0.268577	0.000069
C54	C	1.486120	0.231423	0.500069
C55	C	0.987782	-0.361823	0.000063
C56	C	1.487782	0.138177	0.500063
N57	N	0.992218	-0.115036	0.230758
N58	N	1.492218	0.384964	0.730758
C59	C	0.912801	0.346663	0.000069
C60	C	1.412801	0.846663	0.500069
C61	C	0.951753	0.407672	0.073077
C62	C	1.451753	0.907672	0.573077
C63	C	0.993698	0.302533	0.000082
C64	C	1.493698	0.802533	0.500082
C65	C	0.951792	0.407673	-0.072903
C66	C	1.451792	0.907673	0.427097
C67	C	0.990787	0.467445	0.000071
C68	C	1.490787	0.967445	0.500071
C69	C	1.032672	0.362313	0.073150
C70	C	1.532672	0.862313	0.573150
C71	C	1.032700	0.362308	-0.072895
C72	C	1.532700	0.862308	0.427105
C73	C	1.071711	0.423298	0.000131
C74	C	1.571711	0.923298	0.500131
C75	C	0.995372	0.207530	0.000089
C76	C	1.495372	0.707530	0.500089
C77	C	0.989119	0.562446	0.000070
C78	C	1.489119	1.062446	0.500070
N79	N	0.992276	-0.114973	-0.230598
N80	N	1.492276	0.385027	0.269402
C81	C	0.932581	-0.174636	0.470432
C82	C	1.432581	0.325364	0.970432
C83	C	1.008481	-0.190943	0.529772
C84	C	1.508481	0.309057	1.029772
C85	C	0.992239	-0.115015	0.412365
C86	C	1.492239	0.384985	0.912365
C87	C	0.916360	-0.098727	0.529766
C88	C	1.416360	0.401273	1.029766
C89	C	0.992253	-0.114997	0.587789
C90	C	1.492253	0.385003	1.087789
C91	C	1.068178	-0.131360	0.470398
C92	C	1.568178	0.368640	0.970398
C93	C	0.976006	-0.039111	0.470387
C94	C	1.476006	0.460889	0.970387
C95	C	1.051962	-0.055386	0.529701
C96	C	1.551962	0.444614	1.029701
C97	C	0.992230	-0.115028	0.311307
C98	C	1.492230	0.384972	0.811307
C99	C	0.992271	-0.114984	0.688844
C100	C	1.492271	0.385016	1.188844
H101	H	0.563905	0.031573	-0.000005
H102	H	1.063905	0.531573	0.499995
N103	N	0.957772	0.045879	0.435809
N104	N	1.457772	0.545879	0.935809
H105	H	0.905160	0.038665	0.397860
H106	H	1.405160	0.538665	0.897860
H107	H	1.007037	0.071554	0.398845
H108	H	1.507037	0.571554	0.898845
N109	N	0.410002	-0.283493	-0.000030
N110	N	0.910002	0.216507	0.499970
H111	H	0.453517	-0.324857	-0.000582
H112	H	0.953517	0.175143	0.499418
H113	H	0.373148	-0.292361	-0.054663
H114	H	0.873148	0.207639	0.445337
N115	N	0.541392	-0.200713	-0.154852
N116	N	1.041392	0.299287	0.345148
H117	H	0.570104	-0.251265	-0.136346
H118	H	1.070104	0.248735	0.363654
H119	H	0.581807	-0.161030	-0.191123
H120	H	1.081807	0.338970	0.308877
H121	H	0.852184	-0.084959	0.555847
H122	H	1.352184	0.415041	1.055847
N123	N	0.906413	0.434298	0.154822
N124	N	1.406413	0.934298	0.654822
H125	H	0.906106	0.497606	0.154511
H126	H	1.406106	0.997606	0.654511
H127	H	0.936386	0.416934	0.209920
H128	H	1.436386	0.916934	0.709920
N129	N	1.153206	-0.149697	0.436005
N130	N	1.653206	0.350303	0.936005
H131	H	1.146082	-0.202648	0.398579
H132	H	1.646082	0.297352	0.898579
H133	H	1.191679	-0.157929	0.487922
H134	H	1.691679	0.342071	0.987922
N135	N	0.442950	-0.029238	0.154818
N136	N	0.942950	0.470762	0.654818
H137	H	0.379642	-0.028928	0.154522
H138	H	0.879642	0.471072	0.654522
H139	H	0.471172	0.030754	0.154709
H140	H	0.971172	0.530754	0.654709
N141	N	1.077945	0.335844	0.155007
N142	N	1.577945	0.835844	0.655007
H143	H	1.128499	0.307133	0.136506
H144	H	1.628499	0.807133	0.636506
H145	H	1.038262	0.295430	0.191277
H146	H	1.538262	0.795430	0.691277
N147	N	0.442931	-0.029193	-0.154678
N148	N	0.942931	0.470807	0.345322
H149	H	0.471091	0.030825	-0.154622
H150	H	0.971091	0.530825	0.345378
H151	H	0.379617	-0.028953	-0.154316
H152	H	0.879617	0.471047	0.345684
H153	H	1.138919	0.456457	0.000178
H154	H	1.638919	0.956457	0.500178
N155	N	1.077991	0.335646	-0.154651
N156	N	1.577991	0.835646	0.345349
H157	H	1.079251	0.272463	-0.153728
H158	H	1.579251	0.772463	0.346272
H159	H	1.137656	0.364711	-0.155186
H160	H	1.637656	0.864711	0.344814
N161	N	0.541559	-0.200784	0.154797
N162	N	1.041559	0.299216	0.654797
H163	H	0.525242	-0.170184	0.209919
H164	H	1.025242	0.329816	0.709919
H165	H	0.604738	-0.202057	0.153816
H166	H	1.104738	0.297943	0.653816
N167	N	0.823857	0.302542	0.000146
N168	N	1.323857	0.802542	0.500146
H169	H	0.793401	0.318914	0.055342
H170	H	1.293401	0.818914	0.555342
H171	H	0.825673	0.239434	-0.000453
H172	H	1.325673	0.739434	0.499547
N173	N	1.026693	-0.275955	0.564326
N174	N	1.526693	0.224045	1.064326
H175	H	0.981593	-0.320963	0.542772
H176	H	1.481593	0.179037	1.042772
H177	H	1.027127	-0.275072	0.631553
H178	H	1.527127	0.224928	1.131553
H179	H	1.102474	-0.004956	0.555561
H180	H	1.602474	0.495044	1.055561
H181	H	0.917574	0.427758	-0.134630
H182	H	1.417574	0.927758	0.365370
N183	N	0.865812	-0.241467	0.435963
N184	N	1.365812	0.258533	0.935963
H185	H	0.878193	-0.298776	0.457569
H186	H	1.378193	0.201224	0.957569
H187	H	0.865943	-0.240575	0.368735
H188	H	1.365943	0.259425	0.868735
