data_functionalizedCrystal
_audit_creation_method	'MofGen! by Chris Wilmer'
_symmetry_space_group_name_H-M	'P1'
_symmetry_Int_Tables_number	1
_symmetry_cell_setting	triclinic
loop_
_symmetry_equiv_pos_as_xyz
  x,y,z
_cell_length_a	17.038272
_cell_length_b	9.065218
_cell_length_c	16.098538
_cell_angle_alpha	92.779205
_cell_angle_beta	92.920305
_cell_angle_gamma	91.936279
loop_
_atom_site_label
_atom_site_type_symbol
_atom_site_fract_x
_atom_site_fract_y
_atom_site_fract_z
O1	O	0.111292	-1.978085	-0.069260
O2	O	0.120704	-1.549744	-0.069261
O3	O	0.002165	-1.761368	-0.069254
O4	O	0.229832	-1.766461	-0.069267
O5	O	0.009062	-1.749003	0.069259
O6	O	0.127601	-1.537379	0.069252
O7	O	0.118189	-1.965719	0.069253
Zn8	Zn	0.123990	-1.749586	0.091244
Zn9	Zn	0.114903	-1.765878	-0.091252
O10	O	0.236729	-1.754095	0.069246
C11	C	0.123248	-1.488484	-0.000005
C12	C	0.120543	-1.324370	-0.000005
C13	C	-0.023548	-1.750555	0.000003
C14	C	-0.110441	-1.736738	0.000002
N15	N	0.130192	-1.738477	0.215793
C16	C	-0.159639	-1.863586	0.000004
C17	C	-0.241284	-1.850597	-0.000004
C18	C	-0.273729	-1.710757	-0.000008
C19	C	-0.224524	-1.583900	-0.000011
C20	C	-0.142881	-1.596892	-0.000009
C21	C	-0.519819	-1.664860	-0.000019
C22	C	-0.601468	-1.651878	-0.000019
C23	C	-0.618222	-1.918576	-0.000013
C24	C	-0.536577	-1.931555	-0.000006
C25	C	-0.487379	-1.804698	-0.000014
C26	C	-0.357182	-1.697476	-0.000013
C27	C	-0.403928	-1.817981	-0.000015
C28	C	0.262442	-1.764909	-0.000012
C29	C	0.349334	-1.778726	-0.000017
C30	C	0.115645	-2.026980	-0.000005
C31	C	0.118350	-2.191094	-0.000010
N32	N	0.108696	-1.776997	-0.215801
C33	C	0.079897	-1.828337	0.259381
C34	C	0.084243	-1.820581	0.346570
C35	C	0.138887	-1.722972	0.390169
C36	C	0.189184	-1.633103	0.346575
C37	C	0.184834	-1.640852	0.259387
C38	C	0.154642	-1.694877	0.653418
C39	C	0.158990	-1.687138	0.740611
C40	C	0.054048	-1.874614	0.740600
C41	C	0.049706	-1.882362	0.653411
C42	C	0.100000	-1.792487	0.609825
C43	C	0.143332	-1.715045	0.479290
C44	C	0.095550	-1.800407	0.520706
H45	H	-0.133229	-1.977458	0.000011
H46	H	0.035403	-1.907826	0.223889
O47	O	-0.294350	-1.987408	0.000011
H48	H	-0.258073	-2.086827	0.000028
O49	O	-0.501596	-2.082393	-0.000010
H50	H	-0.461999	-2.089664	0.056450
H51	H	0.013100	-1.947784	0.776096
H52	H	-0.383608	-1.583618	-0.000014
H53	H	-0.102824	-1.493598	-0.000011
H54	H	0.187826	-1.635573	0.514795
H55	H	-0.377509	-1.931839	-0.000031
H56	H	-0.250947	-1.470040	-0.000019
O57	O	0.030011	-1.917527	0.393586
H58	H	-0.008705	-1.986725	0.348621
H59	H	0.005210	-1.961842	0.617915
O60	O	-0.671282	-2.055397	-0.000010
H61	H	-0.733505	-2.022878	-0.000017
H62	H	-0.627880	-1.537997	-0.000008
O63	O	-0.466759	-1.528042	-0.000007
H64	H	-0.503038	-1.428623	0.000006
O65	O	0.248130	-1.527838	0.393597
H66	H	0.236475	-1.412959	0.376889
O67	O	0.217921	-1.581837	0.787641
H68	H	0.252156	-1.520628	0.742686
H69	H	0.195595	-1.621700	0.617936
O70	O	0.239083	-1.543942	0.212368
H71	H	0.277817	-1.474777	0.257331
O72	O	0.036601	-1.905650	0.473678
H73	H	0.068086	-1.985078	0.433935
