data_functionalizedCrystal
_audit_creation_method	'MofGen! by Chris Wilmer'
_symmetry_space_group_name_H-M	'P1'
_symmetry_Int_Tables_number	1
_symmetry_cell_setting	triclinic
loop_
_symmetry_equiv_pos_as_xyz
  x,y,z
_cell_length_a	10.654562
_cell_length_b	9.730223
_cell_length_c	16.956995
_cell_angle_alpha	90.000290
_cell_angle_beta	99.727733
_cell_angle_gamma	89.999336
loop_
_atom_site_label
_atom_site_type_symbol
_atom_site_fract_x
_atom_site_fract_y
_atom_site_fract_z
O1	O	-1.654665	0.114301	0.111977
O2	O	-1.287936	0.114300	0.122631
O3	O	-1.493331	0.114295	0.001348
O4	O	-1.449269	0.114306	0.233260
O5	O	-1.493329	-0.114285	0.001351
O6	O	-1.287933	-0.114280	0.122634
O7	O	-1.654662	-0.114279	0.111980
Zn8	Zn	-1.471297	-0.150571	0.117308
Zn9	Zn	-1.471301	0.150593	0.117304
O10	O	-1.449267	-0.114274	0.233263
C11	C	-1.241229	0.000010	0.121848
C12	C	-1.102062	0.000010	0.119502
N13	N	-1.471304	-0.356108	0.117310
C14	C	-1.059174	0.000003	0.045886
C15	C	-0.928411	0.000012	0.043686
C16	C	-0.883433	0.000030	0.188723
C17	C	-1.014195	0.000031	0.190923
C18	C	-1.147042	-0.000018	-0.025535
C19	C	-1.104156	-0.000027	-0.099156
C20	C	-0.973393	-0.000017	-0.101356
C21	C	-0.885516	0.000001	-0.029935
C22	C	-1.562273	-0.428036	0.063624
C23	C	-1.562271	-0.571919	0.063615
C24	C	-1.380326	-0.571933	0.170983
C25	C	-1.380324	-0.428052	0.170989
C26	C	-1.653253	-0.356091	0.009946
C27	C	-1.744230	-0.428019	-0.043744
C28	C	-1.744228	-0.571902	-0.043753
C29	C	-1.653249	-0.643857	0.009926
C30	C	-0.701369	0.000013	0.112761
C31	C	-0.840538	0.000019	0.115102
C32	C	-1.495586	0.000007	-0.028346
C33	C	-1.502293	0.000012	-0.116829
N34	N	-1.471304	0.356129	0.117295
C35	C	-1.552470	0.000017	-0.615850
C36	C	-1.546158	0.000009	-0.532710
C37	C	-1.427680	0.000015	-0.482281
C38	C	-1.315507	0.000015	-0.514995
C39	C	-1.321820	0.000014	-0.598134
C40	C	-1.396433	0.000011	-0.232682
C41	C	-1.390128	0.000016	-0.149538
C42	C	-1.620780	0.000007	-0.167259
C43	C	-1.627083	0.000014	-0.250399
C44	C	-1.514910	0.000007	-0.283106
N45	N	-1.421225	0.000011	-0.397298
N46	N	-1.521366	0.000002	-0.368087
C47	C	-1.447012	0.000017	0.262957
C48	C	-1.440305	0.000022	0.351441
H49	H	-1.253519	-0.000030	-0.023752
H50	H	-1.653247	-0.761016	0.009909
H51	H	-1.049113	0.000024	0.250867
C52	C	-1.744162	-0.000006	-0.131274
N53	N	-1.837099	-0.000025	-0.104171
H54	H	-1.818297	-0.630465	-0.087475
C55	C	-1.280258	-0.651089	0.230028
N56	N	-1.204886	-0.710709	0.274502
H57	H	-1.175713	-0.000030	-0.157304
H58	H	-1.818296	-0.369427	-0.087453
C59	C	-1.273038	0.000014	-0.268648
N60	N	-1.180091	0.000020	-0.295741
C61	C	-1.757418	-0.000018	-0.305866
N62	N	-1.855588	-0.000047	-0.347644
H63	H	-0.779041	0.000021	-0.031733
C64	C	-1.653261	-0.197817	0.009950
N65	N	-1.653266	-0.078605	0.009953
C66	C	-1.669549	0.000003	-0.496735
N67	N	-1.762493	-0.000002	-0.469639
C68	C	-1.280228	-0.348927	0.230028
N69	N	-1.204821	-0.289329	0.274490
C70	C	-1.185179	0.000025	-0.459519
N71	N	-1.087014	0.000040	-0.417735
C72	C	-0.926222	-0.000028	-0.182340
N73	N	-0.890696	-0.000048	-0.243340
C74	C	-1.198430	0.000023	-0.634112
N75	N	-1.105488	0.000027	-0.661210
H76	H	-0.811874	0.000043	0.246871
H77	H	-1.648948	0.000023	-0.656905
H78	H	-1.293644	0.000017	-0.108479
