data_functionalizedCrystal
_audit_creation_method	'MofGen! by Chris Wilmer'
_symmetry_space_group_name_H-M	'P1'
_symmetry_Int_Tables_number	1
_symmetry_cell_setting	triclinic
loop_
_symmetry_equiv_pos_as_xyz
  x,y,z
_cell_length_a	10.654545
_cell_length_b	14.044190
_cell_length_c	9.130313
_cell_angle_alpha	89.990619
_cell_angle_beta	89.996934
_cell_angle_gamma	88.837428
loop_
_atom_site_label
_atom_site_type_symbol
_atom_site_fract_x
_atom_site_fract_y
_atom_site_fract_z
O1	O	1.681234	0.133211	-0.121803
O2	O	1.317031	0.145909	-0.121811
O3	O	1.493661	0.001540	-0.121778
O4	O	1.504604	0.277581	-0.121836
O5	O	1.493647	0.001535	0.121821
O6	O	1.317017	0.145905	0.121788
O7	O	1.681220	0.133207	0.121796
Cu8	Cu	1.499117	0.139556	0.144034
Cu9	Cu	1.499133	0.139561	-0.144050
O10	O	1.504590	0.277577	0.121763
C11	C	1.270132	0.144976	-0.000012
C12	C	1.130409	0.142189	-0.000014
C13	C	1.064765	0.140875	0.132773
C14	C	0.933481	0.138241	0.132774
C15	C	0.933495	0.138239	-0.132811
C16	C	1.064778	0.140866	-0.132810
C17	C	1.488867	-0.033808	0.000025
C18	C	1.474588	-0.139128	0.000038
C19	C	1.549753	-0.388921	-0.000018
C20	C	1.448503	-0.331957	-0.000010
C21	C	1.463020	-0.224657	0.000017
C22	C	1.535238	-0.496231	-0.000045
C23	C	1.728119	0.134141	-0.000006
C24	C	1.867842	0.136927	-0.000014
C25	C	1.509384	0.312925	-0.000044
C26	C	1.523663	0.418244	-0.000066
N27	N	1.499115	0.139552	0.346657
N28	N	1.499145	0.139557	-0.346672
C29	C	1.577359	0.075652	0.423323
C30	C	1.577371	0.075652	0.576660
C31	C	1.420893	0.203460	0.576651
C32	C	1.420875	0.203454	0.423317
H33	H	1.118198	0.141952	0.240904
O34	O	1.331988	-0.369748	-0.000076
C35	C	1.108739	-0.338637	0.000045
C36	C	1.240610	-0.295708	0.000076
H37	H	1.034824	-0.278797	0.000199
H38	H	1.096808	-0.384402	-0.101931
H39	H	1.096966	-0.384505	0.101960
H40	H	1.252474	-0.249796	-0.101771
H41	H	1.252481	-0.249998	0.102119
H42	H	1.641082	0.023618	0.639078
O43	O	0.869864	0.136842	0.261858
C44	C	0.834690	0.053977	0.488840
C45	C	0.906839	0.055458	0.342712
H46	H	0.864538	-0.011826	0.554238
H47	H	0.856451	0.120718	0.554403
H48	H	0.729588	0.051914	0.466005
H49	H	1.011960	0.057487	0.365414
H50	H	0.884974	-0.011280	0.277193
H51	H	1.647332	-0.357107	-0.000001
H52	H	1.641065	0.023617	0.360910
H53	H	0.880043	0.137163	-0.240929
H54	H	1.357154	0.255490	0.360891
O55	O	1.344780	0.265569	0.650894
C56	C	1.189622	0.392370	0.634699
C57	C	1.275737	0.322066	0.550442
H58	H	1.133797	0.438080	0.553521
H59	H	1.122184	0.351022	0.706474
H60	H	1.249209	0.440102	0.706498
H61	H	1.216250	0.274317	0.478564
H62	H	1.343180	0.363473	0.478760
O63	O	1.128355	0.142183	-0.261939
C64	C	1.114531	0.141846	-0.525363
C65	C	1.042372	0.140379	-0.379242
H66	H	1.045046	0.140368	-0.620241
H67	H	1.171887	0.209356	-0.532117
H68	H	1.180101	0.076824	-0.531899
H69	H	0.976736	0.205354	-0.372608
H70	H	0.985097	0.072826	-0.372550
