data_functionalizedCrystal
_audit_creation_method	'MofGen! by Chris Wilmer'
_symmetry_space_group_name_H-M	'P1'
_symmetry_Int_Tables_number	1
_symmetry_cell_setting	triclinic
loop_
_symmetry_equiv_pos_as_xyz
  x,y,z
_cell_length_a	19.077105
_cell_length_b	12.645330
_cell_length_c	19.076919
_cell_angle_alpha	87.723750
_cell_angle_beta	89.923776
_cell_angle_gamma	87.714233
loop_
_atom_site_label
_atom_site_type_symbol
_atom_site_fract_x
_atom_site_fract_y
_atom_site_fract_z
Zn1	Zn	1.058309	-0.512860	0.440444
Zn2	Zn	1.391643	-0.179527	0.773778
Zn3	Zn	1.724976	0.153806	1.107111
Zn4	Zn	1.062962	-0.683311	0.322946
Zn5	Zn	1.396296	-0.349978	0.656280
Zn6	Zn	1.729629	-0.016644	0.989613
Zn7	Zn	0.945526	-0.498659	0.318237
Zn8	Zn	1.278860	-0.165326	0.651570
Zn9	Zn	1.612193	0.168008	0.984904
Zn10	Zn	0.940784	-0.682672	0.435699
Zn11	Zn	1.274117	-0.349338	0.769032
Zn12	Zn	1.607451	-0.016005	1.102366
O13	O	1.001896	-0.594376	0.379332
O14	O	1.335229	-0.261042	0.712665
O15	O	1.668562	0.072291	1.045998
O16	O	1.157259	-0.541682	0.428815
O17	O	1.490592	-0.208349	0.762148
O18	O	1.823926	0.124985	1.095482
O19	O	1.051316	-0.653141	0.223990
O20	O	1.384649	-0.319807	0.557323
O21	O	1.717983	0.013526	0.890657
O22	O	0.960524	-0.352199	0.334463
O23	O	1.293858	-0.018865	0.667796
O24	O	1.627191	0.314468	1.001130
O25	O	1.160677	-0.666911	0.342490
O26	O	1.494011	-0.333578	0.675823
O27	O	1.827344	-0.000245	1.009156
O28	O	1.043386	-0.362632	0.424248
O29	O	1.376719	-0.029299	0.757582
O30	O	1.710053	0.304034	1.090915
O31	O	0.965036	-0.517478	0.220530
O32	O	1.298370	-0.184144	0.553863
O33	O	1.631703	0.149189	0.887197
O34	O	0.846565	-0.516858	0.329862
O35	O	1.179898	-0.183525	0.663195
O36	O	1.513232	0.149809	0.996528
O37	O	0.952442	-0.665822	0.534660
O38	O	1.285776	-0.332488	0.867993
O39	O	1.619109	0.000845	1.201327
O40	O	0.843081	-0.652051	0.416161
O41	O	1.176414	-0.318718	0.749494
O42	O	1.509748	0.014616	1.082827
O43	O	1.038788	-0.541062	0.538146
O44	O	1.372121	-0.207729	0.871480
O45	O	1.705454	0.125605	1.204813
O46	O	1.046718	-0.831570	0.337888
O47	O	1.380051	-0.498237	0.671222
O48	O	1.713384	-0.164904	1.004555
O49	O	0.956954	-0.831101	0.420727
O50	O	1.290287	-0.497767	0.754060
O51	O	1.623621	-0.164434	1.087394
C52	C	0.819326	-0.582845	0.371986
C53	C	1.152660	-0.249512	0.705319
C54	C	1.485993	0.083822	1.038652
C55	C	0.741222	-0.577939	0.368860
C56	C	1.074555	-0.244605	0.702193
C57	C	1.407889	0.088728	1.035526
C58	C	0.702735	-0.646120	0.412251
C59	C	1.036069	-0.312786	0.745585
C60	C	1.369402	0.020547	1.078918
C61	C	0.629348	-0.641496	0.409318
C62	C	0.962681	-0.308162	0.742651
C63	C	1.296014	0.025171	1.075984
C64	C	0.594448	-0.568695	0.362988
C65	C	0.927781	-0.235362	0.696321
C66	C	1.261115	0.097971	1.029654
C67	C	0.632940	-0.500507	0.319594
C68	C	0.966273	-0.167174	0.652927
C69	C	1.299606	0.166160	0.986261
C70	C	0.706326	-0.505126	0.322532
C71	C	1.039659	-0.171793	0.655865
C72	C	1.372992	0.161540	0.989199
C73	C	0.375159	-0.547316	0.349394
C74	C	0.708492	-0.213983	0.682727
C75	C	1.041826	0.119350	1.016061
C76	C	0.301768	-0.542704	0.346458
C77	C	0.635101	-0.209371	0.679791
C78	C	0.968434	0.123963	1.013125
C79	C	0.298181	-0.683692	0.436183
C80	C	0.631514	-0.350359	0.769516
C81	C	0.964848	-0.017025	1.102849
C82	C	0.371569	-0.688309	0.439113
C83	C	0.704902	-0.354976	0.772447
C84	C	1.038235	-0.021643	1.105780
C85	C	0.410054	-0.620117	0.395722
C86	C	0.743387	-0.286784	0.729056
C87	C	1.076721	0.046549	1.062389
N88	N	0.519434	-0.563970	0.359986
N89	N	0.852768	-0.230636	0.693320
N90	N	1.186101	0.102697	1.026653
N91	N	0.485066	-0.624839	0.398728
N92	N	0.818400	-0.291505	0.732061
N93	N	1.151733	0.041828	1.065395
C94	C	1.001845	-0.869801	0.379320
C95	C	1.335178	-0.536468	0.712653
C96	C	1.668511	-0.203135	1.045986
C97	C	1.001886	-0.987635	0.379341
C98	C	1.335220	-0.654302	0.712674
C99	C	1.668553	-0.320969	1.046007
C100	C	0.945633	-1.154972	0.431631
C101	C	1.278966	-0.821638	0.764964
C102	C	1.612300	-0.488305	1.098298
C103	C	0.945363	-1.032385	0.431445
C104	C	1.278697	-0.699051	0.764778
C105	C	1.612030	-0.365718	1.098112
C106	C	0.984820	-1.026659	0.304483
C107	C	1.318153	-0.693326	0.637816
C108	C	1.651487	-0.359993	0.971149
C109	C	0.984477	-1.149256	0.304800
C110	C	1.317810	-0.815923	0.638133
C111	C	1.651143	-0.482589	0.971467
C112	C	1.075561	-1.160522	0.401321
C113	C	1.408894	-0.827188	0.734655
C114	C	1.742227	-0.493855	1.067988
C115	C	1.075039	-1.037980	0.402922
C116	C	1.408373	-0.704647	0.736256
C117	C	1.741706	-0.371314	1.069589
C118	C	1.185178	-0.605952	0.386707
C119	C	1.518511	-0.272619	0.720040
C120	C	1.851844	0.060715	1.053374
C121	C	1.263281	-0.610885	0.389850
C122	C	1.596615	-0.277552	0.723183
C123	C	1.929948	0.055782	1.056516
C124	C	0.994567	-0.604955	0.562612
C125	C	1.327900	-0.271621	0.895946
C126	C	1.661234	0.061712	1.229279
C127	C	0.991444	-0.609463	0.640716
C128	C	1.324777	-0.276129	0.974049
C129	C	1.658111	0.057204	1.307382
C130	C	1.001965	-0.317876	0.379360
C131	C	1.335298	0.015457	0.712693
C132	C	1.668632	0.348791	1.046026
C133	C	1.001995	-0.200049	0.379372
C134	C	1.335328	0.133285	0.712705
C135	C	1.668661	0.466618	1.046038
C136	C	1.009236	-0.583764	0.196766
C137	C	1.342569	-0.250430	0.530099
C138	C	1.675903	0.082903	0.863432
C139	C	1.012495	-0.578966	0.118668
C140	C	1.345829	-0.245632	0.452001
C141	C	1.679162	0.087701	0.785335
C142	C	1.034930	-0.546628	0.679225
C143	C	1.368263	-0.213295	1.012558
C144	C	1.701596	0.120039	1.345892
C145	C	1.031987	-0.550859	0.752611
C146	C	1.365320	-0.217526	1.085944
C147	C	1.698653	0.115807	1.419278
C148	C	0.985561	-0.617932	0.787487
C149	C	1.318894	-0.284598	1.120820
C150	C	1.652228	0.048735	1.454153
C151	C	0.942070	-0.680769	0.748972
C152	C	1.275404	-0.347435	1.082305
C153	C	1.608737	-0.014102	1.415639
C154	C	0.945010	-0.676531	0.675587
C155	C	1.278344	-0.343198	1.008920
C156	C	1.611677	-0.009865	1.342254
C157	C	0.971944	-0.637565	1.006769
C158	C	1.305278	-0.304232	1.340102
C159	C	1.638611	0.029102	1.673435
C160	C	0.969009	-0.641800	1.080159
C161	C	1.302343	-0.308467	1.413492
C162	C	1.635676	0.024866	1.746825
C163	C	1.058925	-0.511889	1.083793
C164	C	1.392259	-0.178555	1.417126
C165	C	1.725592	0.154778	1.750460
C166	C	1.061864	-0.507662	1.010407
C167	C	1.395197	-0.174329	1.343740
C168	C	1.728531	0.159005	1.677073
C169	C	1.018371	-0.570495	0.971898
C170	C	1.351704	-0.237161	1.305232
C171	C	1.685037	0.096172	1.638565
N172	N	0.982553	-0.622261	0.862499
N173	N	1.315887	-0.288927	1.195832
N174	N	1.649220	0.044406	1.529166
N175	N	1.021376	-0.566159	0.896887
N176	N	1.354709	-0.232826	1.230221
N177	N	1.688042	0.100507	1.563554
H178	H	0.273354	-0.483409	0.308735
H179	H	0.606688	-0.150076	0.642068
H180	H	0.940021	0.183257	0.975401
H181	H	1.023908	-1.178854	0.264375
H182	H	1.357242	-0.845520	0.597708
H183	H	1.690575	-0.512187	0.931041
F184	F	0.925655	-0.704438	0.965794
F185	F	1.258988	-0.371105	1.299128
F186	F	1.592321	-0.037772	1.632461
H187	H	1.117515	-1.189748	0.363295
H188	H	1.450848	-0.856415	0.696628
H189	H	1.784182	-0.523082	1.029962
H190	H	0.406485	-0.491797	0.314057
H191	H	0.739819	-0.158464	0.647390
H192	H	1.073152	0.174869	0.980723
H193	H	0.955696	-1.006214	0.486858
H194	H	1.289029	-0.672881	0.820192
H195	H	1.622362	-0.339548	1.153525
F196	F	0.958974	-1.198628	0.504292
F197	F	1.292308	-0.865295	0.837625
F198	F	1.625641	-0.531962	1.170958
F199	F	1.096671	-1.206377	0.471663
F200	F	1.430005	-0.873044	0.804996
F201	F	1.763338	-0.539710	1.138330
F202	F	1.084347	-0.475245	0.642115
F203	F	1.417680	-0.141912	0.975448
F204	F	1.751013	0.191422	1.308781
H205	H	0.931710	-0.991707	0.285967
H206	H	1.265043	-0.658374	0.619300
H207	H	1.598376	-0.325041	0.952634
H208	H	0.604518	-0.441227	0.281874
H209	H	0.937852	-0.107894	0.615208
H210	H	1.271185	0.225440	0.948541
H211	H	0.266839	-0.739209	0.471510
H212	H	0.600172	-0.405875	0.804843
H213	H	0.933505	-0.072542	1.138177
F214	F	1.105209	-0.445020	1.124781
F215	F	1.438542	-0.111686	1.458115
F216	F	1.771876	0.221647	1.791448
F217	F	0.919591	-0.713187	1.117274
F218	F	1.252925	-0.379853	1.450607
F219	F	1.586258	-0.046520	1.783941
H220	H	1.067399	-0.499695	0.783962
H221	H	1.400733	-0.166362	1.117296
H222	H	1.734066	0.166972	1.450629
F223	F	1.036947	-0.988531	0.252025
F224	F	1.370280	-0.655197	0.585358
F225	F	1.703614	-0.321864	0.918692
F226	F	0.747286	-0.432557	0.276350
F227	F	1.080619	-0.099223	0.609683
F228	F	1.413952	0.234110	0.943016
F229	F	1.111277	-0.436275	0.973295
F230	F	1.444610	-0.102941	1.306628
F231	F	1.777944	0.230392	1.639962
H232	H	0.904267	-0.735377	0.777373
H233	H	1.237600	-0.402043	1.110707
H234	H	1.570933	-0.068710	1.444040
H235	H	0.909592	-0.727687	0.644233
H236	H	1.242926	-0.394354	0.977567
H237	H	1.576259	-0.061020	1.310900
F238	F	0.874711	-1.189925	0.412557
F239	F	1.208045	-0.856592	0.745890
F240	F	1.541378	-0.523259	1.079223
H241	H	0.731145	-0.705405	0.449976
H242	H	1.064479	-0.372072	0.783309
H243	H	1.397812	-0.038738	1.116643
H244	H	0.598015	-0.697017	0.444651
H245	H	0.931349	-0.363684	0.777985
H246	H	1.264682	-0.030350	1.111318
H247	H	0.890765	-0.998945	0.416668
H248	H	1.224098	-0.665612	0.750001
H249	H	1.557431	-0.332279	1.083335
H250	H	0.399979	-0.747594	0.476839
H251	H	0.733312	-0.414260	0.810172
H252	H	1.066646	-0.080927	1.143505
F253	F	0.914302	-1.181063	0.280949
F254	F	1.247636	-0.847729	0.614282
F255	F	1.580969	-0.514396	0.947616
F256	F	1.091935	-1.005268	0.474951
F257	F	1.425268	-0.671935	0.808284
F258	F	1.758601	-0.338601	1.141617
H259	H	1.119004	-1.007870	0.367868
H260	H	1.452338	-0.674537	0.701201
H261	H	1.785671	-0.341204	1.034535
