data_functionalizedCrystal
_audit_creation_method	'MofGen! by Chris Wilmer'
_symmetry_space_group_name_H-M	'P1'
_symmetry_Int_Tables_number	1
_symmetry_cell_setting	triclinic
loop_
_symmetry_equiv_pos_as_xyz
  x,y,z
_cell_length_a	12.759401
_cell_length_b	19.805399
_cell_length_c	12.759399
_cell_angle_alpha	89.976347
_cell_angle_beta	90.015542
_cell_angle_gamma	89.984441
loop_
_atom_site_label
_atom_site_type_symbol
_atom_site_fract_x
_atom_site_fract_y
_atom_site_fract_z
Zn1	Zn	1.606221	-0.382666	-0.418279
Zn2	Zn	1.606123	-0.269485	-0.593972
Zn3	Zn	1.430532	-0.269498	-0.418309
Zn4	Zn	1.430510	-0.382640	-0.593918
O5	O	1.518346	-0.326072	-0.506119
O6	O	1.753229	-0.367657	-0.441595
O7	O	1.582799	-0.174770	-0.570705
O8	O	1.453887	-0.284526	-0.271284
O9	O	1.753157	-0.284504	-0.570676
O10	O	1.582965	-0.367670	-0.271262
O11	O	1.453793	-0.174780	-0.441647
O12	O	1.283508	-0.284501	-0.441594
O13	O	1.453850	-0.477360	-0.570583
O14	O	1.283492	-0.367626	-0.570613
O15	O	1.582944	-0.477379	-0.441542
O16	O	1.582778	-0.284479	-0.740986
O17	O	1.453755	-0.367613	-0.740946
C18	C	1.245379	-0.326063	-0.506101
C19	C	1.128602	-0.326075	-0.506119
C20	C	1.073778	-0.369439	-0.439028
C21	C	0.964054	-0.369444	-0.439038
C22	C	0.963988	-0.282717	-0.573240
C23	C	1.073710	-0.282710	-0.573224
C24	C	1.518405	-0.502615	-0.506053
C25	C	1.518430	-0.577847	-0.506025
C26	C	1.585651	-0.613202	-0.438830
C27	C	1.585662	-0.683891	-0.438799
C28	C	1.518457	-0.719223	-0.505970
C29	C	1.451228	-0.683863	-0.573168
C30	C	1.451213	-0.613175	-0.573192
C31	C	1.451288	-0.968936	-0.573070
C32	C	1.451310	-1.039628	-0.573043
C33	C	1.585736	-1.039651	-0.438677
C34	C	1.585721	-0.968964	-0.438702
C35	C	1.518490	-0.933610	-0.505895
C36	C	1.518477	-0.856962	-0.505926
C37	C	1.518473	-0.795870	-0.505945
C38	C	1.792380	-0.326082	-0.506138
C39	C	1.909156	-0.326086	-0.506146
C40	C	1.518282	-0.326057	-0.779087
C41	C	1.518351	-0.326073	-0.895863
C42	C	1.518348	-0.150216	-0.506109
C43	C	1.518527	-0.074985	-0.505842
C44	C	1.585609	-0.282834	-0.950711
C45	C	1.585677	-0.282857	-1.060435
C46	C	1.451218	-0.369359	-1.060454
C47	C	1.451157	-0.369339	-0.950732
C48	C	1.518440	-0.326102	-0.232086
C49	C	1.518479	-0.326115	-0.115309
H50	H	1.640381	-0.584440	-0.384135
H51	H	1.396386	-0.404553	-0.906072
H52	H	1.640447	-0.247648	-1.105088
O53	O	0.910615	-0.240696	-0.638541
C54	C	0.847145	-0.279161	-0.706470
H55	H	0.880244	-0.332459	-0.713063
H56	H	0.763994	-0.281536	-0.674004
C57	C	0.804774	-0.180510	-0.807524
C58	C	0.845432	-0.245971	-0.815629
H59	H	0.803712	-0.160036	-0.874857
H60	H	0.847531	-0.154595	-0.761757
H61	H	0.735485	-0.182498	-0.780465
H62	H	0.914723	-0.243981	-0.842674
H63	H	0.802685	-0.271885	-0.861403
O64	O	0.910684	-0.411604	-0.374016
C65	C	0.847252	-0.455267	-0.433934
H66	H	0.830787	-0.431303	-0.513503
H67	H	0.889566	-0.505409	-0.445582
C68	C	0.763267	-0.497029	-0.278437
C69	C	0.743037	-0.467594	-0.376162
H70	H	0.698985	-0.504637	-0.242800
H71	H	0.806005	-0.467615	-0.238068
H72	H	0.798532	-0.538812	-0.288158
H73	H	0.707785	-0.425809	-0.366440
H74	H	0.700291	-0.497002	-0.416528
H75	H	1.396509	-0.404584	-1.105141
H76	H	1.640324	-0.247605	-0.906040
O77	O	1.126811	-0.240561	-0.638500
C78	C	1.054836	-0.202280	-0.697720
H79	H	0.976637	-0.230003	-0.701433
H80	H	1.043141	-0.150919	-0.659141
C81	C	1.193692	-0.158346	-0.804948
C82	C	1.097649	-0.192398	-0.809515
H83	H	1.220101	-0.152247	-0.873907
H84	H	1.242184	-0.184134	-0.765048
H85	H	1.183933	-0.115548	-0.772794
H86	H	1.107411	-0.235198	-0.841656
H87	H	1.049159	-0.166617	-0.849423
O88	O	1.650913	-0.718155	-0.373378
C89	C	1.627969	-0.700896	-0.268673
H90	H	1.587566	-0.649571	-0.266520
H91	H	1.573980	-0.740679	-0.233257
C92	C	1.780039	-0.760674	-0.207689
C93	C	1.730423	-0.697633	-0.205045
H94	H	1.843236	-0.758664	-0.168438
H95	H	1.795495	-0.772304	-0.278231
H96	H	1.735038	-0.793820	-0.178178
H97	H	1.775419	-0.664491	-0.234568
H98	H	1.714977	-0.685998	-0.134507
O99	O	1.126939	-0.411581	-0.373742
C100	C	1.055016	-0.449868	-0.314547
H101	H	0.976788	-0.422152	-0.310864
H102	H	1.043369	-0.501231	-0.353130
C103	C	1.193937	-0.493789	-0.207268
C104	C	1.097859	-0.459745	-0.202736
H105	H	1.220366	-0.499885	-0.138299
H106	H	1.242395	-0.467997	-0.247151
H107	H	1.184218	-0.536588	-0.239425
H108	H	1.107581	-0.416945	-0.170593
H109	H	1.049404	-0.485531	-0.162846
O110	O	1.651037	-0.934748	-0.373352
C111	C	1.710390	-0.981112	-0.314053
H112	H	1.667371	-1.031498	-0.310395
H113	H	1.790173	-0.988630	-0.352527
C114	C	1.778395	-0.891653	-0.206738
C115	C	1.725555	-0.953537	-0.202239
H116	H	1.787755	-0.874643	-0.137767
H117	H	1.738412	-0.860416	-0.246691
H118	H	1.844875	-0.897927	-0.238805
H119	H	1.659072	-0.947261	-0.170185
H120	H	1.765528	-0.984773	-0.162277
H121	H	1.640476	-1.068445	-0.383961
H122	H	1.396579	-1.068394	-0.627743
O123	O	1.385936	-0.934704	-0.638426
C124	C	1.326600	-0.981049	-0.697678
H125	H	1.369659	-1.031435	-0.701324
H126	H	1.246838	-0.988579	-0.659172
C127	C	1.258483	-0.891557	-0.805018
C128	C	1.311372	-0.953440	-0.809502
H129	H	1.249085	-0.874526	-0.873995
H130	H	1.298455	-0.860333	-0.765096
H131	H	1.192020	-0.897840	-0.772924
H132	H	1.377839	-0.947155	-0.841583
H133	H	1.271411	-0.984663	-0.849433
O134	O	1.385996	-0.718108	-0.638564
C135	C	1.408933	-0.700836	-0.743284
H136	H	1.449306	-0.649515	-0.745482
H137	H	1.462947	-0.740619	-0.778661
C138	C	1.256901	-0.760589	-0.804219
C139	C	1.306480	-0.697553	-0.806918
H140	H	1.193705	-0.758567	-0.843474
H141	H	1.241449	-0.772228	-0.733667
H142	H	1.301923	-0.793735	-0.833698
H143	H	1.261463	-0.664410	-0.777428
H144	H	1.321922	-0.685908	-0.877467
O145	O	1.386068	-0.578751	-0.638520
C146	C	1.445859	-0.537872	-0.706407
H147	H	1.525490	-0.527299	-0.669360
H148	H	1.457380	-0.565102	-0.784260
C149	C	1.290238	-0.483700	-0.770945
C150	C	1.388038	-0.470710	-0.725438
H151	H	1.254570	-0.442273	-0.782689
H152	H	1.249954	-0.511243	-0.725211
H153	H	1.299852	-0.506394	-0.835817
H154	H	1.378422	-0.448025	-0.660562
H155	H	1.428319	-0.443162	-0.771162
