data_functionalizedCrystal
_audit_creation_method	'MofGen! by Chris Wilmer'
_symmetry_space_group_name_H-M	'P1'
_symmetry_Int_Tables_number	1
_symmetry_cell_setting	triclinic
loop_
_symmetry_equiv_pos_as_xyz
  x,y,z
_cell_length_a	12.759401
_cell_length_b	29.839131
_cell_length_c	12.759393
_cell_angle_alpha	90.036816
_cell_angle_beta	90.020938
_cell_angle_gamma	90.042945
loop_
_atom_site_label
_atom_site_type_symbol
_atom_site_fract_x
_atom_site_fract_y
_atom_site_fract_z
Zn1	Zn	1.606071	-0.178813	0.593974
Zn2	Zn	1.605880	-0.253950	0.418275
Zn3	Zn	1.430370	-0.178837	0.418309
Zn4	Zn	1.430280	-0.253919	0.593912
O5	O	1.518150	-0.216380	0.506117
O6	O	1.753067	-0.188784	0.570679
O7	O	1.582556	-0.244010	0.271258
O8	O	1.453795	-0.115967	0.441652
O9	O	1.752927	-0.243986	0.441593
O10	O	1.582882	-0.115949	0.570712
O11	O	1.453610	-0.188824	0.271283
O12	O	1.283337	-0.188794	0.441592
O13	O	1.453641	-0.243933	0.740941
O14	O	1.283271	-0.243956	0.570606
O15	O	1.582794	-0.188753	0.740987
O16	O	1.582469	-0.316813	0.441533
O17	O	1.453456	-0.316790	0.570573
C18	C	1.245183	-0.216375	0.506097
C19	C	1.128406	-0.216383	0.506113
C20	C	1.073538	-0.245150	0.573185
C21	C	0.963813	-0.245151	0.573206
C22	C	0.963837	-0.187618	0.439073
C23	C	1.073559	-0.187615	0.439058
C24	C	1.517961	-0.333103	0.506065
C25	C	1.517976	-0.383037	0.506078
C26	C	1.585450	-0.692680	0.439024
C27	C	1.585579	-0.880353	0.439065
O28	O	1.642798	-0.904617	0.382014
N29	N	1.518368	-0.903822	0.506197
C30	C	1.451125	-0.880370	0.573327
O31	O	1.393969	-0.904638	0.630435
C32	C	1.451001	-0.692698	0.573291
C33	C	1.518209	-0.669231	0.506148
C34	C	1.652653	-0.669213	0.371888
C35	C	1.652616	-0.622297	0.371874
C36	C	1.585375	-0.598849	0.438997
C37	C	1.518172	-0.622316	0.506134
C38	C	1.383764	-0.669247	0.640427
C39	C	1.383741	-0.622326	0.640413
C40	C	1.450949	-0.598859	0.573270
C41	C	1.450895	-0.551952	0.573244
N42	N	1.518106	-0.528482	0.506113
C43	C	1.585346	-0.551931	0.438989
C44	C	1.451193	-0.978901	0.573340
C45	C	1.451223	-1.025819	0.573348
C46	C	1.585679	-1.025798	0.439087
C47	C	1.585643	-0.978879	0.439075
C48	C	1.518404	-0.955431	0.506209
C49	C	1.585262	-0.453405	0.438965
C50	C	1.585216	-0.406486	0.438955
C51	C	1.450764	-0.406510	0.573219
C52	C	1.450806	-0.453426	0.573226
C53	C	1.518064	-0.476872	0.506096
O54	O	1.393715	-0.527659	0.630274
O55	O	1.642510	-0.527655	0.381907
C56	C	1.585487	-0.739595	0.439038
C57	C	1.518284	-0.763062	0.506175
C58	C	1.451043	-0.739613	0.573298
C59	C	1.518313	-0.809980	0.506183
C60	C	1.585553	-0.833428	0.439060
C61	C	1.652764	-0.809959	0.371928
C62	C	1.652727	-0.763044	0.371915
C63	C	1.383832	-0.763083	0.640430
C64	C	1.383874	-0.809998	0.640437
C65	C	1.451114	-0.833447	0.573314
C66	C	1.792184	-0.216386	0.506139
C67	C	1.908960	-0.216388	0.506148
C68	C	1.518229	-0.216337	0.780151
C69	C	1.518263	-0.216318	0.896928
C70	C	1.518370	-0.099202	0.506193
C71	C	1.518463	-0.049267	0.506225
C72	C	1.518133	-0.216391	0.233150
C73	C	1.518303	-0.216282	0.116374
C74	C	1.585518	-0.187582	0.951815
C75	C	1.585535	-0.187562	1.061539
C76	C	1.451040	-0.245020	1.061479
C77	C	1.451018	-0.245037	0.951757
H78	H	1.640032	-0.472490	0.384304
C79	C	1.658499	-0.156289	1.120994
C80	C	1.635722	-0.111844	1.094300
C81	C	1.702926	-0.083021	1.149036
H82	H	1.648952	-0.160328	1.194210
H83	H	1.729090	-0.162844	1.102996
H84	H	1.565148	-0.105292	1.112304
H85	H	1.645276	-0.107792	1.021093
H86	H	1.773517	-0.089576	1.131038
H87	H	1.693373	-0.087064	1.222249
H88	H	1.687488	-0.052863	1.130924
C89	C	1.377867	-0.276148	1.120953
C90	C	1.273929	-0.266359	1.094276
C91	C	1.206494	-0.295022	1.149050
H92	H	1.393043	-0.306351	1.102996
H93	H	1.387442	-0.272020	1.194172
H94	H	1.264359	-0.270490	1.021074
H95	H	1.258720	-0.236160	1.112236
H96	H	1.216068	-0.290894	1.222268
H97	H	1.221679	-0.325224	1.131088
H98	H	1.135964	-0.288382	1.130964
C99	C	1.133222	-0.276306	0.646054
C100	C	1.196307	-0.250901	0.713475
C101	C	1.251310	-0.279586	0.780611
H102	H	1.084946	-0.293448	0.686105
H103	H	1.176035	-0.295852	0.605806
H104	H	1.153498	-0.231362	0.753719
H105	H	1.244602	-0.233760	0.673453
H106	H	1.294123	-0.299133	0.740363
H107	H	1.203027	-0.296727	0.820655
H108	H	1.294127	-0.262353	0.826358
C109	C	0.904376	-0.276360	0.646196
C110	C	0.931159	-0.266640	0.750182
C111	C	0.876438	-0.295384	0.817453
H112	H	0.831158	-0.272271	0.636749
H113	H	0.922324	-0.306544	0.630745
H114	H	0.913204	-0.236463	0.765627
H115	H	1.004368	-0.270731	0.759662
H116	H	0.894385	-0.325568	0.802002
H117	H	0.803222	-0.291293	0.807997
H118	H	0.894610	-0.288796	0.888014
H119	H	1.396243	-0.268438	0.907066
C120	C	0.904475	-0.156340	0.366226
C121	C	0.976016	-0.131138	0.307503
C122	C	0.921373	-0.102316	0.240392
H123	H	0.861621	-0.173454	0.320287
H124	H	0.861744	-0.136764	0.406481
H125	H	1.018729	-0.150712	0.267251
H126	H	1.018872	-0.114015	0.353414
H127	H	0.878642	-0.082740	0.280646
H128	H	0.878521	-0.119434	0.194460
H129	H	0.969905	-0.085210	0.200547
C130	C	1.133273	-0.156454	0.366170
C131	C	1.196214	-0.181854	0.298733
C132	C	1.251248	-0.153164	0.231590
H133	H	1.085016	-0.139313	0.326131
H134	H	1.176187	-0.136906	0.406413
H135	H	1.153304	-0.201394	0.258494
H136	H	1.244490	-0.198994	0.338742
H137	H	1.294161	-0.133617	0.271833
H138	H	1.202983	-0.136025	0.191559
H139	H	1.293966	-0.170394	0.185833
H140	H	1.639945	-0.387380	0.384275
H141	H	1.707345	-0.603193	0.317203
H142	H	1.396437	-0.959813	0.628010
C143	C	1.725700	-0.694585	0.298884
C144	C	1.784519	-0.663983	0.240078
C145	C	1.851809	-0.687335	0.172796
H146	H	1.771570	-0.712859	0.338987
H147	H	1.685569	-0.712908	0.253013
H148	H	1.824647	-0.645668	0.285943
H149	H	1.738678	-0.645708	0.199954
H150	H	1.811678	-0.705658	0.126925
H151	H	1.897672	-0.705608	0.212907
H152	H	1.891719	-0.666575	0.132881
C153	C	1.658731	-0.953484	0.366141
C154	C	1.717633	-0.984067	0.307379
C155	C	1.784986	-0.960693	0.240189
H156	H	1.618674	-0.935211	0.320230
H157	H	1.704538	-0.935160	0.406341
H158	H	1.671833	-1.002384	0.267181
H159	H	1.757711	-1.002342	0.353261
H160	H	1.830793	-0.942368	0.280390
H161	H	1.744921	-0.942420	0.194286
H162	H	1.824966	-0.981440	0.200318
C163	C	1.377797	-0.478826	0.646236
C164	C	1.318919	-0.448246	0.705032
C165	C	1.251671	-0.471624	0.772319
H166	H	1.331962	-0.497168	0.606137
H167	H	1.417960	-0.497082	0.692113
H168	H	1.278759	-0.429998	0.659161
H169	H	1.364726	-0.429903	0.745153
H170	H	1.291834	-0.489880	0.818196
H171	H	1.205843	-0.489966	0.732212
H172	H	1.211722	-0.450879	0.812227
C173	C	1.378205	-1.051213	0.646354
C174	C	1.319339	-1.020629	0.705152
C175	C	1.252076	-1.044004	0.772433
H176	H	1.332363	-1.069550	0.606250
H177	H	1.418358	-1.069473	0.692230
H178	H	1.279188	-1.002377	0.659282
H179	H	1.365152	-1.002291	0.745277
H180	H	1.292230	-1.062265	0.818308
H181	H	1.206242	-1.062341	0.732320
H182	H	1.212135	-1.023257	0.812342
C183	C	1.658343	-0.156371	0.892153
C184	C	1.598894	-0.127593	0.829154
C185	C	1.665943	-0.098837	0.774173
H186	H	1.698420	-0.139211	0.940442
H187	H	1.704066	-0.173549	0.849285
H188	H	1.553189	-0.110416	0.872019
H189	H	1.558819	-0.144741	0.780845
H190	H	1.711667	-0.116015	0.731304
H191	H	1.706017	-0.081679	0.822469
H192	H	1.625618	-0.079310	0.731414
H193	H	1.329136	-0.829101	0.695112
C194	C	1.310758	-0.694636	0.713447
C195	C	1.251900	-0.664049	0.772244
C196	C	1.184643	-0.687420	0.839537
H197	H	1.264911	-0.712974	0.673352
H198	H	1.350914	-0.712895	0.759323
H199	H	1.211746	-0.645798	0.726374
H200	H	1.297719	-0.645710	0.812360
H201	H	1.224800	-0.705679	0.885413
H202	H	1.138803	-0.705758	0.799433
H203	H	1.144707	-0.666671	0.879445
H204	H	1.707454	-0.743940	0.317241
C205	C	1.310910	-0.596844	0.713433
C206	C	1.370346	-0.569869	0.780834
C207	C	1.303292	-0.546394	0.848119
H208	H	1.265116	-0.578539	0.673324
H209	H	1.270910	-0.617527	0.753480
H210	H	1.410328	-0.549188	0.740791
H211	H	1.416137	-0.588163	0.820966
H212	H	1.263292	-0.567077	0.888167
H213	H	1.257501	-0.528091	0.808002
H214	H	1.343609	-0.528091	0.893865
C215	C	1.725930	-0.835440	0.299243
C216	C	1.793265	-0.862308	0.358834
C217	C	1.860701	-0.885782	0.291930
H218	H	1.685928	-0.853818	0.253403
H219	H	1.766019	-0.814756	0.259286
H220	H	1.753180	-0.882990	0.398773
H221	H	1.833290	-0.843941	0.404671
H222	H	1.900790	-0.865098	0.251973
H223	H	1.820690	-0.904158	0.246093
H224	H	1.906402	-0.904012	0.332352
H225	H	1.396015	-0.387411	0.627867
H226	H	1.640429	-1.044898	0.384433
H227	H	1.329078	-0.743995	0.695091
