data_functionalizedCrystal
_audit_creation_method	'MofGen! by Chris Wilmer'
_symmetry_space_group_name_H-M	'P1'
_symmetry_Int_Tables_number	1
_symmetry_cell_setting	triclinic
loop_
_symmetry_equiv_pos_as_xyz
  x,y,z
_cell_length_a	16.120530
_cell_length_b	21.295417
_cell_length_c	16.120297
_cell_angle_alpha	87.132998
_cell_angle_beta	89.871860
_cell_angle_gamma	87.125778
loop_
_atom_site_label
_atom_site_type_symbol
_atom_site_fract_x
_atom_site_fract_y
_atom_site_fract_z
Zn1	Zn	1.247391	-0.318915	0.534523
Zn2	Zn	1.747391	0.181085	1.034523
Zn3	Zn	1.254326	-0.419125	0.395453
Zn4	Zn	1.754326	0.080875	0.895453
Zn5	Zn	1.115383	-0.308278	0.388443
Zn6	Zn	1.615383	0.191722	0.888443
Zn7	Zn	1.108282	-0.418545	0.527422
Zn8	Zn	1.608282	0.081455	1.027422
O9	O	1.181345	-0.366216	0.461460
O10	O	1.681345	0.133784	0.961460
O11	O	1.364676	-0.336903	0.521981
O12	O	1.864676	0.163097	1.021981
O13	O	1.241769	-0.400212	0.278158
O14	O	1.741769	0.099788	0.778158
O15	O	1.132963	-0.221604	0.407859
O16	O	1.632963	0.278396	0.907859
O17	O	1.369771	-0.410526	0.419806
O18	O	1.869771	0.089474	0.919806
O19	O	1.229949	-0.229419	0.515184
O20	O	1.729949	0.270581	1.015184
O21	O	1.139688	-0.318773	0.273008
O22	O	1.639688	0.181227	0.773008
O23	O	0.998075	-0.318211	0.400973
O24	O	1.498075	0.181789	0.900973
O25	O	1.120862	-0.409538	0.644729
O26	O	1.620862	0.090462	1.144729
O27	O	0.992859	-0.399224	0.503081
O28	O	1.492859	0.100776	1.003081
O29	O	1.223064	-0.336340	0.649946
O30	O	1.723064	0.163660	1.149946
O31	O	1.234884	-0.507133	0.412921
O32	O	1.734884	-0.007133	0.912921
O33	O	1.127586	-0.506707	0.509878
O34	O	1.627586	-0.006707	1.009878
C35	C	0.965295	-0.357501	0.450496
C36	C	1.465295	0.142499	0.950496
C37	C	0.872866	-0.353788	0.445825
C38	C	1.372866	0.146212	0.945825
C39	C	0.703638	-0.346996	0.437305
C40	C	1.203638	0.153004	0.937305
C41	C	0.659891	-0.385485	0.485677
C42	C	1.159891	0.114515	0.985677
C43	C	0.565726	-0.381705	0.480936
C44	C	1.065726	0.118295	0.980936
C45	C	0.797811	-0.350774	0.442045
C46	C	1.297811	0.149226	0.942045
C47	C	1.181239	-0.529761	0.461409
C48	C	1.681239	-0.029761	0.961409
C49	C	1.181268	-0.599731	0.461418
C50	C	1.681268	-0.099731	0.961418
C51	C	1.237182	-0.632802	0.410990
C52	C	1.737182	-0.132802	0.910990
C53	C	1.237220	-0.698547	0.411010
C54	C	1.737220	-0.198547	0.911010
C55	C	1.181329	-0.731217	0.461450
C56	C	1.681329	-0.231217	0.961450
C57	C	1.125411	-0.698138	0.511889
C58	C	1.625411	-0.198138	1.011889
C59	C	1.125380	-0.632395	0.511873
C60	C	1.625380	-0.132395	1.011873
N61	N	1.108264	-0.831783	0.464098
N62	N	1.608264	-0.331783	0.964098
N63	N	1.108296	-0.894236	0.464108
N64	N	1.608296	-0.394236	0.964108
C65	C	1.181420	-0.929297	0.461503
C66	C	1.681420	-0.429297	0.961503
N67	N	1.254514	-0.899546	0.458870
N68	N	1.754514	-0.399546	0.958870
N69	N	1.254481	-0.837087	0.458855
N70	N	1.754481	-0.337087	0.958855
C71	C	1.181357	-0.802504	0.461473
C72	C	1.681357	-0.302504	0.961473
C73	C	1.237380	-1.033657	0.411094
C74	C	1.737380	-0.533657	0.911094
C75	C	1.237419	-1.099403	0.411120
C76	C	1.737419	-0.599403	0.911120
C77	C	1.125603	-1.098992	0.511994
C78	C	1.625603	-0.598992	1.011994
C79	C	1.125571	-1.033248	0.511973
C80	C	1.625571	-0.533248	1.011973
C81	C	1.181459	-1.000584	0.461518
C82	C	1.681459	-0.500584	0.961518
C83	C	1.398240	-0.374966	0.472468
C84	C	1.898240	0.125034	0.972468
C85	C	1.490667	-0.378694	0.477159
C86	C	1.990667	0.121306	0.977159
C87	C	1.170397	-0.374061	0.678353
C88	C	1.670397	0.125939	1.178353
C89	C	1.165731	-0.377404	0.770780
C90	C	1.665731	0.122596	1.270780
C91	C	1.181474	-0.202033	0.461531
C92	C	1.681474	0.297967	0.961531
C93	C	1.181529	-0.132068	0.461562
C94	C	1.681529	0.367932	0.961562
C95	C	1.192299	-0.358358	0.245413
C96	C	1.692299	0.141642	0.745413
C97	C	1.197126	-0.354844	0.152995
C98	C	1.697126	0.145156	0.652995
C99	C	1.157183	-0.383493	0.940004
C100	C	1.657183	0.116507	1.440004
C101	C	1.205672	-0.348757	0.983777
C102	C	1.705672	0.151243	1.483777
C103	C	1.200915	-0.352144	1.077938
C104	C	1.700915	0.147856	1.577938
C105	C	1.161938	-0.380106	0.845834
C106	C	1.661938	0.119894	1.345834
H107	H	0.670373	-0.311209	0.392335
H108	H	1.170373	0.188791	0.892335
H109	H	1.079847	-0.605468	0.552939
H110	H	1.579847	-0.105468	1.052939
C111	C	1.265754	-0.305763	0.939305
C112	C	1.765754	0.194237	1.439305
C113	C	1.258601	-0.310917	0.853398
C114	C	1.758601	0.189083	1.353398
C115	C	1.313935	-0.271325	0.812402
C116	C	1.813935	0.228675	1.312402
H117	H	1.252964	-0.263454	0.952789
H118	H	1.752964	0.236546	1.452789
H119	H	1.320941	-0.317728	0.956278
H120	H	1.820941	0.182272	1.456278
H121	H	1.203427	-0.298949	0.836432
H122	H	1.703427	0.201051	1.336432
H123	H	1.271398	-0.353217	0.839890
H124	H	1.771398	0.146783	1.339890
H125	H	1.369122	-0.283290	0.829374
H126	H	1.869122	0.216710	1.329374
H127	H	1.301140	-0.229019	0.825892
H128	H	1.801140	0.270981	1.325892
H129	H	1.309094	-0.274821	0.754110
H130	H	1.809094	0.225179	1.254110
C131	C	1.097158	-0.426526	0.984478
C132	C	1.597158	0.073474	1.484478
C133	C	1.104342	-0.421388	1.070385
C134	C	1.604342	0.078612	1.570385
C135	C	1.049072	-0.461028	1.111392
C136	C	1.549072	0.038972	1.611392
H137	H	1.041954	-0.414607	0.967555
H138	H	1.541954	0.085393	1.467555
H139	H	1.110007	-0.468826	0.970952
H140	H	1.610007	0.031174	1.470952
H141	H	1.091487	-0.379098	1.083905
H142	H	1.591487	0.120902	1.583905
H143	H	1.159534	-0.433312	1.087332
H144	H	1.659534	0.066688	1.587332
H145	H	1.061922	-0.503328	1.097866
H146	H	1.561922	-0.003328	1.597866
H147	H	0.993872	-0.449106	1.094463
H148	H	1.493872	0.050894	1.594463
H149	H	1.053945	-0.457551	1.169684
H150	H	1.553945	0.042449	1.669684
H151	H	1.282691	-0.606210	0.369908
H152	H	1.782691	-0.106210	0.869908
C153	C	0.704395	-0.433189	0.545559
C154	C	1.204395	0.066811	1.045559
C155	C	0.790300	-0.427518	0.538394
C156	C	1.290300	0.072482	1.038394
C157	C	0.831328	-0.471457	0.593532
C158	C	1.331328	0.028543	1.093532
H159	H	0.687511	-0.425555	0.600793
H160	H	1.187511	0.074445	1.100793
H161	H	0.690848	-0.474481	0.532574
H162	H	1.190848	0.025519	1.032574
H163	H	0.803842	-0.386235	0.551385
H164	H	1.303842	0.113765	1.051385
H165	H	0.807209	-0.435158	0.483172
H166	H	1.307209	0.064842	0.983172
H167	H	0.817781	-0.512749	0.580548
H168	H	1.317781	-0.012749	1.080548
H169	H	0.814437	-0.463819	0.648764
H170	H	1.314437	0.036181	1.148764
H171	H	0.889619	-0.467618	0.588674
H172	H	1.389619	0.032382	1.088674
H173	H	1.282755	-0.725479	0.369945
H174	H	1.782755	-0.225479	0.869945
H175	H	1.079906	-0.724742	0.552959
H176	H	1.579906	-0.224742	1.052959
C177	C	1.298151	-0.998304	0.356294
C178	C	1.798151	-0.498304	0.856294
C179	C	1.347148	-1.041344	0.312154
C180	C	1.847148	-0.541344	0.812154
C181	C	1.403145	-1.008803	0.261671
C182	C	1.903145	-0.508803	0.761671
H183	H	1.268282	-0.970102	0.318347
H184	H	1.768282	-0.470102	0.818347
H185	H	1.332783	-0.975243	0.389945
H186	H	1.832783	-0.475243	0.889945
H187	H	1.312521	-1.064394	0.278505
H188	H	1.812521	-0.564394	0.778505
H189	H	1.377035	-1.069547	0.350079
H190	H	1.877035	-0.569547	0.850079
H191	H	1.437777	-0.985742	0.295322
H192	H	1.937777	-0.485742	0.795322
H193	H	1.373269	-0.980602	0.223729
H194	H	1.873269	-0.480602	0.723729
H195	H	1.436401	-1.038000	0.231722
H196	H	1.936401	-0.538000	0.731722
C197	C	1.298305	-1.135325	0.356558
C198	C	1.798305	-0.635325	0.856558
C199	C	1.349219	-1.176813	0.406456
C200	C	1.849219	-0.676813	0.906456
C201	C	1.405359	-1.209896	0.356245
C202	C	1.905359	-0.709896	0.856245
H203	H	1.268545	-1.158496	0.318650
H204	H	1.768545	-0.658496	0.818650
H205	H	1.331625	-1.106450	0.326567
H206	H	1.831625	-0.606450	0.826567
H207	H	1.315903	-1.205685	0.436434
H208	H	1.815903	-0.705685	0.936434
H209	H	1.378997	-1.153658	0.444363
H210	H	1.878997	-0.653658	0.944363
H211	H	1.438679	-1.181021	0.326253
H212	H	1.938679	-0.681021	0.826253
H213	H	1.375591	-1.233064	0.318339
H214	H	1.875591	-0.733064	0.818339
H215	H	1.439915	-1.238045	0.390094
H216	H	1.939915	-0.738045	0.890094
H217	H	1.080099	-1.125592	0.553068
H218	H	1.580099	-0.625592	1.053068
H219	H	1.080037	-1.006319	0.553033
H220	H	1.580037	-0.506319	1.053033
