data_functionalizedCrystal
_audit_creation_method	'MofGen! by Chris Wilmer'
_symmetry_space_group_name_H-M	'P1'
_symmetry_Int_Tables_number	1
_symmetry_cell_setting	triclinic
loop_
_symmetry_equiv_pos_as_xyz
  x,y,z
_cell_length_a	18.215405
_cell_length_b	11.169417
_cell_length_c	11.169409
_cell_angle_alpha	90.021649
_cell_angle_beta	89.960202
_cell_angle_gamma	89.976893
loop_
_atom_site_label
_atom_site_type_symbol
_atom_site_fract_x
_atom_site_fract_y
_atom_site_fract_z
Zn1	Zn	-0.292960	-1.834841	-0.678539
Zn2	Zn	0.207040	-1.334841	-0.178539
Zn3	Zn	-0.416051	-1.834679	-0.477830
Zn4	Zn	0.083949	-1.334679	0.022170
Zn5	Zn	-0.292999	-1.634127	-0.477867
Zn6	Zn	0.207001	-1.134127	0.022133
Zn7	Zn	-0.415985	-1.634083	-0.678468
Zn8	Zn	0.084015	-1.134083	-0.178468
O9	O	-0.354499	-1.734433	-0.578176
O10	O	0.145501	-1.234433	-0.078176
O11	O	-0.309299	-2.002769	-0.651928
O12	O	0.190701	-1.502769	-0.151928
O13	O	-0.399771	-1.808026	-0.309885
O14	O	0.100229	-1.308026	0.190115
O15	O	-0.190009	-1.660838	-0.504532
O16	O	0.309991	-1.160838	-0.004532
O17	O	-0.399733	-2.002651	-0.504468
O18	O	0.100267	-1.502651	-0.004468
O19	O	-0.189981	-1.808302	-0.651964
O20	O	0.310019	-1.308302	-0.151964
O21	O	-0.309366	-1.660681	-0.309912
O22	O	0.190634	-1.160681	0.190088
O23	O	-0.309302	-1.466171	-0.504463
O24	O	0.190698	-0.966171	-0.004463
O25	O	-0.399622	-1.660764	-0.846427
O26	O	0.100378	-1.160764	-0.346427
O27	O	-0.399660	-1.466140	-0.651844
O28	O	0.100340	-0.966140	-0.151844
O29	O	-0.309235	-1.808260	-0.846479
O30	O	0.190765	-1.308260	-0.346479
O31	O	-0.519026	-1.807984	-0.504400
O32	O	-0.019026	-1.307984	-0.004400
O33	O	-0.518978	-1.660607	-0.651808
O34	O	-0.018978	-1.160607	-0.151808
C35	C	-0.354479	-1.422608	-0.578151
C36	C	0.145521	-0.922608	-0.078151
C37	C	-0.354488	-1.289208	-0.578168
C38	C	0.145512	-0.789208	-0.078168
C39	C	-0.545705	-1.734306	-0.578118
C40	C	-0.045705	-1.234306	-0.078118
C41	C	-0.627504	-1.734362	-0.578134
C42	C	-0.127504	-1.234362	-0.078134
C43	C	-0.815698	-1.811281	-0.501519
C44	C	-0.315698	-1.311281	-0.001519
C45	C	-0.892557	-1.811335	-0.501548
C46	C	-0.392557	-1.311335	-0.001548
C47	C	-0.892547	-1.657738	-0.654919
C48	C	-0.392547	-1.157738	-0.154919
C49	C	-0.815689	-1.657691	-0.654895
C50	C	-0.315689	-1.157691	-0.154895
C51	C	-0.777267	-1.734461	-0.578188
C52	C	-0.277267	-1.234461	-0.078188
C53	C	-0.930983	-1.734561	-0.578241
C54	C	-0.430983	-1.234561	-0.078241
C55	C	-1.014317	-1.734619	-0.578273
C56	C	-0.514317	-1.234619	-0.078273
C57	C	-0.693928	-1.734405	-0.578157
C58	C	-0.193928	-1.234405	-0.078157
C59	C	-0.162546	-1.734593	-0.578260
C60	C	0.337454	-1.234593	-0.078260
C61	C	-0.080747	-1.734661	-0.578296
C62	C	0.419253	-1.234661	-0.078296
C63	C	-0.354417	-1.734525	-0.891218
C64	C	0.145583	-1.234525	-0.391218
C65	C	-0.354382	-1.734564	-1.024619
C66	C	0.145618	-1.234564	-0.524619
C67	C	-0.354512	-1.047475	-0.578194
C68	C	0.145488	-0.547475	-0.078194
C69	C	-0.354500	-1.180875	-0.578181
C70	C	0.145500	-0.680875	-0.078181
C71	C	-0.354527	-1.734410	-0.266351
C72	C	0.145473	-1.234410	0.233649
C73	C	-0.354354	-1.734603	-0.132952
C74	C	0.145646	-1.234603	0.367048
H75	H	-0.784417	-1.873793	-0.439062
H76	H	-0.284417	-1.373793	0.060938
H77	H	-0.923840	-1.595233	-0.717368
H78	H	-0.423840	-1.095233	-0.217368
H79	H	-0.784397	-1.595135	-0.717334
H80	H	-0.284397	-1.095135	-0.217334
H81	H	-0.923844	-1.873891	-0.439119
H82	H	-0.423844	-1.373891	0.060881
