data_functionalizedCrystal
_audit_creation_method	'MofGen! by Chris Wilmer'
_symmetry_space_group_name_H-M	'P1'
_symmetry_Int_Tables_number	1
_symmetry_cell_setting	triclinic
loop_
_symmetry_equiv_pos_as_xyz
  x,y,z
_cell_length_a	12.759401
_cell_length_b	15.299816
_cell_length_c	12.759393
_cell_angle_alpha	99.651000
_cell_angle_beta	89.980404
_cell_angle_gamma	80.350595
loop_
_atom_site_label
_atom_site_type_symbol
_atom_site_fract_x
_atom_site_fract_y
_atom_site_fract_z
Zn1	Zn	1.678558	-0.359005	-0.666399
Zn2	Zn	2.178558	0.140995	-0.166399
Zn3	Zn	1.708823	-0.509846	-0.521146
Zn4	Zn	2.208823	-0.009846	-0.021146
Zn5	Zn	1.502865	-0.359050	-0.490747
Zn6	Zn	2.002865	0.140950	0.009253
Zn7	Zn	1.533209	-0.509780	-0.696774
Zn8	Zn	2.033209	-0.009780	-0.196774
O9	O	1.605864	-0.434420	-0.593766
O10	O	2.105864	0.065580	-0.093766
O11	O	1.829595	-0.379024	-0.647141
O12	O	2.329595	0.120976	-0.147141
O13	O	1.681469	-0.489889	-0.370101
O14	O	2.181469	0.010111	0.129899
O15	O	1.500806	-0.232836	-0.488614
O16	O	2.000806	0.267164	0.011386
O17	O	1.851831	-0.489846	-0.540424
O18	O	2.351831	0.010154	-0.040424
O19	O	1.629887	-0.232803	-0.617664
O20	O	2.129887	0.267197	-0.117664
O21	O	1.530153	-0.379100	-0.347768
O22	O	2.030153	0.120900	0.152232
O23	O	1.359868	-0.379035	-0.518067
O24	O	1.859868	0.120965	-0.018067
O25	O	1.552523	-0.489733	-0.839756
O26	O	2.052523	0.010267	-0.339756
O27	O	1.382161	-0.489776	-0.669434
O28	O	1.882161	0.010224	-0.169434
O29	O	1.659310	-0.378959	-0.817440
O30	O	2.159310	0.121041	-0.317440
O31	O	1.710892	-0.636046	-0.569877
O32	O	2.210892	-0.136046	-0.069877
O33	O	1.581870	-0.635997	-0.698910
O34	O	2.081870	-0.135997	-0.198910
C35	C	1.332893	-0.434404	-0.593749
C36	C	1.832893	0.065596	-0.093749
C37	C	1.216119	-0.434419	-0.593770
C38	C	1.716119	0.065581	-0.093770
C39	C	1.652986	-0.668746	-0.641011
C40	C	2.152986	-0.168746	-0.141011
C41	C	1.673242	-0.768991	-0.661258
C42	C	2.173242	-0.268991	-0.161258
C43	C	1.063182	-0.492183	-0.672509
C44	C	1.563182	0.007817	-0.172509
C45	C	1.172904	-0.492173	-0.672496
C46	C	1.672904	0.007827	-0.172496
C47	C	1.149607	-0.376678	-0.515046
C48	C	1.649607	0.123322	-0.015046
C49	C	1.039888	-0.376693	-0.515056
C50	C	1.539888	0.123307	-0.015056
C51	C	1.461784	-1.051933	-0.449417
C52	C	1.961784	-0.551933	0.050583
C53	C	1.442748	-0.957748	-0.430397
C54	C	1.942748	-0.457748	0.069603
C55	C	1.500370	-0.910554	-0.488110
C56	C	2.000370	-0.410554	0.011890
C57	C	1.577031	-0.957555	-0.564848
C58	C	2.077031	-0.457555	-0.064848
C59	C	1.596064	-1.051750	-0.583876
C60	C	2.096064	-0.551750	-0.083876
C61	C	1.634649	-0.910370	-0.622568
C62	C	2.134649	-0.410370	-0.122568
C63	C	1.711310	-0.957371	-0.699306
C64	C	2.211310	-0.457371	-0.199306
C65	C	1.730340	-1.051557	-0.718330
C66	C	2.230340	-0.551557	-0.218330
C67	C	1.672718	-1.098751	-0.660617
C68	C	2.172718	-0.598751	-0.160617
C69	C	1.615617	-0.816176	-0.603541
C70	C	2.115617	-0.316176	-0.103541
C71	C	1.749896	-0.815992	-0.737999
C72	C	2.249896	-0.315992	-0.237999
C73	C	1.768932	-0.910178	-0.757019
C74	C	2.268932	-0.410178	-0.257019
C75	C	1.879900	-0.434437	-0.593785
C76	C	2.379900	0.065563	-0.093785
C77	C	1.996678	-0.434444	-0.593793
C78	C	2.496678	0.065556	-0.093793
C79	C	1.605925	-0.434334	-0.867782
C80	C	2.105925	0.065666	-0.367782
C81	C	1.605951	-0.434297	-0.984552
C82	C	2.105951	0.065703	-0.484552
C83	C	1.558586	-0.199180	-0.546360
C84	C	2.058586	0.300820	-0.046360
C85	C	1.538439	-0.098934	-0.526158
C86	C	2.038439	0.401066	-0.026158
C87	C	1.661558	-0.376608	-1.027793
C88	C	2.161558	0.123392	-0.527793
C89	C	1.661568	-0.376569	-1.137510
C90	C	2.161568	0.123431	-0.637510
C91	C	1.550362	-0.491916	-1.160734
C92	C	2.050362	0.008084	-0.660734
C93	C	1.550347	-0.491949	-1.051019
C94	C	2.050347	0.008051	-0.551019
C95	C	1.605850	-0.434441	-0.320803
C96	C	2.105850	0.065559	0.179197
C97	C	1.605976	-0.434224	-0.203983
C98	C	2.105976	0.065776	0.296017
H99	H	1.227049	-0.539190	-0.736594
H100	H	1.727049	-0.039190	-0.236594
H101	H	1.184802	-0.329657	-0.450943
H102	H	1.684802	0.170343	0.049057
N103	N	0.968154	-0.314418	-0.430144
N104	N	1.468154	0.185582	0.069856
H105	H	0.974283	-0.249990	-0.433589
H106	H	1.474283	0.250010	0.066411
H107	H	0.892127	-0.323273	-0.442144
H108	H	1.392127	0.176727	0.057856
N109	N	1.851601	-0.960868	-0.839800
N110	N	2.351601	-0.460868	-0.339800
H111	H	1.923357	-0.944436	-0.820233
H112	H	2.423357	-0.444436	-0.320233
H113	H	1.854820	-1.027681	-0.843063
H114	H	2.354820	-0.527681	-0.343063
H115	H	1.796815	-0.777568	-0.784996
H116	H	2.296815	-0.277568	-0.284996
H117	H	1.792758	-1.089823	-0.780819
H118	H	2.292758	-0.589823	-0.280819
N119	N	1.721531	-0.314428	-0.956107
N120	N	2.221531	0.185572	-0.456107
H121	H	1.777582	-0.351104	-0.917990
H122	H	2.277582	0.148896	-0.417990
H123	H	1.756691	-0.277894	-1.000229
H124	H	2.256691	0.222106	-0.500229
H125	H	1.706847	-0.329591	-1.172711
H126	H	2.206847	0.170409	-0.672711
H127	H	1.553198	-0.777916	-0.541061
H128	H	2.053198	-0.277916	-0.041061
H129	H	1.484867	-0.833864	-0.472618
H130	H	1.984867	-0.333864	0.027382
H131	H	1.380330	-0.919483	-0.367919
H132	H	1.880330	-0.419483	0.132081
H133	H	1.505094	-0.538856	-1.214865
H134	H	2.005094	-0.038856	-0.714865
H135	H	1.414872	-1.090367	-0.402441
H136	H	1.914872	-0.590367	0.097559
H137	H	1.505057	-0.538926	-1.015812
H138	H	2.005057	-0.038926	-0.515812
H139	H	1.028005	-0.539208	-0.736621
H140	H	1.528005	-0.039208	-0.236621
H141	H	1.688217	-1.175444	-0.676095
H142	H	2.188217	-0.675444	-0.176095
