data_functionalizedCrystal
_audit_creation_method	'MofGen! by Chris Wilmer'
_symmetry_space_group_name_H-M	'P1'
_symmetry_Int_Tables_number	1
_symmetry_cell_setting	triclinic
loop_
_symmetry_equiv_pos_as_xyz
  x,y,z
_cell_length_a	29.839131
_cell_length_b	29.839135
_cell_length_c	29.839125
_cell_angle_alpha	90.001264
_cell_angle_beta	89.988394
_cell_angle_gamma	90.042543
loop_
_atom_site_label
_atom_site_type_symbol
_atom_site_fract_x
_atom_site_fract_y
_atom_site_fract_z
Zn1	Zn	-0.178930	0.686727	-0.253827
Zn2	Zn	-0.254034	0.686657	-0.178697
Zn3	Zn	-0.178920	0.611608	-0.178729
Zn4	Zn	-0.254035	0.611557	-0.253818
O5	O	-0.216480	0.649137	-0.216267
O6	O	-0.188896	0.749585	-0.243851
O7	O	-0.244065	0.676693	-0.115834
O8	O	-0.116054	0.621623	-0.188708
O9	O	-0.244075	0.749533	-0.188653
O10	O	-0.116062	0.676812	-0.243882
O11	O	-0.188880	0.621555	-0.115857
O12	O	-0.188881	0.548734	-0.188699
O13	O	-0.244077	0.621537	-0.316686
O14	O	-0.244067	0.548697	-0.243867
O15	O	-0.188897	0.676764	-0.316693
O16	O	-0.316901	0.676645	-0.188644
O17	O	-0.316902	0.621469	-0.243835
C18	C	-0.333202	0.649056	-0.216245
C19	C	-0.383137	0.649062	-0.216251
C20	C	-0.216474	0.532415	-0.216286
C21	C	-0.216482	0.482480	-0.216304
C22	C	-0.216488	0.649153	-0.333446
C23	C	-0.216492	0.649159	-0.383380
C24	C	-0.692767	0.677919	-0.187571
C25	C	-0.880440	0.677975	-0.187589
O26	O	-0.904694	0.702445	-0.163188
N27	N	-0.903922	0.649230	-0.216301
C28	C	-0.880482	0.620472	-0.245014
O29	O	-0.904761	0.596028	-0.269439
C30	C	-0.692810	0.620419	-0.244998
C31	C	-0.669331	0.649162	-0.216280
C32	C	-0.669288	0.706660	-0.158857
C33	C	-0.622372	0.706644	-0.158851
C34	C	-0.598936	0.677887	-0.187560
C35	C	-0.622416	0.649146	-0.216275
C36	C	-0.669372	0.591664	-0.273712
C37	C	-0.622451	0.591654	-0.273707
C38	C	-0.598971	0.620397	-0.244989
C39	C	-0.552064	0.620374	-0.244978
N40	N	-0.528582	0.649118	-0.216266
C41	C	-0.552018	0.677875	-0.187556
C42	C	-0.979013	0.620501	-0.245019
C43	C	-1.025931	0.620514	-0.245022
C44	C	-1.025885	0.678017	-0.187598
C45	C	-0.978967	0.678002	-0.187593
C46	C	-0.955531	0.649246	-0.216307
C47	C	-0.453493	0.677839	-0.187546
C48	C	-0.406573	0.677819	-0.187542
C49	C	-0.406623	0.620318	-0.244967
C50	C	-0.453538	0.620336	-0.244970
C51	C	-0.476972	0.649100	-0.216258
O52	O	-0.527781	0.595919	-0.269370
O53	O	-0.527731	0.702322	-0.163142
C54	C	-0.739683	0.677935	-0.187577
C55	C	-0.763162	0.649194	-0.216292
C56	C	-0.739726	0.620437	-0.245001
C57	C	-0.810080	0.649207	-0.216295
C58	C	-0.833516	0.677963	-0.187586
C59	C	-0.810034	0.706708	-0.158874
C60	C	-0.763119	0.706692	-0.158868
C61	C	-0.763207	0.591693	-0.273714
C62	C	-0.810123	0.591711	-0.273717
C63	C	-0.833559	0.620468	-0.245008
C64	C	-0.099301	0.649231	-0.216300
C65	C	-0.049367	0.649271	-0.216313
C66	C	-0.216487	0.766316	-0.216249
C67	C	-0.216489	0.816250	-0.216242
C68	C	-0.245222	1.172810	-0.187539
C69	C	-0.245221	0.985137	-0.187521
O70	O	-0.269665	0.960850	-0.163091
N71	N	-0.216493	0.961695	-0.216257
C72	C	-0.187764	0.985174	-0.245002
O73	O	-0.163332	0.960929	-0.269446
C74	C	-0.187768	1.172846	-0.245021
C75	C	-0.216495	1.196286	-0.216280
C76	C	-0.273948	1.196250	-0.158800
C77	C	-0.273946	1.243166	-0.158803
C78	C	-0.245219	1.266641	-0.187545
C79	C	-0.216494	1.243201	-0.216283
C80	C	-0.159042	1.196324	-0.273768
C81	C	-0.159047	1.243245	-0.273771
C82	C	-0.187774	1.266685	-0.245030
C83	C	-0.187765	1.313593	-0.245028
N84	N	-0.216493	1.337035	-0.216292
C85	C	-0.245220	1.313559	-0.187550
C86	C	-0.187764	0.886643	-0.244988
C87	C	-0.187762	0.839726	-0.244983
C88	C	-0.245220	0.839692	-0.187503
C89	C	-0.245219	0.886611	-0.187506
C90	C	-0.216492	0.910086	-0.216252
C91	C	-0.245214	1.412085	-0.187559
C92	C	-0.245209	1.459005	-0.187563
C93	C	-0.187753	1.459034	-0.245044
C94	C	-0.187757	1.412118	-0.245039
C95	C	-0.216491	1.388645	-0.216294
O96	O	-0.163337	1.337909	-0.269448
O97	O	-0.269656	1.337813	-0.163116
C98	C	-0.245224	1.125895	-0.187536
C99	C	-0.216499	1.102455	-0.216274
C100	C	-0.187772	1.125931	-0.245016
C101	C	-0.216497	1.055537	-0.216269
C102	C	-0.245224	1.032062	-0.187527
C103	C	-0.273953	1.055504	-0.158791
C104	C	-0.273951	1.102419	-0.158794
C105	C	-0.159043	1.102488	-0.273752
C106	C	-0.159047	1.055573	-0.273746
C107	C	-0.187774	1.032097	-0.245004
C108	C	-0.245121	0.620434	-0.739964
C109	C	-0.245173	0.620418	-0.552291
O110	O	-0.269598	0.595950	-0.528024
N111	N	-0.216450	0.649169	-0.528825
C112	C	-0.187711	0.677925	-0.552281
O113	O	-0.163279	0.702376	-0.528016
C114	C	-0.187657	0.677938	-0.739953
C115	C	-0.216385	0.649188	-0.763416
C116	C	-0.273845	0.591686	-0.763427
C117	C	-0.273834	0.591692	-0.810343
C118	C	-0.245098	0.620446	-0.833795
C119	C	-0.216373	0.649194	-0.810332
C120	C	-0.158916	0.706691	-0.763408
C121	C	-0.158904	0.706691	-0.810329
C122	C	-0.187632	0.677941	-0.833792
C123	C	-0.187625	0.677954	-0.880700
N124	N	-0.216348	0.649203	-0.904165
C125	C	-0.245084	0.620449	-0.880713
C126	C	-0.187742	0.677916	-0.453750
C127	C	-0.187756	0.677914	-0.406833
C128	C	-0.245217	0.620406	-0.406846
C129	C	-0.245205	0.620411	-0.453764
C130	C	-0.216464	0.649165	-0.477216
C131	C	-0.245058	0.620464	-0.979239
C132	C	-0.245045	0.620474	-1.026158
C133	C	-0.187582	0.677980	-1.026141
C134	C	-0.187597	0.677972	-0.979226
C135	C	-0.216336	0.649210	-0.955776
O136	O	-0.163209	0.702406	-0.904996
O137	O	-0.269505	0.595994	-0.904986
C138	C	-0.245132	0.620428	-0.693049
C139	C	-0.216408	0.649176	-0.669586
C140	C	-0.187671	0.677930	-0.693038
C141	C	-0.216422	0.649173	-0.622668
C142	C	-0.245158	0.620419	-0.599215
C143	C	-0.273880	0.591668	-0.622681
C144	C	-0.273868	0.591674	-0.669596
C145	C	-0.158949	0.706682	-0.669572
C146	C	-0.158963	0.706674	-0.622657
C147	C	-0.187700	0.677919	-0.599204
C148	C	-0.216439	0.649148	-0.099545
C149	C	-0.216309	0.649228	-0.049611
H150	H	-0.387458	0.701225	-0.164155
C151	C	-0.127443	1.269065	-0.305393
N152	N	-0.103638	1.288511	-0.329210
C153	C	-0.305460	0.560051	-0.737637
N154	N	-0.329277	0.536224	-0.718215
H155	H	-0.268456	0.597040	-0.960151
C156	C	-0.156156	0.709544	-0.381028
N157	N	-0.132352	0.733366	-0.361594
C158	C	-0.737298	0.738310	-0.127275
N159	N	-0.717852	0.762126	-0.103476
H160	H	-0.959935	0.597083	-0.268402
H161	H	-0.268597	0.597000	-0.472865
C162	C	-0.596675	0.560019	-0.305295
N163	N	-0.577261	0.536191	-0.329087
C164	C	-0.305552	1.268943	-0.127189
N165	N	-0.329361	1.288356	-0.103377
C166	C	-0.156156	0.912460	-0.276609
N167	N	-0.132346	0.931903	-0.300424
H168	H	-0.297261	0.568262	-0.688696
C169	C	-0.156156	0.813947	-0.276597
N170	N	-0.132352	0.794532	-0.300412
C171	C	-0.155970	0.709603	-1.051948
N172	N	-0.132155	0.733418	-1.071387
H173	H	-0.744129	0.568276	-0.297093
C174	C	-0.835945	0.560088	-0.305310
N175	N	-0.855392	0.536274	-0.329108
C176	C	-0.305556	1.128197	-0.127179
N177	N	-0.329363	1.147610	-0.103365
H178	H	-0.472567	0.701263	-0.164167
C179	C	-0.127436	1.128305	-0.305368
N180	N	-0.103624	1.147748	-0.329181
H181	H	-0.829124	0.730121	-0.135497
C182	C	-0.156153	1.386334	-0.276653
N183	N	-0.132352	1.366916	-0.300469
H184	H	-0.297280	0.568257	-0.603578
C185	C	-0.156154	1.484866	-0.276658
N186	N	-0.132356	1.504324	-0.300472
C187	C	-0.156125	0.709552	-0.479541
N188	N	-0.132313	0.733383	-0.498965
H189	H	-0.135523	0.730103	-0.744312
H190	H	-0.387534	0.596903	-0.268341
H191	H	-0.959853	0.701407	-0.164209
H192	H	-0.268440	0.597062	-1.045260
H193	H	-0.164208	0.701385	-0.960121
H194	H	-0.297226	0.568279	-0.829442
C195	C	-0.127288	0.738325	-0.836123
N196	N	-0.103475	0.762152	-0.855550
H197	H	-0.268602	1.478087	-0.164157
C198	C	-0.127358	0.738302	-0.596853
N199	N	-0.103549	0.762121	-0.577419
H200	H	-0.135548	0.730097	-0.688662
H201	H	-0.603258	0.730050	-0.135468
C202	C	-0.276822	0.813860	-0.155890
N203	N	-0.300627	0.794401	-0.132082
H204	H	-0.688365	0.730080	-0.135478
C205	C	-0.305553	1.029672	-0.127176
N206	N	-0.329355	1.010212	-0.103367
C207	C	-1.051674	0.709652	-0.156020
N208	N	-1.071100	0.733481	-0.132240
H209	H	-0.268616	0.596994	-0.387743
H210	H	-0.688480	0.568256	-0.297095
H211	H	-0.135649	1.036492	-0.297150
H212	H	-0.268613	1.392979	-0.164153
H213	H	-0.135651	1.177248	-0.297173
H214	H	-1.045044	0.597104	-0.268403
H215	H	-0.297343	1.177141	-0.135395
C216	C	-0.479366	0.588716	-0.276559
N217	N	-0.498817	0.564902	-0.300356
H218	H	-0.268612	0.905692	-0.164103
