data_functionalizedCrystal
_audit_creation_method	'MofGen! by Chris Wilmer'
_symmetry_space_group_name_H-M	'P1'
_symmetry_Int_Tables_number	1
_symmetry_cell_setting	triclinic
loop_
_symmetry_equiv_pos_as_xyz
  x,y,z
_cell_length_a	13.897449
_cell_length_b	16.625546
_cell_length_c	13.897441
_cell_angle_alpha	89.966553
_cell_angle_beta	89.979267
_cell_angle_gamma	90.023748
loop_
_atom_site_label
_atom_site_type_symbol
_atom_site_fract_x
_atom_site_fract_y
_atom_site_fract_z
Zn1	Zn	1.474671	-0.320948	-0.545362
Zn2	Zn	1.974671	0.179052	-0.045362
Zn3	Zn	1.474551	-0.455799	-0.384055
Zn4	Zn	1.974551	0.044201	0.115945
Zn5	Zn	1.313360	-0.320987	-0.384080
Zn6	Zn	1.813360	0.179013	0.115920
Zn7	Zn	1.313328	-0.455746	-0.545308
Zn8	Zn	1.813328	0.044254	-0.045308
O9	O	1.393977	-0.388370	-0.464702
O10	O	1.893977	0.111630	0.035298
O11	O	1.609636	-0.338843	-0.523977
O12	O	2.109636	0.161157	-0.023977
O13	O	1.453132	-0.437954	-0.249077
O14	O	1.953132	0.062046	0.250923
O15	O	1.334821	-0.208149	-0.405508
O16	O	1.834821	0.291851	0.094492
O17	O	1.609549	-0.437917	-0.405465
O18	O	2.109549	0.062083	0.094535
O19	O	1.453336	-0.208121	-0.524001
O20	O	1.953336	0.291879	-0.024001
O21	O	1.334705	-0.338908	-0.249095
O22	O	1.834705	0.161092	0.250905
O23	O	1.178374	-0.338857	-0.405455
O24	O	1.678374	0.161143	0.094545
O25	O	1.334767	-0.437826	-0.680297
O26	O	1.834767	0.062174	-0.180297
O27	O	1.178351	-0.437864	-0.523909
O28	O	1.678351	0.062136	-0.023909
O29	O	1.453305	-0.338791	-0.680337
O30	O	1.953305	0.161209	-0.180337
O31	O	1.453101	-0.568624	-0.405413
O32	O	1.953101	-0.068624	0.094587
O33	O	1.334651	-0.568585	-0.523884
O34	O	1.834651	-0.068585	-0.023884
C35	C	1.143363	-0.388359	-0.464680
C36	C	1.643363	0.111641	0.035320
C37	C	1.036149	-0.388374	-0.464693
C38	C	1.536149	0.111626	0.035307
C39	C	0.839854	-0.388377	-0.464718
C40	C	1.339854	0.111623	0.035282
C41	C	0.949086	-0.388373	-0.464702
C42	C	1.449086	0.111627	0.035298
C43	C	1.393886	-0.597861	-0.464661
C44	C	1.893886	-0.097861	0.035339
C45	C	1.393935	-0.687482	-0.464676
C46	C	1.893935	-0.187482	0.035324
C47	C	1.394104	-1.015657	-0.464777
C48	C	1.894104	-0.515657	0.035223
C49	C	1.394054	-0.924349	-0.464751
C50	C	1.894054	-0.424349	0.035249
C51	C	1.394019	-0.851573	-0.464726
C52	C	1.894019	-0.351573	0.035274
C53	C	1.393970	-0.760258	-0.464702
C54	C	1.893970	-0.260258	0.035298
C55	C	1.645570	-0.388381	-0.464724
C56	C	2.145570	0.111619	0.035276
C57	C	1.752784	-0.388386	-0.464734
C58	C	2.252784	0.111614	0.035266
C59	C	1.394046	-0.388299	-0.716295
C60	C	1.894046	0.111701	-0.216295
C61	C	1.394075	-0.388268	-0.823509
C62	C	1.894075	0.111732	-0.323509
C63	C	1.394095	-0.178061	-0.464763
C64	C	1.894095	0.321939	0.035237
C65	C	1.394146	-0.088440	-0.464789
C66	C	1.894146	0.411560	0.035211
C67	C	1.394101	-0.388214	-1.019804
C68	C	1.894101	0.111786	-0.519804
C69	C	1.394084	-0.388246	-0.910571
C70	C	1.894084	0.111754	-0.410571
C71	C	1.393965	-0.388383	-0.214087
C72	C	1.893965	0.111617	0.285913
C73	C	1.394122	-0.388186	-0.106874
C74	C	1.894122	0.111814	0.393126
