data_functionalizedCrystal
_audit_creation_method	'MofGen! by Chris Wilmer'
_symmetry_space_group_name_H-M	'P1'
_symmetry_Int_Tables_number	1
_symmetry_cell_setting	triclinic
loop_
_symmetry_equiv_pos_as_xyz
  x,y,z
_cell_length_a	19.805407
_cell_length_b	21.295417
_cell_length_c	19.805399
_cell_angle_alpha	89.969157
_cell_angle_beta	89.980427
_cell_angle_gamma	90.030507
loop_
_atom_site_label
_atom_site_type_symbol
_atom_site_fract_x
_atom_site_fract_y
_atom_site_fract_z
Zn1	Zn	1.034716	-0.250624	-0.382704
Zn2	Zn	1.284716	-0.000624	-0.132704
Zn3	Zn	1.534716	0.249376	0.117296
Zn4	Zn	1.784716	0.499376	0.367296
Zn5	Zn	1.034623	-0.355893	-0.269510
Zn6	Zn	1.284623	-0.105893	-0.019510
Zn7	Zn	1.534623	0.144107	0.230490
Zn8	Zn	1.784623	0.394107	0.480490
Zn9	Zn	0.921531	-0.250641	-0.269529
Zn10	Zn	1.171531	-0.000641	-0.019529
Zn11	Zn	1.421531	0.249359	0.230471
Zn12	Zn	1.671531	0.499359	0.480471
Zn13	Zn	0.921486	-0.355859	-0.382656
Zn14	Zn	1.171486	-0.105859	-0.132656
Zn15	Zn	1.421486	0.144141	0.117344
Zn16	Zn	1.671486	0.394141	0.367344
O17	O	0.978089	-0.303254	-0.326100
O18	O	1.228089	-0.053254	-0.076100
O19	O	1.478089	0.196746	0.173900
O20	O	1.728089	0.446746	0.423900
O21	O	1.129421	-0.264595	-0.367701
O22	O	1.379421	-0.014595	-0.117701
O23	O	1.629421	0.235405	0.132299
O24	O	1.879421	0.485405	0.382299
O25	O	1.019601	-0.341952	-0.174796
O26	O	1.269601	-0.091952	0.075204
O27	O	1.519601	0.158048	0.325204
O28	O	1.769601	0.408048	0.575204
O29	O	0.936603	-0.162549	-0.284570
O30	O	1.186603	0.087451	-0.034570
O31	O	1.436603	0.337451	0.215430
O32	O	1.686603	0.587451	0.465430
O33	O	1.129352	-0.341935	-0.284537
O34	O	1.379352	-0.091935	-0.034537
O35	O	1.629352	0.158065	0.215463
O36	O	1.879352	0.408065	0.465463
O37	O	1.019760	-0.162537	-0.367719
O38	O	1.269760	0.087463	-0.117719
O39	O	1.519760	0.337463	0.132281
O40	O	1.769760	0.587463	0.382281
O41	O	0.936513	-0.264624	-0.174810
O42	O	1.186513	-0.014624	0.075190
O43	O	1.436513	0.235376	0.325190
O44	O	1.686513	0.485376	0.575190
O45	O	0.826809	-0.264592	-0.284523
O46	O	1.076809	-0.014592	-0.034523
O47	O	1.326809	0.235408	0.215477
O48	O	1.576809	0.485408	0.465477
O49	O	0.936527	-0.341878	-0.477379
O50	O	1.186527	-0.091878	-0.227379
O51	O	1.436527	0.158122	0.022621
O52	O	1.686527	0.408122	0.272621
O53	O	0.826776	-0.341895	-0.367638
O54	O	1.076776	-0.091895	-0.117638
O55	O	1.326776	0.158105	0.132362
O56	O	1.576776	0.408105	0.382362
O57	O	1.019717	-0.264562	-0.477415
O58	O	1.269717	-0.014562	-0.227415
O59	O	1.519717	0.235438	0.022585
O60	O	1.769717	0.485438	0.272585
O61	O	1.019558	-0.443977	-0.284491
O62	O	1.269558	-0.193977	-0.034491
O63	O	1.519558	0.056023	0.215509
O64	O	1.769558	0.306023	0.465509
O65	O	0.936437	-0.443953	-0.367619
O66	O	1.186437	-0.193953	-0.117619
O67	O	1.436437	0.056047	0.132381
O68	O	1.686437	0.306047	0.382381
C69	C	0.802233	-0.303242	-0.326078
C70	C	1.052233	-0.053242	-0.076078
C71	C	1.302233	0.196758	0.173922
C72	C	1.552233	0.446758	0.423922
C73	C	0.727001	-0.303252	-0.326085
C74	C	0.977001	-0.053252	-0.076085
C75	C	1.227001	0.196748	0.173915
C76	C	1.477001	0.446748	0.423915
C77	C	0.691658	-0.343564	-0.369292
C78	C	0.941658	-0.093564	-0.119292
C79	C	1.191658	0.156436	0.130708
C80	C	1.441658	0.406436	0.380708
C81	C	0.620969	-0.343566	-0.369302
C82	C	0.870969	-0.093566	-0.119302
C83	C	1.120969	0.156434	0.130698
C84	C	1.370969	0.406434	0.380698
C85	C	0.585626	-0.303257	-0.326100
C86	C	0.835626	-0.053257	-0.076100
C87	C	1.085626	0.196743	0.173900
C88	C	1.335626	0.446743	0.423900
C89	C	0.620974	-0.262940	-0.282890
C90	C	0.870974	-0.012940	-0.032890
C91	C	1.120974	0.237060	0.217110
C92	C	1.370974	0.487060	0.467110
C93	C	0.691661	-0.262936	-0.282885
C94	C	0.941661	-0.012936	-0.032885
C95	C	1.191661	0.237064	0.217115
C96	C	1.441661	0.487064	0.467115
C97	C	0.335901	-0.262954	-0.282913
C98	C	0.585901	-0.012954	-0.032913
C99	C	0.835901	0.237046	0.217087
C100	C	1.085901	0.487046	0.467087
C101	C	0.265209	-0.262962	-0.282920
C102	C	0.515209	-0.012962	-0.032920
C103	C	0.765209	0.237038	0.217080
C104	C	1.015209	0.487038	0.467080
C105	C	0.265209	-0.343583	-0.369330
C106	C	0.515209	-0.093583	-0.119330
C107	C	0.765209	0.156417	0.130670
C108	C	1.015209	0.406417	0.380670
C109	C	0.335896	-0.343579	-0.369324
C110	C	0.585896	-0.093579	-0.119324
C111	C	0.835896	0.156421	0.130676
C112	C	1.085896	0.406421	0.380676
C113	C	0.371238	-0.303261	-0.326117
C114	C	0.621238	-0.053261	-0.076117
C115	C	0.871238	0.196739	0.173883
C116	C	1.121238	0.446739	0.423883
C117	C	0.447887	-0.303259	-0.326109
C118	C	0.697887	-0.053259	-0.076109
C119	C	0.947887	0.196741	0.173891
C120	C	1.197887	0.446741	0.423891
C121	C	0.508979	-0.303261	-0.326105
C122	C	0.758979	-0.053261	-0.076105
C123	C	1.008979	0.196739	0.173895
C124	C	1.258979	0.446739	0.423895
C125	C	0.978001	-0.466806	-0.326062
C126	C	1.228001	-0.216806	-0.076062
C127	C	1.478001	0.033194	0.173938
C128	C	1.728001	0.283194	0.423938
C129	C	0.978024	-0.536774	-0.326069
C130	C	1.228024	-0.286774	-0.076069
C131	C	1.478024	-0.036774	0.173931
C132	C	1.728024	0.213226	0.423931
C133	C	1.021344	-0.569632	-0.282828
C134	C	1.271344	-0.319632	-0.032828
C135	C	1.521344	-0.069632	0.217172
C136	C	1.771344	0.180368	0.467172
C137	C	1.021376	-0.635375	-0.282844
C138	C	1.271376	-0.385375	-0.032844
C139	C	1.521376	-0.135375	0.217156
C140	C	1.771376	0.114625	0.467156
C141	C	0.978076	-0.668256	-0.326092
C142	C	1.228076	-0.418256	-0.076092
C143	C	1.478076	-0.168256	0.173908
C144	C	1.728076	0.081744	0.423908
C145	C	0.934753	-0.635390	-0.369341
C146	C	1.184753	-0.385390	-0.119341
C147	C	1.434753	-0.135390	0.130659
C148	C	1.684753	0.114610	0.380659
C149	C	0.934728	-0.569649	-0.369330
C150	C	1.184728	-0.319649	-0.119330
C151	C	1.434728	-0.069649	0.130670
C152	C	1.684728	0.180351	0.380670
N153	N	0.918865	-0.771522	-0.331245
N154	N	1.168865	-0.521522	-0.081245
N155	N	1.418865	-0.271522	0.168755
N156	N	1.668865	-0.021522	0.418755
N157	N	0.918892	-0.833974	-0.331252
N158	N	1.168892	-0.583974	-0.081252
N159	N	1.418892	-0.333974	0.168748
N160	N	1.668892	-0.083974	0.418748
C161	C	0.978152	-0.866331	-0.326131
C162	C	1.228152	-0.616331	-0.076131
C163	C	1.478152	-0.366331	0.173869
C164	C	1.728152	-0.116331	0.423869
N165	N	1.037386	-0.833878	-0.320989
N166	N	1.287386	-0.583878	-0.070989
N167	N	1.537386	-0.333878	0.179011
N168	N	1.787386	-0.083878	0.429011
N169	N	1.037358	-0.771421	-0.320979
N170	N	1.287358	-0.521421	-0.070979
N171	N	1.537358	-0.271421	0.179021
N172	N	1.787358	-0.021421	0.429021
C173	C	0.978099	-0.739542	-0.326110
C174	C	1.228099	-0.489542	-0.076110
C175	C	1.478099	-0.239542	0.173890
C176	C	1.728099	0.010458	0.423890
C177	C	1.021509	-0.970475	-0.282905
C178	C	1.271509	-0.720475	-0.032905
C179	C	1.521509	-0.470475	0.217095
C180	C	1.771509	-0.220475	0.467095
C181	C	1.021542	-1.036219	-0.282925
C182	C	1.271542	-0.786219	-0.032925
C183	C	1.521542	-0.536219	0.217075
C184	C	1.771542	-0.286219	0.467075
C185	C	0.934914	-1.036233	-0.369419
C186	C	1.184914	-0.786233	-0.119419
C187	C	1.434914	-0.536233	0.130581
C188	C	1.684914	-0.286233	0.380581
C189	C	0.934887	-0.970490	-0.369402
C190	C	1.184887	-0.720490	-0.119402
C191	C	1.434887	-0.470490	0.130598
C192	C	1.684887	-0.220490	0.380598
C193	C	0.978184	-0.937615	-0.326142
C194	C	1.228184	-0.687615	-0.076142
C195	C	1.478184	-0.437615	0.173858
C196	C	1.728184	-0.187615	0.423858
C197	C	1.154632	-0.303267	-0.326122
C198	C	1.404632	-0.053267	-0.076122
C199	C	1.654632	0.196733	0.173878
C200	C	1.904632	0.446733	0.423878
C201	C	1.229864	-0.303272	-0.326132
C202	C	1.479864	-0.053272	-0.076132
C203	C	1.729864	0.196728	0.173868
C204	C	1.979864	0.446728	0.423868
C205	C	0.978127	-0.303214	-0.502643
C206	C	1.228127	-0.053214	-0.252643
C207	C	1.478127	0.196786	-0.002643
C208	C	1.728127	0.446786	0.247357
C209	C	0.978143	-0.303198	-0.577875
C210	C	1.228143	-0.053198	-0.327875
C211	C	1.478143	0.196802	-0.077875
C212	C	1.728143	0.446802	0.172125
C213	C	0.978197	-0.139064	-0.326152
C214	C	1.228197	0.110936	-0.076152
C215	C	1.478197	0.360936	0.173848
C216	C	1.728197	0.610936	0.423848
C217	C	0.978243	-0.069096	-0.326175
C218	C	1.228243	0.180904	-0.076175
C219	C	1.478243	0.430904	0.173825
C220	C	1.728243	0.680904	0.423825
C221	C	1.021461	-0.262937	-0.613238
C222	C	1.271461	-0.012937	-0.363238
C223	C	1.521461	0.237063	-0.113238
C224	C	1.771461	0.487063	0.136762
C225	C	1.021468	-0.262919	-0.683927
C226	C	1.271468	-0.012919	-0.433927
C227	C	1.521468	0.237081	-0.183927
C228	C	1.771468	0.487081	0.066073
C229	C	0.978160	-0.303165	-0.719250
C230	C	1.228160	-0.053165	-0.469250
C231	C	1.478160	0.196835	-0.219250
C232	C	1.728160	0.446835	0.030750
C233	C	0.934838	-0.343427	-0.683882
C234	C	1.184838	-0.093427	-0.433882
C235	C	1.434838	0.156573	-0.183882
C236	C	1.684838	0.406573	0.066118
C237	C	0.934828	-0.343442	-0.613195
C238	C	1.184828	-0.093442	-0.363195
C239	C	1.434828	0.156558	-0.113195
C240	C	1.684828	0.406558	0.136805
C241	C	0.934876	-0.343368	-0.968955
C242	C	1.184876	-0.093368	-0.718955
C243	C	1.434876	0.156632	-0.468955
C244	C	1.684876	0.406632	-0.218955
C245	C	0.934891	-0.343352	-1.039647
C246	C	1.184891	-0.093352	-0.789647
C247	C	1.434891	0.156648	-0.539647
C248	C	1.684891	0.406648	-0.289647
C249	C	1.021516	-0.262846	-1.039687
C250	C	1.271516	-0.012846	-0.789687
C251	C	1.521516	0.237154	-0.539687
C252	C	1.771516	0.487154	-0.289687
C253	C	1.021506	-0.262860	-0.969000
C254	C	1.271506	-0.012860	-0.719000
C255	C	1.521506	0.237140	-0.469000
C256	C	1.771506	0.487140	-0.219000
C257	C	0.978182	-0.303120	-0.933638
C258	C	1.228182	-0.053120	-0.683638
C259	C	1.478182	0.196880	-0.433638
C260	C	1.728182	0.446880	-0.183638
C261	C	0.978174	-0.303138	-0.856989
C262	C	1.228174	-0.053138	-0.606989
C263	C	1.478174	0.196862	-0.356989
C264	C	1.728174	0.446862	-0.106989
C265	C	0.978171	-0.303150	-0.795897
C266	C	1.228171	-0.053150	-0.545897
C267	C	1.478171	0.196850	-0.295897
C268	C	1.728171	0.446850	-0.045897
C269	C	0.978090	-0.303248	-0.150244
C270	C	1.228090	-0.053248	0.099756
C271	C	1.478090	0.196752	0.349756
C272	C	1.728090	0.446752	0.599756
C273	C	0.978205	-0.303088	-0.075012
C274	C	1.228205	-0.053088	0.174988
C275	C	1.478205	0.196912	0.424988
C276	C	1.728205	0.446912	0.674988
H277	H	0.236434	-0.230134	-0.247740
H278	H	0.486434	0.019866	0.002260
H279	H	0.736434	0.269866	0.252260
H280	H	0.986434	0.519866	0.502260
N281	N	1.068235	-0.219416	-1.077835
N282	N	1.318235	0.030584	-0.827835
N283	N	1.568235	0.280584	-0.577835
N284	N	1.818235	0.530584	-0.327835
H285	H	1.057751	-0.174441	-1.065543
H286	H	1.307751	0.075559	-0.815543
H287	H	1.557751	0.325559	-0.565543
H288	H	1.807751	0.575559	-0.315543
H289	H	1.116570	-0.229252	-1.065529
H290	H	1.366570	0.020748	-0.815529
H291	H	1.616570	0.270748	-0.565529
H292	H	1.866570	0.520748	-0.315529
N293	N	1.068052	-0.534175	-0.236181
N294	N	1.318052	-0.284175	0.013819
N295	N	1.568052	-0.034175	0.263819
N296	N	1.818052	0.215825	0.513819
H297	H	1.057578	-0.545655	-0.187811
H298	H	1.307578	-0.295655	0.062189
H299	H	1.557578	-0.045655	0.312189
H300	H	1.807578	0.204345	0.562189
H301	H	1.116389	-0.545589	-0.246805
H302	H	1.366389	-0.295589	0.003195
H303	H	1.616389	-0.045589	0.253195
H304	H	1.866389	0.204411	0.503195
H305	H	0.592192	-0.230118	-0.247718
H306	H	0.842192	0.019882	0.002282
H307	H	1.092192	0.269882	0.252282
H308	H	1.342192	0.519882	0.502282
N309	N	0.888143	-0.386797	-0.930838
N310	N	1.138143	-0.136797	-0.680838
N311	N	1.388143	0.113203	-0.430838
N312	N	1.638143	0.363203	-0.180838
H313	H	0.915614	-0.415984	-0.901503
H314	H	1.165614	-0.165984	-0.651503
H315	H	1.415614	0.084016	-0.401503
H316	H	1.665614	0.334016	-0.151503
H317	H	0.856790	-0.361178	-0.901557
H318	H	1.106790	-0.111178	-0.651557
H319	H	1.356790	0.138822	-0.401557
H320	H	1.606790	0.388822	-0.151557
H321	H	0.899661	-1.063004	-0.404636
H322	H	1.149661	-0.813004	-0.154636
H323	H	1.399661	-0.563004	0.095364
H324	H	1.649661	-0.313004	0.345364
N325	N	0.888100	-0.386864	-0.575056
N326	N	1.138100	-0.136864	-0.325056
N327	N	1.388100	0.113136	-0.075056
N328	N	1.638100	0.363136	0.174944
H329	H	0.898581	-0.431840	-0.587342
H330	H	1.148581	-0.181840	-0.337342
H331	H	1.398581	0.068160	-0.087342
H332	H	1.648581	0.318160	0.162658
H333	H	0.894680	-0.380713	-0.524928
H334	H	1.144680	-0.130713	-0.274928
H335	H	1.394680	0.119287	-0.024928
H336	H	1.644680	0.369287	0.225072
N337	N	1.068101	-0.670826	-0.236205
N338	N	1.318101	-0.420826	0.013795
N339	N	1.568101	-0.170826	0.263795
N340	N	1.818101	0.079174	0.513795
H341	H	1.095526	-0.640024	-0.208799
H342	H	1.345526	-0.390024	0.041201
H343	H	1.595526	-0.140024	0.291201
H344	H	1.845526	0.109976	0.541201
H345	H	1.040574	-0.698145	-0.204865
H346	H	1.290574	-0.448145	0.045135
H347	H	1.540574	-0.198145	0.295135
H348	H	1.790574	0.051855	0.545135
H349	H	0.899573	-0.376193	-0.712648
H350	H	1.149573	-0.126193	-0.462648
H351	H	1.399573	0.123807	-0.212648
H352	H	1.649573	0.373807	0.037352
H353	H	0.592196	-0.376393	-0.404485
H354	H	0.842196	-0.126393	-0.154485
H355	H	1.092196	0.123607	0.095515
H356	H	1.342196	0.373607	0.345515
H357	H	0.364668	-0.230129	-0.247726
H358	H	0.614668	0.019871	0.002274
H359	H	0.864668	0.269871	0.252274
H360	H	1.114668	0.519871	0.502274
N361	N	1.068208	-0.935007	-0.236255
N362	N	1.318208	-0.685007	0.013745
N363	N	1.568208	-0.435007	0.263745
N364	N	1.818208	-0.185007	0.513745
H365	H	1.057732	-0.946490	-0.187886
H366	H	1.307732	-0.696490	0.062114
H367	H	1.557732	-0.446490	0.312114
H368	H	1.807732	-0.196490	0.562114
H369	H	1.116549	-0.946410	-0.246874
H370	H	1.366549	-0.696410	0.003126
H371	H	1.616549	-0.446410	0.253126
H372	H	1.866549	-0.196410	0.503126
H373	H	1.056743	-0.230136	-0.712717
H374	H	1.306743	0.019864	-0.462717
H375	H	1.556743	0.269864	-0.212717
H376	H	1.806743	0.519864	0.037283
H377	H	0.720437	-0.230107	-0.247704
H378	H	0.970437	0.019893	0.002296
H379	H	1.220437	0.269893	0.252296
H380	H	1.470437	0.519893	0.502296
N381	N	0.227090	-0.387071	-0.415934
N382	N	0.477090	-0.137071	-0.165934
N383	N	0.727090	0.112929	0.084066
N384	N	0.977090	0.362929	0.334066
H385	H	0.176947	-0.380958	-0.409386
H386	H	0.426947	-0.130958	-0.159386
H387	H	0.676947	0.119042	0.090614
H388	H	0.926947	0.369042	0.340614
H389	H	0.239473	-0.377335	-0.464293
H390	H	0.489473	-0.127335	-0.214293
H391	H	0.739473	0.122665	0.035707
H392	H	0.989473	0.372665	0.285707
H393	H	0.899499	-0.662166	-0.404556
H394	H	1.149499	-0.412166	-0.154556
H395	H	1.399499	-0.162166	0.095444
H396	H	1.649499	0.087834	0.345444
H397	H	0.899451	-0.542895	-0.404542
H398	H	1.149451	-0.292895	-0.154542
H399	H	1.399451	-0.042895	0.095458
H400	H	1.649451	0.207105	0.345458
H401	H	1.056822	-1.062971	-0.247714
H402	H	1.306822	-0.812971	0.002286
H403	H	1.556822	-0.562971	0.252286
H404	H	1.806822	-0.312971	0.502286
N405	N	0.374017	-0.387059	-0.415916
N406	N	0.624017	-0.137059	-0.165916
N407	N	0.874017	0.112941	0.084084
N408	N	1.124017	0.362941	0.334084
H409	H	0.340900	-0.412597	-0.443290
H410	H	0.590900	-0.162597	-0.193290
H411	H	0.840900	0.087403	0.056710
H412	H	1.090900	0.337403	0.306710
H413	H	0.403372	-0.361471	-0.447287
H414	H	0.653372	-0.111471	-0.197287
H415	H	0.903372	0.138529	0.052713
H416	H	1.153372	0.388529	0.302713
H417	H	0.720429	-0.376391	-0.404470
H418	H	0.970429	-0.126391	-0.154470
H419	H	1.220429	0.123609	0.095530
H420	H	1.470429	0.373609	0.345530
H421	H	0.899609	-0.943735	-0.404610
H422	H	1.149609	-0.693735	-0.154610
H423	H	1.399609	-0.443735	0.095390
H424	H	1.649609	-0.193735	0.345390
H425	H	1.056730	-0.230166	-0.584483
H426	H	1.306730	0.019834	-0.334483
H427	H	1.556730	0.269834	-0.084483
H428	H	1.806730	0.519834	0.165517
N429	N	1.068220	-0.219456	-0.930901
N430	N	1.318220	0.030544	-0.680901
N431	N	1.568220	0.280544	-0.430901
N432	N	1.818220	0.530544	-0.180901
H433	H	1.095663	-0.193947	-0.964031
H434	H	1.345663	0.056053	-0.714031
H435	H	1.595663	0.306053	-0.464031
H436	H	1.845663	0.556053	-0.214031
H437	H	1.040683	-0.190330	-0.901576
H438	H	1.290683	0.059670	-0.651576
H439	H	1.540683	0.309670	-0.401576
H440	H	1.790683	0.559670	-0.151576
H441	H	0.899621	-0.376126	-1.068406
H442	H	1.149621	-0.126126	-0.818406
H443	H	1.399621	0.123874	-0.568406
H444	H	1.649621	0.373874	-0.318406
