data_functionalizedCrystal
_audit_creation_method	'MofGen! by Chris Wilmer'
_symmetry_space_group_name_H-M	'P1'
_symmetry_Int_Tables_number	1
_symmetry_cell_setting	triclinic
loop_
_symmetry_equiv_pos_as_xyz
  x,y,z
_cell_length_a	27.732048
_cell_length_b	27.732048
_cell_length_c	26.210047
_cell_angle_alpha	90.011237
_cell_angle_beta	90.018945
_cell_angle_gamma	82.642655
loop_
_atom_site_label
_atom_site_type_symbol
_atom_site_fract_x
_atom_site_fract_y
_atom_site_fract_z
O1	O	0.640941	0.057516	0.042369
O2	O	0.890941	0.307516	0.292369
O3	O	1.140941	0.557516	0.542369
O4	O	1.390941	0.807516	0.792369
O5	O	0.500148	0.066262	0.042385
O6	O	0.750148	0.316262	0.292385
O7	O	1.000148	0.566262	0.542385
O8	O	1.250148	0.816262	0.792385
O9	O	0.574917	-0.008508	0.042367
O10	O	0.824917	0.241492	0.292367
O11	O	1.074917	0.491492	0.542367
O12	O	1.324917	0.741492	0.792367
O13	O	0.566172	0.132286	0.042387
O14	O	0.816172	0.382286	0.292387
O15	O	1.066172	0.632286	0.542387
O16	O	1.316172	0.882286	0.792387
O17	O	0.574883	-0.008509	-0.042491
O18	O	0.824883	0.241491	0.207509
O19	O	1.074883	0.491491	0.457509
O20	O	1.324883	0.741491	0.707509
O21	O	0.500113	0.066261	-0.042473
O22	O	0.750113	0.316261	0.207527
O23	O	1.000113	0.566261	0.457527
O24	O	1.250113	0.816261	0.707527
O25	O	0.640907	0.057515	-0.042489
O26	O	0.890907	0.307515	0.207511
O27	O	1.140907	0.557515	0.457511
O28	O	1.390907	0.807515	0.707511
Cu29	Cu	0.570507	0.061888	-0.050229
Cu30	Cu	0.820507	0.311888	0.199771
Cu31	Cu	1.070507	0.561888	0.449771
Cu32	Cu	1.320507	0.811888	0.699771
Cu33	Cu	0.570548	0.061889	0.050125
Cu34	Cu	0.820548	0.311889	0.300125
Cu35	Cu	1.070548	0.561889	0.550125
Cu36	Cu	1.320548	0.811889	0.800125
O37	O	0.566137	0.132285	-0.042471
O38	O	0.816137	0.382285	0.207529
O39	O	1.066137	0.632285	0.457529
O40	O	1.316137	0.882285	0.707529
C41	C	0.482124	0.066078	-0.000042
C42	C	0.732124	0.316078	0.249958
C43	C	0.982124	0.566078	0.499958
C44	C	1.232124	0.816078	0.749958
C45	C	0.428469	0.065525	-0.000036
C46	C	0.678469	0.315525	0.249964
C47	C	0.928469	0.565525	0.499964
C48	C	1.178469	0.815525	0.749964
C49	C	0.574716	-0.026515	-0.000064
C50	C	0.824716	0.223485	0.249936
C51	C	1.074716	0.473485	0.499936
C52	C	1.324716	0.723485	0.749936
C53	C	0.574164	-0.080170	-0.000068
C54	C	0.824164	0.169830	0.249932
C55	C	1.074164	0.419830	0.499932
C56	C	1.324164	0.669830	0.749932
C57	C	0.089654	0.106229	-0.000053
C58	C	0.339654	0.356229	0.249947
C59	C	0.589654	0.606229	0.499947
C60	C	0.839654	0.856229	0.749947
C61	C	-0.112006	0.104178	-0.000057
C62	C	0.137994	0.354178	0.249943
C63	C	0.387994	0.604178	0.499943
C64	C	0.637994	0.854178	0.749943
O65	O	-0.143262	0.141398	-0.000074
O66	O	0.106738	0.391398	0.249926
O67	O	0.356738	0.641398	0.499926
O68	O	0.606738	0.891398	0.749926
N69	N	-0.131130	0.059843	-0.000063
N70	N	0.118870	0.309843	0.249937
N71	N	0.368870	0.559843	0.499937
N72	N	0.618870	0.809843	0.749937
C73	C	-0.099835	0.016017	-0.000071
C74	C	0.150165	0.266017	0.249929
C75	C	0.400165	0.516017	0.499929
C76	C	0.650165	0.766017	0.749929
O77	O	-0.120728	-0.021740	-0.000081
O78	O	0.129272	0.228260	0.249919
O79	O	0.379272	0.478260	0.499919
O80	O	0.629272	0.728260	0.749919
C81	C	0.101824	0.018068	-0.000069
C82	C	0.351824	0.268068	0.249931
C83	C	0.601824	0.518068	0.499931
C84	C	0.851824	0.768068	0.749931
C85	C	0.120944	0.062407	-0.000059
C86	C	0.370944	0.312407	0.249941
C87	C	0.620944	0.562407	0.499941
C88	C	0.870944	0.812407	0.749941
C89	C	0.108775	0.150563	-0.000043
C90	C	0.358775	0.400563	0.249957
C91	C	0.608775	0.650563	0.499957
C92	C	0.858775	0.900563	0.749957
C93	C	0.159187	0.151075	-0.000039
C94	C	0.409187	0.401075	0.249961
C95	C	0.659187	0.651075	0.499961
C96	C	0.909187	0.901075	0.749961
C97	C	0.190477	0.107253	-0.000045
C98	C	0.440477	0.357253	0.249955
C99	C	0.690477	0.607253	0.499955
C100	C	0.940477	0.857253	0.749955
C101	C	0.171356	0.062919	-0.000055
C102	C	0.421356	0.312919	0.249945
C103	C	0.671356	0.562919	0.499945
C104	C	0.921356	0.812919	0.749945
C105	C	0.133117	-0.025757	-0.000081
C106	C	0.383117	0.224243	0.249919
C107	C	0.633117	0.474243	0.499919
C108	C	0.883117	0.724243	0.749919
C109	C	0.183534	-0.025240	-0.000082
C110	C	0.433534	0.224760	0.249918
C111	C	0.683534	0.474760	0.499918
C112	C	0.933534	0.724760	0.749918
C113	C	0.202655	0.019098	-0.000071
C114	C	0.452655	0.269098	0.249929
C115	C	0.702655	0.519098	0.499929
C116	C	0.952655	0.769098	0.749929
C117	C	0.253059	0.019609	-0.000057
C118	C	0.503059	0.269609	0.249943
C119	C	0.753059	0.519609	0.499943
C120	C	1.003059	0.769609	0.749943
N121	N	0.272183	0.063944	-0.000051
N122	N	0.522183	0.313944	0.249949
N123	N	0.772183	0.563944	0.499949
N124	N	1.022183	0.813944	0.749949
C125	C	0.240892	0.107766	-0.000045
C126	C	0.490892	0.357766	0.249955
C127	C	0.740892	0.607766	0.499955
C128	C	0.990892	0.857766	0.749955
C129	C	-0.205709	0.014943	-0.000070
C130	C	0.044291	0.264943	0.249930
C131	C	0.294291	0.514943	0.499930
C132	C	0.544291	0.764943	0.749930
C133	C	-0.256124	0.014430	-0.000070
C134	C	-0.006124	0.264430	0.249930
C135	C	0.243876	0.514430	0.499930
C136	C	0.493876	0.764430	0.749930
C137	C	-0.268291	0.102591	-0.000057
C138	C	-0.018291	0.352591	0.249943
C139	C	0.231709	0.602591	0.499943
C140	C	0.481709	0.852591	0.749943
C141	C	-0.217876	0.103104	-0.000054
C142	C	0.032124	0.353104	0.249946
C143	C	0.282124	0.603104	0.499946
C144	C	0.532124	0.853104	0.749946
C145	C	-0.186585	0.059278	-0.000065
C146	C	0.063415	0.309278	0.249935
C147	C	0.313415	0.559278	0.499935
C148	C	0.563415	0.809278	0.749935
C149	C	0.346761	0.108839	-0.000036
C150	C	0.596761	0.358839	0.249964
C151	C	0.846761	0.608839	0.499964
C152	C	1.096761	0.858839	0.749964
C153	C	0.397178	0.109347	-0.000030
C154	C	0.647178	0.359347	0.249970
C155	C	0.897178	0.609347	0.499970
C156	C	1.147178	0.859347	0.749970
C157	C	0.409341	0.021186	-0.000045
C158	C	0.659341	0.271186	0.249955
C159	C	0.909341	0.521186	0.499955
C160	C	1.159341	0.771186	0.749955
C161	C	0.358929	0.020678	-0.000049
C162	C	0.608929	0.270678	0.249951
C163	C	0.858929	0.520678	0.499951
C164	C	1.108929	0.770678	0.749951
C165	C	0.327639	0.064508	-0.000046
C166	C	0.577639	0.314508	0.249954
C167	C	0.827639	0.564508	0.499954
C168	C	1.077639	0.814508	0.749954
O169	O	0.284343	-0.017592	-0.000046
O170	O	0.534343	0.232408	0.249954
O171	O	0.784343	0.482408	0.499954
O172	O	1.034343	0.732408	0.749954
O173	O	0.261794	0.145518	-0.000047
O174	O	0.511794	0.395518	0.249953
O175	O	0.761794	0.645518	0.499953
O176	O	1.011794	0.895518	0.749953
C177	C	0.039242	0.105716	-0.000057
C178	C	0.289242	0.355716	0.249943
C179	C	0.539242	0.605716	0.499943
C180	C	0.789242	0.855716	0.749943
C181	C	0.020120	0.061382	-0.000067
C182	C	0.270120	0.311382	0.249933
C183	C	0.520120	0.561382	0.499933
C184	C	0.770120	0.811382	0.749933
C185	C	0.051411	0.017560	-0.000073
C186	C	0.301411	0.267560	0.249927
C187	C	0.551411	0.517560	0.499927
C188	C	0.801411	0.767560	0.749927
C189	C	-0.030294	0.060869	-0.000066
C190	C	0.219706	0.310869	0.249934
C191	C	0.469706	0.560869	0.499934
C192	C	0.719706	0.810869	0.749934
C193	C	-0.061585	0.104691	-0.000060
C194	C	0.188415	0.354691	0.249940
C195	C	0.438415	0.604691	0.499940
C196	C	0.688415	0.854691	0.749940
C197	C	-0.042461	0.149026	-0.000054
C198	C	0.207539	0.399026	0.249946
C199	C	0.457539	0.649026	0.499946
C200	C	0.707539	0.899026	0.749946
C201	C	0.007951	0.149539	-0.000050
C202	C	0.257951	0.399539	0.249950
C203	C	0.507951	0.649539	0.499950
C204	C	0.757951	0.899539	0.749950
C205	C	0.032287	-0.026775	-0.000078
C206	C	0.282287	0.223225	0.249922
C207	C	0.532287	0.473225	0.499922
C208	C	0.782287	0.723225	0.749922
C209	C	-0.018125	-0.027284	-0.000082
C210	C	0.231875	0.222716	0.249918
C211	C	0.481875	0.472716	0.499918
C212	C	0.731875	0.722716	0.749918
C213	C	-0.049416	0.016538	-0.000076
C214	C	0.200584	0.266538	0.249924
C215	C	0.450584	0.516538	0.499924
C216	C	0.700584	0.766538	0.749924
C217	C	0.614867	-0.418985	-0.000046
C218	C	0.864867	-0.168985	0.249954
C219	C	1.114867	0.081015	0.499954
C220	C	1.364867	0.331015	0.749954
C221	C	0.612816	-0.620645	-0.000039
C222	C	0.862816	-0.370645	0.249961
C223	C	1.112816	-0.120645	0.499961
C224	C	1.362816	0.129355	0.749961
O225	O	0.650037	-0.651900	-0.000021
O226	O	0.900037	-0.401900	0.249979
O227	O	1.150037	-0.151900	0.499979
O228	O	1.400037	0.098100	0.749979
N229	N	0.568481	-0.639768	-0.000034
N230	N	0.818481	-0.389768	0.249966
N231	N	1.068481	-0.139768	0.499966
N232	N	1.318481	0.110232	0.749966
C233	C	0.524656	-0.608474	-0.000028
C234	C	0.774656	-0.358474	0.249972
C235	C	1.024656	-0.108474	0.499972
C236	C	1.274656	0.141526	0.749972
O237	O	0.486899	-0.629367	-0.000019
O238	O	0.736899	-0.379367	0.249981
O239	O	0.986899	-0.129367	0.499981
O240	O	1.236899	0.120633	0.749981
C241	C	0.526707	-0.406815	-0.000032
C242	C	0.776707	-0.156815	0.249968
C243	C	1.026707	0.093185	0.499968
C244	C	1.276707	0.343185	0.749968
C245	C	0.571045	-0.387694	-0.000042
C246	C	0.821045	-0.137694	0.249958
C247	C	1.071045	0.112306	0.499958
C248	C	1.321045	0.362306	0.749958
C249	C	0.659202	-0.399864	-0.000056
C250	C	0.909202	-0.149864	0.249944
C251	C	1.159202	0.100136	0.499944
C252	C	1.409202	0.350136	0.749944
C253	C	0.659714	-0.349452	-0.000060
C254	C	0.909714	-0.099452	0.249940
C255	C	1.159714	0.150548	0.499940
C256	C	1.409714	0.400548	0.749940
C257	C	0.615892	-0.318161	-0.000056
C258	C	0.865892	-0.068161	0.249944
C259	C	1.115892	0.181839	0.499944
C260	C	1.365892	0.431839	0.749944
C261	C	0.571557	-0.337282	-0.000046
C262	C	0.821557	-0.087282	0.249954
C263	C	1.071557	0.162718	0.499954
C264	C	1.321557	0.412718	0.749954
C265	C	0.482882	-0.375521	-0.000022
C266	C	0.732882	-0.125521	0.249978
C267	C	0.982882	0.124479	0.499978
C268	C	1.232882	0.374479	0.749978
C269	C	0.483399	-0.325104	-0.000022
C270	C	0.733399	-0.075104	0.249978
C271	C	0.983399	0.174896	0.499978
C272	C	1.233399	0.424896	0.749978
C273	C	0.527737	-0.305983	-0.000032
C274	C	0.777737	-0.055983	0.249968
C275	C	1.027737	0.194017	0.499968
C276	C	1.277737	0.444017	0.749968
C277	C	0.528247	-0.255580	-0.000046
C278	C	0.778247	-0.005580	0.249954
C279	C	1.028247	0.244420	0.499954
C280	C	1.278247	0.494420	0.749954
N281	N	0.572583	-0.236456	-0.000051
N282	N	0.822583	0.013544	0.249949
N283	N	1.072583	0.263544	0.499949
N284	N	1.322583	0.513544	0.749949
C285	C	0.616405	-0.267747	-0.000056
C286	C	0.866405	-0.017747	0.249944
C287	C	1.116405	0.232253	0.499944
C288	C	1.366405	0.482253	0.749944
C289	C	0.523582	-0.714348	-0.000027
C290	C	0.773582	-0.464348	0.249973
C291	C	1.023582	-0.214348	0.499973
C292	C	1.273582	0.035652	0.749973
C293	C	0.523069	-0.764762	-0.000027
C294	C	0.773069	-0.514762	0.249973
C295	C	1.023069	-0.264762	0.499973
C296	C	1.273069	-0.014762	0.749973
C297	C	0.611230	-0.776930	-0.000037
C298	C	0.861230	-0.526930	0.249963
C299	C	1.111230	-0.276930	0.499963
C300	C	1.361230	-0.026930	0.749963
C301	C	0.611742	-0.726514	-0.000041
C302	C	0.861742	-0.476514	0.249959
C303	C	1.111742	-0.226514	0.499959
C304	C	1.361742	0.023486	0.749959
C305	C	0.567917	-0.695224	-0.000032
C306	C	0.817917	-0.445224	0.249968
C307	C	1.067917	-0.195224	0.499968
C308	C	1.317917	0.054776	0.749968
C309	C	0.617477	-0.161878	-0.000066
C310	C	0.867477	0.088122	0.249934
C311	C	1.117477	0.338122	0.499934
C312	C	1.367477	0.588122	0.749934
C313	C	0.617986	-0.111461	-0.000073
C314	C	0.867986	0.138539	0.249927
C315	C	1.117986	0.388539	0.499927
C316	C	1.367986	0.638539	0.749927
C317	C	0.529825	-0.099298	-0.000060
C318	C	0.779825	0.150702	0.249940
C319	C	1.029825	0.400702	0.499940
C320	C	1.279825	0.650702	0.749940
C321	C	0.529316	-0.149710	-0.000056
C322	C	0.779316	0.100290	0.249944
C323	C	1.029316	0.350290	0.499944
C324	C	1.279316	0.600290	0.749944
C325	C	0.573146	-0.180999	-0.000057
C326	C	0.823146	0.069001	0.249943
C327	C	1.073146	0.319001	0.499943
C328	C	1.323146	0.569001	0.749943
O329	O	0.491047	-0.224296	-0.000059
O330	O	0.741047	0.025704	0.249941
O331	O	0.991047	0.275704	0.499941
O332	O	1.241047	0.525704	0.749941
O333	O	0.654156	-0.246844	-0.000054
O334	O	0.904156	0.003156	0.249946
O335	O	1.154156	0.253156	0.499946
O336	O	1.404156	0.503156	0.749946
C337	C	0.614355	-0.469397	-0.000042
C338	C	0.864355	-0.219397	0.249958
C339	C	1.114355	0.030603	0.499958
C340	C	1.364355	0.280603	0.749958
C341	C	0.570021	-0.488518	-0.000033
C342	C	0.820021	-0.238518	0.249967
C343	C	1.070021	0.011482	0.499967
C344	C	1.320021	0.261482	0.749967
C345	C	0.526198	-0.457228	-0.000028
C346	C	0.776198	-0.207228	0.249972
C347	C	1.026198	0.042772	0.499972
C348	C	1.276198	0.292772	0.749972
C349	C	0.569508	-0.538933	-0.000033
C350	C	0.819508	-0.288933	0.249967
C351	C	1.069508	-0.038933	0.499967
C352	C	1.319508	0.211067	0.749967
C353	C	0.613330	-0.570223	-0.000037
C354	C	0.863330	-0.320223	0.249963
C355	C	1.113330	-0.070223	0.499963
C356	C	1.363330	0.179777	0.749963
C357	C	0.657665	-0.551100	-0.000042
C358	C	0.907665	-0.301100	0.249958
C359	C	1.157665	-0.051100	0.499958
C360	C	1.407665	0.198900	0.749958
C361	C	0.658177	-0.500688	-0.000046
C362	C	0.908177	-0.250688	0.249954
C363	C	1.158177	-0.000688	0.499954
C364	C	1.408177	0.249312	0.749954
C365	C	0.481863	-0.476351	-0.000023
C366	C	0.731863	-0.226351	0.249977
C367	C	0.981863	0.023649	0.499977
C368	C	1.231863	0.273649	0.749977
C369	C	0.481355	-0.526764	-0.000019
C370	C	0.731355	-0.276764	0.249981
C371	C	0.981355	-0.026764	0.499981
C372	C	1.231355	0.223236	0.749981
C373	C	0.525177	-0.558054	-0.000024
C374	C	0.775177	-0.308054	0.249976
C375	C	1.025177	-0.058054	0.499976
C376	C	1.275177	0.191946	0.749976
C377	C	0.658931	0.057699	-0.000061
C378	C	0.908931	0.307699	0.249939
C379	C	1.158931	0.557699	0.499939
C380	C	1.408931	0.807699	0.749939
C381	C	0.712586	0.058252	-0.000064
C382	C	0.962586	0.308252	0.249936
C383	C	1.212586	0.558252	0.499936
C384	C	1.462586	0.808252	0.749936
C385	C	0.566338	0.150292	-0.000040
C386	C	0.816338	0.400292	0.249960
C387	C	1.066338	0.650292	0.499960
C388	C	1.316338	0.900292	0.749960
C389	C	0.566891	0.203947	-0.000032
C390	C	0.816891	0.453947	0.249968
C391	C	1.066891	0.703947	0.499968
C392	C	1.316891	0.953947	0.749968
N393	N	0.570482	0.061887	-0.120813
N394	N	0.820482	0.311887	0.129187
N395	N	1.070482	0.561887	0.379187
N396	N	1.320482	0.811887	0.629187
C397	C	0.537408	0.094981	-0.526773
C398	C	0.787408	0.344981	-0.276773
C399	C	1.037408	0.594981	-0.026773
C400	C	1.287408	0.844981	0.223227
C401	C	0.537385	0.094982	-0.313114
C402	C	0.787385	0.344982	-0.063114
C403	C	1.037385	0.594982	0.186886
C404	C	1.287385	0.844982	0.436886
O405	O	0.509207	0.123115	-0.285489
O406	O	0.759207	0.373115	-0.035489
O407	O	1.009207	0.623115	0.214511
O408	O	1.259207	0.873115	0.464511
N409	N	0.570497	0.061885	-0.286397
N410	N	0.820497	0.311885	-0.036397
N411	N	1.070497	0.561885	0.213603
N412	N	1.320497	0.811885	0.463603
C413	C	0.603615	0.028785	-0.313098
C414	C	0.853615	0.278785	-0.063098
C415	C	1.103615	0.528785	0.186902
C416	C	1.353615	0.778785	0.436902
O417	O	0.631775	0.000631	-0.285471
O418	O	0.881775	0.250631	-0.035471
O419	O	1.131775	0.500631	0.214529
O420	O	1.381775	0.750631	0.464529
C421	C	0.603636	0.028783	-0.526756
C422	C	0.853636	0.278783	-0.276756
C423	C	1.103636	0.528783	-0.026756
C424	C	1.353636	0.778783	0.223244
C425	C	0.570525	0.061884	-0.553470
C426	C	0.820525	0.311884	-0.303470
C427	C	1.070525	0.561884	-0.053470
C428	C	1.320525	0.811884	0.196530
C429	C	0.504299	0.128080	-0.553487
C430	C	0.754299	0.378080	-0.303487
C431	C	1.004299	0.628080	-0.053487
C432	C	1.254299	0.878080	0.196513
C433	C	0.504307	0.128081	-0.606898
C434	C	0.754307	0.378081	-0.356898
C435	C	1.004307	0.628081	-0.106898
C436	C	1.254307	0.878081	0.143102
C437	C	0.537424	0.094984	-0.633596
C438	C	0.787424	0.344984	-0.383596
C439	C	1.037424	0.594984	-0.133596
C440	C	1.287424	0.844984	0.116404
C441	C	0.570533	0.061886	-0.606881
C442	C	0.820533	0.311886	-0.356881
C443	C	1.070533	0.561886	-0.106881
C444	C	1.320533	0.811886	0.143119
C445	C	0.636752	-0.004320	-0.553456
C446	C	0.886752	0.245680	-0.303456
C447	C	1.136752	0.495680	-0.053456
C448	C	1.386752	0.745680	0.196544
C449	C	0.636753	-0.004319	-0.606873
C450	C	0.886753	0.245681	-0.356873
C451	C	1.136753	0.495681	-0.106873
C452	C	1.386753	0.745681	0.143127
C453	C	0.603642	0.028783	-0.633588
C454	C	0.853642	0.278783	-0.383588
C455	C	1.103642	0.528783	-0.133588
C456	C	1.353642	0.778783	0.116412
C457	C	0.603657	0.028790	-0.686990
C458	C	0.853657	0.278790	-0.436990
C459	C	1.103657	0.528790	-0.186990
C460	C	1.353657	0.778790	0.063010
N461	N	0.570545	0.061886	-0.713707
N462	N	0.820545	0.311886	-0.463707
N463	N	1.070545	0.561886	-0.213707
N464	N	1.320545	0.811886	0.036293
C465	C	0.537428	0.094983	-0.687010
C466	C	0.787428	0.344983	-0.437010
C467	C	1.037428	0.594983	-0.187010
C468	C	1.287428	0.844983	0.062990
C469	C	0.603603	0.028789	-0.200925
C470	C	0.853603	0.278789	0.049075
C471	C	1.103603	0.528789	0.299075
C472	C	1.353603	0.778789	0.549075
C473	C	0.603598	0.028790	-0.147511
C474	C	0.853598	0.278790	0.102489
C475	C	1.103598	0.528790	0.352489
C476	C	1.353598	0.778790	0.602489
C477	C	0.537367	0.094986	-0.147530
C478	C	0.787367	0.344986	0.102470
C479	C	1.037367	0.594986	0.352470
C480	C	1.287367	0.844986	0.602470
C481	C	0.537374	0.094987	-0.200945
C482	C	0.787374	0.344987	0.049055
C483	C	1.037374	0.594987	0.299055
C484	C	1.287374	0.844987	0.549055
C485	C	0.570491	0.061885	-0.227642
C486	C	0.820491	0.311885	0.022358
C487	C	1.070491	0.561885	0.272358
C488	C	1.320491	0.811885	0.522358
C489	C	0.537448	0.094984	-0.799178
C490	C	0.787448	0.344984	-0.549178
C491	C	1.037448	0.594984	-0.299178
C492	C	1.287448	0.844984	-0.049178
C493	C	0.537460	0.094983	-0.852594
C494	C	0.787460	0.344983	-0.602594
C495	C	1.037460	0.594983	-0.352594
C496	C	1.287460	0.844983	-0.102594
C497	C	0.603689	0.028786	-0.852569
C498	C	0.853689	0.278786	-0.602569
C499	C	1.103689	0.528786	-0.352569
C500	C	1.353689	0.778786	-0.102569
C501	C	0.603679	0.028787	-0.799158
C502	C	0.853679	0.278787	-0.549158
C503	C	1.103679	0.528787	-0.299158
C504	C	1.353679	0.778787	-0.049158
C505	C	0.570554	0.061888	-0.772463
C506	C	0.820554	0.311888	-0.522463
C507	C	1.070554	0.561888	-0.272463
C508	C	1.320554	0.811888	-0.022463
O509	O	0.631817	0.000667	-0.714649
O510	O	0.881817	0.250667	-0.464649
O511	O	1.131817	0.500667	-0.214649
O512	O	1.381817	0.750667	0.035351
O513	O	0.509265	0.123125	-0.714646
O514	O	0.759265	0.373125	-0.464646
O515	O	1.009265	0.623125	-0.214646
O516	O	1.259265	0.873125	0.035354
C517	C	0.537400	0.094980	-0.473361
C518	C	0.787400	0.344980	-0.223361
C519	C	1.037400	0.594980	0.026639
C520	C	1.287400	0.844980	0.276639
C521	C	0.570509	0.061881	-0.446647
C522	C	0.820509	0.311881	-0.196647
C523	C	1.070509	0.561881	0.053353
C524	C	1.320509	0.811881	0.303353
C525	C	0.603626	0.028784	-0.473344
C526	C	0.853626	0.278784	-0.223344
C527	C	1.103626	0.528784	0.026656
C528	C	1.353626	0.778784	0.276656
C529	C	0.570504	0.061883	-0.393233
C530	C	0.820504	0.311883	-0.143233
C531	C	1.070504	0.561883	0.106767
C532	C	1.320504	0.811883	0.356767
C533	C	0.537388	0.094980	-0.366536
C534	C	0.787388	0.344980	-0.116536
C535	C	1.037388	0.594980	0.133464
C536	C	1.287388	0.844980	0.383464
C537	C	0.504276	0.128076	-0.393253
C538	C	0.754276	0.378076	-0.143253
C539	C	1.004276	0.628076	0.106747
C540	C	1.254276	0.878076	0.356747
C541	C	0.504283	0.128077	-0.446664
C542	C	0.754283	0.378077	-0.196664
C543	C	1.004283	0.628077	0.053336
C544	C	1.254283	0.878077	0.303336
C545	C	0.636738	-0.004312	-0.446627
C546	C	0.886738	0.245688	-0.196627
C547	C	1.136738	0.495688	0.053373
C548	C	1.386738	0.745688	0.303373
C549	C	0.636728	-0.004310	-0.393216
C550	C	0.886728	0.245690	-0.143216
C551	C	1.136728	0.495690	0.106784
C552	C	1.386728	0.745690	0.356784
C553	C	0.603611	0.028787	-0.366519
C554	C	0.853611	0.278787	-0.116519
C555	C	1.103611	0.528787	0.133481
C556	C	1.353611	0.778787	0.383481
N557	N	0.570577	0.061886	0.120709
N558	N	0.820577	0.311886	0.370709
N559	N	1.070577	0.561886	0.620709
N560	N	1.320577	0.811886	0.870709
H561	H	0.412743	0.145454	-0.000021
H562	H	0.662743	0.395454	0.249979
H563	H	0.912743	0.645454	0.499979
H564	H	1.162743	0.895454	0.749979
Cl565	Cl	0.462662	0.169694	-0.519934
Cl566	Cl	0.712662	0.419694	-0.269934
Cl567	Cl	0.962662	0.669694	-0.019934
Cl568	Cl	1.212662	0.919694	0.230066
Cl569	Cl	-0.193844	0.158845	-0.000043
Cl570	Cl	0.056156	0.408845	0.249957
Cl571	Cl	0.306156	0.658845	0.499957
Cl572	Cl	0.556156	0.908845	0.749957
Cl573	Cl	0.428300	-0.285770	-0.000010
Cl574	Cl	0.678300	-0.035770	0.249990
Cl575	Cl	0.928300	0.214230	0.499990
Cl576	Cl	1.178300	0.464230	0.749990
Cl577	Cl	0.462677	0.169693	-0.640476
Cl578	Cl	0.712677	0.419693	-0.390476
Cl579	Cl	0.962677	0.669693	-0.140476
Cl580	Cl	1.212677	0.919693	0.109524
H581	H	0.510403	0.121936	-0.125785
H582	H	0.760403	0.371936	0.124215
H583	H	1.010403	0.621936	0.374215
H584	H	1.260403	0.871936	0.624215
Cl585	Cl	0.672579	-0.201205	-0.000068
Cl586	Cl	0.922579	0.048795	0.249932
Cl587	Cl	1.172579	0.298795	0.499932
Cl588	Cl	1.422579	0.548795	0.749932
H589	H	-0.180236	-0.020747	-0.000079
H590	H	0.069764	0.229253	0.249921
H591	H	0.319764	0.479253	0.499921
H592	H	0.569764	0.729253	0.749921
H593	H	0.695819	-0.333889	-0.000066
H594	H	0.945819	-0.083889	0.249934
H595	H	1.195819	0.166111	0.499934
H596	H	1.445819	0.416111	0.749934
H597	H	0.209009	-0.060929	-0.000091
H598	H	0.459009	0.189071	0.249909
H599	H	0.709009	0.439071	0.499909
H600	H	0.959009	0.689071	0.749909
H601	H	0.630646	0.001838	-0.777407
H602	H	0.880646	0.251838	-0.527407
H603	H	1.130646	0.501838	-0.277407
H604	H	1.380646	0.751838	-0.027407
Cl605	Cl	0.334890	-0.035062	-0.000065
Cl606	Cl	0.584890	0.214938	0.249935
Cl607	Cl	0.834890	0.464938	0.499935
Cl608	Cl	1.084890	0.714938	0.749935
H609	H	0.510412	0.121941	-0.222693
H610	H	0.760412	0.371941	0.027307
H611	H	1.010412	0.621941	0.277307
H612	H	1.260412	0.871941	0.527307
Cl613	Cl	0.678359	-0.045926	-0.359638
Cl614	Cl	0.928359	0.204074	-0.109638
Cl615	Cl	1.178359	0.454074	0.140362
Cl616	Cl	1.428359	0.704074	0.390362
Cl617	Cl	0.069446	0.205662	-0.000033
Cl618	Cl	0.319446	0.455662	0.249967
Cl619	Cl	0.569446	0.705662	0.499967
Cl620	Cl	0.819446	0.955662	0.749967
Cl621	Cl	0.426766	-0.437021	-0.000017
Cl622	Cl	0.676766	-0.187021	0.249983
Cl623	Cl	0.926766	0.062979	0.499983
Cl624	Cl	1.176766	0.312979	0.749983
H625	H	0.487892	-0.688875	-0.000020
H626	H	0.737892	-0.438875	0.249980
H627	H	0.987892	-0.188875	0.499980
H628	H	1.237892	0.061125	0.749980
Cl629	Cl	-0.042156	-0.083029	-0.000089
Cl630	Cl	0.207844	0.166971	0.249911
Cl631	Cl	0.457844	0.416971	0.499911
Cl632	Cl	0.707844	0.666971	0.749911
H633	H	0.646911	-0.802415	-0.000041
H634	H	0.896911	-0.552415	0.249959
H635	H	1.146911	-0.302415	0.499959
H636	H	1.396911	-0.052415	0.749959
Cl637	Cl	0.645232	-0.012819	-0.113933
Cl638	Cl	0.895232	0.237181	0.136067
Cl639	Cl	1.145232	0.487181	0.386067
Cl640	Cl	1.395232	0.737181	0.636067
Cl641	Cl	0.473577	-0.173748	-0.000053
Cl642	Cl	0.723577	0.076252	0.249947
Cl643	Cl	0.973577	0.326252	0.499947
Cl644	Cl	1.223577	0.576252	0.749947
H645	H	0.477321	0.155032	-0.468411
H646	H	0.727321	0.405032	-0.218411
H647	H	0.977321	0.655032	0.031589
H648	H	1.227321	0.905032	0.281589
Cl649	Cl	0.467327	-0.788793	-0.000025
Cl650	Cl	0.717327	-0.538793	0.249975
Cl651	Cl	0.967327	-0.288793	0.499975
Cl652	Cl	1.217327	-0.038793	0.749975
Cl653	Cl	0.462645	0.169685	-0.359680
Cl654	Cl	0.712645	0.419685	-0.109680
Cl655	Cl	0.962645	0.669685	0.140320
Cl656	Cl	1.212645	0.919685	0.390320
H657	H	0.174750	0.187180	-0.000030
H658	H	0.424750	0.437180	0.249970
H659	H	0.674750	0.687180	0.499970
H660	H	0.924750	0.937180	0.749970
Cl661	Cl	0.714300	-0.439193	-0.000062
Cl662	Cl	0.964300	-0.189193	0.249938
Cl663	Cl	1.214300	0.060807	0.499938
Cl664	Cl	1.464300	0.310807	0.749938
H665	H	0.023514	0.185643	-0.000042
H666	H	0.273514	0.435643	0.249958
H667	H	0.523514	0.685643	0.499958
H668	H	0.773514	0.935643	0.749958
Cl669	Cl	0.678375	-0.045923	-0.480183
Cl670	Cl	0.928375	0.204077	-0.230183
Cl671	Cl	1.178375	0.454077	0.019817
Cl672	Cl	1.428375	0.704077	0.269817
Cl673	Cl	-0.081807	0.204116	-0.000045
Cl674	Cl	0.168193	0.454116	0.249955
Cl675	Cl	0.418193	0.704116	0.499955
Cl676	Cl	0.668193	0.954116	0.749955
Cl677	Cl	0.071617	-0.081872	-0.000086
Cl678	Cl	0.321617	0.168128	0.249914
Cl679	Cl	0.571617	0.418128	0.499914
Cl680	Cl	0.821617	0.668128	0.749914
H681	H	0.434827	-0.014492	-0.000048
H682	H	0.684827	0.235508	0.249952
H683	H	0.934827	0.485508	0.499952
H684	H	1.184827	0.735508	0.749952
H685	H	0.510497	0.121940	-0.874343
H686	H	0.760497	0.371940	-0.624343
H687	H	1.010497	0.621940	-0.374343
H688	H	1.260497	0.871940	-0.124343
H689	H	0.654093	-0.095896	-0.000082
H690	H	0.904093	0.154104	0.249918
H691	H	1.154093	0.404104	0.499918
H692	H	1.404093	0.654104	0.749918
H693	H	0.117558	-0.061861	-0.000090
H694	H	0.367558	0.188139	0.249910
H695	H	0.617558	0.438139	0.499910
H696	H	0.867558	0.688139	0.749910
H697	H	0.630571	0.001832	-0.222657
H698	H	0.880571	0.251832	0.027343
H699	H	1.130571	0.501832	0.277343
H700	H	1.380571	0.751832	0.527343
H701	H	0.630654	0.001839	-0.874315
H702	H	0.880654	0.251839	-0.624315
H703	H	1.130654	0.501839	-0.374315
H704	H	1.380654	0.751839	-0.124315
H705	H	0.663713	-0.031275	-0.531712
H706	H	0.913713	0.218725	-0.281712
H707	H	1.163713	0.468725	-0.031712
H708	H	1.413713	0.718725	0.218288
Cl709	Cl	0.474737	-0.059952	-0.000053
Cl710	Cl	0.724737	0.190048	0.249947
Cl711	Cl	0.974737	0.440048	0.499947
Cl712	Cl	1.224737	0.690048	0.749947
Cl713	Cl	0.667483	-0.702482	-0.000053
Cl714	Cl	0.917483	-0.452482	0.249947
Cl715	Cl	1.167483	-0.202482	0.499947
Cl716	Cl	1.417483	0.047518	0.749947
H717	H	0.446777	-0.391080	-0.000011
H718	H	0.696777	-0.141080	0.249989
H719	H	0.946777	0.108920	0.499989
H720	H	1.196777	0.358920	0.749989
H721	H	0.663720	-0.031276	-0.628607
H722	H	0.913720	0.218724	-0.378607
H723	H	1.163720	0.468724	-0.128607
H724	H	1.413720	0.718724	0.121393
H725	H	0.321291	0.144530	-0.000036
H726	H	0.571291	0.394530	0.249964
H727	H	0.821291	0.644530	0.499964
H728	H	1.071291	0.894530	0.749964
H729	H	0.510474	0.121937	-0.777449
H730	H	0.760474	0.371937	-0.527449
H731	H	1.010474	0.621937	-0.277449
H732	H	1.260474	0.871937	-0.027449
Cl733	Cl	0.712755	-0.590446	-0.000050
Cl734	Cl	0.962755	-0.340446	0.249950
Cl735	Cl	1.212755	-0.090446	0.499950
Cl736	Cl	1.462755	0.159554	0.749950
Cl737	Cl	-0.307637	0.157681	-0.000052
Cl738	Cl	-0.057637	0.407681	0.249948
Cl739	Cl	0.192363	0.657681	0.499948
Cl740	Cl	0.442363	0.907681	0.749948
H741	H	0.694282	-0.485125	-0.000054
H742	H	0.944282	-0.235125	0.249946
H743	H	1.194282	0.014875	0.499946
H744	H	1.444282	0.264875	0.749946
Cl745	Cl	-0.280155	-0.041312	-0.000070
Cl746	Cl	-0.030155	0.208688	0.249930
Cl747	Cl	0.219845	0.458688	0.499930
Cl748	Cl	0.469845	0.708688	0.749930
H749	H	0.445246	-0.542327	-0.000016
H750	H	0.695246	-0.292327	0.249984
H751	H	0.945246	-0.042327	0.499984
H752	H	1.195246	0.207673	0.749984
