data_functionalizedCrystal
_audit_creation_method	'MofGen! by Chris Wilmer'
_symmetry_space_group_name_H-M	'P1'
_symmetry_Int_Tables_number	1
_symmetry_cell_setting	triclinic
loop_
_symmetry_equiv_pos_as_xyz
  x,y,z
_cell_length_a	17.077402
_cell_length_b	19.077241
_cell_length_c	17.077396
_cell_angle_alpha	87.677561
_cell_angle_beta	90.027528
_cell_angle_gamma	87.684567
loop_
_atom_site_label
_atom_site_type_symbol
_atom_site_fract_x
_atom_site_fract_y
_atom_site_fract_z
Zn1	Zn	-0.264414	-1.076016	0.492172
Zn2	Zn	-0.395693	-1.075931	0.360905
Zn3	Zn	-0.269702	-0.958315	0.355634
Zn4	Zn	-0.400904	-0.958285	0.486845
O5	O	-0.332678	-1.017137	0.423889
O6	O	-0.277435	-1.174498	0.479195
O7	O	-0.379012	-1.060306	0.250357
O8	O	-0.159151	-0.973976	0.373770
O9	O	-0.373885	-1.174436	0.382753
O10	O	-0.155267	-1.060450	0.474084
O11	O	-0.286447	-0.973894	0.246485
O12	O	-0.291500	-0.859818	0.368604
O13	O	-0.382766	-0.973925	0.597399
O14	O	-0.387894	-0.859796	0.465004
O15	O	-0.282488	-1.060421	0.601314
O16	O	-0.506233	-1.060277	0.377587
O17	O	-0.510062	-0.973843	0.470115
C18	C	-0.340837	-0.834269	0.415655
C19	C	-0.344346	-0.756037	0.412151
C20	C	-0.295858	-0.719316	0.460793
C21	C	-0.299151	-0.645809	0.457494
C22	C	-0.350937	-0.609024	0.405555
C23	C	-0.399427	-0.645750	0.356908
C24	C	-0.396129	-0.719255	0.360203
C25	C	-0.366173	-0.389182	0.390302
C26	C	-0.369469	-0.315671	0.387012
C27	C	-0.269192	-0.315736	0.487597
C28	C	-0.265902	-0.389243	0.490892
C29	C	-0.314389	-0.425962	0.442241
N30	N	-0.354307	-0.533888	0.402184
N31	N	-0.311015	-0.501097	0.445609
C32	C	-0.536629	-1.017067	0.423863
C33	C	-0.623878	-1.017101	0.423880
C34	C	-0.662778	-1.062104	0.476153
C35	C	-0.744757	-1.062133	0.476171
C36	C	-0.787834	-1.017163	0.423912
C37	C	-0.748928	-0.972156	0.371637
C38	C	-0.666950	-0.972123	0.371623
C39	C	-0.919795	-0.972228	0.371667
C40	C	-1.001778	-0.972262	0.371680
C41	C	-0.997602	-1.062238	0.476215
C42	C	-0.915624	-1.062206	0.476202
C43	C	-0.876723	-1.017199	0.423925
C44	C	-0.127930	-1.017226	0.423934
C45	C	-0.040678	-1.017264	0.423953
C46	C	-0.332619	-1.017179	0.628635
C47	C	-0.332593	-1.017197	0.715886
C48	C	-0.324484	-0.200719	0.432150
C49	C	-0.320981	-0.278951	0.435654
C50	C	-0.332679	-1.017135	0.219941
C51	C	-0.332478	-1.017253	0.132697
C52	C	-0.280374	-1.062238	0.758915
C53	C	-0.280347	-1.062246	0.840896
C54	C	-0.332544	-1.017217	0.879846
C55	C	-0.384766	-0.972172	0.836811
C56	C	-0.384788	-0.972161	0.754831
C57	C	-0.384718	-0.972201	1.007682
C58	C	-0.384697	-0.972213	1.089667
C59	C	-0.280277	-1.062286	1.093747
C60	C	-0.280299	-1.062274	1.011768
C61	C	-0.332522	-1.017230	0.968738
H62	H	-0.223735	-0.419189	0.533188
H63	H	-0.405656	-0.419070	0.350688
H64	H	-0.229716	-0.285831	0.527205
H65	H	-0.888125	-0.935577	0.329101
H66	H	-0.427263	-0.935507	0.868530
H67	H	-0.237871	-1.098907	0.727209
H68	H	-0.411643	-0.285723	0.344717
H69	H	-0.435613	-0.749152	0.320593
C70	C	-0.624160	-0.922618	0.314118
N71	N	-0.591931	-0.885327	0.270806
C72	C	-1.049161	-0.922787	0.314198
N73	N	-1.084850	-0.885521	0.270902
C74	C	-0.796313	-0.922731	0.314105
N75	N	-0.832002	-0.885521	0.270753
C76	C	-0.222903	-1.111795	0.888225
N77	N	-0.179634	-1.149118	0.923873
C78	C	-0.238888	-0.759773	0.517929
N79	N	-0.195974	-0.790244	0.560963
C80	C	-0.245813	-0.605420	0.511007
N81	N	-0.205636	-0.575000	0.551316
C82	C	-0.456391	-0.605283	0.299774
N83	N	-0.499300	-0.574805	0.256741
H84	H	-0.627710	-1.098727	0.518705
C85	C	-0.787544	-1.111649	0.533665
N86	N	-0.819770	-1.148949	0.576970
H87	H	-0.880551	-1.098827	0.518751
H88	H	-0.237799	-1.098945	0.980057
C89	C	-1.040394	-1.111742	0.533724
N90	N	-1.072629	-1.149029	0.577037
C91	C	-0.222830	-1.111835	1.141082
N92	N	-0.179566	-1.149156	1.176738
H93	H	-0.427303	-0.935477	0.719797
C94	C	-0.442112	-0.922675	1.132510
N95	N	-0.485356	-0.885361	1.164780
H96	H	-0.427231	-0.935510	0.972649
