data_functionalizedCrystal
_audit_creation_method	'MofGen! by Chris Wilmer'
_symmetry_space_group_name_H-M	'P1'
_symmetry_Int_Tables_number	1
_symmetry_cell_setting	triclinic
loop_
_symmetry_equiv_pos_as_xyz
  x,y,z
_cell_length_a	23.532407
_cell_length_b	23.532357
_cell_length_c	22.010155
_cell_angle_alpha	89.998697
_cell_angle_beta	89.996931
_cell_angle_gamma	82.838485
loop_
_atom_site_label
_atom_site_type_symbol
_atom_site_fract_x
_atom_site_fract_y
_atom_site_fract_z
O1	O	0.755251	0.069129	-0.050457
O2	O	1.005251	0.319129	0.199543
O3	O	1.255251	0.569129	0.449543
O4	O	1.505251	0.819129	0.699543
O5	O	0.589386	0.079132	-0.050475
O6	O	0.839386	0.329132	0.199525
O7	O	1.089386	0.579132	0.449525
O8	O	1.339386	0.829132	0.699525
O9	O	0.677335	-0.008803	-0.050453
O10	O	0.927335	0.241197	0.199547
O11	O	1.177335	0.491197	0.449547
O12	O	1.427335	0.741197	0.699547
O13	O	0.667302	0.157064	-0.050479
O14	O	0.917302	0.407064	0.199521
O15	O	1.167302	0.657064	0.449521
O16	O	1.417302	0.907064	0.699521
O17	O	0.677319	-0.008790	0.050597
O18	O	0.927319	0.241210	0.300597
O19	O	1.177319	0.491210	0.550597
O20	O	1.427319	0.741210	0.800597
O21	O	0.589370	0.079145	0.050575
O22	O	0.839370	0.329145	0.300575
O23	O	1.089370	0.579145	0.550575
O24	O	1.339370	0.829145	0.800575
O25	O	0.755235	0.069142	0.050594
O26	O	1.005235	0.319142	0.300594
O27	O	1.255235	0.569142	0.550594
O28	O	1.505235	0.819142	0.800594
Cu29	Cu	0.672301	0.074145	0.059811
Cu30	Cu	0.922301	0.324145	0.309811
Cu31	Cu	1.172301	0.574145	0.559811
Cu32	Cu	1.422301	0.824145	0.809811
Cu33	Cu	0.672320	0.074129	-0.059693
Cu34	Cu	0.922320	0.324129	0.190307
Cu35	Cu	1.172320	0.574129	0.440307
Cu36	Cu	1.422320	0.824129	0.690307
O37	O	0.667286	0.157077	0.050571
O38	O	0.917286	0.407077	0.300571
O39	O	1.167286	0.657077	0.550571
O40	O	1.417286	0.907077	0.800571
C41	C	0.568162	0.078884	0.000048
C42	C	0.818162	0.328884	0.250048
C43	C	1.068162	0.578884	0.500048
C44	C	1.318162	0.828884	0.750048
C45	C	0.504945	0.078118	0.000041
C46	C	0.754945	0.328118	0.250041
C47	C	1.004945	0.578118	0.500041
C48	C	1.254945	0.828118	0.750041
C49	C	0.677076	-0.030013	0.000074
C50	C	0.927076	0.219987	0.250074
C51	C	1.177076	0.469987	0.500074
C52	C	1.427076	0.719987	0.750074
C53	C	0.676322	-0.093232	0.000080
C54	C	0.926322	0.156768	0.250080
C55	C	1.176322	0.406768	0.500080
C56	C	1.426322	0.656768	0.750080
C57	C	0.105834	0.125353	0.000061
C58	C	0.355834	0.375353	0.250061
C59	C	0.605834	0.625353	0.500061
C60	C	0.855834	0.875353	0.750061
C61	C	0.046434	0.124641	0.000065
C62	C	0.296434	0.374641	0.250065
C63	C	0.546434	0.624641	0.500065
C64	C	0.796434	0.874641	0.750065
O65	O	0.009681	0.168428	0.000080
O66	O	0.259681	0.418428	0.250080
O67	O	0.509681	0.668428	0.500080
O68	O	0.759681	0.918428	0.750080
N69	N	0.023817	0.072364	0.000072
N70	N	0.273817	0.322364	0.250072
N71	N	0.523817	0.572364	0.500072
N72	N	0.773817	0.822364	0.750072
C73	C	0.060604	0.020794	0.000082
C74	C	0.310604	0.270794	0.250082
C75	C	0.560604	0.520794	0.500082
C76	C	0.810604	0.770794	0.750082
O77	O	0.035912	-0.023737	0.000089
O78	O	0.285912	0.226263	0.250089
O79	O	0.535912	0.476263	0.500089
O80	O	0.785912	0.726263	0.750089
C81	C	0.120003	0.021506	0.000082
C82	C	0.370003	0.271506	0.250082
C83	C	0.620003	0.521506	0.500082
C84	C	0.870003	0.771506	0.750082
C85	C	0.142616	0.073787	0.000069
C86	C	0.392616	0.323787	0.250069
C87	C	0.642616	0.573787	0.500069
C88	C	0.892616	0.823787	0.750069
C89	C	0.128448	0.177629	0.000048
C90	C	0.378448	0.427629	0.250048
C91	C	0.628448	0.677629	0.500048
C92	C	0.878448	0.927629	0.750048
C93	C	0.187844	0.178341	0.000043
C94	C	0.437844	0.428341	0.250043
C95	C	0.687844	0.678341	0.500043
C96	C	0.937844	0.928341	0.750043
C97	C	0.224626	0.126775	0.000051
C98	C	0.474626	0.376775	0.250051
C99	C	0.724626	0.626775	0.500051
C100	C	0.974626	0.876775	0.750051
C101	C	0.202012	0.074498	0.000064
C102	C	0.452012	0.324498	0.250064
C103	C	0.702012	0.574498	0.500064
C104	C	0.952012	0.824498	0.750064
C105	C	0.156788	-0.030063	0.000096
C106	C	0.406788	0.219937	0.250096
C107	C	0.656788	0.469937	0.500096
C108	C	0.906788	0.719937	0.750096
C109	C	0.216191	-0.029346	0.000097
C110	C	0.466191	0.220654	0.250097
C111	C	0.716191	0.470654	0.500097
C112	C	0.966191	0.720654	0.750097
C113	C	0.238804	0.022935	0.000084
C114	C	0.488804	0.272935	0.250084
C115	C	0.738804	0.522935	0.500084
C116	C	0.988804	0.772935	0.750084
C117	C	0.298190	0.023644	0.000067
C118	C	0.548190	0.273644	0.250067
C119	C	0.798190	0.523644	0.500067
C120	C	1.048190	0.773644	0.750067
N121	N	0.320807	0.075922	0.000059
N122	N	0.570807	0.325922	0.250059
N123	N	0.820807	0.575922	0.500059
N124	N	1.070807	0.825922	0.750059
C125	C	0.284025	0.127487	0.000052
C126	C	0.534025	0.377487	0.250052
C127	C	0.784025	0.627487	0.500052
C128	C	1.034025	0.877487	0.750052
C129	C	-0.064139	0.019303	0.000082
C130	C	0.185861	0.269303	0.250082
C131	C	0.435861	0.519303	0.500082
C132	C	0.685861	0.769303	0.750082
C133	C	-0.123536	0.018590	0.000077
C134	C	0.126464	0.268590	0.250077
C135	C	0.376464	0.518590	0.500077
C136	C	0.626464	0.768590	0.750077
C137	C	-0.137702	0.122437	0.000061
C138	C	0.112298	0.372437	0.250061
C139	C	0.362298	0.622437	0.500061
C140	C	0.612298	0.872437	0.750061
C141	C	-0.078303	0.123149	0.000062
C142	C	0.171697	0.373149	0.250062
C143	C	0.421697	0.623149	0.500062
C144	C	0.671697	0.873149	0.750062
C145	C	-0.041522	0.071580	0.000074
C146	C	0.208478	0.321580	0.250074
C147	C	0.458478	0.571580	0.500074
C148	C	0.708478	0.821580	0.750074
C149	C	0.408761	0.128977	0.000041
C150	C	0.658761	0.378977	0.250041
C151	C	0.908761	0.628977	0.500041
C152	C	1.158761	0.878977	0.750041
C153	C	0.468163	0.129684	0.000033
C154	C	0.718163	0.379684	0.250033
C155	C	0.968163	0.629684	0.500033
C156	C	1.218163	0.879684	0.750033
C157	C	0.482324	0.025837	0.000052
C158	C	0.732324	0.275837	0.250052
C159	C	0.982324	0.525837	0.500052
C160	C	1.232324	0.775837	0.750052
C161	C	0.422927	0.025130	0.000056
C162	C	0.672927	0.275130	0.250056
C163	C	0.922927	0.525130	0.500056
C164	C	1.172927	0.775130	0.750056
C165	C	0.386147	0.076704	0.000053
C166	C	0.636147	0.326704	0.250053
C167	C	0.886147	0.576704	0.500053
C168	C	1.136147	0.826704	0.750053
O169	O	0.334977	-0.020120	0.000054
O170	O	0.584977	0.229880	0.250054
O171	O	0.834977	0.479880	0.500054
O172	O	1.084977	0.729880	0.750054
O173	O	0.308725	0.172011	0.000052
O174	O	0.558725	0.422011	0.250052
O175	O	0.808725	0.672011	0.500052
O176	O	1.058725	0.922011	0.750052
C177	C	0.671594	-0.485250	-0.055036
C178	C	0.921594	-0.235250	0.194964
C179	C	1.171594	0.014750	0.444964
C180	C	1.421594	0.264750	0.694964
C181	C	0.670877	-0.544650	-0.055040
C182	C	0.920877	-0.294650	0.194960
C183	C	1.170877	-0.044650	0.444960
C184	C	1.420877	0.205350	0.694960
O185	O	0.670494	-0.575372	-0.101885
O186	O	0.920494	-0.325372	0.148115
O187	O	1.170494	-0.075372	0.398115
O188	O	1.420494	0.174628	0.648115
N189	N	0.670512	-0.574354	0.000042
N190	N	0.920512	-0.324354	0.250042
N191	N	1.170512	-0.074354	0.500042
N192	N	1.420512	0.175646	0.750042
C193	C	0.670859	-0.544655	0.055131
C194	C	0.920859	-0.294655	0.305131
C195	C	1.170859	-0.044655	0.555131
C196	C	1.420859	0.205345	0.805131
O197	O	0.670483	-0.575374	0.101982
O198	O	0.920483	-0.325374	0.351982
O199	O	1.170483	-0.075374	0.601982
O200	O	1.420483	0.174626	0.851982
C201	C	0.671572	-0.485256	0.055134
C202	C	0.921572	-0.235256	0.305134
C203	C	1.171572	0.014744	0.555134
C204	C	1.421572	0.264744	0.805134
C205	C	0.671943	-0.455556	0.000048
C206	C	0.921943	-0.205556	0.250048
C207	C	1.171943	0.044444	0.500048
C208	C	1.421943	0.294444	0.750048
C209	C	0.671963	-0.455550	-0.110117
C210	C	0.921963	-0.205550	0.139883
C211	C	1.171963	0.044450	0.389883
C212	C	1.421963	0.294450	0.639883
C213	C	0.672682	-0.396155	-0.110113
C214	C	0.922682	-0.146155	0.139887
C215	C	1.172682	0.103845	0.389887
C216	C	1.422682	0.353845	0.639887
C217	C	0.673030	-0.366460	-0.055029
C218	C	0.923030	-0.116460	0.194971
C219	C	1.173030	0.133540	0.444971
C220	C	1.423030	0.383540	0.694971
C221	C	0.672661	-0.396160	0.000052
C222	C	0.922661	-0.146160	0.250052
C223	C	1.172661	0.103840	0.500052
C224	C	1.422661	0.353840	0.750052
C225	C	0.671915	-0.455557	0.110222
C226	C	0.921915	-0.205557	0.360222
C227	C	1.171915	0.044443	0.610222
C228	C	1.421915	0.294443	0.860222
C229	C	0.672628	-0.396154	0.110220
C230	C	0.922628	-0.146154	0.360220
C231	C	1.172628	0.103846	0.610220
C232	C	1.422628	0.353846	0.860220
C233	C	0.672998	-0.366454	0.055135
C234	C	0.922998	-0.116454	0.305135
C235	C	1.172998	0.133546	0.555135
C236	C	1.422998	0.383546	0.805135
C237	C	0.673728	-0.307070	0.055141
C238	C	0.923728	-0.057070	0.305141
C239	C	1.173728	0.192930	0.555141
C240	C	1.423728	0.442930	0.805141
N241	N	0.674092	-0.277366	0.000059
N242	N	0.924092	-0.027366	0.250059
N243	N	1.174092	0.222634	0.500059
N244	N	1.424092	0.472634	0.750059
C245	C	0.673743	-0.307061	-0.055026
C246	C	0.923743	-0.057061	0.194974
C247	C	1.173743	0.192939	0.444974
C248	C	1.423743	0.442939	0.694974
C249	C	0.669361	-0.669396	0.055121
C250	C	0.919361	-0.419396	0.305121
C251	C	1.169361	-0.169396	0.555121
C252	C	1.419361	0.080604	0.805121
C253	C	0.668652	-0.728795	0.055118
C254	C	0.918652	-0.478795	0.305118
C255	C	1.168652	-0.228795	0.555118
C256	C	1.418652	0.021205	0.805118
C257	C	0.668668	-0.728786	-0.055053
C258	C	0.918668	-0.478786	0.194947
C259	C	1.168668	-0.228786	0.444947
C260	C	1.418668	0.021214	0.694947
C261	C	0.669381	-0.669387	-0.055050
C262	C	0.919381	-0.419387	0.194950
C263	C	1.169381	-0.169387	0.444950
C264	C	1.419381	0.080613	0.694950
C265	C	0.669725	-0.639692	0.000039
C266	C	0.919725	-0.389692	0.250039
C267	C	1.169725	-0.139692	0.500039
C268	C	1.419725	0.110308	0.750039
C269	C	0.675252	-0.182327	-0.055014
C270	C	0.925252	0.067673	0.194986
C271	C	1.175252	0.317673	0.444986
C272	C	1.425252	0.567673	0.694986
C273	C	0.675973	-0.122927	-0.055005
C274	C	0.925973	0.127073	0.194995
C275	C	1.175973	0.377073	0.444995
C276	C	1.425973	0.627073	0.694995
C277	C	0.675954	-0.122941	0.055166
C278	C	0.925954	0.127059	0.305166
C279	C	1.175954	0.377059	0.555166
C280	C	1.425954	0.627059	0.805166
C281	C	0.675236	-0.182336	0.055157
C282	C	0.925236	0.067664	0.305157
C283	C	1.175236	0.317664	0.555157
C284	C	1.425236	0.567664	0.805157
C285	C	0.674883	-0.212027	0.000063
C286	C	0.924883	0.037973	0.250063
C287	C	1.174883	0.287973	0.500063
C288	C	1.424883	0.537973	0.750063
O289	O	0.674109	-0.276310	0.101962
O290	O	0.924109	-0.026310	0.351962
O291	O	1.174109	0.223690	0.601962
O292	O	1.424109	0.473690	0.851962
O293	O	0.674112	-0.276333	-0.101869
O294	O	0.924112	-0.026333	0.148131
O295	O	1.174112	0.223667	0.398131
O296	O	1.424112	0.473667	0.648131
C297	C	0.776459	0.069390	0.000070
C298	C	1.026459	0.319390	0.250070
C299	C	1.276459	0.569390	0.500070
C300	C	1.526459	0.819390	0.750070
C301	C	0.839676	0.070156	0.000072
C302	C	1.089676	0.320156	0.250072
C303	C	1.339676	0.570156	0.500072
C304	C	1.589676	0.820156	0.750072
C305	C	0.667545	0.178287	0.000043
C306	C	0.917545	0.428287	0.250043
C307	C	1.167545	0.678287	0.500043
C308	C	1.417545	0.928287	0.750043
C309	C	0.668300	0.241506	0.000033
C310	C	0.918300	0.491506	0.250033
C311	C	1.168300	0.741506	0.500033
C312	C	1.418300	0.991506	0.750033
N313	N	0.672292	0.074155	0.143864
N314	N	0.922292	0.324155	0.393864
N315	N	1.172292	0.574155	0.643864
N316	N	1.422292	0.824155	0.893864
N317	N	0.672334	0.074114	-0.143745
N318	N	0.922334	0.324114	0.106255
N319	N	1.172334	0.574114	0.356255
N320	N	1.422334	0.824114	0.606255
C321	C	0.711266	0.035197	0.563653
C322	C	0.961266	0.285197	0.813653
C323	C	1.211266	0.535197	1.063653
C324	C	1.461266	0.785197	1.313653
C325	C	0.711269	0.035193	0.627260
C326	C	0.961269	0.285193	0.877260
C327	C	1.211269	0.535193	1.127260
C328	C	1.461269	0.785193	1.377260
O329	O	0.744383	0.002076	0.660160
O330	O	0.994383	0.252076	0.910160
O331	O	1.244383	0.502076	1.160160
O332	O	1.494383	0.752076	1.410160
N333	N	0.672320	0.074117	0.659071
N334	N	0.922320	0.324117	0.909071
N335	N	1.172320	0.574117	1.159071
N336	N	1.422320	0.824117	1.409071
C337	C	0.633362	0.113044	0.627270
C338	C	0.883362	0.363044	0.877270
C339	C	1.133362	0.613044	1.127270
C340	C	1.383362	0.863044	1.377270
O341	O	0.600233	0.146152	0.660168
O342	O	0.850233	0.396152	0.910168
O343	O	1.100233	0.646152	1.160168
O344	O	1.350233	0.896152	1.410168
C345	C	0.633357	0.113045	0.563663
C346	C	0.883357	0.363045	0.813663
C347	C	1.133357	0.613045	1.063663
C348	C	1.383357	0.863045	1.313663
C349	C	0.672312	0.074122	0.531857
C350	C	0.922312	0.324122	0.781857
C351	C	1.172312	0.574122	1.031857
C352	C	1.422312	0.824122	1.281857
C353	C	0.750218	-0.003724	0.531846
C354	C	1.000218	0.246276	0.781846
C355	C	1.250218	0.496276	1.031846
C356	C	1.500218	0.746276	1.281846
C357	C	0.750216	-0.003719	0.468243
C358	C	1.000216	0.246281	0.718243
C359	C	1.250216	0.496281	0.968243
C360	C	1.500216	0.746281	1.218243
C361	C	0.711262	0.035206	0.436446
C362	C	0.961262	0.285206	0.686446
C363	C	1.211262	0.535206	0.936446
C364	C	1.461262	0.785206	1.186446
C365	C	0.672310	0.074127	0.468253
C366	C	0.922310	0.324127	0.718253
C367	C	1.172310	0.574127	0.968253
C368	C	1.422310	0.824127	1.218253
C369	C	0.594397	0.151969	0.531864
C370	C	0.844397	0.401969	0.781864
C371	C	1.094397	0.651969	1.031864
C372	C	1.344397	0.901969	1.281864
C373	C	0.594395	0.151966	0.468253
C374	C	0.844395	0.401966	0.718253
C375	C	1.094395	0.651966	0.968253
C376	C	1.344395	0.901966	1.218253
C377	C	0.633350	0.113043	0.436446
C378	C	0.883350	0.363043	0.686446
C379	C	1.133350	0.613043	0.936446
C380	C	1.383350	0.863043	1.186446
C381	C	0.633354	0.113056	0.372854
C382	C	0.883354	0.363056	0.622854
C383	C	1.133354	0.613056	0.872854
C384	C	1.383354	0.863056	1.122854
N385	N	0.672303	0.074132	0.341044
N386	N	0.922303	0.324132	0.591044
N387	N	1.172303	0.574132	0.841044
N388	N	1.422303	0.824132	1.091044
C389	C	0.711257	0.035207	0.372840
C390	C	0.961257	0.285207	0.622840
C391	C	1.211257	0.535207	0.872840
C392	C	1.461257	0.785207	1.122840
C393	C	0.633374	0.113039	0.760848
C394	C	0.883374	0.363039	1.010848
C395	C	1.133374	0.613039	1.260848
C396	C	1.383374	0.863039	1.510848
C397	C	0.633382	0.113041	0.824453
C398	C	0.883382	0.363041	1.074453
C399	C	1.133382	0.613041	1.324453
C400	C	1.383382	0.863041	1.574453
C401	C	0.711288	0.035189	0.824439
C402	C	0.961288	0.285189	1.074439
C403	C	1.211288	0.535189	1.324439
C404	C	1.461288	0.785189	1.574439
C405	C	0.711283	0.035190	0.760833
C406	C	0.961283	0.285190	1.010833
C407	C	1.211283	0.535190	1.260833
C408	C	1.461283	0.785190	1.510833
C409	C	0.672323	0.074115	0.729038
C410	C	0.922323	0.324115	0.979038
C411	C	1.172323	0.574115	1.229038
C412	C	1.422323	0.824115	1.479038
C413	C	0.711250	0.035220	0.239269
C414	C	0.961250	0.285220	0.489269
C415	C	1.211250	0.535220	0.739269
C416	C	1.461250	0.785220	0.989269
C417	C	0.711246	0.035230	0.175660
C418	C	0.961246	0.285230	0.425660
C419	C	1.211246	0.535230	0.675660
C420	C	1.461246	0.785230	0.925660
C421	C	0.633338	0.113080	0.175679
C422	C	0.883338	0.363080	0.425679
C423	C	1.133338	0.613080	0.675679
C424	C	1.383338	0.863080	0.925679
C425	C	0.633344	0.113073	0.239282
C426	C	0.883344	0.363073	0.489282
C427	C	1.133344	0.613073	0.739282
C428	C	1.383344	0.863073	0.989282
C429	C	0.672302	0.074138	0.271076
C430	C	0.922302	0.324138	0.521076
C431	C	1.172302	0.574138	0.771076
C432	C	1.422302	0.824138	1.021076
O433	O	0.600255	0.146155	0.339914
O434	O	0.850255	0.396155	0.589914
O435	O	1.100255	0.646155	0.839914
O436	O	1.350255	0.896155	1.089914
O437	O	0.744376	0.002100	0.339935
O438	O	0.994376	0.252100	0.589935
O439	O	1.244376	0.502100	0.839935
O440	O	1.494376	0.752100	1.089935
H441	H	0.486571	0.172259	0.000022
H442	H	0.736571	0.422259	0.250022
H443	H	0.986571	0.672259	0.500022
H444	H	1.236571	0.922259	0.750022
Cl445	Cl	0.668224	-0.766127	-0.124303
Cl446	Cl	0.918224	-0.516127	0.125697
Cl447	Cl	1.168224	-0.266127	0.375697
Cl448	Cl	1.418224	-0.016127	0.625697
H449	H	0.672981	-0.371978	-0.154969
H450	H	0.922981	-0.121978	0.095031
H451	H	1.172981	0.128022	0.345031
H452	H	1.422981	0.378022	0.595031
Cl453	Cl	0.528575	-0.038985	0.000065
Cl454	Cl	0.778575	0.211015	0.250065
Cl455	Cl	1.028575	0.461015	0.500065
Cl456	Cl	1.278575	0.711015	0.750065
Cl457	Cl	0.668197	-0.766126	0.124372
Cl458	Cl	0.918197	-0.516126	0.374372
Cl459	Cl	1.168197	-0.266126	0.624372
Cl460	Cl	1.418197	-0.016126	0.874372
H461	H	0.669642	-0.645223	0.099983
H462	H	0.919642	-0.395223	0.349983
H463	H	1.169642	-0.145223	0.599983
H464	H	1.419642	0.104777	0.849983
H465	H	0.098505	0.219623	0.000044
H466	H	0.348505	0.469623	0.250044
H467	H	0.598505	0.719623	0.500044
H468	H	0.848505	0.969623	0.750044
Cl469	Cl	0.676392	-0.085599	0.124411
Cl470	Cl	0.926392	0.164401	0.374411
Cl471	Cl	1.176392	0.414401	0.624411
Cl472	Cl	1.426392	0.664401	0.874411
Cl473	Cl	0.674782	-0.219676	0.124408
Cl474	Cl	0.924782	0.030324	0.374408
Cl475	Cl	1.174782	0.280324	0.624408
Cl476	Cl	1.424782	0.530324	0.874408
Cl477	Cl	0.673061	-0.358827	0.179479
Cl478	Cl	0.923061	-0.108827	0.429479
Cl479	Cl	1.173061	0.141173	0.679479
Cl480	Cl	1.423061	0.391173	0.929479
Cl481	Cl	0.671526	-0.492870	-0.179376
Cl482	Cl	0.921526	-0.242870	0.070624
Cl483	Cl	1.171526	0.007130	0.320624
Cl484	Cl	1.421526	0.257130	0.570624
H485	H	0.743004	0.003495	0.734939
H486	H	0.993004	0.253495	0.984939
H487	H	1.243004	0.503495	1.234939
H488	H	1.493004	0.753495	1.484939
H489	H	0.742970	0.003534	0.149765
H490	H	0.992970	0.253534	0.399765
H491	H	1.242970	0.503534	0.649765
H492	H	1.492970	0.753534	0.899765
Cl493	Cl	-0.049882	0.188876	0.000047
Cl494	Cl	0.200118	0.438876	0.250047
Cl495	Cl	0.450118	0.688876	0.500047
Cl496	Cl	0.700118	0.938876	0.750047
H497	H	0.206249	0.220913	0.000032
H498	H	0.456249	0.470913	0.250032
H499	H	0.706249	0.720913	0.500032
H500	H	0.956249	0.970913	0.750032
Cl501	Cl	0.760258	-0.013747	0.864425
Cl502	Cl	1.010258	0.236253	1.114425
Cl503	Cl	1.260258	0.486253	1.364425
Cl504	Cl	1.510258	0.736253	1.614425
Cl505	Cl	0.394498	-0.040596	0.000076
Cl506	Cl	0.644498	0.209404	0.250076
Cl507	Cl	0.894498	0.459404	0.500076
Cl508	Cl	1.144498	0.709404	0.750076
H509	H	0.742973	0.003516	0.265148
H510	H	0.992973	0.253516	0.515148
H511	H	1.242973	0.503516	0.765148
H512	H	1.492973	0.753516	1.015148
Cl513	Cl	0.674810	-0.219644	-0.124276
Cl514	Cl	0.924810	0.030356	0.125724
Cl515	Cl	1.174810	0.280356	0.375724
Cl516	Cl	1.424810	0.530356	0.625724
H517	H	0.669681	-0.645209	-0.099905
H518	H	0.919681	-0.395209	0.150095
H519	H	1.169681	-0.145209	0.400095
H520	H	1.419681	0.104791	0.650095
H521	H	0.671615	-0.479729	0.155079
H522	H	0.921615	-0.229729	0.405079
H523	H	1.171615	0.020271	0.655079
H524	H	1.421615	0.270271	0.905079
Cl525	Cl	0.799187	-0.052656	0.428264
Cl526	Cl	1.049187	0.197344	0.678264
Cl527	Cl	1.299187	0.447344	0.928264
Cl528	Cl	1.549187	0.697344	1.178264
H529	H	0.781939	-0.035424	0.557729
H530	H	1.031939	0.214576	0.807729
H531	H	1.281939	0.464576	1.057729
H532	H	1.531939	0.714576	1.307729
H533	H	0.601667	0.144742	0.850346
H534	H	0.851667	0.394742	1.100346
H535	H	1.101667	0.644742	1.350346
H536	H	1.351667	0.894742	1.600346
Cl537	Cl	-0.017904	-0.045534	0.000091
Cl538	Cl	0.232096	0.204466	0.250091
Cl539	Cl	0.482096	0.454466	0.500091
Cl540	Cl	0.732096	0.704466	0.750091
Cl541	Cl	-0.183954	0.187263	0.000055
Cl542	Cl	0.066046	0.437263	0.250055
Cl543	Cl	0.316046	0.687263	0.500055
Cl544	Cl	0.566046	0.937263	0.750055
Cl545	Cl	0.545412	0.200902	0.428287
Cl546	Cl	0.795412	0.450902	0.678287
Cl547	Cl	1.045412	0.700902	0.928287
Cl548	Cl	1.295412	0.950902	1.178287
H549	H	0.601650	0.144741	0.734963
H550	H	0.851650	0.394741	0.984963
H551	H	1.101650	0.644741	1.234963
H552	H	1.351650	0.894741	1.484963
Cl553	Cl	-0.151957	-0.047137	0.000078
Cl554	Cl	0.098043	0.202863	0.250078
Cl555	Cl	0.348043	0.452863	0.500078
Cl556	Cl	0.598043	0.702863	0.750078
H557	H	0.562675	0.183663	0.557752
H558	H	0.812675	0.433663	0.807752
H559	H	1.062675	0.683663	1.057752
H560	H	1.312675	0.933663	1.307752
Cl561	Cl	0.584375	0.162012	0.279266
Cl562	Cl	0.834375	0.412012	0.529266
Cl563	Cl	1.084375	0.662012	0.779266
Cl564	Cl	1.334375	0.912012	1.029266
H565	H	0.601624	0.144774	0.149781
H566	H	0.851624	0.394774	0.399781
H567	H	1.101624	0.644774	0.649781
H568	H	1.351624	0.894774	0.899781
H569	H	0.138388	-0.072635	0.000107
H570	H	0.388388	0.177365	0.250107
H571	H	0.638388	0.427365	0.500107
H572	H	0.888388	0.677365	0.750107
Cl573	Cl	0.362532	0.193815	0.000035
Cl574	Cl	0.612532	0.443815	0.250035
Cl575	Cl	0.862532	0.693815	0.500035
Cl576	Cl	1.112532	0.943815	0.750035
H577	H	0.676276	-0.098748	-0.099864
H578	H	0.926276	0.151252	0.150136
H579	H	1.176276	0.401252	0.400136
H580	H	1.426276	0.651252	0.650136
Cl581	Cl	0.262427	-0.094180	0.000114
Cl582	Cl	0.512427	0.155820	0.250114
Cl583	Cl	0.762427	0.405820	0.500114
Cl584	Cl	1.012427	0.655820	0.750114
