data_functionalizedCrystal
_audit_creation_method	'MofGen! by Chris Wilmer'
_symmetry_space_group_name_H-M	'P1'
_symmetry_Int_Tables_number	1
_symmetry_cell_setting	triclinic
loop_
_symmetry_equiv_pos_as_xyz
  x,y,z
_cell_length_a	19.077212
_cell_length_b	25.639240
_cell_length_c	19.076919
_cell_angle_alpha	87.738531
_cell_angle_beta	90.114942
_cell_angle_gamma	92.324469
loop_
_atom_site_label
_atom_site_type_symbol
_atom_site_fract_x
_atom_site_fract_y
_atom_site_fract_z
Zn1	Zn	1.058257	-0.189803	0.440539
Zn2	Zn	1.391590	0.143530	0.773872
Zn3	Zn	1.724924	0.476863	1.107206
Zn4	Zn	1.062881	-0.273592	0.323013
Zn5	Zn	1.396215	0.059741	0.656346
Zn6	Zn	1.729548	0.393074	0.989679
Zn7	Zn	0.945473	-0.189528	0.318315
Zn8	Zn	1.278806	0.143805	0.651648
Zn9	Zn	1.612139	0.477139	0.984981
Zn10	Zn	0.940699	-0.280566	0.435744
Zn11	Zn	1.274033	0.052767	0.769078
Zn12	Zn	1.607366	0.386100	1.102411
O13	O	1.001828	-0.233372	0.379403
O14	O	1.335161	0.099961	0.712736
O15	O	1.668494	0.433294	1.046069
O16	O	1.157205	-0.198115	0.428922
O17	O	1.490538	0.135219	0.762255
O18	O	1.823871	0.468552	1.095588
O19	O	1.051240	-0.259407	0.224060
O20	O	1.384573	0.073926	0.557393
O21	O	1.717907	0.407260	0.890726
O22	O	0.960496	-0.116399	0.334568
O23	O	1.293829	0.216935	0.667902
O24	O	1.627163	0.550268	1.001235
O25	O	1.160602	-0.259674	0.342576
O26	O	1.493936	0.073659	0.675909
O27	O	1.827269	0.406993	1.009242
O28	O	1.043358	-0.116601	0.424366
O29	O	1.376691	0.216732	0.757700
O30	O	1.710025	0.550066	1.091033
O31	O	0.964980	-0.197645	0.220608
O32	O	1.298313	0.135688	0.553941
O33	O	1.631647	0.469021	0.887275
O34	O	0.846505	-0.204408	0.329919
O35	O	1.179838	0.128925	0.663253
O36	O	1.513172	0.462259	0.996586
O37	O	0.952361	-0.271560	0.534710
O38	O	1.285694	0.061773	0.868044
O39	O	1.619027	0.395106	1.201377
O40	O	0.842998	-0.271293	0.416194
O41	O	1.176332	0.062040	0.749528
O42	O	1.509665	0.395373	1.082861
O43	O	1.038730	-0.204877	0.538233
O44	O	1.372063	0.128456	0.871566
O45	O	1.705396	0.461790	1.204900
O46	O	1.046612	-0.347683	0.337926
O47	O	1.379945	-0.014350	0.671260
O48	O	1.713278	0.318983	1.004593
O49	O	0.956845	-0.352807	0.420750
O50	O	1.290178	-0.019474	0.754083
O51	O	1.623512	0.313860	1.087416
C52	C	0.819255	-0.238578	0.372027
C53	C	1.152588	0.094755	0.705360
C54	C	1.485921	0.428089	1.038694
C55	C	0.741148	-0.240818	0.368888
C56	C	1.074482	0.092515	0.702222
C57	C	1.407815	0.425849	1.035555
C58	C	1.001730	-0.369216	0.379344
C59	C	1.335064	-0.035883	0.712677
C60	C	1.668397	0.297450	1.046010
C61	C	1.001752	-0.427330	0.379344
C62	C	1.335086	-0.093996	0.712678
C63	C	1.668419	0.239337	1.046011
C64	C	0.301682	-0.256863	0.346410
C65	C	0.635015	0.076471	0.679743
C66	C	0.968349	0.409804	1.013077
C67	C	0.375071	-0.254755	0.349354
C68	C	0.708405	0.078578	0.682687
C69	C	1.041738	0.411912	1.016020
C70	C	0.409996	-0.221707	0.395855
C71	C	0.743329	0.111626	0.729188
C72	C	1.076663	0.444959	1.062521
C73	C	0.371528	-0.190762	0.439410
C74	C	0.704861	0.142572	0.772743
C75	C	1.038195	0.475905	1.106076
C76	C	0.298140	-0.192867	0.436462
C77	C	0.631473	0.140467	0.769795
C78	C	0.964807	0.473800	1.103128
C79	C	0.629292	-0.211977	0.409496
C80	C	0.962626	0.121356	0.742829
C81	C	1.295959	0.454689	1.076162
C82	C	0.702685	-0.209876	0.412442
C83	C	1.036019	0.123458	0.745775
C84	C	1.369352	0.456791	1.079108
C85	C	0.706224	-0.273869	0.322384
C86	C	1.039557	0.059465	0.655718
C87	C	1.372890	0.392798	0.989051
C88	C	0.632834	-0.275973	0.319444
C89	C	0.966168	0.057360	0.652777
C90	C	1.299501	0.390693	0.986110
C91	C	0.594373	-0.245026	0.362996
C92	C	0.927706	0.088308	0.696329
C93	C	1.261039	0.421641	1.029663
N94	N	0.485012	-0.219553	0.398866
N95	N	0.818345	0.113780	0.732200
N96	N	1.151678	0.447113	1.065533
N97	N	0.519359	-0.247177	0.359980
N98	N	0.852692	0.086156	0.693314
N99	N	1.186025	0.419490	1.026647
C100	C	1.044993	-0.787761	0.426242
C101	C	1.378326	-0.454427	0.759576
C102	C	1.711660	-0.121094	1.092909
C103	C	1.045013	-0.842365	0.426257
C104	C	1.378346	-0.509032	0.759591
C105	C	1.711680	-0.175698	1.092924
O106	O	1.081662	-0.870661	0.466070
O107	O	1.414995	-0.537328	0.799404
O108	O	1.748329	-0.203995	1.132737
N109	N	1.001922	-0.869611	0.379475
N110	N	1.335256	-0.536277	0.712808
N111	N	1.668589	-0.202944	1.046141
C112	C	0.958803	-0.842250	0.332678
C113	C	1.292137	-0.508917	0.666012
C114	C	1.625470	-0.175583	0.999345
O115	O	0.922153	-0.870439	0.292888
O116	O	1.255486	-0.537105	0.626221
O117	O	1.588819	-0.203772	0.959554
C118	C	0.958780	-0.787647	0.332667
C119	C	1.292113	-0.454314	0.666000
C120	C	1.625447	-0.120980	0.999334
C121	C	1.001879	-0.760404	0.379448
C122	C	1.335212	-0.427070	0.712782
C123	C	1.668546	-0.093737	1.046115
C124	C	1.088088	-0.760517	0.473020
C125	C	1.421421	-0.427184	0.806354
C126	C	1.754754	-0.093851	1.139687
C127	C	1.088068	-0.705917	0.473004
C128	C	1.421402	-0.372584	0.806337
C129	C	1.754735	-0.039250	1.139671
C130	C	1.044954	-0.678560	0.426210
C131	C	1.378288	-0.345227	0.759543
C132	C	1.711621	-0.011893	1.092877
C133	C	1.001860	-0.705803	0.379432
C134	C	1.335193	-0.372470	0.712765
C135	C	1.668526	-0.039137	1.046099
C136	C	0.915658	-0.760287	0.285875
C137	C	1.248991	-0.426954	0.619208
C138	C	1.582324	-0.093621	0.952541
C139	C	0.915638	-0.705681	0.285868
C140	C	1.248971	-0.372347	0.619201
C141	C	1.582304	-0.039014	0.952535
C142	C	0.958737	-0.678437	0.332649
C143	C	1.292070	-0.345104	0.665983
C144	C	1.625403	-0.011771	0.999316
C145	C	0.958726	-0.623846	0.332622
C146	C	1.292059	-0.290512	0.665955
C147	C	1.625393	0.042821	0.999289
N148	N	1.001817	-0.596600	0.379405
N149	N	1.335150	-0.263267	0.712738
N150	N	1.668483	0.070067	1.046071
C151	C	1.044931	-0.623957	0.426199
C152	C	1.378264	-0.290624	0.759532
C153	C	1.711598	0.042710	1.092866
C154	C	0.958855	-0.956920	0.332706
C155	C	1.292188	-0.623587	0.666039
C156	C	1.625521	-0.290253	0.999373
C157	C	0.958881	-1.011522	0.332713
C158	C	1.292215	-0.678188	0.666047
C159	C	1.625548	-0.344855	0.999380
C160	C	1.045090	-1.011633	0.426294
C161	C	1.378424	-0.678300	0.759627
C162	C	1.711757	-0.344966	1.092960
C163	C	1.045067	-0.957030	0.426283
C164	C	1.378400	-0.623697	0.759616
C165	C	1.711734	-0.290363	1.092949
C166	C	1.001946	-0.929674	0.379489
C167	C	1.335279	-0.596341	0.712822
C168	C	1.668612	-0.263007	1.046156
C169	C	1.044887	-0.509292	0.426161
C170	C	1.378221	-0.175959	0.759494
C171	C	1.711554	0.157375	1.092828
C172	C	1.044866	-0.454687	0.426139
C173	C	1.378200	-0.121353	0.759472
C174	C	1.711533	0.211980	1.092805
C175	C	0.958655	-0.454580	0.332561
C176	C	1.291988	-0.121247	0.665894
C177	C	1.625322	0.212086	0.999228
C178	C	0.958678	-0.509181	0.332581
C179	C	1.292012	-0.175847	0.665914
C180	C	1.625345	0.157486	0.999247
C181	C	1.001797	-0.536535	0.379386
C182	C	1.335130	-0.203202	0.712720
C183	C	1.668463	0.130131	1.046053
O184	O	0.922094	-0.595515	0.292831
O185	O	1.255427	-0.262182	0.626165
O186	O	1.588760	0.071152	0.959498
O187	O	1.081569	-0.595762	0.465989
O188	O	1.414902	-0.262429	0.799322
O189	O	1.748235	0.070905	1.132656
C190	C	1.185113	-0.228147	0.386808
C191	C	1.518447	0.105186	0.720141
C192	C	1.851780	0.438520	1.053474
C193	C	1.263219	-0.225920	0.389963
C194	C	1.596552	0.107413	0.723296
C195	C	1.929886	0.440746	1.056630
C196	C	0.994497	-0.239027	0.562680
C197	C	1.327830	0.094306	0.896014
C198	C	1.661164	0.427639	1.229347
C199	C	0.991373	-0.241437	0.640782
C200	C	1.324706	0.091896	0.974116
C201	C	1.658040	0.425230	1.307449
C202	C	1.001944	-0.096998	0.379478
C203	C	1.335277	0.236335	0.712811
C204	C	1.668610	0.569668	1.046145
C205	C	1.001993	-0.038884	0.379510
C206	C	1.335326	0.294450	0.712844
C207	C	1.668660	0.627783	1.046177
C208	C	1.009170	-0.227701	0.196840
C209	C	1.342503	0.105633	0.530173
C210	C	1.675837	0.438966	0.863506
C211	C	1.012430	-0.225140	0.118744
C212	C	1.345764	0.108194	0.452077
C213	C	1.679097	0.441527	0.785410
C214	C	1.034871	-0.207852	0.679310
C215	C	1.368204	0.125481	1.012643
C216	C	1.701538	0.458814	1.345977
C217	C	1.031927	-0.210115	0.752695
C218	C	1.365260	0.123218	1.086028
C219	C	1.698594	0.456552	1.419361
C220	C	0.985489	-0.245965	0.787551
C221	C	1.318822	0.087368	1.120884
C222	C	1.652155	0.420702	1.454217
C223	C	0.941986	-0.279551	0.749018
C224	C	1.275319	0.053782	1.082351
C225	C	1.608653	0.387116	1.415684
C226	C	0.944927	-0.277286	0.675634
C227	C	1.278260	0.056048	1.008968
C228	C	1.611593	0.389381	1.342301
C229	C	0.971868	-0.256461	1.006827
C230	C	1.305202	0.076873	1.340160
C231	C	1.638535	0.410206	1.673494
C232	C	0.968932	-0.258725	1.080216
C233	C	1.302266	0.074609	1.413549
C234	C	1.635599	0.407942	1.746883
C235	C	1.058873	-0.189287	1.083888
C236	C	1.392206	0.144046	1.417221
C237	C	1.725540	0.477379	1.750555
C238	C	1.061813	-0.187027	1.010503
C239	C	1.395146	0.146306	1.343836
C240	C	1.728479	0.479639	1.677170
C241	C	1.018307	-0.220611	0.971976
C242	C	1.351641	0.112722	1.305310
C243	C	1.684974	0.446055	1.638643
N244	N	0.982480	-0.248280	0.862562
N245	N	1.315813	0.085054	1.195895
N246	N	1.649147	0.418387	1.529229
N247	N	1.021313	-0.218294	0.896966
N248	N	1.354646	0.115039	1.230300
N249	N	1.687980	0.448373	1.563633
H250	H	0.273251	-0.283776	0.308547
H251	H	0.606585	0.049557	0.641881
H252	H	0.939918	0.382890	0.975214
H253	H	1.067349	-0.182768	0.784061
H254	H	1.400683	0.150566	1.117394
H255	H	1.734016	0.483899	1.450728
F256	F	1.090937	-0.928040	0.476074
F257	F	1.424271	-0.594707	0.809407
F258	F	1.757604	-0.261374	1.142740
H259	H	0.936454	-0.283815	0.975468
H260	H	1.269787	0.049519	1.308801
H261	H	1.603120	0.382852	1.642135
F262	F	0.747163	-0.306802	0.276034
F263	F	1.080496	0.026532	0.609368
F264	F	1.413829	0.359865	0.942701
H265	H	0.597986	-0.186780	0.444962
H266	H	0.931319	0.146553	0.778296
H267	H	1.264652	0.479886	1.111629
H268	H	0.923590	-0.531363	0.294482
H269	H	1.256923	-0.198030	0.627816
H270	H	1.590256	0.135304	0.961149
H271	H	0.399970	-0.163851	0.477269
H272	H	0.733303	0.169482	0.810602
H273	H	1.066636	0.502816	1.143935
H274	H	1.072688	-0.178661	0.650936
H275	H	1.406022	0.154672	0.984269
H276	H	1.739355	0.488006	1.317602
F277	F	0.912773	-0.425455	0.282761
F278	F	1.246106	-0.092122	0.616095
F279	F	1.579440	0.241211	0.949428
F280	F	0.257205	-0.159932	0.482815
F281	F	0.590539	0.173402	0.816148
F282	F	0.923872	0.506735	1.149481
H283	H	0.904172	-0.308739	0.777403
H284	H	1.237505	0.024594	1.110737
H285	H	1.570839	0.357927	1.444070
H286	H	0.909499	-0.304629	0.644266
H287	H	1.242832	0.028704	0.977599
H288	H	1.576166	0.362038	1.310932
F289	F	1.090741	-0.425695	0.475930
F290	F	1.424075	-0.092362	0.809264
F291	F	1.757408	0.240971	1.142597
F292	F	1.090976	-1.040758	0.476097
F293	F	1.424309	-0.707425	0.809431
F294	F	1.757642	-0.374091	1.142764
H295	H	0.880562	-0.782460	0.247780
H296	H	1.213896	-0.449126	0.581114
H297	H	1.547229	-0.115793	0.914447
H298	H	0.923794	-1.033698	0.294612
H299	H	1.257127	-0.700365	0.627945
H300	H	1.590460	-0.367031	0.961279
H301	H	0.406385	-0.279951	0.313887
H302	H	0.739718	0.053383	0.647220
H303	H	1.073051	0.386716	0.980554
F304	F	0.595671	-0.311135	0.269935
F305	F	0.929004	0.022198	0.603269
F306	F	1.262337	0.355532	0.936602
F307	F	0.739853	-0.174699	0.461936
F308	F	1.073187	0.158634	0.795269
F309	F	1.406520	0.491967	1.128602
H310	H	1.079994	-0.531558	0.464279
H311	H	1.413327	-0.198225	0.797612
H312	H	1.746660	0.135109	1.130946
H313	H	1.123161	-0.683739	0.511099
H314	H	1.456494	-0.350405	0.844433
H315	H	1.789828	-0.017072	1.177766
F316	F	0.912960	-0.927810	0.282895
F317	F	1.246293	-0.594477	0.616228
F318	F	1.579627	-0.261143	0.949561
H319	H	1.099630	-0.157836	0.982128
H320	H	1.432963	0.175498	1.315462
H321	H	1.766296	0.508831	1.648795
F322	F	1.105169	-0.153546	1.124896
F323	F	1.438503	0.179787	1.458229
F324	F	1.771836	0.513121	1.791562
H325	H	1.123196	-0.782786	0.511130
H326	H	1.456530	-0.449453	0.844463
H327	H	1.789863	-0.116119	1.177796
H328	H	0.880521	-0.683410	0.247764
H329	H	1.213854	-0.350077	0.581097
H330	H	1.547187	-0.016744	0.914430
F331	F	0.919501	-0.296881	1.117311
F332	F	1.252834	0.036453	1.450644
F333	F	1.586168	0.369786	1.783977
