data_functionalizedCrystal
_audit_creation_method	'MofGen! by Chris Wilmer'
_symmetry_space_group_name_H-M	'P1'
_symmetry_Int_Tables_number	1
_symmetry_cell_setting	triclinic
loop_
_symmetry_equiv_pos_as_xyz
  x,y,z
_cell_length_a	23.532407
_cell_length_b	16.109301
_cell_length_c	14.586319
_cell_angle_alpha	89.998225
_cell_angle_beta	89.991006
_cell_angle_gamma	83.155131
loop_
_atom_site_label
_atom_site_type_symbol
_atom_site_fract_x
_atom_site_fract_y
_atom_site_fract_z
O1	O	0.073203	1.102556	-0.076200
O2	O	0.573203	1.602556	0.423800
O3	O	0.082313	0.860422	-0.076214
O4	O	0.582313	1.360422	0.423786
O5	O	-0.005147	0.988791	-0.076189
O6	O	0.494853	1.488791	0.423811
O7	O	0.160663	0.974187	-0.076224
O8	O	0.660663	1.474187	0.423776
O9	O	-0.005149	0.988780	0.076291
O10	O	0.494851	1.488780	0.576291
O11	O	0.082311	0.860412	0.076267
O12	O	0.582311	1.360412	0.576267
O13	O	0.073201	1.102546	0.076281
O14	O	0.573201	1.602546	0.576281
Cu15	Cu	0.077756	0.981478	0.090197
Cu16	Cu	0.577756	1.481478	0.590197
Cu17	Cu	0.077758	0.981490	-0.090129
Cu18	Cu	0.577758	1.481490	0.409871
O19	O	0.160661	0.974177	0.076257
O20	O	0.660661	1.474177	0.576257
C21	C	0.081943	0.829445	0.000025
C22	C	0.581943	1.329445	0.500025
C23	C	0.080836	0.737158	0.000021
C24	C	0.580836	1.237158	0.500021
C25	C	0.129116	0.427781	0.000027
C26	C	0.629116	0.927781	0.500027
C27	C	0.130161	0.514493	0.000021
C28	C	0.630161	1.014493	0.500021
C29	C	0.026393	0.535182	0.000030
C30	C	0.526393	1.035182	0.500030
C31	C	0.025349	0.448471	0.000029
C32	C	0.525349	0.948471	0.500029
C33	C	0.076712	0.394773	0.000032
C34	C	0.576712	0.894773	0.500032
C35	C	0.078801	0.568195	0.000028
C36	C	0.578801	1.068195	0.500028
C37	C	0.079934	0.662212	0.000022
C38	C	0.579934	1.162212	0.500022
C39	C	0.075580	0.300749	0.000036
C40	C	0.575580	0.800749	0.500036
C41	C	-0.026365	0.988414	0.000053
C42	C	0.473635	1.488414	0.500053
C43	C	-0.089586	0.987296	0.000060
C44	C	0.410414	1.487296	0.500060
C45	C	-0.488435	1.056249	0.000014
C46	C	0.011565	1.556249	0.500014
C47	C	-0.547839	1.055210	0.000007
C48	C	-0.047839	1.555210	0.500007
O49	O	-0.584348	1.119130	-0.000023
O50	O	-0.084348	1.619130	0.499977
N51	N	-0.570747	0.978895	0.000003
N52	N	-0.070747	1.478895	0.500003
C53	C	-0.534247	0.903614	-0.000003
C54	C	-0.034247	1.403614	0.499997
O55	O	-0.559187	0.838607	-0.000007
O56	O	-0.059187	1.338607	0.499993
C57	C	-0.474844	0.904653	-0.000002
C58	C	0.025156	1.404653	0.499998
C59	C	-0.451940	0.980973	0.000011
C60	C	0.048060	1.480973	0.500011
C61	C	-0.465530	1.132562	0.000026
C62	C	0.034470	1.632562	0.500026
C63	C	-0.406130	1.133601	0.000035
C64	C	0.093870	1.633601	0.500035
C65	C	-0.369635	1.058325	0.000032
C66	C	0.130365	1.558325	0.500032
C67	C	-0.392540	0.982011	0.000020
C68	C	0.107460	1.482011	0.500020
C69	C	-0.438346	0.829373	-0.000015
C70	C	0.061654	1.329373	0.499985
C71	C	-0.378939	0.830419	-0.000015
C72	C	0.121061	1.330419	0.499985
C73	C	-0.356035	0.906739	-0.000002
C74	C	0.143965	1.406739	0.499998
C75	C	-0.296645	0.907774	0.000025
C76	C	0.203355	1.407774	0.500025
N77	N	-0.273737	0.984089	0.000029
N78	N	0.226263	1.484089	0.500029
C79	C	-0.310232	1.059365	0.000032
C80	C	0.189768	1.559365	0.500032
C81	C	-0.658998	0.901437	-0.000005
C82	C	-0.158998	1.401437	0.499995
C83	C	-0.718399	0.900396	0.000001
C84	C	-0.218399	1.400396	0.500001
C85	C	-0.731987	1.051993	0.000009
C86	C	-0.231987	1.551993	0.500009
C87	C	-0.672585	1.053032	0.000009
C88	C	-0.172585	1.553032	0.500009
C89	C	-0.636090	0.977752	-0.000002
C90	C	-0.136090	1.477752	0.499998
C91	C	-0.185487	1.061539	0.000051
C92	C	0.314513	1.561539	0.500051
C93	C	-0.126082	1.062571	0.000064
C94	C	0.373918	1.562571	0.500064
C95	C	-0.112499	0.910975	0.000051
C96	C	0.387501	1.410975	0.500051
C97	C	-0.171899	0.909943	0.000043
C98	C	0.328101	1.409943	0.500043
C99	C	-0.208393	0.985232	0.000040
C100	C	0.291607	1.485232	0.500040
O101	O	-0.260101	0.843888	0.000051
O102	O	0.239899	1.343888	0.500051
O103	O	-0.285284	1.124361	0.000025
O104	O	0.214716	1.624361	0.500025
C105	C	0.181879	0.974554	0.000012
C106	C	0.681879	1.474554	0.500012
C107	C	0.245100	0.975672	-0.000001
C108	C	0.745100	1.475672	0.499999
C109	C	0.073571	1.133523	0.000040
C110	C	0.573571	1.633523	0.500040
C111	C	0.074677	1.225809	0.000039
C112	C	0.574677	1.725809	0.500039
N113	N	0.077754	0.981475	0.217029
N114	N	0.577754	1.481475	0.717029
N115	N	0.077756	0.981499	-0.216961
N116	N	0.577756	1.481499	0.283039
C117	C	0.039039	1.038339	0.548033
C118	C	0.539039	1.538339	1.048033
C119	C	0.039039	1.038337	0.452052
C120	C	0.539039	1.538337	0.952052
C121	C	0.116474	0.924633	0.452041
C122	C	0.616474	1.424633	0.952041
C123	C	0.116476	0.924639	0.548021
C124	C	0.616476	1.424639	1.048021
C125	C	0.077755	0.981492	0.596014
C126	C	0.577755	1.481492	1.096014
C127	C	0.077754	0.981483	0.404053
C128	C	0.577754	1.481483	0.904053
C129	C	0.077754	0.981480	0.299986
C130	C	0.577754	1.481480	0.799986
C131	C	0.077755	0.981495	0.700088
C132	C	0.577755	1.481495	1.200088
H133	H	-0.017327	0.421597	0.000031
H134	H	0.482673	0.921597	0.500031
F135	F	-0.002167	1.098843	0.400990
F136	F	0.497833	1.598843	0.900990
H137	H	0.147999	0.878344	0.412955
H138	H	0.647999	1.378344	0.912955
F139	F	-0.381762	1.214831	0.000029
F140	F	0.118238	1.714831	0.500029
F141	F	-0.462709	0.748142	-0.000033
F142	F	0.037291	1.248142	0.499967
F143	F	-0.504363	1.212688	0.000029
F144	F	-0.004363	1.712688	0.500029
H145	H	-0.015425	0.578914	0.000030
H146	H	0.484575	1.078914	0.500030
H147	H	-0.653940	1.115179	0.000019
H148	H	-0.153940	1.615179	0.500019
F149	F	0.185937	0.549618	0.000012
F150	F	0.685937	1.049618	0.500012
H151	H	-0.107437	1.124722	0.000077
H152	H	0.392563	1.624722	0.500077
H153	H	0.170940	0.384061	0.000028
H154	H	0.670940	0.884061	0.500028
H155	H	-0.082774	0.849688	0.000051
H156	H	0.417226	1.349688	0.500051
H157	H	0.007511	1.084632	0.587107
H158	H	0.507511	1.584632	1.087107
F159	F	-0.620162	0.821307	-0.000009
F160	F	-0.120162	1.321307	0.499991
F161	F	-0.224318	1.141671	0.000048
F162	F	0.275682	1.641671	0.500048
F163	F	-0.770839	1.132108	0.000008
F164	F	-0.270839	1.632108	0.500008
H165	H	-0.737042	0.838249	0.000006
H166	H	-0.237042	1.338249	0.500006
H167	H	0.148006	0.878347	0.587089
H168	H	0.648006	1.378347	1.087089
F169	F	-0.340102	0.750292	-0.000029
F170	F	0.159898	1.250292	0.499971
F171	F	-0.196277	0.828715	0.000046
F172	F	0.303723	1.328715	0.500046
