data_functionalizedCrystal
_audit_creation_method	'MofGen! by Chris Wilmer'
_symmetry_space_group_name_H-M	'P1'
_symmetry_Int_Tables_number	1
_symmetry_cell_setting	triclinic
loop_
_symmetry_equiv_pos_as_xyz
  x,y,z
_cell_length_a	19.805407
_cell_length_b	13.897448
_cell_length_c	19.805399
_cell_angle_alpha	89.974981
_cell_angle_beta	89.980427
_cell_angle_gamma	90.017692
loop_
_atom_site_label
_atom_site_type_symbol
_atom_site_fract_x
_atom_site_fract_y
_atom_site_fract_z
Zn1	Zn	1.034777	-0.384037	-0.382732
Zn2	Zn	1.368110	-0.050704	-0.049398
Zn3	Zn	1.701443	0.282629	0.283935
Zn4	Zn	1.034709	-0.545343	-0.269549
Zn5	Zn	1.368042	-0.212010	0.063785
Zn6	Zn	1.701375	0.121323	0.397118
Zn7	Zn	0.921591	-0.384064	-0.269556
Zn8	Zn	1.254925	-0.050731	0.063777
Zn9	Zn	1.588258	0.282603	0.397110
Zn10	Zn	0.921572	-0.545292	-0.382695
Zn11	Zn	1.254905	-0.211959	-0.049362
Zn12	Zn	1.588239	0.121375	0.283971
O13	O	0.978162	-0.464684	-0.326133
O14	O	1.311496	-0.131351	0.007200
O15	O	1.644829	0.201983	0.340534
O16	O	1.129484	-0.405445	-0.367730
O17	O	1.462818	-0.072112	-0.034396
O18	O	1.796151	0.261222	0.298937
O19	O	1.019683	-0.523982	-0.174833
O20	O	1.353016	-0.190648	0.158500
O21	O	1.686350	0.142685	0.491834
O22	O	0.936642	-0.249079	-0.284588
O23	O	1.269975	0.084255	0.048746
O24	O	1.603309	0.417588	0.382079
O25	O	1.129434	-0.523956	-0.284575
O26	O	1.462768	-0.190623	0.048759
O27	O	1.796101	0.142711	0.382092
O28	O	1.019799	-0.249059	-0.367737
O29	O	1.353132	0.084274	-0.034404
O30	O	1.686466	0.417608	0.298929
O31	O	0.936576	-0.405490	-0.174839
O32	O	1.269910	-0.072157	0.158495
O33	O	1.603243	0.261176	0.491828
O34	O	0.826872	-0.405441	-0.284552
O35	O	1.160206	-0.072107	0.048781
O36	O	1.493539	0.261226	0.382114
O37	O	0.936609	-0.523869	-0.477417
O38	O	1.269943	-0.190535	-0.144083
O39	O	1.603276	0.142798	0.189250
O40	O	0.826858	-0.523894	-0.367675
O41	O	1.160191	-0.190561	-0.034342
O42	O	1.493525	0.142772	0.298992
O43	O	1.019780	-0.405395	-0.477443
O44	O	1.353114	-0.072062	-0.144110
O45	O	1.686447	0.261271	0.189223
O46	O	1.019664	-0.680318	-0.284539
O47	O	1.352998	-0.346985	0.048794
O48	O	1.686331	-0.013651	0.382127
O49	O	0.936543	-0.680280	-0.367668
O50	O	1.269877	-0.346947	-0.034334
O51	O	1.603210	-0.013614	0.298999
C52	C	0.802306	-0.464666	-0.326111
C53	C	1.135640	-0.131332	0.007222
C54	C	1.468973	0.202001	0.340556
C55	C	0.727074	-0.464681	-0.326118
C56	C	1.060408	-0.131348	0.007216
C57	C	1.393741	0.201986	0.340549
C58	C	0.691740	-0.526453	-0.369330
C59	C	1.025074	-0.193119	-0.035996
C60	C	1.358407	0.140214	0.297337
C61	C	0.621052	-0.526454	-0.369339
C62	C	0.954385	-0.193121	-0.036006
C63	C	1.287719	0.140212	0.297327
C64	C	0.585699	-0.464688	-0.326133
C65	C	0.919032	-0.131355	0.007200
C66	C	1.252365	0.201978	0.340534
C67	C	0.621037	-0.402910	-0.282919
C68	C	0.954371	-0.069577	0.050414
C69	C	1.287704	0.263757	0.383748
C70	C	0.691725	-0.402904	-0.282913
C71	C	1.025058	-0.069571	0.050420
C72	C	1.358391	0.263762	0.383753
C73	C	0.335964	-0.402931	-0.282941
C74	C	0.669297	-0.069598	0.050392
C75	C	1.002631	0.263735	0.383725
C76	C	0.265272	-0.402944	-0.282949
C77	C	0.598605	-0.069611	0.050384
C78	C	0.931939	0.263723	0.383718
C79	C	0.265292	-0.526481	-0.369367
C80	C	0.598625	-0.193148	-0.036034
C81	C	0.931958	0.140185	0.297299
C82	C	0.335979	-0.526476	-0.369362
C83	C	0.669312	-0.193142	-0.036028
C84	C	1.002645	0.140191	0.297305
C85	C	0.371311	-0.464694	-0.326151
C86	C	0.704645	-0.131361	0.007183
C87	C	1.037978	0.201973	0.340516
C88	C	0.447960	-0.464692	-0.326142
C89	C	0.781293	-0.131358	0.007192
C90	C	1.114626	0.201975	0.340525
C91	C	0.509051	-0.464695	-0.326138
C92	C	0.842385	-0.131362	0.007195
C93	C	1.175718	0.201972	0.340529
C94	C	0.978113	-0.715298	-0.326113
C95	C	1.311446	-0.381965	0.007220
C96	C	1.644779	-0.048632	0.340553
C97	C	0.978154	-0.822512	-0.326128
C98	C	1.311487	-0.489179	0.007206
C99	C	1.644820	-0.155846	0.340539
C100	C	0.978225	-1.018807	-0.326170
C101	C	1.311558	-0.685474	0.007163
C102	C	1.644891	-0.352141	0.340497
C103	C	0.978183	-0.909575	-0.326149
C104	C	1.311517	-0.576242	0.007185
C105	C	1.644850	-0.242908	0.340518
C106	C	1.154705	-0.464703	-0.326155
C107	C	1.488038	-0.131370	0.007178
C108	C	1.821372	0.201963	0.340511
C109	C	1.229937	-0.464711	-0.326165
C110	C	1.563270	-0.131378	0.007168
C111	C	1.896604	0.201955	0.340502
C112	C	0.978200	-0.464623	-0.502676
C113	C	1.311533	-0.131290	-0.169342
C114	C	1.644867	0.202043	0.163991
C115	C	0.978216	-0.464597	-0.577908
C116	C	1.311550	-0.131264	-0.244574
C117	C	1.644883	0.202069	0.088759
C118	C	0.978230	-0.213091	-0.326167
C119	C	1.311564	0.120242	0.007166
C120	C	1.644897	0.453576	0.340499
C121	C	0.978259	-0.105877	-0.326182
C122	C	1.311593	0.227456	0.007151
C123	C	1.644926	0.560790	0.340485
C124	C	1.021524	-0.402905	-0.613267
C125	C	1.354858	-0.069572	-0.279934
C126	C	1.688191	0.263761	0.053400
C127	C	1.021531	-0.402877	-0.683955
C128	C	1.354865	-0.069544	-0.350622
C129	C	1.688198	0.263789	-0.017289
C130	C	0.978233	-0.464547	-0.719283
C131	C	1.311566	-0.131214	-0.385950
C132	C	1.644900	0.202120	-0.052617
C133	C	0.934920	-0.526242	-0.683919
C134	C	1.268254	-0.192908	-0.350586
C135	C	1.601587	0.140425	-0.017253
C136	C	0.934910	-0.526264	-0.613232
C137	C	1.268244	-0.192931	-0.279899
C138	C	1.601577	0.140402	0.053435
C139	C	0.934958	-0.526152	-0.968993
C140	C	1.268292	-0.192819	-0.635659
C141	C	1.601625	0.140515	-0.302326
C142	C	0.934973	-0.526127	-1.039685
C143	C	1.268306	-0.192793	-0.706352
C144	C	1.601640	0.140540	-0.373018
C145	C	1.021579	-0.402765	-1.039716
C146	C	1.354913	-0.069432	-0.706383
C147	C	1.688246	0.263902	-0.373049
C148	C	1.021570	-0.402787	-0.969029
C149	C	1.354903	-0.069454	-0.635696
C150	C	1.688236	0.263879	-0.302362
C151	C	0.978255	-0.464478	-0.933671
C152	C	1.311588	-0.131145	-0.600338
C153	C	1.644921	0.202188	-0.267004
C154	C	0.978247	-0.464507	-0.857022
C155	C	1.311580	-0.131173	-0.523689
C156	C	1.644913	0.202160	-0.190356
C157	C	0.978244	-0.464524	-0.795931
C158	C	1.311577	-0.131191	-0.462597
C159	C	1.644911	0.202142	-0.129264
C160	C	0.978163	-0.464675	-0.150277
C161	C	1.311497	-0.131342	0.183056
C162	C	1.644830	0.201992	0.516390
C163	C	0.978278	-0.464429	-0.075045
C164	C	1.311612	-0.131096	0.258288
C165	C	1.644945	0.202238	0.591621
H166	H	0.236489	-0.352641	-0.247765
H167	H	0.569823	-0.019308	0.085568
H168	H	0.903156	0.314026	0.418902
H169	H	0.720492	-0.352598	-0.247729
H170	H	1.053826	-0.019265	0.085604
H171	H	1.387159	0.314068	0.418937
H172	H	0.899699	-0.576398	-0.940213
H173	H	1.233032	-0.243065	-0.606879
H174	H	1.566365	0.090268	-0.273546
H175	H	0.364760	-0.576775	-0.404542
H176	H	0.698093	-0.243442	-0.071209
H177	H	1.031427	0.089892	0.262124
H178	H	1.056799	-0.352644	-0.712742
H179	H	1.390132	-0.019311	-0.379408
H180	H	1.723465	0.314023	-0.046075
H181	H	0.236515	-0.576783	-0.404554
H182	H	0.569849	-0.243450	-0.071221
H183	H	0.903182	0.089883	0.262112
H184	H	0.899664	-0.576451	-0.712689
H185	H	1.232997	-0.243117	-0.379356
H186	H	1.566330	0.090216	-0.046022
H187	H	0.364723	-0.352632	-0.247751
H188	H	0.698057	-0.019299	0.085582
H189	H	1.031390	0.314034	0.418915
H190	H	0.720520	-0.576753	-0.404511
H191	H	1.053853	-0.243419	-0.071178
H192	H	1.387187	0.089914	0.262156
H193	H	0.592286	-0.576756	-0.404526
H194	H	0.925620	-0.243423	-0.071193
H195	H	1.258953	0.089911	0.262141
H196	H	0.592247	-0.352615	-0.247743
H197	H	0.925580	-0.019282	0.085591
H198	H	1.258914	0.314052	0.418924
H199	H	1.056785	-0.352690	-0.584508
H200	H	1.390118	-0.019356	-0.251175
H201	H	1.723452	0.313977	0.082159
H202	H	1.056830	-0.352573	-0.940268
H203	H	1.390163	-0.019240	-0.606935
H204	H	1.723496	0.314094	-0.273602
H205	H	0.899638	-0.576490	-0.584444
H206	H	1.232971	-0.243157	-0.251110
H207	H	1.566304	0.090176	0.082223
H208	H	1.056846	-0.352530	-1.068513
H209	H	1.390180	-0.019197	-0.735180
H210	H	1.723513	0.314137	-0.401846
H211	H	0.899712	-0.576347	-1.068447
H212	H	1.233045	-0.243014	-0.735114
H213	H	1.566378	0.090319	-0.401780
