data_functionalizedCrystal
_audit_creation_method	'MofGen! by Chris Wilmer'
_symmetry_space_group_name_H-M	'P1'
_symmetry_Int_Tables_number	1
_symmetry_cell_setting	triclinic
loop_
_symmetry_equiv_pos_as_xyz
  x,y,z
_cell_length_a	12.645331
_cell_length_b	25.639239
_cell_length_c	25.639234
_cell_angle_alpha	89.975416
_cell_angle_beta	89.981581
_cell_angle_gamma	90.037665
loop_
_atom_site_label
_atom_site_type_symbol
_atom_site_fract_x
_atom_site_fract_y
_atom_site_fract_z
Zn1	Zn	1.620532	-0.208199	-0.295623
Zn2	Zn	1.953865	0.125135	0.037711
Zn3	Zn	2.287199	0.458468	0.371044
Zn4	Zn	1.620362	-0.295626	-0.208187
Zn5	Zn	1.953695	0.037707	0.125146
Zn6	Zn	2.287029	0.371040	0.458480
Zn7	Zn	1.443260	-0.208205	-0.208200
Zn8	Zn	1.776593	0.125128	0.125134
Zn9	Zn	2.109926	0.458462	0.458467
Zn10	Zn	1.443163	-0.295603	-0.295590
Zn11	Zn	1.776497	0.037730	0.037743
Zn12	Zn	2.109830	0.371063	0.371077
O13	O	1.531829	-0.251908	-0.251900
O14	O	1.865163	0.081425	0.081433
O15	O	2.198496	0.414758	0.414767
O16	O	1.768857	-0.219803	-0.284032
O17	O	2.102190	0.113530	0.049301
O18	O	2.435523	0.446864	0.382634
O19	O	1.596838	-0.284042	-0.135023
O20	O	1.930171	0.049291	0.198310
O21	O	2.263505	0.382625	0.531643
O22	O	1.466887	-0.135039	-0.219816
O23	O	1.800220	0.198294	0.113518
O24	O	2.133553	0.531628	0.446851
O25	O	1.768732	-0.284036	-0.219794
O26	O	2.102065	0.049298	0.113540
O27	O	2.435398	0.382631	0.446873
O28	O	1.597128	-0.135034	-0.284045
O29	O	1.930461	0.198299	0.049288
O30	O	2.263795	0.531632	0.382622
O31	O	1.466722	-0.219814	-0.135033
O32	O	1.800055	0.113519	0.198300
O33	O	2.133389	0.446853	0.531634
O34	O	1.294900	-0.219792	-0.219784
O35	O	1.628233	0.113542	0.113549
O36	O	1.961566	0.446875	0.446883
O37	O	1.466723	-0.283996	-0.368760
O38	O	1.800056	0.049337	-0.035426
O39	O	2.133389	0.382670	0.297907
O40	O	1.294829	-0.284003	-0.283989
O41	O	1.628162	0.049331	0.049344
O42	O	1.961496	0.382664	0.382677
O43	O	1.597035	-0.219781	-0.368784
O44	O	1.930368	0.113553	-0.035450
O45	O	2.263701	0.446886	0.297883
O46	O	1.596745	-0.368788	-0.219762
O47	O	1.930078	-0.035455	0.113571
O48	O	2.263411	0.297878	0.446905
O49	O	1.466558	-0.368771	-0.283977
O50	O	1.799891	-0.035438	0.049357
O51	O	2.133224	0.297895	0.382690
C52	C	1.256400	-0.251896	-0.251885
C53	C	1.589733	0.081438	0.081449
C54	C	1.923066	0.414771	0.414782
C55	C	1.138569	-0.251903	-0.251891
C56	C	1.471903	0.081430	0.081443
C57	C	1.805236	0.414764	0.414776
C58	C	0.971015	-0.211322	-0.211722
C59	C	1.304348	0.122011	0.121611
C60	C	1.637681	0.455344	0.454945
C61	C	1.093574	-0.211427	-0.211545
C62	C	1.426908	0.121906	0.121788
C63	C	1.760241	0.455239	0.455122
C64	C	1.094011	-0.306979	-0.236834
C65	C	1.427344	0.026354	0.096499
C66	C	1.760677	0.359688	0.429833
C67	C	0.971412	-0.306757	-0.236560
C68	C	1.304746	0.026576	0.096773
C69	C	1.638079	0.359909	0.430107
C70	C	0.971422	-0.237932	-0.307271
C71	C	1.304755	0.095401	0.026062
C72	C	1.638089	0.428734	0.359396
C73	C	1.094029	-0.236702	-0.306964
C74	C	1.427362	0.096631	0.026370
C75	C	1.760696	0.429965	0.359703
C76	C	1.531651	-0.387751	-0.251876
C77	C	1.864984	-0.054418	0.081457
C78	C	2.198318	0.278916	0.414791
C79	C	1.531672	-0.445865	-0.251883
C80	C	1.865005	-0.112532	0.081450
C81	C	2.198338	0.220802	0.414784
C82	C	1.599794	-0.806224	-0.218520
C83	C	1.933128	-0.472891	0.114813
C84	C	2.266461	-0.139557	0.448146
C85	C	1.599836	-0.860828	-0.218527
C86	C	1.933169	-0.527495	0.114806
C87	C	2.266502	-0.194162	0.448139
O88	O	1.657571	-0.889062	-0.190135
O89	O	1.990904	-0.555729	0.143199
O90	O	2.324238	-0.222395	0.476532
N91	N	1.532016	-0.888147	-0.251934
N92	N	1.865349	-0.554814	0.081399
N93	N	2.198682	-0.221481	0.414732
C94	C	1.464158	-0.860859	-0.285341
C95	C	1.797491	-0.527526	0.047993
C96	C	2.130824	-0.194192	0.381326
O97	O	1.406476	-0.889110	-0.313757
O98	O	1.739809	-0.555776	0.019576
O99	O	2.073143	-0.222443	0.352910
C100	C	1.464123	-0.806256	-0.285336
C101	C	1.797456	-0.472922	0.047997
C102	C	2.130789	-0.139589	0.381331
C103	C	1.531940	-0.778940	-0.251923
C104	C	1.865273	-0.445606	0.081411
C105	C	2.198606	-0.112273	0.414744
C106	C	1.667607	-0.778908	-0.185110
C107	C	2.000940	-0.445575	0.148223
C108	C	2.334273	-0.112241	0.481556
C109	C	1.667564	-0.724308	-0.185103
C110	C	2.000897	-0.390974	0.148231
C111	C	2.334231	-0.057641	0.481564
C112	C	1.599709	-0.697023	-0.218505
C113	C	1.933042	-0.363690	0.114828
C114	C	2.266376	-0.030356	0.448161
C115	C	1.531897	-0.724339	-0.251915
C116	C	1.865230	-0.391006	0.081418
C117	C	2.198563	-0.057672	0.414751
C118	C	1.396271	-0.778968	-0.318744
C119	C	1.729604	-0.445635	0.014589
C120	C	2.062938	-0.112302	0.347922
C121	C	1.396242	-0.724361	-0.318737
C122	C	1.729576	-0.391028	0.014596
C123	C	2.062909	-0.057695	0.347930
C124	C	1.464059	-0.697045	-0.285324
C125	C	1.797393	-0.363712	0.048010
C126	C	2.130726	-0.030379	0.381343
C127	C	1.463999	-0.642454	-0.285310
C128	C	1.797332	-0.309121	0.048023
C129	C	2.130666	0.024213	0.381357
N130	N	1.531819	-0.615135	-0.251903
N131	N	1.865152	-0.281802	0.081430
N132	N	2.198486	0.051531	0.414764
C133	C	1.599674	-0.642420	-0.218500
C134	C	1.933007	-0.309086	0.114833
C135	C	2.266341	0.024247	0.448166
C136	C	1.464238	-0.975530	-0.285349
C137	C	1.797571	-0.642196	0.047985
C138	C	2.130904	-0.308863	0.381318
C139	C	1.464266	-1.030132	-0.285351
C140	C	1.797600	-0.696799	0.047982
C141	C	2.130933	-0.363465	0.381315
C142	C	1.599946	-1.030098	-0.218538
C143	C	1.933279	-0.696764	0.114795
C144	C	2.266613	-0.363431	0.448128
C145	C	1.599911	-0.975494	-0.218534
C146	C	1.933244	-0.642161	0.114800
C147	C	2.266578	-0.308828	0.448133
C148	C	1.532058	-0.948211	-0.251941
C149	C	1.865391	-0.614877	0.081392
C150	C	2.198724	-0.281544	0.414725
C151	C	1.599579	-0.527755	-0.218487
C152	C	1.932912	-0.194421	0.114847
C153	C	2.266245	0.138912	0.448180
C154	C	1.599527	-0.473149	-0.218481
C155	C	1.932860	-0.139816	0.114853
C156	C	2.266193	0.193517	0.448186
C157	C	1.463851	-0.473188	-0.285295
C158	C	1.797185	-0.139855	0.048038
C159	C	2.130518	0.193478	0.381371
C160	C	1.463899	-0.527789	-0.285300
C161	C	1.797232	-0.194456	0.048034
C162	C	2.130566	0.138878	0.381367
C163	C	1.531771	-0.555071	-0.251894
C164	C	1.865104	-0.221737	0.081440
C165	C	2.198438	0.111596	0.414773
O166	O	1.406296	-0.614186	-0.313690
O167	O	1.739629	-0.280853	0.019644
O168	O	2.072963	0.052481	0.352977
O169	O	1.657356	-0.614162	-0.190094
O170	O	1.990689	-0.280829	0.143240
O171	O	2.324023	0.052504	0.476573
C172	C	1.808334	-0.251921	-0.251915
C173	C	2.141668	0.081412	0.081418
C174	C	2.475001	0.414746	0.414751
C175	C	1.926165	-0.251927	-0.251922
C176	C	2.259498	0.081407	0.081411
C177	C	2.592831	0.414740	0.414745
C178	C	1.531887	-0.251885	-0.388273
C179	C	1.865220	0.081448	-0.054940
C180	C	2.198553	0.414781	0.278394
C181	C	1.531911	-0.251875	-0.446387
C182	C	1.865245	0.081458	-0.113054
C183	C	2.198578	0.414791	0.220280
C184	C	1.532037	-0.115535	-0.251935
C185	C	1.865370	0.217798	0.081398
C186	C	2.198704	0.551131	0.414731
C187	C	1.532126	-0.057421	-0.251950
C188	C	1.865459	0.275912	0.081383
C189	C	2.198792	0.609246	0.414716
C190	C	1.599691	-0.285276	-0.697568
C191	C	1.933024	0.048057	-0.364235
C192	C	2.266357	0.381391	-0.030901
C193	C	1.599679	-0.285287	-0.642964
C194	C	1.933013	0.048047	-0.309630
C195	C	2.266346	0.381380	0.023703
O196	O	1.657259	-0.313743	-0.614716
O197	O	1.990592	0.019590	-0.281383
O198	O	2.323925	0.352924	0.051950
N199	N	1.531934	-0.251850	-0.615661
N200	N	1.865268	0.081483	-0.282328
N201	N	2.198601	0.414817	0.051006
C202	C	1.464188	-0.218404	-0.642965
C203	C	1.797522	0.114930	-0.309632
C204	C	2.130855	0.448263	0.023701
O205	O	1.406564	-0.189965	-0.614728
O206	O	1.739897	0.143369	-0.281395
O207	O	2.073231	0.476702	0.051938
C208	C	1.464195	-0.218396	-0.697569
C209	C	1.797528	0.114937	-0.364235
C210	C	2.130861	0.448271	-0.030902
C211	C	1.531952	-0.251831	-0.724869
C212	C	1.865285	0.081502	-0.391535
C213	C	2.198619	0.414835	-0.058202
C214	C	1.667442	-0.318709	-0.724868
C215	C	2.000775	0.014624	-0.391535
C216	C	2.334108	0.347958	-0.058201
C217	C	1.667454	-0.318697	-0.779469
C218	C	2.000787	0.014636	-0.446135
C219	C	2.334120	0.347970	-0.112802
C220	C	1.599715	-0.285252	-0.806769
C221	C	1.933049	0.048081	-0.473436
C222	C	2.266382	0.381414	-0.140103
C223	C	1.531964	-0.251819	-0.779469
C224	C	1.865298	0.081514	-0.446136
C225	C	2.198631	0.414847	-0.112802
C226	C	1.396444	-0.184953	-0.724872
C227	C	1.729778	0.148381	-0.391539
C228	C	2.063111	0.481714	-0.058205
C229	C	1.396456	-0.184948	-0.779479
C230	C	1.729789	0.148385	-0.446146
C231	C	2.063123	0.481719	-0.112812
C232	C	1.464213	-0.218383	-0.806779
C233	C	1.797547	0.114950	-0.473446
C234	C	2.130880	0.448283	-0.140112
C235	C	1.464238	-0.218363	-0.861370
C236	C	1.797571	0.114970	-0.528037
C237	C	2.130905	0.448304	-0.194704
N238	N	1.531983	-0.251800	-0.888673
N239	N	1.865317	0.081534	-0.555340
N240	N	2.198650	0.414867	-0.222006
C241	C	1.599722	-0.285245	-0.861373
C242	C	1.933055	0.048089	-0.528039
C243	C	2.266388	0.381422	-0.194706
C244	C	1.464178	-0.218424	-0.528295
C245	C	1.797512	0.114910	-0.194961
C246	C	2.130845	0.448243	0.138372
C247	C	1.464176	-0.218428	-0.473692
C248	C	1.797510	0.114905	-0.140359
C249	C	2.130843	0.448238	0.192974
C250	C	1.599666	-0.285312	-0.473694
C251	C	1.933000	0.048021	-0.140361
C252	C	2.266333	0.381354	0.192972
C253	C	1.599673	-0.285304	-0.528298
C254	C	1.933006	0.048029	-0.194964
C255	C	2.266340	0.381362	0.138369
C256	C	1.531923	-0.251860	-0.555597
C257	C	1.865257	0.081473	-0.222264
C258	C	2.198590	0.414806	0.111069
C259	C	1.599743	-0.285217	-0.976038
C260	C	1.933077	0.048116	-0.642704
C261	C	2.266410	0.381450	-0.309371
C262	C	1.599753	-0.285201	-1.030643
C263	C	1.933086	0.048133	-0.697310
C264	C	2.266419	0.381466	-0.363976
C265	C	1.464259	-0.218319	-1.030636
C266	C	1.797592	0.115014	-0.697303
C267	C	2.130926	0.448348	-0.363969
C268	C	1.464253	-0.218333	-0.976035
C269	C	1.797586	0.115000	-0.642702
C270	C	2.130920	0.448333	-0.309369
C271	C	1.531999	-0.251786	-0.948738
C272	C	1.865332	0.081547	-0.615404
C273	C	2.198665	0.414880	-0.282071
O274	O	1.406685	-0.189923	-0.889652
O275	O	1.740019	0.143410	-0.556319
O276	O	2.073352	0.476744	-0.222986
O277	O	1.657327	-0.313684	-0.889616
O278	O	1.990660	0.019649	-0.556283
O279	O	2.323993	0.352983	-0.222950
C280	C	1.531833	-0.251894	-0.116057
C281	C	1.865166	0.081440	0.217276
C282	C	2.198500	0.414773	0.550609
C283	C	1.532014	-0.251756	-0.057944
C284	C	1.865347	0.081577	0.275390
C285	C	2.198681	0.414911	0.608723
H286	H	0.940553	-0.198472	-0.320963
H287	H	1.273886	0.134861	0.012370
H288	H	1.607219	0.468194	0.345704
H289	H	1.123161	-0.196172	-0.318317
H290	H	1.456495	0.137161	0.015016
H291	H	1.789828	0.470494	0.348350
H292	H	1.722868	-0.801117	-0.157910
H293	H	2.056201	-0.467784	0.175424
H294	H	2.389535	-0.134451	0.508757
Cl295	Cl	1.684819	-0.327360	-0.439363
Cl296	Cl	2.018152	0.005973	-0.106030
Cl297	Cl	2.351486	0.339307	0.227303
H298	H	1.409012	-0.191184	-0.550519
H299	H	1.742345	0.142149	-0.217185
H300	H	2.075679	0.475482	0.116148
Cl301	Cl	1.684903	-0.562043	-0.176489
Cl302	Cl	2.018236	-0.228710	0.156844
Cl303	Cl	2.351569	0.104623	0.490177
H304	H	1.341285	-0.157713	-0.801704
H305	H	1.674618	0.175620	-0.468370
H306	H	2.007952	0.508953	-0.135037
Cl307	Cl	1.684911	-0.327272	-0.941729
Cl308	Cl	2.018245	0.006061	-0.608395
Cl309	Cl	2.351578	0.339394	-0.275062
H310	H	1.409014	-0.191196	-0.451469
H311	H	1.742347	0.142137	-0.118136
H312	H	2.075680	0.475471	0.215197
Cl313	Cl	1.685171	-0.941160	-0.176528
Cl314	Cl	2.018504	-0.607827	0.156805
Cl315	Cl	2.351838	-0.274493	0.490139
H316	H	1.340989	-0.702150	-0.345943
H317	H	1.674322	-0.368816	-0.012610
H318	H	2.007656	-0.035483	0.320723
H319	H	1.722625	-0.345925	-0.801691
H320	H	2.055959	-0.012592	-0.468358
H321	H	2.389292	0.320741	-0.135025
H322	H	1.124662	-0.264119	-0.338518
H323	H	1.457995	0.069214	-0.005185
H324	H	1.791328	0.402547	0.328149
H325	H	1.722789	-0.702070	-0.157896
H326	H	2.056123	-0.368737	0.175437
H327	H	2.389456	-0.035403	0.508770
H328	H	0.942417	-0.267507	-0.337224
H329	H	1.275750	0.065826	-0.003890
H330	H	1.609083	0.399160	0.329443
Cl331	Cl	1.685249	-1.064408	-0.176545
Cl332	Cl	2.018582	-0.731075	0.156788
Cl333	Cl	2.351915	-0.397742	0.490121
H334	H	1.409094	-0.191101	-0.953807
H335	H	1.742427	0.142233	-0.620473
H336	H	2.075760	0.475566	-0.287140
Cl337	Cl	1.378558	-0.438878	-0.327287
Cl338	Cl	1.711892	-0.105544	0.006046
Cl339	Cl	2.045225	0.227789	0.339379
H340	H	1.341267	-0.157727	-0.702654
H341	H	1.674600	0.175606	-0.369320
H342	H	2.007934	0.508940	-0.035987
Cl343	Cl	1.684789	-0.438813	-0.176473
Cl344	Cl	2.018122	-0.105479	0.156861
Cl345	Cl	2.351456	0.227854	0.490194
Cl346	Cl	1.311022	-0.813295	-0.360758
Cl347	Cl	1.644355	-0.479962	-0.027425
Cl348	Cl	1.977689	-0.146628	0.305908
Cl349	Cl	1.752612	-0.360759	-0.690557
Cl350	Cl	2.085945	-0.027426	-0.357224
Cl351	Cl	2.419279	0.305908	-0.023891
H352	H	1.409033	-1.052368	-0.312555
H353	H	1.742366	-0.719035	0.020779
H354	H	2.075700	-0.385701	0.354112
H355	H	1.408680	-0.550031	-0.312509
H356	H	1.742014	-0.216698	0.020824
H357	H	2.075347	0.116636	0.354158
Cl358	Cl	1.140097	-0.148371	-0.226115
Cl359	Cl	1.473430	0.184962	0.107218
Cl360	Cl	1.806764	0.518296	0.440552
Cl361	Cl	0.925570	-0.148074	-0.226135
Cl362	Cl	1.258903	0.185259	0.107198
Cl363	Cl	1.592237	0.518593	0.440532
Cl364	Cl	1.684855	-0.327340	-0.562612
Cl365	Cl	2.018188	0.005994	-0.229279
Cl366	Cl	2.351521	0.339327	0.104055
H367	H	1.122852	-0.220676	-0.170529
H368	H	1.456185	0.112657	0.162804
H369	H	1.789518	0.445991	0.496138
Cl370	Cl	1.379107	-0.176276	-1.064967
Cl371	Cl	1.712440	0.157057	-0.731634
Cl372	Cl	2.045774	0.490390	-0.398300
H373	H	1.408974	-0.953318	-0.312552
H374	H	1.742308	-0.619985	0.020781
H375	H	2.075641	-0.286651	0.354115
H376	H	0.940166	-0.220468	-0.170947
H377	H	1.273499	0.112865	0.162386
H378	H	1.606833	0.446198	0.495719
H379	H	1.124663	-0.319052	-0.196805
H380	H	1.457996	0.014282	0.136528
H381	H	1.791330	0.347615	0.469862
Cl382	Cl	1.684940	-0.327237	-1.064960
Cl383	Cl	2.018273	0.006097	-0.731626
Cl384	Cl	2.351607	0.339430	-0.398293
H385	H	0.942764	-0.318626	-0.196097
H386	H	1.276097	0.014707	0.137237
H387	H	1.609431	0.348041	0.470570
Cl388	Cl	0.925596	-0.355049	-0.279789
Cl389	Cl	1.258929	-0.021716	0.053544
Cl390	Cl	1.592262	0.311618	0.386878
H391	H	1.123153	-0.338041	-0.265194
H392	H	1.456486	-0.004707	0.068139
H393	H	1.789819	0.328626	0.401472
