data_functionalizedCrystal
_audit_creation_method	'MofGen! by Chris Wilmer'
_symmetry_space_group_name_H-M	'P1'
_symmetry_Int_Tables_number	1
_symmetry_cell_setting	triclinic
loop_
_symmetry_equiv_pos_as_xyz
  x,y,z
_cell_length_a	19.077236
_cell_length_b	15.299816
_cell_length_c	19.076919
_cell_angle_alpha	102.310100
_cell_angle_beta	89.887323
_cell_angle_gamma	83.008515
loop_
_atom_site_label
_atom_site_type_symbol
_atom_site_fract_x
_atom_site_fract_y
_atom_site_fract_z
Zn1	Zn	1.100674	-0.327586	-0.486529
Zn2	Zn	1.124025	-0.472208	-0.389324
Zn3	Zn	0.987829	-0.327113	-0.364242
Zn4	Zn	1.003402	-0.484247	-0.503752
O5	O	1.053982	-0.402789	-0.435962
O6	O	1.201479	-0.341930	-0.476923
O7	O	1.109213	-0.447724	-0.286931
O8	O	0.986508	-0.200890	-0.362759
O9	O	1.218635	-0.448183	-0.405507
O10	O	1.069415	-0.201238	-0.452602
O11	O	1.009150	-0.341124	-0.268504
O12	O	0.892187	-0.352798	-0.379460
O13	O	1.013051	-0.468702	-0.600534
O14	O	0.903629	-0.468244	-0.481957
O15	O	1.084516	-0.353604	-0.587879
O16	O	1.124314	-0.600091	-0.422208
O17	O	1.035693	-0.608936	-0.506278
C18	C	0.872573	-0.411777	-0.429857
C19	C	0.794968	-0.415644	-0.427264
C20	C	0.749587	-0.362236	-0.463311
C21	C	0.676668	-0.365866	-0.460869
C22	C	0.649132	-0.422908	-0.422384
C23	C	0.694519	-0.476318	-0.386333
C24	C	0.767436	-0.472683	-0.388771
C25	C	0.432011	-0.439697	-0.411091
C26	C	0.359089	-0.443329	-0.408657
C27	C	0.341243	-0.332875	-0.483192
C28	C	0.414162	-0.329250	-0.485631
C29	C	0.459542	-0.382656	-0.449577
N30	N	0.574598	-0.426622	-0.419888
N31	N	0.534074	-0.378937	-0.452069
C32	C	1.084246	-0.637258	-0.468850
C33	C	1.097256	-0.737563	-0.482946
C34	C	0.961448	-1.019866	-0.335475
C35	C	0.949221	-0.925625	-0.322233
C36	C	0.986229	-0.878605	-0.362410
C37	C	1.035466	-0.925835	-0.415831
C38	C	1.047690	-1.020086	-0.429078
C39	C	1.072471	-0.878825	-0.456013
C40	C	1.121707	-0.926055	-0.509434
C41	C	1.133930	-1.020296	-0.522679
C42	C	1.096922	-1.067317	-0.482502
C43	C	1.060246	-0.784574	-0.442766
C44	C	1.146488	-0.784793	-0.536369
C45	C	1.158715	-0.879035	-0.549611
C46	C	1.236100	-0.393766	-0.442092
C47	C	1.313708	-0.389922	-0.444704
C48	C	1.047916	-0.412549	-0.620611
C49	C	1.045330	-0.416708	-0.699298
C50	C	1.023619	-0.167404	-0.402961
C51	C	1.010680	-0.067097	-0.388899
C52	C	1.081322	-0.358740	-0.729678
C53	C	1.078884	-0.362645	-0.803612
C54	C	1.040458	-0.424524	-0.847165
C55	C	1.004462	-0.482495	-0.816780
C56	C	1.006896	-0.478585	-0.742846
C57	C	1.029183	-0.442640	-1.068987
C58	C	1.026753	-0.446547	-1.142925
C59	C	1.101175	-0.326696	-1.129752
C60	C	1.103609	-0.322795	-1.055819
C61	C	1.067610	-0.380763	-1.025440
N62	N	1.037967	-0.428519	-0.922737
N63	N	1.070098	-0.376763	-0.949868
C64	C	1.060057	-0.392999	-0.252023
C65	C	1.062745	-0.388579	-0.173306
H66	H	0.436576	-0.282803	-0.516973
C67	C	0.664759	-0.538278	-0.344482
C68	C	0.720110	-0.584255	-0.313420
C69	C	0.692723	-0.641335	-0.274856
H70	H	0.640529	-0.580574	-0.376018
H71	H	0.632871	-0.503505	-0.307844
H72	H	0.751985	-0.619025	-0.350054
H73	H	0.744345	-0.541982	-0.281873
H74	H	0.660835	-0.606562	-0.238218
H75	H	0.668493	-0.683626	-0.306397
H76	H	0.730273	-0.672531	-0.253771
H77	H	0.977580	-0.525780	-0.718111
C78	C	0.962674	-0.549711	-0.863938
C79	C	0.931660	-0.599625	-0.821502
C80	C	0.893154	-0.661548	-0.864917
H81	H	0.993439	-0.589319	-0.899203
H82	H	0.926815	-0.518244	-0.886902
H83	H	0.967515	-0.631090	-0.798550
H84	H	0.900884	-0.560042	-0.786239
H85	H	0.857295	-0.630081	-0.887881
H86	H	0.923924	-0.701149	-0.900180
H87	H	0.872101	-0.695416	-0.836130
H88	H	0.639721	-0.322377	-0.490223
H89	H	1.112615	-0.308354	-0.694222
C90	C	0.816822	-0.530569	-0.349654
C91	C	0.886571	-0.515159	-0.360009
C92	C	0.932083	-0.568456	-0.323973
H93	H	0.812463	-0.592394	-0.368007
H94	H	0.804747	-0.515337	-0.299824
H95	H	0.898643	-0.530397	-0.409828
H96	H	0.890953	-0.453344	-0.341653
H97	H	0.920007	-0.553223	-0.274144
H98	H	0.927717	-0.630277	-0.342329
H99	H	0.979412	-0.558001	-0.330988
H100	H	0.931318	-1.058159	-0.302772
C101	C	1.110312	-1.169639	-0.496973
C102	C	1.161356	-1.200940	-0.552351
C103	C	1.173710	-1.295194	-0.565697
H104	H	1.067667	-1.193986	-0.510706
H105	H	1.126728	-1.187994	-0.454725
H106	H	1.144938	-1.182594	-0.594590
H107	H	1.204011	-1.176618	-0.538633
H108	H	1.190126	-1.313550	-0.523449
H109	H	1.131061	-1.319533	-0.579427
H110	H	1.208348	-1.316444	-0.603267
C111	C	1.186718	-0.733919	-0.580095
C112	C	1.232435	-0.795453	-0.629731
C113	C	1.269494	-0.748615	-0.670027
H114	H	1.213338	-0.694191	-0.548974
H115	H	1.154221	-0.700143	-0.604894
H116	H	1.264928	-0.829213	-0.604933
H117	H	1.205833	-0.835183	-0.660867
H118	H	1.236996	-0.714840	-0.694827
H119	H	1.296109	-0.708889	-0.638901
H120	H	1.300512	-0.790359	-0.703714
C121	C	0.329058	-0.505235	-0.366933
C122	C	0.255489	-0.497003	-0.372534
C123	C	0.227801	-0.554022	-0.334118
H124	H	0.340764	-0.488878	-0.317894
H125	H	0.348468	-0.565862	-0.386126
H126	H	0.236086	-0.436390	-0.353339
H127	H	0.243764	-0.513367	-0.421564
H128	H	0.247211	-0.614649	-0.353311
H129	H	0.239512	-0.537661	-0.285081
H130	H	0.177883	-0.548451	-0.337919
C131	C	1.187442	-1.071411	-0.580684
C132	C	1.217252	-1.010065	-0.613019
C133	C	1.266559	-1.057116	-0.666447
H134	H	1.164548	-1.111153	-0.615846
H135	H	1.223572	-1.105192	-0.559824
H136	H	1.181128	-0.976300	-0.633880
H137	H	1.240159	-0.970322	-0.577876
H138	H	1.302689	-1.090897	-0.645587
H139	H	1.243660	-1.096856	-0.701604
H140	H	1.286796	-1.015500	-0.688389
H141	H	0.304287	-0.289394	-0.512545
C142	C	1.117826	-0.299593	-0.836606
C143	C	1.069426	-0.245931	-0.869583
C144	C	1.105270	-0.187819	-0.899972
H145	H	1.151751	-0.334018	-0.871360
H146	H	1.141038	-0.262134	-0.800089
H147	H	1.046226	-0.283385	-0.906096
H148	H	1.035499	-0.211486	-0.834843
H149	H	1.128482	-0.150360	-0.863454
H150	H	1.139194	-0.222252	-0.934723
H151	H	1.072436	-0.151397	-0.922344
H152	H	1.020157	-0.746127	-0.399270
C153	C	0.779340	-0.300214	-0.505107
C154	C	0.723985	-0.254202	-0.536137
C155	C	0.751363	-0.197049	-0.574636
H156	H	0.811232	-0.334910	-0.541760
H157	H	0.803562	-0.257946	-0.473515
H158	H	0.699775	-0.296465	-0.567727
H159	H	0.692088	-0.219489	-0.499500
H160	H	0.775584	-0.154780	-0.543044
H161	H	0.783254	-0.231751	-0.611285
H162	H	0.713808	-0.165817	-0.595689
C163	C	0.481162	-0.497786	-0.371933
C164	C	0.441440	-0.548536	-0.337726
C165	C	0.486698	-0.602068	-0.301653
H166	H	0.506162	-0.460254	-0.337181
H167	H	0.513804	-0.537220	-0.405425
H168	H	0.408811	-0.509105	-0.304238
H169	H	0.416441	-0.586085	-0.372462
H170	H	0.519339	-0.641503	-0.335144
H171	H	0.511695	-0.564529	-0.266905
H172	H	0.459753	-0.636514	-0.278445
C173	C	0.973109	-0.776277	-0.348032
C174	C	1.036140	-0.740782	-0.327884
C175	C	1.024084	-0.646518	-0.314638
H176	H	0.938525	-0.754762	-0.310450
H177	H	0.956768	-0.757925	-0.390305
H178	H	1.052471	-0.759126	-0.285615
H179	H	1.070733	-0.762272	-0.365456
H180	H	1.007743	-0.628166	-0.356911
H181	H	0.989498	-0.625012	-0.277057
H182	H	1.066849	-0.622423	-0.300972
C183	C	0.895771	-0.874508	-0.264175
C184	C	0.865994	-0.935853	-0.231810
C185	C	0.816760	-0.888796	-0.178312
H186	H	0.859612	-0.840698	-0.284958
H187	H	0.918739	-0.834793	-0.229048
H188	H	0.843026	-0.975552	-0.266931
H189	H	0.902135	-0.969666	-0.211012
H190	H	0.839727	-0.849081	-0.143185
H191	H	0.780605	-0.854986	-0.199101
H192	H	0.796555	-0.930410	-0.156341
H193	H	1.198804	-0.917503	-0.593108
C194	C	1.140175	-0.263800	-1.162865
C195	C	1.129806	-0.280448	-1.236931
C196	C	1.165713	-0.222512	-1.267456
H197	H	1.189209	-0.273985	-1.154261
H198	H	1.122520	-0.203015	-1.141940
H199	H	1.147464	-0.341219	-1.257850
H200	H	1.080779	-0.270257	-1.245557
H201	H	1.148058	-0.161727	-1.246531
H202	H	1.214745	-0.232702	-1.258846
H203	H	1.158677	-0.233794	-1.317711
H204	H	1.134902	-0.272409	-1.020363
H205	H	0.995460	-0.496939	-1.178385
C206	C	0.990070	-0.505669	-1.036149
C207	C	0.955909	-0.560705	-1.090119
C208	C	0.919870	-0.618782	-1.059892
H209	H	0.956096	-0.471217	-1.001458
H210	H	1.022777	-0.542199	-1.013734
H211	H	0.923205	-0.524179	-1.112523
H212	H	0.989868	-0.595176	-1.124813
H213	H	0.952578	-0.655312	-1.037477
H214	H	0.885900	-0.584323	-1.025202
H215	H	0.896693	-0.656136	-1.096507
