data_functionalizedCrystal
_audit_creation_method	'MofGen! by Chris Wilmer'
_symmetry_space_group_name_H-M	'P1'
_symmetry_Int_Tables_number	1
_symmetry_cell_setting	triclinic
loop_
_symmetry_equiv_pos_as_xyz
  x,y,z
_cell_length_a	17.699083
_cell_length_b	17.699083
_cell_length_c	13.930277
_cell_angle_alpha	90.003742
_cell_angle_beta	89.999451
_cell_angle_gamma	83.283015
loop_
_atom_site_label
_atom_site_type_symbol
_atom_site_fract_x
_atom_site_fract_y
_atom_site_fract_z
O1	O	-1.004079	-0.095701	0.079698
O2	O	-0.504079	0.404299	0.579698
O3	O	-0.783701	-0.108153	0.079730
O4	O	-0.283701	0.391847	0.579730
O5	O	-0.900116	0.008262	0.079705
O6	O	-0.400116	0.508262	0.579705
O7	O	-0.887664	-0.212116	0.079723
O8	O	-0.387664	0.287884	0.579723
O9	O	-0.900099	0.008245	-0.079957
O10	O	-0.400099	0.508245	0.420043
O11	O	-0.783684	-0.108171	-0.079932
O12	O	-0.283684	0.391829	0.420068
O13	O	-1.004062	-0.095718	-0.079964
O14	O	-0.504062	0.404282	0.420036
Zn15	Zn	-0.893870	-0.101947	-0.105298
Zn16	Zn	-0.393870	0.398053	0.394702
Zn17	Zn	-0.893893	-0.101924	0.105064
Zn18	Zn	-0.393893	0.398076	0.605064
O19	O	-0.887647	-0.212134	-0.079938
O20	O	-0.387647	0.287866	0.420062
C21	C	-0.755495	-0.107716	-0.000097
C22	C	-0.255495	0.392284	0.499903
C23	C	-0.671477	-0.106377	-0.000085
C24	C	-0.171477	0.393623	0.499915
C25	C	-0.899662	0.036451	-0.000126
C26	C	-0.399662	0.536451	0.499874
C27	C	-0.898323	0.120469	-0.000127
C28	C	-0.398323	0.620469	0.499873
N29	N	-0.893860	-0.101963	-0.248864
N30	N	-0.393860	0.398037	0.251136
C31	C	-1.032268	-0.096156	-0.000135
C32	C	-0.532268	0.403844	0.499865
C33	C	-1.116286	-0.097494	-0.000140
C34	C	-0.616286	0.402506	0.499860
C35	C	-0.622856	-0.174711	-0.000080
C36	C	-0.122856	0.325289	0.499920
C37	C	-0.543913	-0.173448	-0.000092
C38	C	-0.043913	0.326552	0.499908
C39	C	-0.513592	-0.103852	-0.000103
C40	C	-0.013592	0.396148	0.499897
C41	C	-0.562219	-0.035513	-0.000112
C42	C	-0.062219	0.464487	0.499888
C43	C	-0.641161	-0.036776	-0.000106
C44	C	-0.141161	0.463224	0.499894
C45	C	-0.243856	-0.030418	-0.000136
C46	C	0.256144	0.469582	0.499864
C47	C	-0.164908	-0.029160	-0.000139
C48	C	0.335092	0.470840	0.499861
C49	C	-0.146608	-0.167090	-0.000122
C50	C	0.353392	0.332910	0.499878
C51	C	-0.225550	-0.168353	-0.000116
C52	C	0.274450	0.331647	0.499884
C53	C	-0.274170	-0.100015	-0.000130
C54	C	0.225830	0.399985	0.499870
C55	C	-0.359769	-0.101384	-0.000118
C56	C	0.140231	0.398616	0.499882
C57	C	-0.427995	-0.102481	-0.000108
C58	C	0.072005	0.397519	0.499892
C59	C	-0.888102	-0.240322	-0.000105
C60	C	-0.388102	0.259678	0.499895
C61	C	-0.889440	-0.324340	-0.000099
C62	C	-0.389440	0.175660	0.499901
C63	C	-0.966656	0.169090	-0.000138
C64	C	-0.466656	0.669090	0.499862
C65	C	-0.965394	0.248033	-0.000129
C66	C	-0.465394	0.748033	0.499871
C67	C	-0.895798	0.278354	-0.000116
C68	C	-0.395798	0.778354	0.499884
C69	C	-0.827459	0.229727	-0.000102
C70	C	-0.327459	0.729727	0.499898
C71	C	-0.828722	0.150785	-0.000104
C72	C	-0.328722	0.650785	0.499896
C73	C	-0.822364	0.548090	-0.000093
C74	C	-0.322364	1.048090	0.499907
C75	C	-0.821106	0.627038	-0.000095
C76	C	-0.321106	1.127038	0.499905
C77	C	-0.959036	0.645338	-0.000119
C78	C	-0.459036	1.145338	0.499881
C79	C	-0.960299	0.566396	-0.000120
C80	C	-0.460299	1.066396	0.499880
C81	C	-0.891961	0.517776	-0.000101
C82	C	-0.391961	1.017776	0.499899
C83	C	-0.893330	0.432177	-0.000109
C84	C	-0.393330	0.932177	0.499891
C85	C	-0.894427	0.363951	-0.000115
C86	C	-0.394427	0.863951	0.499885
C87	C	-0.939720	-0.147757	-0.701126
C88	C	-0.439720	0.352243	-0.201126
C89	C	-0.848089	-0.056060	-0.701110
C90	C	-0.348089	0.443940	-0.201110
C91	C	-0.848078	-0.056072	-0.600614
C92	C	-0.348078	0.443928	-0.100614
C93	C	-0.893889	-0.101927	-0.550369
C94	C	-0.393889	0.398073	-0.050369
C95	C	-0.939711	-0.147769	-0.600621
C96	C	-0.439711	0.352231	-0.100621
C97	C	-0.802262	-0.010225	-0.550355
C98	C	-0.302262	0.489775	-0.050355
C99	C	-0.802249	-0.010235	-0.449853
C100	C	-0.302249	0.489765	0.050147
C101	C	-0.848057	-0.056094	-0.399607
C102	C	-0.348057	0.443906	0.100393
C103	C	-0.893880	-0.101939	-0.449864
C104	C	-0.393880	0.398061	0.050136
C105	C	-0.939691	-0.147793	-0.399620
C106	C	-0.439691	0.352207	0.100380
C107	C	-0.985512	-0.193642	-0.449876
C108	C	-0.485512	0.306358	0.050124
C109	C	-0.985519	-0.193628	-0.550374
C110	C	-0.485519	0.306372	-0.050374
C111	C	-0.848050	-0.056109	-0.299108
C112	C	-0.348050	0.443891	0.200892
C113	C	-0.939683	-0.147805	-0.299115
C114	C	-0.439683	0.352195	0.200885
N115	N	-0.893909	-0.101902	0.248630
N116	N	-0.393909	0.398098	0.748630
H117	H	-0.647537	-0.231384	-0.000070
H118	H	-0.147537	0.268616	0.499930
C119	C	-0.751872	0.040209	-0.605629
C120	C	-0.251872	0.540209	-0.105629
N121	N	-0.713913	0.078196	-0.647267
N122	N	-0.213913	0.578196	-0.147267
C123	C	-0.990121	-0.198188	-0.756407
C124	C	-0.490121	0.301812	-0.256407
N125	N	-1.028084	-0.236171	-0.798046
N126	N	-0.528084	0.263829	-0.298046
H127	H	-0.764939	0.027098	-0.408944
H128	H	-0.264939	0.527098	0.091056
C129	C	-0.297329	0.044757	-0.000145
C130	C	0.202671	0.544757	0.499855
N131	N	-0.337607	0.101382	-0.000150
N132	N	0.162393	0.601382	0.499850
H133	H	-0.810797	-0.018722	-0.742025
H134	H	-0.310797	0.481278	-0.242025
H135	H	-1.023330	0.144409	-0.000154
H136	H	-0.523330	0.644409	0.499846
H137	H	-1.022825	-0.230954	-0.591301
H138	H	-0.522825	0.269046	-0.091301
C139	C	-0.797651	-0.005677	-0.243832
C140	C	-0.297651	0.494323	0.256168
N141	N	-0.759686	0.032309	-0.202198
N142	N	-0.259686	0.532309	0.297802
H143	H	-0.504328	-0.229092	-0.000087
H144	H	-0.004328	0.270908	0.499913
H145	H	-0.107012	-0.222734	-0.000116
H146	H	0.392988	0.277266	0.499884
C147	C	-0.258898	-0.244914	-0.000110
C148	C	0.241102	0.255086	0.499890
N149	N	-0.284014	-0.302582	-0.000112
N150	N	0.215986	0.197418	0.499888
H151	H	-0.140225	0.027517	-0.000149
H152	H	0.359775	0.527517	0.499851
C153	C	-1.040567	0.301513	-0.000157
C154	C	-0.540567	0.801513	0.499843
N155	N	-1.097190	0.341794	-0.000183
N156	N	-0.597190	0.841794	0.499817
H157	H	-0.766718	0.508512	-0.000078
H158	H	-0.266718	1.008512	0.499922
H159	H	-1.022814	-0.230974	-0.408953
H160	H	-0.522814	0.269026	0.091047
C161	C	-0.744541	0.660388	-0.000072
C162	C	-0.244541	1.160388	0.499928
N163	N	-0.686875	0.685507	-0.000055
N164	N	-0.186875	1.185507	0.499945
C165	C	-0.750902	0.263082	-0.000096
C166	C	-0.250902	0.763082	0.499904
N167	N	-0.693238	0.288205	-0.000098
N168	N	-0.193238	0.788205	0.499902
C169	C	-0.528864	0.041044	-0.000126
C170	C	-0.028864	0.541044	0.499874
N171	N	-0.503741	0.098708	-0.000133
N172	N	-0.003741	0.598708	0.499867
H173	H	-0.680748	0.018868	-0.000110
H174	H	-0.180748	0.518868	0.499890
H175	H	-1.016971	0.541714	-0.000136
H176	H	-0.516971	1.041714	0.499864
H177	H	-1.014680	0.684934	-0.000129
H178	H	-0.514680	1.184934	0.499871
C179	C	-0.990080	-0.198249	-0.243854
C180	C	-0.490080	0.301751	0.256146
N181	N	-1.028041	-0.236243	-0.202232
N182	N	-0.528041	0.263757	0.297768
H183	H	-0.773078	0.111198	-0.000094
H184	H	-0.273078	0.611198	0.499906
