data_functionalizedCrystal
_audit_creation_method	'MofGen! by Chris Wilmer'
_symmetry_space_group_name_H-M	'P1'
_symmetry_Int_Tables_number	1
_symmetry_cell_setting	triclinic
loop_
_symmetry_equiv_pos_as_xyz
  x,y,z
_cell_length_a	10.540539
_cell_length_b	9.730223
_cell_length_c	10.654550
_cell_angle_alpha	90.000193
_cell_angle_beta	84.505197
_cell_angle_gamma	89.998168
loop_
_atom_site_label
_atom_site_type_symbol
_atom_site_fract_x
_atom_site_fract_y
_atom_site_fract_z
O1	O	1.685816	0.114221	0.176987
O2	O	1.316397	0.114238	0.193663
O3	O	1.509600	0.114224	0.002588
O4	O	1.492613	0.114235	0.368061
O5	O	1.509598	-0.114356	0.002593
O6	O	1.316395	-0.114342	0.193668
O7	O	1.685814	-0.114359	0.176991
Zn8	Zn	1.501104	-0.150642	0.185330
Zn9	Zn	1.501107	0.150522	0.185324
O10	O	1.492611	-0.114345	0.368066
C11	C	1.269094	-0.000050	0.192415
C12	C	1.128147	-0.000044	0.188673
N13	N	1.501111	-0.356179	0.185334
C14	C	1.508352	-0.000064	-0.044208
C15	C	1.504620	-0.000059	-0.183652
C16	C	0.944772	-0.000581	0.045302
C17	C	1.091388	-0.000052	0.049095
C18	C	1.066451	0.130484	0.255841
C19	C	0.919909	0.130579	0.251078
C20	C	0.919417	-0.129359	0.253923
C21	C	1.066398	-0.131070	0.255208
C22	C	1.733118	-0.000068	0.178240
C23	C	1.874064	-0.000065	0.181981
C24	C	1.586684	-0.428111	0.100755
C25	C	1.586681	-0.571994	0.100740
C26	C	1.415528	-0.572000	0.269893
C27	C	1.415526	-0.428119	0.269901
C28	C	1.685501	-0.428109	0.003099
C29	C	1.685498	-0.571992	0.003084
N30	N	1.501110	0.356058	0.185310
C31	C	1.618375	-0.000068	-0.263098
C32	C	1.614861	-0.000059	-0.394120
C33	C	1.383827	-0.000036	-0.366238
C34	C	1.387343	-0.000036	-0.235218
C35	C	1.751761	-0.000087	-0.279196
C36	C	1.748247	-0.000078	-0.410218
C37	C	1.493859	-0.000054	0.414862
C38	C	1.497591	-0.000050	0.554306
H39	H	1.134020	-0.093620	-0.003756
H40	H	1.788559	0.098615	-0.455849
H41	H	1.803934	0.095564	-0.249822
H42	H	0.887886	-0.228298	0.208754
H43	H	1.288344	-0.000016	-0.408239
H44	H	0.916205	-0.094190	-0.009838
H45	H	1.798504	-0.095738	-0.451959
H46	H	1.088767	0.135343	0.358344
H47	H	1.345846	-0.630589	0.338745
H48	H	1.090588	-0.138948	0.356970
H49	H	1.345836	-0.369554	0.338761
H50	H	1.794235	-0.098786	-0.243553
H51	H	1.663827	-0.389056	-0.093441
H52	H	1.133154	0.093675	-0.004133
H53	H	1.654656	-0.616608	-0.088149
H54	H	1.783050	-0.611046	0.024637
H55	H	1.777668	-0.383486	0.033720
H56	H	0.914585	0.092503	-0.009608
H57	H	0.891717	0.228146	0.201430
H58	H	0.871903	0.136506	0.351460
H59	H	1.107377	-0.227634	0.206140
H60	H	1.109058	0.227622	0.209178
H61	H	0.872153	-0.130238	0.354739
H62	H	1.294712	-0.000009	-0.170537
