data_functionalizedCrystal
_audit_creation_method	'MofGen! by Chris Wilmer'
_symmetry_space_group_name_H-M	'P1'
_symmetry_Int_Tables_number	1
_symmetry_cell_setting	triclinic
loop_
_symmetry_equiv_pos_as_xyz
  x,y,z
_cell_length_a	23.532407
_cell_length_b	23.532407
_cell_length_c	22.610064
_cell_angle_alpha	90.000603
_cell_angle_beta	89.997161
_cell_angle_gamma	97.151322
loop_
_atom_site_label
_atom_site_type_symbol
_atom_site_fract_x
_atom_site_fract_y
_atom_site_fract_z
O1	O	0.755263	-0.069127	-0.049117
O2	O	1.255263	0.430873	0.450883
O3	O	0.589400	-0.079130	-0.049135
O4	O	1.089400	0.420870	0.450865
O5	O	0.677333	0.008803	-0.049114
O6	O	1.177333	0.508803	0.450886
O7	O	0.667330	-0.157060	-0.049137
O8	O	1.167330	0.342940	0.450863
O9	O	0.677318	0.008790	0.049255
O10	O	1.177318	0.508790	0.549255
O11	O	0.589385	-0.079143	0.049234
O12	O	1.089385	0.420857	0.549234
O13	O	0.755248	-0.069140	0.049252
O14	O	1.255248	0.430860	0.549252
Zn15	Zn	0.672314	-0.074144	0.064862
Zn16	Zn	1.172314	0.425856	0.564862
Zn17	Zn	0.672334	-0.074127	-0.064744
Zn18	Zn	1.172334	0.425873	0.435256
O19	O	0.667315	-0.157073	0.049232
O20	O	1.167315	0.342927	0.549232
C21	C	0.568176	-0.078882	0.000048
C22	C	1.068176	0.421118	0.500048
C23	C	0.504959	-0.078116	0.000041
C24	C	1.004959	0.421884	0.500041
C25	C	0.105856	-0.125350	0.000061
C26	C	0.605856	0.374650	0.500061
C27	C	0.046456	-0.124638	0.000065
C28	C	0.546456	0.375362	0.500065
O29	O	0.009711	-0.168424	0.000081
O30	O	0.509711	0.331576	0.500081
N31	N	0.023830	-0.072362	0.000071
N32	N	0.523830	0.427638	0.500071
C33	C	0.060607	-0.020794	0.000080
C34	C	0.560607	0.479206	0.500080
O35	O	0.035908	0.023737	0.000086
O36	O	0.535908	0.523737	0.500086
C37	C	0.120006	-0.021506	0.000080
C38	C	0.620006	0.478494	0.500080
C39	C	0.142629	-0.073785	0.000068
C40	C	0.642629	0.426215	0.500068
C41	C	0.128479	-0.177625	0.000050
C42	C	0.628479	0.322375	0.500050
C43	C	0.187876	-0.178336	0.000045
C44	C	0.687876	0.321664	0.500045
C45	C	0.224649	-0.126772	0.000052
C46	C	0.724649	0.373228	0.500052
C47	C	0.202025	-0.074497	0.000063
C48	C	0.702025	0.425503	0.500063
C49	C	0.156783	0.030062	0.000093
C50	C	0.656783	0.530062	0.500093
C51	C	0.216185	0.029345	0.000094
C52	C	0.716185	0.529345	0.500094
C53	C	0.238808	-0.022934	0.000082
C54	C	0.738808	0.477066	0.500082
C55	C	0.298194	-0.023643	0.000065
C56	C	0.798194	0.476357	0.500065
N57	N	0.320820	-0.075920	0.000059
N58	N	0.820820	0.424080	0.500059
C59	C	0.284048	-0.127484	0.000052
C60	C	0.784048	0.372516	0.500052
C61	C	-0.064135	-0.019302	0.000080
C62	C	0.435865	0.480698	0.500080
C63	C	-0.123533	-0.018589	0.000075
C64	C	0.376467	0.481411	0.500075
C65	C	-0.137680	-0.122434	0.000061
C66	C	0.362320	0.377566	0.500061
C67	C	-0.078281	-0.123146	0.000062
C68	C	0.421719	0.376854	0.500062
C69	C	-0.041509	-0.071578	0.000074
C70	C	0.458491	0.428422	0.500074
C71	C	0.408784	-0.128974	0.000042
C72	C	0.908784	0.371026	0.500042
C73	C	0.468186	-0.129680	0.000034
C74	C	0.968186	0.370320	0.500034
C75	C	0.482329	-0.025836	0.000051
C76	C	0.982329	0.474164	0.500051
C77	C	0.422932	-0.025129	0.000055
C78	C	0.922932	0.474871	0.500055
C79	C	0.386160	-0.076702	0.000052
C80	C	0.886160	0.423298	0.500052
O81	O	0.334974	0.020119	0.000052
O82	O	0.834974	0.520119	0.500052
O83	O	0.308755	-0.172007	0.000054
O84	O	0.808755	0.327993	0.500054
C85	C	0.677071	0.030013	0.000072
C86	C	1.177071	0.530013	0.500072
C87	C	0.676305	0.093230	0.000076
C88	C	1.176305	0.593230	0.500076
C89	C	0.776472	-0.069388	0.000069
C90	C	1.276472	0.430612	0.500069
C91	C	0.839689	-0.070154	0.000071
C92	C	1.339689	0.429846	0.500071
C93	C	0.667577	-0.178283	0.000045
C94	C	1.167577	0.321717	0.500045
C95	C	0.668343	-0.241500	0.000036
C96	C	1.168343	0.258500	0.500036
N97	N	0.672304	-0.074155	0.153314
N98	N	1.172304	0.425845	0.653314
C99	C	0.723539	0.492333	0.000049
C100	C	1.223539	0.992333	0.500049
C101	C	0.722827	0.551733	0.000044
C102	C	1.222827	1.051733	0.500044
O103	O	0.766613	0.588478	0.000027
O104	O	1.266613	1.088478	0.500027
N105	N	0.670551	0.574359	0.000039
N106	N	1.170551	1.074359	0.500039
C107	C	0.618983	0.537582	0.000032
C108	C	1.118983	1.037582	0.500032
O109	O	0.574452	0.562281	0.000027
O110	O	1.074452	1.062281	0.500027
C111	C	0.619695	0.478182	0.000033
C112	C	1.119695	0.978182	0.500033
C113	C	0.671974	0.455560	0.000044
C114	C	1.171974	0.955560	0.500044
C115	C	0.775814	0.469710	0.000060
C116	C	1.275814	0.969710	0.500060
C117	C	0.776525	0.410313	0.000065
C118	C	1.276525	0.910313	0.500065
C119	C	0.724961	0.373540	0.000060
C120	C	1.224961	0.873540	0.500060
C121	C	0.672685	0.396164	0.000050
C122	C	1.172685	0.896164	0.500050
C123	C	0.568127	0.441406	0.000022
C124	C	1.068127	0.941406	0.500022
C125	C	0.568844	0.382004	0.000021
C126	C	1.068844	0.882004	0.500021
C127	C	0.621123	0.359381	0.000033
C128	C	1.121123	0.859381	0.500033
C129	C	0.621832	0.299995	0.000050
C130	C	1.121832	0.799995	0.500050
N131	N	0.674109	0.277368	0.000056
N132	N	1.174109	0.777368	0.500056
C133	C	0.725673	0.314141	0.000061
C134	C	1.225673	0.814141	0.500061
C135	C	0.617491	0.662324	0.000031
C136	C	1.117491	1.162324	0.500031
C137	C	0.616778	0.721722	0.000034
C138	C	1.116778	1.221722	0.500034
C139	C	0.720623	0.735869	0.000045
C140	C	1.220623	1.235869	0.500045
C141	C	0.721335	0.676470	0.000046
C142	C	1.221335	1.176470	0.500046
C143	C	0.669767	0.639698	0.000036
C144	C	1.169767	1.139698	0.500036
C145	C	0.727163	0.189405	0.000073
C146	C	1.227163	0.689405	0.500073
C147	C	0.727869	0.130003	0.000081
C148	C	1.227869	0.630003	0.500081
C149	C	0.624025	0.115860	0.000067
C150	C	1.124025	0.615860	0.500067
C151	C	0.623318	0.175257	0.000062
C152	C	1.123318	0.675257	0.500062
C153	C	0.674891	0.212029	0.000063
C154	C	1.174891	0.712029	0.500063
O155	O	0.578070	0.263215	0.000065
O156	O	1.078070	0.763215	0.500065
O157	O	0.770196	0.289433	0.000058
O158	O	1.270196	0.789433	0.500058
N159	N	0.672349	-0.074111	-0.153196
N160	N	1.172349	0.425889	0.346804
C161	C	0.711273	-0.035196	0.561965
C162	C	1.211273	0.464804	1.061965
C163	C	0.711276	-0.035192	0.623884
C164	C	1.211276	0.464808	1.123884
O165	O	0.744384	-0.002076	0.655911
O166	O	1.244384	0.497924	1.155911
N167	N	0.672334	-0.074115	0.654851
N168	N	1.172334	0.425885	1.154851
C169	C	0.633383	-0.113041	0.623895
C170	C	1.133383	0.386959	1.123895
O171	O	0.600259	-0.146147	0.655920
O172	O	1.100259	0.353853	1.155920
C173	C	0.633377	-0.113042	0.561976
C174	C	1.133377	0.386958	1.061976
C175	C	0.672326	-0.074120	0.531013
C176	C	1.172326	0.425880	1.031013
C177	C	0.750218	0.003724	0.531001
C178	C	1.250218	0.503724	1.031001
C179	C	0.750215	0.003719	0.469085
C180	C	1.250215	0.503719	0.969085
C181	C	0.711268	-0.035206	0.438133
C182	C	1.211268	0.464794	0.938133
C183	C	0.672323	-0.074125	0.469097
C184	C	1.172323	0.425875	0.969097
C185	C	0.594424	-0.151965	0.531021
C186	C	1.094424	0.348035	1.031021
C187	C	0.594422	-0.151962	0.469098
C188	C	1.094422	0.348038	0.969098
C189	C	0.633370	-0.113040	0.438134
C190	C	1.133370	0.386960	0.938134
C191	C	0.633374	-0.113054	0.376229
C192	C	1.133374	0.386946	0.876229
N193	N	0.672316	-0.074131	0.345262
N194	N	1.172316	0.425869	0.845262
C195	C	0.711263	-0.035207	0.376214
C196	C	1.211263	0.464793	0.876214
C197	C	0.633396	-0.113035	0.753928
C198	C	1.133396	0.386965	1.253928
C199	C	0.633403	-0.113037	0.815846
C200	C	1.133403	0.386963	1.315846
C201	C	0.711296	-0.035187	0.815831
C202	C	1.211296	0.464813	1.315831
C203	C	0.711291	-0.035188	0.753913
C204	C	1.211291	0.464812	1.253913
C205	C	0.672338	-0.074112	0.722962
C206	C	1.172338	0.425888	1.222962
C207	C	0.711255	-0.035220	0.246187
C208	C	1.211255	0.464780	0.746187
C209	C	0.711251	-0.035230	0.184266
C210	C	1.211251	0.464770	0.684266
C211	C	0.633357	-0.113078	0.184286
C212	C	1.133357	0.386922	0.684286
C213	C	0.633363	-0.113071	0.246202
C214	C	1.133363	0.386929	0.746202
C215	C	0.672314	-0.074137	0.277151
C216	C	1.172314	0.425863	0.777151
O217	O	0.600281	-0.146152	0.344163
O218	O	1.100281	0.353848	0.844163
O219	O	0.744376	-0.002101	0.344182
O220	O	1.244376	0.497899	0.844182
H221	H	-0.141947	0.023982	0.000076
H222	H	0.358053	0.523982	0.500076
O223	O	0.777223	0.225176	0.000155
O224	O	1.277223	0.725176	0.500155
C225	C	0.779920	0.259951	0.051108
C226	C	1.279920	0.759951	0.551108
H227	H	0.734731	0.262715	0.068084
H228	H	1.234731	0.762715	0.568084
H229	H	0.801405	0.304711	0.039651
H230	H	1.301405	0.804711	0.539651
H231	H	0.805805	0.240546	0.086788
H232	H	1.305805	0.740546	0.586788
O233	O	0.595616	-0.150933	0.723892
O234	O	1.095616	0.349067	1.223892
C235	C	0.604550	-0.207261	0.739040
C236	C	1.104550	0.292739	1.239040
H237	H	0.650146	-0.207302	0.756051
H238	H	1.150146	0.292698	1.256051
H239	H	0.597831	-0.235885	0.698326
H240	H	1.097831	0.264115	1.198326
H241	H	0.572896	-0.224145	0.774991
H242	H	1.072896	0.275855	1.274991
H243	H	0.781933	0.035423	0.556197
H244	H	1.281933	0.535423	1.056197
H245	H	0.525555	0.459814	0.000009
H246	H	1.025555	0.959814	0.500009
H247	H	0.404512	0.017441	0.000056
H248	H	0.904512	0.517441	0.500056
H249	H	0.138375	0.072634	0.000103
H250	H	0.638375	0.572634	0.500103
H251	H	0.601694	-0.144737	0.841052
H252	H	1.101694	0.355263	1.341052
H253	H	0.512280	0.016146	0.000054
H254	H	1.012280	0.516146	0.500054
H255	H	0.098544	-0.219617	0.000046
H256	H	0.598544	0.280383	0.500046
O257	O	0.825870	0.505484	0.000144
O258	O	1.325870	1.005484	0.500144
C259	C	0.828568	0.540255	0.051099
C260	C	1.328568	1.040255	0.551099
H261	H	0.783379	0.543019	0.068076
H262	H	1.283379	1.043019	0.568076
H263	H	0.850053	0.585016	0.039646
H264	H	1.350053	1.085016	0.539646
H265	H	0.854452	0.520847	0.086778
H266	H	1.354452	1.020847	0.586778
H267	H	-0.059867	-0.165717	0.000055
H268	H	0.440133	0.334283	0.500055
H269	H	0.743008	-0.003492	0.841044
H270	H	1.243008	0.496508	1.341044
H271	H	-0.034198	0.022693	0.000084
H272	H	0.465802	0.522693	0.500084
O273	O	0.748976	0.002668	0.154161
O274	O	1.248976	0.502668	0.654161
C275	C	0.718619	0.037650	0.118410
C276	C	1.218619	0.537650	0.618410
H277	H	0.673958	0.014682	0.109099
H278	H	1.173958	0.514682	0.609099
H279	H	0.742439	0.046882	0.074882
H280	H	1.242439	0.546882	0.574882
H281	H	0.714912	0.079674	0.142337
H282	H	1.214912	0.579674	0.642337
O283	O	0.251824	0.079493	0.000076
O284	O	0.751824	0.579493	0.500076
C285	C	0.219114	0.125783	0.000101
C286	C	0.719114	0.625783	0.500101
H287	H	0.174698	0.111068	-0.018521
H288	H	0.674698	0.611068	0.481479
H289	H	0.241221	0.161896	-0.028454
H290	H	0.741221	0.661896	0.471546
H291	H	0.214972	0.141816	0.047297
H292	H	0.714972	0.641816	0.547297
H293	H	-0.167632	-0.164421	0.000059
H294	H	0.332368	0.335579	0.500059
O295	O	0.778707	0.108123	0.000063
O296	O	1.278707	0.608123	0.500063
C297	C	0.824064	0.153322	0.000079
C298	C	1.324064	0.653322	0.500079
H299	H	0.808335	0.193587	-0.018549
H300	H	1.308335	0.693587	0.481451
H301	H	0.860588	0.141108	-0.028475
H302	H	1.360588	0.641108	0.471525
H303	H	0.839946	0.161819	0.047273
H304	H	1.339946	0.661819	0.547273
O305	O	0.827360	0.388437	0.000045
O306	O	1.327360	0.888437	0.500045
C307	C	0.872713	0.433640	0.000062
C308	C	1.372713	0.933640	0.500062
H309	H	0.856979	0.473904	-0.018563
H310	H	1.356979	0.973904	0.481437
H311	H	0.909238	0.421433	-0.028494
H312	H	1.409238	0.921433	0.471506
H313	H	0.888595	0.442136	0.047256
H314	H	1.388595	0.942136	0.547256
O315	O	0.595602	-0.150909	0.154147
O316	O	1.095602	0.349091	0.654147
C317	C	0.625895	-0.185901	0.118337
C318	C	1.125895	0.314099	0.618337
H319	H	0.670590	-0.162998	0.109062
H320	H	1.170590	0.337002	0.609062
H321	H	0.602074	-0.195024	0.074795
H322	H	1.102074	0.304976	0.574795
H323	H	0.629516	-0.227978	0.142195
H324	H	1.129516	0.272022	0.642195
H325	H	0.762610	0.765821	0.000047
H326	H	1.262610	1.265821	0.500047
O327	O	0.490066	-0.180518	0.000050
O328	O	0.990066	0.319482	0.500050
C329	C	0.444867	-0.225875	0.000033
C330	C	0.944867	0.274125	0.500033
H331	H	0.404601	-0.210146	0.018661
H332	H	0.904601	0.289854	0.518661
H333	H	0.457079	-0.262399	0.028586
H334	H	0.957079	0.237601	0.528586
H335	H	0.436373	-0.241758	-0.047162
H336	H	0.936373	0.258242	0.452838
H337	H	0.574207	0.740136	0.000035
H338	H	1.074207	1.240136	0.500035
O339	O	0.556664	-0.189826	0.561117
O340	O	1.056664	0.310174	1.061117
C341	C	0.586951	-0.224806	0.596945
C342	C	1.086951	0.275194	1.096945
H343	H	0.631858	-0.225548	0.578288
H344	H	1.131858	0.274452	1.078288
H345	H	0.563450	-0.270189	0.597645
H346	H	1.063450	0.229811	1.097645
H347	H	0.590036	-0.206968	0.643873
H348	H	1.090036	0.293032	1.143873
H349	H	0.562700	-0.183658	0.443901
H350	H	1.062700	0.316342	0.943901
O351	O	0.772169	0.654592	0.000024
O352	O	1.272169	1.154592	0.500024
C353	C	0.817524	0.699793	0.000045
C354	C	1.317524	1.199793	0.500045
H355	H	0.801793	0.740059	-0.018577
H356	H	1.301793	1.240059	0.481423
H357	H	0.854049	0.687586	-0.028512
H358	H	1.354049	1.187586	0.471488
H359	H	0.833407	0.708284	0.047240
H360	H	1.333407	1.208284	0.547240
O361	O	0.749117	0.002520	0.276309
O362	O	1.249117	0.502520	0.776309
C363	C	0.784092	-0.027797	0.312111
C364	C	1.284092	0.472203	0.812111
H365	H	0.761155	-0.072475	0.321402
H366	H	1.261155	0.427525	0.821402
H367	H	0.793247	-0.003970	0.355646
H368	H	1.293247	0.496030	0.855646
H369	H	0.826153	-0.031460	0.288238
H370	H	1.326153	0.468540	0.788238
H371	H	0.575496	0.632386	0.000028
H372	H	1.075496	1.132386	0.500028
H373	H	0.526850	0.352066	0.000013
H374	H	1.026850	0.852066	0.500013
H375	H	0.601653	-0.144770	0.271413
H376	H	1.101653	0.355230	0.771413
H377	H	0.378851	-0.170970	0.000041
H378	H	0.878851	0.329030	0.500041
O379	O	0.572485	0.197142	0.000027
O380	O	1.072485	0.697142	0.500027
C381	C	0.527126	0.151944	0.000041
C382	C	1.027126	0.651944	0.500041
H383	H	0.542861	0.111674	-0.018569
H384	H	1.042861	0.611674	0.481431
H385	H	0.490613	0.164152	-0.028530
H386	H	0.990613	0.664152	0.471470
H387	H	0.511226	0.143460	0.047232
H388	H	1.011226	0.643460	0.547232
O389	O	0.573990	0.080053	0.000035
O390	O	1.073990	0.580053	0.500035
C391	C	0.585835	0.022777	0.000054
C392	C	1.085835	0.522777	0.500054
H393	H	0.630560	0.020751	-0.018559
H394	H	1.130560	0.520751	0.481441
H395	H	0.552956	-0.004321	-0.028512
H396	H	1.052956	0.495679	0.471488
H397	H	0.583566	0.005585	0.047247
H398	H	1.083566	0.505585	0.547247
H399	H	0.781929	0.035414	0.443878
H400	H	1.281929	0.535414	0.943878
H401	H	0.206289	-0.220908	0.000035
H402	H	0.706289	0.279092	0.500035
H403	H	0.743005	-0.003494	0.728706
H404	H	1.243005	0.496506	1.228706
