data_functionalizedCrystal
_audit_creation_method	'MofGen! by Chris Wilmer'
_symmetry_space_group_name_H-M	'P1'
_symmetry_Int_Tables_number	1
_symmetry_cell_setting	triclinic
loop_
_symmetry_equiv_pos_as_xyz
  x,y,z
_cell_length_a	12.759401
_cell_length_b	19.121063
_cell_length_c	12.759393
_cell_angle_alpha	92.404035
_cell_angle_beta	89.979062
_cell_angle_gamma	92.470439
loop_
_atom_site_label
_atom_site_type_symbol
_atom_site_fract_x
_atom_site_fract_y
_atom_site_fract_z
Zn1	Zn	1.588334	-0.279551	-0.611809
Zn2	Zn	2.088334	0.220449	-0.111809
Zn3	Zn	1.580690	-0.397017	-0.443603
Zn4	Zn	2.080690	0.102983	0.056397
Zn5	Zn	1.412630	-0.279588	-0.436146
Zn6	Zn	1.912630	0.220412	0.063854
Zn7	Zn	1.405092	-0.396968	-0.619238
Zn8	Zn	1.905092	0.103032	-0.119238
O9	O	1.496686	-0.338281	-0.527699
O10	O	1.996686	0.161719	-0.027699
O11	O	1.734340	-0.295138	-0.589508
O12	O	2.234340	0.204862	-0.089508
O13	O	1.558352	-0.381476	-0.295595
O14	O	2.058352	0.118524	0.204405
O15	O	1.442291	-0.181299	-0.453218
O16	O	1.942291	0.318701	0.046782
O17	O	1.728724	-0.381440	-0.465928
O18	O	2.228724	0.118560	0.034072
O19	O	1.571380	-0.181271	-0.582277
O20	O	2.071380	0.318729	-0.082277
O21	O	1.434879	-0.295201	-0.290117
O22	O	1.934879	0.204799	0.209883
O23	O	1.264609	-0.295154	-0.460422
O24	O	1.764609	0.204846	0.039578
O25	O	1.429444	-0.381356	-0.765271
O26	O	1.929444	0.118644	-0.265271
O27	O	1.259071	-0.381393	-0.594938
O28	O	1.759071	0.118607	-0.094938
O29	O	1.564071	-0.295090	-0.759813
O30	O	2.064071	0.204910	-0.259813
O31	O	1.551042	-0.495295	-0.473132
O32	O	2.051042	0.004705	0.026868
O33	O	1.422032	-0.495259	-0.602169
O34	O	1.922032	0.004741	-0.102169
C35	C	1.223720	-0.338272	-0.527678
C36	C	1.723720	0.161728	-0.027678
C37	C	1.106942	-0.338286	-0.527694
C38	C	1.606942	0.161714	-0.027694
C39	C	1.484918	-0.520761	-0.539289
C40	C	1.984918	-0.020761	-0.039289
C41	C	1.479980	-0.598827	-0.544282
C42	C	1.979980	-0.098827	-0.044282
C43	C	1.049220	-0.383259	-0.597636
C44	C	1.549220	0.116741	-0.097636
C45	C	0.939495	-0.383261	-0.597657
C46	C	1.439495	0.116739	-0.097657
C47	C	0.945226	-0.293316	-0.457786
C48	C	1.445226	0.206684	0.042214
C49	C	1.054948	-0.293311	-0.457771
C50	C	1.554948	0.206689	0.042229
C51	C	1.544881	-0.635498	-0.479500
C52	C	2.044881	-0.135498	0.020500
C53	C	1.540243	-0.708849	-0.484203
C54	C	2.040243	-0.208849	0.015797
C55	C	1.470697	-0.745528	-0.553682
C56	C	1.970697	-0.245528	-0.053682
C57	C	1.405794	-0.708852	-0.618471
C58	C	1.905794	-0.208852	-0.118471
C59	C	1.410438	-0.635502	-0.613773
C60	C	1.910438	-0.135502	-0.113773
C61	C	1.453316	-0.966997	-0.571229
C62	C	1.953316	-0.466997	-0.071229
C63	C	1.448675	-1.040352	-0.575920
C64	C	1.948675	-0.540352	-0.075920
C65	C	1.583126	-1.040344	-0.441653
C66	C	2.083126	-0.540344	0.058347
C67	C	1.587759	-0.966993	-0.436957
C68	C	2.087759	-0.466993	0.063043
C69	C	1.522860	-0.930323	-0.501749
C70	C	2.022860	-0.430323	-0.001749
C71	C	1.465952	-0.820504	-0.558488
C72	C	1.965952	-0.320504	-0.058488
C73	C	1.527611	-0.855348	-0.496948
C74	C	2.027611	-0.355348	0.003052
C75	C	1.770719	-0.338290	-0.527721
C76	C	2.270719	0.161710	-0.027721
C77	C	1.887495	-0.338294	-0.527731
C78	C	2.387495	0.161706	-0.027731
C79	C	1.496769	-0.338214	-0.801728
C80	C	1.996769	0.161786	-0.301728
C81	C	1.496805	-0.338185	-0.918503
C82	C	1.996805	0.161815	-0.418503
C83	C	1.508529	-0.155088	-0.516087
C84	C	2.008529	0.344912	-0.016087
C85	C	1.513576	-0.077023	-0.511139
C86	C	2.013576	0.422977	-0.011139
C87	C	1.566910	-0.293259	-0.970524
C88	C	2.066910	0.206741	-0.470524
C89	C	1.566930	-0.293229	-1.080246
C90	C	2.066930	0.206771	-0.580246
C91	C	1.426735	-0.383056	-1.085917
C92	C	1.926735	0.116944	-0.585917
C93	C	1.426711	-0.383083	-0.976196
C94	C	1.926711	0.116917	-0.476196
C95	C	1.496667	-0.338298	-0.254733
C96	C	1.996667	0.161702	0.245267
C97	C	1.496848	-0.338128	-0.137946
C98	C	1.996848	0.161872	0.362054
H99	H	1.091550	-0.419879	-0.654575
H100	H	1.591550	0.080121	-0.154575
C101	C	1.547480	-0.772930	-0.350368
C102	C	2.047480	-0.272930	0.149632
C103	C	1.604051	-0.815033	-0.420573
C104	C	2.104051	-0.315033	0.079427
H105	H	1.594669	-0.748041	-0.303212
H106	H	2.094669	-0.248041	0.196788
H107	H	1.509501	-0.740599	-0.388287
H108	H	2.009501	-0.240599	0.111713
H109	H	1.499914	-0.801600	-0.311981
H110	H	1.999914	-0.301600	0.188019
H111	H	1.651611	-0.786362	-0.458966
H112	H	2.151611	-0.286362	0.041034
H113	H	1.642047	-0.847368	-0.382651
H114	H	2.142047	-0.347368	0.117349
H115	H	0.902879	-0.256700	-0.400855
H116	H	1.402879	0.243300	0.099145
C117	C	1.184422	-0.198816	-0.437389
C118	C	1.684422	0.301184	0.062611
C119	C	1.118405	-0.243872	-0.380885
C120	C	1.618405	0.256128	0.119115
H121	H	1.223591	-0.168293	-0.389925
H122	H	1.723591	0.331707	0.110075
H123	H	1.231084	-0.225597	-0.479024
H124	H	1.731084	0.274403	0.020976
H125	H	1.143357	-0.171991	-0.481527
H126	H	1.643357	0.328009	0.018473
H127	H	1.159470	-0.270700	-0.336752
H128	H	1.659470	0.229300	0.163248
H129	H	1.071737	-0.217088	-0.339232
H130	H	1.571737	0.282912	0.160768
H131	H	1.349173	-0.738721	-0.675047
H132	H	1.849173	-0.238721	-0.175047
H133	H	1.644389	-0.937130	-0.380382
H134	H	2.144389	-0.437130	0.119618
H135	H	0.892502	-0.419882	-0.654611
H136	H	1.392502	0.080118	-0.154611
H137	H	1.601508	-0.605639	-0.422919
H138	H	2.101508	-0.105639	0.077081
H139	H	1.369670	-0.419612	-1.132904
H140	H	1.869670	0.080388	-0.632904
C141	C	1.635728	-1.152780	-0.389253
C142	C	2.135728	-0.652780	0.110747
C143	C	1.654479	-1.080653	-0.370455
C144	C	2.154479	-0.580653	0.129545
H145	H	1.679791	-1.177663	-0.345304
H146	H	2.179791	-0.677663	0.154696
H147	H	1.564394	-1.164849	-0.374572
H148	H	2.064394	-0.664849	0.125428
H149	H	1.650300	-1.164744	-0.460630
H150	H	2.150300	-0.664744	0.039370
H151	H	1.639899	-1.068688	-0.299079
H152	H	2.139899	-0.568688	0.200921
H153	H	1.725829	-1.068578	-0.385128
H154	H	2.225829	-0.568578	0.114872
H155	H	1.593091	-0.738703	-0.431450
H156	H	2.093091	-0.238703	0.068550
C157	C	1.316257	-1.032996	-0.708194
C158	C	1.816257	-0.532996	-0.208194
C159	C	1.372235	-1.080671	-0.652308
C160	C	1.872235	-0.580671	-0.152308
H161	H	1.269075	-1.057889	-0.755353
H162	H	1.769075	-0.557889	-0.255353
H163	H	1.277893	-1.004435	-0.660563
H164	H	1.777893	-0.504435	-0.160563
H165	H	1.363840	-1.004338	-0.746580
H166	H	1.863840	-0.504338	-0.246580
H167	H	1.324652	-1.109326	-0.613916
H168	H	1.824652	-0.609326	-0.113916
H169	H	1.410601	-1.109243	-0.699945
H170	H	1.910601	-0.609243	-0.199945
C171	C	1.443855	-0.884460	-0.707271
C172	C	1.943855	-0.384460	-0.207271
C173	C	1.381968	-0.926701	-0.642444
C174	C	1.881968	-0.426701	-0.142444
H175	H	1.399801	-0.859586	-0.751241
H176	H	1.899801	-0.359586	-0.251241
H177	H	1.485924	-0.852116	-0.665228
H178	H	1.985924	-0.352116	-0.165228
H179	H	1.487799	-0.913035	-0.749322
H180	H	1.987799	-0.413035	-0.249322
H181	H	1.338029	-0.898125	-0.600387
H182	H	1.838029	-0.398125	-0.100387
H183	H	1.339880	-0.959049	-0.684491
H184	H	1.839880	-0.459049	-0.184491
C185	C	1.277073	-0.642873	-0.746960
C186	C	1.777073	-0.142873	-0.246960
C187	C	1.339098	-0.595190	-0.684984
C188	C	1.839098	-0.095190	-0.184984
H189	H	1.233031	-0.617985	-0.790923
H190	H	1.733031	-0.117985	-0.290923
H191	H	1.321020	-0.671435	-0.789010
H192	H	1.821020	-0.171435	-0.289010
H193	H	1.235091	-0.671528	-0.702975
H194	H	1.735091	-0.171528	-0.202975
H195	H	1.381087	-0.566539	-0.728970
H196	H	1.881087	-0.066539	-0.228970
H197	H	1.295146	-0.566616	-0.642931
H198	H	1.795146	-0.066616	-0.142931
C199	C	1.705478	-0.204459	-0.975944
C200	C	2.205478	0.295541	-0.475944
C201	C	1.643945	-0.243901	-0.907106
C202	C	2.143945	0.256099	-0.407106
H203	H	1.753031	-0.173983	-0.936791
H204	H	2.253031	0.326017	-0.436791
H205	H	1.743696	-0.235050	-1.020681
H206	H	2.243696	0.264950	-0.520681
H207	H	1.661436	-0.177585	-1.017032
H208	H	2.161436	0.322415	-0.517032
H209	H	1.687988	-0.270779	-0.866023
H210	H	2.187988	0.229221	-0.366023
H211	H	1.605724	-0.213306	-0.862351
H212	H	2.105724	0.286694	-0.362351
H213	H	1.409326	-0.850376	-0.615056
H214	H	1.909326	-0.350376	-0.115056
H215	H	1.369615	-0.419666	-0.933840
H216	H	1.869615	0.080334	-0.433840
H217	H	1.624015	-0.256644	-1.122597
H218	H	2.124015	0.243356	-0.622597
