data_functionalizedCrystal
_audit_creation_method	'MofGen! by Chris Wilmer'
_symmetry_space_group_name_H-M	'P1'
_symmetry_Int_Tables_number	1
_symmetry_cell_setting	triclinic
loop_
_symmetry_equiv_pos_as_xyz
  x,y,z
_cell_length_a	17.019386
_cell_length_b	15.500346
_cell_length_c	8.597275
_cell_angle_alpha	85.432157
_cell_angle_beta	95.107368
_cell_angle_gamma	82.943915
loop_
_atom_site_label
_atom_site_type_symbol
_atom_site_fract_x
_atom_site_fract_y
_atom_site_fract_z
O1	O	-1.054420	0.134598	0.212201
O2	O	-0.824081	0.115685	0.235963
O3	O	-0.944567	0.142450	-0.002837
O4	O	-0.933934	0.107833	0.451000
O5	O	-0.937935	-0.000968	-0.015743
O6	O	-0.817449	-0.027733	0.223057
O7	O	-1.047788	-0.008820	0.199295
Cu8	Cu	-0.932013	-0.031371	0.209997
Cu9	Cu	-0.939856	0.138237	0.225260
O10	O	-0.927302	-0.035584	0.438094
C11	C	-0.791272	0.041868	0.228349
C12	C	-0.703390	0.035587	0.224872
C13	C	-0.665711	0.110807	0.230277
C14	C	-0.583135	0.104891	0.227033
C15	C	-0.538241	0.023755	0.218374
C16	C	-0.575925	-0.051471	0.212974
C17	C	-0.658499	-0.045555	0.216228
C18	C	-0.288740	0.001980	0.208206
C19	C	-0.206161	-0.003930	0.204947
C20	C	-0.213376	0.152432	0.219010
C21	C	-0.295952	0.158342	0.222254
C22	C	-0.333629	0.083115	0.216862
C23	C	-0.453835	0.017706	0.215054
C24	C	-0.418032	0.089164	0.220194
N25	N	-0.926503	-0.150664	0.199261
C26	C	-0.899045	-0.693860	0.145244
C27	C	-0.903207	-0.603588	0.153424
C28	C	-0.953694	-0.561929	0.252353
C29	C	-1.000027	-0.610544	0.343096
C30	C	-0.995868	-0.700813	0.334906
C31	C	-0.968677	-0.289548	0.281815
C32	C	-0.972830	-0.199273	0.290001
C33	C	-0.876011	-0.192323	0.100326
C34	C	-0.871853	-0.282595	0.092153
C35	C	-0.918190	-0.331202	0.182890
C36	C	-0.957948	-0.469657	0.260720
C37	C	-0.913939	-0.423471	0.174513
C38	C	-0.080598	0.065000	0.206900
C39	C	-0.168481	0.071290	0.210352
C40	C	-0.940479	0.075015	-0.067375
C41	C	-0.938168	0.087748	-0.240449
N42	N	-0.945373	0.257531	0.235984
C43	C	-0.931390	0.031853	0.502632
C44	C	-0.933701	0.019126	0.675707
H45	H	-0.169607	-0.070007	0.197940
C46	C	-1.019612	-0.343012	0.381702
N47	N	-1.057966	-0.383287	0.456966
H48	H	-1.041138	-0.576617	0.423638
H49	H	-0.940226	0.156236	-0.301074
C50	C	-0.858403	-0.469300	0.065699
N51	N	-0.816570	-0.503826	-0.016254
C52	C	-1.046829	-0.754284	0.434734
N53	N	-1.085216	-0.794557	0.509926
H54	H	-0.857929	-0.727773	0.064694
H55	H	-0.999054	-0.435728	0.341270
C56	C	-0.930924	-0.073406	-0.242388
N57	N	-0.928830	-0.143100	-0.180695
H58	H	-0.552460	0.166142	0.231435
C59	C	-0.345331	0.247599	0.231754
N60	N	-0.382525	0.314831	0.238893
C61	C	-0.715088	0.200063	0.239800
N62	N	-0.752276	0.267294	0.246979
C63	C	-0.171923	0.235174	0.224955
N64	N	-0.140701	0.297498	0.229440
H65	H	-0.539365	-0.117534	0.205933
C66	C	-0.330175	-0.080771	0.202256
N67	N	-0.361386	-0.143102	0.197770
C68	C	-0.699946	-0.128302	0.210278
N69	N	-0.731163	-0.190631	0.205799
C70	C	-0.467419	0.178411	0.229714
N71	N	-0.504624	0.245633	0.236875
C72	C	-0.825130	-0.138830	0.000355
N73	N	-0.786836	-0.098531	-0.075010
C74	C	-0.816309	-0.328415	-0.016666
N75	N	-0.774468	-0.362927	-0.098622
H76	H	-0.417273	-0.048355	0.207999
C77	C	-1.028374	-0.153450	0.398830
N78	N	-1.070208	-0.118935	0.480797
H79	H	-0.865485	-0.564014	0.079529
