data_functionalizedCrystal
_audit_creation_method	'MofGen! by Chris Wilmer'
_symmetry_space_group_name_H-M	'P1'
_symmetry_Int_Tables_number	1
_symmetry_cell_setting	triclinic
loop_
_symmetry_equiv_pos_as_xyz
  x,y,z
_cell_length_a	10.654550
_cell_length_b	14.044220
_cell_length_c	9.130313
_cell_angle_alpha	89.994483
_cell_angle_beta	89.999724
_cell_angle_gamma	88.836904
loop_
_atom_site_label
_atom_site_type_symbol
_atom_site_fract_x
_atom_site_fract_y
_atom_site_fract_z
O1	O	1.681228	0.133232	-0.121694
O2	O	1.317025	0.145925	-0.121721
O3	O	1.493660	0.001558	-0.121693
O4	O	1.504593	0.277599	-0.121721
O5	O	1.493646	0.001554	0.121906
O6	O	1.317011	0.145921	0.121878
O7	O	1.681214	0.133227	0.121905
Cu8	Cu	1.499112	0.139574	0.144134
Cu9	Cu	1.499128	0.139579	-0.143950
O10	O	1.504580	0.277595	0.121877
C11	C	1.270127	0.144991	0.000075
C12	C	1.130403	0.142202	0.000065
C13	C	1.059459	0.227204	0.000061
C14	C	0.928175	0.224578	0.000086
C15	C	0.938790	0.051942	0.000115
C16	C	1.070072	0.054569	0.000100
C17	C	1.488867	-0.033790	0.000106
C18	C	1.474592	-0.139110	0.000107
C19	C	1.448493	-0.331943	0.000084
C20	C	1.549741	-0.388910	0.000087
C21	C	1.535219	-0.496209	0.000074
C22	C	1.463013	-0.224634	0.000097
C23	C	1.728113	0.134162	0.000106
C24	C	1.867836	0.136950	0.000106
C25	C	1.509372	0.312943	0.000075
C26	C	1.523648	0.418262	0.000064
N27	N	1.499109	0.139570	0.346757
N28	N	1.499139	0.139575	-0.346572
C29	C	1.577355	0.075671	0.423421
C30	C	1.577367	0.075671	0.576758
C31	C	1.420885	0.203477	0.576753
C32	C	1.420867	0.203472	0.423419
H33	H	1.108577	0.298560	0.000044
H34	H	1.641063	0.023637	0.361006
O35	O	1.666193	-0.351013	-0.000144
C36	C	1.731890	-0.381541	-0.126275
H37	H	1.662017	-0.402640	-0.214477
H38	H	1.794825	-0.445495	-0.097746
C39	C	1.898845	-0.274083	-0.075115
C40	C	1.813026	-0.299989	-0.183451
H41	H	1.948899	-0.223780	-0.110382
H42	H	1.854587	-0.253517	0.009865
H43	H	1.951278	-0.327384	-0.051351
H44	H	1.760585	-0.246692	-0.207201
H45	H	1.857278	-0.320544	-0.268437
H46	H	0.889652	-0.019406	0.000152
H47	H	1.127837	-0.014653	0.000108
H48	H	0.870417	0.293795	0.000086
O49	O	1.332169	-0.370043	0.000146
C50	C	1.343386	-0.470247	0.000103
H51	H	1.438907	-0.492718	0.046215
H52	H	1.334269	-0.497831	-0.116765
C53	C	1.121602	-0.484490	0.039003
C54	C	1.238918	-0.512089	0.095649
H55	H	1.057158	-0.510302	0.097934
H56	H	1.114043	-0.416981	0.039026
H57	H	1.114021	-0.507479	-0.058386
H58	H	1.246503	-0.489091	0.193029
H59	H	1.246476	-0.579596	0.095644
H60	H	1.357184	0.255506	0.639186
H61	H	1.641080	0.023638	0.639173
H62	H	1.357144	0.255506	0.360995
