data_functionalizedCrystal
_audit_creation_method	'MofGen! by Chris Wilmer'
_symmetry_space_group_name_H-M	'P1'
_symmetry_Int_Tables_number	1
_symmetry_cell_setting	triclinic
loop_
_symmetry_equiv_pos_as_xyz
  x,y,z
_cell_length_a	10.686154
_cell_length_b	18.050589
_cell_length_c	10.686551
_cell_angle_alpha	85.586215
_cell_angle_beta	90.306020
_cell_angle_gamma	94.404422
loop_
_atom_site_label
_atom_site_type_symbol
_atom_site_fract_x
_atom_site_fract_y
_atom_site_fract_z
Zn1	Zn	-1.972236	0.181114	0.562407
Zn2	Zn	-1.955964	0.315535	0.352615
Zn3	Zn	-1.746348	0.200106	0.368712
Zn4	Zn	-1.762394	0.314025	0.578387
O5	O	-1.859236	0.252695	0.465530
O6	O	-2.145622	0.191629	0.521153
O7	O	-1.914633	0.308804	0.179203
O8	O	-1.776406	0.093656	0.394455
O9	O	-2.133667	0.290388	0.367020
O10	O	-1.942365	0.079702	0.536761
O11	O	-1.760629	0.223999	0.191029
O12	O	-1.572932	0.222534	0.409951
O13	O	-1.803756	0.287814	0.751815
O14	O	-1.584721	0.306230	0.563998
O15	O	-1.957925	0.190165	0.740075
O16	O	-1.930193	0.419266	0.382516
O17	O	-1.787978	0.418156	0.548389
C18	C	-1.533310	0.266279	0.490456
C19	C	-1.393880	0.272107	0.501149
C20	C	-1.859097	0.445657	0.465465
C21	C	-1.859156	0.528199	0.465469
C22	C	-1.884445	0.236702	0.792735
C23	C	-1.895188	0.229887	0.932170
C24	C	-1.186433	0.239052	0.440500
C25	C	-1.325864	0.233220	0.429813
C26	C	-1.936687	0.777588	0.375361
C27	C	-1.819873	0.734533	0.353320
C28	C	-1.859280	0.825312	0.465520
C29	C	-1.976022	0.721293	0.487478
C30	C	-1.859225	0.679331	0.465492
C31	C	-1.742401	0.783349	0.443424
C32	C	-1.898631	0.770108	0.577630
C33	C	-1.781741	0.727076	0.555638
C34	C	-1.859313	0.909408	0.465533
C35	C	-1.859179	0.595237	0.465480
C36	C	-1.859376	1.058980	0.465593
C37	C	-1.859347	0.976438	0.465546
C38	C	-1.834196	0.268569	0.139593
C39	C	-1.823696	0.275165	0.000140
H40	H	-1.374301	0.195470	0.360558
C41	C	-1.693182	0.697320	0.658634
H42	H	-1.739651	0.663578	0.716804
H43	H	-1.629483	0.672283	0.621546
H44	H	-1.655789	0.737749	0.701108
C45	C	-1.943679	0.791558	0.705675
H46	H	-2.026706	0.770185	0.721159
H47	H	-1.889522	0.773467	0.769861
H48	H	-1.942634	0.844261	0.704987
C49	C	-1.729920	0.334588	0.934659
H50	H	-1.686521	0.362087	0.995995
H51	H	-1.671390	0.310937	0.887724
H52	H	-1.774012	0.367416	0.879868
H53	H	-1.643614	0.810311	0.424733
C54	C	-2.109422	0.684759	0.512596
H55	H	-2.164325	0.702090	0.448473
H56	H	-2.108324	0.632162	0.513172
H57	H	-2.137925	0.697503	0.591633
H58	H	-1.345436	0.309865	0.570400
C59	C	-2.025018	0.807547	0.272322
H60	H	-1.996831	0.795549	0.192710
H61	H	-2.107703	0.785465	0.287144
H62	H	-2.024989	0.860118	0.273530
C63	C	-1.988990	0.170472	0.997654
H64	H	-2.032406	0.142985	0.936315
H65	H	-1.944931	0.137643	1.052461
H66	H	-2.047522	0.194142	1.044571
C67	C	-1.774870	0.713107	0.225234
H68	H	-1.829975	0.730406	0.161272
H69	H	-1.692450	0.735243	0.209003
H70	H	-1.774450	0.660448	0.226401
