data_functionalizedCrystal
_audit_creation_method	'MofGen! by Chris Wilmer'
_symmetry_space_group_name_H-M	'P1'
_symmetry_Int_Tables_number	1
_symmetry_cell_setting	triclinic
loop_
_symmetry_equiv_pos_as_xyz
  x,y,z
_cell_length_a	18.215407
_cell_length_b	18.215405
_cell_length_c	18.215399
_cell_angle_alpha	89.972459
_cell_angle_beta	89.982187
_cell_angle_gamma	90.017245
loop_
_atom_site_label
_atom_site_type_symbol
_atom_site_fract_x
_atom_site_fract_y
_atom_site_fract_z
Zn1	Zn	1.125083	-0.293100	-0.416078
Zn2	Zn	1.124996	-0.416171	-0.293013
Zn3	Zn	1.002015	-0.293111	-0.293030
Zn4	Zn	1.001986	-0.416117	-0.416042
O5	O	1.063520	-0.354625	-0.354541
O6	O	1.228056	-0.309443	-0.399761
O7	O	1.108658	-0.399874	-0.190031
O8	O	1.018389	-0.190125	-0.309375
O9	O	1.227992	-0.399863	-0.309346
O10	O	1.108807	-0.190117	-0.399778
O11	O	1.018305	-0.309462	-0.190043
O12	O	0.899027	-0.309410	-0.309340
O13	O	1.018339	-0.399771	-0.519031
O14	O	0.899006	-0.399782	-0.399716
O15	O	1.108778	-0.309391	-0.519058
O16	O	1.108630	-0.519148	-0.309311
O17	O	1.018255	-0.519109	-0.399700
C18	C	0.872314	-0.354592	-0.354526
C19	C	0.790515	-0.354596	-0.354538
C20	C	0.525485	-0.307634	-0.401695
C21	C	0.602344	-0.307622	-0.401693
C22	C	0.602296	-0.401639	-0.307402
C23	C	0.525439	-0.401654	-0.307409
C24	C	0.487035	-0.354647	-0.354554
C25	C	0.640751	-0.354620	-0.354545
C26	C	0.724085	-0.354608	-0.354543
C27	C	0.403696	-0.354661	-0.354558
C28	C	1.063450	-0.545831	-0.354515
C29	C	1.063487	-0.627630	-0.354529
C30	C	1.110589	-0.815758	-0.401666
C31	C	1.110616	-0.892617	-0.401680
C32	C	1.016542	-0.892739	-0.307461
C33	C	1.016512	-0.815882	-0.307452
C34	C	1.063540	-0.777393	-0.354553
C35	C	1.063596	-0.931109	-0.354576
C36	C	1.063625	-1.014443	-0.354591
C37	C	1.063511	-0.694054	-0.354540
C38	C	1.255473	-0.354658	-0.354556
C39	C	1.337272	-0.354672	-0.354562
C40	C	1.063565	-0.354574	-0.546494
C41	C	1.063584	-0.354552	-0.628293
C42	C	1.063611	-0.162672	-0.354582
C43	C	1.063650	-0.080873	-0.354600
C44	C	1.110692	-0.307447	-0.816502
C45	C	1.110701	-0.307426	-0.893361
C46	C	1.016528	-0.401544	-0.893322
C47	C	1.016516	-0.401561	-0.816464
C48	C	1.063602	-0.354514	-0.778056
C49	C	1.063623	-0.354475	-0.931772
C50	C	1.063632	-0.354452	-1.015106
C51	C	1.063592	-0.354535	-0.694717
C52	C	1.063518	-0.354622	-0.163335
C53	C	1.063641	-0.354436	-0.081536
H54	H	0.633646	-0.269339	-0.440080
H55	H	1.148881	-0.784423	-0.440019
C56	C	1.161706	-0.256231	-0.935138
C57	C	1.120061	-0.209029	-0.979247
C58	C	1.167021	-0.161847	-1.017733
H59	H	1.193779	-0.284290	-0.965181
H60	H	1.189730	-0.228173	-0.901275
H61	H	1.092050	-0.237084	-1.013106
H62	H	1.087990	-0.180954	-0.949222
H63	H	1.195045	-0.133789	-0.983870
H64	H	1.199092	-0.189912	-1.047773
H65	H	1.138772	-0.129811	-1.047661
C66	C	0.965572	-0.934661	-0.256347
C67	C	0.975683	-1.010181	-0.266421
C68	C	0.928751	-1.048820	-0.219337
H69	H	0.916083	-0.922183	-0.267020
H70	H	0.976378	-0.922127	-0.206893
H71	H	0.964872	-1.022709	-0.315864
H72	H	1.025162	-1.022680	-0.255742
H73	H	0.939557	-1.036287	-0.169884
H74	H	0.879264	-1.036337	-0.230015
H75	H	0.935609	-1.100064	-0.226162
C76	C	1.161658	-0.934177	-0.452949
C77	C	1.145597	-0.915430	-0.525744
C78	C	1.192609	-0.953692	-0.572996
H79	H	1.154988	-0.985474	-0.446313
H80	H	1.211119	-0.921539	-0.442264
H81	H	1.096148	-0.928073	-0.536425
H82	H	1.152271	-0.864139	-0.532404
H83	H	1.242070	-0.941054	-0.562311
H84	H	1.185935	-1.004987	-0.566354
H85	H	1.181723	-0.940973	-0.622393
H86	H	0.494219	-0.269357	-0.440084
H87	H	0.978195	-0.784643	-0.269087
C88	C	0.965492	-0.452597	-0.935156
C89	C	0.975594	-0.442525	-1.010694
C90	C	0.928600	-0.489552	-1.049253
H91	H	0.916018	-0.441870	-0.922645
H92	H	0.976246	-0.502064	-0.922591
H93	H	0.964835	-0.393069	-1.023254
H94	H	1.025059	-0.453258	-1.023227
H95	H	0.939354	-0.539019	-1.036687
H96	H	0.879129	-0.478820	-1.036736
H97	H	0.935453	-0.482729	-1.100509
H98	H	0.978164	-0.439887	-0.785161
C99	C	0.644126	-0.452587	-0.256240
C100	C	0.719665	-0.442497	-0.266307
C101	C	0.758220	-0.489410	-0.219180
H102	H	0.631620	-0.502080	-0.266879
H103	H	0.631553	-0.441750	-0.206798
H104	H	0.732234	-0.453340	-0.315739
H105	H	0.732193	-0.393014	-0.255663
H106	H	0.745646	-0.478573	-0.169737
H107	H	0.745707	-0.538900	-0.229823
H108	H	0.809476	-0.482566	-0.225999
C109	C	0.483821	-0.452729	-0.256143
C110	C	0.533901	-0.493874	-0.214836
C111	C	0.495589	-0.540924	-0.167600
H112	H	0.453844	-0.484898	-0.284163
H113	H	0.453844	-0.424560	-0.224090
H114	H	0.563865	-0.522042	-0.246885
H115	H	0.563879	-0.461725	-0.186801
H116	H	0.465612	-0.512755	-0.135547
H117	H	0.465614	-0.573088	-0.195626
H118	H	0.529562	-0.568842	-0.139563
C119	C	1.161835	-0.256283	-0.774934
C120	C	1.203062	-0.215045	-0.825057
C121	C	1.250174	-0.167895	-0.786794
H122	H	1.193951	-0.284361	-0.744946
H123	H	1.133708	-0.224181	-0.744972
H124	H	1.231187	-0.247143	-0.855007
H125	H	1.170965	-0.186952	-0.855046
H126	H	1.222047	-0.135794	-0.756832
H127	H	1.282285	-0.195979	-0.756808
H128	H	1.278147	-0.139905	-0.820797
