data_functionalizedCrystal
_audit_creation_method	'MofGen! by Chris Wilmer'
_symmetry_space_group_name_H-M	'P1'
_symmetry_Int_Tables_number	1
_symmetry_cell_setting	triclinic
loop_
_symmetry_equiv_pos_as_xyz
  x,y,z
_cell_length_a	19.288864
_cell_length_b	19.288864
_cell_length_c	17.766277
_cell_angle_alpha	90.029517
_cell_angle_beta	90.012907
_cell_angle_gamma	83.136242
loop_
_atom_site_label
_atom_site_type_symbol
_atom_site_fract_x
_atom_site_fract_y
_atom_site_fract_z
O1	O	0.921342	0.086651	0.062871
O2	O	0.719082	0.098340	0.062825
O3	O	0.826056	-0.008635	0.062803
O4	O	0.814368	0.193626	0.062893
O5	O	0.826059	-0.008645	-0.062386
O6	O	0.719084	0.098329	-0.062364
O7	O	0.921345	0.086641	-0.062317
Cu8	Cu	0.820215	0.092484	-0.073771
Cu9	Cu	0.820212	0.092497	0.074279
O10	O	0.814370	0.193615	-0.062295
C11	C	0.693207	0.097959	0.000224
C12	C	0.616103	0.096830	0.000203
C13	C	0.571407	0.159598	0.000243
C14	C	0.498960	0.158537	0.000251
C15	C	0.471212	0.094705	0.000234
C16	C	0.515918	0.031929	0.000190
C17	C	0.588364	0.032991	0.000175
C18	C	0.362949	0.044529	0.044096
C19	C	0.290505	0.043470	0.044116
C20	C	0.247767	0.091425	0.000278
C21	C	0.277480	0.140452	-0.043570
C22	C	0.349926	0.141515	-0.043585
C23	C	0.392658	0.093546	0.000250
C24	C	0.124514	0.153047	0.000326
C25	C	0.052066	0.151984	0.000329
C26	C	0.069026	0.025374	0.000275
C27	C	0.141473	0.026439	0.000265
C28	C	0.169212	0.090278	0.000293
C29	C	0.825682	-0.034516	0.000198
C30	C	0.824553	-0.111620	0.000167
C31	C	0.947220	0.087022	0.000286
C32	C	1.024324	0.088151	0.000311
N33	N	0.820210	0.092501	0.178409
C34	C	0.814745	0.219497	0.000311
C35	C	0.815874	0.296601	0.000347
C36	C	0.753106	0.341297	0.000317
C37	C	0.754167	0.413744	0.000301
C38	C	0.817999	0.441492	0.000298
C39	C	0.880775	0.396786	0.000332
C40	C	0.879713	0.324340	0.000357
C41	C	0.868179	0.549738	-0.043589
C42	C	0.869239	0.622182	-0.043618
C43	C	0.821279	0.664937	0.000227
C44	C	0.772247	0.635240	0.044091
C45	C	0.771184	0.562795	0.044115
C46	C	0.819158	0.520046	0.000273
C47	C	0.759657	0.788190	0.000180
C48	C	0.760720	0.860638	0.000168
C49	C	0.887330	0.843677	0.000192
C50	C	0.886265	0.771231	0.000212
C51	C	0.822426	0.743492	0.000202
N52	N	0.820222	0.092475	-0.177902
C53	C	0.867663	0.045224	0.217786
C54	C	0.867669	0.045223	0.296588
C55	C	0.820210	0.092492	0.336010
C56	C	0.772754	0.139777	0.296623
C57	C	0.772754	0.139781	0.217822
C58	C	0.756923	0.101637	0.460843
C59	C	0.756922	0.101627	0.539641
C60	C	0.820210	0.092482	0.579056
C61	C	0.883503	0.083330	0.539662
C62	C	0.883503	0.083335	0.460862
C63	C	0.820205	0.092492	0.421455
C64	C	0.867673	0.045202	0.703879
C65	C	0.867680	0.045205	0.782682
C66	C	0.772760	0.139755	0.782716
C67	C	0.772759	0.139755	0.703914
C68	C	0.820215	0.092474	0.664500
H69	H	0.374116	0.181432	-0.079290
O70	O	0.404424	-0.001989	0.086802
C71	C	0.385511	0.006911	0.163160
H72	H	0.358175	0.062013	0.172230
H73	H	0.348690	-0.032684	0.179278
C74	C	0.485092	-0.071993	0.201401
C75	C	0.451523	-0.004314	0.212543
H76	H	0.525810	-0.078920	0.231864
H77	H	0.497833	-0.077991	0.149957
H78	H	0.454401	-0.104981	0.214833
H79	H	0.482211	0.028672	0.199102
H80	H	0.438788	0.001690	0.263986
H81	H	0.937377	0.734838	0.000231
H82	H	0.709605	0.897029	0.000149
H83	H	0.906306	0.006727	0.185698
H84	H	0.939303	0.866269	0.000245
O85	O	0.489083	-0.030139	0.000144
C86	C	0.544073	-0.085314	0.000126
H87	H	0.593219	-0.066002	-0.023581
H88	H	0.554411	-0.104660	0.060176
C89	C	0.463426	-0.169261	-0.019868
C90	C	0.523787	-0.145543	-0.048991
H91	H	0.450913	-0.206415	-0.050162
H92	H	0.426378	-0.132089	-0.019853
H93	H	0.472049	-0.185377	0.030173
H94	H	0.515161	-0.129419	-0.099027
H95	H	0.560834	-0.182714	-0.049015
H96	H	0.046435	-0.026600	0.000308
H97	H	0.734114	0.178264	0.328724
H98	H	0.906312	0.006724	0.328655
O99	O	0.723657	0.533857	0.086773
C100	C	0.758805	0.487217	0.139097
H101	H	0.813638	0.468987	0.117581
H102	H	0.762354	0.514759	0.195514
C103	C	0.650987	0.446081	0.175530
C104	C	0.718332	0.423686	0.149101
H105	H	0.626021	0.406893	0.181704
H106	H	0.627307	0.477505	0.140281
H107	H	0.653954	0.469033	0.222542
H108	H	0.715365	0.400743	0.102086
H109	H	0.742012	0.392256	0.184343
H110	H	0.906317	0.006705	0.671787
H111	H	0.930828	0.287948	0.000382
H112	H	0.907240	0.514931	-0.079291
H113	H	0.266317	0.003551	0.079823
H114	H	0.935037	0.075886	0.428790
O115	O	0.598262	0.221656	0.000368
C116	C	0.575433	0.259896	0.065237
H117	H	0.525257	0.241114	0.086855
H118	H	0.617400	0.251729	0.110625
C119	C	0.623210	0.361142	0.019031
C120	C	0.561580	0.338077	0.045579
H121	H	0.614668	0.409368	0.006907
H122	H	0.638593	0.335378	-0.024671
H123	H	0.658177	0.354329	0.056859
H124	H	0.526618	0.344882	0.007748
H125	H	0.546191	0.363844	0.089275
O126	O	0.916955	0.650980	-0.086143
C127	C	0.984855	0.624156	-0.063153
H128	H	0.983210	0.604476	-0.002762
H129	H	1.005734	0.579190	-0.101708
C130	C	1.035064	0.706349	-0.141708
C131	C	1.033044	0.682184	-0.067533
H132	H	1.064790	0.742142	-0.144413
H133	H	0.989318	0.724420	-0.157200
H134	H	1.052461	0.668872	-0.173829
H135	H	1.015639	0.719659	-0.035415
H136	H	1.078788	0.664121	-0.052035
H137	H	0.935039	0.075888	0.571751
O138	O	0.695461	0.110400	0.577944
C139	C	0.690154	0.051440	0.623506
H140	H	0.724994	0.004641	0.599737
H141	H	0.707510	0.062433	0.683235
C142	C	0.571055	0.092884	0.653893
C143	C	0.613842	0.035402	0.624696
H144	H	0.523982	0.082992	0.654630
H145	H	0.574631	0.132608	0.623199
H146	H	0.585527	0.102038	0.703665
H147	H	0.599375	0.026254	0.574922
H148	H	0.610262	-0.004324	0.655381
H149	H	0.733189	0.670051	0.079789
O150	O	0.913805	-0.000788	0.820819
C151	C	0.955699	-0.042504	0.769130
H152	H	0.927231	-0.043266	0.712952
H153	H	1.007171	-0.019983	0.760773
C154	C	1.005351	-0.116526	0.868843
C155	C	0.970383	-0.117467	0.799846
H156	H	1.014412	-0.162767	0.887790
H157	H	0.977129	-0.088420	0.903668
H158	H	1.048241	-0.097756	0.861869
H159	H	0.927491	-0.136229	0.806822
H160	H	0.998599	-0.145578	0.765023
H161	H	0.015674	0.203099	0.000357
H162	H	0.734121	0.178245	0.814812
O163	O	0.184796	-0.034599	0.000268
C164	C	0.144774	-0.091168	0.000235
H165	H	0.090655	-0.073366	0.023954
H166	H	0.139654	-0.110751	-0.059831
C167	C	0.247546	-0.172421	0.020166
C168	C	0.181079	-0.150557	0.049304
H169	H	0.269942	-0.209056	0.050431
H170	H	0.274511	-0.134310	0.020185
H171	H	0.243271	-0.188735	-0.029889
H172	H	0.185356	-0.134235	0.099354
H173	H	0.154116	-0.188667	0.049294
H174	H	0.701124	0.318717	0.000316
H175	H	0.462561	0.209652	0.000282
H176	H	0.703052	0.450143	0.000275
H177	H	0.147101	0.205028	0.000338
H178	H	0.734116	0.178249	0.671851
O179	O	0.695376	0.110480	0.422676
C180	C	0.639515	0.118556	0.474340
H181	H	0.657525	0.094132	0.530507
H182	H	0.621436	0.176498	0.482739
C183	C	0.556472	0.112097	0.374574
C184	C	0.578590	0.082093	0.443557
H185	H	0.518889	0.089608	0.355585
H186	H	0.594106	0.106659	0.339766
H187	H	0.541411	0.160381	0.381583
H188	H	0.593659	0.033813	0.436546
H189	H	0.540957	0.087522	0.478363
H190	H	0.242684	0.179502	-0.079268
H191	H	0.932748	0.419382	0.000344
H192	H	0.734112	0.178280	0.185761
H193	H	0.624756	-0.018124	0.000143
O194	O	0.697586	0.761354	0.000216
C195	C	0.642411	0.816344	0.000177
H196	H	0.661728	0.865517	0.023864
H197	H	0.623055	0.826611	-0.059886
C198	C	0.558467	0.735720	0.020182
C199	C	0.582191	0.796115	0.049281
H200	H	0.521319	0.723242	0.050468
H201	H	0.595639	0.698672	0.020205
H202	H	0.542343	0.744285	-0.029870
H203	H	0.598323	0.787547	0.099328
H204	H	0.545020	0.833161	0.049267
