data_functionalizedCrystal
_audit_creation_method	'MofGen! by Chris Wilmer'
_symmetry_space_group_name_H-M	'P1'
_symmetry_Int_Tables_number	1
_symmetry_cell_setting	triclinic
loop_
_symmetry_equiv_pos_as_xyz
  x,y,z
_cell_length_a	9.798715
_cell_length_b	10.723023
_cell_length_c	10.723024
_cell_angle_alpha	95.532291
_cell_angle_beta	90.005403
_cell_angle_gamma	89.999247
loop_
_atom_site_label
_atom_site_type_symbol
_atom_site_fract_x
_atom_site_fract_y
_atom_site_fract_z
O1	O	0.113503	-1.657181	0.175027
O2	O	0.613503	-1.157181	0.675027
O3	O	0.113502	-1.294029	0.191781
O4	O	0.613502	-0.794029	0.691781
O5	O	0.113498	-1.483981	0.001828
O6	O	0.613498	-0.983981	0.501828
O7	O	0.113508	-1.467228	0.364980
O8	O	0.613508	-0.967228	0.864980
O9	O	-0.113484	-1.483981	0.001813
O10	O	0.386516	-0.983981	0.501813
O11	O	-0.113480	-1.294028	0.191767
O12	O	0.386520	-0.794028	0.691767
O13	O	-0.113479	-1.657181	0.175012
O14	O	0.386521	-1.157181	0.675012
Zn15	Zn	-0.149518	-1.475604	0.183387
Zn16	Zn	0.350482	-0.975604	0.683387
Zn17	Zn	0.149541	-1.475605	0.183406
Zn18	Zn	0.649541	-0.975605	0.683406
O19	O	-0.113474	-1.467228	0.364966
O20	O	0.386526	-0.967228	0.864966
C21	C	0.000011	-1.247529	0.190555
C22	C	0.500011	-0.747529	0.690555
C23	C	0.000011	-1.108974	0.186908
C24	C	0.500011	-0.608974	0.686908
N25	N	-0.353617	-1.475613	0.183374
N26	N	0.146383	-0.975613	0.683374
C27	C	0.117594	-1.047203	0.185289
C28	C	0.617594	-0.547203	0.685289
C29	C	0.117596	-0.904000	0.181519
C30	C	0.617596	-0.404000	0.681519
N31	N	0.353641	-1.475606	0.183410
N32	N	0.853641	-0.975606	0.683410
C33	C	0.421416	-1.555536	0.103475
C34	C	0.921416	-1.055536	0.603475
C35	C	0.578578	-1.555540	0.103455
C36	C	1.078578	-1.055540	0.603455
C37	C	0.000008	-1.482762	-0.044679
C38	C	0.500008	-0.982762	0.455321
C39	C	0.000013	-1.479114	-0.183233
C40	C	0.500013	-0.979114	0.316767
C41	C	0.000012	-0.703680	0.176239
C42	C	0.500012	-0.203680	0.676239
C43	C	0.000013	-0.842235	0.179886
C44	C	0.500013	-0.342235	0.679886
C45	C	0.000015	-1.585402	-0.258216
C46	C	0.500015	-1.085402	0.241784
C47	C	0.000020	-1.581634	-0.401420
C48	C	0.500020	-1.081634	0.098580
C49	C	0.000018	-1.468447	0.411473
C50	C	0.500018	-0.968447	0.911473
C51	C	0.000022	-1.472095	0.550027
C52	C	0.500022	-0.972095	1.050027
H53	H	0.218259	-1.100335	0.186700
H54	H	0.718259	-0.600335	0.686700
H55	H	0.411967	-1.407183	0.251835
H56	H	0.911967	-0.907183	0.751835
C57	C	0.000006	-1.712108	-0.201723
C58	C	0.500006	-1.212108	0.298277
N59	N	-0.000007	-1.807546	-0.159175
N60	N	0.499993	-1.307546	0.340825
H61	H	0.588108	-1.407173	0.251808
H62	H	1.088108	-0.907173	0.751808
C63	C	-0.135990	-1.037201	0.185010
C64	C	0.364010	-0.537201	0.685010
N65	N	-0.238429	-0.983142	0.183579
N66	N	0.261571	-0.483142	0.683579
C67	C	0.253599	-0.832238	0.179637
C68	C	0.753599	-0.332238	0.679637
N69	N	0.356040	-0.778184	0.178222
N70	N	0.856040	-0.278184	0.678222
C71	C	0.342625	-1.647981	0.011039
C72	C	0.842625	-1.147981	0.511039
N73	N	0.283281	-1.717612	-0.058589
N74	N	0.783281	-1.217612	0.441411
C75	C	0.000021	-1.349160	-0.362938
C76	C	0.500021	-0.849160	0.137062
N77	N	0.000023	-1.256566	-0.297374
N78	N	0.500023	-0.756566	0.202626
H79	H	0.000016	-1.672625	-0.465852
H80	H	0.500016	-1.172625	0.034148
H81	H	0.000022	-1.385328	-0.225055
H82	H	0.500022	-0.885328	0.274945
C83	C	0.657315	-1.647983	0.010992
C84	C	1.157315	-1.147983	0.510992
N85	N	0.716622	-1.717612	-0.058656
N86	N	1.216622	-1.217612	0.441344
H87	H	-0.100660	-0.895349	0.181272
H88	H	0.399340	-0.395349	0.681272
