data_functionalizedCrystal
_audit_creation_method	'MofGen! by Chris Wilmer'
_symmetry_space_group_name_H-M	'P1'
_symmetry_Int_Tables_number	1
_symmetry_cell_setting	triclinic
loop_
_symmetry_equiv_pos_as_xyz
  x,y,z
_cell_length_a	21.395362
_cell_length_b	19.077068
_cell_length_c	21.395355
_cell_angle_alpha	92.279051
_cell_angle_beta	89.956060
_cell_angle_gamma	92.343691
loop_
_atom_site_label
_atom_site_type_symbol
_atom_site_fract_x
_atom_site_fract_y
_atom_site_fract_z
Zn1	Zn	0.947861	-0.279990	-0.364586
Zn2	Zn	0.943561	-0.397672	-0.264012
Zn3	Zn	0.843074	-0.280023	-0.259789
Zn4	Zn	0.838842	-0.397686	-0.368717
O5	O	0.893334	-0.338843	-0.314276
O6	O	1.034969	-0.295581	-0.351283
O7	O	0.930203	-0.382073	-0.175774
O8	O	0.860546	-0.181525	-0.270194
O9	O	1.031810	-0.382041	-0.277392
O10	O	0.937532	-0.181501	-0.347188
O11	O	0.856376	-0.295637	-0.172671
O12	O	0.754834	-0.295651	-0.274200
O13	O	0.853331	-0.382066	-0.455847
O14	O	0.751725	-0.382098	-0.354229
O15	O	0.933427	-0.295595	-0.452812
O16	O	0.926098	-0.496167	-0.281398
O17	O	0.849162	-0.496177	-0.358324
C18	C	0.730545	-0.338880	-0.314205
C19	C	0.660903	-0.338913	-0.314190
C20	C	0.626585	-0.383985	-0.355803
C21	C	0.561150	-0.383968	-0.355830
C22	C	0.530036	-0.338886	-0.314233
C23	C	0.564362	-0.293804	-0.272617
C24	C	0.629796	-0.293818	-0.272595
C25	C	0.426513	-0.333216	-0.257626
C26	C	0.361081	-0.333207	-0.257647
C27	C	0.328216	-0.338840	-0.314301
C28	C	0.360792	-0.344496	-0.370937
C29	C	0.426226	-0.344510	-0.370915
C30	C	0.459084	-0.338866	-0.314253
C31	C	0.222946	-0.383896	-0.355947
C32	C	0.157511	-0.383874	-0.355976
C33	C	0.160724	-0.293714	-0.272756
C34	C	0.226158	-0.293732	-0.272734
C35	C	0.257266	-0.338827	-0.314328
C36	C	0.886721	-0.521710	-0.320781
C37	C	0.883949	-0.599942	-0.323585
C38	C	0.922735	-0.636666	-0.284884
C39	C	0.920132	-0.710173	-0.287525
C40	C	0.878739	-0.746954	-0.328864
C41	C	0.839952	-0.710224	-0.367570
C42	C	0.842559	-0.636719	-0.364931
C43	C	0.866647	-0.966795	-0.341049
C44	C	0.864041	-1.040305	-0.343683
C45	C	0.944222	-1.040249	-0.263639
C46	C	0.946823	-0.966742	-0.261002
C47	C	0.908038	-0.930019	-0.299709
N48	N	0.876076	-0.822090	-0.331564
N49	N	0.910705	-0.854884	-0.297013
C50	C	1.056759	-0.338806	-0.314348
C51	C	1.126401	-0.338790	-0.314379
C52	C	0.893387	-0.338828	-0.477699
C53	C	0.893409	-0.338822	-0.547340
C54	C	0.899990	-0.155261	-0.307759
C55	C	0.902827	-0.077030	-0.304982
C56	C	0.935113	-0.293795	-0.578474
C57	C	0.935114	-0.293765	-0.643908
C58	C	0.893416	-0.338774	-0.678207
C59	C	0.851704	-0.383805	-0.647065
C60	C	0.851700	-0.383829	-0.581632
C61	C	0.886177	-0.402150	-0.784134
C62	C	0.886184	-0.402127	-0.849566
C63	C	0.893422	-0.338700	-0.880025
C64	C	0.900666	-0.275294	-0.845043
C65	C	0.900663	-0.275318	-0.779610
C66	C	0.893414	-0.338753	-0.749158
C67	C	0.935129	-0.293636	-0.982110
C68	C	0.935125	-0.293605	-1.047545
C69	C	0.851718	-0.383651	-1.050701
C70	C	0.851719	-0.383676	-0.985267
C71	C	0.893428	-0.338670	-0.950975
C72	C	0.893320	-0.338806	-0.151487
C73	C	0.893426	-0.338614	-0.081839
H74	H	0.453266	-0.328626	-0.211488
N75	N	0.986054	-1.079865	-0.221901
H76	H	1.031271	-1.067012	-0.231227
H77	H	0.976746	-1.067097	-0.176680
N78	N	0.878377	-0.470511	-0.887294
H79	H	0.873783	-0.510695	-0.858071
H80	H	0.839810	-0.469494	-0.914380
H81	H	0.810976	-0.606818	-0.396447
N82	N	0.991474	-0.927075	-0.216420
H83	H	0.987239	-0.874937	-0.220620
H84	H	0.981288	-0.939960	-0.172122
N85	N	0.325946	-0.327109	-0.196566
H86	H	0.335818	-0.367759	-0.169906
H87	H	0.338991	-0.281499	-0.173742
H88	H	0.129570	-0.420576	-0.389866
N89	N	0.967379	-0.596994	-0.240298
H90	H	0.957218	-0.609825	-0.195979
H91	H	1.011672	-0.609741	-0.250599
H92	H	0.452747	-0.349113	-0.417029
N93	N	0.530807	-0.245185	-0.227746
H94	H	0.541754	-0.256047	-0.183348
H95	H	0.544057	-0.194933	-0.235811
N96	N	0.795303	-0.749894	-0.412153
H97	H	0.771128	-0.715473	-0.436270
H98	H	0.819711	-0.780346	-0.442273
H99	H	0.817763	-0.420347	-0.959918
N100	N	0.666819	-0.245210	-0.227707
H101	H	0.695190	-0.212645	-0.252051
H102	H	0.637145	-0.216690	-0.201368
H103	H	0.835065	-0.936900	-0.372565
H104	H	0.969075	-0.257146	-0.550557
N105	N	0.819394	-1.079979	-0.388272
H106	H	0.795220	-1.045562	-0.412394
H107	H	0.843807	-1.110431	-0.418387
N108	N	0.961964	-0.749784	-0.245784
H109	H	0.988578	-0.715329	-0.219192
H110	H	0.935389	-0.780331	-0.217855
H111	H	0.969073	-0.257094	-0.669262
H112	H	0.880115	-0.453787	-0.759340
N113	N	0.980121	-0.245100	-0.945126
H114	H	1.008119	-0.273718	-0.919032
H115	H	1.006495	-0.216585	-0.974828
H116	H	0.969085	-0.256934	-1.072893
N117	N	0.263183	-0.245129	-0.227846
H118	H	0.291552	-0.212562	-0.252190
H119	H	0.233509	-0.216610	-0.201504
H120	H	0.906559	-0.223690	-0.751130
N121	N	0.325357	-0.350576	-0.432048
H122	H	0.278962	-0.349706	-0.423471
H123	H	0.338317	-0.309924	-0.458669
H124	H	0.906561	-0.223645	-0.869841
N125	N	0.806719	-0.432340	-0.684054
H126	H	0.813048	-0.425492	-0.730230
H127	H	0.814638	-0.482613	-0.674422
N128	N	0.806741	-0.432192	-1.087690
H129	H	0.831021	-0.464793	-1.116023
H130	H	0.780330	-0.460677	-1.057995
N131	N	0.660136	-0.432621	-0.400664
H132	H	0.628462	-0.461172	-0.427031
H133	H	0.688364	-0.404027	-0.428677
N134	N	0.524120	-0.432584	-0.400711
H135	H	0.535950	-0.421737	-0.445107
H136	H	0.533669	-0.482839	-0.392633
N137	N	0.256504	-0.432528	-0.400809
H138	H	0.224832	-0.461076	-0.427180
H139	H	0.284735	-0.403933	-0.428818
N140	N	0.127175	-0.245082	-0.227894
H141	H	0.080515	-0.251911	-0.234223
H142	H	0.138163	-0.255964	-0.183513
N143	N	0.806709	-0.432386	-0.548047
H144	H	0.780288	-0.460892	-0.579701
H145	H	0.831023	-0.464967	-0.522077
