data_functionalizedCrystal
_audit_creation_method	'MofGen! by Chris Wilmer'
_symmetry_space_group_name_H-M	'P1'
_symmetry_Int_Tables_number	1
_symmetry_cell_setting	triclinic
loop_
_symmetry_equiv_pos_as_xyz
  x,y,z
_cell_length_a	23.532355
_cell_length_b	23.532407
_cell_length_c	15.500227
_cell_angle_alpha	92.805592
_cell_angle_beta	87.179784
_cell_angle_gamma	82.838088
loop_
_atom_site_label
_atom_site_type_symbol
_atom_site_fract_x
_atom_site_fract_y
_atom_site_fract_z
O1	O	0.757939	0.066339	-0.071834
O2	O	1.257939	0.566339	0.428166
O3	O	0.592072	0.076372	-0.071863
O4	O	1.092072	0.576372	0.428137
O5	O	0.680007	-0.011577	-0.071832
O6	O	1.180007	0.488423	0.428168
O7	O	0.670004	0.154287	-0.071865
O8	O	1.170004	0.654287	0.428135
O9	O	0.674671	-0.006261	0.072055
O10	O	1.174671	0.493739	0.572055
O11	O	0.586736	0.081688	0.072024
O12	O	1.086736	0.581688	0.572024
O13	O	0.752603	0.071655	0.072052
O14	O	1.252603	0.571655	0.572052
Cu15	Cu	0.669182	0.077157	0.085176
Cu16	Cu	1.169182	0.577157	0.585176
Cu17	Cu	0.675493	0.070870	-0.084987
Cu18	Cu	1.175493	0.570870	0.415013
O19	O	0.664669	0.159603	0.072021
O20	O	1.164669	0.659603	0.572021
C21	C	0.568188	0.078779	0.000077
C22	C	1.068188	0.578779	0.500077
C23	C	0.504970	0.078024	0.000067
C24	C	1.004970	0.578024	0.500067
C25	C	0.110046	0.076186	0.078536
C26	C	0.610046	0.576186	0.578536
C27	C	0.050646	0.075468	0.078540
C28	C	0.550646	0.575468	0.578540
O29	O	0.017454	0.077542	0.145243
O30	O	0.517454	0.577542	0.645243
N31	N	0.023846	0.072215	0.000108
N32	N	0.523846	0.572215	0.500108
C33	C	0.056450	0.069672	-0.078333
C34	C	0.556450	0.569672	0.421667
O35	O	0.028201	0.066839	-0.145046
O36	O	0.528201	0.566839	0.354954
C37	C	0.115849	0.070386	-0.078336
C38	C	0.615849	0.570386	0.421664
C39	C	0.142645	0.073645	0.000101
C40	C	0.642645	0.573645	0.500101
C41	C	0.136842	0.079444	0.156967
C42	C	0.636842	0.579444	0.656967
C43	C	0.196237	0.080162	0.156964
C44	C	0.696237	0.580162	0.656964
C45	C	0.228836	0.077622	0.078529
C46	C	0.728836	0.577622	0.578529
C47	C	0.202040	0.074364	0.000098
C48	C	0.702040	0.574364	0.500098
C49	C	0.148452	0.067839	-0.156776
C50	C	0.648452	0.567839	0.343224
C51	C	0.207855	0.068553	-0.156772
C52	C	0.707855	0.568553	0.343228
C53	C	0.234651	0.071812	-0.078334
C54	C	0.734651	0.571812	0.421666
C55	C	0.294035	0.072542	-0.078341
C56	C	0.794035	0.572542	0.421659
N57	N	0.320835	0.075795	0.000091
N58	N	0.820835	0.575795	0.500091
C59	C	0.288235	0.078335	0.078526
C60	C	0.788235	0.578335	0.578526
C61	C	-0.068292	0.068174	-0.078322
C62	C	0.431708	0.568174	0.421678
C63	C	-0.127690	0.067465	-0.078320
C64	C	0.372310	0.567465	0.421680
C65	C	-0.133490	0.073259	0.078553
C66	C	0.366510	0.573259	0.578553
C67	C	-0.074091	0.073973	0.078551
C68	C	0.425909	0.573973	0.578551
C69	C	-0.041492	0.071427	0.000110
C70	C	0.458508	0.571427	0.500110
C71	C	0.412970	0.079844	0.078512
C72	C	0.912970	0.579844	0.578512
C73	C	0.472371	0.080565	0.078501
C74	C	0.972371	0.580565	0.578501
C75	C	0.478165	0.074767	-0.078372
C76	C	0.978165	0.574767	0.421628
C77	C	0.418770	0.074050	-0.078361
C78	C	0.918770	0.574050	0.421639
C79	C	0.386173	0.076587	0.000088
C80	C	0.886173	0.576587	0.500088
O81	O	0.327264	0.070467	-0.145010
O82	O	0.827264	0.570467	0.354990
O83	O	0.316494	0.081161	0.145227
O84	O	0.816494	0.581161	0.645227
C85	C	0.677084	-0.030135	0.000114
C86	C	1.177084	0.469865	0.500114
C87	C	0.676318	-0.093351	0.000120
C88	C	1.176318	0.406649	0.500120
C89	C	0.723554	-0.492465	0.000081
C90	C	1.223554	0.007535	0.500081
C91	C	0.722843	-0.551865	0.000074
C92	C	1.222843	-0.051865	0.500074
O93	O	0.766631	-0.588619	0.000050
O94	O	1.266631	-0.088619	0.500050
N95	N	0.670565	-0.574482	0.000066
N96	N	1.170565	-0.074482	0.500066
C97	C	0.618996	-0.537695	0.000055
C98	C	1.118996	-0.037695	0.500055
O99	O	0.574465	-0.562387	0.000047
O100	O	1.074465	-0.062387	0.500047
C101	C	0.619708	-0.478296	0.000056
C102	C	1.119708	0.021704	0.500056
C103	C	0.671989	-0.455682	0.000073
C104	C	1.171989	0.044318	0.500073
C105	C	0.775830	-0.469850	0.000097
C106	C	1.275830	0.030150	0.500097
C107	C	0.776541	-0.410454	0.000105
C108	C	1.276541	0.089546	0.500105
C109	C	0.724976	-0.373672	0.000097
C110	C	1.224976	0.126328	0.500097
C111	C	0.672700	-0.396286	0.000081
C112	C	1.172700	0.103714	0.500081
C113	C	0.568140	-0.441510	0.000039
C114	C	1.068140	0.058490	0.500039
C115	C	0.568857	-0.382108	0.000039
C116	C	1.068857	0.117892	0.500039
C117	C	0.621137	-0.359495	0.000056
C118	C	1.121137	0.140505	0.500056
C119	C	0.621845	-0.300107	0.000082
C120	C	1.121845	0.199893	0.500082
N121	N	0.674123	-0.277491	0.000090
N122	N	1.174123	0.222509	0.500090
C123	C	0.725688	-0.314273	0.000098
C124	C	1.225688	0.185727	0.500098
C125	C	0.617505	-0.662437	0.000053
C126	C	1.117505	-0.162437	0.500053
C127	C	0.616792	-0.721835	0.000058
C128	C	1.116792	-0.221835	0.500058
C129	C	0.720639	-0.736001	0.000076
C130	C	1.220639	-0.236001	0.500076
C131	C	0.721351	-0.676602	0.000076
C132	C	1.221351	-0.176602	0.500076
C133	C	0.669782	-0.639820	0.000061
C134	C	1.169782	-0.139820	0.500061
C135	C	0.727177	-0.189536	0.000116
C136	C	1.227177	0.310464	0.500116
C137	C	0.727883	-0.130133	0.000128
C138	C	1.227883	0.369867	0.500128
C139	C	0.624037	-0.115973	0.000106
C140	C	1.124037	0.384027	0.500106
C141	C	0.623330	-0.175370	0.000099
C142	C	1.123330	0.324630	0.500099
C143	C	0.674905	-0.212151	0.000101
C144	C	1.174905	0.287849	0.500101
O145	O	0.578080	-0.263319	0.000102
O146	O	1.078080	0.236681	0.500102
O147	O	0.770212	-0.289573	0.000095
O148	O	1.270212	0.210427	0.500095
C149	C	0.776487	0.069248	0.000111
C150	C	1.276487	0.569248	0.500111
C151	C	0.839706	0.070002	0.000115
C152	C	1.339706	0.570002	0.500115
C153	C	0.667591	0.178161	0.000074
C154	C	1.167591	0.678161	0.500074
C155	C	0.668358	0.241378	0.000062
C156	C	1.168358	0.741378	0.500062
N157	N	0.664748	0.081578	0.204859
N158	N	1.164748	0.581578	0.704859
N159	N	0.679932	0.066444	-0.204670
N160	N	1.179932	0.566444	0.295330
C161	C	0.702022	0.044325	0.250149
C162	C	1.202022	0.544325	0.750149
C163	C	0.698674	0.047674	0.340721
C164	C	1.198674	0.547674	0.840721
C165	C	0.658054	0.088280	0.386001
C166	C	1.158054	0.588280	0.886001
C167	C	0.620776	0.125535	0.340705
C168	C	1.120776	0.625535	0.840705
C169	C	0.624122	0.122182	0.250135
C170	C	1.124122	0.622182	0.750135
C171	C	0.646000	0.100346	0.659464
C172	C	1.146000	0.600346	1.159464
C173	C	0.642658	0.103697	0.750040
C174	C	1.142658	0.603697	1.250040
C175	C	0.720555	0.025835	0.750050
C176	C	1.220555	0.525835	1.250050
C177	C	0.723900	0.022489	0.659478
C178	C	1.223900	0.522489	1.159478
C179	C	0.686620	0.059742	0.614190
C180	C	1.186620	0.559742	1.114190
C181	C	0.654632	0.091705	0.478580
C182	C	1.154632	0.591705	0.978580
C183	C	0.690040	0.056313	0.521613
C184	C	1.190040	0.556313	1.021613
H185	H	0.396950	0.071405	-0.142232
H186	H	0.896950	0.571405	0.357768
H187	H	0.386436	0.081915	0.142393
H188	H	0.886436	0.581915	0.642393
Br189	Br	-0.037731	0.078396	0.185005
Br190	Br	0.462269	0.578396	0.685005
H191	H	0.574220	-0.740240	0.000059
H192	H	1.074220	-0.240240	0.500059
Br193	Br	-0.177743	0.076706	0.185002
Br194	Br	0.322257	0.576706	0.685002
H195	H	0.218049	0.082813	0.220836
H196	H	0.718049	0.582813	0.720836
H197	H	0.819113	-0.392048	0.000116
H198	H	1.319113	0.107952	0.500116
Br199	Br	0.749258	-0.002886	0.402189
Br200	Br	1.249258	0.497114	0.902189
Br201	Br	0.547512	-0.612524	0.000039
Br202	Br	1.047512	-0.112524	0.500039
Br203	Br	0.587529	0.158812	0.811486
Br204	Br	1.087529	0.658812	1.311486
Br205	Br	0.790621	-0.785931	0.000083
Br206	Br	1.290621	-0.285931	0.500083
Br207	Br	0.498866	-0.332193	0.000014
Br208	Br	0.998866	0.167807	0.500014
H209	H	0.580758	-0.193781	0.000109
H210	H	1.080758	0.306219	0.500109
H211	H	0.621559	0.124768	0.515454
H212	H	1.121559	0.624768	1.015454
H213	H	0.817823	-0.499794	0.000100
H214	H	1.317823	0.000206	0.500100
H215	H	0.234395	0.066480	-0.220649
H216	H	0.734395	0.566480	0.279351
Br217	Br	-0.024057	0.064724	-0.184787
Br218	Br	0.475943	0.564724	0.315213
Br219	Br	0.779029	-0.032616	0.598025
Br220	Br	1.279029	0.467384	1.098025
Br221	Br	0.771145	-0.024721	0.811515
Br222	Br	1.271145	0.475279	1.311515
Br223	Br	0.573530	0.172739	0.188670
Br224	Br	1.073530	0.672739	0.688670
Br225	Br	0.554059	-0.066043	0.000096
Br226	Br	1.054059	0.433957	0.500096
Br227	Br	0.508732	0.084992	0.184959
Br228	Br	1.008732	0.584992	0.684959
H229	H	0.525568	-0.459912	0.000020
H230	H	1.025568	0.040088	0.500020
H231	H	0.735101	0.011262	0.213288
H232	H	1.235101	0.511262	0.713288
H233	H	0.615646	0.130680	0.622597
H234	H	1.115646	0.630680	1.122597
H235	H	0.587700	0.158595	0.377577
H236	H	1.087700	0.658595	0.877577
Br237	Br	0.792305	-0.645919	0.000101
Br238	Br	1.292305	-0.145919	0.500101
Br239	Br	0.092611	0.082895	0.263430
Br240	Br	0.592611	0.582895	0.763430
H241	H	0.504718	0.072701	-0.142231
H242	H	1.004718	0.572701	0.357769
Br243	Br	0.112102	0.063415	-0.263234
Br244	Br	0.612102	0.563415	0.236766
H245	H	0.770458	-0.111725	0.000144
H246	H	1.270458	0.388275	0.500144
Br247	Br	-0.164050	0.063055	-0.184775
Br248	Br	0.335950	0.563055	0.315225
Br249	Br	0.797172	-0.239443	0.000118
Br250	Br	1.297172	0.260557	0.500118
H251	H	0.723111	0.023250	0.484743
H252	H	1.223111	0.523250	0.984743
