data_functionalizedCrystal
_audit_creation_method	'MofGen! by Chris Wilmer'
_symmetry_space_group_name_H-M	'P1'
_symmetry_Int_Tables_number	1
_symmetry_cell_setting	triclinic
loop_
_symmetry_equiv_pos_as_xyz
  x,y,z
_cell_length_a	19.077236
_cell_length_b	19.076808
_cell_length_c	19.076919
_cell_angle_alpha	89.878360
_cell_angle_beta	89.887323
_cell_angle_gamma	94.519737
loop_
_atom_site_label
_atom_site_type_symbol
_atom_site_fract_x
_atom_site_fract_y
_atom_site_fract_z
Zn1	Zn	1.048453	-0.255469	-0.429870
Zn2	Zn	1.548453	0.244531	0.070130
Zn3	Zn	1.048749	-0.368252	-0.307652
Zn4	Zn	1.548749	0.131748	0.192348
Zn5	Zn	0.935682	-0.255100	-0.307665
Zn6	Zn	1.435682	0.244900	0.192335
Zn7	Zn	0.926207	-0.377641	-0.419997
Zn8	Zn	1.426207	0.122359	0.080003
O9	O	0.989773	-0.314115	-0.366296
O10	O	1.489773	0.185885	0.133704
O11	O	1.146971	-0.266655	-0.417783
O12	O	1.646971	0.233345	0.082217
O13	O	1.037840	-0.349158	-0.209493
O14	O	1.537840	0.150842	0.290507
O15	O	0.954483	-0.156664	-0.328013
O16	O	1.454483	0.343336	0.171987
O17	O	1.147189	-0.349516	-0.327990
O18	O	1.647189	0.150484	0.172010
O19	O	1.037335	-0.156935	-0.417796
O20	O	1.537335	0.343065	0.082204
O21	O	0.954771	-0.266026	-0.209503
O22	O	1.454771	0.233974	0.290497
O23	O	0.835946	-0.275130	-0.318440
O24	O	1.335946	0.224870	0.181560
O25	O	0.938333	-0.365518	-0.519467
O26	O	1.438333	0.134482	-0.019467
O27	O	0.828985	-0.365160	-0.400970
O28	O	1.328985	0.134840	0.099030
O29	O	1.028147	-0.275759	-0.526720
O30	O	1.528147	0.224241	-0.026720
O31	O	1.028652	-0.467982	-0.318417
O32	O	1.528652	0.032018	0.181583
O33	O	0.938621	-0.474880	-0.400957
O34	O	1.438621	0.025120	0.099043
C35	C	0.806931	-0.321124	-0.358636
C36	C	1.306931	0.178876	0.141364
C37	C	0.728709	-0.324141	-0.355375
C38	C	1.228709	0.175859	0.144625
C39	C	0.691842	-0.282491	-0.400659
C40	C	1.191842	0.217509	0.099341
C41	C	0.618344	-0.285321	-0.397589
C42	C	1.118344	0.214679	0.102411
C43	C	0.581715	-0.329806	-0.349238
C44	C	1.081715	0.170194	0.150762
C45	C	0.618588	-0.371457	-0.303949
C46	C	1.118588	0.128543	0.196051
C47	C	0.692084	-0.368623	-0.307016
C48	C	1.192084	0.131377	0.192984
C49	C	0.361918	-0.342898	-0.335042
C50	C	0.861918	0.157102	0.164958
C51	C	0.288416	-0.345731	-0.331979
C52	C	0.788416	0.154269	0.168021
C53	C	0.288178	-0.259593	-0.425619
C54	C	0.788178	0.240407	0.074381
C55	C	0.361676	-0.256766	-0.428684
C56	C	0.861676	0.243234	0.071316
C57	C	0.398542	-0.298415	-0.383393
C58	C	0.898542	0.201585	0.116607
N59	N	0.506589	-0.332702	-0.346100
N60	N	1.006589	0.167298	0.153900
N61	N	0.473667	-0.295515	-0.386528
N62	N	0.973667	0.204485	0.113472
C63	C	0.982659	-0.496966	-0.358631
C64	C	1.482659	0.003034	0.141369
C65	C	0.979679	-0.575189	-0.355377
C66	C	1.479679	-0.075189	0.144623
C67	C	1.021380	-0.612022	-0.400629
C68	C	1.521380	-0.112022	0.099371
C69	C	1.018577	-0.685521	-0.397574
C70	C	1.518577	-0.185521	0.102426
C71	C	0.974076	-0.722186	-0.349263
C72	C	1.474076	-0.222186	0.150737
C73	C	0.932370	-0.685348	-0.304009
C74	C	1.432370	-0.185348	0.195991
C75	C	0.935170	-0.611851	-0.307068
C76	C	1.435170	-0.111851	0.192932
C77	C	0.961078	-0.941990	-0.335099
C78	C	1.461078	-0.441990	0.164901
C79	C	0.958283	-1.015493	-0.332042
C80	C	1.458283	-0.515493	0.167958
C81	C	1.044489	-1.015661	-0.425608
C82	C	1.544489	-0.515661	0.074392
C83	C	1.047288	-0.942162	-0.428660
C84	C	1.547288	-0.442162	0.071340
C85	C	1.005579	-0.905331	-0.383409
C86	C	1.505579	-0.405331	0.116591
N87	N	0.971212	-0.797313	-0.346137
N88	N	1.471212	-0.297313	0.153863
N89	N	1.008441	-0.830205	-0.386539
N90	N	1.508441	-0.330205	0.113461
C91	C	1.173328	-0.307079	-0.373986
C92	C	1.673328	0.192921	0.126014
C93	C	1.251549	-0.304081	-0.377263
C94	C	1.751549	0.195919	0.122737
C95	C	0.982150	-0.321727	-0.549257
C96	C	1.482150	0.178273	-0.049257
C97	C	0.978902	-0.324971	-0.627224
C98	C	1.478902	0.175029	-0.127224
C99	C	0.996933	-0.130550	-0.374007
C100	C	1.496933	0.369450	0.125993
C101	C	0.999984	-0.052326	-0.377294
C102	C	1.499984	0.447674	0.122706
C103	C	1.024134	-0.279764	-0.667631
C104	C	1.524134	0.220236	-0.167631
C105	C	1.021074	-0.282809	-0.740889
C106	C	1.521074	0.217191	-0.240889
C107	C	0.972783	-0.331065	-0.773740
C108	C	1.472783	0.168935	-0.273740
C109	C	0.927546	-0.376274	-0.733328
C110	C	1.427546	0.123726	-0.233328
C111	C	0.930604	-0.373225	-0.660071
C112	C	1.430604	0.126775	-0.160071
C113	C	0.958621	-0.345193	-0.992429
C114	C	1.458621	0.154807	-0.492429
C115	C	0.955568	-0.348241	-1.065691
C116	C	1.455568	0.151759	-0.565691
C117	C	1.049095	-0.254774	-1.073247
C118	C	1.549095	0.245226	-0.573247
C119	C	1.052152	-0.251732	-0.999989
C120	C	1.552152	0.248268	-0.499989
C121	C	1.006912	-0.296938	-0.959583
C122	C	1.506912	0.203062	-0.459583
N123	N	0.969655	-0.334181	-0.848621
N124	N	1.469655	0.165819	-0.348621
N125	N	1.010037	-0.293819	-0.884703
N126	N	1.510037	0.206181	-0.384703
C127	C	0.997408	-0.306481	-0.184050
C128	C	1.497408	0.193519	0.315950
C129	C	1.000801	-0.303034	-0.106097
C130	C	1.500801	0.196966	0.393903
H131	H	0.722100	-0.402538	-0.270141
H132	H	1.222100	0.097462	0.229859
C133	C	0.889300	-0.571334	-0.257290
C134	C	1.389300	-0.071334	0.242710
H135	H	0.862399	-0.603695	-0.228076
H136	H	1.362399	-0.103695	0.271924
H137	H	0.858590	-0.544974	-0.284007
H138	H	1.358590	-0.044974	0.215993
H139	H	0.918613	-0.540345	-0.229069
H140	H	1.418613	-0.040345	0.270931
C141	C	1.070323	-0.571698	-0.453780
C142	C	1.570323	-0.071698	0.046220
H143	H	1.094749	-0.604164	-0.480300
H144	H	1.594749	-0.104164	0.019700
H145	H	1.103220	-0.540711	-0.429463
H146	H	1.603220	-0.040711	0.070537
H147	H	1.043184	-0.545351	-0.484385
H148	H	1.543184	-0.045351	0.015615
C149	C	0.248122	-0.394661	-0.278788
C150	C	0.748122	0.105339	0.221212
H151	H	0.199070	-0.390388	-0.283455
H152	H	0.699070	0.109612	0.216545
H153	H	0.262520	-0.381861	-0.232612
H154	H	0.762520	0.118139	0.267388
H155	H	0.257909	-0.441926	-0.287496
H156	H	0.757909	0.058074	0.212504
C157	C	0.883422	-0.725677	-0.250866
C158	C	1.383422	-0.225677	0.249134
H159	H	0.887732	-0.774724	-0.255518
H160	H	1.387732	-0.274724	0.244482
H161	H	0.836160	-0.715913	-0.259609
H162	H	1.336160	-0.215913	0.240391
H163	H	0.896188	-0.711279	-0.204677
H164	H	1.396188	-0.211279	0.295323
C165	C	0.578301	-0.420391	-0.250763
C166	C	1.078301	0.079609	0.249237
H167	H	0.610786	-0.444786	-0.224229
H168	H	1.110786	0.055214	0.275771
H169	H	0.547329	-0.453317	-0.275063
H170	H	1.047329	0.046683	0.224937
H171	H	0.551942	-0.393255	-0.220175
H172	H	1.051942	0.106745	0.279825
C173	C	1.105265	-0.198647	-0.963855
C174	C	1.605265	0.301353	-0.463855
H175	H	1.100611	-0.203309	-0.914439
H176	H	1.600611	0.296691	-0.414439
H177	H	1.096309	-0.152256	-0.977416
H178	H	1.596309	0.347744	-0.477416
H179	H	1.151649	-0.207637	-0.977411
H180	H	1.651649	0.292363	-0.477411
C181	C	1.096251	-0.901835	-0.481792
C182	C	1.596251	-0.401835	0.018208
H183	H	1.120686	-0.934299	-0.508305
H184	H	1.620686	-0.434299	-0.008305
H185	H	1.129140	-0.870859	-0.457450
H186	H	1.629140	-0.370859	0.042550
H187	H	1.069133	-0.875475	-0.512405
H188	H	1.569133	-0.375475	-0.012405
C189	C	0.247627	-0.213780	-0.475433
C190	C	0.747627	0.286220	0.024567
H191	H	0.279969	-0.186885	-0.504672
H192	H	0.779969	0.313115	-0.004672
H193	H	0.221257	-0.183065	-0.448744
H194	H	0.721257	0.316935	0.051256
H195	H	0.216647	-0.243130	-0.503630
H196	H	0.716647	0.256870	-0.003630
H197	H	1.085926	-0.217969	-1.106153
H198	H	1.585926	0.282031	-0.606153
H199	H	1.078445	-1.045657	-0.462450
H200	H	1.578445	-0.545657	0.037550
C201	C	0.577793	-0.239507	-0.447403
C202	C	1.077793	0.260493	0.052597
H203	H	0.610134	-0.212615	-0.476644
H204	H	1.110134	0.287385	0.023356
H205	H	0.551426	-0.208790	-0.420713
H206	H	1.051426	0.291210	0.079287
H207	H	0.546810	-0.268856	-0.475596
H208	H	1.046810	0.231144	0.024404
C209	C	0.902444	-0.401323	-1.101825
C210	C	1.402444	0.098677	-0.601825
H211	H	0.875935	-0.427806	-1.067270
H212	H	1.375935	0.072194	-0.567270
H213	H	0.926976	-0.432146	-1.130242
H214	H	1.426976	0.067854	-0.630242
H215	H	0.871641	-0.376759	-1.130249
H216	H	1.371641	0.123241	-0.630249
H217	H	0.391925	-0.376812	-0.298163
H218	H	0.891925	0.123188	0.201837
C219	C	1.077251	-0.226678	-0.631502
C220	C	1.577251	0.273322	-0.131502
H221	H	1.103746	-0.200186	-0.666061
H222	H	1.603746	0.299814	-0.166061
H223	H	1.108058	-0.251230	-0.603078
H224	H	1.608058	0.248770	-0.103078
H225	H	1.052712	-0.195855	-0.603086
H226	H	1.552712	0.304145	-0.103086
C227	C	1.070833	-0.233085	-0.785333
C228	C	1.570833	0.266915	-0.285333
H229	H	1.100037	-0.203915	-0.755277
H230	H	1.600037	0.296085	-0.255277
H231	H	1.043920	-0.204638	-0.814070
H232	H	1.543920	0.295362	-0.314070
H233	H	1.099253	-0.260027	-0.814065
H234	H	1.599253	0.239973	-0.314065
H235	H	0.921793	-0.382013	-0.959539
H236	H	1.421793	0.117987	-0.459539
C237	C	0.401963	-0.207826	-0.481864
C238	C	0.901963	0.292174	0.018136
H239	H	0.369480	-0.183420	-0.508390
H240	H	0.869480	0.316580	-0.008390
H241	H	0.428325	-0.234955	-0.512451
H242	H	0.928325	0.265045	-0.012451
H243	H	0.432933	-0.174899	-0.457556
H244	H	0.932933	0.325101	0.042444
H245	H	0.893763	-0.410031	-0.627173
H246	H	1.393763	0.089969	-0.127173
H247	H	1.052540	-0.715507	-0.434417
H248	H	1.552540	-0.215507	0.065583
H249	H	0.927118	-0.912008	-0.298252
H250	H	1.427118	-0.412008	0.201748
C251	C	0.732128	-0.233557	-0.453846
C252	C	1.232128	0.266443	0.046154
H253	H	0.699642	-0.209153	-0.480370
H254	H	1.199642	0.290847	0.019630
H255	H	0.758487	-0.260687	-0.484432
H256	H	1.258487	0.239313	0.015568
H257	H	0.763099	-0.200628	-0.429541
H258	H	1.263099	0.299372	0.070459
H259	H	0.922042	-1.045343	-0.292700
H260	H	1.422042	-0.545343	0.207300
H261	H	0.888224	-0.415563	-0.760080
H262	H	1.388224	0.084437	-0.260080
