data_functionalizedCrystal
_audit_creation_method	'MofGen! by Chris Wilmer'
_symmetry_space_group_name_H-M	'P1'
_symmetry_Int_Tables_number	1
_symmetry_cell_setting	triclinic
loop_
_symmetry_equiv_pos_as_xyz
  x,y,z
_cell_length_a	15.944551
_cell_length_b	15.944551
_cell_length_c	15.021413
_cell_angle_alpha	89.996935
_cell_angle_beta	89.997174
_cell_angle_gamma	96.501262
loop_
_atom_site_label
_atom_site_type_symbol
_atom_site_fract_x
_atom_site_fract_y
_atom_site_fract_z
O1	O	1.114529	-0.108321	-0.073941
O2	O	0.869979	-0.121677	-0.073964
O3	O	0.998932	0.007276	-0.073944
O4	O	0.985576	-0.237274	-0.073961
O5	O	0.998912	0.007257	0.074121
O6	O	0.869959	-0.121695	0.074101
O7	O	1.114508	-0.108339	0.074123
Zn8	Zn	0.992230	-0.115020	0.097620
Zn9	Zn	0.992257	-0.114996	-0.097461
O10	O	0.985555	-0.237292	0.074103
C11	C	0.838675	-0.121132	0.000066
C12	C	0.745429	-0.119470	0.000057
C13	C	0.530572	-0.035565	0.000081
C14	C	0.469562	-0.074518	-0.072926
C15	C	0.574703	-0.116462	0.000068
C16	C	0.469564	-0.074556	0.073054
C17	C	0.409790	-0.113551	0.000083
C18	C	0.514921	-0.155438	-0.072998
C19	C	0.514930	-0.155464	0.073047
C20	C	0.453937	-0.194476	0.000023
C21	C	0.669705	-0.118137	0.000059
C22	C	0.314789	-0.111883	0.000085
C23	C	0.998367	0.038561	0.000089
C24	C	0.996705	0.131807	0.000089
C25	C	1.145813	-0.108885	0.000092
C26	C	1.239059	-0.110547	0.000094
C27	C	0.986120	-0.268577	0.000069
C28	C	0.987782	-0.361823	0.000063
N29	N	0.992218	-0.115036	0.230758
C30	C	0.912801	0.346663	0.000069
C31	C	0.951753	0.407672	0.073077
C32	C	0.993698	0.302533	0.000082
C33	C	0.951792	0.407673	-0.072903
C34	C	0.990787	0.467445	0.000071
C35	C	1.032672	0.362313	0.073150
C36	C	1.032700	0.362308	-0.072895
C37	C	1.071711	0.423298	0.000131
C38	C	0.995372	0.207530	0.000089
C39	C	0.989119	0.562446	0.000070
N40	N	0.992276	-0.114973	-0.230598
C41	C	0.932581	-0.174636	0.470432
C42	C	1.008481	-0.190943	0.529772
C43	C	0.992239	-0.115015	0.412365
C44	C	0.916360	-0.098727	0.529766
C45	C	0.992253	-0.114997	0.587789
C46	C	1.068178	-0.131360	0.470398
C47	C	0.976006	-0.039111	0.470387
C48	C	1.051962	-0.055386	0.529701
C49	C	0.992230	-0.115028	0.311307
C50	C	0.992271	-0.114984	0.688844
H51	H	0.535052	-0.189659	0.134767
C52	C	0.481515	0.054833	0.156229
C53	C	0.442437	-0.028362	0.156376
H54	H	0.464772	0.083352	0.207668
H55	H	0.465218	0.083019	0.104395
H56	H	0.541059	0.054546	0.156539
H57	H	0.382892	-0.028076	0.156059
H58	H	0.458728	-0.056555	0.208223
C59	C	1.119145	0.012614	0.657831
C60	C	1.120143	0.012696	0.564621
H61	H	1.161235	0.054647	0.679389
H62	H	1.130231	-0.041153	0.679059
H63	H	1.065294	0.024307	0.678259
H64	H	1.173992	0.000997	0.544193
H65	H	1.109062	0.066475	0.543385
C66	C	1.079909	0.247638	0.155839
C67	C	1.078809	0.335323	0.156570
H68	H	1.108385	0.230976	0.207342
H69	H	1.108460	0.231756	0.104071
H70	H	1.023625	0.220716	0.155623
H71	H	1.135093	0.362245	0.156780
H72	H	1.050259	0.351214	0.208352
H73	H	0.845652	0.313356	0.000136
H74	H	0.449461	-0.040295	-0.134642
C75	C	0.433087	-0.327865	0.075684
C76	C	0.409166	-0.285199	-0.000034
H77	H	0.405448	-0.383874	0.075641
H78	H	0.417566	-0.299271	0.127571
H79	H	0.492470	-0.329398	0.075182
H80	H	0.349783	-0.283661	0.000471
H81	H	0.424681	-0.313801	-0.051935
C82	C	0.877881	0.064423	0.465050
C83	C	0.957423	0.047503	0.435135
H84	H	0.866401	0.117892	0.443279
H85	H	0.877239	0.064909	0.528275
H86	H	0.836055	0.021948	0.443869
H87	H	0.999250	0.089974	0.456321
H88	H	0.958071	0.047024	0.371897
H89	H	1.138919	0.456457	0.000178
C90	C	0.835977	0.475293	0.130499
C91	C	0.905555	0.434816	0.156390
H92	H	0.807457	0.492052	0.181932
H93	H	0.798557	0.437622	0.096133
H94	H	0.854735	0.523666	0.095885
H95	H	0.886796	0.386439	0.190999
H96	H	0.942981	0.472489	0.190771
C97	C	0.767352	-0.142655	0.535039
C98	C	0.829726	-0.080128	0.564964
H99	H	0.713867	-0.131173	0.556762
H100	H	0.779295	-0.196153	0.556251
H101	H	0.766584	-0.143034	0.471805
H102	H	0.830498	-0.079753	0.628198
H103	H	0.817779	-0.026616	0.543756
C104	C	1.036387	0.357763	-0.232593
C105	C	1.078862	0.335131	-0.156212
H106	H	1.064879	0.340977	-0.284033
H107	H	1.035226	0.417184	-0.233488
H108	H	0.980253	0.330462	-0.232064
H109	H	1.134994	0.362437	-0.156737
H110	H	1.080032	0.275698	-0.155317
H111	H	0.882181	-0.225096	0.444409
H112	H	0.917574	0.427758	-0.134630
H113	H	1.022224	-0.255126	0.555856
H114	H	0.534918	-0.189621	-0.134787
C115	C	0.552823	0.097245	-0.076559
C116	C	0.575552	0.055075	-0.000013
H117	H	0.580600	0.153198	-0.076621
H118	H	0.493469	0.098929	-0.077078
H119	H	0.569000	0.068212	-0.127889
H120	H	0.559370	0.084104	0.051318
H121	H	0.634919	0.053396	0.000515
C122	C	1.153996	-0.150032	0.342139
C123	C	1.154811	-0.150124	0.435351
H124	H	1.207470	-0.161643	0.320503
H125	H	1.142418	-0.096289	0.321300
H126	H	1.111554	-0.192112	0.321400
H127	H	1.197249	-0.108039	0.456090
H128	H	1.166400	-0.203875	0.456198
