data_functionalizedCrystal
_audit_creation_method	'MofGen! by Chris Wilmer'
_symmetry_space_group_name_H-M	'P1'
_symmetry_Int_Tables_number	1
_symmetry_cell_setting	triclinic
loop_
_symmetry_equiv_pos_as_xyz
  x,y,z
_cell_length_a	11.026607
_cell_length_b	10.540539
_cell_length_c	10.065875
_cell_angle_alpha	98.880198
_cell_angle_beta	79.302338
_cell_angle_gamma	96.555754
loop_
_atom_site_label
_atom_site_type_symbol
_atom_site_fract_x
_atom_site_fract_y
_atom_site_fract_z
O1	O	1.632406	0.517971	-0.113482
O2	O	1.278575	0.457324	-0.113485
O3	O	1.463562	0.304709	-0.113482
O4	O	1.447418	0.670585	-0.113485
O5	O	1.428289	0.333960	0.113506
O6	O	1.243301	0.486575	0.113503
O7	O	1.597132	0.547222	0.113506
Zn8	Zn	1.414616	0.521543	0.149544
Zn9	Zn	1.461091	0.483003	-0.149523
O10	O	1.412145	0.699836	0.113503
C11	C	1.215630	0.460761	0.000009
C12	C	1.080627	0.427408	0.000007
C13	C	1.007620	0.519500	0.000005
C14	C	0.868087	0.485031	0.000004
C15	C	1.444715	0.271766	0.000010
C16	C	1.441094	0.130024	0.000002
C17	C	1.302369	-0.083873	-0.000508
C18	C	1.305961	0.063616	0.000003
C19	C	1.485983	0.099314	0.129624
C20	C	1.481354	-0.048226	0.129734
C21	C	1.524215	-0.081406	-0.128394
C22	C	1.525726	0.065627	-0.130108
C23	C	1.660077	0.543784	0.000010
C24	C	1.795082	0.577136	0.000002
C25	C	1.430992	0.732779	0.000008
C26	C	1.434615	0.874520	0.000007
N27	N	1.382908	0.547846	0.353649
N28	N	1.492809	0.456692	-0.353628
C29	C	1.450050	0.492145	0.421429
C30	C	1.425656	0.512401	0.578596
H31	H	0.827302	0.380657	-0.000030
Cl32	Cl	1.070594	0.680633	0.000008
Cl33	Cl	1.609713	0.360236	0.556342
H34	H	0.835869	0.681507	0.000010
Cl35	Cl	1.266265	0.644619	0.443688
H36	H	1.039837	0.323041	-0.000027
H37	H	1.269230	0.083037	-0.092915
Cl38	Cl	1.242247	-0.164573	-0.144024
Cl39	Cl	1.204071	0.129184	0.143697
Cl40	Cl	1.383898	-0.088747	0.279325
Cl41	Cl	1.197944	-0.130748	0.141778
H42	H	1.577626	-0.074149	0.135615
H43	H	1.584472	0.144027	0.134445
H44	H	1.425819	0.144449	0.226084
H45	H	1.493044	0.083706	-0.225999
Cl46	Cl	1.480250	-0.164441	-0.280079
Cl47	Cl	1.679716	0.134787	-0.142202
Cl48	Cl	1.675118	-0.121487	-0.129744
Cl49	Cl	1.309009	0.609178	0.668630
Cl50	Cl	1.566410	0.395017	0.331390
