data_functionalizedCrystal
_audit_creation_method	'MofGen! by Chris Wilmer'
_symmetry_space_group_name_H-M	'P1'
_symmetry_Int_Tables_number	1
_symmetry_cell_setting	triclinic
loop_
_symmetry_equiv_pos_as_xyz
  x,y,z
_cell_length_a	25.639243
_cell_length_b	25.639240
_cell_length_c	16.120297
_cell_angle_alpha	87.125950
_cell_angle_beta	87.124435
_cell_angle_gamma	90.034783
loop_
_atom_site_label
_atom_site_type_symbol
_atom_site_fract_x
_atom_site_fract_y
_atom_site_fract_z
Zn1	Zn	0.784287	-0.223119	0.471456
Zn2	Zn	1.284287	0.276881	0.971456
Zn3	Zn	0.788645	-0.306119	0.332051
Zn4	Zn	1.288645	0.193881	0.832051
Zn5	Zn	0.701288	-0.218704	0.332053
Zn6	Zn	1.201288	0.281296	0.832053
Zn7	Zn	0.696820	-0.310528	0.471410
Zn8	Zn	1.196820	0.189472	0.971410
O9	O	0.742760	-0.264618	0.401742
O10	O	1.242760	0.235382	0.901742
O11	O	0.858030	-0.234132	0.452981
O12	O	1.358030	0.265868	0.952981
O13	O	0.780750	-0.290831	0.215388
O14	O	1.280750	0.209169	0.715388
O15	O	0.712343	-0.146125	0.350565
O16	O	1.212343	0.353875	0.850565
O17	O	0.861231	-0.295112	0.350561
O18	O	1.361231	0.204888	0.850561
O19	O	0.773323	-0.149369	0.452984
O20	O	1.273323	0.350631	0.952984
O21	O	0.716569	-0.226607	0.215390
O22	O	1.216569	0.273393	0.715390
O23	O	0.627530	-0.230882	0.350521
O24	O	1.127530	0.269118	0.850521
O25	O	0.704729	-0.302626	0.588079
O26	O	1.204729	0.197374	1.088079
O27	O	0.624248	-0.298345	0.452906
O28	O	1.124248	0.201655	0.952906
O29	O	0.768991	-0.238407	0.588112
O30	O	1.268991	0.261593	1.088112
O31	O	0.776418	-0.379869	0.350517
O32	O	1.276418	0.120131	0.850517
O33	O	0.708955	-0.383108	0.452904
O34	O	1.208955	0.116892	0.952904
C35	C	0.606918	-0.264613	0.401709
C36	C	1.106918	0.235387	0.901709
C37	C	0.548804	-0.264624	0.401715
C38	C	1.048804	0.235376	0.901715
C39	C	0.186765	-0.232921	0.455162
C40	C	0.686765	0.267079	0.955162
C41	C	0.132160	-0.232920	0.455167
C42	C	0.632160	0.267080	0.955167
O43	O	0.102500	-0.205954	0.500568
O44	O	0.602500	0.294046	1.000568
N45	N	0.106520	-0.264617	0.401765
N46	N	0.606520	0.235383	0.901765
C47	C	0.135488	-0.296312	0.348349
C48	C	0.635488	0.203688	0.848349
O49	O	0.108665	-0.323272	0.302927
O50	O	0.608665	0.176728	0.802927
C51	C	0.190091	-0.296309	0.348341
C52	C	0.690091	0.203691	0.848341
C53	C	0.215728	-0.264614	0.401751
C54	C	0.715728	0.235386	0.901751
C55	C	0.212402	-0.201228	0.508567
C56	C	0.712402	0.298772	1.008567
C57	C	0.267003	-0.201229	0.508563
C58	C	0.767003	0.298771	1.008563
C59	C	0.295966	-0.232923	0.455153
C60	C	0.795966	0.267077	0.955153
C61	C	0.270329	-0.264615	0.401747
C62	C	0.770329	0.235385	0.901747
C63	C	0.219058	-0.328000	0.294921
C64	C	0.719058	0.172000	0.794921
C65	C	0.273665	-0.327995	0.294916
C66	C	0.773665	0.172005	0.794916
C67	C	0.299302	-0.296300	0.348327
C68	C	0.799302	0.203700	0.848327
C69	C	0.353893	-0.296310	0.348333
C70	C	0.853893	0.203690	0.848333
N71	N	0.379533	-0.264614	0.401734
N72	N	0.879533	0.235386	0.901734
C73	C	0.350570	-0.232920	0.455144
C74	C	0.850570	0.267080	0.955144
C75	C	0.020816	-0.296315	0.348371
C76	C	0.520816	0.203685	0.848371
C77	C	-0.033786	-0.296321	0.348383
C78	C	0.466214	0.203679	0.848383
C79	C	-0.037110	-0.232928	0.455200
C80	C	0.462890	0.267072	0.955200
C81	C	0.017494	-0.232926	0.455191
C82	C	0.517494	0.267074	0.955191
C83	C	0.046456	-0.264618	0.401772
C84	C	0.546456	0.235382	0.901772
C85	C	0.465235	-0.232925	0.455132
C86	C	0.965235	0.267075	0.955132
C87	C	0.519841	-0.232931	0.455125
C88	C	1.019841	0.267069	0.955125
C89	C	0.523160	-0.296321	0.348306
C90	C	1.023160	0.203679	0.848306
C91	C	0.468559	-0.296317	0.348315
C92	C	0.968559	0.203683	0.848315
C93	C	0.439598	-0.264615	0.401731
C94	C	0.939598	0.235385	0.901731
O95	O	0.383588	-0.323261	0.302952
O96	O	0.883588	0.176739	0.802952
O97	O	0.377400	-0.205960	0.500551
O98	O	0.877400	0.294040	1.000551
C99	C	0.742688	-0.400460	0.401723
C100	C	1.242688	0.099540	0.901723
C101	C	0.742705	-0.458574	0.401743
C102	C	1.242705	0.041426	0.901743
C103	C	0.774507	-0.711407	0.455126
C104	C	1.274507	-0.211407	0.955126
C105	C	0.774492	-0.656803	0.455120
C106	C	1.274492	-0.156803	0.955120
O107	O	0.801472	-0.629959	0.500480
O108	O	1.301472	-0.129959	1.000480
N109	N	0.742762	-0.627848	0.401753
N110	N	1.242762	-0.127848	0.901753
C111	C	0.711049	-0.653501	0.348384
C112	C	1.211049	-0.153501	0.848384
O113	O	0.684059	-0.623860	0.302990
O114	O	1.184059	-0.123860	0.802990
C115	C	0.711067	-0.708105	0.348386
C116	C	1.211067	-0.208105	0.848386
C117	C	0.742796	-0.737056	0.401762
C118	C	1.242796	-0.237056	0.901762
C119	C	0.806233	-0.740359	0.508497
C120	C	1.306233	-0.240359	1.008497
C121	C	0.806248	-0.794959	0.508504
C122	C	1.306248	-0.294959	1.008504
C123	C	0.774537	-0.820609	0.455141
C124	C	1.274537	-0.320609	0.955141
C125	C	0.742810	-0.791657	0.401770
C126	C	1.242810	-0.291657	0.901770
C127	C	0.679358	-0.733756	0.295013
C128	C	1.179358	-0.233756	0.795013
C129	C	0.679379	-0.788364	0.295020
C130	C	1.179379	-0.288364	0.795020
C131	C	0.711108	-0.817315	0.348396
C132	C	1.211108	-0.317315	0.848396
C133	C	0.711113	-0.871907	0.348413
C134	C	1.211113	-0.371907	0.848413
N135	N	0.742844	-0.900861	0.401779
N136	N	1.242844	-0.400861	0.901779
C137	C	0.774555	-0.875212	0.455143
C138	C	1.274555	-0.375212	0.955143
C139	C	0.711013	-0.538831	0.348381
C140	C	1.211013	-0.038831	0.848381
C141	C	0.710991	-0.484228	0.348382
C142	C	1.210991	0.015772	0.848382
C143	C	0.774435	-0.487533	0.455117
C144	C	1.274435	0.012467	0.955117
C145	C	0.774453	-0.542137	0.455120
C146	C	1.274453	-0.042137	0.955120
C147	C	0.742743	-0.567785	0.401747
C148	C	1.242743	-0.067785	0.901747
C149	C	0.774583	-0.989877	0.455155
C150	C	1.274583	-0.489877	0.955155
C151	C	0.774593	-1.044483	0.455160
C152	C	1.274593	-0.544483	0.955160
C153	C	0.711152	-1.041173	0.348422
C154	C	1.211152	-0.541173	0.848422
C155	C	0.711139	-0.986572	0.348419
C156	C	1.211139	-0.486572	0.848419
C157	C	0.742859	-0.960926	0.401789
C158	C	1.242859	-0.460926	0.901789
O159	O	0.684148	-0.898786	0.303073
O160	O	1.184148	-0.398786	0.803073
O161	O	0.801546	-0.904860	0.500522
O162	O	1.301546	-0.404860	1.000522
C163	C	0.879132	-0.264623	0.401776
C164	C	1.379132	0.235377	0.901776
C165	C	0.937245	-0.264625	0.401790
C166	C	1.437245	0.235375	0.901790
C167	C	0.735876	-0.271500	0.619191
C168	C	1.235876	0.228500	1.119191
C169	C	0.732942	-0.274433	0.711854
C170	C	1.232942	0.225567	1.211854
C171	C	0.742845	-0.128246	0.401780
C172	C	1.242845	0.371754	0.901780
C173	C	0.742882	-0.070132	0.401796
C174	C	1.242882	0.429868	0.901796
C175	C	0.749647	-0.257724	0.185140
C176	C	1.249647	0.242276	0.685140
C177	C	0.752682	-0.254644	0.092477
C178	C	1.252682	0.245356	0.592477
C179	C	0.727567	-0.279777	0.881512
C180	C	1.227567	0.220223	1.381512
C181	C	0.758056	-0.249302	0.922825
C182	C	1.258056	0.250698	1.422825
C183	C	0.755065	-0.252275	1.017228
C184	C	1.255065	0.247725	1.517228
C185	C	0.730557	-0.276804	0.787100
C186	C	1.230557	0.223196	1.287100
H187	H	-0.054656	-0.322136	0.304900
H188	H	0.445344	0.177864	0.804900
N189	N	0.795611	-0.211784	0.875776
N190	N	1.295611	0.288216	1.375776
H191	H	0.775505	-0.186437	0.839635
H192	H	1.275505	0.313563	1.339635
H193	H	0.820940	-0.231959	0.839708
H194	H	1.320940	0.268041	1.339708
H195	H	0.685298	-0.963000	0.304964
H196	H	1.185298	-0.463000	0.804964
H197	H	0.546751	-0.322126	0.304822
H198	H	1.046751	0.177874	0.804822
H199	H	0.653522	-0.710191	0.251549
H200	H	1.153522	-0.210191	0.751549
N201	N	0.045142	-0.198742	0.512800
N202	N	0.545142	0.301258	1.012800
H203	H	0.068877	-0.173406	0.478991
H204	H	0.568877	0.326594	0.978991
H205	H	0.066538	-0.221288	0.551359
H206	H	0.566538	0.278712	1.051359
N207	N	0.690017	-0.317285	0.928579
N208	N	1.190017	0.182715	1.428579
H209	H	0.710128	-0.342628	0.964721
H210	H	1.210128	0.157372	1.464721
H211	H	0.670089	-0.337177	0.887813
H212	H	1.170089	0.162823	1.387813
N213	N	0.191415	-0.362179	0.237304
N214	N	0.691415	0.137821	0.737304
H215	H	0.167679	-0.387519	0.271106
H216	H	0.667679	0.112481	0.771106
H217	H	0.218089	-0.382216	0.203480
H218	H	0.718089	0.117784	0.703480
H219	H	0.540712	-0.207121	0.498622
H220	H	1.040712	0.292879	0.998622
H221	H	0.685332	-1.062067	0.304976
H222	H	1.185332	-0.562067	0.804976
H223	H	0.441662	-0.207109	0.498625
H224	H	0.941662	0.292891	0.998625
H225	H	0.287871	-0.175420	0.552055
H226	H	0.787871	0.324580	1.052055
H227	H	-0.060702	-0.207120	0.498687
H228	H	0.439298	0.292880	0.998687
N229	N	0.181168	-0.167036	0.566170
N230	N	0.681168	0.332964	1.066170
H231	H	0.205703	-0.146960	0.599993
H232	H	0.705703	0.353040	1.099993
H233	H	0.157286	-0.189571	0.604703
H234	H	0.657286	0.310429	1.104703
N235	N	0.808803	-1.075710	0.512751
N236	N	1.308803	-0.575710	1.012751
H237	H	0.828887	-1.051172	0.546558
H238	H	1.328887	-0.551172	1.046558
H239	H	0.834100	-1.097283	0.478875
H240	H	1.334100	-0.597283	0.978875
N241	N	0.052053	-0.330502	0.290755
N242	N	0.552053	0.169498	0.790755
H243	H	0.027521	-0.350579	0.256931
H244	H	0.527521	0.149421	0.756931
H245	H	0.073628	-0.355803	0.324617
H246	H	0.573628	0.144197	0.824617
N247	N	0.304903	-0.362176	0.237296
N248	N	0.804903	0.137824	0.737296
H249	H	0.280373	-0.382251	0.203465
H250	H	0.780373	0.117749	0.703465
H251	H	0.326477	-0.387479	0.271157
H252	H	0.826477	0.112521	0.771157
N253	N	0.440903	-0.330508	0.290721
N254	N	0.940903	0.169492	0.790721
H255	H	0.467539	-0.350588	0.256889
H256	H	0.967539	0.149412	0.756889
H257	H	0.419478	-0.307969	0.252197
H258	H	0.919478	0.192031	0.752197
N259	N	0.676800	-0.566488	0.290818
N260	N	1.176800	-0.066488	0.790818
H261	H	0.651489	-0.590232	0.324660
H262	H	1.151489	-0.090232	0.824660
H263	H	0.699330	-0.587876	0.252223
H264	H	1.199330	-0.087876	0.752223
H265	H	0.800413	-0.969002	0.498612
H266	H	1.300413	-0.469002	0.998612
N267	N	0.840451	-0.826183	0.566102
N268	N	1.340451	-0.326183	1.066102
H269	H	0.860529	-0.801642	0.599911
H270	H	1.360529	-0.301642	1.099911
H271	H	0.865752	-0.847759	0.532239
H272	H	1.365752	-0.347759	1.032239
N273	N	0.840439	-0.712699	0.566059
N274	N	1.340439	-0.212699	1.066059
H275	H	0.860537	-0.739333	0.599864
H276	H	1.360537	-0.239333	1.099864
H277	H	0.817909	-0.691282	0.604609
H278	H	1.317909	-0.191282	1.104609
N279	N	0.808680	-0.573353	0.512690
N280	N	1.308680	-0.073353	1.012690
H281	H	0.834010	-0.594917	0.478855
H282	H	1.334010	-0.094917	0.978855
H283	H	0.786165	-0.597215	0.551287
H284	H	1.286165	-0.097215	1.051287
N285	N	0.808639	-0.459864	0.512676
N286	N	1.308639	0.040136	1.012676
H287	H	0.803812	-0.420880	0.504569
H288	H	1.303812	0.079120	1.004569
H289	H	0.846399	-0.468964	0.499758
H290	H	1.346399	0.031036	0.999758
N291	N	0.676764	-0.453005	0.290822
N292	N	1.176764	0.046995	0.790822
H293	H	0.656679	-0.477545	0.257020
H294	H	1.156679	0.022455	0.757020
H295	H	0.699279	-0.429117	0.252268
H296	H	1.199279	0.070883	0.752268
H297	H	0.653557	-0.809243	0.251556
H298	H	1.153557	-0.309243	0.751556
