data_functionalizedCrystal
_audit_creation_method	'MofGen! by Chris Wilmer'
_symmetry_space_group_name_H-M	'P1'
_symmetry_Int_Tables_number	1
_symmetry_cell_setting	triclinic
loop_
_symmetry_equiv_pos_as_xyz
  x,y,z
_cell_length_a	16.956995
_cell_length_b	16.974813
_cell_length_c	13.448316
_cell_angle_alpha	86.338833
_cell_angle_beta	89.989933
_cell_angle_gamma	79.732302
loop_
_atom_site_label
_atom_site_type_symbol
_atom_site_fract_x
_atom_site_fract_y
_atom_site_fract_z
O1	O	1.058004	0.032775	-0.085397
O2	O	1.558004	0.532775	0.414603
O3	O	0.825816	0.060535	-0.087618
O4	O	1.325816	0.560535	0.412382
O5	O	0.948382	-0.068872	-0.077206
O6	O	1.448382	0.431128	0.422794
O7	O	0.935437	0.162182	-0.095808
O8	O	1.435437	0.662182	0.404192
O9	O	0.948367	-0.068878	0.088178
O10	O	1.448367	0.431122	0.588178
O11	O	0.825801	0.060529	0.077767
O12	O	1.325801	0.560529	0.577767
O13	O	1.057988	0.032768	0.079987
O14	O	1.557988	0.532768	0.579987
Cu15	Cu	0.941893	0.046648	0.093978
Cu16	Cu	1.441893	0.546648	0.593978
Cu17	Cu	0.941911	0.046656	-0.101608
Cu18	Cu	1.441911	0.546656	0.398392
O19	O	0.935422	0.162175	0.069576
O20	O	1.435422	0.662175	0.569576
C21	C	0.796099	0.061953	-0.005038
C22	C	1.296099	0.561953	0.494962
C23	C	0.707574	0.066179	-0.005373
C24	C	1.207574	0.566179	0.494627
C25	C	0.208239	0.097793	-0.007955
C26	C	0.708239	0.597793	0.492045
C27	C	0.291418	0.093816	-0.007634
C28	C	0.791418	0.593816	0.492366
C29	C	0.342588	0.019170	-0.001617
C30	C	0.842588	0.519170	0.498383
C31	C	0.310575	-0.051503	0.004069
C32	C	0.810575	0.448497	0.504069
C33	C	0.227397	-0.047526	0.003741
C34	C	0.727397	0.452474	0.503741
C35	C	0.592382	-0.000517	-0.000015
C36	C	1.092382	0.499483	0.499985
C37	C	0.675565	-0.004489	0.000316
C38	C	1.175565	0.495511	0.500316
C39	C	0.656403	0.140831	-0.011389
C40	C	1.156403	0.640831	0.488611
C41	C	0.573224	0.144802	-0.011711
C42	C	1.073224	0.644802	0.488289
C43	C	0.541218	0.074128	-0.006030
C44	C	1.041218	0.574128	0.493970
N45	N	0.427611	0.015103	-0.001286
N46	N	0.927611	0.515103	0.498714
N47	N	0.456196	0.078196	-0.006368
N48	N	0.956196	0.578196	0.493632
C49	C	0.947882	-0.098301	0.007853
C50	C	1.447882	0.401699	0.507853
C51	C	0.946405	-0.185982	0.014906
C52	C	1.446405	0.314018	0.514906
C53	C	0.945721	-0.227166	-0.071931
C54	C	1.445721	0.272834	0.428069
C55	C	0.944328	-0.309550	-0.065301
C56	C	1.444328	0.190450	0.434699
C57	C	0.943624	-0.350750	0.028167
C58	C	1.443624	0.149250	0.528167
C59	C	0.944306	-0.309559	0.115011
C60	C	1.444306	0.190441	0.615011
C61	C	0.945693	-0.227175	0.108379
C62	C	1.445693	0.272825	0.608379
C63	C	0.939468	-0.597140	0.057667
C64	C	1.439468	-0.097140	0.557667
C65	C	0.938083	-0.679530	0.064292
C66	C	1.438083	-0.179530	0.564292
C67	C	0.938104	-0.679516	-0.116020
C68	C	1.438104	-0.179516	0.383980
C69	C	0.939496	-0.597131	-0.122643
C70	C	1.439496	-0.097131	0.377357
C71	C	0.940173	-0.555947	-0.035800
C72	C	1.440173	-0.055947	0.464200
N73	N	0.942203	-0.434960	0.034947
N74	N	1.442203	0.065040	0.534947
N75	N	0.941589	-0.471737	-0.042581
N76	N	1.441589	0.028263	0.457419
C77	C	1.087705	0.031350	-0.002594
C78	C	1.587705	0.531350	0.497406
C79	C	1.176231	0.027124	-0.002266
C80	C	1.676231	0.527124	0.497734
C81	C	0.935922	0.191605	-0.015485
C82	C	1.435922	0.691605	0.484515
C83	C	0.937399	0.279285	-0.022545
C84	C	1.437399	0.779285	0.477455
N85	N	0.941886	0.046642	0.231543
N86	N	1.441886	0.546642	0.731543
N87	N	0.941924	0.046655	-0.239172
N88	N	1.441924	0.546655	0.260828
C89	C	0.996175	-0.010639	0.288191
C90	C	1.496175	0.489361	0.788191
C91	C	0.996180	-0.010640	0.392295
C92	C	1.496180	0.489360	0.892295
C93	C	0.941899	0.046644	0.439747
C94	C	1.441899	0.546644	0.939747
C95	C	0.887604	0.103927	0.383091
C96	C	1.387604	0.603927	0.883091
C97	C	0.887596	0.103924	0.278990
C98	C	1.387596	0.603924	0.778990
C99	C	0.887626	0.103931	0.600071
C100	C	1.387626	0.603931	1.100071
C101	C	0.887635	0.103936	0.704179
C102	C	1.387635	0.603936	1.204179
C103	C	0.996210	-0.010633	0.713376
C104	C	1.496210	0.489367	1.213376
C105	C	0.996202	-0.010636	0.609275
C106	C	1.496202	0.489364	1.109275
C107	C	0.941908	0.046649	0.552625
C108	C	1.441908	0.546649	1.052625
H109	H	0.166581	0.158577	-0.012847
H110	H	0.666581	0.658577	0.487153
Br111	Br	0.813936	0.181673	0.523193
Br112	Br	1.313936	0.681673	1.023193
H113	H	0.946298	-0.193629	-0.148042
H114	H	1.446298	0.306371	0.351958
H115	H	0.843404	0.150566	0.421733
H116	H	1.343404	0.650566	0.921733
Br117	Br	0.937186	-0.735413	-0.233872
Br118	Br	1.437186	-0.235413	0.266128
H119	H	1.040406	-0.057277	0.570639
H120	H	1.540406	0.442723	1.070639
H121	H	0.352244	-0.112282	0.008963
H122	H	0.852244	0.387718	0.508963
Br123	Br	0.813965	0.181681	0.768571
Br124	Br	1.313965	0.681681	1.268571
H125	H	0.682472	0.198369	-0.016016
H126	H	1.182472	0.698369	0.483984
H127	H	0.531566	0.205586	-0.016614
H128	H	1.031566	0.705586	0.483386
H129	H	0.943774	-0.343080	-0.136012
H130	H	1.443774	0.156920	0.363988
Br131	Br	1.069852	-0.088380	0.223803
Br132	Br	1.569852	0.411620	0.723803
Br133	Br	0.334855	0.189727	-0.015365
Br134	Br	0.834855	0.689727	0.484635
Br135	Br	0.745011	-0.105801	0.008485
Br136	Br	1.245011	0.394199	0.508485
Br137	Br	0.940371	-0.541254	0.175526
Br138	Br	1.440371	-0.041254	0.675526
H139	H	0.566333	-0.058064	0.004614
H140	H	1.066333	0.441936	0.504614
Br141	Br	0.943338	-0.365468	0.241862
Br142	Br	1.443338	0.134532	0.741862
H143	H	0.843388	0.150567	0.232867
H144	H	1.343388	0.650567	0.732867
Br145	Br	0.183956	-0.143437	0.011459
Br146	Br	0.683956	0.356563	0.511459
Br147	Br	0.940457	-0.541225	-0.249497
Br148	Br	1.440457	-0.041225	0.250503
H149	H	0.946239	-0.193641	0.179091
H150	H	1.446239	0.306359	0.679091
H151	H	0.937506	-0.713071	0.140408
H152	H	1.437506	-0.213071	0.640408
Br153	Br	1.069856	-0.088381	0.469179
Br154	Br	1.569856	0.411619	0.969179
Br155	Br	1.069897	-0.088371	0.790259
Br156	Br	1.569897	0.411629	1.290259
