data_functionalizedCrystal
_audit_creation_method	'MofGen! by Chris Wilmer'
_symmetry_space_group_name_H-M	'P1'
_symmetry_Int_Tables_number	1
_symmetry_cell_setting	triclinic
loop_
_symmetry_equiv_pos_as_xyz
  x,y,z
_cell_length_a	19.121424
_cell_length_b	19.120786
_cell_length_c	16.120256
_cell_angle_alpha	90.308049
_cell_angle_beta	95.181730
_cell_angle_gamma	95.008527
loop_
_atom_site_label
_atom_site_type_symbol
_atom_site_fract_x
_atom_site_fract_y
_atom_site_fract_z
Zn1	Zn	1.045609	-0.252347	-0.405826
Zn2	Zn	1.295609	-0.002347	-0.155826
Zn3	Zn	1.545609	0.247653	0.094174
Zn4	Zn	1.795609	0.497653	0.344174
Zn5	Zn	1.046976	-0.363543	-0.260708
Zn6	Zn	1.296976	-0.113543	-0.010708
Zn7	Zn	1.546976	0.136457	0.239292
Zn8	Zn	1.796976	0.386457	0.489292
Zn9	Zn	0.933911	-0.251419	-0.272113
Zn10	Zn	1.183911	-0.001419	-0.022113
Zn11	Zn	1.433911	0.248581	0.227887
Zn12	Zn	1.683911	0.498581	0.477887
Zn13	Zn	0.922896	-0.375005	-0.405755
Zn14	Zn	1.172896	-0.125005	-0.155755
Zn15	Zn	1.422896	0.124995	0.094245
Zn16	Zn	1.672896	0.374995	0.344245
O17	O	0.987348	-0.310579	-0.336100
O18	O	1.237348	-0.060579	-0.086100
O19	O	1.487348	0.189421	0.163900
O20	O	1.737348	0.439421	0.413900
O21	O	1.144464	-0.262688	-0.381833
O22	O	1.394464	-0.012688	-0.131833
O23	O	1.644464	0.237312	0.118167
O24	O	1.894464	0.487312	0.368167
O25	O	1.037160	-0.343485	-0.145559
O26	O	1.287160	-0.093485	0.104441
O27	O	1.537160	0.156515	0.354441
O28	O	1.787160	0.406515	0.604441
O29	O	0.952766	-0.153285	-0.294653
O30	O	1.202766	0.096715	-0.044653
O31	O	1.452766	0.346715	0.205347
O32	O	1.702766	0.596715	0.455347
O33	O	1.145468	-0.344384	-0.275215
O34	O	1.395468	-0.094384	-0.025215
O35	O	1.645468	0.155616	0.224785
O36	O	1.895468	0.405616	0.474785
O37	O	1.034829	-0.153966	-0.392892
O38	O	1.284829	0.096034	-0.142892
O39	O	1.534829	0.346034	0.107108
O40	O	1.784829	0.596034	0.357108
O41	O	0.954091	-0.261108	-0.153938
O42	O	1.204091	-0.011108	0.096062
O43	O	1.454091	0.238892	0.346062
O44	O	1.704091	0.488892	0.596062
O45	O	0.833776	-0.272222	-0.294584
O46	O	1.083776	-0.022222	-0.044584
O47	O	1.333776	0.227778	0.205416
O48	O	1.583776	0.477778	0.455416
O49	O	0.933993	-0.363919	-0.522426
O50	O	1.183993	-0.113919	-0.272426
O51	O	1.433993	0.136081	-0.022426
O52	O	1.683993	0.386081	0.227574
O53	O	0.825684	-0.363020	-0.392770
O54	O	1.075684	-0.113020	-0.142770
O55	O	1.325684	0.136980	0.107230
O56	O	1.575684	0.386980	0.357230
O57	O	1.024149	-0.273802	-0.522478
O58	O	1.274149	-0.023802	-0.272478
O59	O	1.524149	0.226198	-0.022478
O60	O	1.774149	0.476198	0.227522
O61	O	1.026479	-0.463321	-0.275146
O62	O	1.276479	-0.213321	-0.025146
O63	O	1.526479	0.036679	0.224854
O64	O	1.776479	0.286679	0.474854
O65	O	0.935318	-0.471742	-0.381711
O66	O	1.185318	-0.221742	-0.131711
O67	O	1.435318	0.028258	0.118289
O68	O	1.685318	0.278258	0.368289
C69	C	0.804145	-0.318765	-0.344907
C70	C	1.054145	-0.068765	-0.094907
C71	C	1.304145	0.181235	0.155093
C72	C	1.554145	0.431235	0.405093
C73	C	0.725768	-0.322284	-0.348694
C74	C	0.975768	-0.072284	-0.098694
C75	C	1.225768	0.177716	0.151306
C76	C	1.475768	0.427716	0.401306
C77	C	0.979870	-0.493009	-0.327200
C78	C	1.229870	-0.243009	-0.077200
C79	C	1.479870	0.006991	0.172800
C80	C	1.729870	0.256991	0.422800
C81	C	0.976734	-0.571051	-0.323417
C82	C	1.226734	-0.321051	-0.073417
C83	C	1.476734	-0.071051	0.176583
C84	C	1.726734	0.178949	0.426583
C85	C	0.282273	-0.344546	-0.372737
C86	C	0.532273	-0.094546	-0.122737
C87	C	0.782273	0.155454	0.127263
C88	C	1.032273	0.405454	0.377263
C89	C	0.355917	-0.341244	-0.369164
C90	C	0.605917	-0.091244	-0.119164
C91	C	0.855917	0.158756	0.130836
C92	C	1.105917	0.408756	0.380836
C93	C	0.396928	-0.292250	-0.316349
C94	C	0.646928	-0.042250	-0.066349
C95	C	0.896928	0.207750	0.183651
C96	C	1.146928	0.457750	0.433651
C97	C	0.364292	-0.246562	-0.267098
C98	C	0.614292	0.003438	-0.017098
C99	C	0.864292	0.253438	0.232902
C100	C	1.114292	0.503438	0.482902
C101	C	0.290649	-0.249868	-0.270668
C102	C	0.540649	0.000132	-0.020668
C103	C	0.790649	0.250132	0.229332
C104	C	1.040649	0.500132	0.479332
C105	C	0.619490	-0.279902	-0.303013
C106	C	0.869490	-0.029902	-0.053013
C107	C	1.119490	0.220098	0.196987
C108	C	1.369490	0.470098	0.446987
C109	C	0.693137	-0.276598	-0.299449
C110	C	0.943137	-0.026598	-0.049449
C111	C	1.193137	0.223402	0.200551
C112	C	1.443137	0.473402	0.450551
C113	C	0.684757	-0.371281	-0.401514
C114	C	0.934757	-0.121281	-0.151514
C115	C	1.184757	0.128719	0.098486
C116	C	1.434757	0.378719	0.348486
C117	C	0.611113	-0.374580	-0.405083
C118	C	0.861113	-0.124580	-0.155083
C119	C	1.111113	0.125420	0.094917
C120	C	1.361113	0.375420	0.344917
C121	C	0.578484	-0.328894	-0.355829
C122	C	0.828484	-0.078894	-0.105829
C123	C	1.078484	0.171106	0.144171
C124	C	1.328484	0.421106	0.394171
C125	C	0.472204	-0.288872	-0.312696
C126	C	0.722204	-0.038872	-0.062696
C127	C	0.972204	0.211128	0.187304
C128	C	1.222204	0.461128	0.437304
C129	C	0.503209	-0.332276	-0.359477
C130	C	0.753209	-0.082276	-0.109477
C131	C	1.003209	0.167724	0.140523
C132	C	1.253209	0.417724	0.390523
C133	C	1.017952	-0.608013	-0.372833
C134	C	1.267952	-0.358013	-0.122833
C135	C	1.517952	-0.108013	0.127167
C136	C	1.767952	0.141987	0.377167
C137	C	1.015002	-0.681343	-0.369280
C138	C	1.265002	-0.431343	-0.119280
C139	C	1.515002	-0.181343	0.130720
C140	C	1.765002	0.068657	0.380720
C141	C	0.970839	-0.717709	-0.316307
C142	C	1.220839	-0.467709	-0.066307
C143	C	1.470839	-0.217709	0.183693
C144	C	1.720839	0.032291	0.433693
C145	C	0.929617	-0.680741	-0.266890
C146	C	1.179617	-0.430741	-0.016890
C147	C	1.429617	-0.180741	0.233110
C148	C	1.679617	0.069259	0.483110
C149	C	0.932563	-0.607413	-0.270448
C150	C	1.182563	-0.357413	-0.020448
C151	C	1.432563	-0.107413	0.229552
C152	C	1.682563	0.142587	0.479552
C153	C	0.959804	-0.939097	-0.303008
C154	C	1.209804	-0.689097	-0.053008
C155	C	1.459804	-0.439097	0.196992
C156	C	1.709804	-0.189097	0.446992
C157	C	0.956863	-1.012430	-0.299452
C158	C	1.206863	-0.762430	-0.049452
C159	C	1.456863	-0.512430	0.200548
C160	C	1.706863	-0.262430	0.450548
C161	C	1.042248	-1.013026	-0.401844
C162	C	1.292248	-0.763026	-0.151844
C163	C	1.542248	-0.513026	0.098156
C164	C	1.792248	-0.263026	0.348156
C165	C	1.045194	-0.939697	-0.405393
C166	C	1.295194	-0.689697	-0.155393
C167	C	1.545194	-0.439697	0.094607
C168	C	1.795194	-0.189697	0.344607
C169	C	1.003969	-0.902736	-0.355979
C170	C	1.253969	-0.652736	-0.105979
C171	C	1.503969	-0.402736	0.144021
C172	C	1.753969	-0.152736	0.394021
C173	C	0.967825	-0.792663	-0.312672
C174	C	1.217825	-0.542663	-0.062672
C175	C	1.467825	-0.292663	0.187328
C176	C	1.717825	-0.042663	0.437328
C177	C	1.006980	-0.827783	-0.359619
C178	C	1.256980	-0.577783	-0.109619
C179	C	1.506980	-0.327783	0.140381
C180	C	1.756980	-0.077783	0.390381
C181	C	1.171267	-0.302361	-0.327259
C182	C	1.421267	-0.052361	-0.077259
C183	C	1.671267	0.197639	0.172741
C184	C	1.921267	0.447639	0.422741
C185	C	1.249642	-0.298859	-0.323492
C186	C	1.499642	-0.048859	-0.073492
C187	C	1.749642	0.201141	0.176508
C188	C	1.999642	0.451141	0.426508
C189	C	0.977690	-0.320242	-0.553547
C190	C	1.227690	-0.070242	-0.303547
C191	C	1.477690	0.179758	-0.053547
C192	C	1.727690	0.429758	0.196453
C193	C	0.973574	-0.324361	-0.646210
C194	C	1.223574	-0.074361	-0.396210
C195	C	1.473574	0.175639	-0.146210
C196	C	1.723574	0.425639	0.103790
C197	C	0.994874	-0.127436	-0.345053
C198	C	1.244874	0.122564	-0.095053
C199	C	1.494874	0.372564	0.154947
C200	C	1.744874	0.622564	0.404947
C201	C	0.998081	-0.049392	-0.348868
C202	C	1.248081	0.200608	-0.098868
C203	C	1.498081	0.450608	0.151132
C204	C	1.748081	0.700608	0.401132
C205	C	1.008811	-0.289085	-0.857182
C206	C	1.258811	-0.039085	-0.607182
C207	C	1.508811	0.210915	-0.357182
C208	C	1.758811	0.460915	-0.107182
C209	C	0.966037	-0.331851	-0.815863
C210	C	1.216037	-0.081851	-0.565863
C211	C	1.466037	0.168149	-0.315863
C212	C	1.716037	0.418149	-0.065863
C213	C	0.970232	-0.327682	-0.721460
C214	C	1.220232	-0.077682	-0.471460
C215	C	1.470232	0.172318	-0.221460
C216	C	1.720232	0.422318	0.028540
C217	C	1.004618	-0.293253	-0.951594
C218	C	1.254618	-0.043253	-0.701594
C219	C	1.504618	0.206747	-0.451594
C220	C	1.754618	0.456747	-0.201594
C221	C	0.997012	-0.300900	-0.119500
C222	C	1.247012	-0.050900	0.130500
C223	C	1.497012	0.199100	0.380500
C224	C	1.747012	0.449100	0.630500
C225	C	1.001272	-0.296578	-0.026841
C226	C	1.251272	-0.046578	0.223159
C227	C	1.501272	0.203422	0.473159
C228	C	1.751272	0.453422	0.723159
H229	H	0.382481	-0.378448	-0.409262
H230	H	0.632481	-0.128448	-0.159262
H231	H	0.882481	0.121552	0.090738
H232	H	1.132481	0.371552	0.340738
H233	H	1.048572	-0.711434	-0.409512
H234	H	1.298572	-0.461434	-0.159512
H235	H	1.548572	-0.211434	0.090488
H236	H	1.798572	0.038566	0.340488
H237	H	1.042935	-0.798173	-0.402753
H238	H	1.292935	-0.548173	-0.152753
H239	H	1.542935	-0.298173	0.097247
H240	H	1.792935	-0.048173	0.347247
H241	H	0.920896	-1.042037	-0.256315
H242	H	1.170896	-0.792037	-0.006315
H243	H	1.420896	-0.542037	0.243685
H244	H	1.670896	-0.292037	0.493685
H245	H	0.248886	-0.384438	-0.415750
H246	H	0.498886	-0.134438	-0.165750
H247	H	0.748886	0.115562	0.084250
H248	H	0.998886	0.365562	0.334250
O249	O	1.061493	-0.236446	-0.810128
O250	O	1.311493	0.013554	-0.560128
O251	O	1.561493	0.263554	-0.310128
O252	O	1.811493	0.513554	-0.060128
H253	H	1.092183	-0.205756	-0.854956
H254	H	1.342183	0.044244	-0.604956
H255	H	1.592183	0.294244	-0.354956
H256	H	1.842183	0.544244	-0.104956
O257	O	0.913353	-0.384499	-0.862913
O258	O	1.163353	-0.134499	-0.612913
O259	O	1.413353	0.115501	-0.362913
O260	O	1.663353	0.365501	-0.112913
H261	H	0.923907	-0.438345	-0.842994
H262	H	1.173907	-0.188345	-0.592994
H263	H	1.423907	0.061655	-0.342994
H264	H	1.673907	0.311655	-0.092994
H265	H	1.075810	-1.043128	-0.442075
H266	H	1.325810	-0.793128	-0.192075
H267	H	1.575810	-0.543128	0.057925
H268	H	1.825810	-0.293128	0.307925
H269	H	0.931869	-0.822280	-0.269539
H270	H	1.181869	-0.572280	-0.019539
H271	H	1.431869	-0.322280	0.230461
H272	H	1.681869	-0.072280	0.480461
H273	H	0.469815	-0.372168	-0.402476
H274	H	0.719815	-0.122168	-0.152476
H275	H	0.969815	0.127832	0.097524
H276	H	1.219815	0.377832	0.347524
H277	H	0.577727	-0.414477	-0.448088
H278	H	0.827727	-0.164477	-0.198088
H279	H	1.077727	0.085523	0.051912
H280	H	1.327727	0.335523	0.301912
H281	H	0.711332	-0.408476	-0.441613
H282	H	0.961332	-0.158476	-0.191613
H283	H	1.211332	0.091524	0.058387
H284	H	1.461332	0.341524	0.308387
H285	H	0.592932	-0.242704	-0.262904
H286	H	0.842932	0.007296	-0.012904
H287	H	1.092932	0.257296	0.237096
H288	H	1.342932	0.507296	0.487096
O289	O	0.737375	-0.223757	-0.242477
O290	O	0.987375	0.026243	0.007523
O291	O	1.237375	0.276243	0.257523
O292	O	1.487375	0.526243	0.507523
H293	H	0.702315	-0.192548	-0.208821
H294	H	0.952315	0.057452	0.041179
H295	H	1.202315	0.307452	0.291179
H296	H	1.452315	0.557452	0.541179
O297	O	1.092828	-0.900479	-0.462531
O298	O	1.342828	-0.650479	-0.212531
O299	O	1.592828	-0.400479	0.037469
O300	O	1.842828	-0.150479	0.287469
H301	H	1.087957	-0.843279	-0.456697
H302	H	1.337957	-0.593279	-0.206697
H303	H	1.587957	-0.343279	0.043303
H304	H	1.837957	-0.093279	0.293303
O305	O	0.408520	-0.193716	-0.210132
O306	O	0.658520	0.056284	0.039868
O307	O	0.908520	0.306284	0.289868
O308	O	1.158520	0.556284	0.539868
H309	H	0.465211	-0.199085	-0.215929
H310	H	0.715211	0.050915	0.034071
H311	H	0.965211	0.300915	0.284071
H312	H	1.215211	0.550915	0.534071
H313	H	0.264082	-0.212663	-0.230569
H314	H	0.514082	0.037337	0.019431
H315	H	0.764082	0.287337	0.269431
H316	H	1.014082	0.537337	0.519431
H317	H	0.505603	-0.248981	-0.269695
H318	H	0.755603	0.001019	-0.019695
H319	H	1.005603	0.251019	0.230305
H320	H	1.255603	0.501019	0.480305
H321	H	1.053918	-0.578409	-0.415965
H322	H	1.303918	-0.328409	-0.165965
H323	H	1.553918	-0.078409	0.084035
H324	H	1.803918	0.171591	0.334035
O325	O	0.915358	-0.899234	-0.249697
O326	O	1.165358	-0.649234	0.000303
O327	O	1.415358	-0.399234	0.250303
O328	O	1.665358	-0.149234	0.500303
H329	H	0.884165	-0.936842	-0.212254
H330	H	1.134165	-0.686842	0.037746
H331	H	1.384165	-0.436842	0.287746
H332	H	1.634165	-0.186842	0.537746
H333	H	0.893655	-0.710356	-0.223762
H334	H	1.143655	-0.460356	0.026238
H335	H	1.393655	-0.210356	0.276238
H336	H	1.643655	0.039644	0.526238
O337	O	0.888114	-0.567541	-0.217143
O338	O	1.138114	-0.317541	0.032857
O339	O	1.388114	-0.067541	0.282857
O340	O	1.638114	0.182459	0.532857
H341	H	0.856915	-0.605145	-0.179702
H342	H	1.106915	-0.355145	0.070298
H343	H	1.356915	-0.105145	0.320298
H344	H	1.606915	0.144855	0.570298
