data_functionalizedCrystal
_audit_creation_method	'MofGen! by Chris Wilmer'
_symmetry_space_group_name_H-M	'P1'
_symmetry_Int_Tables_number	1
_symmetry_cell_setting	triclinic
loop_
_symmetry_equiv_pos_as_xyz
  x,y,z
_cell_length_a	12.827893
_cell_length_b	13.032721
_cell_length_c	13.033454
_cell_angle_alpha	89.068673
_cell_angle_beta	97.162513
_cell_angle_gamma	97.204267
loop_
_atom_site_label
_atom_site_type_symbol
_atom_site_fract_x
_atom_site_fract_y
_atom_site_fract_z
Zn1	Zn	1.474590	-0.335514	-0.633434
Zn2	Zn	1.807923	-0.002181	-0.300101
Zn3	Zn	2.141257	0.331153	0.033232
Zn4	Zn	1.468911	-0.529367	-0.483297
Zn5	Zn	1.802244	-0.196034	-0.149963
Zn6	Zn	2.135577	0.137300	0.183370
Zn7	Zn	1.318883	-0.357410	-0.461486
Zn8	Zn	1.652217	-0.024076	-0.128153
Zn9	Zn	1.985550	0.309257	0.205181
Zn10	Zn	1.275198	-0.507448	-0.655216
Zn11	Zn	1.608531	-0.174115	-0.321883
Zn12	Zn	1.941865	0.159219	0.011451
O13	O	1.384395	-0.432435	-0.558358
O14	O	1.717729	-0.099101	-0.225025
O15	O	2.051062	0.234232	0.108308
O16	O	1.620070	-0.361239	-0.613531
O17	O	1.953403	-0.027905	-0.280197
O18	O	2.286736	0.305428	0.053136
O19	O	1.464915	-0.524893	-0.336494
O20	O	1.798248	-0.191560	-0.003160
O21	O	2.131582	0.141774	0.330173
O22	O	1.360197	-0.210585	-0.466052
O23	O	1.693530	0.122748	-0.132718
O24	O	2.026864	0.456081	0.200615
O25	O	1.615897	-0.503662	-0.503225
O26	O	1.949231	-0.170328	-0.169892
O27	O	2.282564	0.163005	0.163442
O28	O	1.474594	-0.194499	-0.592382
O29	O	1.807928	0.138835	-0.259048
O30	O	2.141261	0.472168	0.074285
O31	O	1.354690	-0.398557	-0.320469
O32	O	1.688024	-0.065223	0.012864
O33	O	2.021357	0.268110	0.346197
O34	O	1.166855	-0.377303	-0.487172
O35	O	1.500188	-0.043970	-0.153839
O36	O	1.833522	0.289364	0.179494
O37	O	1.285742	-0.466304	-0.796236
O38	O	1.619076	-0.132971	-0.462903
O39	O	1.952409	0.200363	-0.129570
O40	O	1.134760	-0.487535	-0.629505
O41	O	1.468093	-0.154202	-0.296172
O42	O	1.801426	0.179131	0.037162
O43	O	1.432235	-0.339985	-0.780234
O44	O	1.765568	-0.006652	-0.446900
O45	O	2.098901	0.326682	-0.113567
O46	O	1.422555	-0.670379	-0.524346
O47	O	1.755889	-0.337046	-0.191012
O48	O	2.089222	-0.003712	0.142321
O49	O	1.280235	-0.654275	-0.650654
O50	O	1.613569	-0.320942	-0.317321
O51	O	1.946902	0.012391	0.016013
C52	C	1.112891	-0.432417	-0.558336
C53	C	1.446224	-0.099084	-0.225003
C54	C	1.779557	0.234249	0.108331
C55	C	0.996733	-0.432432	-0.558354
C56	C	1.330067	-0.099098	-0.225021
C57	C	1.663400	0.234235	0.108312
C58	C	0.929091	-0.487088	-0.628701
C59	C	1.262425	-0.153755	-0.295368
C60	C	1.595758	0.179579	0.037966
C61	C	0.809036	-0.487104	-0.628721
C62	C	1.142370	-0.153771	-0.295388
C63	C	1.475703	0.179563	0.037945
C64	C	1.346064	-0.699641	-0.592253
C65	C	1.679398	-0.366308	-0.258919
C66	C	2.012731	-0.032974	0.074414
C67	C	1.329758	-0.813949	-0.606787
C68	C	1.663091	-0.480615	-0.273454
C69	C	1.996425	-0.147282	0.059880
C70	C	1.392956	-0.872838	-0.550819
C71	C	1.726290	-0.539505	-0.217485
C72	C	2.059623	-0.206171	0.115848
C73	C	1.376104	-0.990981	-0.565840
C74	C	1.709438	-0.657648	-0.232506
C75	C	2.042771	-0.324314	0.100827
C76	C	1.656960	-0.432453	-0.558381
C77	C	1.990294	-0.099119	-0.225048
C78	C	2.323627	0.234214	0.108286
C79	C	1.773111	-0.432460	-0.558391
C80	C	2.106445	-0.099127	-0.225058
C81	C	2.439778	0.234206	0.108276
C82	C	1.354749	-0.398257	-0.826593
C83	C	1.688082	-0.064924	-0.493259
C84	C	2.021416	0.268410	-0.159926
C85	C	1.342115	-0.383693	-0.940898
C86	C	1.675449	-0.050359	-0.607565
C87	C	2.008782	0.282974	-0.274231
C88	C	1.422902	-0.164182	-0.524354
C89	C	1.756235	0.169151	-0.191021
C90	C	2.089569	0.502485	0.142313
C91	C	1.439311	-0.049869	-0.509864
C92	C	1.772645	0.283465	-0.176530
C93	C	2.105978	0.616798	0.156803
C94	C	1.391020	-0.439708	-0.999788
C95	C	1.724353	-0.106375	-0.666454
C96	C	2.057687	0.226959	-0.333121
C97	C	1.377964	-0.424656	-1.117929
C98	C	1.711297	-0.091323	-0.784595
C99	C	2.044630	0.242010	-0.451262
C100	C	1.413997	-0.466405	-0.291158
C101	C	1.747331	-0.133072	0.042175
C102	C	2.080664	0.200262	0.375509
C103	C	1.426875	-0.480680	-0.176816
C104	C	1.760208	-0.147346	0.156517
C105	C	2.093542	0.185987	0.489850
H106	H	0.750926	-0.533901	-0.688945
H107	H	1.084260	-0.200567	-0.355612
H108	H	1.417593	0.132766	-0.022278
F109	F	0.849056	-0.371299	-0.479660
F110	F	1.182389	-0.037966	-0.146326
F111	F	1.515722	0.295368	0.187007
H112	H	1.263180	-0.850996	-0.665828
H113	H	1.596513	-0.517662	-0.332494
H114	H	1.929846	-0.184329	0.000839
H115	H	1.478418	-0.539780	-1.139776
H116	H	1.811752	-0.206447	-0.806443
H117	H	2.145085	0.126887	-0.473109
F118	F	0.956261	-0.371277	-0.479655
F119	F	1.289594	-0.037943	-0.146322
F120	F	1.622927	0.295390	0.187011
F121	F	1.458390	-0.516950	-0.951371
F122	F	1.791724	-0.183617	-0.618038
F123	F	2.125057	0.149717	-0.284704
F124	F	1.274760	-0.306438	-0.989313
F125	F	1.608093	0.026896	-0.655980
F126	F	1.941427	0.360229	-0.322646
H127	H	1.309521	-1.028024	-0.624884
H128	H	1.642855	-0.694690	-0.291551
H129	H	1.976188	-0.361357	0.041782
F130	F	0.969564	-0.548241	-0.707402
F131	F	1.302897	-0.214907	-0.374069
F132	F	1.636231	0.118426	-0.040735
H133	H	1.326430	-0.365548	-1.154969
H134	H	1.659764	-0.032215	-0.821636
H135	H	1.993097	0.301119	-0.488302
H136	H	1.459543	-0.835792	-0.491785
H137	H	1.792876	-0.502459	-0.158452
H138	H	2.126209	-0.169126	0.174881
H139	H	1.505902	-1.012826	-0.450826
H140	H	1.839235	-0.679493	-0.117493
H141	H	2.172569	-0.346160	0.215840
