data_functionalizedCrystal
_audit_creation_method	'MofGen! by Chris Wilmer'
_symmetry_space_group_name_H-M	'P1'
_symmetry_Int_Tables_number	1
_symmetry_cell_setting	triclinic
loop_
_symmetry_equiv_pos_as_xyz
  x,y,z
_cell_length_a	19.077105
_cell_length_b	19.121063
_cell_length_c	19.076919
_cell_angle_alpha	85.393653
_cell_angle_beta	89.923776
_cell_angle_gamma	90.263052
loop_
_atom_site_label
_atom_site_type_symbol
_atom_site_fract_x
_atom_site_fract_y
_atom_site_fract_z
Zn1	Zn	1.043169	-0.339734	0.454309
Zn2	Zn	1.543169	0.160266	0.954309
Zn3	Zn	1.042790	-0.452646	0.341419
Zn4	Zn	1.542790	0.047354	0.841419
Zn5	Zn	0.930805	-0.330327	0.331718
Zn6	Zn	1.430805	0.169673	0.831718
Zn7	Zn	0.920631	-0.452222	0.454155
Zn8	Zn	1.420631	0.047778	0.954155
O9	O	0.984349	-0.393732	0.395400
O10	O	1.484349	0.106268	0.895400
O11	O	1.141268	-0.358826	0.443459
O12	O	1.641268	0.141174	0.943459
O13	O	1.032035	-0.432660	0.241647
O14	O	1.532035	0.067340	0.741647
O15	O	0.950127	-0.233307	0.343985
O16	O	1.450127	0.266693	0.843985
O17	O	1.140989	-0.441782	0.360519
O18	O	1.640989	0.058218	0.860519
O19	O	1.032681	-0.240219	0.434052
O20	O	1.532681	0.259781	0.934052
O21	O	0.949760	-0.342793	0.234520
O22	O	1.449760	0.157207	0.734520
O23	O	0.831307	-0.342382	0.343835
O24	O	1.331307	0.157618	0.843835
O25	O	0.932786	-0.441060	0.552660
O26	O	1.432786	0.058940	1.052660
O27	O	0.823831	-0.431938	0.433788
O28	O	1.323831	0.068062	0.933788
O29	O	1.022815	-0.358416	0.552774
O30	O	1.522815	0.141584	1.052774
O31	O	1.022169	-0.550857	0.360369
O32	O	1.522169	-0.050857	0.860369
O33	O	0.932419	-0.550546	0.443195
O34	O	1.432419	-0.050546	0.943195
C35	C	0.802120	-0.386094	0.387742
C36	C	1.302120	0.113906	0.887742
C37	C	0.724160	-0.382844	0.384484
C38	C	1.224160	0.117156	0.884484
C39	C	0.683661	-0.428009	0.429719
C40	C	1.183661	0.071991	0.929719
C41	C	0.610410	-0.424946	0.426660
C42	C	1.110410	0.075054	0.926660
C43	C	0.577659	-0.376721	0.378362
C44	C	1.077659	0.123279	0.878362
C45	C	0.618164	-0.331551	0.333125
C46	C	1.118164	0.168449	0.833125
C47	C	0.691414	-0.334611	0.336188
C48	C	1.191414	0.165389	0.836188
C49	C	0.359002	-0.362559	0.364190
C50	C	0.859002	0.137441	0.864190
C51	C	0.285746	-0.359503	0.361130
C52	C	0.785746	0.140497	0.861130
C53	C	0.277998	-0.452898	0.454666
C54	C	0.777998	0.047102	0.954666
C55	C	0.351249	-0.455957	0.457722
C56	C	0.851249	0.044043	0.957722
C57	C	0.391747	-0.410784	0.412487
C58	C	0.891747	0.089216	0.912487
N59	N	0.502785	-0.373590	0.375233
N60	N	1.002785	0.126410	0.875233
N61	N	0.466620	-0.413912	0.415620
N62	N	0.966620	0.086088	0.915620
C63	C	0.976167	-0.576182	0.402834
C64	C	1.476167	-0.076182	0.902834
C65	C	0.972730	-0.654239	0.406041
C66	C	1.472730	-0.154239	0.906041
C67	C	1.017877	-0.691052	0.364463
C68	C	1.517877	-0.191052	0.864463
C69	C	1.014648	-0.764395	0.367483
C70	C	1.514648	-0.264395	0.867483
C71	C	0.966269	-0.800923	0.412078
C72	C	1.466269	-0.300923	0.912078
C73	C	0.921120	-0.764105	0.453660
C74	C	1.421120	-0.264105	0.953660
C75	C	0.924353	-0.690764	0.450644
C76	C	1.424353	-0.190764	0.950644
C77	C	0.954173	-1.022359	0.423346
C78	C	1.454173	-0.522359	0.923346
C79	C	0.950942	-1.095705	0.426358
C80	C	1.450942	-0.595705	0.926358
C81	C	1.044471	-1.095990	0.340181
C82	C	1.544471	-0.595990	0.840181
C83	C	1.047697	-1.022647	0.337165
C84	C	1.547697	-0.522647	0.837165
C85	C	1.002551	-0.985836	0.378750
C86	C	1.502551	-0.485836	0.878750
C87	C	0.962966	-0.875891	0.415164
C88	C	1.462966	-0.375891	0.915164
C89	C	1.005857	-0.910869	0.375667
C90	C	1.505857	-0.410869	0.875667
C91	C	1.167289	-0.401401	0.403088
C92	C	1.667289	0.098599	0.903088
C93	C	1.245247	-0.404669	0.406365
C94	C	1.745247	0.095331	0.906365
C95	C	0.976708	-0.400740	0.578967
C96	C	1.476708	0.099260	1.078967
C97	C	0.973452	-0.403726	0.657192
C98	C	1.473452	0.096274	1.157192
C99	C	0.992581	-0.210571	0.387953
C100	C	1.492581	0.289429	0.887953
C101	C	0.996089	-0.132518	0.384780
C102	C	1.496089	0.367482	0.884780
C103	C	0.992003	-0.386702	0.212547
C104	C	1.492003	0.113298	0.712547
C105	C	0.995403	-0.383524	0.134320
C106	C	1.495403	0.116476	0.634320
C107	C	1.018793	-0.362103	0.694003
C108	C	1.518793	0.137897	1.194003
C109	C	1.015725	-0.364906	0.767503
C110	C	1.515725	0.135094	1.267503
C111	C	0.967319	-0.409336	0.804192
C112	C	1.467319	0.090664	1.304192
C113	C	0.921973	-0.450962	0.767376
C114	C	1.421973	0.049038	1.267376
C115	C	0.925038	-0.448154	0.693877
C116	C	1.425038	0.051846	1.193877
C117	C	0.953123	-0.422342	1.024005
C118	C	1.453123	0.077658	1.524005
C119	C	0.950063	-0.425148	1.097510
C120	C	1.450063	0.074852	1.597510
C121	C	1.043814	-0.339090	1.097632
C122	C	1.543814	0.160910	1.597632
C123	C	1.046877	-0.336290	1.024131
C124	C	1.546877	0.163710	1.524131
C125	C	1.001529	-0.377913	0.987321
C126	C	1.501529	0.122087	1.487321
N127	N	0.964183	-0.412204	0.879321
N128	N	1.464183	0.087796	1.379321
N129	N	1.004662	-0.375041	0.912193
N130	N	1.504662	0.124959	1.412193
H131	H	0.377909	-0.495228	0.497049
H132	H	0.877909	0.004772	0.997049
H133	H	1.051411	-0.794364	0.333625
H134	H	1.551411	-0.294364	0.833625
H135	H	1.087091	-0.992907	0.300852
H136	H	1.587091	-0.492907	0.800852
C137	C	0.248977	-0.490887	0.574241
C138	C	0.748977	0.009113	1.074241
C139	C	0.233480	-0.502541	0.504394
C140	C	0.733480	-0.002541	1.004394
H141	H	0.221496	-0.521537	0.604943
H142	H	0.721496	-0.021537	1.104943
H143	H	0.238656	-0.443619	0.582184
H144	H	0.738656	0.056381	1.082184
H145	H	0.297290	-0.499614	0.582967
H146	H	0.797290	0.000386	1.082967
H147	H	0.185168	-0.493809	0.495666
H148	H	0.685168	0.006191	0.995666
H149	H	0.243797	-0.549819	0.496447
H150	H	0.743797	-0.049819	0.996447
C151	C	1.081060	-1.208544	0.306553
C152	C	1.581060	-0.708544	0.806553
C153	C	1.094106	-1.136455	0.294485
C154	C	1.594106	-0.636455	0.794485
H155	H	1.111710	-1.233524	0.278347
H156	H	1.611710	-0.733524	0.778347
H157	H	1.033850	-1.218240	0.294721
H158	H	1.533850	-0.718240	0.794721
H159	H	1.088783	-1.222757	0.354774
H160	H	1.588783	-0.722757	0.854774
H161	H	1.086377	-1.122241	0.246265
H162	H	1.586377	-0.622241	0.746265
H163	H	1.141326	-1.126754	0.306312
H164	H	1.641326	-0.626754	0.806312
H165	H	0.923575	-0.905641	0.451472
H166	H	1.423575	-0.405641	0.951472
H167	H	1.086296	-0.300112	0.994264
H168	H	1.586296	0.199888	1.494264
H169	H	0.577438	-0.461725	0.463495
H170	H	1.077438	0.038275	0.963495
H171	H	0.391967	-0.325781	0.327352
H172	H	0.891967	0.174219	0.827352
C173	C	0.888107	-0.482059	0.581150
C174	C	1.388107	0.017941	1.081150
C175	C	0.875199	-0.493908	0.653411
C176	C	1.375199	0.006092	1.153411
H177	H	0.857332	-0.510302	0.556170
H178	H	1.357332	-0.010302	1.056170
H179	H	0.935266	-0.493855	0.571509
H180	H	1.435266	0.006145	1.071509
H181	H	0.880466	-0.433984	0.566764
H182	H	1.380466	0.066016	1.066764
H183	H	0.882845	-0.541982	0.667798
H184	H	1.382845	-0.041982	1.167798
H185	H	0.828029	-0.482117	0.663056
H186	H	1.328029	0.017883	1.163056
C187	C	0.863054	-0.936377	0.425688
C188	C	1.363054	-0.436377	0.925688
C189	C	0.904546	-0.981896	0.469047
C190	C	1.404546	-0.481896	0.969047
H191	H	0.832419	-0.911391	0.453904
H192	H	1.332419	-0.411391	0.953904
H193	H	0.836267	-0.962731	0.395061
H194	H	1.336267	-0.462731	0.895061
H195	H	0.892340	-0.904132	0.398703
H196	H	1.392340	-0.404132	0.898703
H197	H	0.875260	-1.014145	0.496029
H198	H	1.375260	-0.514145	0.996029
H199	H	0.931335	-0.955540	0.499686
H200	H	1.431335	-0.455540	0.999686
H201	H	1.057269	-0.661315	0.328146
H202	H	1.557269	-0.161315	0.828146
C203	C	0.602353	-0.210342	0.293253
C204	C	1.102353	0.289658	0.793253
C205	C	0.582168	-0.278538	0.280036
C206	C	1.082168	0.221462	0.780036
H207	H	0.580128	-0.177615	0.260478
H208	H	1.080128	0.322385	0.760478
H209	H	0.651768	-0.205706	0.288602
H210	H	1.151768	0.294294	0.788602
H211	H	0.588840	-0.201453	0.339640
H212	H	1.088840	0.298547	0.839640
H213	H	0.595686	-0.287429	0.233650
H214	H	1.095686	0.212571	0.733650
H215	H	0.532742	-0.283176	0.284680
H216	H	1.032742	0.216824	0.784680
H217	H	0.916207	-0.456245	0.994044
H218	H	1.416207	0.043755	1.494044
H219	H	0.724388	-0.297829	0.299356
H220	H	1.224388	0.202171	0.799356
C221	C	1.080740	-0.305175	1.210354
C222	C	1.580740	0.194825	1.710354
C223	C	1.093651	-0.293333	1.138094
C224	C	1.593651	0.206667	1.638094
H225	H	1.111505	-0.276919	1.235332
H226	H	1.611505	0.223081	1.735332
H227	H	1.088387	-0.353240	1.224747
H228	H	1.588387	0.146760	1.724747
H229	H	1.033572	-0.293383	1.219990
H230	H	1.533572	0.206617	1.719990
H231	H	1.140818	-0.305130	1.128457
H232	H	1.640818	0.194870	1.628457
H233	H	1.086010	-0.245257	1.123696
H234	H	1.586010	0.254743	1.623696
C235	C	0.857689	-0.509925	1.090010
C236	C	1.357689	-0.009925	1.590010
C237	C	0.896848	-0.473987	1.137839
C238	C	1.396848	0.026013	1.637839
H239	H	0.824837	-0.540072	1.114909
H240	H	1.324837	-0.040072	1.614909
H241	H	0.888230	-0.536974	1.063719
H242	H	1.388230	-0.036974	1.563719
H243	H	0.833432	-0.477101	1.058970
H244	H	1.333432	0.022899	1.558970
H245	H	0.921109	-0.506811	1.168876
H246	H	1.421109	-0.006811	1.668876
H247	H	0.866302	-0.446936	1.164141
H248	H	1.366302	0.053064	1.664141
H249	H	0.259084	-0.320225	0.321804
H250	H	0.759084	0.179775	0.821804
H251	H	1.058212	-0.325924	0.664136
H252	H	1.558212	0.174076	1.164136
H253	H	0.911554	-1.125446	0.462685
H254	H	1.411554	-0.625446	0.962685
H255	H	0.881732	-0.793853	0.489974
H256	H	1.381732	-0.293853	0.989974
C257	C	0.831580	-0.697845	0.536128
C258	C	1.331580	-0.197845	1.036128
C259	C	0.874727	-0.650297	0.496349
C260	C	1.374727	-0.150297	0.996349
H261	H	0.800943	-0.672861	0.564344
H262	H	1.300943	-0.172861	1.064344
H263	H	0.859737	-0.728721	0.565526
H264	H	1.359737	-0.228721	1.065526
H265	H	0.804788	-0.724191	0.505488
H266	H	1.304788	-0.224191	1.005488
H267	H	0.901523	-0.623954	0.526989
H268	H	1.401523	-0.123954	1.026989
H269	H	0.846567	-0.619408	0.466948
H270	H	1.346567	-0.119408	0.966948
H271	H	0.710321	-0.467281	0.469046
H272	H	1.210321	0.032719	0.969046
C273	C	1.023238	-0.825224	0.278034
C274	C	1.523238	-0.325224	0.778034
C275	C	1.059033	-0.870720	0.326646
C276	C	1.559033	-0.370720	0.826646
H277	H	1.056066	-0.800436	0.247767
H278	H	1.556066	-0.300436	0.747767
H279	H	0.996819	-0.792810	0.302371
H280	H	1.496819	-0.292810	0.802371
H281	H	0.992562	-0.851574	0.250987
H282	H	1.492562	-0.351574	0.750987
H283	H	1.089705	-0.844369	0.353696
H284	H	1.589705	-0.344369	0.853696
H285	H	1.085463	-0.903138	0.302307
H286	H	1.585463	-0.403138	0.802307
C287	C	1.108710	-0.279572	0.760242
C288	C	1.608710	0.220428	1.260242
C289	C	1.065570	-0.319156	0.807966
C290	C	1.565570	0.180844	1.307966
H291	H	1.139486	-0.251331	0.785224
H292	H	1.639486	0.248669	1.285224
H293	H	1.080557	-0.250334	0.729198
H294	H	1.580557	0.249666	1.229198
H295	H	1.135353	-0.310209	0.733947
H296	H	1.635353	0.189791	1.233947
H297	H	1.038923	-0.288519	0.834258
H298	H	1.538923	0.211481	1.334258
H299	H	1.093726	-0.348397	0.839022
H300	H	1.593726	0.151603	1.339022
C301	C	0.875650	-0.493480	0.879990
C302	C	1.375650	0.006520	1.379990
C303	C	0.868764	-0.499801	0.807703
C304	C	1.368764	0.000199	1.307703
H305	H	0.842803	-0.523636	0.904884
H306	H	1.342803	-0.023636	1.404884
H307	H	0.867003	-0.446333	0.889683
H308	H	1.367003	0.053667	1.389683
H309	H	0.921813	-0.506194	0.894429
H310	H	1.421813	-0.006194	1.394429
H311	H	0.822602	-0.487081	0.793263
H312	H	1.322602	0.012919	1.293263
H313	H	0.877406	-0.546958	0.798005
H314	H	1.377406	-0.046958	1.298005
