data_functionalizedCrystal
_audit_creation_method	'MofGen! by Chris Wilmer'
_symmetry_space_group_name_H-M	'P1'
_symmetry_Int_Tables_number	1
_symmetry_cell_setting	triclinic
loop_
_symmetry_equiv_pos_as_xyz
  x,y,z
_cell_length_a	19.288840
_cell_length_b	11.804365
_cell_length_c	19.288865
_cell_angle_alpha	78.216139
_cell_angle_beta	83.131131
_cell_angle_gamma	101.812241
loop_
_atom_site_label
_atom_site_type_symbol
_atom_site_fract_x
_atom_site_fract_y
_atom_site_fract_z
O1	O	0.935466	0.099240	0.072465
O2	O	0.733198	0.099201	0.084177
O3	O	0.840173	0.099198	-0.022807
O4	O	0.828491	0.099243	0.179449
O5	O	0.812011	-0.098857	0.005330
O6	O	0.705035	-0.098855	0.112314
O7	O	0.907304	-0.098815	0.100601
Cu8	Cu	0.803598	-0.116919	0.109027
Cu9	Cu	0.836903	0.117304	0.075752
O10	O	0.800328	-0.098812	0.207585
C11	C	0.693239	0.000168	0.097873
C12	C	0.616132	0.000151	0.096753
C13	C	0.595280	0.108114	0.080876
C14	C	0.522835	0.108129	0.079812
C15	C	0.471246	0.000174	0.094611
C16	C	0.492104	-0.107803	0.110494
C17	C	0.564547	-0.107814	0.111565
C18	C	0.350159	-0.082527	0.063983
C19	C	0.277718	-0.082511	0.062907
C20	C	0.247807	0.000204	0.091313
C21	C	0.290349	0.082924	0.120783
C22	C	0.362792	0.082913	0.121854
C23	C	0.392692	0.000174	0.093453
C24	C	0.148403	0.108190	0.074283
C25	C	0.075955	0.108200	0.073223
C26	C	0.045226	-0.107735	0.103899
C27	C	0.117671	-0.107742	0.104965
C28	C	0.169256	0.000224	0.090153
N29	N	0.780178	-0.281659	0.132430
C30	C	0.916569	-0.655611	-0.003870
C31	C	0.934286	-0.530950	-0.021577
C32	C	0.895760	-0.468621	0.016923
C33	C	0.839515	-0.530966	0.073134
C34	C	0.821801	-0.655639	0.090847
C35	C	0.800991	-0.468649	0.111639
C36	C	0.744747	-0.530994	0.167850
C37	C	0.727034	-0.655655	0.185560
C38	C	0.765560	-0.717984	0.147060
C39	C	0.818706	-0.343976	0.093926
C40	C	0.723937	-0.344004	0.188643
C41	C	0.706221	-0.468665	0.206350
C42	C	0.947263	0.000220	0.086906
C43	C	1.024371	0.000244	0.088024
C44	C	0.825715	0.000167	-0.034614
C45	C	0.824585	0.000156	-0.111716
N46	N	0.860329	0.282044	0.052343
C47	C	0.887354	0.000162	-0.156419
C48	C	0.886296	0.000181	-0.228869
C49	C	0.822462	0.000169	-0.256609
C50	C	0.759685	0.000170	-0.211897
C51	C	0.760746	0.000163	-0.139451
C52	C	0.762415	-0.069215	-0.355035
C53	C	0.761355	-0.069216	-0.427479
C54	C	0.819186	0.000195	-0.480058
C55	C	0.878085	0.069591	-0.460183
C56	C	0.879147	0.069585	-0.387737
C57	C	0.821304	0.000177	-0.335164
C58	C	0.880813	0.000224	-0.603320
C59	C	0.879753	0.000250	-0.675771
C60	C	0.753138	0.000226	-0.658796
C61	C	0.754201	0.000212	-0.586348
C62	C	0.818039	0.000205	-0.558614
C63	C	0.814786	0.000221	0.219392
C64	C	0.815918	0.000240	0.296493
H65	H	0.003222	-0.195634	0.115953
O66	O	0.940476	0.144450	-0.516877
H67	H	0.947048	0.239562	-0.515506
H68	H	0.681242	-0.706416	0.231335
O69	O	0.949665	0.000240	-0.573400
H70	H	0.993140	0.000270	-0.616663
O71	O	0.140163	-0.224193	0.122084
H72	H	0.199203	-0.206066	0.120348
O73	O	0.956213	0.000175	-0.126516
H74	H	0.948255	-0.080554	-0.082460
O75	O	0.500342	0.224586	0.062678
H76	H	0.461730	0.229785	0.108784
H77	H	0.637277	0.196029	0.068815
O78	O	0.682380	-0.276780	0.230165
H79	H	0.687664	-0.300669	0.287686
O80	O	0.258086	0.172109	0.151454
H81	H	0.299836	0.229615	0.172131
H82	H	0.243087	-0.149861	0.038907
O83	O	0.746446	-0.852445	0.166159
H84	H	0.752716	-0.885300	0.222688
O85	O	0.684286	0.000206	-0.688708
H86	H	0.665614	0.080926	-0.682198
O87	O	0.958117	-0.722842	-0.045385
H88	H	1.015636	-0.698891	-0.040071
O89	O	0.914864	-0.334164	-0.002185
H90	H	0.930484	-0.301261	0.044998
O91	O	0.947456	0.000247	-0.723991
H92	H	0.992019	0.000226	-0.692529
H93	H	0.937413	0.000191	-0.265273
H94	H	0.980080	-0.480193	-0.067343
H95	H	0.660425	-0.519441	0.252119
O96	O	0.408675	0.172110	0.153647
H97	H	0.375710	0.229627	0.173227
H98	H	0.190405	0.196102	0.062229
O99	O	0.942661	0.144446	-0.366296
H100	H	0.982696	0.192726	-0.415024
H101	H	0.703086	0.000200	-0.549949
H102	H	0.713394	-0.125715	-0.443655
O103	O	0.700040	-0.144090	-0.298324
H104	H	0.658913	-0.192359	-0.324313
H105	H	0.707711	0.000163	-0.234488
O106	O	0.693040	0.000135	-0.091225
H107	H	0.648470	0.000122	-0.122681
H108	H	0.374505	-0.149890	0.040850
O109	O	0.053463	0.224651	0.056074
H110	H	0.101509	0.299718	0.045939
H111	H	0.581522	-0.195733	0.124495
O112	O	0.436423	-0.224243	0.126793
H113	H	0.382529	-0.206097	0.123497
H114	H	0.864501	-0.293226	0.048160
