data_functionalizedCrystal
_audit_creation_method	'MofGen! by Chris Wilmer'
_symmetry_space_group_name_H-M	'P1'
_symmetry_Int_Tables_number	1
_symmetry_cell_setting	triclinic
loop_
_symmetry_equiv_pos_as_xyz
  x,y,z
_cell_length_a	21.395362
_cell_length_b	19.077068
_cell_length_c	19.076919
_cell_angle_alpha	94.470751
_cell_angle_beta	92.260951
_cell_angle_gamma	92.343691
loop_
_atom_site_label
_atom_site_type_symbol
_atom_site_fract_x
_atom_site_fract_y
_atom_site_fract_z
Zn1	Zn	0.932554	-0.296406	-0.410194
Zn2	Zn	1.265887	0.036927	-0.076861
Zn3	Zn	1.599220	0.370260	0.256473
Zn4	Zn	0.932476	-0.409560	-0.297039
Zn5	Zn	1.265809	-0.076226	0.036295
Zn6	Zn	1.599143	0.257107	0.369628
Zn7	Zn	0.832167	-0.291720	-0.292287
Zn8	Zn	1.165501	0.041613	0.041046
Zn9	Zn	1.498834	0.374946	0.374380
Zn10	Zn	0.823361	-0.414289	-0.414842
Zn11	Zn	1.156694	-0.080955	-0.081509
Zn12	Zn	1.490028	0.252378	0.251825
O13	O	0.880139	-0.352994	-0.353590
O14	O	1.213473	-0.019660	-0.020257
O15	O	1.546806	0.313673	0.313076
O16	O	1.020220	-0.311398	-0.395227
O17	O	1.353554	0.021935	-0.061894
O18	O	1.686887	0.355268	0.271439
O19	O	0.922823	-0.389988	-0.197763
O20	O	1.256156	-0.056654	0.135571
O21	O	1.589489	0.276679	0.468904
O22	O	0.849202	-0.193691	-0.303994
O23	O	1.182535	0.139642	0.029340
O24	O	1.515868	0.472975	0.362673
O25	O	1.020163	-0.394532	-0.312092
O26	O	1.353497	-0.061198	0.021241
O27	O	1.686830	0.272135	0.354574
O28	O	0.922955	-0.197134	-0.390620
O29	O	1.256288	0.136199	-0.057286
O30	O	1.589622	0.469532	0.276047
O31	O	0.849126	-0.303412	-0.194272
O32	O	1.182460	0.029922	0.139062
O33	O	1.515793	0.363255	0.472395
O34	O	0.743322	-0.307997	-0.308501
O35	O	1.076655	0.025336	0.024833
O36	O	1.409989	0.358669	0.358166
O37	O	0.834193	-0.402592	-0.512871
O38	O	1.167526	-0.069258	-0.179538
O39	O	1.500859	0.264075	0.153796
O40	O	0.736852	-0.398048	-0.398541
O41	O	1.070186	-0.064714	-0.065208
O42	O	1.403519	0.268619	0.268125
O43	O	0.914416	-0.315984	-0.509456
O44	O	1.247749	0.017350	-0.176123
O45	O	1.581083	0.350683	0.157210
O46	O	0.914284	-0.508837	-0.316599
O47	O	1.247617	-0.175504	0.016734
O48	O	1.580951	0.157829	0.350067
O49	O	0.834118	-0.512312	-0.403149
O50	O	1.167451	-0.178978	-0.069816
O51	O	1.500784	0.154355	0.263518
C52	C	0.717353	-0.353028	-0.353510
C53	C	1.050687	-0.019694	-0.020177
C54	C	1.384020	0.313639	0.313157
C55	C	0.647712	-0.353060	-0.353493
C56	C	0.981045	-0.019727	-0.020160
C57	C	1.314378	0.313607	0.313173
C58	C	0.611646	-0.400006	-0.400312
C59	C	0.944980	-0.066673	-0.066979
C60	C	1.278313	0.266660	0.266354
C61	C	0.546210	-0.399990	-0.400343
C62	C	0.879544	-0.066657	-0.067010
C63	C	1.212877	0.266676	0.266324
C64	C	0.516842	-0.353035	-0.353542
C65	C	0.850176	-0.019701	-0.020209
C66	C	1.183509	0.313632	0.313124
C67	C	0.552916	-0.306080	-0.306720
C68	C	0.886249	0.027254	0.026614
C69	C	1.219583	0.360587	0.359947
C70	C	0.618351	-0.306092	-0.306695
C71	C	0.951684	0.027241	0.026638
C72	C	1.285017	0.360575	0.359971
C73	C	0.415697	-0.344816	-0.289853
C74	C	0.749030	-0.011482	0.043480
C75	C	1.082364	0.321851	0.376813
C76	C	0.350263	-0.344808	-0.289877
C77	C	0.683597	-0.011475	0.043457
C78	C	1.016930	0.321859	0.376790
C79	C	0.315021	-0.352992	-0.353618
C80	C	0.648354	-0.019659	-0.020285
C81	C	0.981687	0.313675	0.313048
C82	C	0.345219	-0.361198	-0.417339
C83	C	0.678552	-0.027865	-0.084005
C84	C	1.011885	0.305468	0.249328
C85	C	0.410653	-0.361211	-0.417314
C86	C	0.743987	-0.027877	-0.083981
C87	C	1.077320	0.305456	0.249352
C88	C	0.445890	-0.353016	-0.353564
C89	C	0.779223	-0.019682	-0.020231
C90	C	1.112557	0.313651	0.313103
C91	C	0.208002	-0.399923	-0.400475
C92	C	0.541335	-0.066590	-0.067141
C93	C	0.874669	0.266743	0.266192
C94	C	0.142565	-0.399902	-0.400506
C95	C	0.475898	-0.066569	-0.067173
C96	C	0.809232	0.266764	0.266160
C97	C	0.149272	-0.305995	-0.306877
C98	C	0.482605	0.027338	0.026456
C99	C	0.815939	0.360671	0.359790
C100	C	0.214708	-0.306013	-0.306851
C101	C	0.548041	0.027321	0.026482
C102	C	0.881374	0.360654	0.359815
C103	C	0.244069	-0.352981	-0.353649
C104	C	0.577402	-0.019647	-0.020316
C105	C	0.910735	0.313686	0.313017
C106	C	0.873253	-0.536154	-0.360909
C107	C	1.206587	-0.202821	-0.027576
C108	C	1.539920	0.130513	0.305757
C109	C	0.870364	-0.614512	-0.364064
C110	C	1.203697	-0.281178	-0.030731
C111	C	1.537030	0.052155	0.302603
C112	C	0.910774	-0.649494	-0.320522
C113	C	1.244107	-0.316160	0.012811
C114	C	1.577441	0.017173	0.346145
C115	C	0.908060	-0.723119	-0.323493
C116	C	1.241393	-0.389786	0.009840
C117	C	1.574727	-0.056453	0.343173
C118	C	0.864932	-0.761762	-0.370004
C119	C	1.198265	-0.428428	-0.036670
C120	C	1.531598	-0.095095	0.296663
C121	C	0.824519	-0.726775	-0.413551
C122	C	1.157853	-0.393442	-0.080217
C123	C	1.491186	-0.060108	0.253116
C124	C	0.827237	-0.653151	-0.410582
C125	C	1.160571	-0.319817	-0.077249
C126	C	1.493904	0.013516	0.256084
C127	C	0.852328	-0.982151	-0.383712
C128	C	1.185661	-0.648818	-0.050379
C129	C	1.518994	-0.315484	0.282954
C130	C	0.849612	-1.055780	-0.386676
C131	C	1.182945	-0.722447	-0.053343
C132	C	1.516278	-0.389114	0.279991
C133	C	0.933153	-1.052120	-0.296619
C134	C	1.266487	-0.718786	0.036714
C135	C	1.599820	-0.385453	0.370048
C136	C	0.935865	-0.978494	-0.293652
C137	C	1.269198	-0.645161	0.039681
C138	C	1.602531	-0.311827	0.373015
C139	C	0.895455	-0.943514	-0.337201
C140	C	1.228788	-0.610180	-0.003868
C141	C	1.562121	-0.276847	0.329465
N142	N	0.862155	-0.837019	-0.373040
N143	N	1.195488	-0.503686	-0.039707
N144	N	1.528822	-0.170352	0.293626
N145	N	0.898235	-0.868258	-0.334168
N146	N	1.231568	-0.534925	-0.000834
N147	N	1.564901	-0.201591	0.332499
C148	C	1.043561	-0.352960	-0.353671
C149	C	1.376894	-0.019627	-0.020338
C150	C	1.710228	0.313707	0.312995
C151	C	1.113202	-0.352946	-0.353706
C152	C	1.446535	-0.019612	-0.020373
C153	C	1.779868	0.313721	0.312961
C154	C	0.873331	-0.360338	-0.537457
C155	C	1.206664	-0.027005	-0.204123
C156	C	1.539997	0.306329	0.129210
C157	C	0.870429	-0.363468	-0.615809
C158	C	1.203763	-0.030134	-0.282476
C159	C	1.537096	0.303199	0.050857
C160	C	0.887069	-0.169119	-0.346258
C161	C	1.220402	0.164215	-0.012925
C162	C	1.553736	0.497548	0.320408
C163	C	0.890022	-0.090762	-0.343134
C164	C	1.223356	0.242571	-0.009800
C165	C	1.556689	0.575905	0.323533
C166	C	0.910832	-0.319848	-0.650843
C167	C	1.244165	0.013485	-0.317510
C168	C	1.577499	0.346819	0.015824
C169	C	0.908098	-0.322786	-0.724464
C170	C	1.241431	0.010547	-0.391130
C171	C	1.574765	0.343881	-0.057797
C172	C	0.864964	-0.369348	-0.763050
C173	C	1.198298	-0.036014	-0.429716
C174	C	1.531631	0.297319	-0.096383
C175	C	0.824557	-0.412969	-0.728011
C176	C	1.157891	-0.079636	-0.394678
C177	C	1.491224	0.253698	-0.061344
C178	C	0.827288	-0.410027	-0.654391
C179	C	1.160622	-0.076694	-0.321058
C180	C	1.493955	0.256640	0.012275
C181	C	0.852314	-0.382978	-0.983419
C182	C	1.185648	-0.049645	-0.650086
C183	C	1.518981	0.283688	-0.316752
C184	C	0.849587	-0.385918	-1.057044
C185	C	1.182921	-0.052585	-0.723710
C186	C	1.516254	0.280748	-0.390377
C187	C	0.933128	-0.295734	-1.053491
C188	C	1.266461	0.037599	-0.720158
C189	C	1.599794	0.370933	-0.386825
C190	C	0.935858	-0.292799	-0.979871
C191	C	1.269191	0.040534	-0.646537
C192	C	1.602524	0.373867	-0.313204
C193	C	0.895449	-0.336418	-0.944838
C194	C	1.228782	-0.003085	-0.611505
C195	C	1.562115	0.330249	-0.278172
N196	N	0.862170	-0.372353	-0.838302
N197	N	1.195503	-0.039020	-0.504969
N198	N	1.528837	0.294313	-0.171635
N199	N	0.898240	-0.333408	-0.869587
N200	N	1.231573	-0.000075	-0.536254
N201	N	1.564907	0.333259	-0.202920
C202	C	0.886960	-0.345627	-0.170437
C203	C	1.220293	-0.012294	0.162896
C204	C	1.553626	0.321040	0.496229
C205	C	0.889990	-0.342299	-0.092077
C206	C	1.223323	-0.008966	0.241256
C207	C	1.556657	0.324368	0.574590
H208	H	0.325681	-0.338130	-0.237992
H209	H	0.659014	-0.004797	0.095342
H210	H	0.992348	0.328536	0.428675
O211	O	0.239678	-0.450569	-0.450955
O212	O	0.573011	-0.117235	-0.117621
O213	O	0.906345	0.216098	0.215712
H214	H	0.203603	-0.483203	-0.483526
H215	H	0.536936	-0.149870	-0.150193
H216	H	0.870270	0.183463	0.183140
O217	O	0.808735	-0.430010	-0.945620
O218	O	1.142069	-0.096676	-0.612287
O219	O	1.475402	0.236657	-0.278954
H220	H	0.779300	-0.397102	-0.910814
H221	H	1.112633	-0.063769	-0.577481
H222	H	1.445966	0.269564	-0.244147
O223	O	0.453708	-0.335990	-0.221100
O224	O	0.787041	-0.002657	0.112234
O225	O	1.120375	0.330676	0.445567
H226	H	0.421718	-0.330294	-0.176797
H227	H	0.755051	0.003039	0.156537
H228	H	1.088384	0.336373	0.489870
O229	O	0.803098	-1.097464	-0.436848
O230	O	1.136431	-0.764131	-0.103515
O231	O	1.469764	-0.430797	0.229819
H232	H	0.775459	-1.060772	-0.466638
H233	H	1.108792	-0.727439	-0.133305
H234	H	1.442125	-0.394105	0.200028
H235	H	0.819423	-0.953676	-0.419171
H236	H	1.152756	-0.620343	-0.085838
H237	H	1.486090	-0.287009	0.247496
O238	O	0.643312	-0.450654	-0.450796
O239	O	0.976645	-0.117320	-0.117463
O240	O	1.309979	0.216013	0.215870
H241	H	0.629088	-0.505475	-0.440835
H242	H	0.962422	-0.172141	-0.107502
H243	H	1.295755	0.161192	0.225831
H244	H	0.941000	-0.287268	-0.752985
H245	H	1.274333	0.046065	-0.419651
H246	H	1.607666	0.379399	-0.086318
H247	H	0.789435	-0.450878	-0.759433
H248	H	1.122768	-0.117545	-0.426100
H249	H	1.456101	0.215789	-0.092767
H250	H	0.789406	-0.758244	-0.451424
H251	H	1.122740	-0.424910	-0.118090
H252	H	1.456073	-0.091577	0.215243
H253	H	0.529001	-0.267847	-0.268616
H254	H	0.862334	0.065486	0.064718
H255	H	1.195667	0.398820	0.398051
O256	O	0.783704	-0.457071	-0.616608
O257	O	1.117037	-0.123738	-0.283275
O258	O	1.450370	0.209595	0.050059
H259	H	0.811630	-0.491593	-0.584504
H260	H	1.144964	-0.158259	-0.251171
H261	H	1.478297	0.175074	0.082162
H262	H	0.435238	-0.367891	-0.469198
H263	H	0.768571	-0.034557	-0.135864
H264	H	1.101905	0.298776	0.197469
O265	O	0.507299	-0.450653	-0.450816
O266	O	0.840632	-0.117319	-0.117482
O267	O	1.173965	0.216014	0.215851
H268	H	0.538709	-0.483325	-0.483341
H269	H	0.872042	-0.149991	-0.150008
H270	H	1.205375	0.183342	0.183325
O271	O	0.982384	-0.936826	-0.243481
O272	O	1.315717	-0.603493	0.089852
O273	O	1.649050	-0.270159	0.423185
H274	H	0.956929	-0.901908	-0.206222
H275	H	1.290262	-0.568574	0.127111
H276	H	1.623595	-0.235241	0.460444
H277	H	0.647715	-0.267861	-0.268569
H278	H	0.981048	0.065473	0.064764
H279	H	1.314382	0.398806	0.398097
O280	O	0.307219	-0.370020	-0.486097
O281	O	0.640552	-0.036687	-0.152764
O282	O	0.973886	0.296647	0.180569
H283	H	0.256645	-0.368623	-0.475413
H284	H	0.589979	-0.035289	-0.142080
H285	H	0.923312	0.298044	0.191253
H286	H	0.125361	-0.267760	-0.268774
H287	H	0.458695	0.065573	0.064559
H288	H	0.792028	0.398907	0.397893
O289	O	0.103661	-0.450629	-0.450916
O290	O	0.436994	-0.117296	-0.117583
O291	O	0.770327	0.216038	0.215750
H292	H	0.135073	-0.483325	-0.483414
H293	H	0.468407	-0.149992	-0.150081
H294	H	0.801740	0.183342	0.183253
O295	O	0.253613	-0.255395	-0.256336
O296	O	0.586947	0.077938	0.076998
O297	O	0.920280	0.411271	0.410331
H298	H	0.222201	-0.222748	-0.223788
H299	H	0.555534	0.110585	0.109545
H300	H	0.888868	0.443918	0.442878
H301	H	0.966054	-1.080609	-0.261164
H302	H	1.299387	-0.747275	0.072169
H303	H	1.632720	-0.413942	0.405502
H304	H	0.945891	-0.618035	-0.282645
H305	H	1.279224	-0.284702	0.050688
H306	H	1.612558	0.048631	0.384022
O307	O	0.803054	-0.436137	-1.098659
O308	O	1.136388	-0.102803	-0.765325
O309	O	1.469721	0.230530	-0.431992
H310	H	0.771132	-0.405923	-1.130927
H311	H	1.104465	-0.072590	-0.797593
H312	H	1.437798	0.260744	-0.464260
O313	O	0.982381	-0.242576	-0.938258
O314	O	1.315715	0.090757	-0.604925
O315	O	1.649048	0.424091	-0.271591
H316	H	0.977497	-0.247864	-0.881180
H317	H	1.310830	0.085470	-0.547847
H318	H	1.644163	0.418803	-0.214513
H319	H	0.940966	-0.751598	-0.288036
H320	H	1.274299	-0.418265	0.045297
H321	H	1.607633	-0.084931	0.378631
H322	H	0.794332	-0.624669	-0.446040
H323	H	1.127665	-0.291336	-0.112707
H324	H	1.460998	0.041997	0.220627
H325	H	0.945958	-0.281935	-0.619432
H326	H	1.279291	0.051399	-0.286098
H327	H	1.612625	0.384732	0.047235
H328	H	0.966026	-0.260221	-1.082023
H329	H	1.299359	0.073112	-0.748689
H330	H	1.632692	0.406445	-0.415356
