data_functionalizedCrystal
_audit_creation_method	'MofGen! by Chris Wilmer'
_symmetry_space_group_name_H-M	'P1'
_symmetry_Int_Tables_number	1
_symmetry_cell_setting	triclinic
loop_
_symmetry_equiv_pos_as_xyz
  x,y,z
_cell_length_a	11.792254
_cell_length_b	9.065218
_cell_length_c	7.540329
_cell_angle_alpha	89.998243
_cell_angle_beta	89.997091
_cell_angle_gamma	84.607241
loop_
_atom_site_label
_atom_site_type_symbol
_atom_site_fract_x
_atom_site_fract_y
_atom_site_fract_z
O1	O	1.508020	0.202311	-0.147473
O2	O	2.008020	0.702311	0.352527
O3	O	1.177796	0.223132	-0.147476
O4	O	1.677796	0.723132	0.352524
O5	O	1.349734	-0.001984	-0.147471
O6	O	1.849734	0.498016	0.352529
O7	O	1.336082	0.427428	-0.147479
O8	O	1.836082	0.927428	0.352521
O9	O	1.349723	-0.001987	0.147494
O10	O	1.849723	0.498013	0.647494
O11	O	1.177786	0.223130	0.147489
O12	O	1.677786	0.723130	0.647489
O13	O	1.508009	0.202308	0.147492
O14	O	2.008009	0.702308	0.647492
Cu15	Cu	1.342897	0.212719	0.174423
Cu16	Cu	1.842897	0.712719	0.674423
Cu17	Cu	1.342909	0.212722	-0.174408
Cu18	Cu	1.842909	0.712722	0.325592
O19	O	1.336072	0.427425	0.147487
O20	O	1.836072	0.927425	0.647487
C21	C	1.348416	-0.056960	0.000008
C22	C	1.848416	0.443040	0.500008
C23	C	1.344494	-0.220767	-0.000000
C24	C	1.844494	0.279233	0.500000
C25	C	1.135493	0.221819	0.000006
C26	C	1.635493	0.721819	0.500006
C27	C	1.009458	0.217894	0.000004
C28	C	1.509458	0.717894	0.500004
C29	C	0.907104	0.214704	-0.000003
C30	C	1.407104	0.714704	0.499997
C31	C	0.778695	0.210715	-0.000004
C32	C	1.278695	0.710715	0.499996
C33	C	1.550313	0.203621	0.000006
C34	C	2.050313	0.703621	0.500006
C35	C	1.676347	0.207547	-0.000005
C36	C	2.176347	0.707547	0.499995
C37	C	1.337389	0.482401	0.000003
C38	C	1.837389	0.982401	0.500003
C39	C	1.341312	0.646207	-0.000000
C40	C	1.841312	1.146207	0.500000
N41	N	1.342896	0.212715	0.419771
N42	N	1.842896	0.712715	0.919771
N43	N	1.342918	0.212713	-0.419756
N44	N	1.842918	0.712713	0.080244
