data_functionalizedCrystal
_audit_creation_method	'MofGen! by Chris Wilmer'
_symmetry_space_group_name_H-M	'P1'
_symmetry_Int_Tables_number	1
_symmetry_cell_setting	triclinic
loop_
_symmetry_equiv_pos_as_xyz
  x,y,z
_cell_length_a	13.897449
_cell_length_b	25.639240
_cell_length_c	13.897441
_cell_angle_alpha	90.041488
_cell_angle_beta	90.023394
_cell_angle_gamma	90.033584
loop_
_atom_site_label
_atom_site_type_symbol
_atom_site_fract_x
_atom_site_fract_y
_atom_site_fract_z
Zn1	Zn	1.474602	-0.208123	0.545377
Zn2	Zn	1.974602	0.291877	1.045377
Zn3	Zn	1.474453	-0.295565	0.384047
Zn4	Zn	1.974453	0.204435	0.884047
Zn5	Zn	1.313291	-0.208147	0.384088
Zn6	Zn	1.813291	0.291853	0.884088
Zn7	Zn	1.313230	-0.295530	0.545292
Zn8	Zn	1.813230	0.204470	1.045292
O9	O	1.393894	-0.251841	0.464701
O10	O	1.893894	0.248159	0.964701
O11	O	1.609564	-0.219727	0.523994
O12	O	2.109564	0.280273	1.023994
O13	O	1.453038	-0.283994	0.249071
O14	O	1.953038	0.216006	0.749071
O15	O	1.334777	-0.134978	0.405535
O16	O	1.834777	0.365022	0.905535
O17	O	1.609455	-0.283970	0.405466
O18	O	2.109455	0.216030	0.905466
O19	O	1.453291	-0.134961	0.524033
O20	O	1.953291	0.365039	1.024033
O21	O	1.334633	-0.219768	0.249100
O22	O	1.834633	0.280232	0.749100
O23	O	1.178301	-0.219734	0.405453
O24	O	1.678301	0.280266	0.905453
O25	O	1.334673	-0.283910	0.680285
O26	O	1.834673	0.216090	1.180285
O27	O	1.178257	-0.283934	0.523890
O28	O	1.678257	0.216066	1.023890
O29	O	1.453232	-0.219693	0.680347
O30	O	1.953232	0.280307	1.180347
O31	O	1.452979	-0.368726	0.405385
O32	O	1.952979	0.131274	0.905385
O33	O	1.334529	-0.368700	0.523851
O34	O	1.834529	0.131300	1.023851
C35	C	1.143280	-0.251833	0.464667
C36	C	1.643280	0.248167	0.964667
C37	C	1.036066	-0.251842	0.464676
C38	C	1.536066	0.248158	0.964676
C39	C	0.948996	-0.251844	0.464692
C40	C	1.448996	0.248156	0.964692
C41	C	0.839763	-0.251848	0.464721
C42	C	1.339763	0.248152	0.964721
C43	C	1.393758	-0.387684	0.464625
C44	C	1.893758	0.112316	0.964625
C45	C	1.393788	-0.445798	0.464625
C46	C	1.893788	0.054202	0.964625
C47	C	1.455635	-0.806113	0.526514
C48	C	1.955635	-0.306113	1.026514
C49	C	1.455663	-0.860717	0.526534
C50	C	1.955663	-0.360717	1.026534
O51	O	1.508086	-0.888914	0.579077
O52	O	2.008086	-0.388914	1.079077
N53	N	1.394028	-0.888080	0.464794
N54	N	1.894028	-0.388080	0.964794
C55	C	1.332353	-0.860836	0.403038
C56	C	1.832353	-0.360836	0.903038
O57	O	1.279929	-0.889124	0.350526
O58	O	1.779929	-0.389124	0.850526
C59	C	1.332320	-0.806233	0.403024
C60	C	1.832320	-0.306233	0.903024
C61	C	1.393967	-0.778873	0.464761
C62	C	1.893967	-0.278873	0.964761
C63	C	1.517276	-0.778753	0.588247
C64	C	2.017276	-0.278753	1.088247
C65	C	1.517248	-0.724152	0.588226
C66	C	2.017248	-0.224152	1.088226
C67	C	1.455580	-0.696912	0.526472
C68	C	1.955580	-0.196912	1.026472
C69	C	1.393939	-0.724272	0.464740
C70	C	1.893939	-0.224272	0.964740
C71	C	1.270641	-0.778989	0.341273
C72	C	1.770641	-0.278989	0.841273
C73	C	1.270613	-0.724382	0.341265
C74	C	1.770613	-0.224382	0.841265
C75	C	1.332260	-0.697022	0.403002
C76	C	1.832260	-0.197022	0.903002
C77	C	1.332244	-0.642431	0.402965
C78	C	1.832244	-0.142431	0.902965
N79	N	1.393879	-0.615068	0.464704
N80	N	1.893879	-0.115068	0.964704
C81	C	1.455548	-0.642309	0.526458
C82	C	1.955548	-0.142309	1.026458
C83	C	1.332425	-0.975506	0.403073
C84	C	1.832425	-0.475506	0.903073
C85	C	1.332461	-1.030109	0.403081
C86	C	1.832461	-0.530109	0.903081
C87	C	1.455771	-1.029986	0.526579
C88	C	1.955771	-0.529986	1.026579
C89	C	1.455739	-0.975383	0.526565
C90	C	1.955739	-0.475383	1.026565
C91	C	1.394060	-0.948144	0.464813
C92	C	1.894060	-0.448144	0.964813
C93	C	1.455486	-0.527644	0.526409
C94	C	1.955486	-0.027644	1.026409
C95	C	1.455456	-0.473038	0.526379
C96	C	1.955456	0.026962	1.026379
C97	C	1.332143	-0.473165	0.402885
C98	C	1.832143	0.026835	0.902885
C99	C	1.332176	-0.527766	0.402911
C100	C	1.832176	-0.027766	0.902911
C101	C	1.393851	-0.555004	0.464680
C102	C	1.893851	-0.055004	0.964680
O103	O	1.279845	-0.614200	0.350452
O104	O	1.779845	-0.114200	0.850452
O105	O	1.507954	-0.614014	0.578970
O106	O	2.007954	-0.114014	1.078970
C107	C	1.645487	-0.251850	0.464735
C108	C	2.145487	0.248150	0.964735
C109	C	1.752701	-0.251853	0.464750
C110	C	2.252701	0.248147	0.964750
C111	C	1.393962	-0.251795	0.716294
C112	C	1.893962	0.248205	1.216294
C113	C	1.393992	-0.251775	0.823508
C114	C	1.893992	0.248225	1.323508
C115	C	1.394057	-0.115468	0.464798
C116	C	1.894057	0.384532	0.964798
C117	C	1.394127	-0.057354	0.464839
C118	C	1.894127	0.442646	0.964839
C119	C	1.393881	-0.251849	0.214087
C120	C	1.893881	0.248151	0.714087
C121	C	1.394039	-0.251722	0.106873
C122	C	1.894039	0.248278	0.606873
C123	C	1.394018	-0.251740	1.019803
C124	C	1.894018	0.248260	1.519803
C125	C	1.394000	-0.251761	0.910571
C126	C	1.894000	0.248239	1.410571
H127	H	1.505701	-0.549814	0.576714
H128	H	2.005701	-0.049814	1.076714
H129	H	1.567444	-0.701879	0.638500
H130	H	2.067444	-0.201879	1.138500
H131	H	1.282273	-1.052381	0.352799
H132	H	1.782273	-0.552381	0.852799
N133	N	1.518423	-0.445086	0.589444
N134	N	2.018423	0.054914	1.089444
N135	N	1.484451	-0.414597	0.650866
N136	N	1.984451	0.085403	1.150866
H137	H	1.528922	-0.394855	0.695399
H138	H	2.028922	0.105145	1.195399
N139	N	1.580276	-0.806565	0.651344
N140	N	2.080276	-0.306565	1.151344
N141	N	1.635299	-0.782119	0.706454
N142	N	2.135299	-0.282119	1.206454
H143	H	1.679802	-0.801758	0.751017
H144	H	2.179802	-0.301758	1.251017
N145	N	1.269411	-0.947686	0.339994
N146	N	1.769411	-0.447686	0.839994
N147	N	1.180406	-0.953831	0.346311
N148	N	1.680406	-0.453831	0.846311
H149	H	1.135899	-0.934186	0.301764
H150	H	1.635899	-0.434186	0.801764
H151	H	1.281986	-0.550044	0.352632
H152	H	1.781986	-0.050044	0.852632
N153	N	1.518717	-0.947446	0.589631
N154	N	2.018717	-0.447446	1.089631
N155	N	1.573775	-0.971781	0.644756
N156	N	2.073775	-0.471781	1.144756
H157	H	1.618256	-0.952054	0.689301
H158	H	2.118256	-0.452054	1.189301
N159	N	1.518764	-1.057826	0.589652
N160	N	2.018764	-0.557826	1.089652
N161	N	1.518776	-1.106578	0.589649
N162	N	2.018776	-0.606578	1.089649
H163	H	1.563263	-1.126242	0.634189
H164	H	2.063263	-0.626242	1.134189
N165	N	1.207623	-0.696551	0.278181
N166	N	1.707623	-0.196551	0.778181
N167	N	1.207602	-0.647798	0.278164
N168	N	1.707602	-0.147798	0.778164
H169	H	1.163118	-0.628142	0.233610
H170	H	1.663118	-0.128142	0.733610
N171	N	1.207651	-0.806920	0.278214
N172	N	1.707651	-0.306920	0.778214
N173	N	1.152587	-0.782581	0.223102
N174	N	1.652587	-0.282581	0.723102
H175	H	1.108089	-0.802305	0.178569
H176	H	1.608089	-0.302305	0.678569
N177	N	1.269170	-0.445326	0.339804
N178	N	1.769170	0.054674	0.839804
N179	N	1.269163	-0.396574	0.339801
N180	N	1.769163	0.103426	0.839801
H181	H	1.224687	-0.376910	0.295250
H182	H	1.724687	0.123090	0.795250
