data_functionalizedCrystal
_audit_creation_method	'MofGen! by Chris Wilmer'
_symmetry_space_group_name_H-M	'P1'
_symmetry_Int_Tables_number	1
_symmetry_cell_setting	triclinic
loop_
_symmetry_equiv_pos_as_xyz
  x,y,z
_cell_length_a	12.811445
_cell_length_b	12.837942
_cell_length_c	11.892283
_cell_angle_alpha	94.307221
_cell_angle_beta	91.506393
_cell_angle_gamma	89.412982
loop_
_atom_site_label
_atom_site_type_symbol
_atom_site_fract_x
_atom_site_fract_y
_atom_site_fract_z
O1	O	1.391416	0.156321	0.236627
O2	O	1.891416	0.656321	0.736627
O3	O	1.089343	0.169330	0.205666
O4	O	1.589343	0.669330	0.705666
O5	O	1.233682	0.011845	0.220453
O6	O	1.733682	0.511845	0.720453
O7	O	1.247077	0.313806	0.221840
O8	O	1.747077	0.813806	0.721840
O9	O	1.245691	-0.001265	0.033681
O10	O	1.745691	0.498735	0.533681
O11	O	1.101352	0.156220	0.018894
O12	O	1.601352	0.656220	0.518894
O13	O	1.403425	0.143211	0.049855
O14	O	1.903425	0.643211	0.549855
Zn15	Zn	1.254295	0.147634	0.004720
Zn16	Zn	1.754295	0.647634	0.504720
Zn17	Zn	1.238473	0.164907	0.250801
Zn18	Zn	1.738473	0.664907	0.750801
O19	O	1.259086	0.300696	0.035068
O20	O	1.759086	0.800696	0.535068
C21	C	1.056415	0.161643	0.108289
C22	C	1.556415	0.661643	0.608289
C23	C	0.940408	0.158257	0.096399
C24	C	1.440408	0.658257	0.596399
C25	C	0.709321	0.166208	0.277695
C26	C	1.209321	0.666208	0.777695
C27	C	0.600321	0.163028	0.266527
C28	C	1.100321	0.663028	0.766527
C29	C	0.613406	0.148724	0.062897
C30	C	1.113406	0.648724	0.562897
C31	C	0.722406	0.151904	0.074065
C32	C	1.222406	0.651904	0.574065
C33	C	0.770359	0.160645	0.181467
C34	C	1.270359	0.660645	0.681467
C35	C	0.879361	0.163818	0.192633
C36	C	1.379361	0.663818	0.692633
C37	C	0.892444	0.149521	-0.010996
C38	C	1.392444	0.649521	0.489004
C39	C	0.783444	0.146341	-0.022163
C40	C	1.283444	0.646341	0.477837
C41	C	1.235161	-0.033383	0.126604
C42	C	1.735161	0.466617	0.626604
C43	C	1.221664	-0.148616	0.125222
C44	C	1.721664	0.351384	0.625222
C45	C	1.383922	-0.387698	0.141877
C46	C	1.883922	0.112302	0.641877
C47	C	1.371245	-0.495970	0.140579
C48	C	1.871245	0.004030	0.640579
C49	C	1.183633	-0.473434	0.121338
C50	C	1.683633	0.026566	0.621338
C51	C	1.196310	-0.365162	0.122635
C52	C	1.696310	0.134838	0.622635
C53	C	1.296458	-0.322298	0.132903
C54	C	1.796458	0.177702	0.632903
C55	C	1.309134	-0.214024	0.134193
C56	C	1.809134	0.285976	0.634193
C57	C	1.121523	-0.191490	0.114960
C58	C	1.621523	0.308510	0.614960
C59	C	1.108846	-0.299762	0.113662
C60	C	1.608846	0.200238	0.613662
C61	C	1.436353	0.150898	0.147234
C62	C	1.936353	0.650898	0.647234
C63	C	1.552360	0.154284	0.159132
C64	C	2.052360	0.654284	0.659132
C65	C	1.257607	0.345924	0.128920
C66	C	1.757607	0.845924	0.628920
C67	C	1.271104	0.461158	0.130309
C68	C	1.771104	0.961158	0.630309
N69	N	1.265100	0.135846	-0.163222
N70	N	1.765100	0.635846	0.336778
C71	C	1.340395	0.053765	-0.333012
C72	C	1.840395	0.553765	0.166988
C73	C	1.332820	0.062014	-0.215450
C74	C	1.832820	0.562014	0.284550
C75	C	1.204954	0.201436	-0.228566
C76	C	1.704954	0.701436	0.271434
C77	C	1.212530	0.193188	-0.346128
C78	C	1.712530	0.693188	0.153872
C79	C	1.280251	0.119349	-0.398347
C80	C	1.780251	0.619349	0.101653
C81	C	1.287821	0.111096	-0.515913
C82	C	1.787821	0.611096	-0.015913
C83	C	1.159962	0.250523	-0.529026
C84	C	1.659962	0.750523	-0.029026
C85	C	1.152386	0.258772	-0.411463
C86	C	1.652386	0.758772	0.088537
N87	N	1.227675	0.176687	0.418744
N88	N	1.727675	0.676687	0.918744
H89	H	0.744385	0.139227	-0.109607
H90	H	1.244385	0.639227	0.390393
H91	H	0.942153	0.144989	-0.089351
H92	H	1.442153	0.644989	0.410649
Br93	Br	1.489950	-0.584724	0.152766
Br94	Br	1.989950	-0.084724	0.652766
Br95	Br	1.078324	0.339524	-0.617707
Br96	Br	1.578324	0.839524	-0.117707
H97	H	1.390679	-0.179127	0.142549
H98	H	1.890679	0.320873	0.642549
H99	H	1.381796	0.008610	-0.162256
H100	H	1.881796	0.508610	0.337744
Br101	Br	1.379722	0.010883	-0.586781
Br102	Br	1.879722	0.510883	-0.086781
Br103	Br	1.432285	-0.046456	-0.403885
Br104	Br	1.932285	0.453544	0.096115
Br105	Br	1.519833	-0.329522	0.155777
Br106	Br	2.019833	0.170478	0.655777
Br107	Br	0.774407	0.178051	0.423449
Br108	Br	1.274407	0.678051	0.923449
Br109	Br	1.113067	0.301655	-0.157684
Br110	Br	1.613067	0.801655	0.342316
Br111	Br	0.517485	0.170586	0.397128
Br112	Br	1.017485	0.670586	0.897128
H113	H	1.097251	0.318893	-0.368933
H114	H	1.597251	0.818893	0.131067
H115	H	1.102097	-0.508353	0.112990
H116	H	1.602097	-0.008353	0.612990
H117	H	0.918403	0.170935	0.280086
H118	H	1.418403	0.670935	0.780086
Br119	Br	1.002815	-0.102729	0.102761
Br120	Br	1.502815	0.397271	0.602761
Br121	Br	0.548307	0.136886	-0.082851
Br122	Br	1.048307	0.636886	0.417149
Br123	Br	0.972937	-0.357944	0.099742
Br124	Br	1.472937	0.142056	0.599742
