data_functionalizedCrystal
_audit_creation_method	'MofGen! by Chris Wilmer'
_symmetry_space_group_name_H-M	'P1'
_symmetry_Int_Tables_number	1
_symmetry_cell_setting	triclinic
loop_
_symmetry_equiv_pos_as_xyz
  x,y,z
_cell_length_a	15.944499
_cell_length_b	14.421503
_cell_length_c	10.654550
_cell_angle_alpha	89.995515
_cell_angle_beta	83.981270
_cell_angle_gamma	90.010221
loop_
_atom_site_label
_atom_site_type_symbol
_atom_site_fract_x
_atom_site_fract_y
_atom_site_fract_z
O1	O	1.115492	0.077167	0.161639
O2	O	0.871052	0.077157	0.181676
O3	O	0.998892	0.077156	-0.011156
O4	O	0.987652	0.077167	0.354471
O5	O	0.998871	-0.077067	-0.011127
O6	O	0.871031	-0.077067	0.181705
O7	O	1.115471	-0.077056	0.161668
Cu8	Cu	0.993249	-0.091143	0.171689
Cu9	Cu	0.993274	0.091244	0.171655
O10	O	0.987631	-0.077056	0.354500
C11	C	0.839742	0.000044	0.180870
C12	C	0.746480	0.000040	0.178411
N13	N	0.993237	-0.219425	0.171712
C14	C	0.455592	0.000057	0.290441
C15	C	0.516295	0.076097	0.232191
C16	C	0.410791	0.000061	0.169476
C17	C	0.516259	-0.075955	0.232186
C18	C	0.575726	0.000049	0.173872
C19	C	0.470266	0.076164	0.111192
C20	C	0.470224	-0.075957	0.111205
C21	C	0.530909	0.000102	0.052866
C22	C	0.315777	0.000068	0.166947
C23	C	0.670739	0.000048	0.176392
C24	C	0.934114	-0.469078	0.260837
C25	C	1.010156	-0.530877	0.285197
C26	C	0.993258	-0.408586	0.171682
C27	C	0.917235	-0.530881	0.147352
C28	C	0.993271	-0.591307	0.171656
C29	C	1.069339	-0.469024	0.196098
C30	C	0.976367	-0.469023	0.058204
C31	C	1.052465	-0.530794	0.082515
C32	C	0.993249	-0.303325	0.171700
C33	C	0.993288	-0.696566	0.171637
C34	C	1.146781	0.000059	0.162474
C35	C	1.240043	0.000069	0.164933
C36	C	0.998056	0.000045	-0.057929
C37	C	0.995587	0.000046	-0.197339
N38	N	0.993292	0.219525	0.171622
C39	C	1.070857	0.000050	-0.277820
C40	C	1.068532	0.000061	-0.408810
C41	C	0.915660	0.000061	-0.378826
C42	C	0.917986	0.000057	-0.247839
C43	C	1.157190	0.054101	-0.605836
C44	C	1.232464	0.054089	-0.686322
C45	C	1.300695	0.000046	-0.657042
C46	C	1.293654	-0.054007	-0.547278
C47	C	1.218379	-0.054003	-0.466799
C48	C	1.150151	0.000061	-0.496078
C49	C	0.829334	-0.053991	-0.050811
C50	C	0.754057	-0.053994	0.029671
C51	C	0.685820	0.000044	0.000395
C52	C	0.692852	0.054083	-0.109371
C53	C	0.768128	0.054085	-0.189853
C54	C	0.836366	0.000050	-0.160567
C55	C	0.988467	0.000057	0.401273
C56	C	0.990936	0.000062	0.540683
H57	H	0.422843	0.000133	0.390830
H58	H	0.450000	0.140522	0.060064
H59	H	0.884149	-0.441980	0.336294
H60	H	0.852938	-0.558055	0.126785
C61	C	1.156214	0.000049	-0.222273
H62	H	1.200708	0.000061	-0.288970
H63	H	1.160294	-0.053733	-0.171794
H64	H	1.160305	0.053836	-0.171804
C65	C	1.210627	-0.113445	-0.346064
H66	H	1.156024	-0.105700	-0.302329
H67	H	1.251980	-0.094459	-0.293381
H68	H	1.219084	-0.176854	-0.368002
H69	H	0.563504	0.000139	-0.047613
C70	C	1.368704	-0.113468	-0.515080
H71	H	1.353727	-0.145663	-0.438193
H72	H	1.415786	-0.074528	-0.506272
H73	H	1.382890	-0.156914	-0.580909
H74	H	0.449803	-0.140248	0.060095
H75	H	0.536622	-0.140239	0.283382
C76	C	0.543865	0.162940	0.301286
H77	H	0.581232	0.198740	0.245309
H78	H	0.571712	0.144661	0.371878
H79	H	0.495651	0.199003	0.329284
H80	H	1.024455	-0.558045	0.381152
C81	C	1.156216	-0.432480	0.224052
H82	H	1.155671	-0.366607	0.223938
H83	H	1.198255	-0.454103	0.161090
H84	H	1.168308	-0.454174	0.304400
C85	C	1.120109	-0.567182	-0.019354
H86	H	1.174061	-0.545887	-0.001868
H87	H	1.108566	-0.545067	-0.099750
H88	H	1.119442	-0.633052	-0.019266
H89	H	1.361984	0.000037	-0.722582
H90	H	0.962045	-0.441833	-0.037721
C91	C	0.775870	0.113530	-0.310593
H92	H	0.830472	0.105785	-0.354334
H93	H	0.767397	0.176932	-0.288661
H94	H	0.734522	0.094527	-0.363285
C95	C	1.240211	0.113552	-0.807046
H96	H	1.188799	0.145757	-0.812948
H97	H	1.251858	0.074607	-0.878650
H98	H	1.284752	0.156989	-0.804004
C99	C	1.082140	0.113562	-0.638033
H100	H	1.036304	0.105837	-0.574374
H101	H	1.065458	0.094577	-0.717098
H102	H	1.098357	0.176965	-0.642468
H103	H	0.852480	0.000068	-0.419959
H104	H	0.637279	0.098066	-0.133226
C105	C	0.746322	-0.113435	0.150413
H106	H	0.797747	-0.145609	0.156336
H107	H	0.701793	-0.156884	0.147394
H108	H	0.734668	-0.074473	0.222008
H109	H	0.624522	0.000025	0.065926
C110	C	0.904400	-0.113430	-0.018605
H111	H	0.950241	-0.105680	-0.082249
H112	H	0.888203	-0.176833	-0.014166
H113	H	0.921074	-0.094431	0.060467
