data_functionalizedCrystal
_audit_creation_method	'MofGen! by Chris Wilmer'
_symmetry_space_group_name_H-M	'P1'
_symmetry_Int_Tables_number	1
_symmetry_cell_setting	triclinic
loop_
_symmetry_equiv_pos_as_xyz
  x,y,z
_cell_length_a	16.109301
_cell_length_b	27.732048
_cell_length_c	14.586319
_cell_angle_alpha	89.991275
_cell_angle_beta	89.999213
_cell_angle_gamma	83.052068
loop_
_atom_site_label
_atom_site_type_symbol
_atom_site_fract_x
_atom_site_fract_y
_atom_site_fract_z
O1	O	1.102362	0.062130	-0.076193
O2	O	0.860204	0.069862	-0.076208
O3	O	0.988804	-0.004369	-0.076183
O4	O	0.973762	0.136361	-0.076218
O5	O	0.988795	-0.004370	0.076298
O6	O	0.860195	0.069861	0.076272
O7	O	1.102353	0.062129	0.076288
Cu8	Cu	0.981273	0.065995	0.090203
Cu9	Cu	0.981283	0.065996	-0.090123
O10	O	0.973753	0.136360	0.076262
C11	C	0.829228	0.069548	0.000030
C12	C	0.736945	0.068609	0.000025
C13	C	0.988483	-0.022378	0.000060
C14	C	0.987533	-0.076037	0.000068
C15	C	0.514154	0.110473	0.000025
C16	C	0.427445	0.109587	0.000031
C17	C	0.448409	0.021514	0.000050
C18	C	0.535117	0.022401	0.000050
C19	C	0.567987	0.066882	0.000033
C20	C	0.394570	0.065109	0.000039
C21	C	0.300556	0.064148	0.000045
C22	C	0.662007	0.067843	0.000028
C23	C	1.057541	-0.414559	0.000025
C24	C	1.054013	-0.616233	0.000012
O25	O	1.118031	-0.647221	-0.000024
N26	N	0.977759	-0.635676	0.000008
C27	C	0.902381	-0.604697	0.000001
O28	O	0.837441	-0.625862	-0.000012
C29	C	0.905910	-0.403024	0.000008
C30	C	0.982169	-0.383584	0.000021
C31	C	1.133794	-0.395119	0.000038
C32	C	1.134675	-0.344703	0.000046
C33	C	1.059303	-0.313728	0.000042
C34	C	0.983050	-0.333168	0.000029
C35	C	0.830533	-0.372045	-0.000006
C36	C	0.831422	-0.321624	-0.000006
C37	C	0.907681	-0.302184	0.000007
C38	C	0.908559	-0.251777	0.000034
N39	N	0.984814	-0.232334	0.000038
C40	C	1.060186	-0.263310	0.000042
C41	C	0.900534	-0.710579	-0.000000
C42	C	0.899652	-0.760997	-0.000000
C43	C	1.051284	-0.772530	0.000009
C44	C	1.052166	-0.722111	0.000016
C45	C	0.976789	-0.691136	0.000004
C46	C	1.062030	-0.157433	0.000060
C47	C	1.062905	-0.107012	0.000072
C48	C	0.911273	-0.095484	0.000058
C49	C	0.910398	-0.145900	0.000051
C50	C	0.985783	-0.176874	0.000049
O51	O	0.844576	-0.220761	0.000059
O52	O	1.125116	-0.242135	0.000035
C53	C	1.056660	-0.464975	0.000017
C54	C	0.980407	-0.484415	0.000005
C55	C	0.905035	-0.453440	0.000001
C56	C	0.979525	-0.534833	0.000005
C57	C	1.054897	-0.565808	0.000009
C58	C	1.131151	-0.546365	0.000013
C59	C	1.132032	-0.495950	0.000021
C60	C	0.828781	-0.472883	-0.000004
C61	C	0.827906	-0.523299	-0.000011
C62	C	0.903278	-0.554274	-0.000007
C63	C	1.133328	0.062443	0.000048
C64	C	1.225612	0.063382	0.000047
C65	C	0.974073	0.154369	0.000017
C66	C	0.975024	0.208028	0.000004
N67	N	0.981272	0.065994	0.217035
N68	N	0.981291	0.065994	-0.216955
C69	C	1.038234	0.033135	0.452053
C70	C	1.038237	0.033134	0.548034
C71	C	0.924323	0.098854	0.548020
C72	C	0.924317	0.098852	0.452041
C73	C	0.981278	0.065993	0.404060
C74	C	0.981286	0.065994	0.596020
C75	C	0.981288	0.065993	0.700087
C76	C	0.981275	0.065994	0.299986
H77	H	0.383617	0.145084	0.000026
H78	H	0.767402	-0.447667	-0.000009
C79	C	0.861664	0.134999	0.399245
H80	H	0.827749	0.154574	0.441566
H81	H	0.827280	0.117605	0.361812
H82	H	0.891316	0.155126	0.361795
C83	C	0.861679	0.135000	0.600803
H84	H	0.869845	0.130299	0.664839
H85	H	0.806260	0.129743	0.585083
H86	H	0.870300	0.167262	0.585058
H87	H	0.540913	0.146692	0.000018
H88	H	1.084614	0.006379	0.412988
H89	H	1.192521	-0.571594	0.000020
C90	C	0.412249	-0.027410	0.000057
H91	H	0.352899	-0.021696	0.000045
H92	H	0.430764	-0.045362	0.053232
H93	H	0.430769	-0.045355	-0.053122
H94	H	1.125007	-0.091187	0.000085
C95	C	0.594337	-0.025552	0.000055
H96	H	0.562344	-0.052170	0.000051
H97	H	0.628598	-0.027038	0.053228
H98	H	0.628596	-0.027033	-0.053125
H99	H	1.123416	-0.182646	0.000055
C100	C	1.218561	-0.323325	0.000043
H101	H	1.263317	-0.348999	0.000034
H102	H	1.222068	-0.303901	0.053214
H103	H	1.222058	-0.303895	-0.053140
C104	C	1.216711	-0.429184	0.000050
H105	H	1.262243	-0.410378	0.000064
H106	H	1.219537	-0.449091	-0.053120
H107	H	1.219516	-0.449093	0.053234
C108	C	1.100887	-0.003009	0.600827
H109	H	1.092729	0.001692	0.664861
H110	H	1.156304	0.002248	0.585093
H111	H	1.092267	-0.035272	0.585105
C112	C	0.748505	-0.287555	-0.000016
H113	H	0.702967	-0.306357	-0.000017
H114	H	0.745699	-0.267640	-0.053186
H115	H	0.745690	-0.267654	0.053168
C116	C	1.136050	-0.700731	0.000022
H117	H	1.180808	-0.726404	0.000020
H118	H	1.139548	-0.681306	0.053193
H119	H	1.139552	-0.681302	-0.053161
H120	H	1.112655	-0.797759	0.000013
H121	H	0.837554	-0.776820	0.000005
H122	H	0.768435	-0.387864	-0.000022
C123	C	0.826515	-0.167285	0.000034
H124	H	0.781754	-0.141614	0.000027
H125	H	0.823008	-0.186724	0.053197
H126	H	0.823029	-0.186702	-0.053157
C127	C	0.817614	-0.676512	-0.000001
H128	H	0.772080	-0.695317	0.000007
H129	H	0.814796	-0.656598	-0.053171
H130	H	0.814803	-0.656611	0.053182
H131	H	1.194130	-0.480127	0.000032
C132	C	0.828368	-0.061407	0.000047
H133	H	0.782822	-0.080203	0.000044
H134	H	0.825574	-0.041495	-0.053126
H135	H	0.825556	-0.041504	0.053228
C136	C	0.744015	-0.544677	-0.000028
H137	H	0.699256	-0.519004	-0.000039
H138	H	0.740503	-0.564113	0.053137
H139	H	0.740526	-0.564095	-0.053216
