data_functionalizedCrystal
_audit_creation_method	'MofGen! by Chris Wilmer'
_symmetry_space_group_name_H-M	'P1'
_symmetry_Int_Tables_number	1
_symmetry_cell_setting	triclinic
loop_
_symmetry_equiv_pos_as_xyz
  x,y,z
_cell_length_a	10.967926
_cell_length_b	14.853567
_cell_length_c	9.482900
_cell_angle_alpha	99.351342
_cell_angle_beta	92.549900
_cell_angle_gamma	84.184248
loop_
_atom_site_label
_atom_site_type_symbol
_atom_site_fract_x
_atom_site_fract_y
_atom_site_fract_z
O1	O	1.610470	0.159152	0.282597
O2	O	1.261260	0.161129	0.195106
O3	O	1.445194	0.029232	0.241184
O4	O	1.426537	0.291049	0.236519
O5	O	1.407833	0.056136	0.473617
O6	O	1.223899	0.188033	0.427539
O7	O	1.573109	0.186056	0.515030
Cu8	Cu	1.395093	0.189501	0.492507
Cu9	Cu	1.439277	0.157684	0.217628
O10	O	1.389176	0.317953	0.468952
C11	C	1.197889	0.172404	0.300125
C12	C	1.064725	0.165908	0.266762
C13	C	0.986002	0.176948	0.372294
C14	C	0.848369	0.170234	0.337814
C15	C	1.425669	0.009066	0.357185
C16	C	1.423138	-0.091107	0.356538
C17	C	1.303165	-0.507775	0.326508
C18	C	1.521682	-0.521519	0.381255
C19	C	1.524065	-0.427404	0.381843
C20	C	1.415996	-0.373470	0.354766
C21	C	1.305544	-0.413651	0.327100
C22	C	1.634513	-0.387215	0.409523
C23	C	1.636900	-0.293094	0.410114
C24	C	1.528831	-0.239160	0.383026
C25	C	1.418375	-0.279346	0.355358
C26	C	1.310307	-0.225412	0.328280
C27	C	1.199851	-0.265597	0.300601
C28	C	1.197476	-0.359716	0.300012
C29	C	1.531206	-0.145041	0.383616
C30	C	1.312686	-0.131287	0.328872
C31	C	1.636481	0.174781	0.410007
C32	C	1.769647	0.181276	0.443362
C33	C	1.408701	0.338119	0.352948
C34	C	1.411234	0.438291	0.353585
N35	N	1.364025	0.211880	0.685845
N36	N	1.470354	0.135299	0.024294
C37	C	1.430105	0.164280	0.774598
C38	C	1.404265	0.182906	0.935542
H39	H	1.020498	0.191366	0.488171
H40	H	1.107548	-0.392444	0.277478
F41	F	1.528842	0.092822	0.718131
F42	F	1.569511	0.064161	0.967940
F43	F	1.305303	0.254196	0.991947
F44	F	1.265068	0.283166	0.742257
H45	H	1.111860	-0.221671	0.278564
H46	H	1.726840	-0.260384	0.432650
H47	H	1.722494	-0.431133	0.431581
F48	F	0.803295	0.151374	0.186343
H49	H	0.804135	0.195697	0.559247
H50	H	1.030229	0.151482	0.150885
H51	H	1.621136	-0.112325	0.406161
H52	H	1.224682	-0.087380	0.306816
H53	H	1.213236	-0.540499	0.303967
H54	H	1.609665	-0.565437	0.403311
