data_functionalizedCrystal
_audit_creation_method	'MofGen! by Chris Wilmer'
_symmetry_space_group_name_H-M	'P1'
_symmetry_Int_Tables_number	1
_symmetry_cell_setting	triclinic
loop_
_symmetry_equiv_pos_as_xyz
  x,y,z
_cell_length_a	19.077236
_cell_length_b	19.121063
_cell_length_c	19.076919
_cell_angle_alpha	85.393653
_cell_angle_beta	90.112677
_cell_angle_gamma	94.855924
loop_
_atom_site_label
_atom_site_type_symbol
_atom_site_fract_x
_atom_site_fract_y
_atom_site_fract_z
Zn1	Zn	1.046920	-0.255828	0.451002
Zn2	Zn	1.046539	-0.368770	0.338113
Zn3	Zn	0.934152	-0.255459	0.328767
Zn4	Zn	0.923941	-0.378172	0.451236
O5	O	0.987888	-0.314557	0.392279
O6	O	1.145371	-0.267030	0.439841
O7	O	1.035745	-0.349650	0.238375
O8	O	0.953543	-0.156885	0.340972
O9	O	1.145091	-0.350008	0.356902
O10	O	1.036393	-0.157156	0.430778
O11	O	0.953174	-0.266400	0.231509
O12	O	0.834295	-0.275517	0.341199
O13	O	0.936140	-0.366033	0.549703
O14	O	0.826793	-0.365674	0.431176
O15	O	1.026492	-0.276147	0.549531
O16	O	1.025844	-0.468640	0.357129
O17	O	0.935771	-0.475548	0.440239
C18	C	0.805004	-0.321576	0.385199
C19	C	0.726764	-0.324597	0.382188
C20	C	0.690147	-0.282888	0.424026
C21	C	0.616632	-0.285723	0.421191
C22	C	0.579736	-0.330270	0.376519
C23	C	0.616359	-0.371980	0.334676
C24	C	0.689872	-0.369142	0.337509
C25	C	0.359860	-0.343381	0.363406
C26	C	0.286341	-0.346218	0.360578
C27	C	0.286620	-0.259959	0.447092
C28	C	0.360135	-0.257127	0.449924
C29	C	0.396751	-0.298835	0.408078
N30	N	0.504593	-0.333170	0.373621
N31	N	0.471894	-0.295931	0.410973
C32	C	0.979677	-0.497666	0.399740
C33	C	0.976227	-0.575999	0.402957
C34	C	1.021536	-0.609180	0.361236
C35	C	1.018296	-0.682783	0.364266
C36	C	0.969743	-0.723203	0.409014
C37	C	0.924432	-0.690016	0.450740
C38	C	0.927676	-0.616415	0.447713
C39	C	0.957603	-0.945612	0.420321
C40	C	0.954361	-1.019218	0.423343
C41	C	1.048226	-1.011979	0.336870
C42	C	1.051463	-0.938377	0.333843
C43	C	1.006155	-0.905197	0.375572
C44	C	0.966428	-0.798436	0.412111
C45	C	1.009473	-0.829965	0.372478
C46	C	1.171486	-0.307511	0.399388
C47	C	1.249724	-0.304509	0.402417
C48	C	0.980219	-0.322180	0.575870
C49	C	0.976952	-0.325428	0.654106
C50	C	0.996150	-0.130734	0.384806
C51	C	0.999670	-0.052399	0.381622
C52	C	0.995569	-0.306912	0.209402
C53	C	0.998982	-0.303460	0.131164
C54	C	1.022455	-0.280158	0.690773
C55	C	1.019376	-0.283207	0.764283
C56	C	0.970797	-0.331531	0.801125
C57	C	0.925288	-0.376804	0.764453
C58	C	0.928364	-0.373750	0.690944
C59	C	0.956549	-0.345679	1.020983
C60	C	0.953478	-0.348731	1.094497
C61	C	1.047566	-0.255133	1.094322
C62	C	1.050641	-0.252086	1.020812
C63	C	1.005130	-0.297356	0.984146
N64	N	0.967650	-0.334651	0.876264
N65	N	1.008274	-0.294232	0.909008
H66	H	0.720182	-0.246615	0.460405
H67	H	0.913916	-0.388084	1.124492
N68	N	0.879278	-0.422576	0.651399
H69	H	0.887408	-0.473045	0.666660
H70	H	0.888616	-0.413250	0.599252
H71	H	0.586312	-0.408248	0.298300
N72	N	0.901995	-1.062816	0.471613
H73	H	0.869244	-1.093454	0.442975
H74	H	0.873834	-1.030583	0.497580
N75	N	0.577138	-0.240723	0.466302
H76	H	0.611667	-0.212071	0.495030
H77	H	0.543990	-0.271977	0.498826
N78	N	0.246537	-0.394263	0.312396
H79	H	0.256625	-0.444593	0.325785
H80	H	0.261923	-0.380597	0.262181
N81	N	0.872895	-0.428930	0.804189
H82	H	0.844535	-0.457145	0.769804
H83	H	0.840334	-0.402761	0.832261
H84	H	0.890782	-0.589400	0.481688
H85	H	1.061070	-0.576275	0.324794
H86	H	0.919501	-0.382551	0.991139
H87	H	0.390170	-0.220855	0.486303
N88	N	1.067164	-0.718572	0.319267
H89	H	1.098411	-0.681798	0.290457
H90	H	1.038550	-0.748896	0.286822
N91	N	1.096640	-0.206304	1.133875
H92	H	1.088503	-0.155838	1.118609
H93	H	1.146957	-0.214845	1.123466
H94	H	0.256799	-0.226002	0.481160
H95	H	1.062017	-0.240809	0.660781
H96	H	0.920710	-0.918602	0.454296
H97	H	0.389664	-0.377343	0.329333
H98	H	0.719685	-0.403105	0.303439
H99	H	1.090999	-0.905468	0.297406
H100	H	1.049008	-0.797053	0.336047
H101	H	1.085115	-1.039002	0.302898
N102	N	1.068452	-0.234365	0.803819
H103	H	1.118790	-0.242847	0.793424
H104	H	1.059075	-0.243642	0.855964
N105	N	0.872065	-0.733608	0.499008
H106	H	0.876883	-0.785269	0.494593
H107	H	0.822828	-0.722262	0.485538
N108	N	0.914057	-0.842037	0.460366
H109	H	0.864793	-0.830755	0.446919
H110	H	0.923469	-0.830852	0.510545
N111	N	1.103040	-0.199967	0.981076
H112	H	1.131400	-0.171750	1.015460
H113	H	1.077131	-0.167185	0.948139
