data_functionalizedCrystal
_audit_creation_method	'MofGen! by Chris Wilmer'
_symmetry_space_group_name_H-M	'P1'
_symmetry_Int_Tables_number	1
_symmetry_cell_setting	triclinic
loop_
_symmetry_equiv_pos_as_xyz
  x,y,z
_cell_length_a	12.759401
_cell_length_b	16.625539
_cell_length_c	12.759399
_cell_angle_alpha	90.026183
_cell_angle_beta	89.983359
_cell_angle_gamma	89.981219
loop_
_atom_site_label
_atom_site_type_symbol
_atom_site_fract_x
_atom_site_fract_y
_atom_site_fract_z
Zn1	Zn	1.606241	-0.455883	0.418222
Zn2	Zn	1.606137	-0.321055	0.593923
Zn3	Zn	1.430546	-0.321068	0.418263
Zn4	Zn	1.430530	-0.455849	0.593864
O5	O	1.518364	-0.388464	0.506068
O6	O	1.753248	-0.438006	0.441536
O7	O	1.582808	-0.208224	0.570663
O8	O	1.453903	-0.338970	0.271237
O9	O	1.753172	-0.338949	0.570623
O10	O	1.582985	-0.438019	0.271206
O11	O	1.453802	-0.208233	0.441607
O12	O	1.283523	-0.338938	0.441550
O13	O	1.453875	-0.568686	0.570523
O14	O	1.283511	-0.437961	0.570563
O15	O	1.582969	-0.568711	0.441479
O16	O	1.582793	-0.338916	0.740936
O17	O	1.453775	-0.437949	0.740893
C18	C	1.245396	-0.388448	0.506055
C19	C	1.128620	-0.388460	0.506075
C20	C	1.518432	-0.598773	0.505990
C21	C	1.518461	-0.688394	0.505956
C22	C	1.073779	-0.439940	0.573354
C23	C	0.964055	-0.439956	0.573358
C24	C	0.964022	-0.337005	0.438801
C25	C	1.073744	-0.336993	0.438792
C26	C	1.518510	-1.016570	0.505839
C27	C	1.518493	-0.925261	0.505875
C28	C	1.518486	-0.852485	0.505898
C29	C	1.518468	-0.761170	0.505933
C30	C	1.792397	-0.388480	0.506082
C31	C	1.909174	-0.388487	0.506087
C32	C	1.518299	-0.388445	0.779035
C33	C	1.518368	-0.388464	0.895812
C34	C	1.518356	-0.178973	0.506070
C35	C	1.518531	-0.089352	0.505807
C36	C	1.518457	-0.388500	0.232035
C37	C	1.518497	-0.388515	0.115258
C38	C	1.585624	-0.336957	0.950661
C39	C	1.585692	-0.336984	1.060385
C40	C	1.451238	-0.440028	1.060401
C41	C	1.451176	-0.440005	0.950679
H42	H	1.118456	-0.481850	0.628138
H43	H	1.118396	-0.295072	0.383999
H44	H	1.396408	-0.481952	0.906017
H45	H	1.396531	-0.481990	1.105087
O46	O	0.904901	-0.495391	0.646040
H47	H	0.961497	-0.531139	0.692867
O48	O	0.904836	-0.281469	0.366267
H49	H	0.819326	-0.290110	0.377592
O50	O	1.658108	-0.281385	0.891475
H51	H	1.640164	-0.218092	0.912609
O52	O	1.658225	-0.281425	1.119549
H53	H	1.704928	-0.245580	1.062959
