data_functionalizedCrystal
_audit_creation_method	'MofGen! by Chris Wilmer'
_symmetry_space_group_name_H-M	'P1'
_symmetry_Int_Tables_number	1
_symmetry_cell_setting	triclinic
loop_
_symmetry_equiv_pos_as_xyz
  x,y,z
_cell_length_a	10.489711
_cell_length_b	11.792241
_cell_length_c	10.268362
_cell_angle_alpha	90.000297
_cell_angle_beta	89.993890
_cell_angle_gamma	95.639788
loop_
_atom_site_label
_atom_site_type_symbol
_atom_site_fract_x
_atom_site_fract_y
_atom_site_fract_z
O1	O	-1.693531	0.159977	0.108332
O2	O	-1.360197	0.493310	0.441665
O3	O	-1.026864	0.826644	0.774998
O4	O	-1.322279	0.175043	0.108322
O5	O	-0.988945	0.508377	0.441656
O6	O	-0.655612	0.841710	0.774989
O7	O	-1.516914	0.002363	0.108335
O8	O	-1.183581	0.335696	0.441668
O9	O	-0.850247	0.669030	0.775002
O10	O	-1.498895	0.332657	0.108319
O11	O	-1.165562	0.665991	0.441652
O12	O	-0.832229	0.999324	0.774986
O13	O	-1.516897	0.002356	-0.108266
O14	O	-1.183564	0.335689	0.225068
O15	O	-0.850230	0.669022	0.558401
O16	O	-1.322262	0.175036	-0.108278
O17	O	-0.988928	0.508369	0.225055
O18	O	-0.655595	0.841703	0.558388
O19	O	-1.693514	0.159970	-0.108269
O20	O	-1.360180	0.493303	0.225064
O21	O	-1.026847	0.826636	0.558398
Cu22	Cu	-1.507886	0.167502	-0.128051
Cu23	Cu	-1.174553	0.500836	0.205282
Cu24	Cu	-0.841219	0.834169	0.538616
Cu25	Cu	-1.507906	0.167511	0.128104
Cu26	Cu	-1.174573	0.500844	0.461438
Cu27	Cu	-0.841240	0.834177	0.794771
O28	O	-1.498878	0.332650	-0.108282
O29	O	-1.165545	0.665983	0.225052
O30	O	-0.832212	0.999317	0.558385
C31	C	-1.274742	0.173909	0.000021
C32	C	-0.941409	0.507242	0.333354
C33	C	-0.608075	0.840576	0.666688
C34	C	-1.133122	0.170526	0.000018
C35	C	-0.799789	0.503859	0.333352
C36	C	-0.466455	0.837193	0.666685
C37	C	-1.515774	-0.039934	0.000039
C38	C	-1.182440	0.293399	0.333373
C39	C	-0.849107	0.626732	0.666706
C40	C	-1.512386	-0.165957	0.000054
C41	C	-1.179053	0.167376	0.333387
C42	C	-0.845719	0.500710	0.666720
C43	C	-1.741051	0.161104	0.000035
C44	C	-1.407717	0.494437	0.333368
C45	C	-1.074384	0.827771	0.666702
C46	C	-1.882670	0.164487	0.000046
C47	C	-1.549337	0.497820	0.333380
C48	C	-1.216004	0.831154	0.666713
C49	C	-0.950382	0.274371	0.000028
C50	C	-0.617048	0.607704	0.333361
C51	C	-0.283715	0.941037	0.666695
C52	C	-1.042712	0.222502	0.106824
C53	C	-0.709379	0.555836	0.440157
C54	C	-0.376046	0.889169	0.773491
C55	C	-1.042669	0.222467	-0.106727
C56	C	-0.709335	0.555801	0.226606
C57	C	-0.376002	0.889134	0.559939
C58	C	-0.973136	0.112573	0.106931
C59	C	-0.639803	0.445906	0.440264
C60	C	-0.306469	0.779240	0.773597
C61	C	-0.973083	0.112553	-0.106717
C62	C	-0.639749	0.445887	0.226617
C63	C	-0.306416	0.779220	0.559950
C64	C	-1.065386	0.060605	0.000105
C65	C	-0.732053	0.393939	0.333439
C66	C	-0.398720	0.727272	0.666772
C67	C	-1.500019	0.374947	0.000017
C68	C	-1.166685	0.708281	0.333350
C69	C	-0.833352	1.041614	0.666683
C70	C	-1.503407	0.500970	0.000011
C71	C	-1.170073	0.834303	0.333344
C72	C	-0.836740	1.167637	0.666678
N73	N	-1.507881	0.167496	-0.308217
N74	N	-1.174548	0.500829	0.025116
N75	N	-0.841215	0.834162	0.358450
C76	C	-1.509636	0.731698	0.000044
C77	C	-1.176303	1.065032	0.333377
C78	C	-0.842969	1.398365	0.666711
C79	C	-1.506175	0.603304	0.000026
C80	C	-1.172841	0.936638	0.333359
C81	C	-0.839508	1.269971	0.666693
C82	C	-1.507900	0.167508	-0.573888
C83	C	-1.174567	0.500842	-0.240554
C84	C	-0.841233	0.834175	0.092779
C85	C	-1.507885	0.167505	-0.426050
C86	C	-1.174552	0.500838	-0.092716
C87	C	-0.841219	0.834171	0.240617
N88	N	-1.507921	0.167509	0.308270
N89	N	-1.174588	0.500842	0.641603
N90	N	-0.841255	0.834175	0.974937
H91	H	-1.073556	0.269003	0.197104
H92	H	-0.740222	0.602336	0.530438
H93	H	-0.406889	0.935670	0.863771
H94	H	-0.942493	0.066125	0.197324
H95	H	-0.609159	0.399459	0.530658
H96	H	-0.275826	0.732792	0.863991
N97	N	-1.131302	-0.059139	0.000162
N98	N	-0.797969	0.274194	0.333495
N99	N	-0.464636	0.607527	0.666828
H100	H	-1.106025	-0.100481	0.080861
H101	H	-0.772691	0.232852	0.414194
H102	H	-0.439358	0.566186	0.747528
H103	H	-1.227184	-0.056097	-0.000663
H104	H	-0.893850	0.277236	0.332670
H105	H	-0.560517	0.610570	0.666003
H106	H	-0.900384	0.364687	0.000130
H107	H	-0.567050	0.698020	0.333463
H108	H	-0.233717	1.031354	0.666797
H109	H	-0.942211	0.066094	-0.197005
H110	H	-0.608878	0.399428	0.136328
H111	H	-0.275544	0.732761	0.469661
N112	N	-1.083467	0.284067	-0.226323
N113	N	-0.750133	0.617400	0.107010
N114	N	-0.416800	0.950733	0.440343
H115	H	-1.041213	0.364810	-0.226225
H116	H	-0.707880	0.698144	0.107108
H117	H	-0.374546	1.031477	0.440442
H118	H	-1.056910	0.243286	-0.306918
H119	H	-0.723577	0.576619	0.026416
H120	H	-0.390244	0.909953	0.359749
