data_functionalizedCrystal
_audit_creation_method	'MofGen! by Chris Wilmer'
_symmetry_space_group_name_H-M	'P1'
_symmetry_Int_Tables_number	1
_symmetry_cell_setting	triclinic
loop_
_symmetry_equiv_pos_as_xyz
  x,y,z
_cell_length_a	9.065218
_cell_length_b	16.053802
_cell_length_c	9.065218
_cell_angle_alpha	87.394393
_cell_angle_beta	85.015885
_cell_angle_gamma	92.619430
loop_
_atom_site_label
_atom_site_type_symbol
_atom_site_fract_x
_atom_site_fract_y
_atom_site_fract_z
O1	O	1.966543	0.069428	0.210228
O2	O	2.466543	0.569428	0.710228
O3	O	1.537259	0.069429	0.227974
O4	O	2.037259	0.569429	0.727974
O5	O	1.760774	0.069426	0.004459
O6	O	2.260774	0.569426	0.504459
O7	O	1.743028	0.069430	0.433743
O8	O	2.243028	0.569430	0.933743
O9	O	1.748470	-0.069432	0.016710
O10	O	2.248470	0.430568	0.516710
O11	O	1.524955	-0.069430	0.240226
O12	O	2.024955	0.430570	0.740226
O13	O	1.954240	-0.069431	0.222479
O14	O	2.454240	0.430569	0.722479
Zn15	Zn	1.737644	-0.091477	0.233298
Zn16	Zn	2.237644	0.408523	0.733298
Zn17	Zn	1.753854	0.091475	0.217156
Zn18	Zn	2.253854	0.591475	0.717156
O19	O	1.730724	-0.069429	0.445995
O20	O	2.230724	0.430571	0.945995
C21	C	1.476120	-0.000001	0.232394
C22	C	1.976120	0.499999	0.732394
C23	C	1.312277	-0.000000	0.227294
C24	C	1.812277	0.500000	0.727294
N25	N	1.726591	-0.216338	0.244313
N26	N	2.226591	0.283662	0.744313
C27	C	1.821733	-0.260032	0.149242
C28	C	2.321733	0.239968	0.649242
C29	C	1.814016	-0.347439	0.156962
C30	C	2.314016	0.152561	0.656962
C31	C	1.711163	-0.391149	0.259761
C32	C	2.211163	0.108851	0.759761
C33	C	1.616011	-0.347448	0.354836
C34	C	2.116011	0.152552	0.854836
C35	C	1.623722	-0.260043	0.347108
C36	C	2.123722	0.239957	0.847108
C37	C	1.677478	-0.652559	0.293476
C38	C	2.177478	-0.152559	0.793476
C39	C	1.669777	-0.739970	0.301200
C40	C	2.169777	-0.239970	0.801200
C41	C	1.867781	-0.739955	0.103322
C42	C	2.367781	-0.239955	0.603322
C43	C	1.875489	-0.652548	0.095609
C44	C	2.375489	-0.152548	0.595609
C45	C	1.780332	-0.608855	0.190679
C46	C	2.280332	-0.108855	0.690679
N47	N	1.703275	-0.480493	0.267657
N48	N	2.203275	0.019507	0.767657
N49	N	1.788214	-0.519512	0.182775
N50	N	2.288214	-0.019512	0.682775
C51	C	2.015378	0.000000	0.218059
C52	C	2.515378	0.500000	0.718059
C53	C	2.179222	0.000005	0.223158
C54	C	2.679222	0.500005	0.723158
C55	C	1.752917	-0.000002	-0.044402
C56	C	2.252917	0.499998	0.455598
C57	C	1.747818	0.000002	-0.208246
C58	C	2.247818	0.500002	0.291754
N59	N	1.764918	0.216335	0.206128
N60	N	2.264918	0.716335	0.706128
C61	C	1.738582	0.000001	0.494855
C62	C	2.238582	0.500001	0.994855
C63	C	1.743682	0.000002	0.658698
C64	C	2.243682	0.500002	1.158698
H65	H	1.905493	-0.224449	0.065538
H66	H	2.405493	0.275551	0.565538
H67	H	1.546246	-0.224468	0.424524
H68	H	2.046246	0.275532	0.924524
H69	H	1.945252	-0.775538	0.025919
H70	H	2.445252	-0.275538	0.525919
F71	F	1.915274	-0.393943	0.055774
F72	F	2.415274	0.106057	0.555774
H73	H	1.959240	-0.616961	0.011902
H74	H	2.459240	-0.116961	0.511902
F75	F	1.560301	-0.786484	0.410623
F76	F	2.060301	-0.286484	0.910623
H77	H	1.600000	-0.616990	0.370889
H78	H	2.100000	-0.116990	0.870889
H79	H	1.532258	-0.383042	0.438533
H80	H	2.032258	0.116958	0.938533
