data_functionalizedCrystal
_audit_creation_method	'MofGen! by Chris Wilmer'
_symmetry_space_group_name_H-M	'P1'
_symmetry_Int_Tables_number	1
_symmetry_cell_setting	triclinic
loop_
_symmetry_equiv_pos_as_xyz
  x,y,z
_cell_length_a	13.897448
_cell_length_b	13.897449
_cell_length_c	19.076919
_cell_angle_alpha	92.279427
_cell_angle_beta	92.272955
_cell_angle_gamma	90.018519
loop_
_atom_site_label
_atom_site_type_symbol
_atom_site_fract_x
_atom_site_fract_y
_atom_site_fract_z
Zn1	Zn	-0.405928	1.452744	-0.397986
Zn2	Zn	0.094072	1.952744	0.102014
Zn3	Zn	-0.560754	1.459132	-0.280295
Zn4	Zn	-0.060754	1.959132	0.219705
Zn5	Zn	-0.399478	1.297927	-0.280302
Zn6	Zn	0.100522	1.797927	0.219698
Zn7	Zn	-0.567183	1.291417	-0.397947
Zn8	Zn	-0.067183	1.791417	0.102053
O9	O	-0.483336	1.375305	-0.339132
O10	O	0.016664	1.875305	0.160868
O11	O	-0.426475	1.588573	-0.382387
O12	O	0.073525	2.088573	0.117613
O13	O	-0.533971	1.443145	-0.181807
O14	O	-0.033971	1.943145	0.318193
O15	O	-0.265353	1.318514	-0.295932
O16	O	0.234647	1.818514	0.204068
O17	O	-0.540225	1.593265	-0.295920
O18	O	-0.040225	2.093265	0.204080
O19	O	-0.270092	1.432258	-0.382394
O20	O	0.229908	1.932258	0.117606
O21	O	-0.415481	1.324708	-0.181812
O22	O	0.084519	1.824708	0.318188
O23	O	-0.421715	1.162082	-0.295894
O24	O	0.078285	1.662082	0.204106
O25	O	-0.551182	1.307420	-0.496441
O26	O	-0.051182	1.807420	0.003559
O27	O	-0.544927	1.157300	-0.382327
O28	O	-0.044927	1.657300	0.117673
O29	O	-0.432709	1.425947	-0.496470
O30	O	0.067291	1.925947	0.003530
O31	O	-0.696588	1.436833	-0.295882
O32	O	-0.196588	1.936833	0.204118
O33	O	-0.701311	1.313614	-0.382321
O34	O	-0.201311	1.813614	0.117679
C35	C	-0.483320	1.124692	-0.339108
C36	C	0.016680	1.624692	0.160892
C37	C	-0.483337	1.017478	-0.339114
C38	C	0.016663	1.517478	0.160886
C39	C	-0.483341	0.930407	-0.339126
C40	C	0.016659	1.430407	0.160874
C41	C	-0.483349	0.821174	-0.339147
C42	C	0.016651	1.321174	0.160853
C43	C	-0.733949	1.375236	-0.339112
C44	C	-0.233949	1.875236	0.160888
C45	C	-0.841164	1.375293	-0.339127
C46	C	-0.341164	1.875293	0.160873
C47	C	-1.037461	1.375392	-0.339171
C48	C	-0.537461	1.875392	0.160829
C49	C	-0.928227	1.375334	-0.339148
C50	C	-0.428227	1.875334	0.160852
C51	C	-0.231745	1.375400	-0.339168
C52	C	0.268255	1.875400	0.160832
C53	C	-0.124532	1.375440	-0.339183
C54	C	0.375468	1.875440	0.160817
C55	C	-0.493382	1.365245	-0.522706
C56	C	0.006618	1.865245	-0.022706
C57	C	-0.497663	1.360958	-0.600935
C58	C	0.002337	1.860958	-0.100935
C59	C	-0.483353	1.626897	-0.339157
C60	C	0.016647	2.126897	0.160843
C61	C	-0.483360	1.734110	-0.339168
C62	C	0.016640	2.234110	0.160832
C63	C	-0.437995	1.420651	-0.637703
C64	C	0.062005	1.920651	-0.137703
C65	C	-0.442014	1.416611	-0.711207
C66	C	0.057986	1.916611	-0.211207
C67	C	-0.505707	1.352883	-0.747941
C68	C	-0.005707	1.852883	-0.247941
C69	C	-0.565378	1.293183	-0.711168
C70	C	-0.065378	1.793183	-0.211168
C71	C	-0.561353	1.297219	-0.637666
C72	C	-0.061353	1.797219	-0.137666
C73	C	-0.524352	1.334191	-0.967769
C74	C	-0.024352	1.834191	-0.467769
C75	C	-0.528375	1.330162	-1.041276
C76	C	-0.028375	1.830162	-0.541276
C77	C	-0.405009	1.453590	-1.041310
C78	C	0.094991	1.953590	-0.541310
C79	C	-0.400994	1.457624	-0.967806
C80	C	0.099006	1.957624	-0.467806
C81	C	-0.460661	1.397921	-0.931039
C82	C	0.039339	1.897921	-0.431039
N83	N	-0.509818	1.348754	-0.823074
N84	N	-0.009818	1.848754	-0.323074
N85	N	-0.456544	1.402045	-0.855908
N86	N	0.043456	1.902045	-0.355908
C87	C	-0.473259	1.385381	-0.156272
C88	C	0.026741	1.885381	0.343728
C89	C	-0.468706	1.389855	-0.078044
C90	C	0.031294	1.889855	0.421956
H91	H	-0.386132	1.472549	-0.607799
H92	H	0.113868	1.972549	-0.107799
Cl93	Cl	-0.636365	1.222170	-0.591443
Cl94	Cl	-0.136365	1.722170	-0.091443
H95	H	-0.617234	1.241290	-0.741083
H96	H	-0.117234	1.741290	-0.241083
H97	H	-0.349131	1.509521	-0.937901
H98	H	0.150869	2.009521	-0.437901
H99	H	-0.393427	1.465222	-0.741140
H100	H	0.106573	1.965222	-0.241140
Cl101	Cl	-0.599364	1.259136	-0.921557
Cl102	Cl	-0.099364	1.759136	-0.421557
Cl103	Cl	-0.330000	1.528636	-1.087535
Cl104	Cl	0.170000	2.028636	-0.587535
H105	H	-0.580243	1.278264	-1.071184
H106	H	-0.080243	1.778264	-0.571184
