data_functionalizedCrystal
_audit_creation_method	'MofGen! by Chris Wilmer'
_symmetry_space_group_name_H-M	'P1'
_symmetry_Int_Tables_number	1
_symmetry_cell_setting	triclinic
loop_
_symmetry_equiv_pos_as_xyz
  x,y,z
_cell_length_a	19.288864
_cell_length_b	19.288865
_cell_length_c	18.366186
_cell_angle_alpha	89.988521
_cell_angle_beta	89.977106
_cell_angle_gamma	83.136245
loop_
_atom_site_label
_atom_site_type_symbol
_atom_site_fract_x
_atom_site_fract_y
_atom_site_fract_z
O1	O	0.921353	0.086649	-0.060791
O2	O	1.254686	0.419982	0.272542
O3	O	1.588019	0.753315	0.605875
O4	O	0.719092	0.098337	-0.060743
O5	O	1.052425	0.431671	0.272591
O6	O	1.385759	0.765004	0.605924
O7	O	0.826067	-0.008637	-0.060754
O8	O	1.159400	0.324696	0.272579
O9	O	1.492733	0.658029	0.605913
O10	O	0.814378	0.193623	-0.060780
O11	O	1.147711	0.526957	0.272553
O12	O	1.481045	0.860290	0.605887
O13	O	0.826049	-0.008643	0.060345
O14	O	1.159382	0.324691	0.393679
O15	O	1.492715	0.658024	0.727012
O16	O	0.719074	0.098332	0.060357
O17	O	1.052407	0.431665	0.393690
O18	O	1.385741	0.764999	0.727023
O19	O	0.921335	0.086643	0.060308
O20	O	1.254668	0.419977	0.393641
O21	O	1.588001	0.753310	0.726975
Zn22	Zn	0.820201	0.092487	0.079559
Zn23	Zn	1.153535	0.425820	0.412893
Zn24	Zn	1.486868	0.759154	0.746226
Zn25	Zn	0.820225	0.092494	-0.079994
Zn26	Zn	1.153559	0.425827	0.253339
Zn27	Zn	1.486892	0.759161	0.586672
O28	O	0.814360	0.193618	0.060319
O29	O	1.147693	0.526951	0.393653
O30	O	1.481027	0.860285	0.726986
C31	C	0.693207	0.097959	-0.000187
C32	C	1.026540	0.431292	0.333147
C33	C	1.359873	0.764625	0.666480
C34	C	0.616103	0.096830	-0.000167
C35	C	0.949436	0.430163	0.333166
C36	C	1.282770	0.763496	0.666499
C37	C	0.571407	0.159598	-0.000187
C38	C	0.904740	0.492931	0.333146
C39	C	1.238073	0.826264	0.666480
C40	C	0.498960	0.158537	-0.000195
C41	C	0.832293	0.491870	0.333138
C42	C	1.165626	0.825204	0.666472
C43	C	0.471212	0.094705	-0.000198
C44	C	0.804545	0.428038	0.333135
C45	C	1.137879	0.761371	0.666469
C46	C	0.515918	0.031929	-0.000174
C47	C	0.849252	0.365262	0.333159
C48	C	1.182585	0.698595	0.666492
C49	C	0.588364	0.032991	-0.000159
C50	C	0.921697	0.366324	0.333174
C51	C	1.255030	0.699658	0.666508
C52	C	0.362956	0.044527	-0.042642
C53	C	0.696290	0.377861	0.290691
C54	C	1.029623	0.711194	0.624024
C55	C	0.290512	0.043468	-0.042662
C56	C	0.623845	0.376801	0.290671
C57	C	0.957179	0.710134	0.624005
C58	C	0.247767	0.091425	-0.000241
C59	C	0.581100	0.424758	0.333092
C60	C	0.914433	0.758092	0.666425
C61	C	0.277473	0.140454	0.042189
C62	C	0.610806	0.473788	0.375523
C63	C	0.944140	0.807121	0.708856
C64	C	0.349918	0.141517	0.042205
C65	C	0.683252	0.474850	0.375538
C66	C	1.016585	0.808183	0.708871
C67	C	0.392658	0.093546	-0.000214
C68	C	0.725991	0.426879	0.333119
C69	C	1.059325	0.760212	0.666453
C70	C	0.124514	0.153047	-0.000269
C71	C	0.457848	0.486381	0.333065
C72	C	0.791181	0.819714	0.666398
C73	C	0.052066	0.151984	-0.000272
C74	C	0.385400	0.485317	0.333061
C75	C	0.718733	0.818651	0.666395
C76	C	0.069026	0.025374	-0.000259
C77	C	0.402360	0.358707	0.333075
C78	C	0.735693	0.692040	0.666408
C79	C	0.141473	0.026439	-0.000248
C80	C	0.474806	0.359772	0.333085
C81	C	0.808140	0.693106	0.666419
C82	C	0.169212	0.090278	-0.000256
C83	C	0.502546	0.423611	0.333077
C84	C	0.835879	0.756944	0.666410
C85	C	0.825682	-0.034516	-0.000202
C86	C	1.159015	0.298817	0.333131
C87	C	1.492348	0.632150	0.666465
C88	C	0.824553	-0.111620	-0.000195
C89	C	1.157886	0.221713	0.333138
C90	C	1.491219	0.555047	0.666471
C91	C	0.887321	-0.156316	-0.000207
C92	C	1.220654	0.177017	0.333126
C93	C	1.553987	0.510350	0.666460
C94	C	0.886260	-0.228763	-0.000218
C95	C	1.219593	0.104570	0.333115
C96	C	1.552927	0.437903	0.666448
C97	C	0.822428	-0.256511	-0.000203
C98	C	1.155761	0.076822	0.333130
C99	C	1.489094	0.410156	0.666463
C100	C	0.759652	-0.211805	-0.000196
C101	C	1.092985	0.121529	0.333137
C102	C	1.426318	0.454862	0.666471
C103	C	0.760714	-0.139359	-0.000192
C104	C	1.094047	0.193974	0.333141
C105	C	1.427381	0.527307	0.666475
C106	C	0.772242	-0.364800	0.042227
C107	C	1.105575	-0.031467	0.375561
C108	C	1.438908	0.301867	0.708894
C109	C	0.771182	-0.437245	0.042228
C110	C	1.104515	-0.103911	0.375561
C111	C	1.437849	0.229422	0.708894
C112	C	0.819148	-0.479956	-0.000219
C113	C	1.152481	-0.146623	0.333114
C114	C	1.485815	0.186710	0.666448
C115	C	0.868186	-0.450216	-0.042657
C116	C	1.201519	-0.116883	0.290677
C117	C	1.534852	0.216450	0.624010
C118	C	0.869248	-0.377771	-0.042653
C119	C	1.202582	-0.044438	0.290681
C120	C	1.535915	0.288896	0.624014
C121	C	0.821269	-0.335065	-0.000208
C122	C	1.154602	-0.001732	0.333125
C123	C	1.487935	0.331602	0.666459
C124	C	0.880770	-0.603209	-0.000244
C125	C	1.214104	-0.269875	0.333090
C126	C	1.547437	0.063458	0.666423
C127	C	0.879707	-0.675657	-0.000259
C128	C	1.213040	-0.342323	0.333074
C129	C	1.546374	-0.008990	0.666407
C130	C	0.753097	-0.658697	-0.000230
C131	C	1.086430	-0.325363	0.333104
C132	C	1.419763	0.007970	0.666437
C133	C	0.754162	-0.586250	-0.000221
C134	C	1.087495	-0.252917	0.333112
C135	C	1.420829	0.080417	0.666445
C136	C	0.818001	-0.558511	-0.000225
C137	C	1.151334	-0.225177	0.333109
C138	C	1.484667	0.108156	0.666442
C139	C	0.947220	0.087022	-0.000250
C140	C	1.280553	0.420355	0.333084
C141	C	1.613887	0.753689	0.666417
C142	C	1.024324	0.088151	-0.000274
C143	C	1.357657	0.421484	0.333060
C144	C	1.690990	0.754818	0.666393
C145	C	0.814745	0.219497	-0.000234
C146	C	1.148078	0.552831	0.333099
C147	C	1.481412	0.886164	0.666432
C148	C	0.815874	0.296601	-0.000246
C149	C	1.149207	0.629934	0.333088
C150	C	1.482541	0.963267	0.666421
N151	N	0.820190	0.092482	0.188451
N152	N	1.153524	0.425815	0.521784
N153	N	1.486857	0.759148	0.855117
N154	N	0.820242	0.092493	-0.188885
N155	N	1.153575	0.425827	0.144448
N156	N	1.486909	0.759160	0.477781
C157	C	0.867574	0.045137	0.226546
C158	C	1.200907	0.378470	0.559879
C159	C	1.534241	0.711803	0.893213
C160	C	0.867578	0.045134	0.302774
C161	C	1.200912	0.378467	0.636107
C162	C	1.534245	0.711800	0.969440
C163	C	0.820206	0.092488	0.340903
C164	C	1.153539	0.425821	0.674237
C165	C	1.486872	0.759154	1.007570
C166	C	0.772813	0.139836	0.302799
C167	C	1.106146	0.473170	0.636132
C168	C	1.439480	0.806503	0.969465
C169	C	0.772805	0.139834	0.226572
C170	C	1.106139	0.473167	0.559906
C171	C	1.439472	0.806500	0.893239
C172	C	0.810907	0.155775	0.461657
C173	C	1.144241	0.489109	0.794990
C174	C	1.477574	0.822442	1.128324
C175	C	0.810920	0.155779	0.537882
C176	C	1.144253	0.489112	0.871215
C177	C	1.477587	0.822446	1.204548
C178	C	0.820225	0.092496	0.576011
C179	C	1.153559	0.425830	0.909344
C180	C	1.486892	0.759163	1.242677
C181	C	0.829533	0.029207	0.537905
C182	C	1.162866	0.362540	0.871239
C183	C	1.496200	0.695873	1.204572
C184	C	0.829525	0.029204	0.461679
C185	C	1.162859	0.362537	0.795012
C186	C	1.496192	0.695871	1.128346
C187	C	0.820208	0.092496	0.423558
C188	C	1.153542	0.425829	0.756891
C189	C	1.486875	0.759162	1.090225
C190	C	0.867617	0.045144	0.696761
C191	C	1.200950	0.378477	1.030094
C192	C	1.534283	0.711810	1.363428
C193	C	0.867616	0.045140	0.772990
C194	C	1.200949	0.378473	1.106324
C195	C	1.534283	0.711806	1.439657
C196	C	0.772854	0.139849	0.773014
C197	C	1.106187	0.473182	1.106347
C198	C	1.439521	0.806515	1.439681
C199	C	0.772851	0.139847	0.696786
C200	C	1.106184	0.473180	1.030119
C201	C	1.439518	0.806513	1.363453
C202	C	0.820236	0.092495	0.658664
C203	C	1.153569	0.425828	0.991998
C204	C	1.486903	0.759162	1.325331
H205	H	0.242671	0.179506	0.076733
H206	H	0.576004	0.512839	0.410066
H207	H	0.909337	0.846172	0.743399
O208	O	0.721760	0.190938	0.814117
O209	O	1.055094	0.524272	1.147450
O210	O	1.388427	0.857605	1.480783
H211	H	0.688093	0.161800	0.848878
H212	H	1.021427	0.495134	1.182212
H213	H	1.354760	0.828467	1.515545
H214	H	0.907244	-0.484991	-0.077221
H215	H	1.240578	-0.151658	0.256112
H216	H	1.573911	0.181675	0.589446
H217	H	0.803346	0.207313	0.568901
H218	H	1.136679	0.540646	0.902235
H219	H	1.470012	0.873980	1.235568
O220	O	0.258470	-0.009407	-0.088425
O221	O	0.591803	0.323926	0.244908
O222	O	0.925137	0.657259	0.578241
H223	H	0.229822	-0.042625	-0.052643
H224	H	0.563155	0.290708	0.280690
H225	H	0.896488	0.624041	0.614024
H226	H	0.803318	0.207311	0.430619
H227	H	1.136651	0.540645	0.763952
H228	H	1.469984	0.873978	1.097285
O229	O	0.381957	0.194392	0.087971
O230	O	0.715291	0.527725	0.421304
O231	O	1.048624	0.861058	0.754638
H232	H	0.439513	0.187074	0.080848
H233	H	0.772846	0.520407	0.414182
H234	H	1.106179	0.853741	0.747515
H235	H	0.709599	-0.102967	-0.000182
H236	H	1.042933	0.230367	0.333151
H237	H	1.376266	0.563700	0.666484
H238	H	0.734240	0.178392	0.333848
H239	H	1.067573	0.511725	0.667181
H240	H	1.400907	0.845058	1.000514
H241	H	0.593987	0.211580	-0.000195
H242	H	0.927320	0.544913	0.333138
H243	H	1.260654	0.878247	0.666471
O244	O	0.450737	0.226238	-0.000224
O245	O	0.784071	0.559572	0.333110
O246	O	1.117404	0.892905	0.666443
H247	H	0.482198	0.270807	-0.000232
H248	H	0.815531	0.604140	0.333101
H249	H	1.148864	0.937473	0.666435
O250	O	0.690805	-0.241732	-0.000179
O251	O	1.024138	0.091601	0.333155
O252	O	1.357471	0.424935	0.666488
H253	H	0.647335	-0.198477	-0.000175
H254	H	0.980668	0.134857	0.333158
H255	H	1.314001	0.468190	0.666491
O256	O	0.839589	-0.039053	0.579022
O257	O	1.172922	0.294281	0.912356
O258	O	1.506255	0.627614	1.245689
H259	H	0.846071	-0.083059	0.539720
H260	H	1.179404	0.250275	0.873053
H261	H	1.512737	0.583608	1.206387
O262	O	0.003855	0.219688	-0.000285
O263	O	0.337188	0.553022	0.333048
O264	O	0.670522	0.886355	0.666381
H265	H	-0.029537	0.222231	-0.049644
H266	H	0.303796	0.555564	0.283689
H267	H	0.637130	0.888898	0.617022
H268	H	0.147101	0.205028	-0.000265
H269	H	0.480434	0.538362	0.333069
H270	H	0.813767	0.871695	0.666402
O271	O	0.918679	-0.005939	0.185433
O272	O	1.252012	0.327394	0.518766
O273	O	1.585345	0.660728	0.852100
H274	H	0.910718	0.002015	0.126027
H275	H	1.244052	0.335348	0.459360
H276	H	1.577385	0.668681	0.792693
H277	H	0.046435	-0.026600	-0.000306
H278	H	0.379769	0.306734	0.333027
H279	H	0.713102	0.640067	0.666360
O280	O	0.918712	-0.005933	0.655635
O281	O	1.252046	0.327400	0.988968
O282	O	1.585379	0.660733	1.322302
H283	H	0.951655	-0.038866	0.694935
H284	H	1.284988	0.294467	1.028269
H285	H	1.618321	0.627801	1.361602
O286	O	0.918732	-0.005920	0.814085
O287	O	1.252066	0.327413	1.147418
O288	O	1.585399	0.660746	1.480752
H289	H	0.951685	-0.038838	0.774767
H290	H	1.285019	0.294496	1.108100
H291	H	1.618352	0.627829	1.441434
O292	O	0.718298	-0.469320	0.088002
O293	O	1.051632	-0.135987	0.421335
O294	O	1.384965	0.197346	0.754668
H295	H	0.664829	-0.448230	0.070541
H296	H	0.998162	-0.114897	0.403875
H297	H	1.331495	0.218437	0.737208
O298	O	0.720507	-0.318733	0.088015
O299	O	1.053840	0.014600	0.421349
O300	O	1.387174	0.347933	0.754682
H301	H	0.686240	-0.351583	0.117533
H302	H	1.019573	-0.018250	0.450866
H303	H	1.352906	0.315083	0.784200
H304	H	0.701123	-0.681288	-0.000221
H305	H	1.034457	-0.347954	0.333112
H306	H	1.367790	-0.014621	0.666445
O307	O	0.947409	-0.723871	-0.000266
O308	O	1.280743	-0.390538	0.333067
O309	O	1.614076	-0.057205	0.666401
H310	H	0.991975	-0.692408	-0.000258
H311	H	1.325309	-0.359074	0.333075
H312	H	1.658642	-0.025741	0.666408
O313	O	0.721702	0.190906	0.185476
O314	O	1.055035	0.524239	0.518810
O315	O	1.388369	0.857572	0.852143
H316	H	0.688762	0.223837	0.224793
H317	H	1.022095	0.557171	0.558126
H318	H	1.355429	0.890504	0.891460
H319	H	0.932751	-0.580622	-0.000250
H320	H	1.266085	-0.247289	0.333083
H321	H	1.599418	0.086044	0.666417
O322	O	0.918690	-0.005932	0.343875
O323	O	1.252023	0.327402	0.677208
O324	O	1.585356	0.660735	1.010541
H325	H	0.952347	0.023233	0.378580
H326	H	1.285680	0.356566	0.711913
H327	H	1.619013	0.689900	1.045246
O328	O	0.189689	-0.041261	-0.000233
O329	O	0.523022	0.292073	0.333100
O330	O	0.856355	0.625406	0.666433
H331	H	0.158225	-0.085827	-0.000241
H332	H	0.491559	0.247506	0.333092
H333	H	0.824892	0.580840	0.666426
H334	H	0.397755	0.005473	-0.077191
H335	H	0.731088	0.338806	0.256143
H336	H	1.064421	0.672140	0.589476
O337	O	0.636579	-0.034711	-0.000141
O338	O	0.969913	0.298623	0.333192
O339	O	1.303246	0.631956	0.666525
H340	H	0.605117	-0.079278	-0.000147
H341	H	0.938451	0.254056	0.333187
H342	H	1.271784	0.587389	0.666520
O343	O	0.485997	-0.036921	-0.000178
O344	O	0.819331	0.296412	0.333156
O345	O	1.152664	0.629745	0.666489
H346	H	0.428112	-0.027116	-0.000199
H347	H	0.761445	0.306217	0.333135
H348	H	1.094778	0.639551	0.666468
O349	O	0.956171	-0.126395	-0.000231
O350	O	1.289505	0.206938	0.333102
O351	O	1.622838	0.540272	0.666436
H352	H	0.999640	-0.169652	-0.000252
H353	H	1.332974	0.163682	0.333082
H354	H	1.666307	0.497015	0.666415
H355	H	0.937375	-0.265162	-0.000231
H356	H	1.270708	0.068171	0.333103
H357	H	1.604041	0.401505	0.666436
H358	H	0.909175	-0.353560	-0.077208
H359	H	1.242508	-0.020226	0.256125
H360	H	1.575842	0.313107	0.589458
O361	O	0.839377	-0.039059	0.420583
O362	O	1.172710	0.294274	0.753916
O363	O	1.506043	0.627607	1.087249
H364	H	0.837746	-0.028428	0.361174
H365	H	1.171079	0.304906	0.694507
H366	H	1.504413	0.638239	1.027840
H367	H	0.703049	-0.549857	-0.000208
H368	H	1.036383	-0.216524	0.333126
H369	H	1.369716	0.116810	0.666459
O370	O	0.721752	0.190920	0.655690
O371	O	1.055085	0.524253	0.989023
O372	O	1.388419	0.857587	1.322356
H373	H	0.688815	0.223853	0.695007
H374	H	1.022148	0.557186	1.028340
H375	H	1.355481	0.890520	1.361674
