data_functionalizedCrystal
_audit_creation_method	'MofGen! by Chris Wilmer'
_symmetry_space_group_name_H-M	'P1'
_symmetry_Int_Tables_number	1
_symmetry_cell_setting	triclinic
loop_
_symmetry_equiv_pos_as_xyz
  x,y,z
_cell_length_a	16.992694
_cell_length_b	27.732048
_cell_length_c	15.455313
_cell_angle_alpha	92.637842
_cell_angle_beta	87.142206
_cell_angle_gamma	86.655439
loop_
_atom_site_label
_atom_site_type_symbol
_atom_site_fract_x
_atom_site_fract_y
_atom_site_fract_z
O1	O	1.042606	0.100467	-0.072038
O2	O	0.814336	0.099342	-0.072063
O3	O	0.935560	0.029815	-0.072033
O4	O	0.921382	0.169994	-0.072068
O5	O	0.928628	0.033773	0.072227
O6	O	0.807404	0.103301	0.072197
O7	O	1.035674	0.104425	0.072223
Cu8	Cu	0.920906	0.104225	0.085382
Cu9	Cu	0.929104	0.099543	-0.085222
O10	O	0.914450	0.173953	0.072193
C11	C	0.781675	0.099876	0.000064
C12	C	0.694684	0.095561	0.000055
C13	C	0.643939	0.137184	0.000046
C14	C	0.562201	0.133129	0.000059
C15	C	0.531209	0.087449	0.000075
C16	C	0.581960	0.045823	0.000087
C17	C	0.663696	0.049880	0.000080
C18	C	0.287814	0.070637	0.000102
C19	C	0.206071	0.066583	0.000106
C20	C	0.186318	0.153889	0.000080
C21	C	0.268057	0.157941	0.000068
C22	C	0.318800	0.116315	0.000084
N23	N	0.447660	0.083302	0.000086
N24	N	0.402347	0.120463	0.000080
C25	C	0.931796	0.013774	0.000100
C26	C	0.930900	-0.039919	0.000107
C27	C	0.996895	-0.375882	0.000069
C28	C	0.993571	-0.577686	0.000057
O29	O	1.053919	-0.606333	0.000026
N30	N	0.921689	-0.599917	0.000050
C31	C	0.850634	-0.571695	0.000040
O32	O	0.789419	-0.595235	0.000025
C33	C	0.853960	-0.369892	0.000046
C34	C	0.925846	-0.347663	0.000062
C35	C	1.068775	-0.353652	0.000084
C36	C	1.069605	-0.303204	0.000092
C37	C	0.998556	-0.274986	0.000085
C38	C	0.926676	-0.297215	0.000070
C39	C	0.782906	-0.341671	0.000030
C40	C	0.783744	-0.291218	0.000030
C41	C	0.855630	-0.268989	0.000046
C42	C	0.856457	-0.218549	0.000071
N43	N	0.928338	-0.196317	0.000078
C44	C	0.999387	-0.224535	0.000085
C45	C	0.848893	-0.677644	0.000038
C46	C	0.848061	-0.728095	0.000038
C47	C	0.990998	-0.734082	0.000054
C48	C	0.991829	-0.683630	0.000060
C49	C	0.920775	-0.655413	0.000046
C50	C	1.001126	-0.118591	0.000102
C51	C	1.001949	-0.068138	0.000114
C52	C	0.859013	-0.062155	0.000094
C53	C	0.858189	-0.112603	0.000087
C54	C	0.929251	-0.140820	0.000088
O55	O	0.796141	-0.189872	0.000092
O56	O	1.060595	-0.200987	0.000081
C57	C	0.996065	-0.426330	0.000062
C58	C	0.924185	-0.448559	0.000047
C59	C	0.853136	-0.420341	0.000039
C60	C	0.923354	-0.499010	0.000047
C61	C	0.994403	-0.527228	0.000054
C62	C	1.066285	-0.504997	0.000061
C63	C	1.067115	-0.454549	0.000069
C64	C	0.781254	-0.442573	0.000032
C65	C	0.780430	-0.493021	0.000025
C66	C	0.851480	-0.521240	0.000033
C67	C	1.068335	0.103892	0.000094
C68	C	1.155327	0.108206	0.000097
C69	C	0.918214	0.189993	0.000058
C70	C	0.919111	0.243687	0.000046
N71	N	0.915146	0.107517	0.205376
N72	N	0.934870	0.096247	-0.205217
C73	C	0.966664	0.077992	0.250783
C74	C	0.962315	0.080486	0.341590
C75	C	0.906451	0.112509	0.386988
C76	C	0.854928	0.142036	0.341575
C77	C	0.859274	0.139538	0.250770
C78	C	0.887693	0.123276	0.658565
C79	C	0.883353	0.125773	0.749377
C80	C	0.990739	0.064222	0.749385
C81	C	0.995083	0.061730	0.658578
C82	C	0.943557	0.091254	0.613173
N83	N	0.902006	0.115061	0.479807
N84	N	0.947999	0.088700	0.520356
H85	H	0.144995	0.187778	0.000068
H86	H	1.048849	-0.757066	0.000060
H87	H	0.809439	0.168108	0.378544
H88	H	0.556720	0.008630	0.000113
O89	O	0.714765	-0.263754	0.000133
C90	C	0.707360	-0.232358	0.074861
H91	H	0.768335	-0.226716	0.099782
H92	H	0.669258	-0.248896	0.127169
C93	C	0.593485	-0.190275	0.021554
C94	C	0.668376	-0.183342	0.052159
H95	H	0.569434	-0.160041	0.007553
H96	H	0.598471	-0.211428	-0.028790
H97	H	0.561743	-0.204058	0.065149
H98	H	0.700119	-0.169566	0.008560
H99	H	0.663394	-0.162186	0.102495
H100	H	0.180842	0.029383	0.000119
H101	H	0.520888	0.167023	0.000050
H102	H	1.012157	0.051917	0.213826
H103	H	0.293284	0.195138	0.000044
H104	H	1.040572	0.035654	0.621617
H105	H	1.060489	-0.050041	0.000129
H106	H	0.329120	0.036742	0.000117
H107	H	0.669166	0.174382	0.000032
H108	H	0.705012	0.015986	0.000088
H109	H	0.817322	0.163580	0.213800
O110	O	1.070224	-0.145923	0.000145
C111	C	1.133838	-0.115476	0.000139
H112	H	1.112155	-0.077890	0.027450
H113	H	1.159229	-0.112921	-0.069065
C114	C	1.224951	-0.182605	0.023180
C115	C	1.198320	-0.136442	0.056730
H116	H	1.264728	-0.195538	0.058084
H117	H	1.182094	-0.203118	0.023181
H118	H	1.246104	-0.180469	-0.034490
H119	H	1.177158	-0.138579	0.114395
H120	H	1.241175	-0.115930	0.056740
O121	O	1.137016	-0.433038	0.000040
C122	C	1.199538	-0.468770	0.000066
H123	H	1.179296	-0.504599	-0.027249
H124	H	1.218099	-0.473166	0.069276
C125	C	1.294969	-0.409459	-0.022952
C126	C	1.270108	-0.453464	-0.056508
H127	H	1.338501	-0.400017	-0.057846
H128	H	1.252847	-0.385385	-0.022967
H129	H	1.310430	-0.413128	0.034723
H130	H	1.254638	-0.449793	-0.114178
H131	H	1.312229	-0.477538	-0.056505
H132	H	1.032688	0.040184	0.786363
O133	O	1.135290	-0.532438	-0.000088
C134	C	1.142654	-0.563849	-0.074796
H135	H	1.104859	-0.548368	-0.127015
H136	H	1.122003	-0.600816	-0.057911
C137	C	1.276071	-0.588150	-0.044533
C138	C	1.229655	-0.569134	-0.108673
H139	H	1.329737	-0.591413	-0.065429
H140	H	1.271109	-0.566990	0.005801
H141	H	1.258852	-0.618955	-0.030468
H142	H	1.246867	-0.538329	-0.122729
H143	H	1.234622	-0.590290	-0.159010
H144	H	1.128142	-0.285110	0.000102
H145	H	1.050364	-0.665535	0.000072
O146	O	0.779792	-0.650308	0.000071
C147	C	0.716179	-0.680755	0.000046
H148	H	0.735239	-0.716847	0.027356
H149	H	0.697438	-0.687095	-0.069164
C150	C	0.622854	-0.612367	0.023076
C151	C	0.646261	-0.656694	0.056626
H152	H	0.579723	-0.597524	0.057973
H153	H	0.665710	-0.591853	0.023090
H154	H	0.607242	-0.617656	-0.034598
H155	H	0.661882	-0.651404	0.114294
H156	H	0.603405	-0.677206	0.056623
H157	H	0.845740	0.147317	0.621603
O158	O	0.713008	-0.363180	-0.000028
C159	C	0.650487	-0.327445	-0.000018
H160	H	0.673358	-0.293110	-0.027319
H161	H	0.625269	-0.319265	0.069186
C162	C	0.557269	-0.388014	-0.023080
C163	C	0.585359	-0.345844	-0.056619
H164	H	0.517093	-0.399363	-0.057990
H165	H	0.599390	-0.412090	-0.023083
H166	H	0.536260	-0.381191	0.034590
H167	H	0.606376	-0.352669	-0.114283
H168	H	0.543240	-0.321770	-0.056626
O169	O	0.710527	-0.514534	-0.000027
C170	C	0.648000	-0.478803	-0.000012
H171	H	0.670866	-0.444465	-0.027309
H172	H	0.622782	-0.470626	0.069193
C173	C	0.554792	-0.539376	-0.023081
C174	C	0.582875	-0.497203	-0.056615
H175	H	0.514617	-0.550727	-0.057993
H176	H	0.596917	-0.563450	-0.023088
H177	H	0.533783	-0.532557	0.034589
H178	H	0.603892	-0.504025	-0.114279
H179	H	0.540752	-0.473131	-0.056619
H180	H	0.837859	0.151851	0.786336
H181	H	1.126636	-0.376623	0.000087
H182	H	0.789524	-0.746189	0.000040
O183	O	1.012451	0.051792	0.385563
C184	C	1.062683	0.022989	0.326022
H185	H	1.066413	0.041051	0.261283
H186	H	1.038150	-0.014164	0.316389
C187	C	1.141073	-0.004870	0.440962
C188	C	1.145660	0.017317	0.361450
H189	H	1.192256	-0.008371	0.462817
H190	H	1.107229	0.014534	0.481077
H191	H	1.120626	-0.035828	0.432924
H192	H	1.166097	0.048276	0.369492
H193	H	1.179509	-0.002082	0.321337
H194	H	0.801166	-0.039170	0.000091
H195	H	0.799653	-0.130703	0.000098
H196	H	0.723396	-0.419602	0.000024
