data_functionalizedCrystal
_audit_creation_method	'MofGen! by Chris Wilmer'
_symmetry_space_group_name_H-M	'P1'
_symmetry_Int_Tables_number	1
_symmetry_cell_setting	triclinic
loop_
_symmetry_equiv_pos_as_xyz
  x,y,z
_cell_length_a	21.295418
_cell_length_b	17.077402
_cell_length_c	17.077396
_cell_angle_alpha	90.029784
_cell_angle_beta	89.961209
_cell_angle_gamma	89.961304
loop_
_atom_site_label
_atom_site_type_symbol
_atom_site_fract_x
_atom_site_fract_y
_atom_site_fract_z
Zn1	Zn	0.962358	0.312177	-0.444240
Zn2	Zn	0.962284	0.443452	-0.312971
Zn3	Zn	0.857091	0.312240	-0.312944
Zn4	Zn	0.857065	0.443441	-0.444150
O5	O	0.909699	0.377827	-0.378576
O6	O	1.050438	0.329569	-0.426876
O7	O	0.948309	0.426077	-0.203120
O8	O	0.871097	0.202385	-0.330386
O9	O	1.050383	0.426016	-0.330433
O10	O	0.948436	0.202338	-0.426849
O11	O	0.871024	0.329677	-0.203100
O12	O	0.768998	0.329666	-0.330299
O13	O	0.871053	0.425997	-0.554009
O14	O	0.768979	0.426059	-0.426696
O15	O	0.948411	0.329558	-0.554075
O16	O	0.948284	0.553297	-0.330346
O17	O	0.870981	0.553289	-0.426723
C18	C	0.909639	0.581775	-0.378545
C19	C	0.909670	0.669025	-0.378558
C20	C	0.746148	0.377869	-0.378486
C21	C	0.676180	0.377905	-0.378466
C22	C	0.909738	0.377769	-0.583320
C23	C	0.909754	0.377745	-0.670570
C24	C	0.643320	0.428163	-0.428585
C25	C	0.577577	0.428144	-0.428620
C26	C	0.544697	0.377875	-0.378522
C27	C	0.577565	0.327607	-0.328400
C28	C	0.643306	0.327622	-0.328372
N29	N	0.441425	0.371744	-0.309865
N30	N	0.378974	0.371735	-0.309894
C31	C	0.346623	0.377825	-0.378605
N32	N	0.379082	0.383940	-0.447288
N33	N	0.441539	0.383954	-0.447258
C34	C	0.473412	0.377852	-0.378548
C35	C	0.242477	0.428064	-0.428767
C36	C	0.176733	0.428040	-0.428803
C37	C	0.176723	0.327507	-0.328576
C38	C	0.242465	0.327527	-0.328547
C39	C	0.275338	0.377810	-0.378641
C40	C	1.073890	0.377786	-0.378667
C41	C	1.143858	0.377769	-0.378706
C42	C	0.909778	0.173083	-0.378625
C43	C	0.909811	0.085833	-0.378645
C44	C	0.949964	0.709993	-0.328428
C45	C	0.949994	0.791974	-0.328448
C46	C	0.909728	0.832984	-0.378594
C47	C	0.869433	0.792010	-0.428729
C48	C	0.869406	0.710031	-0.428713
C49	C	0.869492	0.962880	-0.428759
C50	C	0.869518	1.044865	-0.428775
C51	C	0.950080	1.044822	-0.328495
C52	C	0.950053	0.962844	-0.328478
C53	C	0.909757	0.921875	-0.378612
C54	C	0.950036	0.327525	-0.711596
C55	C	0.950043	0.327499	-0.793577
C56	C	0.909772	0.377697	-0.834530
C57	C	0.869485	0.427919	-0.793498
C58	C	0.869475	0.427941	-0.711519
C59	C	0.869510	0.427872	-0.964369
C60	C	0.869521	0.427852	-1.046353
C61	C	0.950079	0.327430	-1.046426
C62	C	0.950069	0.327451	-0.964447
C63	C	0.909783	0.377675	-0.923421
C64	C	0.909698	0.377828	-0.174628
C65	C	0.909804	0.377632	-0.087379
H66	H	0.550817	0.469070	-0.469436
C67	C	0.985790	0.282965	-0.585963
C68	C	0.994303	0.272342	-0.666583
H69	H	1.013121	0.248897	-0.558177
H70	H	0.943502	0.271493	-0.572508
H71	H	0.994985	0.335709	-0.572526
H72	H	0.985103	0.219599	-0.680020
H73	H	1.036600	0.283809	-0.680043
C74	C	0.476783	0.282962	-0.283926
C75	C	0.541426	0.272357	-0.273324
H76	H	0.454474	0.248854	-0.249920
H77	H	0.466060	0.271533	-0.336685
H78	H	0.465973	0.335691	-0.272351
H79	H	0.552236	0.219629	-0.284905
H80	H	0.552153	0.283781	-0.220553
H81	H	0.982837	0.929453	-0.287641
C82	C	0.744098	0.472825	-0.473052
C83	C	0.679454	0.483423	-0.483657
H84	H	0.766405	0.506942	-0.507051
H85	H	0.754912	0.420105	-0.484629
H86	H	0.754818	0.484253	-0.420285
H87	H	0.668733	0.471989	-0.536423
H88	H	0.668636	0.536155	-0.472085
H89	H	0.836667	0.468827	-0.678117
C90	C	1.029712	0.228171	-1.038259
C91	C	0.994362	0.272221	-1.091517
H92	H	1.057054	0.194095	-1.066100
H93	H	1.002296	0.198160	-1.006275
H94	H	1.053770	0.262387	-1.006291
H95	H	0.970300	0.238005	-1.123481
H96	H	1.021782	0.302234	-1.123515
C97	C	0.986020	1.170467	-0.284141
C98	C	0.994457	1.089851	-0.273489
H99	H	1.013441	1.198267	-0.250214
H100	H	0.943767	1.184019	-0.272495
H101	H	0.995141	1.183789	-0.336935
H102	H	0.985332	1.076528	-0.220695
H103	H	1.036720	1.076294	-0.285129
C104	C	0.838677	0.684740	-0.561579
C105	C	0.825116	0.664995	-0.483818
H106	H	0.811332	0.656939	-0.595601
H107	H	0.880958	0.671239	-0.573121
H108	H	0.832926	0.739434	-0.568755
H109	H	0.830871	0.610302	-0.476641
H110	H	0.782824	0.678491	-0.472272
H111	H	0.670061	0.286693	-0.287559
H112	H	0.836680	0.929527	-0.469587
C113	C	0.235887	0.527424	-0.527849
C114	C	0.278617	0.483323	-0.483839
H115	H	0.258198	0.561533	-0.561852
H116	H	0.210198	0.557403	-0.493609
H117	H	0.210293	0.493244	-0.557943
H118	H	0.304207	0.517503	-0.453741
H119	H	0.304317	0.453342	-0.518084
H120	H	0.982847	0.286606	-0.826976
C121	C	0.958823	0.221877	-0.872299
C122	C	0.994328	0.272258	-0.919436
H123	H	0.986146	0.187801	-0.844511
H124	H	0.931414	0.191866	-0.904277
H125	H	0.934839	0.251801	-0.836131
H126	H	1.018309	0.242334	-0.955608
H127	H	1.021749	0.302272	-0.887455
H128	H	0.149952	0.286573	-0.287789
C129	C	0.860768	1.137009	-0.534356
C130	C	0.825262	1.089952	-0.483897
H131	H	0.833445	1.164848	-0.568381
H132	H	0.888163	1.104970	-0.564418
H133	H	0.884767	1.173132	-0.504486
H134	H	0.801267	1.053825	-0.513767
H135	H	0.797855	1.121994	-0.453832
C136	C	0.789882	0.527105	-1.038052
C137	C	0.825250	0.483024	-1.091371
H138	H	0.762548	0.561162	-1.065846
H139	H	0.817287	0.557137	-1.006088
H140	H	0.765815	0.492907	-1.006069
H141	H	0.849320	0.517222	-1.123350
H142	H	0.797841	0.452990	-1.123349
C143	C	0.102890	0.439072	-0.534413
C144	C	0.140613	0.483287	-0.483901
H145	H	0.080594	0.473181	-0.568431
H146	H	0.073903	0.409134	-0.504587
H147	H	0.128594	0.404921	-0.564488
H148	H	0.114908	0.517434	-0.453823
H149	H	0.169604	0.513238	-0.513731
H150	H	0.982750	0.676608	-0.287590
H151	H	0.269220	0.286606	-0.287731
C152	C	0.860726	0.533479	-0.872136
C153	C	0.825235	0.483079	-0.919261
H154	H	0.833395	0.567558	-0.844283
H155	H	0.888137	0.563486	-0.904131
H156	H	0.884708	0.503569	-0.836025
H157	H	0.801257	0.512988	-0.955376
H158	H	0.797813	0.453068	-0.887263
C159	C	0.860669	0.884147	-0.534318
C160	C	0.825172	0.837090	-0.483850
H161	H	0.833341	0.911979	-0.568343
H162	H	0.888065	0.852108	-0.564381
H163	H	0.884668	0.920275	-0.504455
H164	H	0.801176	0.800957	-0.513714
H165	H	0.797765	0.869132	-0.453785
C166	C	1.029614	0.783697	-0.229315
C167	C	0.994282	0.837006	-0.273339
H168	H	1.056953	0.811500	-0.195289
H169	H	1.053667	0.751666	-0.263544
H170	H	1.002180	0.751781	-0.199244
H171	H	1.021716	0.868919	-0.303414
H172	H	0.970227	0.869050	-0.239106
H173	H	0.836693	0.468789	-0.826849
