data_functionalizedCrystal
_audit_creation_method	'MofGen! by Chris Wilmer'
_symmetry_space_group_name_H-M	'P1'
_symmetry_Int_Tables_number	1
_symmetry_cell_setting	triclinic
loop_
_symmetry_equiv_pos_as_xyz
  x,y,z
_cell_length_a	15.944551
_cell_length_b	15.944551
_cell_length_c	15.021413
_cell_angle_alpha	89.996935
_cell_angle_beta	89.997174
_cell_angle_gamma	96.501262
loop_
_atom_site_label
_atom_site_type_symbol
_atom_site_fract_x
_atom_site_fract_y
_atom_site_fract_z
O1	O	1.114529	-0.108321	-0.073941
O2	O	0.869979	-0.121677	-0.073964
O3	O	0.998932	0.007276	-0.073944
O4	O	0.985576	-0.237274	-0.073961
O5	O	0.998912	0.007257	0.074121
O6	O	0.869959	-0.121695	0.074101
O7	O	1.114508	-0.108339	0.074123
Zn8	Zn	0.992230	-0.115020	0.097620
Zn9	Zn	0.992257	-0.114996	-0.097461
O10	O	0.985555	-0.237292	0.074103
C11	C	0.838675	-0.121132	0.000066
C12	C	0.745429	-0.119470	0.000057
C13	C	0.530572	-0.035565	0.000081
C14	C	0.469562	-0.074518	-0.072926
C15	C	0.574703	-0.116462	0.000068
C16	C	0.469564	-0.074556	0.073054
C17	C	0.409790	-0.113551	0.000083
C18	C	0.514921	-0.155438	-0.072998
C19	C	0.514930	-0.155464	0.073047
C20	C	0.453937	-0.194476	0.000023
C21	C	0.669705	-0.118137	0.000059
C22	C	0.314789	-0.111883	0.000085
C23	C	0.998367	0.038561	0.000089
C24	C	0.996705	0.131807	0.000089
C25	C	1.145813	-0.108885	0.000092
C26	C	1.239059	-0.110547	0.000094
C27	C	0.986120	-0.268577	0.000069
C28	C	0.987782	-0.361823	0.000063
N29	N	0.992218	-0.115036	0.230758
C30	C	0.912801	0.346663	0.000069
C31	C	0.951753	0.407672	0.073077
C32	C	0.993698	0.302533	0.000082
C33	C	0.951792	0.407673	-0.072903
C34	C	0.990787	0.467445	0.000071
C35	C	1.032672	0.362313	0.073150
C36	C	1.032700	0.362308	-0.072895
C37	C	1.071711	0.423298	0.000131
C38	C	0.995372	0.207530	0.000089
C39	C	0.989119	0.562446	0.000070
N40	N	0.992276	-0.114973	-0.230598
C41	C	0.932581	-0.174636	0.470432
C42	C	1.008481	-0.190943	0.529772
C43	C	0.992239	-0.115015	0.412365
C44	C	0.916360	-0.098727	0.529766
C45	C	0.992253	-0.114997	0.587789
C46	C	1.068178	-0.131360	0.470398
C47	C	0.976006	-0.039111	0.470387
C48	C	1.051962	-0.055386	0.529701
C49	C	0.992230	-0.115028	0.311307
C50	C	0.992271	-0.114984	0.688844
H51	H	0.534918	-0.189621	-0.134787
H52	H	0.449470	-0.040332	0.134773
C53	C	0.542125	-0.201656	0.156422
H54	H	0.526777	-0.172837	0.208248
H55	H	0.514829	-0.257790	0.156943
H56	H	0.601558	-0.202817	0.155523
C57	C	1.078844	0.335308	0.156626
H58	H	1.097084	0.383694	0.191444
H59	H	1.041556	0.297267	0.190748
H60	H	1.126389	0.308312	0.139181
C61	C	0.864497	-0.242795	0.435264
H62	H	0.824819	-0.216934	0.400466
H63	H	0.890293	-0.281868	0.399598
H64	H	0.836365	-0.271625	0.484037
C65	C	1.120190	0.012745	0.564641
H66	H	1.094400	0.052464	0.599449
H67	H	1.159340	-0.013003	0.600249
H68	H	1.148915	0.040816	0.515771
C69	C	1.027051	-0.277641	0.565017
H70	H	1.077127	-0.270988	0.599797
H71	H	0.981188	-0.301332	0.600715
H72	H	1.034307	-0.314090	0.516274
C73	C	1.162464	0.468181	0.000242
H74	H	1.171197	0.502150	-0.051623
H75	H	1.170772	0.502819	0.051649
H76	H	1.201405	0.427282	0.000769
H77	H	1.066896	0.342185	-0.134615
C78	C	0.575574	0.055141	-0.000003
H79	H	0.609498	0.063827	0.051894
H80	H	0.610265	0.063434	-0.051378
H81	H	0.534716	0.094124	-0.000563
C82	C	0.957414	0.047563	0.435110
H83	H	1.003732	0.071724	0.400312
H84	H	0.907928	0.040746	0.399424
H85	H	0.949118	0.083699	0.483837
C86	C	0.905568	0.434816	-0.156284
H87	H	0.849124	0.408299	-0.156194
H88	H	0.905290	0.494360	-0.155979
H89	H	0.933766	0.418514	-0.208122
C90	C	0.829669	-0.080117	0.564996
H91	H	0.836341	-0.030048	0.599786
H92	H	0.793228	-0.072851	0.516254
H93	H	0.805960	-0.125975	0.600698
C94	C	0.822095	0.301661	0.000156
H95	H	0.793480	0.317077	0.052091
H96	H	0.793075	0.317839	-0.051181
H97	H	0.823775	0.242295	-0.000367
C98	C	0.905526	0.434835	0.156449
H99	H	0.942963	0.472503	0.190825
H100	H	0.858320	0.462295	0.138898
H101	H	0.886784	0.386455	0.191067
C102	C	0.442398	-0.028288	-0.156295
H103	H	0.468898	0.028163	-0.156203
H104	H	0.458685	-0.056474	-0.208140
H105	H	0.382848	-0.028014	-0.155961
H106	H	0.420779	-0.261683	-0.000023
H107	H	1.132368	-0.145206	0.444430
