data_functionalizedCrystal
_audit_creation_method	'MofGen! by Chris Wilmer'
_symmetry_space_group_name_H-M	'P1'
_symmetry_Int_Tables_number	1
_symmetry_cell_setting	triclinic
loop_
_symmetry_equiv_pos_as_xyz
  x,y,z
_cell_length_a	19.121063
_cell_length_b	12.759401
_cell_length_c	12.759401
_cell_angle_alpha	89.992843
_cell_angle_beta	87.574000
_cell_angle_gamma	87.535469
loop_
_atom_site_label
_atom_site_type_symbol
_atom_site_fract_x
_atom_site_fract_y
_atom_site_fract_z
Zn1	Zn	-0.279822	-1.588167	0.611831
Zn2	Zn	-0.397244	-1.580567	0.443623
Zn3	Zn	-0.279801	-1.412510	0.436165
Zn4	Zn	-0.397229	-1.404924	0.619259
O5	O	-0.338524	-1.496542	0.527720
O6	O	-0.295413	-1.734179	0.589531
O7	O	-0.381662	-1.558267	0.295613
O8	O	-0.181518	-1.442166	0.453237
O9	O	-0.381682	-1.728595	0.465950
O10	O	-0.181533	-1.571221	0.582299
O11	O	-0.295377	-1.434797	0.290133
O12	O	-0.295363	-1.264483	0.460439
O13	O	-0.381657	-1.429238	0.765295
O14	O	-0.381636	-1.258910	0.594958
O15	O	-0.295398	-1.563865	0.759838
O16	O	-0.495527	-1.550912	0.473152
O17	O	-0.495516	-1.421868	0.602190
C18	C	-0.338496	-1.223576	0.527696
C19	C	-0.338501	-1.106799	0.527712
C20	C	-0.521006	-1.484771	0.539309
C21	C	-0.599073	-1.479831	0.544303
C22	C	-0.293672	-0.945102	0.592174
C23	C	-0.293662	-1.054827	0.592169
C24	C	-0.383358	-1.049041	0.463264
C25	C	-0.383370	-0.939318	0.463275
C26	C	-0.635731	-1.544749	0.479521
C27	C	-0.709083	-1.540109	0.484223
C28	C	-0.745775	-1.470546	0.553703
C29	C	-0.709112	-1.405626	0.618492
C30	C	-0.635761	-1.410271	0.613794
C31	C	-0.967248	-1.453161	0.571250
C32	C	-1.040604	-1.448518	0.575941
C33	C	-1.040570	-1.583003	0.441673
C34	C	-0.967218	-1.587638	0.436977
C35	C	-0.930561	-1.522722	0.501770
C36	C	-0.820753	-1.465800	0.558509
C37	C	-0.855584	-1.527474	0.496969
C38	C	-0.155329	-1.508388	0.516108
C39	C	-0.077262	-1.513435	0.511159
C40	C	-0.338528	-1.496553	0.801753
C41	C	-0.338530	-1.496558	0.918530
C42	C	-0.338541	-0.770574	0.527737
C43	C	-0.338523	-0.887352	0.527728
C44	C	-0.293623	-1.566650	0.970553
C45	C	-0.293622	-1.566641	1.080277
C46	C	-0.383441	-1.426445	1.085946
C47	C	-0.383439	-1.426450	0.976224
C48	C	-0.338534	-1.496529	1.254753
C49	C	-0.338532	-1.496544	1.137976
H50	H	-0.257154	-0.902795	0.644655
H51	H	-0.738993	-1.348990	0.675068
Cl52	Cl	-0.439898	-1.338320	1.158483
H53	H	-0.419869	-1.091365	0.410786
H54	H	-0.419897	-0.892295	0.410795
Cl55	Cl	-0.589611	-1.632198	0.392163
Cl56	Cl	-0.589676	-1.328660	0.695241
H57	H	-1.070476	-1.391884	0.632538
Cl58	Cl	-0.237277	-1.127423	0.673193
Cl59	Cl	-0.755165	-1.621728	0.402782
Cl60	Cl	-0.237170	-1.654769	1.145672
H61	H	-0.937344	-1.644282	0.380401
Cl62	Cl	-0.921174	-1.371549	0.652703
H63	H	-0.825707	-1.584117	0.440402
Cl64	Cl	-1.086657	-1.664614	0.360232
H65	H	-0.850636	-1.409159	0.615077
H66	H	-0.420007	-1.369365	0.933866
H67	H	-0.257054	-1.623734	0.923581
