data_functionalizedCrystal
_audit_creation_method	'MofGen! by Chris Wilmer'
_symmetry_space_group_name_H-M	'P1'
_symmetry_Int_Tables_number	1
_symmetry_cell_setting	triclinic
loop_
_symmetry_equiv_pos_as_xyz
  x,y,z
_cell_length_a	13.897448
_cell_length_b	13.033293
_cell_length_c	13.897441
_cell_angle_alpha	82.791234
_cell_angle_beta	89.970373
_cell_angle_gamma	97.187372
loop_
_atom_site_label
_atom_site_type_symbol
_atom_site_fract_x
_atom_site_fract_y
_atom_site_fract_z
Zn1	Zn	-0.196879	1.597757	-0.733027
Zn2	Zn	0.136454	1.931091	-0.399694
Zn3	Zn	0.469788	2.264424	-0.066360
Zn4	Zn	-0.358211	1.597649	-0.571716
Zn5	Zn	-0.024877	1.930982	-0.238382
Zn6	Zn	0.308456	2.264316	0.094951
Zn7	Zn	-0.217386	1.422990	-0.551220
Zn8	Zn	0.115948	1.756323	-0.217887
Zn9	Zn	0.449281	2.089657	0.115446
Zn10	Zn	-0.378604	1.422964	-0.712453
Zn11	Zn	-0.045271	1.756297	-0.379119
Zn12	Zn	0.288063	2.089630	-0.045786
O13	O	-0.287770	1.510340	-0.642104
O14	O	0.045563	1.843673	-0.308771
O15	O	0.378897	2.177007	0.024563
O16	O	-0.201163	1.743990	-0.728817
O17	O	0.132170	2.077323	-0.395483
O18	O	0.465503	2.410657	-0.062150
O19	O	-0.339578	1.574446	-0.434011
O20	O	-0.006244	1.907779	-0.100678
O21	O	0.327089	2.241112	0.232655
O22	O	-0.079677	1.446230	-0.575370
O23	O	0.253656	1.779563	-0.242037
O24	O	0.586989	2.112896	0.091296
O25	O	-0.319693	1.743910	-0.610302
O26	O	0.013640	2.077244	-0.276969
O27	O	0.346974	2.410577	0.056365
O28	O	-0.064611	1.574630	-0.708943
O29	O	0.268722	1.907964	-0.375610
O30	O	0.602056	2.241297	-0.042276
O31	O	-0.236114	1.446125	-0.418953
O32	O	0.097219	1.779458	-0.085620
O33	O	0.430553	2.112791	0.247713
O34	O	-0.255888	1.276740	-0.555420
O35	O	0.077445	1.610073	-0.222087
O36	O	0.410778	1.943406	0.111246
O37	O	-0.354450	1.446185	-0.850168
O38	O	-0.021117	1.779518	-0.516834
O39	O	0.312216	2.112852	-0.183501
O40	O	-0.374335	1.276720	-0.673877
O41	O	-0.041001	1.610054	-0.340544
O42	O	0.292332	1.943387	-0.007210
O43	O	-0.220938	1.574605	-0.865284
O44	O	0.112395	1.907938	-0.531950
O45	O	0.445729	2.241272	-0.198617
O46	O	-0.495904	1.574420	-0.590352
O47	O	-0.162571	1.907754	-0.257018
O48	O	0.170762	2.241087	0.076315
O49	O	-0.510887	1.446080	-0.693751
O50	O	-0.177554	1.779413	-0.360417
O51	O	0.155780	2.112746	-0.027084
C52	C	-0.319551	1.238810	-0.610193
C53	C	0.013783	1.572143	-0.276859
C54	C	0.347116	1.905476	0.056474
C55	C	-0.333170	1.122648	-0.596564
C56	C	0.000164	1.455981	-0.263230
C57	C	0.333497	1.789315	0.070103
C58	C	-0.280686	1.070899	-0.649217
C59	C	0.052647	1.404232	-0.315884
C60	C	0.385980	1.737565	0.017450
C61	C	-0.294761	0.950839	-0.635132
C62	C	0.038572	1.284172	-0.301799
C63	C	0.371906	1.617506	0.031535
C64	C	-0.538393	1.510264	-0.642067
C65	C	-0.205060	1.843597	-0.308734
C66	C	0.128273	2.176930	0.024600
C67	C	-0.645600	1.510327	-0.642095
C68	C	-0.312266	1.843660	-0.308761
C69	C	0.021067	2.176993	0.024572
C70	C	-0.841882	1.510436	-0.642168
C71	C	-0.508549	1.843770	-0.308835
C72	C	-0.175215	2.177103	0.024499
C73	C	-0.732657	1.510373	-0.642130
C74	C	-0.399324	1.843706	-0.308797
C75	C	-0.065990	2.177039	0.024537
C76	C	-0.036165	1.510445	-0.642165
C77	C	0.297169	1.843778	-0.308832
C78	C	0.630502	2.177112	0.024501
C79	C	0.071055	1.510490	-0.642192
C80	C	0.404388	1.843823	-0.308858
C81	C	0.737721	2.177157	0.024475
C82	C	-0.287681	1.510404	-0.893705
C83	C	0.045652	1.843737	-0.560371
C84	C	0.378985	2.177071	-0.227038
C85	C	-0.287644	1.510431	-1.000922
C86	C	0.045690	1.843765	-0.667588
C87	C	0.379023	2.177098	-0.334255
C88	C	-0.255866	1.782931	-0.674141
C89	C	0.077467	2.116264	-0.340807
C90	C	0.410801	2.449597	-0.007474
C91	C	-0.242270	1.899092	-0.687793
C92	C	0.091063	2.232426	-0.354459
C93	C	0.424396	2.565759	-0.021126
C94	C	-0.287614	1.510453	-1.087994
C95	C	0.045719	1.843786	-0.754661
C96	C	0.379053	2.177119	-0.421327
C97	C	-0.287567	1.510483	-1.197230
C98	C	0.045766	1.843816	-0.863897
C99	C	0.379100	2.177149	-0.530564
C100	C	-0.287781	1.510336	-0.391489
C101	C	0.045552	1.843670	-0.058156
C102	C	0.378885	2.177003	0.275177
C103	C	-0.287524	1.510512	-0.284296
C104	C	0.045810	1.843845	0.049037
C105	C	0.379143	2.177178	0.382370
H106	H	-0.225330	1.115477	-0.704719
H107	H	0.108003	1.448811	-0.371386
H108	H	0.441337	1.782144	-0.038053
C109	C	-0.168541	0.958704	-0.761798
C110	C	0.164793	1.292037	-0.428465
C111	C	0.498126	1.625371	-0.095131
C112	C	-0.169260	1.065934	-0.761082
C113	C	0.164074	1.399267	-0.427749
C114	C	0.497407	1.732600	-0.094416
C115	C	-0.101365	1.120879	-0.829251
C116	C	0.231969	1.454213	-0.495918
C117	C	0.565302	1.787546	-0.162584
H118	H	-0.105735	0.940997	-0.745796
H119	H	0.227599	1.274331	-0.412463
H120	H	0.560932	1.607664	-0.079129
H121	H	-0.184816	0.940956	-0.824536
H122	H	0.148517	1.274289	-0.491203
H123	H	0.481851	1.607622	-0.157869
H124	H	-0.152979	1.083675	-0.698358
H125	H	0.180355	1.417008	-0.365025
H126	H	0.513688	1.750342	-0.031691
H127	H	-0.232049	1.083672	-0.777095
H128	H	0.101284	1.417005	-0.443761
H129	H	0.434617	1.750338	-0.110428
H130	H	-0.117640	1.103131	-0.891989
H131	H	0.215693	1.436464	-0.558656
H132	H	0.549026	1.769798	-0.225322
H133	H	-0.038564	1.103164	-0.813243
H134	H	0.294770	1.436498	-0.479910
H135	H	0.628103	1.769831	-0.146576
H136	H	-0.101850	1.193640	-0.828781
H137	H	0.231483	1.526974	-0.495447
H138	H	0.564817	1.860307	-0.162114
C139	C	-0.368702	0.891359	-0.561269
C140	C	-0.035369	1.224693	-0.227936
C141	C	0.297964	1.558026	0.105397
C142	C	-0.437899	0.828727	-0.608485
C143	C	-0.104566	1.162061	-0.275151
C144	C	0.228767	1.495394	0.058182
C145	C	-0.506034	0.773930	-0.540478
C146	C	-0.172701	1.107263	-0.207145
C147	C	0.160632	1.440597	0.126188
H148	H	-0.336834	0.848678	-0.514313
H149	H	-0.003501	1.182011	-0.180980
H150	H	0.329833	1.515344	0.152354
H151	H	-0.399866	0.939362	-0.530075
H152	H	-0.066533	1.272696	-0.196742
H153	H	0.266801	1.606029	0.136591
H154	H	-0.406739	0.780730	-0.639663
H155	H	-0.073406	1.114063	-0.306330
H156	H	0.259928	1.447397	0.027004
H157	H	-0.469792	0.871383	-0.655435
H158	H	-0.136459	1.204716	-0.322102
H159	H	0.196875	1.538050	0.011231
H160	H	-0.537198	0.821933	-0.509284
H161	H	-0.203865	1.155267	-0.175951
H162	H	0.129469	1.488600	0.157382
H163	H	-0.474157	0.731255	-0.493526
H164	H	-0.140824	1.064588	-0.160193
H165	H	0.192509	1.397921	0.173141
H166	H	-0.552997	0.731436	-0.572505
H167	H	-0.219664	1.064769	-0.239172
H168	H	0.113669	1.398102	0.094161
H169	H	-0.388520	1.078069	-0.541056
H170	H	-0.055187	1.411402	-0.207722
H171	H	0.278146	1.744736	0.125611
