data_functionalizedCrystal
_audit_creation_method	'MofGen! by Chris Wilmer'
_symmetry_space_group_name_H-M	'P1'
_symmetry_Int_Tables_number	1
_symmetry_cell_setting	triclinic
loop_
_symmetry_equiv_pos_as_xyz
  x,y,z
_cell_length_a	23.532407
_cell_length_b	14.519709
_cell_length_c	12.996460
_cell_angle_alpha	90.007090
_cell_angle_beta	90.000251
_cell_angle_gamma	83.264411
loop_
_atom_site_label
_atom_site_type_symbol
_atom_site_fract_x
_atom_site_fract_y
_atom_site_fract_z
O1	O	0.755765	0.111951	0.085441
O2	O	1.089099	0.445284	0.418774
O3	O	1.422432	0.778618	0.752107
O4	O	0.589975	0.128149	0.085471
O5	O	0.923308	0.461482	0.418805
O6	O	1.256642	0.794816	0.752138
O7	O	0.677266	-0.014240	0.085446
O8	O	1.010599	0.319093	0.418779
O9	O	1.343933	0.652426	0.752113
O10	O	0.668475	0.254341	0.085466
O11	O	1.001808	0.587674	0.418799
O12	O	1.335141	0.921007	0.752133
O13	O	0.677257	-0.014248	-0.085688
O14	O	1.010590	0.319085	0.247645
O15	O	1.343924	0.652419	0.580979
O16	O	0.589966	0.128141	-0.085663
O17	O	0.923299	0.461475	0.247671
O18	O	1.256633	0.794808	0.581004
O19	O	0.755756	0.111943	-0.085693
O20	O	1.089090	0.445277	0.247640
O21	O	1.422423	0.778610	0.580974
Cu22	Cu	0.672860	0.120042	-0.101304
Cu23	Cu	1.006194	0.453375	0.232030
Cu24	Cu	1.339527	0.786708	0.565363
Cu25	Cu	0.672871	0.120051	0.101082
Cu26	Cu	1.006204	0.453384	0.434415
Cu27	Cu	1.339538	0.786717	0.767748
O28	O	0.668465	0.254333	-0.085668
O29	O	1.001799	0.587666	0.247666
O30	O	1.335132	0.920999	0.580999
C31	C	0.568753	0.127733	-0.000092
C32	C	0.902086	0.461066	0.333241
C33	C	1.235419	0.794399	0.666575
C34	C	0.505530	0.126493	-0.000081
C35	C	0.838863	0.459826	0.333253
C36	C	1.172197	0.793159	0.666586
C37	C	0.676852	-0.048599	-0.000121
C38	C	1.010185	0.284734	0.333212
C39	C	1.343518	0.618067	0.666546
C40	C	0.675624	-0.150966	-0.000121
C41	C	1.008957	0.182367	0.333212
C42	C	1.342291	0.515701	0.666545
C43	C	0.671104	-0.525808	-0.000094
C44	C	1.004437	-0.192475	0.333239
C45	C	1.337771	0.140858	0.666573
C46	C	0.672359	-0.421515	-0.000102
C47	C	1.005692	-0.088182	0.333231
C48	C	1.339026	0.245151	0.666565
C49	C	0.673364	-0.338390	-0.000109
C50	C	1.006697	-0.005057	0.333225
C51	C	1.340030	0.328276	0.666558
C52	C	0.674619	-0.234091	-0.000115
C53	C	1.007953	0.099243	0.333219
C54	C	1.341286	0.432576	0.666552
C55	C	0.106772	0.202977	-0.000121
C56	C	0.440105	0.536311	0.333212
C57	C	0.773439	0.869644	0.666545
C58	C	0.047367	0.201825	-0.000128
C59	C	0.380700	0.535159	0.333206
C60	C	0.714033	0.868492	0.666539
O61	O	0.010942	0.272727	-0.000160
O62	O	0.344275	0.606061	0.333173
O63	O	0.677609	0.939394	0.666507
N64	N	0.024358	0.117175	-0.000132
N65	N	0.357692	0.450508	0.333201
N66	N	0.691025	0.783841	0.666534
C67	C	0.060759	0.033671	-0.000141
C68	C	0.394093	0.367004	0.333192
C69	C	0.727426	0.700337	0.666525
O70	O	0.035734	-0.038437	-0.000147
O71	O	0.369068	0.294896	0.333187
O72	O	0.702401	0.628230	0.666520
C73	C	0.120164	0.034824	-0.000142
C74	C	0.453497	0.368157	0.333191
C75	C	0.786830	0.701490	0.666525
C76	C	0.143168	0.119480	-0.000127
C77	C	0.476502	0.452813	0.333206
C78	C	0.809835	0.786146	0.666540
C79	C	0.129777	0.287626	-0.000107
C80	C	0.463111	0.620960	0.333226
C81	C	0.796444	0.954293	0.666559
C82	C	0.189179	0.288778	-0.000099
C83	C	0.522512	0.622111	0.333234
C84	C	0.855845	0.955445	0.666567
C85	C	0.225575	0.205281	-0.000105
C86	C	0.558908	0.538614	0.333229
C87	C	0.892241	0.871947	0.666562
C88	C	0.202570	0.120631	-0.000119
C89	C	0.535903	0.453965	0.333215
C90	C	0.869236	0.787298	0.666548
C91	C	0.156563	-0.048679	-0.000158
C92	C	0.489897	0.284654	0.333175
C93	C	0.823230	0.617988	0.666508
C94	C	0.215971	-0.047519	-0.000160
C95	C	0.549304	0.285815	0.333173
C96	C	0.882638	0.619148	0.666507
C97	C	0.238976	0.037137	-0.000145
C98	C	0.572309	0.370471	0.333188
C99	C	0.905642	0.703804	0.666522
C100	C	0.298367	0.038286	-0.000116
C101	C	0.631700	0.371619	0.333217
C102	C	0.965034	0.704952	0.666551
N103	N	0.321375	0.122936	-0.000111
N104	N	0.654709	0.456269	0.333222
N105	N	0.988042	0.789603	0.666555
C106	C	0.284979	0.206434	-0.000106
C107	C	0.618312	0.539767	0.333228
C108	C	0.951646	0.873100	0.666561
C109	C	-0.063994	0.031256	-0.000141
C110	C	0.269339	0.364589	0.333192
C111	C	0.602673	0.697922	0.666526
C112	C	-0.123397	0.030102	-0.000133
C113	C	0.209936	0.363435	0.333201
C114	C	0.543269	0.696768	0.666534
C115	C	-0.136786	0.198257	-0.000121
C116	C	0.196547	0.531590	0.333212
C117	C	0.529881	0.864923	0.666546
C118	C	-0.077382	0.199410	-0.000122
C119	C	0.255952	0.532743	0.333211
C120	C	0.589285	0.866076	0.666545
C121	C	-0.040986	0.115906	-0.000136
C122	C	0.292347	0.449240	0.333197
C123	C	0.625681	0.782573	0.666530
C124	C	0.409727	0.208846	-0.000087
C125	C	0.743060	0.542179	0.333246
C126	C	1.076393	0.875512	0.666579
C127	C	0.469134	0.209990	-0.000075
C128	C	0.802467	0.543323	0.333258
C129	C	1.135801	0.876657	0.666592
C130	C	0.482517	0.041836	-0.000092
C131	C	0.815851	0.375169	0.333242
C132	C	1.149184	0.708502	0.666575
C133	C	0.423115	0.040691	-0.000099
C134	C	0.756449	0.374024	0.333234
C135	C	1.089782	0.707358	0.666568
C136	C	0.386721	0.124204	-0.000100
C137	C	0.720054	0.457537	0.333233
C138	C	1.053388	0.790870	0.666566
O139	O	0.334827	-0.032579	-0.000088
O140	O	0.668160	0.300754	0.333245
O141	O	1.001493	0.634087	0.666578
O142	O	0.310012	0.278529	-0.000114
O143	O	0.643346	0.611863	0.333219
O144	O	0.976679	0.945196	0.666553
C145	C	0.776979	0.112360	-0.000128
C146	C	1.110312	0.445693	0.333206
C147	C	1.443645	0.779026	0.666539
C148	C	0.840201	0.113600	-0.000132
C149	C	1.173535	0.446933	0.333201
C150	C	1.506868	0.780266	0.666534
C151	C	0.668880	0.288692	-0.000099
C152	C	1.002213	0.622025	0.333235
C153	C	1.335546	0.955358	0.666568
C154	C	0.670107	0.391058	-0.000091
C155	C	1.003441	0.724392	0.333242
C156	C	1.336774	1.057725	0.666575
N157	N	0.672857	0.120035	-0.243651
N158	N	1.006190	0.453368	0.089682
N159	N	1.339524	0.786701	0.423016
C160	C	0.672870	0.120052	-0.663465
C161	C	1.006204	0.453385	-0.330132
C162	C	1.339537	0.786718	0.003202
C163	C	0.672865	0.120050	-0.546660
C164	C	1.006198	0.453383	-0.213327
C165	C	1.339532	0.786717	0.120007
C166	C	0.672864	0.120044	-0.453562
C167	C	1.006197	0.453377	-0.120228
C168	C	1.339531	0.786710	0.213105
C169	C	0.672858	0.120041	-0.336749
C170	C	1.006191	0.453374	-0.003416
C171	C	1.339525	0.786707	0.329918
N172	N	0.672879	0.120050	0.243429
N173	N	1.006212	0.453384	0.576762
N174	N	1.339546	0.786717	0.910096
H175	H	0.487860	0.278930	-0.000062
H176	H	0.821194	0.612263	0.333271
H177	H	1.154527	0.945597	0.666605
Br178	Br	0.080392	0.400961	-0.000100
Br179	Br	0.413726	0.734294	0.333234
Br180	Br	0.747059	1.067627	0.666567
Br181	Br	0.360343	0.322185	-0.000091
Br182	Br	0.693677	0.655519	0.333242
Br183	Br	1.027010	0.988852	0.666576
Br184	Br	0.220389	0.403674	-0.000083
Br185	Br	0.553723	0.737008	0.333250
Br186	Br	0.887056	1.070341	0.666583
Br187	Br	-0.186192	0.311576	-0.000116
Br188	Br	0.147141	0.644909	0.333217
Br189	Br	0.480474	0.978243	0.666551
H190	H	-0.058656	0.268344	-0.000116
H191	H	0.274678	0.601677	0.333218
H192	H	0.608011	0.935011	0.666551
Br193	Br	0.265362	-0.160852	-0.000185
Br194	Br	0.598696	0.172482	0.333149
Br195	Br	0.932029	0.505815	0.666482
H196	H	-0.142122	-0.038834	-0.000129
H197	H	0.191211	0.294500	0.333205
H198	H	0.524545	0.627833	0.666538
H199	H	-0.034363	-0.036747	-0.000143
H200	H	0.298970	0.296586	0.333190
H201	H	0.632303	0.629920	0.666523
Br202	Br	0.125358	-0.163577	-0.000156
Br203	Br	0.458692	0.169757	0.333177
Br204	Br	0.792025	0.503090	0.666511
H205	H	0.404384	-0.028243	-0.000096
H206	H	0.737718	0.305091	0.333237
H207	H	1.071051	0.638424	0.666571
H208	H	0.512162	-0.026146	-0.000092
H209	H	0.845495	0.307188	0.333241
H210	H	1.178828	0.640521	0.666574
