data_functionalizedCrystal
_audit_creation_method	'MofGen! by Chris Wilmer'
_symmetry_space_group_name_H-M	'P1'
_symmetry_Int_Tables_number	1
_symmetry_cell_setting	triclinic
loop_
_symmetry_equiv_pos_as_xyz
  x,y,z
_cell_length_a	12.827893
_cell_length_b	21.295416
_cell_length_c	12.827885
_cell_angle_alpha	89.964373
_cell_angle_beta	90.019272
_cell_angle_gamma	89.969508
loop_
_atom_site_label
_atom_site_type_symbol
_atom_site_fract_x
_atom_site_fract_y
_atom_site_fract_z
Zn1	Zn	1.597561	0.250576	0.590806
Zn2	Zn	2.097561	0.750576	1.090806
Zn3	Zn	1.597410	0.355858	0.416049
Zn4	Zn	2.097410	0.855858	0.916049
Zn5	Zn	1.422803	0.250607	0.416080
Zn6	Zn	1.922803	0.750607	0.916080
Zn7	Zn	1.422742	0.355812	0.590749
Zn8	Zn	1.922742	0.855812	1.090749
O9	O	1.510129	0.303213	0.503421
O10	O	2.010129	0.803213	1.003421
O11	O	1.743777	0.264548	0.567635
O12	O	2.243777	0.764548	1.067635
O13	O	1.574209	0.341929	0.269817
O14	O	2.074209	0.841929	0.769817
O15	O	1.446073	0.162514	0.439295
O16	O	1.946073	0.662514	0.939295
O17	O	1.743666	0.341899	0.439242
O18	O	2.243666	0.841899	0.939242
O19	O	1.574468	0.162491	0.567666
O20	O	2.074468	0.662491	1.067666
O21	O	1.445926	0.264601	0.269840
O22	O	1.945926	0.764601	0.769840
O23	O	1.276558	0.264556	0.439239
O24	O	1.776558	0.764556	0.939239
O25	O	1.445971	0.341819	0.736992
O26	O	1.945971	0.841819	1.236992
O27	O	1.276514	0.341850	0.567567
O28	O	1.776514	0.841850	1.067567
O29	O	1.574409	0.264503	0.737035
O30	O	2.074409	0.764503	1.237035
O31	O	1.574151	0.443941	0.439186
O32	O	2.074151	0.943941	0.939186
O33	O	1.445824	0.443907	0.567537
O34	O	1.945824	0.943907	1.067537
C35	C	1.238619	0.303202	0.503401
C36	C	1.738619	0.803202	1.003401
C37	C	1.122466	0.303212	0.503417
C38	C	1.622466	0.803212	1.003417
C39	C	1.070736	0.265004	0.567049
C40	C	1.570736	0.765004	1.067049
C41	C	0.950686	0.265014	0.567068
C42	C	1.450686	0.765014	1.067068
C43	C	1.509993	0.466765	0.503375
C44	C	2.009993	0.966765	1.003375
C45	C	1.510030	0.536733	0.503390
C46	C	2.010030	1.036733	1.003390
C47	C	1.576910	0.569596	0.436628
C48	C	2.076910	1.069596	0.936628
C49	C	1.576959	0.635339	0.436656
C50	C	2.076959	1.135339	0.936656
C51	C	1.510110	0.668215	0.503435
C52	C	2.010110	1.168215	1.003435
C53	C	1.443226	0.635344	0.570210
C54	C	1.943226	1.135344	1.070210
C55	C	1.443186	0.569603	0.570187
C56	C	1.943186	1.069603	1.070187
N57	N	1.418694	0.771481	0.511403
N58	N	1.918694	1.271481	1.011403
N59	N	1.418735	0.833932	0.511418
N60	N	1.918735	1.333932	1.011418
C61	C	1.510228	0.866290	0.503509
C62	C	2.010228	1.366290	1.003509
N63	N	1.601681	0.833837	0.495564
N64	N	2.101681	1.333837	0.995564
N65	N	1.601639	0.771380	0.495543
N66	N	2.101639	1.271380	0.995543
C67	C	1.510146	0.739501	0.503468
C68	C	2.010146	1.239501	1.003468
C69	C	1.577167	0.970439	0.436775
C70	C	2.077167	1.470439	0.936775
C71	C	1.577218	1.036183	0.436810
C72	C	2.077218	1.536183	0.936810
C73	C	1.443475	1.036187	0.570358
C74	C	1.943475	1.536187	1.070358
C75	C	1.443434	0.970444	0.570328
C76	C	1.943434	1.470444	1.070328
C77	C	1.510278	0.937574	0.503531
C78	C	2.010278	1.437574	1.003531
C79	C	1.782699	0.303225	0.503441
C80	C	2.282699	0.803225	1.003441
C81	C	1.898852	0.303230	0.503450
C82	C	2.398852	0.803230	1.003450
C83	C	1.510200	0.303153	0.775991
C84	C	2.010200	0.803153	1.275991
C85	C	1.510230	0.303127	0.892144
C86	C	2.010230	0.803127	1.392144
C87	C	1.510295	1.139023	0.503508
C88	C	2.010295	1.639023	1.003508
C89	C	1.510370	1.069055	0.503591
C90	C	2.010370	1.569055	1.003591
C91	C	1.510118	0.303228	0.231911
C92	C	2.010118	0.803228	0.731911
C93	C	1.510290	0.303076	0.115758
C94	C	2.010290	0.803076	0.615758
C95	C	1.573793	0.264861	0.943950
C96	C	2.073793	0.764861	1.443950
C97	C	1.573826	0.264834	1.064001
C98	C	2.073826	0.764834	1.564001
H99	H	1.077877	0.335928	0.448951
H100	H	1.577877	0.835928	0.948951
Br101	Br	1.667641	0.524990	0.345990
Br102	Br	2.167641	1.024990	0.845990
H103	H	1.631424	0.662102	0.382291
H104	H	2.131424	1.162102	0.882291
H105	H	1.388723	0.542845	0.624554
H106	H	1.888723	1.042845	1.124554
Br107	Br	1.419590	0.357691	1.041517
Br108	Br	1.919590	0.857691	1.541517
H109	H	1.388799	0.662116	0.624584
H110	H	1.888799	1.162116	1.124584
H111	H	1.389050	1.062954	0.624736
H112	H	1.889050	1.562954	1.124736
Br113	Br	1.668002	1.080785	0.346208
Br114	Br	2.168002	1.580785	0.846208
H115	H	1.115325	0.232284	0.621510
H116	H	1.615325	0.732284	1.121510
Br117	Br	0.972985	0.357761	0.412650
Br118	Br	1.472985	0.857761	0.912650
H119	H	1.631599	0.943675	0.382387
H120	H	2.131599	1.443675	0.882387
H121	H	1.628247	0.232075	1.108552
H122	H	2.128247	0.732075	1.608552
Br123	Br	1.352661	0.925840	0.660936
Br124	Br	1.852661	1.425840	1.160936
H125	H	0.906199	0.232305	0.621549
H126	H	1.406199	0.732305	1.121549
Br127	Br	1.664427	0.210269	0.869752
Br128	Br	2.164427	0.710269	1.369752
H129	H	1.455830	0.335863	0.936668
H130	H	1.955830	0.835863	1.436668
