data_functionalizedCrystal
_audit_creation_method	'MofGen! by Chris Wilmer'
_symmetry_space_group_name_H-M	'P1'
_symmetry_Int_Tables_number	1
_symmetry_cell_setting	triclinic
loop_
_symmetry_equiv_pos_as_xyz
  x,y,z
_cell_length_a	9.065218
_cell_length_b	10.723023
_cell_length_c	8.140239
_cell_angle_alpha	89.997483
_cell_angle_beta	89.997198
_cell_angle_gamma	84.741717
loop_
_atom_site_label
_atom_site_type_symbol
_atom_site_fract_x
_atom_site_fract_y
_atom_site_fract_z
O1	O	1.959358	0.182984	-0.136614
O2	O	2.459358	0.682984	0.363386
O3	O	1.529988	0.197993	-0.136616
O4	O	2.029988	0.697993	0.363384
O5	O	1.754578	0.008953	-0.136608
O6	O	2.254578	0.508953	0.363392
O7	O	1.734769	0.372025	-0.136622
O8	O	2.234769	0.872025	0.363378
O9	O	1.754565	0.008950	0.136619
O10	O	2.254565	0.508950	0.636619
O11	O	1.529976	0.197991	0.136611
O12	O	2.029976	0.697991	0.636611
O13	O	1.959346	0.182982	0.136613
O14	O	2.459346	0.682982	0.636613
Zn15	Zn	1.744659	0.190486	0.179993
Zn16	Zn	2.244659	0.690486	0.679993
Zn17	Zn	1.744675	0.190489	-0.179995
Zn18	Zn	2.244675	0.690489	0.320005
O19	O	1.734756	0.372022	0.136606
O20	O	2.234756	0.872022	0.636606
C21	C	1.475004	0.196550	-0.000002
C22	C	1.975004	0.696550	0.499998
C23	C	1.311185	0.192237	-0.000003
C24	C	1.811185	0.692237	0.499997
C25	C	1.753130	-0.037554	0.000004
C26	C	2.253130	0.462446	0.500004
C27	C	1.748818	-0.176126	-0.000002
C28	C	2.248818	0.323874	0.499998
C29	C	1.746902	-0.237898	-0.141544
C30	C	2.246902	0.262102	0.358456
C31	C	1.742445	-0.381119	-0.141552
C32	C	2.242445	0.118881	0.358448
C33	C	2.014330	0.184425	-0.000004
C34	C	2.514330	0.684425	0.499996
C35	C	2.178149	0.188739	-0.000014
C36	C	2.678149	0.688739	0.499986
C37	C	1.736204	0.418529	-0.000010
C38	C	2.236204	0.918529	0.499990
C39	C	1.740516	0.557101	-0.000015
C40	C	2.240516	1.057101	0.499985
N41	N	1.744658	0.190483	0.425676
N42	N	2.244658	0.690483	0.925676
N43	N	1.744687	0.190482	-0.425678
N44	N	2.244687	0.690482	0.074322
H45	H	1.748555	-0.184752	-0.262716
H46	H	2.248555	0.315248	0.237284
H47	H	1.742171	-0.389785	0.121170
H48	H	2.242171	0.110215	0.621170
H49	H	1.740804	-0.434243	-0.262732
H50	H	2.240804	0.065757	0.237268
H51	H	1.747149	-0.229270	0.121171
H52	H	2.247149	0.270730	0.621171
