data_functionalizedCrystal
_audit_creation_method	'MofGen! by Chris Wilmer'
_symmetry_space_group_name_H-M	'P1'
_symmetry_Int_Tables_number	1
_symmetry_cell_setting	triclinic
loop_
_symmetry_equiv_pos_as_xyz
  x,y,z
_cell_length_a	14.044220
_cell_length_b	14.044191
_cell_length_c	12.503572
_cell_angle_alpha	86.162165
_cell_angle_beta	86.154684
_cell_angle_gamma	86.809673
loop_
_atom_site_label
_atom_site_type_symbol
_atom_site_fract_x
_atom_site_fract_y
_atom_site_fract_z
O1	O	-0.225146	1.282208	-0.089264
O2	O	-0.216832	1.005536	-0.089277
O3	O	-0.082653	1.139719	-0.089266
O4	O	-0.359324	1.148025	-0.089275
O5	O	-0.092763	1.129629	0.089375
O6	O	-0.226941	0.995446	0.089364
O7	O	-0.235255	1.272118	0.089378
Cu8	Cu	-0.232021	1.132861	0.105682
Cu9	Cu	-0.220066	1.144793	-0.105582
O10	O	-0.369434	1.137935	0.089366
C11	C	-0.218250	0.964869	0.000041
C12	C	-0.207403	0.858726	0.000036
C13	C	-0.264504	0.613267	0.000045
C14	C	-0.187587	0.664393	0.000046
C15	C	-0.198615	0.772530	0.000040
C16	C	-0.253477	0.505120	0.000050
C17	C	-0.400001	1.146616	0.000044
C18	C	-0.506144	1.157461	0.000041
C19	C	-0.700482	1.177287	0.000047
C20	C	-0.751610	1.100372	0.000044
C21	C	-0.859747	1.111404	0.000047
C22	C	-0.592336	1.166257	0.000044
C23	C	-0.052086	1.131038	0.000053
C24	C	0.054057	1.120194	0.000050
C25	C	-0.233837	1.312785	0.000056
C26	C	-0.244684	1.418928	0.000055
N27	N	-0.240430	1.124475	0.254274
N28	N	-0.211650	1.153186	-0.254173
C29	C	-0.252808	1.112140	0.473388
C30	C	-0.199275	1.165518	0.526719
C31	C	-0.206162	1.158654	0.648642
C32	C	-0.245922	1.119002	0.351454
H33	H	-0.338630	0.650709	0.000039
H34	H	-0.737922	1.251414	0.000055
H35	H	-0.148273	1.216371	0.480811
C36	C	-0.315250	1.049913	0.645889
C37	C	-0.321666	1.043503	0.535354
H38	H	-0.357767	1.007546	0.684151
H39	H	-0.251701	1.033023	0.664250
H40	H	-0.331948	1.113516	0.664231
H41	H	-0.304962	0.979900	0.517010
H42	H	-0.385230	1.060386	0.516985
H43	H	-0.113451	0.626954	-0.000027
H44	H	-0.714169	1.026238	0.000041
