data_functionalizedCrystal
_audit_creation_method	'MofGen! by Chris Wilmer'
_symmetry_space_group_name_H-M	'P1'
_symmetry_Int_Tables_number	1
_symmetry_cell_setting	triclinic
loop_
_symmetry_equiv_pos_as_xyz
  x,y,z
_cell_length_a	18.050591
_cell_length_b	18.050589
_cell_length_c	19.077271
_cell_angle_alpha	87.676607
_cell_angle_beta	92.286692
_cell_angle_gamma	90.027061
loop_
_atom_site_label
_atom_site_type_symbol
_atom_site_fract_x
_atom_site_fract_y
_atom_site_fract_z
Zn1	Zn	1.118444	-0.278823	-0.397897
Zn2	Zn	1.451778	0.054510	-0.064564
Zn3	Zn	1.785111	0.387844	0.268770
Zn4	Zn	1.123338	-0.408007	-0.280209
Zn5	Zn	1.456672	-0.074673	0.053124
Zn6	Zn	1.790005	0.258660	0.386458
Zn7	Zn	0.999246	-0.283832	-0.280223
Zn8	Zn	1.332579	0.049501	0.053111
Zn9	Zn	1.665913	0.382835	0.386444
Zn10	Zn	0.994212	-0.402974	-0.397876
Zn11	Zn	1.327546	-0.069641	-0.064542
Zn12	Zn	1.660879	0.263693	0.268791
O13	O	1.058810	-0.343409	-0.339051
O14	O	1.392144	-0.010076	-0.005718
O15	O	1.725477	0.323258	0.327616
O16	O	1.223018	-0.295969	-0.382289
O17	O	1.556351	0.037364	-0.048956
O18	O	1.889685	0.370697	0.284378
O19	O	1.111032	-0.395737	-0.181720
O20	O	1.444365	-0.062404	0.151613
O21	O	1.777699	0.270929	0.484947
O22	O	1.015117	-0.179242	-0.295847
O23	O	1.348450	0.154091	0.037486
O24	O	1.681783	0.487424	0.370820
O25	O	1.226613	-0.390880	-0.295824
O26	O	1.559947	-0.057547	0.037509
O27	O	1.893280	0.275787	0.370843
O28	O	1.102691	-0.175562	-0.382302
O29	O	1.436024	0.157771	-0.048969
O30	O	1.769358	0.491105	0.284365
O31	O	1.019862	-0.304507	-0.181730
O32	O	1.353195	0.028827	0.151604
O33	O	1.686529	0.362160	0.484937
O34	O	0.894654	-0.299627	-0.295826
O35	O	1.227987	0.033707	0.037507
O36	O	1.561321	0.367040	0.370841
O37	O	1.006537	-0.382302	-0.496370
O38	O	1.339870	-0.048969	-0.163036
O39	O	1.673204	0.284364	0.170297
O40	O	0.890956	-0.387160	-0.382265
O41	O	1.224289	-0.053826	-0.048932
O42	O	1.557622	0.279507	0.284401
O43	O	1.097810	-0.291089	-0.496385
O44	O	1.431143	0.042244	-0.163052
O45	O	1.764476	0.375577	0.170281
O46	O	1.106151	-0.511264	-0.295803
O47	O	1.439484	-0.177931	0.037530
O48	O	1.772818	0.155402	0.370863
O49	O	1.011283	-0.507567	-0.382252
O50	O	1.344616	-0.174233	-0.048919
O51	O	1.677949	0.159100	0.284414
C52	C	0.865858	-0.343391	-0.339045
C53	C	1.199192	-0.010058	-0.005712
C54	C	1.532525	0.323276	0.327621
C55	C	0.783312	-0.343401	-0.339060
C56	C	1.116645	-0.010067	-0.005726
C57	C	1.449979	0.323266	0.327607
C58	C	0.532499	-0.391106	-0.386001
C59	C	0.865833	-0.057773	-0.052668
C60	C	1.199166	0.275560	0.280665
C61	C	0.584590	-0.411907	-0.321761
C62	C	0.917923	-0.078574	0.011573
C63	C	1.251256	0.254760	0.344906
C64	C	0.486192	-0.343424	-0.339058
C65	C	0.819525	-0.010091	-0.005725
C66	C	1.152858	0.323243	0.327608
C67	C	0.581183	-0.322647	-0.403296
C68	C	0.914517	0.010686	-0.069962
C69	C	1.247850	0.344020	0.263371
C70	C	0.632177	-0.343414	-0.339062
C71	C	0.965510	-0.010081	-0.005729
C72	C	1.298843	0.323253	0.327604
C73	C	0.537196	-0.364261	-0.274784
C74	C	0.870529	-0.030928	0.058550
C75	C	1.203863	0.302406	0.391883
C76	C	0.533783	-0.274968	-0.356362
C77	C	0.867117	0.058366	-0.023029
C78	C	1.200450	0.391699	0.310305
C79	C	0.585853	-0.295744	-0.292077
C80	C	0.919187	0.037589	0.041256
C81	C	1.252520	0.370922	0.374589
C82	C	0.402093	-0.343431	-0.339057
C83	C	0.735427	-0.010098	-0.005724
C84	C	1.068760	0.323235	0.327610
C85	C	0.716273	-0.343407	-0.339056
C86	C	1.049607	-0.010073	-0.005723
C87	C	1.382940	0.323260	0.327610
C88	C	1.058721	-0.536362	-0.339039
C89	C	1.392054	-0.203028	-0.005706
C90	C	1.725388	0.130305	0.327627
C91	C	1.058750	-0.618907	-0.339058
C92	C	1.392083	-0.285573	-0.005725
C93	C	1.725417	0.047760	0.327609
C94	C	1.007210	-0.816374	-0.386053
C95	C	1.340543	-0.483041	-0.052719
C96	C	1.673877	-0.149707	0.280614
C97	C	0.991831	-0.868537	-0.321830
C98	C	1.325165	-0.535203	0.011504
C99	C	1.658498	-0.201870	0.344837
C100	C	1.058822	-0.770036	-0.339067
C101	C	1.392156	-0.436703	-0.005734
C102	C	1.725489	-0.103370	0.327600
C103	C	1.074237	-0.864955	-0.403297
C104	C	1.407570	-0.531622	-0.069964
C105	C	1.740904	-0.198289	0.263369
C106	C	1.058891	-0.916021	-0.339082
C107	C	1.392224	-0.582688	-0.005748
C108	C	1.725558	-0.249354	0.327585
C109	C	1.043410	-0.821113	-0.274810
C110	C	1.376743	-0.487780	0.058523
C111	C	1.710076	-0.154447	0.391856
C112	C	1.125845	-0.817526	-0.356321
C113	C	1.459178	-0.484192	-0.022988
C114	C	1.792512	-0.150859	0.310345
C115	C	1.110494	-0.869668	-0.292054
C116	C	1.443828	-0.536335	0.041279
C117	C	1.777161	-0.203001	0.374613
C118	C	1.058781	-0.685939	-0.339060
C119	C	1.392114	-0.352605	-0.005726
C120	C	1.725448	-0.019272	0.327607
C121	C	1.058933	-1.000117	-0.339082
C122	C	1.392266	-0.666784	-0.005749
C123	C	1.725599	-0.333451	0.327585
C124	C	1.252516	-0.343427	-0.339057
C125	C	1.585849	-0.010094	-0.005724
C126	C	1.919182	0.323239	0.327609
C127	C	1.335061	-0.343435	-0.339060
C128	C	1.668395	-0.010102	-0.005727
C129	C	2.001728	0.323231	0.327607
C130	C	1.051066	-0.335576	-0.522629
C131	C	1.384399	-0.002242	-0.189296
C132	C	1.717733	0.331091	0.144038
C133	C	1.047766	-0.332238	-0.600859
C134	C	1.381099	0.001096	-0.267526
C135	C	1.714433	0.334429	0.065808
C136	C	1.058919	-0.149702	-0.339078
C137	C	1.392253	0.183631	-0.005745
C138	C	1.725586	0.516965	0.327588
C139	C	1.058966	-0.067156	-0.339090
C140	C	1.392299	0.266177	-0.005756
C141	C	1.725632	0.599511	0.327577
C142	C	1.024097	-0.308355	-1.041212
C143	C	1.357430	0.024978	-0.707879
C144	C	1.690763	0.358311	-0.374546
C145	C	1.027201	-0.311489	-0.967707
C146	C	1.360534	0.021844	-0.634374
C147	C	1.693868	0.355178	-0.301040
C148	C	1.076216	-0.360558	-0.930948
C149	C	1.409550	-0.027225	-0.597615
C150	C	1.742883	0.306108	-0.264282
C151	C	1.122136	-0.406492	-0.967699
C152	C	1.455469	-0.073159	-0.634365
C153	C	1.788802	0.260175	-0.301032
C154	C	1.119035	-0.403354	-1.041203
C155	C	1.452368	-0.070021	-0.707870
C156	C	1.785701	0.263313	-0.374536
C157	C	1.090584	-0.375033	-0.711114
C158	C	1.423918	-0.041700	-0.377780
C159	C	1.757251	0.291633	-0.044447
C160	C	1.093680	-0.378169	-0.637605
C161	C	1.427014	-0.044836	-0.304271
C162	C	1.760347	0.288497	0.029062
C163	C	0.998746	-0.283165	-0.637618
C164	C	1.332079	0.050169	-0.304284
C165	C	1.665413	0.383502	0.029049
C166	C	0.995646	-0.280034	-0.711123
C167	C	1.328980	0.053299	-0.377790
C168	C	1.662313	0.386632	-0.044457
C169	C	1.041568	-0.325965	-0.747867
C170	C	1.374902	0.007368	-0.414534
C171	C	1.708235	0.340702	-0.081201
N172	N	1.079389	-0.363764	-0.855814
N173	N	1.412722	-0.030431	-0.522481
N174	N	1.746056	0.302902	-0.189147
N175	N	1.038399	-0.322755	-0.823000
N176	N	1.371732	0.010578	-0.489667
N177	N	1.705065	0.343912	-0.156334
C178	C	1.066567	-0.351158	-0.156187
C179	C	1.399900	-0.017825	0.177146
C180	C	1.733234	0.315509	0.510479
C181	C	1.070011	-0.354287	-0.077958
C182	C	1.403344	-0.020954	0.255376
C183	C	1.736678	0.312380	0.588709
H184	H	0.600595	-0.305078	-0.457619
H185	H	0.933928	0.028255	-0.124285
H186	H	1.267262	0.361589	0.209048
H187	H	1.156424	-0.440755	-1.071120
H188	H	1.489758	-0.107422	-0.737787
H189	H	1.823091	0.225911	-0.404453
H190	H	1.162048	-0.446442	-0.937764
H191	H	1.495382	-0.113109	-0.604431
H192	H	1.828715	0.220224	-0.271097
H193	H	0.961360	-0.245770	-0.607693
H194	H	1.294693	0.087564	-0.274359
H195	H	1.628027	0.420897	0.058974
H196	H	0.609079	-0.255419	-0.252335
H197	H	0.942413	0.077915	0.080998
H198	H	1.275746	0.411248	0.414332
H199	H	0.509141	-0.431468	-0.425648
H200	H	0.842474	-0.098135	-0.092315
H201	H	1.175807	0.235199	0.241019
H202	H	0.606883	-0.469795	-0.307121
H203	H	0.940216	-0.136462	0.026212
H204	H	1.273549	0.196871	0.359545
H205	H	0.517876	-0.381900	-0.220446
H206	H	0.851210	-0.048566	0.112888
H207	H	1.184543	0.284767	0.446221
H208	H	0.511473	-0.217095	-0.371020
H209	H	0.844806	0.116238	-0.037686
H210	H	1.178139	0.449571	0.295647
H211	H	1.182478	-0.795128	-0.370932
H212	H	1.515811	-0.461795	-0.037599
H213	H	1.849144	-0.128461	0.295734
H214	H	0.963504	-0.793040	-0.425730
H215	H	1.296837	-0.459707	-0.092397
H216	H	1.630170	-0.126374	0.240936
H217	H	0.935185	-0.890935	-0.307249
H218	H	1.268518	-0.557602	0.026084
H219	H	1.601851	-0.224268	0.359417
H220	H	0.984181	-0.268399	-1.071136
H221	H	1.317515	0.064934	-0.737803
H222	H	1.650848	0.398268	-0.404469
H223	H	1.030333	-0.801855	-0.220482
H224	H	1.363667	-0.468522	0.112851
H225	H	1.697000	-0.135188	0.446184
H226	H	1.154172	-0.892868	-0.252280
H227	H	1.487506	-0.559535	0.081053
H228	H	1.820839	-0.226202	0.414386
H229	H	1.087248	-0.884304	-0.457610
H230	H	1.420581	-0.550970	-0.124277
H231	H	1.753915	-0.217637	0.209056
H232	H	0.989812	-0.274087	-0.937792
H233	H	1.323145	0.059246	-0.604459
H234	H	1.656478	0.392579	-0.271125
H235	H	1.133612	-0.418115	-0.607678
H236	H	1.466945	-0.084781	-0.274344
H237	H	1.800278	0.248552	0.058989
H238	H	0.955729	-0.240080	-0.741047
H239	H	1.289063	0.093253	-0.407714
H240	H	1.622396	0.426587	-0.074380
H241	H	1.127975	-0.412435	-0.741022
H242	H	1.461309	-0.079102	-0.407689
H243	H	1.794642	0.254231	-0.074355
