data_functionalizedCrystal
_audit_creation_method	'MofGen! by Chris Wilmer'
_symmetry_space_group_name_H-M	'P1'
_symmetry_Int_Tables_number	1
_symmetry_cell_setting	triclinic
loop_
_symmetry_equiv_pos_as_xyz
  x,y,z
_cell_length_a	21.295417
_cell_length_b	21.295418
_cell_length_c	16.625539
_cell_angle_alpha	90.043900
_cell_angle_beta	89.966627
_cell_angle_gamma	89.951286
loop_
_atom_site_label
_atom_site_type_symbol
_atom_site_fract_x
_atom_site_fract_y
_atom_site_fract_z
Zn1	Zn	-0.250302	-0.962331	-0.456383
Zn2	Zn	0.249698	-0.462331	0.043617
Zn3	Zn	-0.355575	-0.962241	-0.321538
Zn4	Zn	0.144425	-0.462241	0.178462
Zn5	Zn	-0.250358	-0.857062	-0.321509
Zn6	Zn	0.249642	-0.357062	0.178491
Zn7	Zn	-0.355571	-0.857024	-0.456273
Zn8	Zn	0.144429	-0.357024	0.043727
O9	O	-0.302951	-0.909664	-0.388926
O10	O	0.197049	-0.409664	0.111074
O11	O	-0.264246	-1.050409	-0.438554
O12	O	0.235754	-0.550409	0.061446
O13	O	-0.341643	-0.948267	-0.208702
O14	O	0.158357	-0.448267	0.291298
O15	O	-0.162261	-0.871080	-0.339434
O16	O	0.337739	-0.371080	0.160566
O17	O	-0.341589	-1.050342	-0.339484
O18	O	0.158411	-0.550342	0.160516
O19	O	-0.162220	-0.948421	-0.438525
O20	O	0.337780	-0.448421	0.061475
O21	O	-0.264340	-0.870992	-0.208680
O22	O	0.235660	-0.370992	0.291320
O23	O	-0.264336	-0.768967	-0.339327
O24	O	0.235664	-0.268967	0.160673
O25	O	-0.341582	-0.871015	-0.569120
O26	O	0.158418	-0.371015	-0.069120
O27	O	-0.341635	-0.768939	-0.438338
O28	O	0.158365	-0.268939	0.061662
O29	O	-0.264241	-0.948384	-0.569201
O30	O	0.235759	-0.448384	-0.069201
O31	O	-0.443664	-0.948230	-0.339378
O32	O	0.056336	-0.448230	0.160622
O33	O	-0.443661	-0.870928	-0.438367
O34	O	0.056339	-0.370928	0.061633
C35	C	-0.302991	-0.746113	-0.388818
C36	C	0.197009	-0.246113	0.111182
C37	C	-0.303024	-0.676145	-0.388791
C38	C	0.196976	-0.176145	0.111209
C39	C	-0.343328	-0.643280	-0.440266
C40	C	0.156672	-0.143280	0.059734
C41	C	-0.343316	-0.577538	-0.440296
C42	C	0.156684	-0.077538	0.059704
C43	C	-0.303005	-0.544662	-0.388837
C44	C	0.196995	-0.044662	0.111163
C45	C	-0.262692	-0.577535	-0.337358
C46	C	0.237308	-0.077535	0.162642
C47	C	-0.262702	-0.643276	-0.337335
C48	C	0.237298	-0.143276	0.162665
N49	N	-0.298093	-0.441390	-0.318305
N50	N	0.201907	0.058610	0.181695
N51	N	-0.298088	-0.378939	-0.318329
N52	N	0.201912	0.121061	0.181671
C53	C	-0.302973	-0.346588	-0.388904
C54	C	0.197027	0.153412	0.111096
N55	N	-0.307876	-0.379047	-0.459456
N56	N	0.192124	0.120953	0.040544
N57	N	-0.307884	-0.441504	-0.459431
N58	N	0.192116	0.058496	0.040569
C59	C	-0.302990	-0.473377	-0.388856
C60	C	0.197010	0.026623	0.111144
C61	C	-0.343266	-0.242437	-0.440416
C62	C	0.156734	0.257563	0.059584
C63	C	-0.343249	-0.176694	-0.440448
C64	C	0.156751	0.323306	0.059552
C65	C	-0.262629	-0.176692	-0.337503
C66	C	0.237371	0.323308	0.162497
C67	C	-0.262643	-0.242435	-0.337478
C68	C	0.237357	0.257565	0.162522
C69	C	-0.302965	-0.275303	-0.388934
C70	C	0.197035	0.224697	0.111066
C71	C	-0.466503	-0.909582	-0.388881
C72	C	0.033497	-0.409582	0.111119
C73	C	-0.536471	-0.909604	-0.388889
C74	C	-0.036471	-0.409604	0.111111
C75	C	-0.569319	-0.949891	-0.337398
C76	C	-0.069319	-0.449891	0.162602
C77	C	-0.635061	-0.949921	-0.337416
C78	C	-0.135061	-0.449921	0.162584
C79	C	-0.667954	-0.909652	-0.388917
C80	C	-0.167954	-0.409652	0.111083
C81	C	-0.635098	-0.869362	-0.440418
C82	C	-0.135098	-0.369362	0.059582
C83	C	-0.569357	-0.869338	-0.440404
C84	C	-0.069357	-0.369338	0.059596
N85	N	-0.771237	-0.854585	-0.395027
N86	N	-0.271237	-0.354585	0.104973
N87	N	-0.833688	-0.854609	-0.395036
N88	N	-0.333688	-0.354609	0.104964
C89	C	-0.866028	-0.909723	-0.388963
C90	C	-0.366028	-0.409723	0.111037
N91	N	-0.833558	-0.964812	-0.382866
N92	N	-0.333558	-0.464812	0.117134
N93	N	-0.771101	-0.964787	-0.382853
N94	N	-0.271101	-0.464787	0.117147
C95	C	-0.739239	-0.909674	-0.388938
C96	C	-0.239239	-0.409674	0.111062
C97	C	-0.970161	-0.950045	-0.337489
C98	C	-0.470161	-0.450045	0.162511
C99	C	-1.035905	-0.950076	-0.337513
C100	C	-0.535905	-0.450076	0.162487
C101	C	-1.035941	-0.869511	-0.440510
C102	C	-0.535941	-0.369511	0.059490
C103	C	-0.970198	-0.869486	-0.440491
C104	C	-0.470198	-0.369486	0.059509
C105	C	-0.937313	-0.909752	-0.388976
C106	C	-0.437313	-0.409752	0.111024
C107	C	-0.138761	-0.909764	-0.388988
C108	C	0.361239	-0.409764	0.111012
C109	C	-0.068793	-0.909807	-0.389015
C110	C	0.431207	-0.409807	0.110985
C111	C	-0.302905	-0.909705	-0.599235
C112	C	0.197095	-0.409705	-0.099235
C113	C	-0.302885	-0.909723	-0.688856
C114	C	0.197115	-0.409723	-0.188856
C115	C	-0.302922	-0.073855	-0.389011
C116	C	0.197078	0.426145	0.110989
C117	C	-0.302937	-0.143823	-0.388989
C118	C	0.197063	0.356177	0.111011
C119	C	-0.302814	-0.909752	-1.017032
C120	C	0.197186	-0.409752	-0.517032
C121	C	-0.302836	-0.909742	-0.925723
C122	C	0.197164	-0.409742	-0.425723
C123	C	-0.302850	-0.909738	-0.852947
C124	C	0.197150	-0.409738	-0.352947
C125	C	-0.302870	-0.909727	-0.761633
C126	C	0.197130	-0.409727	-0.261633
C127	C	-0.302953	-0.909660	-0.179435
C128	C	0.197047	-0.409660	0.320565
C129	C	-0.302795	-0.909764	-0.089814
C130	C	0.197205	-0.409764	0.410186
H131	H	-0.229870	-0.550763	-0.295461
H132	H	0.270130	-0.050763	0.204539
C133	C	-0.896286	-0.958810	-0.229023
C134	C	-0.396286	-0.458810	0.270977
C135	C	-0.934007	-0.994308	-0.280873
C136	C	-0.434007	-0.494308	0.219127
H137	H	-0.873970	-0.986137	-0.194069
H138	H	-0.373970	-0.486137	0.305931
H139	H	-0.867316	-0.934814	-0.259685
H140	H	-0.367316	-0.434814	0.240315
H141	H	-0.921993	-0.931411	-0.198143
H142	H	-0.421993	-0.431411	0.301857
H143	H	-0.908299	-1.021704	-0.311758
H144	H	-0.408299	-0.521704	0.188242
H145	H	-0.962980	-1.018315	-0.250208
H146	H	-0.462980	-0.518315	0.249792
C147	C	-0.708920	-1.034611	-0.326334
C148	C	-0.208920	-0.534611	0.173666
C149	C	-0.671185	-0.994190	-0.280799
C150	C	-0.171185	-0.494190	0.219201
H151	H	-0.731219	-1.061937	-0.291376
H152	H	-0.231219	-0.561937	0.208624
H153	H	-0.737905	-1.010632	-0.357015
H154	H	-0.237905	-0.510632	0.142985
H155	H	-0.683225	-1.058683	-0.361483
H156	H	-0.183225	-0.558683	0.138517
H157	H	-0.696882	-0.970114	-0.245655
H158	H	-0.196882	-0.470114	0.254345
H159	H	-0.642197	-1.018171	-0.250104
H160	H	-0.142197	-0.518171	0.249896
H161	H	-0.943452	-0.836678	-0.482416
H162	H	-0.443452	-0.336678	0.017584
C163	C	-0.655441	-0.762758	-0.479521
C164	C	-0.155441	-0.262758	0.020479
C165	C	-0.671249	-0.825097	-0.497030
C166	C	-0.171249	-0.325097	0.002970
H167	H	-0.677756	-0.735433	-0.514479
H168	H	-0.177756	-0.235433	-0.014479
H169	H	-0.666261	-0.753576	-0.425340
H170	H	-0.166261	-0.253576	0.074660
H171	H	-0.611585	-0.756987	-0.486885
H172	H	-0.111585	-0.256987	0.013115
H173	H	-0.715104	-0.830869	-0.489661
H174	H	-0.215104	-0.330869	0.010339
H175	H	-0.660433	-0.834282	-0.551224
H176	H	-0.160433	-0.334282	-0.051224
C177	C	-1.029262	-1.029695	-0.235690
C178	C	-0.529262	-0.529695	0.264310
C179	C	-1.072014	-0.994362	-0.280908
C180	C	-0.572014	-0.494362	0.219092
H181	H	-1.051556	-1.057032	-0.200741
H182	H	-0.551556	-0.557032	0.299259
H183	H	-1.003571	-1.053750	-0.270851
H184	H	-0.503571	-0.553750	0.229149
H185	H	-1.003672	-1.002262	-0.204800
H186	H	-0.503672	-0.502262	0.295200
H187	H	-1.097601	-1.021795	-0.311803
H188	H	-0.597601	-0.521795	0.188197
H189	H	-1.097716	-0.970305	-0.245743
H190	H	-0.597716	-0.470305	0.254257
C191	C	-1.136730	-0.833776	-0.486265
C192	C	-0.636730	-0.333776	0.013735
C193	C	-1.072089	-0.825248	-0.497124
C194	C	-0.572089	-0.325248	0.002876
H195	H	-1.159046	-0.806448	-0.521217
H196	H	-0.659046	-0.306448	-0.021217
H197	H	-1.147440	-0.876066	-0.498140
H198	H	-0.647440	-0.376066	0.001860
H199	H	-1.147542	-0.824589	-0.432075
H200	H	-0.647542	-0.324589	0.067925
H201	H	-1.061276	-0.834440	-0.551313
H202	H	-0.561276	-0.334440	-0.051313
H203	H	-1.061374	-0.782948	-0.485254
H204	H	-0.561374	-0.282948	0.014746
H205	H	-0.376161	-0.670038	-0.482166
H206	H	0.123839	-0.170038	0.017834
H207	H	-0.376136	-0.550774	-0.482216
H208	H	0.123864	-0.050774	0.017784
H209	H	-0.229879	-0.670034	-0.295418
H210	H	0.270121	-0.170034	0.204582
C211	C	-0.495448	-0.958662	-0.228929
C212	C	0.004552	-0.458662	0.271071
C213	C	-0.533174	-0.994157	-0.280778
C214	C	-0.033174	-0.494157	0.219222
H215	H	-0.473137	-0.985992	-0.193972
H216	H	0.026863	-0.485992	0.306028
H217	H	-0.466474	-0.934672	-0.259592
H218	H	0.033526	-0.434672	0.240408
H219	H	-0.521152	-0.931258	-0.198051
H220	H	-0.021152	-0.431258	0.301949
H221	H	-0.507470	-1.021558	-0.311660
H222	H	-0.007470	-0.521558	0.188340
H223	H	-0.562152	-1.018157	-0.250112
H224	H	-0.062152	-0.518157	0.249888
C225	C	-0.422945	-0.235838	-0.542185
C226	C	0.077055	0.264162	-0.042185
C227	C	-0.387577	-0.278572	-0.496986
C228	C	0.112423	0.221428	0.003014
H229	H	-0.450297	-0.258146	-0.577112
H230	H	0.049703	0.241854	-0.077112
H231	H	-0.446987	-0.210145	-0.507010
H232	H	0.053013	0.289855	-0.007010
H233	H	-0.395536	-0.210248	-0.573096
H234	H	0.104464	0.289752	-0.073096
H235	H	-0.414987	-0.304159	-0.466069
H236	H	0.085013	0.195841	0.033931
H237	H	-0.363534	-0.304275	-0.532165
H238	H	0.136466	0.195725	-0.032165
C239	C	-0.352098	-0.102851	-0.548920
C240	C	0.147902	0.397149	-0.048920
C241	C	-0.387555	-0.140568	-0.497036
C242	C	0.112445	0.359432	0.002964
H243	H	-0.379453	-0.080552	-0.583859
H244	H	0.120547	0.419448	-0.083859
H245	H	-0.328092	-0.073866	-0.518283
H246	H	0.171908	0.426134	-0.018283
H247	H	-0.324711	-0.128559	-0.579817
H248	H	0.175289	0.371441	-0.079817
H249	H	-0.414939	-0.114860	-0.466136
H250	H	0.085061	0.385140	0.033864
H251	H	-0.411572	-0.169556	-0.527677
H252	H	0.088428	0.330444	-0.027677
H253	H	-0.229804	-0.149926	-0.295607
H254	H	0.270196	0.350074	0.204393
H255	H	-0.229825	-0.269193	-0.295558
H256	H	0.270175	0.230807	0.204442
H257	H	-0.542612	-0.836531	-0.482335
H258	H	-0.042612	-0.336531	0.017665
