data_functionalizedCrystal
_audit_creation_method	'MofGen! by Chris Wilmer'
_symmetry_space_group_name_H-M	'P1'
_symmetry_Int_Tables_number	1
_symmetry_cell_setting	triclinic
loop_
_symmetry_equiv_pos_as_xyz
  x,y,z
_cell_length_a	17.699083
_cell_length_b	19.188924
_cell_length_c	16.176319
_cell_angle_alpha	89.991125
_cell_angle_beta	89.998611
_cell_angle_gamma	83.212490
loop_
_atom_site_label
_atom_site_type_symbol
_atom_site_fract_x
_atom_site_fract_y
_atom_site_fract_z
O1	O	1.003960	0.088295	-0.068634
O2	O	0.783566	0.099782	-0.068662
O3	O	0.900126	-0.007610	-0.068638
O4	O	0.887400	0.195687	-0.068659
O5	O	0.900110	-0.007617	0.068855
O6	O	0.783550	0.099775	0.068831
O7	O	1.003944	0.088288	0.068859
Cu8	Cu	0.893746	0.094031	0.081399
Cu9	Cu	0.893765	0.094039	-0.081202
O10	O	0.887384	0.195680	0.068834
C11	C	0.755362	0.099367	0.000081
C12	C	0.671345	0.098132	0.000071
C13	C	0.899707	-0.033625	0.000110
C14	C	0.898472	-0.111132	0.000112
C15	C	0.622640	0.161169	0.000065
C16	C	0.543698	0.160005	0.000076
C17	C	0.513464	0.095803	0.000087
C18	C	0.562175	0.032761	0.000096
C19	C	0.641116	0.033926	0.000091
C20	C	0.243819	0.028060	0.000116
C21	C	0.164872	0.026900	0.000119
C22	C	0.146401	0.154139	0.000101
C23	C	0.225341	0.155305	0.000096
C24	C	0.274046	0.092263	0.000110
C25	C	0.359644	0.093526	0.000099
C26	C	0.427868	0.094538	0.000091
C27	C	0.897905	-0.147527	-0.074836
C28	C	0.896734	-0.220351	-0.074843
C29	C	0.896146	-0.256779	0.000103
C30	C	0.896710	-0.220374	0.075061
C31	C	0.897873	-0.147550	0.075065
N32	N	0.937384	-0.376398	0.055889
N33	N	0.936281	-0.445578	0.055879
C34	C	0.892641	-0.476192	0.000095
N35	N	0.850154	-0.435014	-0.055693
N36	N	0.851261	-0.365828	-0.055686
C37	C	0.894885	-0.335744	0.000107
C38	C	0.890803	-0.591552	-0.074865
C39	C	0.889627	-0.664376	-0.074869
C40	C	0.889610	-0.664398	0.075037
C41	C	0.890778	-0.591574	0.075038
C42	C	0.891378	-0.555155	0.000085
C43	C	1.032149	0.088703	0.000114
C44	C	1.116165	0.089938	0.000118
C45	C	0.887804	0.221695	0.000085
C46	C	0.889038	0.299202	0.000078
N47	N	0.893738	0.094025	0.195764
N48	N	0.893778	0.094040	-0.195568
C49	C	0.945366	0.046491	0.239039
C50	C	0.945370	0.046490	0.325586
C51	C	0.893749	0.094027	0.368857
C52	C	0.842115	0.141564	0.325576
C53	C	0.842108	0.141560	0.239030
C54	C	0.842141	0.141577	0.674604
C55	C	0.842153	0.141578	0.761156
C56	C	0.945403	0.046506	0.761160
C57	C	0.945396	0.046503	0.674615
C58	C	0.893760	0.094037	0.631341
C59	C	0.893755	0.094036	0.537497
C60	C	0.893756	0.094032	0.462700
H61	H	0.647250	0.213450	0.000055
C62	C	0.889003	-0.704413	-0.157319
C63	C	0.954886	-0.702435	-0.219133
C64	C	0.954263	-0.742471	-0.301585
C65	C	0.887757	-0.784485	-0.322223
C66	C	0.821869	-0.786465	-0.260407
C67	C	0.822492	-0.746429	-0.177955
H68	H	1.004122	-0.671332	-0.203857
H69	H	1.003037	-0.741005	-0.347345
H70	H	0.887296	-0.814123	-0.383259
H71	H	0.772633	-0.817568	-0.275683
H72	H	0.773718	-0.747894	-0.132195
C73	C	0.896059	-0.260437	0.157504
C74	C	0.961913	-0.258472	0.219354
C75	C	0.961256	-0.298532	0.301801
C76	C	0.894746	-0.340559	0.322399
C77	C	0.828887	-0.342526	0.260547
C78	C	0.829544	-0.302465	0.178100
H79	H	1.011153	-0.227360	0.204108
H80	H	1.010010	-0.297076	0.347587
H81	H	0.894260	-0.370214	0.383431
H82	H	0.779648	-0.373638	0.275794
H83	H	0.780791	-0.303921	0.132314
C84	C	0.490122	0.229347	0.000072
C85	C	0.523377	0.299968	0.000056
C86	C	0.469800	0.369314	0.000057
C87	C	0.382968	0.368038	0.000073
C88	C	0.349708	0.297414	0.000089
C89	C	0.403285	0.228069	0.000088
H90	H	0.587659	0.300915	0.000044
H91	H	0.494422	0.421594	0.000045
H92	H	0.343308	0.419372	0.000074
H93	H	0.285426	0.296467	0.000101
H94	H	0.378663	0.175788	0.000100
C95	C	0.785330	0.193857	0.373169
C96	C	0.785369	0.193899	0.468366
C97	C	0.728584	0.246196	0.515956
C98	C	0.671759	0.298449	0.468349
C99	C	0.671718	0.298409	0.373147
C100	C	0.728503	0.246112	0.325557
H101	H	0.827436	0.155216	0.503612
H102	H	0.728614	0.246225	0.586431
H103	H	0.629723	0.337162	0.503578
H104	H	0.629651	0.337092	0.337901
H105	H	0.728472	0.246082	0.255082
C106	C	1.002199	-0.005789	0.808762
C107	C	1.002211	-0.005795	0.903959
C108	C	1.059007	-0.058087	0.951558
C109	C	1.115791	-0.110372	0.903960
C110	C	1.115782	-0.110368	0.808758
C111	C	1.058986	-0.058076	0.761159
H112	H	0.960173	0.032911	0.939198
H113	H	1.059014	-0.058090	1.022033
H114	H	1.157835	-0.149082	0.939196
H115	H	1.157819	-0.149074	0.773519
H116	H	1.058979	-0.058073	0.690684
C117	C	0.896110	-0.260398	-0.157290
C118	C	0.894829	-0.340501	-0.157292
C119	C	0.894204	-0.380545	-0.239739
C120	C	0.894860	-0.340487	-0.322183
C121	C	0.896140	-0.260379	-0.322183
C122	C	0.896766	-0.220335	-0.239737
H123	H	0.894344	-0.370159	-0.096260
H124	H	0.893256	-0.439846	-0.239738
H125	H	0.894397	-0.370130	-0.383214
H126	H	0.896626	-0.230722	-0.383216
H127	H	0.897714	-0.161034	-0.239738
H128	H	0.283465	-0.023272	0.000128
H129	H	0.140259	-0.025384	0.000129
C130	C	0.528920	-0.037864	0.000107
C131	C	0.442090	-0.039149	0.000106
C132	C	0.408837	-0.109776	0.000113
C133	C	0.462414	-0.179116	0.000121
C134	C	0.549250	-0.177833	0.000122
C135	C	0.582503	-0.107207	0.000115
H136	H	0.402424	0.012183	0.000100
H137	H	0.344555	-0.110725	0.000113
H138	H	0.437798	-0.231398	0.000127
H139	H	0.588916	-0.229165	0.000128
H140	H	0.646785	-0.106257	0.000115
C141	C	0.888966	-0.704453	0.157484
C142	C	0.822459	-0.746478	0.178098
C143	C	0.821814	-0.786533	0.260550
C144	C	0.887676	-0.784563	0.322388
C145	C	0.954188	-0.742537	0.301776
C146	C	0.954833	-0.702481	0.219324
H147	H	0.773700	-0.747937	0.132320
H148	H	0.772576	-0.817644	0.275808
H149	H	0.887198	-0.814215	0.383424
H150	H	1.002947	-0.741077	0.347553
H151	H	1.004071	-0.671371	0.204066
C152	C	0.092823	0.223488	0.000097
C153	C	0.036008	0.240187	-0.071296
C154	C	-0.017568	0.309534	-0.071303
C155	C	-0.014327	0.362181	0.000082
C156	C	0.042490	0.345483	0.071480
C157	C	0.096066	0.276136	0.071488
H158	H	0.033607	0.201214	-0.124144
H159	H	-0.059628	0.321894	-0.124157
H160	H	-0.053987	0.413515	0.000077
H161	H	0.044891	0.384456	0.124329
H162	H	0.138126	0.263776	0.124342
C163	C	0.898504	-0.107511	0.157513
C164	C	0.832630	-0.109488	0.219339
C165	C	0.833264	-0.069449	0.301788
C166	C	0.899772	-0.027432	0.322411
C167	C	0.965651	-0.025454	0.260584
C168	C	0.965017	-0.065494	0.178135
H169	H	0.783393	-0.140593	0.204074
H170	H	0.784496	-0.070913	0.347556
H171	H	0.900241	0.002207	0.383445
H172	H	1.014888	0.005650	0.275849
H173	H	1.013785	-0.064029	0.132366
H174	H	0.680772	-0.017406	0.000095
C175	C	0.898551	-0.107469	-0.157285
C176	C	0.964102	-0.125514	-0.219114
C177	C	0.964743	-0.085455	-0.301563
C178	C	0.899834	-0.027350	-0.322184
C179	C	0.834277	-0.009302	-0.260353
C180	C	0.833636	-0.049361	-0.177903
H181	H	1.012156	-0.168530	-0.203851
H182	H	1.013273	-0.098816	-0.347334
H183	H	0.900308	0.002304	-0.383218
H184	H	0.786223	0.033714	-0.275616
H185	H	0.785107	-0.036000	-0.132132
H186	H	0.891246	-0.561941	0.136069
C187	C	0.891455	-0.551483	-0.157309
C188	C	0.957008	-0.569531	-0.219136
C189	C	0.957660	-0.529463	-0.301579
C190	C	0.892760	-0.471348	-0.322195
C191	C	0.827203	-0.453297	-0.260367
C192	C	0.826550	-0.493365	-0.177924
H193	H	1.005055	-0.612554	-0.203875
H194	H	1.006191	-0.542826	-0.347348
H195	H	0.893243	-0.441688	-0.383224
H196	H	0.779155	-0.410274	-0.275627
H197	H	0.778019	-0.480002	-0.132154
C198	C	1.002178	-0.005789	0.627017
C199	C	0.972778	-0.059151	0.567535
C200	C	1.029559	-0.111447	0.519937
C201	C	1.115740	-0.110379	0.531822
C202	C	1.145144	-0.057015	0.591307
C203	C	1.088363	-0.004720	0.638904
H204	H	0.908978	-0.059943	0.558734
H205	H	1.007792	-0.150951	0.475903
H206	H	1.157773	-0.149091	0.496588
H207	H	1.208945	-0.056223	0.600107
H208	H	1.110131	0.034784	0.682939
H209	H	0.249953	0.207585	0.000084
C210	C	0.785362	0.193868	0.808756
C211	C	0.728561	0.246151	0.761160
C212	C	0.671774	0.298438	0.808760
C213	C	0.671788	0.298442	0.903957
C214	C	0.728591	0.246157	0.951558
C215	C	0.785378	0.193869	0.903958
H216	H	0.728549	0.246150	0.690685
H217	H	0.629725	0.337143	0.773522
H218	H	0.629751	0.337148	0.939194
H219	H	0.728603	0.246158	1.022033
H220	H	0.827427	0.155164	0.939196
H221	H	0.987405	0.007784	0.203814
H222	H	0.987409	0.007784	0.360821
H223	H	0.800099	0.180281	0.639378
H224	H	0.800067	0.180267	0.203797
