data_functionalizedCrystal
_audit_creation_method	'MofGen! by Chris Wilmer'
_symmetry_space_group_name_H-M	'P1'
_symmetry_Int_Tables_number	1
_symmetry_cell_setting	triclinic
loop_
_symmetry_equiv_pos_as_xyz
  x,y,z
_cell_length_a	29.839134
_cell_length_b	29.839131
_cell_length_c	29.839125
_cell_angle_alpha	90.017709
_cell_angle_beta	90.021980
_cell_angle_gamma	90.036281
loop_
_atom_site_label
_atom_site_type_symbol
_atom_site_fract_x
_atom_site_fract_y
_atom_site_fract_z
Zn1	Zn	0.686720	-0.178978	0.254125
Zn2	Zn	0.686652	-0.254090	0.178995
Zn3	Zn	0.611602	-0.178968	0.178995
Zn4	Zn	0.611550	-0.254075	0.254083
O5	O	0.649131	-0.216528	0.216549
O6	O	0.749578	-0.188952	0.244176
O7	O	0.676690	-0.244127	0.116128
O8	O	0.621617	-0.116102	0.188978
O9	O	0.749528	-0.244137	0.188979
O10	O	0.676805	-0.116109	0.244176
O11	O	0.621551	-0.188935	0.116127
O12	O	0.548728	-0.188921	0.188938
O13	O	0.621528	-0.244111	0.316956
O14	O	0.548690	-0.244101	0.244105
O15	O	0.676755	-0.188937	0.316987
O16	O	0.676639	-0.316955	0.188938
O17	O	0.621462	-0.316944	0.244105
C18	C	0.532408	-0.216509	0.216517
C19	C	0.482474	-0.216511	0.216514
C20	C	0.172820	-0.245303	0.245240
C21	C	-0.014853	-0.245315	0.245260
O22	O	-0.039127	-0.269774	0.269665
N23	N	-0.038311	-0.216544	0.216583
C24	C	-0.014848	-0.187766	0.187902
O25	O	-0.039107	-0.163291	0.163514
C26	C	0.172824	-0.187751	0.187884
C27	C	0.196280	-0.216527	0.216560
C28	C	0.196276	-0.274076	0.273913
C29	C	0.243191	-0.274075	0.273906
C30	C	0.266651	-0.245299	0.245226
C31	C	0.243195	-0.216526	0.216553
C32	C	0.196286	-0.158971	0.159205
C33	C	0.243207	-0.158969	0.159204
C34	C	0.266663	-0.187745	0.187880
C35	C	0.313570	-0.187749	0.187865
N36	N	0.337029	-0.216520	0.216542
C37	C	0.313569	-0.245295	0.245222
C38	C	-0.113379	-0.187776	0.187912
C39	C	-0.160297	-0.187780	0.187916
C40	C	-0.160298	-0.245329	0.245275
C41	C	-0.113380	-0.245327	0.245269
C42	C	-0.089921	-0.216547	0.216589
C43	C	0.412095	-0.245290	0.245205
C44	C	0.459014	-0.245287	0.245194
C45	C	0.459012	-0.187736	0.187837
C46	C	0.412096	-0.187740	0.187846
C47	C	0.388639	-0.216519	0.216534
O48	O	0.337873	-0.163299	0.163477
O49	O	0.337836	-0.269759	0.269613
C50	C	0.125905	-0.245304	0.245247
C51	C	0.102449	-0.216531	0.216574
C52	C	0.125909	-0.187755	0.187893
C53	C	0.055531	-0.216535	0.216577
C54	C	0.032071	-0.245310	0.245258
C55	C	0.055529	-0.274082	0.273934
C56	C	0.102445	-0.274080	0.273927
C57	C	0.102451	-0.158984	0.159217
C58	C	0.055535	-0.158989	0.159226
C59	C	0.032075	-0.187764	0.187906
C60	C	0.649050	-0.333250	0.216527
C61	C	0.649056	-0.383185	0.216533
C62	C	0.677914	-0.692821	0.187866
C63	C	0.677969	-0.880494	0.187883
O64	O	0.702441	-0.904753	0.163493
N65	N	0.649224	-0.903970	0.216583
C66	C	0.620465	-0.880524	0.245283
O67	O	0.596020	-0.904798	0.269698
C68	C	0.620412	-0.692852	0.245268
C69	C	0.649156	-0.669379	0.216563
C70	C	0.706656	-0.669348	0.159164
C71	C	0.706640	-0.622433	0.159158
C72	C	0.677882	-0.598990	0.187854
C73	C	0.649140	-0.622463	0.216557
C74	C	0.591656	-0.669407	0.273969
C75	C	0.591646	-0.622486	0.273964
C76	C	0.620390	-0.599013	0.245259
C77	C	0.620367	-0.552106	0.245248
N78	N	0.649112	-0.528630	0.216548
C79	C	0.677869	-0.552072	0.187851
C80	C	0.620494	-0.979055	0.245289
C81	C	0.620507	-1.025973	0.245292
C82	C	0.678012	-1.025939	0.187893
C83	C	0.677996	-0.979021	0.187887
C84	C	0.649239	-0.955579	0.216589
C85	C	0.677834	-0.453547	0.187841
C86	C	0.677814	-0.406627	0.187836
C87	C	0.620311	-0.406664	0.245237
C88	C	0.620329	-0.453580	0.245240
C89	C	0.649094	-0.477020	0.216540
O90	O	0.595912	-0.527818	0.269629
O91	O	0.702318	-0.527791	0.163447
C92	C	0.677930	-0.739737	0.187872
C93	C	0.649188	-0.763210	0.216574
C94	C	0.620430	-0.739767	0.245271
C95	C	0.649200	-0.810128	0.216578
C96	C	0.677958	-0.833570	0.187881
C97	C	0.706703	-0.810094	0.159181
C98	C	0.706687	-0.763179	0.159175
C99	C	0.591685	-0.763243	0.273971
C100	C	0.591703	-0.810158	0.273974
C101	C	0.620461	-0.833601	0.245277
C102	C	0.766309	-0.216547	0.216582
C103	C	0.816244	-0.216555	0.216596
C104	C	0.649143	-0.216524	0.333728
C105	C	0.649148	-0.216522	0.383662
C106	C	0.649225	-0.099349	0.216582
C107	C	0.649265	-0.049415	0.216595
C108	C	0.649145	-0.216499	0.099827
C109	C	0.649227	-0.216374	0.049893
C110	C	0.677935	-0.187718	0.693325
C111	C	0.677957	-0.187680	0.880998
O112	O	0.702399	-0.163232	0.905279
N113	N	0.649208	-0.216402	0.904448
C114	C	0.620449	-0.245133	0.880976
O115	O	0.595993	-0.269559	0.905228
C116	C	0.620424	-0.245169	0.693304
C117	C	0.649179	-0.216448	0.669857
C118	C	0.706687	-0.158999	0.669877
C119	C	0.706683	-0.159011	0.622962
C120	C	0.677927	-0.187741	0.599494
C121	C	0.649175	-0.216460	0.622941
C122	C	0.591663	-0.273898	0.669833
C123	C	0.591659	-0.273903	0.622912
C124	C	0.620414	-0.245183	0.599465
C125	C	0.620415	-0.245202	0.552558
N126	N	0.649164	-0.216480	0.529108
C127	C	0.677920	-0.187749	0.552576
C128	C	0.620464	-0.245113	0.979507
C129	C	0.620471	-0.245105	1.026425
C130	C	0.677979	-0.187650	1.026443
C131	C	0.677974	-0.187661	0.979524
C132	C	0.649214	-0.216391	0.956057
C133	C	0.677910	-0.187776	0.454050
C134	C	0.677904	-0.187792	0.407130
C135	C	0.620395	-0.245244	0.407116
C136	C	0.620401	-0.245230	0.454032
C137	C	0.649161	-0.216493	0.477497
O138	O	0.595982	-0.269633	0.528248
O139	O	0.702366	-0.163320	0.528316
C140	C	0.677939	-0.187706	0.740240
C141	C	0.649187	-0.216425	0.763688
C142	C	0.620431	-0.245155	0.740219
C143	C	0.649194	-0.216417	0.810605
C144	C	0.677950	-0.187686	0.834074
C145	C	0.706699	-0.158964	0.810624
C146	C	0.706695	-0.158976	0.763708
C147	C	0.591682	-0.273877	0.763669
C148	C	0.591689	-0.273864	0.810585
C149	C	0.620445	-0.245133	0.834053
H150	H	0.478121	-0.164309	0.164485
H151	H	0.121547	-0.135551	0.135861
O152	O	-0.090545	-0.159882	0.160026
C153	C	-0.063444	-0.185412	0.130950
H154	H	-0.056419	-0.219479	0.146734
H155	H	-0.081548	-0.190304	0.097654
C156	C	-0.027499	-0.118831	0.103463
C157	C	-0.018868	-0.160671	0.122850
H158	H	-0.000004	-0.103569	0.098464
H159	H	-0.045759	-0.101630	0.123050
H160	H	-0.042588	-0.122914	0.075718
H161	H	-0.003785	-0.156588	0.150597
H162	H	-0.000604	-0.177871	0.103267
H163	H	0.568274	-0.297256	0.829671
H164	H	0.596984	-0.268637	0.388000
O165	O	0.173450	-0.131009	0.131405
C166	C	0.146338	-0.102024	0.157026
H167	H	0.139319	-0.117909	0.191049
H168	H	0.164431	-0.068730	0.162009
C169	C	0.110384	-0.074367	0.090533
C170	C	0.101760	-0.093879	0.132320
H171	H	0.082886	-0.069341	0.075293
H172	H	0.128651	-0.093893	0.073272
H173	H	0.125462	-0.046624	0.094692
H174	H	0.086687	-0.121624	0.128161
H175	H	0.083489	-0.074357	0.149580
O176	O	0.734611	-0.130992	0.833376
C177	C	0.724818	-0.086217	0.821923
H178	H	0.707550	-0.085288	0.787851
H179	H	0.701731	-0.071079	0.848322
C180	C	0.789843	-0.060148	0.861626
C181	C	0.768638	-0.059008	0.819776
H182	H	0.816873	-0.043363	0.860304
H183	H	0.796440	-0.090314	0.869344
H184	H	0.770600	-0.047534	0.883621
H185	H	0.787879	-0.071626	0.797783
H186	H	0.762045	-0.028843	0.812055
H187	H	0.701427	-1.045034	0.164527
H188	H	0.701220	-0.387517	0.164459
H189	H	0.036441	-0.135556	0.135871
H190	H	0.568268	-0.744160	0.297340
H191	H	0.262305	-0.135529	0.135852
O192	O	0.563673	-0.301752	0.600099
C193	C	0.534679	-0.276181	0.572944
H194	H	0.531935	-0.240792	0.587080
H195	H	0.548564	-0.274649	0.537389
C196	C	0.491330	-0.341587	0.554854
C197	C	0.487956	-0.298123	0.572218
H198	H	0.462510	-0.355123	0.554405
H199	H	0.510865	-0.358815	0.573148
H200	H	0.502903	-0.340305	0.525226
H201	H	0.476390	-0.299406	0.601848
H202	H	0.468419	-0.280895	0.553930
O203	O	0.734560	-0.131047	0.740889
C204	C	0.709000	-0.102022	0.713759
H205	H	0.674945	-0.117867	0.706711
H206	H	0.704083	-0.068731	0.731852
C207	C	0.775550	-0.074421	0.677862
C208	C	0.733725	-0.093884	0.669202
H209	H	0.790802	-0.069400	0.650378
H210	H	0.792771	-0.093974	0.696141
H211	H	0.771447	-0.046681	0.692941
H212	H	0.737828	-0.121626	0.654129
H213	H	0.716505	-0.074335	0.650920
H214	H	0.701402	-0.959912	0.164514
H215	H	0.392998	-0.164309	0.164496
O216	O	0.125157	-0.302046	0.301827
C217	C	0.094382	-0.327448	0.327131
H218	H	0.060950	-0.309047	0.328719
H219	H	0.089363	-0.361543	0.310618
C220	C	0.153767	-0.356595	0.372984
C221	C	0.112707	-0.333994	0.374937
H222	H	0.165070	-0.360635	0.402472
H223	H	0.174501	-0.339483	0.355935
H224	H	0.149579	-0.385005	0.359221
H225	H	0.116896	-0.305582	0.388695
H226	H	0.091973	-0.351102	0.391989
H227	H	0.568265	-0.297274	0.744566
O228	O	0.705788	-0.476242	0.159918
C229	C	0.731157	-0.445456	0.134595
H230	H	0.712742	-0.412031	0.133021
H231	H	0.765264	-0.440425	0.151081
C232	C	0.760288	-0.504826	0.088719
C233	C	0.737668	-0.463774	0.086784
H234	H	0.764306	-0.516126	0.059227
H235	H	0.743197	-0.525568	0.105781
H236	H	0.788708	-0.500628	0.102460
H237	H	0.709247	-0.467974	0.073048
H238	H	0.754754	-0.443033	0.069718
H239	H	0.730047	-0.603324	0.135785
O240	O	0.705918	-0.159718	0.956819
C241	C	0.731307	-0.134369	0.987600
H242	H	0.712910	-0.132809	1.021039
H243	H	0.765414	-0.150826	0.992595
C244	C	0.760415	-0.088475	0.928231
C245	C	0.737817	-0.086555	0.969301
H246	H	0.764432	-0.058981	0.916944
H247	H	0.743311	-0.105553	0.907493
H248	H	0.788835	-0.102191	0.932400
H249	H	0.709396	-0.072844	0.965131
H250	H	0.754917	-0.069473	0.990038
H251	H	0.036420	-0.297513	0.297286
H252	H	0.568248	-0.688511	0.297342
H253	H	0.597097	-1.045080	0.268662
O254	O	0.734606	-0.692046	0.131242
C255	C	0.759976	-0.661258	0.105920
H256	H	0.741563	-0.627833	0.104351
H257	H	0.794084	-0.656230	0.122407
C258	C	0.789103	-0.720625	0.060039
C259	C	0.766486	-0.679572	0.058108
H260	H	0.793121	-0.731922	0.030546
H261	H	0.772013	-0.741368	0.077099
H262	H	0.817524	-0.716430	0.073779
H263	H	0.738064	-0.683769	0.044372
H264	H	0.783572	-0.658830	0.041044
O265	O	0.705825	-0.159800	0.476791
C266	C	0.696036	-0.115026	0.465331
H267	H	0.678759	-0.114102	0.431264
H268	H	0.672959	-0.099879	0.491734
C269	C	0.761077	-0.088959	0.505011
C270	C	0.739860	-0.087824	0.463167
H271	H	0.788108	-0.072178	0.503678
H272	H	0.767671	-0.119124	0.512733
H273	H	0.741841	-0.076337	0.527009
H274	H	0.759093	-0.100450	0.441171
H275	H	0.733269	-0.057660	0.455441
H276	H	0.597076	-0.959972	0.268661
H277	H	0.568229	-0.603402	0.297337
O278	O	0.592454	-0.476365	0.273185
C279	C	0.602231	-0.464859	0.317968
H280	H	0.638114	-0.451923	0.320271
H281	H	0.578125	-0.437645	0.329681
C282	C	0.552928	-0.522417	0.345124
C283	C	0.597002	-0.506532	0.347954
H284	H	0.549701	-0.548122	0.363622
H285	H	0.546340	-0.530168	0.314953
H286	H	0.532846	-0.499735	0.354884
H287	H	0.617083	-0.529212	0.338189
H288	H	0.603593	-0.498785	0.378124
O289	O	0.481729	-0.273255	0.273094
C290	C	0.450958	-0.298659	0.298402
H291	H	0.417526	-0.280259	0.299994
H292	H	0.445939	-0.332754	0.281889
C293	C	0.510350	-0.327804	0.344247
C294	C	0.469289	-0.305204	0.346205
H295	H	0.521657	-0.331843	0.373734
H296	H	0.531081	-0.310690	0.327196
H297	H	0.506161	-0.356214	0.330484
H298	H	0.473479	-0.276792	0.359963
H299	H	0.448558	-0.322313	0.363260
H300	H	0.730104	-0.135601	0.688980
O301	O	0.705867	-0.159752	1.049314
C302	C	0.699709	-0.165914	1.095751
H303	H	0.665031	-0.180629	1.102142
H304	H	0.726343	-0.189833	1.109073
C305	C	0.746443	-0.102380	1.112000
C306	C	0.703849	-0.120451	1.119849
H307	H	0.748998	-0.074338	1.126865
H308	H	0.750593	-0.098230	1.080714
H309	H	0.768633	-0.122318	1.123101
H310	H	0.681660	-0.100516	1.108743
H311	H	0.699695	-0.124597	1.151134
O312	O	0.592500	-0.273022	1.049129
C313	C	0.567127	-0.298387	1.018349
H314	H	0.565585	-0.279989	0.984907
H315	H	0.583551	-0.332510	1.013358
C316	C	0.521202	-0.327448	1.077716
C317	C	0.519306	-0.304849	1.036643
H318	H	0.491704	-0.331436	1.089001
H319	H	0.538297	-0.310360	1.098453
H320	H	0.534891	-0.355882	1.073551
H321	H	0.505623	-0.276414	1.040809
H322	H	0.502207	-0.321932	1.015906
O323	O	-0.183111	-0.273216	0.273185
C324	C	-0.210230	-0.247677	0.302237
H325	H	-0.196066	-0.212299	0.305071
H326	H	-0.245792	-0.246109	0.288349
C327	C	-0.228345	-0.313141	0.345423
C328	C	-0.210945	-0.269689	0.348906
H329	H	-0.228788	-0.326720	0.374210
H330	H	-0.210076	-0.330348	0.325849
H331	H	-0.257979	-0.311828	0.333848
H332	H	-0.181310	-0.271003	0.360475
H333	H	-0.229209	-0.252483	0.368483
O334	O	-0.090666	-0.273292	0.273168
C335	C	-0.121439	-0.298697	0.298472
H336	H	-0.154872	-0.280300	0.300059
H337	H	-0.126455	-0.332793	0.281958
C338	C	-0.062052	-0.327840	0.344325
C339	C	-0.103115	-0.305242	0.346278
H340	H	-0.050748	-0.331879	0.373813
H341	H	-0.041319	-0.310725	0.327277
H342	H	-0.066237	-0.356250	0.330561
H343	H	-0.098928	-0.276830	0.360036
H344	H	-0.123846	-0.322352	0.363329
H345	H	0.596895	-0.387570	0.268600
O346	O	0.734698	-0.832885	0.131375
C347	C	0.763692	-0.859986	0.157002
H348	H	0.766420	-0.845825	0.192386
H349	H	0.749818	-0.895559	0.158536
C350	C	0.807068	-0.878058	0.091664
C351	C	0.810422	-0.860663	0.135123
H352	H	0.835893	-0.878477	0.078168
H353	H	0.787533	-0.859801	0.074399
H354	H	0.795505	-0.907700	0.092949
H355	H	0.821980	-0.831019	0.133837
H356	H	0.829960	-0.878914	0.152388
O357	O	0.563764	-0.832888	0.301902
C358	C	0.538374	-0.802130	0.327220
H359	H	0.556764	-0.768668	0.328785
H360	H	0.504262	-0.797181	0.310733
C361	C	0.509287	-0.861519	0.373110
C362	C	0.531877	-0.820421	0.375035
H363	H	0.505278	-0.872802	0.402604
H364	H	0.526392	-0.882242	0.356052
H365	H	0.480864	-0.857390	0.359369
H366	H	0.560302	-0.824552	0.388770
H367	H	0.514777	-0.799700	0.392096
H368	H	0.730093	-0.744071	0.135801
H369	H	0.701321	-0.164403	0.388042
O370	O	0.734563	-0.131038	0.600214
C371	C	0.724778	-0.086265	0.611704
H372	H	0.688889	-0.084001	0.624586
H373	H	0.748869	-0.074526	0.638955
C374	C	0.774108	-0.059058	0.554221
C375	C	0.730026	-0.056275	0.570039
H376	H	0.777347	-0.040558	0.528520
H377	H	0.780702	-0.089222	0.546481
H378	H	0.794179	-0.049275	0.576933
H379	H	0.709957	-0.066063	0.547328
H380	H	0.723429	-0.026112	0.577774
O381	O	0.592588	-0.273048	0.956666
C382	C	0.618136	-0.302084	0.929539
H383	H	0.652192	-0.286246	0.922512
H384	H	0.623053	-0.335371	0.947622
C385	C	0.551571	-0.329684	0.893600
C386	C	0.593397	-0.310230	0.884966
H387	H	0.536311	-0.334711	0.866106
H388	H	0.534358	-0.310124	0.911877
H389	H	0.555674	-0.357421	0.908671
H390	H	0.589294	-0.282491	0.869901
H391	H	0.610609	-0.329786	0.866686
H392	H	0.568248	-0.297285	0.688916
H393	H	0.262285	-0.297506	0.297258
O394	O	0.389264	-0.273268	0.273008
C395	C	0.362104	-0.302257	0.247384
H396	H	0.355059	-0.286361	0.213370
H397	H	0.380169	-0.335538	0.242380
C398	C	0.326203	-0.329965	0.313876
C399	C	0.317547	-0.310438	0.272100
H400	H	0.298718	-0.335013	0.329122
H401	H	0.344502	-0.310435	0.331140
H402	H	0.341257	-0.357697	0.309700
H403	H	0.302497	-0.282704	0.276277
H404	H	0.299244	-0.329963	0.254837
H405	H	0.177180	-0.297509	0.297271
H406	H	0.596991	-0.268621	0.473123
H407	H	-0.179390	-0.164352	0.164561
