data_functionalizedCrystal
_audit_creation_method	'MofGen! by Chris Wilmer'
_symmetry_space_group_name_H-M	'P1'
_symmetry_Int_Tables_number	1
_symmetry_cell_setting	triclinic
loop_
_symmetry_equiv_pos_as_xyz
  x,y,z
_cell_length_a	15.995300
_cell_length_b	15.995292
_cell_length_c	9.730223
_cell_angle_alpha	89.998793
_cell_angle_beta	89.995123
_cell_angle_gamma	83.470212
loop_
_atom_site_label
_atom_site_type_symbol
_atom_site_fract_x
_atom_site_fract_y
_atom_site_fract_z
O1	O	1.110988	0.107729	-0.114330
O2	O	0.867204	0.121100	-0.114321
O3	O	0.995785	-0.007478	-0.114328
O4	O	0.982407	0.236307	-0.114323
O5	O	0.995777	-0.007481	0.114252
O6	O	0.867196	0.121097	0.114259
O7	O	1.110980	0.107725	0.114250
Zn8	Zn	0.989086	0.114411	0.150546
Zn9	Zn	0.989097	0.114415	-0.150618
O10	O	0.982398	0.236303	0.114257
C11	C	0.836005	0.120553	-0.000030
C12	C	0.743052	0.118918	-0.000027
C13	C	0.995237	-0.038675	-0.000041
C14	C	0.993604	-0.131627	-0.000052
C15	C	0.572870	0.115899	-0.000037
C16	C	0.525385	0.207449	-0.000032
C17	C	0.428698	0.205779	-0.000555
C18	C	0.405314	0.112927	-0.000046
C19	C	0.446461	0.067507	-0.130320
C20	C	0.543094	0.069824	-0.130426
C21	C	0.543364	0.068465	0.129521
C22	C	0.446419	0.068473	0.131230
C23	C	0.310619	0.111242	-0.000056
C24	C	0.667565	0.117580	-0.000037
C25	C	0.987603	-0.469365	-0.000039
C26	C	1.080409	-0.446069	0.000468
C27	C	1.082173	-0.349394	-0.000052
C28	C	0.990581	-0.301809	-0.000044
C29	C	0.944187	-0.330900	-0.130569
C30	C	0.943069	-0.427690	-0.130673
C31	C	0.941165	-0.427551	0.129265
C32	C	0.944604	-0.331059	0.130985
C33	C	0.992259	-0.207114	-0.000052
C34	C	0.985922	-0.564060	-0.000040
C35	C	1.142179	0.108272	-0.000045
C36	C	1.235131	0.109907	-0.000057
C37	C	0.982947	0.267500	-0.000033
C38	C	0.984579	0.360453	-0.000032
N39	N	0.989085	0.114407	0.356083
N40	N	0.989105	0.114412	-0.356154
C41	C	1.046040	0.057496	0.428005
C42	C	1.046048	0.057497	0.571888
C43	C	0.932144	0.171325	0.571913
C44	C	0.932132	0.171320	0.428033
H45	H	0.543865	0.244239	0.093373
C46	C	0.390226	0.253994	0.125565
H47	H	0.433684	0.274783	0.177579
H48	H	0.361939	0.217204	0.180991
H49	H	0.351332	0.299757	0.095924
C50	C	0.551855	0.256413	-0.126049
H51	H	0.591718	0.221304	-0.178667
H52	H	0.576362	0.304681	-0.096304
H53	H	0.503811	0.273447	-0.180940
H54	H	0.400846	0.241317	-0.094483
C55	C	1.108683	-0.005104	0.348858
H56	H	1.100528	0.003049	0.252866
H57	H	1.099614	-0.060993	0.372445
H58	H	1.164562	0.004025	0.372423
H59	H	0.875023	-0.442228	-0.136581
H60	H	0.970388	-0.455647	0.228203
C61	C	1.108697	-0.005103	0.651004
H62	H	1.100543	0.003042	0.747000
H63	H	1.164573	0.004013	0.627407
H64	H	1.099613	-0.060994	0.627429
H65	H	0.978386	-0.312501	0.227546
H66	H	0.561409	0.102561	-0.228175
H67	H	0.876787	-0.299020	-0.135416
H68	H	0.885776	0.217664	0.630509
C69	C	0.869481	0.233927	0.348912
H70	H	0.835572	0.267832	0.412368
H71	H	0.834633	0.203788	0.292800
H72	H	0.899593	0.268796	0.292770
C73	C	1.128732	-0.483892	0.126924
H74	H	1.092747	-0.514237	0.180541
H75	H	1.147194	-0.439927	0.180657
H76	H	1.176064	-0.520863	0.097588
H77	H	0.575381	0.002598	-0.135993
C78	C	0.427430	-0.024656	-0.136388
H79	H	0.394138	-0.036280	-0.059345
H80	H	0.478736	-0.060953	-0.134971
H81	H	0.397656	-0.033589	-0.218590
C82	C	0.854293	-0.286501	0.141657
H83	H	0.843394	-0.249316	0.065996
H84	H	0.848278	-0.255440	0.224969
H85	H	0.815486	-0.327260	0.140559
C86	C	0.848883	-0.446434	0.130477
H87	H	0.821148	-0.420999	0.208837
H88	H	0.847107	-0.505559	0.133832
H89	H	0.821459	-0.424379	0.049503
C90	C	0.408155	0.109603	-0.261789
H91	H	0.433462	0.081668	-0.340075
H92	H	0.418096	0.167026	-0.263273
H93	H	0.349274	0.106071	-0.263135
C94	C	0.571033	0.109184	0.262955
H95	H	0.600841	0.155500	0.240894
H96	H	0.606512	0.068896	0.314153
H97	H	0.522805	0.128300	0.316124
H98	H	0.976411	-0.310844	-0.227709
H99	H	0.419069	0.101641	0.227608
H100	H	1.118729	-0.330995	-0.093783
C101	C	0.425693	-0.022968	0.142412
H102	H	0.391556	-0.035290	0.066818
H103	H	0.396321	-0.029867	0.225762
H104	H	0.476416	-0.060164	0.141528
C105	C	1.128474	-0.485258	-0.125284
H106	H	1.184485	-0.470878	-0.124187
H107	H	1.101129	-0.464354	-0.207017
H108	H	1.129470	-0.544727	-0.122215
H109	H	0.575159	0.000966	0.130773
H110	H	1.118508	-0.330377	0.093511
H111	H	0.975207	-0.454511	-0.228248
