data_functionalizedCrystal
_audit_creation_method	'MofGen! by Chris Wilmer'
_symmetry_space_group_name_H-M	'P1'
_symmetry_Int_Tables_number	1
_symmetry_cell_setting	triclinic
loop_
_symmetry_equiv_pos_as_xyz
  x,y,z
_cell_length_a	12.827893
_cell_length_b	19.121063
_cell_length_c	12.827885
_cell_angle_alpha	92.403975
_cell_angle_beta	89.980538
_cell_angle_gamma	92.468878
loop_
_atom_site_label
_atom_site_type_symbol
_atom_site_fract_x
_atom_site_fract_y
_atom_site_fract_z
Zn1	Zn	1.579837	-0.279579	-0.608539
Zn2	Zn	1.572238	-0.397046	-0.441232
Zn3	Zn	1.405076	-0.279614	-0.433815
Zn4	Zn	1.397574	-0.396994	-0.615928
O5	O	1.488681	-0.338308	-0.524878
O6	O	1.725065	-0.295169	-0.586357
O7	O	1.550023	-0.381505	-0.294014
O8	O	1.434578	-0.181325	-0.450796
O9	O	1.719482	-0.381471	-0.463437
O10	O	1.562975	-0.181300	-0.579165
O11	O	1.427210	-0.295227	-0.288565
O12	O	1.257845	-0.295177	-0.457961
O13	O	1.421793	-0.381382	-0.761182
O14	O	1.252334	-0.381415	-0.591759
O15	O	1.555701	-0.295118	-0.755753
O16	O	1.542748	-0.495323	-0.470602
O17	O	1.414424	-0.495285	-0.598951
C18	C	1.217172	-0.338295	-0.524858
C19	C	1.101019	-0.338306	-0.524875
C20	C	1.046530	-0.381046	-0.590989
C21	C	0.926479	-0.381059	-0.591008
C22	C	1.476976	-0.520788	-0.536406
C23	C	1.472064	-0.598854	-0.541373
C24	C	1.536620	-0.635526	-0.476937
C25	C	1.532006	-0.708877	-0.481615
C26	C	1.462831	-0.745554	-0.550723
C27	C	1.398272	-0.708877	-0.615166
C28	C	1.402892	-0.635528	-0.610493
C29	C	1.445542	-0.967023	-0.568177
C30	C	1.440925	-1.040378	-0.572842
C31	C	1.574661	-1.040373	-0.439292
C32	C	1.579270	-0.967021	-0.434621
C33	C	1.514716	-0.930351	-0.499067
C34	C	1.458111	-0.820531	-0.555503
C35	C	1.519441	-0.855375	-0.494292
C36	C	1.761251	-0.338322	-0.524900
C37	C	1.877403	-0.338328	-0.524909
C38	C	1.488758	-0.338241	-0.797445
C39	C	1.488790	-0.338212	-0.913596
C40	C	1.500461	-0.155116	-0.513328
C41	C	1.505481	-0.077050	-0.508407
C42	C	1.428039	-0.295511	-0.962684
C43	C	1.428072	-0.295480	-1.082732
C44	C	1.488669	-0.338325	-0.253370
C45	C	1.488851	-0.338156	-0.137206
H46	H	0.879630	-0.417652	-0.647607
H47	H	0.924245	-0.301737	-0.468300
H48	H	1.058791	-0.301721	-0.468290
C49	C	1.612717	-0.595187	-0.400909
N50	N	1.670037	-0.564806	-0.343645
C51	C	1.559121	-0.387548	-1.080173
N52	N	1.612047	-0.424751	-1.037208
H53	H	1.584574	-0.738732	-0.429143
H54	H	1.575768	-0.825511	-0.438028
H55	H	1.088758	-0.417626	-0.647580
H56	H	1.635598	-0.937160	-0.378347
C57	C	1.645670	-1.080716	-0.368409
N58	N	1.699158	-1.111104	-0.315019
H59	H	1.384607	-1.070239	-0.629137
C60	C	1.374583	-0.926695	-0.639124
N61	N	1.321152	-0.896317	-0.692585
H62	H	1.341952	-0.738746	-0.671440
H63	H	1.350325	-0.605670	-0.662965
H64	H	1.401786	-0.850402	-0.611769
C65	C	1.357749	-0.246146	-0.899397
N66	N	1.304809	-0.208959	-0.851730
H67	H	1.540824	-0.374748	-0.960446
C68	C	1.357805	-0.246090	-1.139772
N69	N	1.304877	-0.208888	-1.182738
