data_functionalizedCrystal
_audit_creation_method	'MofGen! by Chris Wilmer'
_symmetry_space_group_name_H-M	'P1'
_symmetry_Int_Tables_number	1
_symmetry_cell_setting	triclinic
loop_
_symmetry_equiv_pos_as_xyz
  x,y,z
_cell_length_a	12.811457
_cell_length_b	12.811415
_cell_length_c	11.892095
_cell_angle_alpha	88.492960
_cell_angle_beta	91.498327
_cell_angle_gamma	84.559489
loop_
_atom_site_label
_atom_site_type_symbol
_atom_site_fract_x
_atom_site_fract_y
_atom_site_fract_z
O1	O	1.390870	0.143770	0.033848
O2	O	1.087662	0.156841	0.001422
O3	O	1.245799	-0.001301	0.033851
O4	O	1.232733	0.301912	0.001418
O5	O	1.232614	0.011864	0.219157
O6	O	1.074476	0.170006	0.186728
O7	O	1.377685	0.156935	0.219153
Zn8	Zn	1.223987	0.165561	0.232362
Zn9	Zn	1.241359	0.148215	-0.011787
O10	O	1.219548	0.315077	0.186724
C11	C	1.042236	0.162287	0.090210
C12	C	0.926527	0.158891	0.078695
C13	C	0.694721	0.166842	0.259103
C14	C	0.586002	0.163650	0.248290
C15	C	0.600367	0.149308	0.046257
C16	C	0.709087	0.152500	0.057070
C17	C	0.756259	0.161268	0.163497
C18	C	0.864980	0.164467	0.174308
C19	C	0.879344	0.150118	-0.027723
C20	C	0.770625	0.146926	-0.038536
C21	C	1.238070	-0.033552	0.130367
C22	C	1.234672	-0.149264	0.141877
C23	C	1.242644	-0.381041	-0.038539
C24	C	1.239452	-0.489762	-0.027730
C25	C	1.225087	-0.475430	0.174304
C26	C	1.228280	-0.366708	0.163494
C27	C	1.237060	-0.319518	0.057069
C28	C	1.240260	-0.210795	0.046262
C29	C	1.225888	-0.196464	0.248294
C30	C	1.222695	-0.305185	0.259103
C31	C	1.423110	0.151488	0.130363
C32	C	1.538820	0.154885	0.141870
C33	C	1.227277	0.347328	0.090206
C34	C	1.230675	0.463039	0.078688
N35	N	1.212138	0.177398	0.398987
N36	N	1.253216	0.136370	-0.178410
C37	C	1.335663	0.053941	0.660959
C38	C	1.327389	0.062223	0.777603
C39	C	1.187311	0.202238	0.748922
C40	C	1.195585	0.193956	0.632278
C41	C	1.269765	0.119806	0.588301
C42	C	1.278044	0.111530	0.471654
C43	C	1.137961	0.251539	0.442976
C44	C	1.129687	0.259821	0.559620
H45	H	0.561942	0.142151	-0.040388
H46	H	1.243995	-0.539850	-0.105585
H47	H	1.249803	-0.342619	-0.125194
C48	C	1.215341	-0.526609	0.289839
C49	C	1.122311	-0.485186	0.337894
C50	C	1.113293	-0.532324	0.444315
H51	H	1.273473	-0.513130	0.336662
H52	H	1.214179	-0.600168	0.282603
H53	H	1.123482	-0.411644	0.345136
H54	H	1.064162	-0.498664	0.291103
H55	H	1.112131	-0.605884	0.437079
H56	H	1.171430	-0.518842	0.491128
H57	H	1.050168	-0.504233	0.476929
C58	C	0.916011	0.173932	0.289957
C59	C	0.838846	0.178097	0.371372
C60	C	0.885815	0.186797	0.477924
H61	H	0.950877	0.236110	0.291585
H62	H	0.965341	0.114812	0.305388
H63	H	0.789534	0.237211	0.355946
H64	H	0.803975	0.115926	0.369780
H65	H	0.935145	0.127677	0.493355
H66	H	0.920680	0.248975	0.479541
H67	H	0.833468	0.189615	0.533178
C68	C	0.519360	0.169771	0.352220
C69	C	0.583944	0.178158	0.447729
C70	C	0.522590	0.183812	0.543493
H71	H	0.483874	0.108212	0.359315
H72	H	0.469424	0.229495	0.345305
H73	H	0.633862	0.118441	0.454644
H74	H	0.619431	0.239716	0.440673
H75	H	0.472654	0.243536	0.536577
H76	H	0.487106	0.122251	0.550576
H77	H	0.566399	0.189513	0.608305
C78	C	0.719604	0.137362	-0.154172
C79	C	0.796774	0.133146	-0.235584
C80	C	0.749817	0.124328	-0.342121
H81	H	0.670259	0.196434	-0.169694
H82	H	0.684762	0.075151	-0.155698
H83	H	0.831599	0.195350	-0.234061
H84	H	0.846123	0.074076	-0.220098
H85	H	0.714975	0.062117	-0.343647
H86	H	0.700473	0.183402	-0.357632
H87	H	0.802169	0.121457	-0.397370
H88	H	1.381048	0.008587	0.836759
C89	C	1.416232	-0.026658	0.613422
C90	C	1.472162	-0.082582	0.702020
C91	C	1.546382	-0.156847	0.658274
H92	H	1.463368	0.008009	0.568519
H93	H	1.381497	-0.073782	0.568560
H94	H	1.506896	-0.035465	0.746863
H95	H	1.425055	-0.117271	0.746930
H96	H	1.511646	-0.203972	0.613413
H97	H	1.593510	-0.122172	0.613373
H98	H	1.584332	-0.194807	0.718381
H99	H	1.215543	-0.343622	0.345751
C100	C	1.219615	-0.129592	0.352046
C101	C	1.131555	-0.056082	0.341505
C102	C	1.125741	0.005526	0.437065
H103	H	1.281128	-0.094028	0.359076
H104	H	1.213872	-0.173234	0.416993
H105	H	1.137305	-0.012445	0.276576
H106	H	1.070026	-0.091617	0.334490
H107	H	1.119998	-0.038116	0.502011
H108	H	1.187258	0.041083	0.444087
H109	H	1.065987	0.055403	0.429930
C110	C	1.106713	0.282572	0.796845
C111	C	1.037552	0.231026	0.863008
C112	C	0.963300	0.304995	0.907188
H113	H	1.068533	0.320659	0.736988
H114	H	1.141443	0.329622	0.841810
H115	H	1.002825	0.183996	0.818045
H116	H	1.075701	0.192945	0.922882
H117	H	0.998030	0.352044	0.952153
H118	H	0.925128	0.343077	0.847324
H119	H	0.916372	0.270033	0.952093
H120	H	0.733128	0.173995	0.345758
H121	H	1.084305	0.305174	0.383803
H122	H	0.929460	0.145586	-0.105573
C123	C	1.249739	-0.159746	-0.069385
C124	C	1.253915	-0.236897	-0.150803
C125	C	1.262629	-0.189911	-0.257353
H126	H	1.311917	-0.124879	-0.071011
H127	H	1.190622	-0.110412	-0.084815
H128	H	1.313026	-0.286212	-0.135378
H129	H	1.191744	-0.271769	-0.149213
H130	H	1.203512	-0.140578	-0.272783
H131	H	1.324808	-0.155046	-0.258968
H132	H	1.265454	-0.242250	-0.312610
C133	C	1.049092	0.340167	0.607531
C134	C	0.979921	0.288639	0.673697
C135	C	0.905673	0.362622	0.717861
H136	H	1.010920	0.378249	0.547666
H137	H	1.083825	0.387217	0.652491
H138	H	0.945190	0.241606	0.628739
H139	H	1.018062	0.250562	0.733579
H140	H	0.940406	0.409673	0.762821
H141	H	0.867509	0.400700	0.657990
H142	H	0.858737	0.327672	0.762768
H143	H	1.338447	0.051156	0.435850
