data_functionalizedCrystal
_audit_creation_method	'MofGen! by Chris Wilmer'
_symmetry_space_group_name_H-M	'P1'
_symmetry_Int_Tables_number	1
_symmetry_cell_setting	triclinic
loop_
_symmetry_equiv_pos_as_xyz
  x,y,z
_cell_length_a	10.489741
_cell_length_b	15.538191
_cell_length_c	14.185229
_cell_angle_alpha	108.256307
_cell_angle_beta	75.352934
_cell_angle_gamma	114.094366
loop_
_atom_site_label
_atom_site_type_symbol
_atom_site_fract_x
_atom_site_fract_y
_atom_site_fract_z
O1	O	1.614157	-0.113306	0.083352
O2	O	1.237046	-0.125739	0.083367
O3	O	1.499008	0.017109	0.083361
O4	O	1.352194	-0.256154	0.083358
O5	O	1.532835	-0.021280	-0.083484
O6	O	1.270872	-0.164128	-0.083479
O7	O	1.647984	-0.151696	-0.083493
Cu8	Cu	1.462517	-0.161417	-0.098720
Cu9	Cu	1.422513	-0.116017	0.098594
O10	O	1.386021	-0.294544	-0.083488
C11	C	1.206873	-0.143994	-0.000054
C12	C	1.066579	-0.141182	-0.000048
C13	C	1.531282	0.032907	-0.000059
C14	C	1.577034	0.137172	-0.000050
N15	N	1.490663	-0.193348	-0.237500
C16	C	1.041654	-0.050293	-0.000056
C17	C	0.912436	-0.074302	0.082205
C18	C	0.945810	-0.112172	-0.082292
C19	C	0.939194	-0.165213	0.082281
C20	C	0.972599	-0.203088	-0.082289
C21	C	0.843373	-0.227158	-0.000009
C22	C	1.678155	-0.133440	-0.000070
C23	C	1.818449	-0.136250	-0.000070
C24	C	1.353747	-0.310341	-0.000066
C25	C	1.307993	-0.414604	-0.000067
C26	C	1.122477	0.428045	-0.000054
C27	C	1.165503	0.526018	-0.000058
C28	C	1.407512	0.546817	-0.000067
C29	C	1.364506	0.448845	-0.000058
C30	C	1.221987	0.389466	-0.000053
C31	C	1.464015	0.410266	-0.000057
C32	C	1.421012	0.312301	-0.000053
C33	C	1.278500	0.252916	-0.000051
C34	C	1.178984	0.291501	-0.000049
C35	C	1.606534	0.469645	-0.000070
C36	C	1.706044	0.431066	-0.000068
C37	C	1.663040	0.333102	-0.000058
C38	C	1.520528	0.273716	-0.000055
C39	C	1.762556	0.294516	-0.000059
C40	C	1.719553	0.196551	-0.000056
C41	C	1.477525	0.175751	-0.000052
C42	C	1.573363	-0.287098	-0.395034
C43	C	1.552036	-0.262928	-0.290006
C44	C	1.450600	-0.147909	-0.290012
C45	C	1.471925	-0.172067	-0.395042
C46	C	1.533305	-0.241663	-0.447545
C47	C	1.431867	-0.126631	-0.447553
C48	C	1.453184	-0.150791	-0.552575
C49	C	1.514558	-0.220386	-0.605085
C50	C	1.554622	-0.265823	-0.552567
C51	C	1.370478	-0.057040	-0.395049
C52	C	1.330421	-0.011604	-0.447560
C53	C	1.351746	-0.035759	-0.552583
C54	C	1.413120	-0.105354	-0.605093
C55	C	1.311683	0.009677	-0.605102
C56	C	1.332999	-0.014483	-0.710123
C57	C	1.434437	-0.129514	-0.710115
N58	N	1.394380	-0.084079	0.237374
H59	H	1.126847	0.024449	0.000048
H60	H	1.584653	-0.299936	-0.247255
H61	H	1.084463	0.557420	-0.000074
H62	H	0.885606	-0.019842	0.151753
H63	H	0.937636	-0.187621	0.151905
Cl64	Cl	0.712141	-0.342621	0.000056
Cl65	Cl	1.541353	-0.250763	-0.737114
Cl66	Cl	1.014103	-0.287123	-0.189672
H67	H	1.523552	0.595176	-0.000075
Cl68	Cl	1.373434	-0.060422	-0.223999
Cl69	Cl	1.343666	-0.026676	-0.263020
H70	H	1.280440	0.045059	-0.404798
Cl71	Cl	0.947995	-0.077480	-0.189667
H72	H	1.878597	0.342874	-0.000074
Cl73	Cl	1.844655	0.148043	-0.000073
Cl74	Cl	1.234501	0.097155	-0.539086
Cl75	Cl	1.511626	-0.216996	-0.776127
Cl76	Cl	1.631811	-0.353304	-0.618578
H77	H	1.361471	0.127402	-0.000040
H78	H	1.300376	0.022514	-0.752879
H79	H	1.062929	0.243153	-0.000037
Cl80	Cl	1.224437	0.129756	-0.000056
Cl81	Cl	1.885205	0.505720	-0.000083
H82	H	1.006423	0.379696	-0.000042
Cl83	Cl	1.650552	-0.374580	-0.461046
H84	H	1.641541	0.549416	-0.000063
