data_functionalizedCrystal
_audit_creation_method	'MofGen! by Chris Wilmer'
_symmetry_space_group_name_H-M	'P1'
_symmetry_Int_Tables_number	1
_symmetry_cell_setting	triclinic
loop_
_symmetry_equiv_pos_as_xyz
  x,y,z
_cell_length_a	10.685901
_cell_length_b	25.639234
_cell_length_c	10.686285
_cell_angle_alpha	85.614193
_cell_angle_beta	81.630962
_cell_angle_gamma	94.361964
loop_
_atom_site_label
_atom_site_type_symbol
_atom_site_fract_x
_atom_site_fract_y
_atom_site_fract_z
Zn1	Zn	1.979334	-0.211837	-0.653944
Zn2	Zn	1.995521	-0.117162	-0.866179
Zn3	Zn	1.767080	-0.131691	-0.637716
Zn4	Zn	1.783366	-0.211841	-0.849885
O5	O	1.881325	-0.168133	-0.751931
O6	O	2.159098	-0.193196	-0.695708
O7	O	1.965176	-0.045924	-0.835901
O8	O	1.781646	-0.148402	-0.462255
O9	O	2.170990	-0.123638	-0.851636
O10	O	1.937588	-0.207285	-0.474177
O11	O	1.797341	-0.056599	-0.668050
O12	O	1.591624	-0.148406	-0.652250
O13	O	1.809404	-0.285005	-0.823865
O14	O	1.603589	-0.207291	-0.808129
O15	O	1.953381	-0.285002	-0.679909
O16	O	1.980968	-0.123642	-1.041632
O17	O	1.825099	-0.193202	-1.029661
C18	C	1.551552	-0.179426	-0.726662
C19	C	1.410477	-0.184268	-0.715882
C20	C	1.881403	-0.304505	-0.751879
C21	C	1.881436	-0.362619	-0.751858
C22	C	1.794069	-0.728550	-0.664309
C23	C	1.794074	-0.783155	-0.664287
O24	O	1.719738	-0.816123	-0.589985
N25	N	1.881463	-0.804907	-0.751662
C26	C	1.968845	-0.772051	-0.839073
O27	O	2.043176	-0.795567	-0.913391
C28	C	1.968833	-0.717447	-0.839100
C29	C	1.881446	-0.695698	-0.751711
C30	C	1.706689	-0.706800	-0.576928
C31	C	1.706686	-0.652199	-0.576950
C32	C	1.794063	-0.619348	-0.664352
C33	C	1.881443	-0.641097	-0.751733
C34	C	2.056207	-0.684592	-0.926517
C35	C	2.056187	-0.629985	-0.926537
C36	C	1.968800	-0.608236	-0.839148
C37	C	1.968817	-0.553644	-0.839156
N38	N	1.881428	-0.531892	-0.751781
C39	C	1.794051	-0.564744	-0.664379
C40	C	1.968862	-0.886723	-0.839010
C41	C	1.968881	-0.941326	-0.838978
C42	C	1.794108	-0.952426	-0.664193
C43	C	1.794096	-0.897822	-0.664220
C44	C	1.881473	-0.864971	-0.751635
C45	C	1.794051	-0.450077	-0.664430
C46	C	1.794059	-0.395470	-0.664455
C47	C	1.968827	-0.384375	-0.839244
C48	C	1.968824	-0.438977	-0.839215
C49	C	1.881425	-0.471827	-0.751803
O50	O	2.043112	-0.520644	-0.913424
O51	O	1.719721	-0.541220	-0.590085
C52	C	2.212386	-0.156796	-0.777300
C53	C	2.353464	-0.151965	-0.788111
C54	C	1.906591	-0.156856	-1.081702
C55	C	1.917516	-0.152046	-1.222789
C56	C	1.881313	-0.032292	-0.751896
C57	C	1.881499	0.025818	-0.751580
C58	C	1.855995	-0.179464	-0.420875
C59	C	1.845201	-0.184292	-0.279798
H60	H	1.412581	-0.120607	-0.858200
H61	H	1.722939	-0.880118	-0.593060
N62	N	1.612433	-0.742226	-0.482650
H63	H	1.625216	-0.735146	-0.393485
H64	H	1.625730	-0.780106	-0.495983
N65	N	2.150435	-0.594551	-1.020814
H66	H	2.103351	-0.571645	-1.075688
H67	H	2.205768	-0.616653	-1.076078
N68	N	1.752118	-0.225738	-1.201481
H69	H	1.799451	-0.250077	-1.150352
H70	H	1.705431	-0.246535	-1.259643
N71	N	2.063148	-0.964781	-0.933217
H72	H	2.118496	-0.935679	-0.988584
H73	H	2.015983	-0.987190	-0.987993
N74	N	2.150457	-0.708041	-1.020777
H75	H	2.205793	-0.678937	-1.076147
H76	H	2.103284	-0.730449	-1.075546
N77	N	1.332177	-0.225816	-0.623048
H78	H	1.239115	-0.223504	-0.628249
H79	H	1.348312	-0.220057	-0.534115
N80	N	1.699815	-0.372013	-0.570185
H81	H	1.644466	-0.401113	-0.514815
H82	H	1.645022	-0.349593	-0.617345
N83	N	2.010587	-0.110589	-1.301101
H84	H	2.005454	-0.112907	-1.394168
H85	H	2.099453	-0.116433	-1.284855
N86	N	1.699782	-0.485503	-0.570158
H87	H	1.746853	-0.508412	-0.515278
H88	H	1.644933	-0.508365	-0.617318
N89	N	1.612444	-0.628745	-0.482683
H90	H	1.557102	-0.657849	-0.427316
H91	H	1.557643	-0.606328	-0.529838
H92	H	1.722960	-0.979184	-0.593026
H93	H	2.040029	-0.859978	-0.910188
H94	H	2.039994	-0.456685	-0.910361
N95	N	2.063070	-0.348937	-0.933507
H96	H	2.049665	-0.311047	-0.920388
H97	H	2.050378	-0.356111	-1.022637
