data_functionalizedCrystal
_audit_creation_method	'MofGen! by Chris Wilmer'
_symmetry_space_group_name_H-M	'P1'
_symmetry_Int_Tables_number	1
_symmetry_cell_setting	triclinic
loop_
_symmetry_equiv_pos_as_xyz
  x,y,z
_cell_length_a	14.908571
_cell_length_b	21.295417
_cell_length_c	14.908308
_cell_angle_alpha	93.260635
_cell_angle_beta	90.175053
_cell_angle_gamma	86.726349
loop_
_atom_site_label
_atom_site_type_symbol
_atom_site_fract_x
_atom_site_fract_y
_atom_site_fract_z
Zn1	Zn	1.345216	-0.328502	-0.587528
Zn2	Zn	1.353772	-0.428068	-0.437153
Zn3	Zn	1.203534	-0.316411	-0.428528
Zn4	Zn	1.194800	-0.427320	-0.578804
O5	O	1.274330	-0.375075	-0.508003
O6	O	1.472175	-0.347082	-0.574841
O7	O	1.341079	-0.408509	-0.310185
O8	O	1.222403	-0.229930	-0.449662
O9	O	1.478462	-0.420233	-0.464361
O10	O	1.326496	-0.238813	-0.566479
O11	O	1.230699	-0.326476	-0.303848
O12	O	1.076551	-0.325750	-0.441202
O13	O	1.207517	-0.418959	-0.705785
O14	O	1.070134	-0.407235	-0.551609
O15	O	1.318027	-0.346357	-0.712195
O16	O	1.332609	-0.516054	-0.455901
O17	O	1.215813	-0.515504	-0.559972
C18	C	1.040717	-0.365100	-0.494524
C19	C	0.940775	-0.360848	-0.488779
C20	C	0.746349	-0.437828	-0.592795
C21	C	0.652444	-0.433836	-0.587400
C22	C	0.659060	-0.348868	-0.472599
C23	C	0.752964	-0.352861	-0.477994
C24	C	0.796605	-0.397343	-0.538093
C25	C	0.890512	-0.401338	-0.543483
C26	C	0.897125	-0.316368	-0.428687
C27	C	0.803221	-0.312375	-0.423292
C28	C	1.274215	-0.538620	-0.507947
C29	C	1.274247	-0.608590	-0.507957
C30	C	1.335110	-0.641726	-0.453830
C31	C	1.335151	-0.707471	-0.453852
C32	C	1.274313	-0.740076	-0.507992
C33	C	1.213445	-0.706932	-0.562131
C34	C	1.213412	-0.641189	-0.562114
N35	N	1.195260	-0.840247	-0.510308
N36	N	1.195295	-0.902701	-0.510320
C37	C	1.274411	-0.938157	-0.508050
N38	N	1.353494	-0.908801	-0.505750
N39	N	1.353459	-0.846341	-0.505734
C40	C	1.274343	-0.811364	-0.508018
C41	C	1.335324	-1.042582	-0.453944
C42	C	1.335366	-1.108328	-0.453973
C43	C	1.213652	-1.107788	-0.562246
C44	C	1.213618	-1.042043	-0.562223
C45	C	1.274453	-1.009444	-0.508066
C46	C	1.508856	-0.385090	-0.521536
C47	C	1.608796	-0.389358	-0.527303
C48	C	1.260843	-0.383923	-0.742527
C49	C	1.255096	-0.387694	-0.842467
C50	C	1.274469	-0.210894	-0.508081
C51	C	1.274528	-0.140929	-0.508114
C52	C	1.359367	-0.319164	-1.036941
C53	C	1.353969	-0.322705	-1.130844
C54	C	1.238899	-0.398312	-1.124177
C55	C	1.244297	-0.394771	-1.030274
C56	C	1.304533	-0.355197	-0.986660
C57	C	1.309935	-0.351660	-0.892756
C58	C	1.194861	-0.427263	-0.886090
C59	C	1.189463	-0.430804	-0.979993
C60	C	1.287817	-0.366218	-0.274395
C61	C	1.293739	-0.362278	-0.174465
H62	H	0.938054	-0.283403	-0.384142
H63	H	1.140419	-0.463023	-1.015517
H64	H	1.384934	-1.135307	-0.409897
F65	F	0.598961	-0.476924	-0.645623
H66	H	0.781883	-0.474051	-0.641725
F67	F	1.412329	-0.284353	-1.184354
H68	H	1.189857	-0.430531	-1.159704
F69	F	1.399866	-0.607036	-0.396202
F70	F	1.136507	-0.465620	-0.832571
F71	F	1.148908	-1.142485	-0.619873
H72	H	1.164053	-1.015062	-0.606295
H73	H	1.358984	-0.319437	-0.857246
F74	F	1.399932	-0.742744	-0.396239
F75	F	0.936957	-0.448681	-0.607443
H76	H	1.408418	-0.286944	-1.001430
H77	H	1.163849	-0.614209	-0.606192
F78	F	0.612597	-0.301523	-0.408654
F79	F	1.148700	-0.741634	-0.619754
F80	F	0.756764	-0.265034	-0.359337
H81	H	1.384862	-1.016039	-0.409849
