data_functionalizedCrystal
_audit_creation_method	'MofGen! by Chris Wilmer'
_symmetry_space_group_name_H-M	'P1'
_symmetry_Int_Tables_number	1
_symmetry_cell_setting	triclinic
loop_
_symmetry_equiv_pos_as_xyz
  x,y,z
_cell_length_a	12.837943
_cell_length_b	12.996460
_cell_length_c	14.519731
_cell_angle_alpha	89.992872
_cell_angle_beta	90.741103
_cell_angle_gamma	90.004257
loop_
_atom_site_label
_atom_site_type_symbol
_atom_site_fract_x
_atom_site_fract_y
_atom_site_fract_z
O1	O	1.375920	0.085554	-0.239787
O2	O	1.709254	0.418887	0.093547
O3	O	2.042587	0.752220	0.426880
O4	O	1.074092	0.085559	-0.227942
O5	O	1.407425	0.418893	0.105392
O6	O	1.740758	0.752226	0.438725
O7	O	1.232997	0.085547	-0.100318
O8	O	1.566330	0.418880	0.233016
O9	O	1.899664	0.752214	0.566349
O10	O	1.217015	0.085566	-0.367411
O11	O	1.550348	0.418899	-0.034078
O12	O	1.883682	0.752233	0.299256
O13	O	1.232981	-0.085587	-0.100308
O14	O	1.566314	0.247746	0.233025
O15	O	1.899647	0.581080	0.566358
O16	O	1.074075	-0.085575	-0.227933
O17	O	1.407409	0.247759	0.105401
O18	O	1.740742	0.581092	0.438734
O19	O	1.375904	-0.085580	-0.239777
O20	O	1.709237	0.247753	0.093556
O21	O	2.042570	0.581086	0.426889
Cu22	Cu	1.224988	-0.101203	-0.233854
Cu23	Cu	1.558321	0.232130	0.099479
Cu24	Cu	1.891655	0.565463	0.432813
Cu25	Cu	1.225008	0.101182	-0.233865
Cu26	Cu	1.558341	0.434516	0.099468
Cu27	Cu	1.891674	0.767849	0.432802
O28	O	1.216998	-0.085568	-0.367402
O29	O	1.550332	0.247765	-0.034068
O30	O	1.883665	0.581099	0.299265
C31	C	1.035455	-0.000007	-0.223936
C32	C	1.368788	0.333326	0.109398
C33	C	1.702122	0.666660	0.442731
C34	C	0.920355	-0.000005	-0.212002
C35	C	1.253688	0.333328	0.121332
C36	C	1.587022	0.666662	0.454665
N37	N	1.224982	-0.243550	-0.233847
N38	N	1.558315	0.089783	0.099487
N39	N	1.891648	0.423116	0.432820
C40	C	0.679675	-0.000010	-0.355472
C41	C	1.013008	0.333324	-0.022138
C42	C	1.346341	0.666657	0.311195
C43	C	0.571527	-0.000009	-0.344263
C44	C	0.904861	0.333325	-0.010930
C45	C	1.238194	0.666658	0.322404
C46	C	0.595910	-0.000009	-0.178376
C47	C	0.929243	0.333324	0.154958
C48	C	1.262577	0.666657	0.488291
C49	C	0.704058	-0.000010	-0.189585
C50	C	1.037391	0.333323	0.143749
C51	C	1.370724	0.666656	0.477082
C52	C	0.745936	-0.000009	-0.278135
C53	C	1.079269	0.333324	0.055198
C54	C	1.412602	0.666658	0.388531
C55	C	0.854085	-0.000003	-0.289344
C56	C	1.187419	0.333331	0.043990
C57	C	1.520752	0.666664	0.377323
C58	C	0.878466	-0.000011	-0.123457
C59	C	1.211800	0.333323	0.209876
C60	C	1.545133	0.666656	0.543209
C61	C	0.770319	-0.000010	-0.112248
C62	C	1.103652	0.333324	0.221085
C63	C	1.436985	0.666657	0.554418
C64	C	1.225006	-0.663365	-0.233866
C65	C	1.558339	-0.330031	0.099467
C66	C	1.891673	0.003302	0.432801
C67	C	1.224996	-0.546560	-0.233863
C68	C	1.558330	-0.213226	0.099470
C69	C	1.891663	0.120107	0.432803
C70	C	1.224994	-0.453461	-0.233857
C71	C	1.558328	-0.120128	0.099476
C72	C	1.891661	0.213205	0.432810
C73	C	1.224984	-0.336649	-0.233853
C74	C	1.558317	-0.003315	0.099480
C75	C	1.891650	0.330018	0.432814
C76	C	1.414540	-0.000012	-0.243784
C77	C	1.747874	0.333322	0.089550
C78	C	2.081207	0.666655	0.422883
C79	C	1.529641	-0.000007	-0.255718
C80	C	1.862974	0.333326	0.077616
C81	C	2.196307	0.666660	0.410949
C82	C	1.232240	-0.000020	-0.065889
C83	C	1.565573	0.333313	0.267444
C84	C	1.898907	0.666646	0.600778
C85	C	1.229996	-0.000021	0.036685
C86	C	1.563329	0.333313	0.370019
C87	C	1.896663	0.666646	0.703352
N88	N	1.225022	0.243529	-0.233866
N89	N	1.558355	0.576863	0.099467
N90	N	1.891689	0.910196	0.432800
C91	C	1.217756	0.000001	-0.401830
C92	C	1.551089	0.333335	-0.068497
C93	C	1.884422	0.666668	0.264836
C94	C	1.220000	0.000009	-0.504405
C95	C	1.553333	0.333342	-0.171071
C96	C	1.886666	0.666675	0.162262
C97	C	1.228173	-0.000018	0.119987
C98	C	1.561506	0.333315	0.453320
C99	C	1.894839	0.666648	0.786654
C100	C	1.225894	-0.000010	0.224493
C101	C	1.559228	0.333323	0.557826
C102	C	1.892561	0.666656	0.891159
C103	C	1.224086	-0.000004	0.307788
C104	C	1.557419	0.333330	0.641121
C105	C	1.890753	0.666663	0.974455
C106	C	1.221808	0.000002	0.412300
C107	C	1.555141	0.333335	0.745633
C108	C	1.888475	0.666669	1.078967
H109	H	0.888180	-0.000003	-0.361446
H110	H	1.221514	0.333330	-0.028113
H111	H	1.554847	0.666664	0.305221
H112	H	0.713772	-0.000007	-0.427573
H113	H	1.047106	0.333327	-0.094240
H114	H	1.380439	0.666660	0.239093
H115	H	0.517580	-0.000012	-0.407238
H116	H	0.850914	0.333321	-0.073905
H117	H	1.184247	0.666655	0.259428
H118	H	0.561793	-0.000095	-0.106282
H119	H	0.895127	0.333238	0.227052
H120	H	1.228460	0.666571	0.560385
H121	H	0.736206	-0.000023	-0.040153
H122	H	1.069539	0.333311	0.293181
H123	H	1.402873	0.666644	0.626514
C124	C	0.950529	0.000153	-0.039564
C125	C	1.283863	0.333486	0.293769
C126	C	1.617196	0.666819	0.627102
C127	C	1.013348	0.088188	-0.041176
C128	C	1.346681	0.421521	0.292157
C129	C	1.680014	0.754855	0.625490
C130	C	1.079753	0.088373	0.036082
C131	C	1.413086	0.421706	0.369415
C132	C	1.746419	0.755039	0.702748
H133	H	0.910223	0.000206	0.014839
H134	H	1.243557	0.333539	0.348172
H135	H	1.576890	0.666873	0.681505
H136	H	0.993285	-0.059492	-0.040477
H137	H	1.326619	0.273841	0.292857
H138	H	1.659952	0.607175	0.626190
H139	H	0.970596	0.147817	-0.040256
H140	H	1.303930	0.481150	0.293078
H141	H	1.637263	0.814484	0.626411
H142	H	1.053676	0.088153	-0.095562
H143	H	1.387009	0.421486	0.237771
H144	H	1.720342	0.754820	0.571105
H145	H	1.122509	0.028728	0.035169
H146	H	1.455842	0.362061	0.368503
H147	H	1.789175	0.695395	0.701836
H148	H	1.039438	0.088423	0.090479
H149	H	1.372772	0.421757	0.423812
H150	H	1.706105	0.755090	0.757146
H151	H	1.122389	0.148098	0.034994
H152	H	1.455723	0.481431	0.368327
H153	H	1.789056	0.814765	0.701661
