data_functionalizedCrystal
_audit_creation_method	'MofGen! by Chris Wilmer'
_symmetry_space_group_name_H-M	'P1'
_symmetry_Int_Tables_number	1
_symmetry_cell_setting	triclinic
loop_
_symmetry_equiv_pos_as_xyz
  x,y,z
_cell_length_a	29.839131
_cell_length_b	29.839134
_cell_length_c	21.395355
_cell_angle_alpha	90.024483
_cell_angle_beta	90.020172
_cell_angle_gamma	90.021992
loop_
_atom_site_label
_atom_site_type_symbol
_atom_site_fract_x
_atom_site_fract_y
_atom_site_fract_z
Zn1	Zn	-0.179138	0.686774	0.354253
Zn2	Zn	0.070862	0.936774	0.604253
Zn3	Zn	0.320862	1.186774	0.854253
Zn4	Zn	0.570862	1.436774	1.104253
Zn5	Zn	-0.254254	0.686690	0.249472
Zn6	Zn	-0.004254	0.936690	0.499472
Zn7	Zn	0.245746	1.186690	0.749472
Zn8	Zn	0.495746	1.436690	0.999472
Zn9	Zn	-0.179113	0.611641	0.249490
Zn10	Zn	0.070887	0.861641	0.499490
Zn11	Zn	0.320887	1.111641	0.749490
Zn12	Zn	0.570887	1.361641	0.999490
Zn13	Zn	-0.254216	0.611605	0.354213
Zn14	Zn	-0.004216	0.861605	0.604213
Zn15	Zn	0.245784	1.111605	0.854213
Zn16	Zn	0.495784	1.361605	1.104213
O17	O	-0.216680	0.649177	0.301857
O18	O	0.033320	0.899177	0.551857
O19	O	0.283320	1.149177	0.801857
O20	O	0.533320	1.399177	1.051857
O21	O	-0.189129	0.749630	0.340363
O22	O	0.060871	0.999630	0.590363
O23	O	0.310871	1.249630	0.840363
O24	O	0.560871	1.499630	1.090363
O25	O	-0.244291	0.676715	0.161797
O26	O	0.005709	0.926715	0.411797
O27	O	0.255709	1.176715	0.661797
O28	O	0.505709	1.426715	0.911797
O29	O	-0.116249	0.621658	0.263411
O30	O	0.133751	0.871658	0.513411
O31	O	0.383751	1.121658	0.763411
O32	O	0.633751	1.371658	1.013411
O33	O	-0.244315	0.749568	0.263381
O34	O	0.005685	0.999568	0.513381
O35	O	0.255685	1.249568	0.763381
O36	O	0.505685	1.499568	1.013381
O37	O	-0.116268	0.676858	0.340380
O38	O	0.133732	0.926858	0.590380
O39	O	0.383732	1.176858	0.840380
O40	O	0.633732	1.426858	1.090380
O41	O	-0.189085	0.621576	0.161810
O42	O	0.060915	0.871576	0.411810
O43	O	0.310915	1.121576	0.661810
O44	O	0.560915	1.371576	0.911810
O45	O	-0.189049	0.548769	0.263372
O46	O	0.060951	0.798769	0.513372
O47	O	0.310951	1.048769	0.763372
O48	O	0.560951	1.298769	1.013372
O49	O	-0.244252	0.621596	0.441896
O50	O	0.005748	0.871596	0.691896
O51	O	0.255748	1.121596	0.941896
O52	O	0.505748	1.371596	1.191896
O53	O	-0.244228	0.548742	0.340311
O54	O	0.005772	0.798742	0.590311
O55	O	0.255772	1.048742	0.840311
O56	O	0.505772	1.298742	1.090311
O57	O	-0.189093	0.676823	0.441925
O58	O	0.060907	0.926823	0.691925
O59	O	0.310907	1.176823	0.941925
O60	O	0.560907	1.426823	1.191925
O61	O	-0.317116	0.676680	0.263342
O62	O	-0.067116	0.926680	0.513342
O63	O	0.182884	1.176680	0.763342
O64	O	0.432884	1.426680	1.013342
O65	O	-0.317088	0.621515	0.340295
O66	O	-0.067088	0.871515	0.590295
O67	O	0.182912	1.121515	0.840295
O68	O	0.432912	1.371515	1.090295
C69	C	-0.216632	0.532455	0.301840
C70	C	0.033368	0.782455	0.551840
C71	C	0.283368	1.032455	0.801840
C72	C	0.533368	1.282455	1.051840
C73	C	-0.216622	0.482520	0.301847
C74	C	0.033378	0.732520	0.551847
C75	C	0.283378	0.982520	0.801847
C76	C	0.533378	1.232520	1.051847
C77	C	-0.188004	0.125961	0.342020
C78	C	0.061996	0.375961	0.592020
C79	C	0.311996	0.625961	0.842020
C80	C	0.561996	0.875961	1.092020
C81	C	-0.187968	0.313634	0.342006
C82	C	0.062032	0.563634	0.592006
C83	C	0.312032	0.813634	0.842006
C84	C	0.562032	1.063634	1.092006
O85	O	-0.163579	0.337923	0.376160
O86	O	0.086421	0.587923	0.626160
O87	O	0.336421	0.837923	0.876160
O88	O	0.586421	1.087923	1.126160
N89	N	-0.216652	0.337075	0.301862
N90	N	0.033348	0.587075	0.551862
N91	N	0.283348	0.837075	0.801862
N92	N	0.533348	1.087075	1.051862
C93	C	-0.245348	0.313595	0.261721
C94	C	0.004652	0.563595	0.511721
C95	C	0.254652	0.813595	0.761721
C96	C	0.504652	1.063595	1.011721
O97	O	-0.269748	0.337839	0.227581
O98	O	-0.019748	0.587839	0.477581
O99	O	0.230252	0.837839	0.727581
O100	O	0.480252	1.087839	0.977581
C101	C	-0.245386	0.125923	0.261739
C102	C	0.004614	0.375923	0.511739
C103	C	0.254614	0.625923	0.761739
C104	C	0.504614	0.875923	1.011739
C105	C	-0.216698	0.102484	0.301882
C106	C	0.033302	0.352484	0.551882
C107	C	0.283302	0.602484	0.801882
C108	C	0.533302	0.852484	1.051882
C109	C	-0.159318	0.102523	0.382160
C110	C	0.090682	0.352523	0.632160
C111	C	0.340682	0.602523	0.882160
C112	C	0.590682	0.852523	1.132160
C113	C	-0.159326	0.055607	0.382160
C114	C	0.090674	0.305607	0.632160
C115	C	0.340674	0.555607	0.882160
C116	C	0.590674	0.805607	1.132160
C117	C	-0.188020	0.032130	0.342022
C118	C	0.061980	0.282130	0.592022
C119	C	0.311980	0.532130	0.842022
C120	C	0.561980	0.782130	1.092022
C121	C	-0.216705	0.055569	0.301882
C122	C	0.033295	0.305569	0.551882
C123	C	0.283295	0.555569	0.801882
C124	C	0.533295	0.805569	1.051882
C125	C	-0.274085	0.102443	0.221603
C126	C	-0.024085	0.352443	0.471603
C127	C	0.225915	0.602443	0.721603
C128	C	0.475915	0.852443	0.971603
C129	C	-0.274093	0.055522	0.221612
C130	C	-0.024093	0.305522	0.471612
C131	C	0.225907	0.555522	0.721612
C132	C	0.475907	0.805522	0.971612
C133	C	-0.245404	0.032084	0.261754
C134	C	0.004596	0.282084	0.511754
C135	C	0.254596	0.532084	0.761754
C136	C	0.504596	0.782084	1.011754
C137	C	-0.245407	-0.014824	0.261745
C138	C	0.004593	0.235176	0.511745
C139	C	0.254593	0.485176	0.761745
C140	C	0.504593	0.735176	1.011745
N141	N	-0.216723	-0.038265	0.301889
N142	N	0.033277	0.211735	0.551889
N143	N	0.283277	0.461735	0.801889
N144	N	0.533277	0.711735	1.051889
C145	C	-0.188030	-0.014788	0.342027
C146	C	0.061970	0.235212	0.592027
C147	C	0.311970	0.485212	0.842027
C148	C	0.561970	0.735212	1.092027
C149	C	-0.245326	0.412126	0.261714
C150	C	0.004674	0.662126	0.511714
C151	C	0.254674	0.912126	0.761714
C152	C	0.504674	1.162126	1.011714
C153	C	-0.245316	0.459043	0.261708
C154	C	0.004684	0.709043	0.511708
C155	C	0.254684	0.959043	0.761708
C156	C	0.504684	1.209043	1.011708
C157	C	-0.187936	0.459079	0.341994
C158	C	0.062064	0.709079	0.591994
C159	C	0.312064	0.959079	0.841994
C160	C	0.562064	1.209079	1.091994
C161	C	-0.187944	0.412161	0.341996
C162	C	0.062056	0.662161	0.591996
C163	C	0.312056	0.912161	0.841996
C164	C	0.562056	1.162161	1.091996
C165	C	-0.216642	0.388685	0.301858
C166	C	0.033358	0.638685	0.551858
C167	C	0.283358	0.888685	0.801858
C168	C	0.533358	1.138685	1.051858
C169	C	-0.188047	-0.113313	0.342026
C170	C	0.061953	0.136687	0.592026
C171	C	0.311953	0.386687	0.842026
C172	C	0.561953	0.636687	1.092026
C173	C	-0.188056	-0.160233	0.342021
C174	C	0.061944	0.089767	0.592021
C175	C	0.311944	0.339767	0.842021
C176	C	0.561944	0.589767	1.092021
C177	C	-0.245437	-0.160265	0.261738
C178	C	0.004563	0.089735	0.511738
C179	C	0.254563	0.339735	0.761738
C180	C	0.504563	0.589735	1.011738
C181	C	-0.245427	-0.113349	0.261740
C182	C	0.004573	0.136651	0.511740
C183	C	0.254573	0.386651	0.761740
C184	C	0.504573	0.636651	1.011740
C185	C	-0.216731	-0.089875	0.301889
C186	C	0.033269	0.160125	0.551889
C187	C	0.283269	0.410125	0.801889
C188	C	0.533269	0.660125	1.051889
O189	O	-0.269787	-0.039141	0.227614
O190	O	-0.019787	0.210859	0.477614
O191	O	0.230213	0.460859	0.727614
O192	O	0.480213	0.710859	0.977614
O193	O	-0.163641	-0.039040	0.376173
O194	O	0.086359	0.210960	0.626173
O195	O	0.336359	0.460960	0.876173
O196	O	0.586359	0.710960	1.126173
C197	C	-0.187997	0.172877	0.342019
C198	C	0.062003	0.422877	0.592019
C199	C	0.312003	0.672877	0.842019
C200	C	0.562003	0.922877	1.092019
C201	C	-0.216683	0.196315	0.301880
C202	C	0.033317	0.446315	0.551880
C203	C	0.283317	0.696315	0.801880
C204	C	0.533317	0.946315	1.051880
C205	C	-0.245376	0.172838	0.261741
C206	C	0.004624	0.422838	0.511741
C207	C	0.254624	0.672838	0.761741
C208	C	0.504624	0.922838	1.011741
C209	C	-0.216673	0.243233	0.301875
C210	C	0.033327	0.493233	0.551875
C211	C	0.283327	0.743233	0.801875
C212	C	0.533327	0.993233	1.051875
C213	C	-0.187979	0.266710	0.342013
C214	C	0.062021	0.516710	0.592013
C215	C	0.312021	0.766710	0.842013
C216	C	0.562021	1.016710	1.092013
C217	C	-0.159296	0.243269	0.382157
C218	C	0.090704	0.493269	0.632157
C219	C	0.340704	0.743269	0.882157
C220	C	0.590704	0.993269	1.132157
C221	C	-0.159303	0.196353	0.382158
C222	C	0.090697	0.446353	0.632158
C223	C	0.340697	0.696353	0.882158
C224	C	0.590697	0.946353	1.132158
C225	C	-0.274060	0.196279	0.221597
C226	C	-0.024060	0.446279	0.471597
C227	C	0.225940	0.696279	0.721597
C228	C	0.475940	0.946279	0.971597
C229	C	-0.274049	0.243195	0.221599
C230	C	-0.024049	0.493195	0.471599
C231	C	0.225951	0.743195	0.721599
C232	C	0.475951	0.993195	0.971599
C233	C	-0.245356	0.266672	0.261738
C234	C	0.004644	0.516672	0.511738
C235	C	0.254644	0.766672	0.761738
C236	C	0.504644	1.016672	1.011738
C237	C	-0.333403	0.649096	0.301826
C238	C	-0.083403	0.899096	0.551826
C239	C	0.166597	1.149096	0.801826
C240	C	0.416597	1.399096	1.051826
C241	C	-0.383337	0.649103	0.301834
C242	C	-0.133337	0.899103	0.551834
C243	C	0.116663	1.149103	0.801834
C244	C	0.366663	1.399103	1.051834
C245	C	-0.692982	0.677954	0.261846
C246	C	-0.442982	0.927954	0.511846
C247	C	-0.192982	1.177954	0.761846
C248	C	0.057018	1.427954	1.011846
C249	C	-0.880655	0.678009	0.261871
C250	C	-0.630655	0.928009	0.511871
C251	C	-0.380655	1.178009	0.761871
C252	C	-0.130655	1.428009	1.011871
O253	O	-0.904921	0.702476	0.227848
O254	O	-0.654921	0.952476	0.477848
O255	O	-0.404921	1.202476	0.727848
O256	O	-0.154921	1.452476	0.977848
N257	N	-0.904122	0.649270	0.301904
N258	N	-0.654122	0.899270	0.551904
N259	N	-0.404122	1.149270	0.801904
N260	N	-0.154122	1.399270	1.051904
C261	C	-0.880668	0.620518	0.341937
C262	C	-0.630668	0.870518	0.591937
C263	C	-0.380668	1.120518	0.841937
C264	C	-0.130668	1.370518	1.091937
O265	O	-0.904935	0.596078	0.375993
O266	O	-0.654935	0.846078	0.625993
O267	O	-0.404935	1.096078	0.875993
O268	O	-0.154935	1.346078	1.125993
C269	C	-0.692996	0.620465	0.341916
C270	C	-0.442996	0.870465	0.591916
C271	C	-0.192996	1.120465	0.841916
C272	C	0.057004	1.370465	1.091916
C273	C	-0.669531	0.649202	0.301875
C274	C	-0.419531	0.899202	0.551875
C275	C	-0.169531	1.149202	0.801875
C276	C	0.080469	1.399202	1.051875
C277	C	-0.669517	0.706690	0.221810
C278	C	-0.419517	0.956690	0.471810
C279	C	-0.169517	1.206690	0.721810
C280	C	0.080483	1.456690	0.971810
C281	C	-0.622602	0.706674	0.221802
C282	C	-0.372602	0.956674	0.471802
C283	C	-0.122602	1.206674	0.721802
C284	C	0.127398	1.456674	0.971802
C285	C	-0.599151	0.677922	0.261830
C286	C	-0.349151	0.927922	0.511830
C287	C	-0.099151	1.177922	0.761830
C288	C	0.150849	1.427922	1.011830
C289	C	-0.622616	0.649187	0.301867
C290	C	-0.372616	0.899187	0.551867
C291	C	-0.122616	1.149187	0.801867
C292	C	0.127384	1.399187	1.051867
C293	C	-0.669543	0.591715	0.381951
C294	C	-0.419543	0.841715	0.631951
C295	C	-0.169543	1.091715	0.881951
C296	C	0.080457	1.341715	1.131951
C297	C	-0.622622	0.591705	0.381944
C298	C	-0.372622	0.841705	0.631944
C299	C	-0.122622	1.091705	0.881944
C300	C	0.127378	1.341705	1.131944
C301	C	-0.599157	0.620442	0.341903
C302	C	-0.349157	0.870442	0.591903
C303	C	-0.099157	1.120442	0.841903
C304	C	0.150843	1.370442	1.091903
C305	C	-0.552250	0.620419	0.341888
C306	C	-0.302250	0.870419	0.591888
C307	C	-0.052250	1.120419	0.841888
C308	C	0.197750	1.370419	1.091888
N309	N	-0.528783	0.649158	0.301854
N310	N	-0.278783	0.899158	0.551854
N311	N	-0.028783	1.149158	0.801854
N312	N	0.221217	1.399158	1.051854
C313	C	-0.552233	0.677910	0.261826
C314	C	-0.302233	0.927910	0.511826
C315	C	-0.052233	1.177910	0.761826
C316	C	0.197767	1.427910	1.011826
C317	C	-0.979199	0.620547	0.341945
C318	C	-0.729199	0.870547	0.591945
C319	C	-0.479199	1.120547	0.841945
C320	C	-0.229199	1.370547	1.091945
C321	C	-1.026117	0.620559	0.341950
C322	C	-0.776117	0.870559	0.591950
C323	C	-0.526117	1.120559	0.841950
C324	C	-0.276117	1.370559	1.091950
C325	C	-1.026100	0.678052	0.261884
C326	C	-0.776100	0.928052	0.511884
C327	C	-0.526100	1.178052	0.761884
C328	C	-0.276100	1.428052	1.011884
C329	C	-0.979182	0.678037	0.261876
C330	C	-0.729182	0.928037	0.511876
C331	C	-0.479182	1.178037	0.761876
C332	C	-0.229182	1.428037	1.011876
C333	C	-0.955732	0.649286	0.301912
C334	C	-0.705732	0.899286	0.551912
C335	C	-0.455732	1.149286	0.801912
C336	C	-0.205732	1.399286	1.051912
C337	C	-0.453708	0.677874	0.261811
C338	C	-0.203708	0.927874	0.511811
C339	C	0.046292	1.177874	0.761811
C340	C	0.296292	1.427874	1.011811
C341	C	-0.406788	0.677854	0.261805
C342	C	-0.156788	0.927854	0.511805
C343	C	0.093212	1.177854	0.761805
C344	C	0.343212	1.427854	1.011805
C345	C	-0.406808	0.620364	0.341873
C346	C	-0.156808	0.870364	0.591873
C347	C	0.093192	1.120364	0.841873
C348	C	0.343192	1.370364	1.091873
C349	C	-0.453724	0.620381	0.341877
C350	C	-0.203724	0.870381	0.591877
C351	C	0.046276	1.120381	0.841877
C352	C	0.296276	1.370381	1.091877
C353	C	-0.477172	0.649140	0.301844
C354	C	-0.227172	0.899140	0.551844
C355	C	0.022828	1.149140	0.801844
C356	C	0.272828	1.399140	1.051844
O357	O	-0.527955	0.595969	0.375897
O358	O	-0.277955	0.845969	0.625897
O359	O	-0.027955	1.095969	0.875897
O360	O	0.222045	1.345969	1.125897
O361	O	-0.527959	0.702353	0.227784
O362	O	-0.277959	0.952353	0.477784
O363	O	-0.027959	1.202353	0.727784
O364	O	0.222041	1.452353	0.977784
C365	C	-0.739898	0.677970	0.261855
C366	C	-0.489898	0.927970	0.511855
C367	C	-0.239898	1.177970	0.761855
C368	C	0.010102	1.427970	1.011855
C369	C	-0.763362	0.649234	0.301891
C370	C	-0.513362	0.899234	0.551891
C371	C	-0.263362	1.149234	0.801891
C372	C	-0.013362	1.399234	1.051891
C373	C	-0.739912	0.620483	0.341920
C374	C	-0.489912	0.870483	0.591920
C375	C	-0.239912	1.120483	0.841920
C376	C	0.010088	1.370483	1.091920
C377	C	-0.810280	0.649247	0.301896
C378	C	-0.560280	0.899247	0.551896
C379	C	-0.310280	1.149247	0.801896
C380	C	-0.060280	1.399247	1.051896
C381	C	-0.833731	0.677998	0.261867
C382	C	-0.583731	0.927998	0.511867
C383	C	-0.333731	1.177998	0.761867
C384	C	-0.083731	1.427998	1.011867
C385	C	-0.810264	0.706737	0.221834
C386	C	-0.560264	0.956737	0.471834
C387	C	-0.310264	1.206737	0.721834
C388	C	-0.060264	1.456737	0.971834
C389	C	-0.763348	0.706721	0.221826
C390	C	-0.513348	0.956721	0.471826
C391	C	-0.263348	1.206721	0.721826
C392	C	-0.013348	1.456721	0.971826
C393	C	-0.763379	0.591744	0.381953
C394	C	-0.513379	0.841744	0.631953
C395	C	-0.263379	1.091744	0.881953
C396	C	-0.013379	1.341744	1.131953
C397	C	-0.810294	0.591762	0.381958
C398	C	-0.560294	0.841762	0.631958
C399	C	-0.310294	1.091762	0.881958
C400	C	-0.060294	1.341762	1.131958
C401	C	-0.833745	0.620513	0.341929
C402	C	-0.583745	0.870513	0.591929
C403	C	-0.333745	1.120513	0.841929
C404	C	-0.083745	1.370513	1.091929
C405	C	-0.099502	0.649271	0.301902
C406	C	0.150498	0.899271	0.551902
C407	C	0.400498	1.149271	0.801902
C408	C	0.650498	1.399271	1.051902
C409	C	-0.049567	0.649311	0.301921
C410	C	0.200433	0.899311	0.551921
C411	C	0.450433	1.149311	0.801921
C412	C	0.700433	1.399311	1.051921
C413	C	-0.216671	0.649215	0.465280
C414	C	0.033329	0.899215	0.715280
C415	C	0.283329	1.149215	0.965280
C416	C	0.533329	1.399215	1.215280
C417	C	-0.216667	0.649230	0.534922
C418	C	0.033333	0.899230	0.784922
C419	C	0.283333	1.149230	1.034922
C420	C	0.533333	1.399230	1.284922
C421	C	-0.216729	0.766356	0.301875
C422	C	0.033271	1.016356	0.551875
C423	C	0.283271	1.266356	0.801875
C424	C	0.533271	1.516356	1.051875
C425	C	-0.216750	0.816290	0.301882
C426	C	0.033250	1.066290	0.551882
C427	C	0.283250	1.316290	0.801882
C428	C	0.533250	1.566290	1.051882
C429	C	-0.216657	0.649166	0.139069
C430	C	0.033343	0.899166	0.389069
C431	C	0.283343	1.149166	0.639069
C432	C	0.533343	1.399166	0.889069
C433	C	-0.216534	0.649237	0.069428
C434	C	0.033466	0.899237	0.319428
C435	C	0.283466	1.149237	0.569428
C436	C	0.533466	1.399237	0.819428
C437	C	-0.187944	0.677986	0.567651
C438	C	0.062056	0.927986	0.817651
C439	C	0.312056	1.177986	1.067651
C440	C	0.562056	1.427986	1.317651
C441	C	-0.187925	0.677985	0.633087
C442	C	0.062075	0.927985	0.883087
C443	C	0.312075	1.177985	1.133087
C444	C	0.562075	1.427985	1.383087
C445	C	-0.216637	0.649234	0.665790
C446	C	0.033363	0.899234	0.915790
C447	C	0.283363	1.149234	1.165790
C448	C	0.533363	1.399234	1.415790
C449	C	-0.245362	0.620473	0.633053
C450	C	0.004638	0.870473	0.883053
C451	C	0.254638	1.120473	1.133053
C452	C	0.504638	1.370473	1.383053
C453	C	-0.245377	0.620471	0.567618
C454	C	0.004623	0.870471	0.817618
C455	C	0.254623	1.120471	1.067618
C456	C	0.504623	1.370471	1.317618
C457	C	-0.257087	0.645659	0.769454
C458	C	-0.007087	0.895659	1.019454
C459	C	0.242913	1.145659	1.269454
C460	C	0.492913	1.395659	1.519454
C461	C	-0.257072	0.645663	0.834887
C462	C	-0.007072	0.895663	1.084887
C463	C	0.242928	1.145663	1.334887
C464	C	0.492928	1.395663	1.584887
C465	C	-0.216589	0.649237	0.867611
C466	C	0.033411	0.899237	1.117611
C467	C	0.283411	1.149237	1.367611
C468	C	0.533411	1.399237	1.617611
C469	C	-0.176120	0.652815	0.834894
C470	C	0.073880	0.902815	1.084894
C471	C	0.323880	1.152815	1.334894
C472	C	0.573880	1.402815	1.584894
C473	C	-0.176135	0.652813	0.769460
C474	C	0.073865	0.902813	1.019460
C475	C	0.323865	1.152813	1.269460
C476	C	0.573865	1.402813	1.519460
C477	C	-0.216623	0.649232	0.736742
C478	C	0.033377	0.899232	0.986742
C479	C	0.283377	1.149232	1.236742
C480	C	0.533377	1.399232	1.486742
C481	C	-0.187843	0.677993	0.971293
C482	C	0.062157	0.927993	1.221293
C483	C	0.312157	1.177993	1.471293
C484	C	0.562157	1.427993	1.721293
C485	C	-0.187823	0.677989	1.036730
C486	C	0.062177	0.927989	1.286730
C487	C	0.312177	1.177989	1.536730
C488	C	0.562177	1.427989	1.786730
C489	C	-0.245263	0.620480	1.036694
C490	C	0.004737	0.870480	1.286694
C491	C	0.254737	1.120480	1.536694
C492	C	0.504737	1.370480	1.786694
C493	C	-0.245279	0.620481	0.971259
C494	C	0.004721	0.870481	1.221259
C495	C	0.254721	1.120481	1.471259
C496	C	0.504721	1.370481	1.721259
C497	C	-0.216570	0.649240	0.938562
C498	C	0.033430	0.899240	1.188562
C499	C	0.283430	1.149240	1.438562
C500	C	0.533430	1.399240	1.688562
H501	H	-0.268672	0.478123	0.229014
H502	H	-0.018672	0.728123	0.479014
H503	H	0.231328	0.978123	0.729014
H504	H	0.481328	1.228123	0.979014
H505	H	-0.472830	0.596982	0.374483
H506	H	-0.222830	0.846982	0.624483
H507	H	0.027170	1.096982	0.874483
H508	H	0.277170	1.346982	1.124483
Cl509	Cl	-0.151805	0.714128	0.674241
Cl510	Cl	0.098195	0.964128	0.924241
Cl511	Cl	0.348195	1.214128	1.174241
Cl512	Cl	0.598195	1.464128	1.424241
Cl513	Cl	-0.733905	0.555595	0.432280
Cl514	Cl	-0.483905	0.805595	0.682280
Cl515	Cl	-0.233905	1.055595	0.932280
Cl516	Cl	0.016095	1.305595	1.182280
H517	H	-0.164680	-0.094206	0.374718
H518	H	0.085320	0.155794	0.624718
H519	H	0.335320	0.405794	0.874718
H520	H	0.585320	0.655794	1.124718
H521	H	-0.135952	0.121632	0.414849
H522	H	0.114048	0.371632	0.664849
H523	H	0.364048	0.621632	0.914849
H524	H	0.614048	0.871632	1.164849
Cl525	Cl	-0.377319	0.584223	0.392195
Cl526	Cl	-0.127319	0.834223	0.642195
Cl527	Cl	0.122681	1.084223	0.892195
Cl528	Cl	0.372681	1.334223	1.142195
Cl529	Cl	-0.125223	0.657309	0.876025
Cl530	Cl	0.124777	0.907309	1.126025
Cl531	Cl	0.374777	1.157309	1.376025
Cl532	Cl	0.624777	1.407309	1.626025
H533	H	-0.829366	0.730146	0.189239
H534	H	-0.579366	0.980146	0.439239
H535	H	-0.329366	1.230146	0.689239
H536	H	-0.079366	1.480146	0.939239
Cl537	Cl	-0.281489	0.584319	0.526470
Cl538	Cl	-0.031489	0.834319	0.776470
Cl539	Cl	0.218511	1.084319	1.026470
Cl540	Cl	0.468511	1.334319	1.276470
H541	H	-0.744247	0.730122	0.189221
H542	H	-0.494247	0.980122	0.439221
H543	H	-0.244247	1.230122	0.689221
H544	H	0.005753	1.480122	0.939221
H545	H	-0.164583	0.393080	0.374682
H546	H	0.085417	0.643080	0.624682
H547	H	0.335417	0.893080	0.874682
H548	H	0.585417	1.143080	1.124682
Cl549	Cl	-0.151850	0.714137	0.526550
Cl550	Cl	0.098150	0.964137	0.776550
Cl551	Cl	0.348150	1.214137	1.026550
Cl552	Cl	0.598150	1.464137	1.276550
Cl553	Cl	-0.281392	0.584331	0.930111
Cl554	Cl	-0.031392	0.834331	1.180111
Cl555	Cl	0.218608	1.084331	1.430111
Cl556	Cl	0.468608	1.334331	1.680111
H557	H	-0.143183	0.655725	0.742824
H558	H	0.106817	0.905725	0.992824
H559	H	0.356817	1.155725	1.242824
H560	H	0.606817	1.405725	1.492824
H561	H	-0.164464	0.701408	0.944670
H562	H	0.085536	0.951408	1.194670
H563	H	0.335536	1.201408	1.444670
H564	H	0.585536	1.451408	1.694670
Cl565	Cl	-0.698990	0.742840	0.171481
Cl566	Cl	-0.448990	0.992840	0.421481
Cl567	Cl	-0.198990	1.242840	0.671481
Cl568	Cl	0.051010	1.492840	0.921481
Cl569	Cl	-0.281354	0.584331	1.077801
Cl570	Cl	-0.031354	0.834331	1.327801
Cl571	Cl	0.218646	1.084331	1.577801
Cl572	Cl	0.468646	1.334331	1.827801
Cl573	Cl	-0.281400	0.382619	0.211240
Cl574	Cl	-0.031400	0.632619	0.461240
Cl575	Cl	0.218600	0.882619	0.711240
Cl576	Cl	0.468600	1.132619	0.961240
Cl577	Cl	-0.839787	0.555630	0.432299
Cl578	Cl	-0.589787	0.805630	0.682299
Cl579	Cl	-0.339787	1.055630	0.932299
Cl580	Cl	-0.089787	1.305630	1.182299
Cl581	Cl	-0.151718	0.714149	1.077876
Cl582	Cl	0.098282	0.964149	1.327876
Cl583	Cl	0.348282	1.214149	1.577876
Cl584	Cl	0.598282	1.464149	1.827876
H585	H	-0.290025	0.642753	0.861520
H586	H	-0.040025	0.892753	1.111520
H587	H	0.209975	1.142753	1.361520
H588	H	0.459975	1.392753	1.611520
Cl589	Cl	-0.307986	0.641180	0.728322
Cl590	Cl	-0.057986	0.891180	0.978322
Cl591	Cl	0.192014	1.141180	1.228322
Cl592	Cl	0.442014	1.391180	1.478322
H593	H	-0.164692	-0.179315	0.374709
H594	H	0.085308	0.070685	0.624709
H595	H	0.335308	0.320685	0.874709
H596	H	0.585308	0.570685	1.124709
Cl597	Cl	-0.123263	0.026149	0.432634
Cl598	Cl	0.126737	0.276149	0.682634
Cl599	Cl	0.376737	0.526149	0.932634
Cl600	Cl	0.626737	0.776149	1.182634
H601	H	-0.268737	0.597062	0.659684
H602	H	-0.018737	0.847062	0.909684
H603	H	0.231263	1.097062	1.159684
H604	H	0.481263	1.347062	1.409684
H605	H	-0.164572	0.478202	0.374675
H606	H	0.085428	0.728202	0.624675
H607	H	0.335428	0.978202	0.874675
H608	H	0.585428	1.228202	1.124675
H609	H	-0.472794	0.701293	0.229214
H610	H	-0.222794	0.951293	0.479214
H611	H	0.027206	1.201293	0.729214
H612	H	0.277206	1.451293	0.979214
H613	H	-0.297446	0.121519	0.188915
H614	H	-0.047446	0.371519	0.438915
H615	H	0.202554	0.621519	0.688915
H616	H	0.452554	0.871519	0.938915
H617	H	-0.268784	-0.094265	0.229048
H618	H	-0.018784	0.155735	0.479048
H619	H	0.231216	0.405735	0.729048
H620	H	0.481216	0.655735	0.979048
Cl621	Cl	-0.281507	-0.189788	0.211280
Cl622	Cl	-0.031507	0.060212	0.461280
Cl623	Cl	0.218493	0.310212	0.711280
Cl624	Cl	0.468493	0.560212	0.961280
Cl625	Cl	-0.310176	0.026013	0.171153
Cl626	Cl	-0.060176	0.276013	0.421153
Cl627	Cl	0.189824	0.526013	0.671153
Cl628	Cl	0.439824	0.776013	0.921153
H629	H	-0.135931	0.262392	0.414837
H630	H	0.114069	0.512392	0.664837
H631	H	0.364069	0.762392	0.914837
H632	H	0.614069	1.012392	1.164837
Cl633	Cl	-0.123237	0.166895	0.432627
Cl634	Cl	0.126763	0.416895	0.682627
Cl635	Cl	0.376763	0.666895	0.932627
Cl636	Cl	0.626763	0.916895	1.182627
Cl637	Cl	-0.310114	0.272654	0.171123
Cl638	Cl	-0.060114	0.522654	0.421123
Cl639	Cl	0.189886	0.772654	0.671123
Cl640	Cl	0.439886	1.022654	0.921123
H641	H	-0.297426	0.177169	0.188912
H642	H	-0.047426	0.427169	0.438912
H643	H	0.202574	0.677169	0.688912
H644	H	0.452574	0.927169	0.938912
H645	H	-0.387685	0.701256	0.229197
H646	H	-0.137685	0.951256	0.479197
H647	H	0.112315	1.201256	0.729197
H648	H	0.362315	1.451256	0.979197
Cl649	Cl	-1.055590	0.714196	0.211561
Cl650	Cl	-0.805590	0.964196	0.461561
Cl651	Cl	-0.555590	1.214196	0.711561
Cl652	Cl	-0.305590	1.464196	0.961561
Cl653	Cl	-0.949688	0.714166	0.211539
Cl654	Cl	-0.699688	0.964166	0.461539
Cl655	Cl	-0.449688	1.214166	0.711539
Cl656	Cl	-0.199688	1.464166	0.961539
Cl657	Cl	-1.055609	0.584425	0.392281
Cl658	Cl	-0.805609	0.834425	0.642281
Cl659	Cl	-0.555609	1.084425	0.892281
Cl660	Cl	-0.305609	1.334425	1.142281
Cl661	Cl	-0.593111	0.742810	0.171472
Cl662	Cl	-0.343111	0.992810	0.421472
Cl663	Cl	-0.093111	1.242810	0.671472
Cl664	Cl	0.156889	1.492810	0.921472
Cl665	Cl	-0.949726	0.584398	0.392279
Cl666	Cl	-0.699726	0.834398	0.642279
Cl667	Cl	-0.449726	1.084398	0.892279
Cl668	Cl	-0.199726	1.334398	1.142279
H669	H	-0.603531	0.568293	0.414547
H670	H	-0.353531	0.818293	0.664547
H671	H	-0.103531	1.068293	0.914547
H672	H	0.146469	1.318293	1.164547
Cl673	Cl	-0.699030	0.555590	0.432299
Cl674	Cl	-0.449030	0.805590	0.682299
Cl675	Cl	-0.199030	1.055590	0.932299
Cl676	Cl	0.050970	1.305590	1.182299
