data_functionalizedCrystal
_audit_creation_method	'MofGen! by Chris Wilmer'
_symmetry_space_group_name_H-M	'P1'
_symmetry_Int_Tables_number	1
_symmetry_cell_setting	triclinic
loop_
_symmetry_equiv_pos_as_xyz
  x,y,z
_cell_length_a	16.625546
_cell_length_b	16.625547
_cell_length_c	12.759393
_cell_angle_alpha	89.974121
_cell_angle_beta	89.963756
_cell_angle_gamma	90.022405
loop_
_atom_site_label
_atom_site_type_symbol
_atom_site_fract_x
_atom_site_fract_y
_atom_site_fract_z
Zn1	Zn	-0.320955	1.232689	-0.594156
Zn2	Zn	-0.455812	1.232590	-0.418462
Zn3	Zn	-0.320997	1.097848	-0.418472
Zn4	Zn	-0.455749	1.097821	-0.594080
O5	O	-0.388378	1.165237	-0.506292
O6	O	-0.338853	1.345508	-0.570877
O7	O	-0.437972	1.214686	-0.271442
O8	O	-0.208159	1.115788	-0.441813
O9	O	-0.437932	1.345435	-0.441795
O10	O	-0.208128	1.214855	-0.570887
O11	O	-0.338924	1.115692	-0.271450
O12	O	-0.338863	0.985012	-0.441740
O13	O	-0.437825	1.115742	-0.741111
O14	O	-0.437865	0.984992	-0.570758
O15	O	-0.338792	1.214829	-0.741167
O16	O	-0.568636	1.214659	-0.441722
O17	O	-0.568590	1.115646	-0.570748
C18	C	-0.388363	0.955746	-0.506243
C19	C	-0.388375	0.866125	-0.506247
C20	C	-0.388377	0.793343	-0.506260
C21	C	-0.388381	0.702034	-0.506286
C22	C	-0.388388	0.629258	-0.506313
C23	C	-0.388394	0.537943	-0.506338
C24	C	-0.597869	1.165161	-0.506248
C25	C	-0.687490	1.165202	-0.506265
C26	C	-1.015666	1.165342	-0.506374
C27	C	-0.924357	1.165301	-0.506347
C28	C	-0.851581	1.165271	-0.506319
C29	C	-0.760267	1.165231	-0.506293
C30	C	-0.178069	1.165336	-0.506360
C31	C	-0.088448	1.165378	-0.506388
C32	C	-0.388297	1.165293	-0.780326
C33	C	-0.388262	1.165317	-0.897103
C34	C	-0.388394	1.375546	-0.506343
C35	C	-0.388401	1.465167	-0.506364
C36	C	-0.336678	1.113790	-0.951968
C37	C	-0.336653	1.113808	-1.061692
C38	C	-0.439798	1.216889	-1.061676
C39	C	-0.439827	1.216866	-0.951954
C40	C	-0.307797	1.018762	-1.211633
C41	C	-0.256200	0.967242	-1.266502
C42	C	-0.177533	0.954893	-1.230919
C43	C	-0.150446	0.994077	-1.140468
C44	C	-0.202038	1.045603	-1.085604
C45	C	-0.280716	1.057937	-1.121186
C46	C	-0.468675	1.311913	-0.802012
C47	C	-0.520263	1.363444	-0.747146
C48	C	-0.598932	1.375801	-0.782727
C49	C	-0.626016	1.336632	-0.873181
C50	C	-0.574428	1.285101	-0.928047
C51	C	-0.495760	1.272742	-0.892458
C52	C	-0.388401	1.165227	-0.233325
C53	C	-0.388209	1.165360	-0.116549
H54	H	-0.294691	1.071815	-0.907312
O55	O	-0.392201	1.299931	-0.767625
C56	C	-0.250783	1.310682	-0.806697
C57	C	-0.337347	1.324268	-0.845780
H58	H	-0.206409	1.330367	-0.869857
H59	H	-0.241539	1.244161	-0.788654
H60	H	-0.240319	1.347514	-0.732604
H61	H	-0.347870	1.287484	-0.919895
H62	H	-0.346549	1.390805	-0.863752
H63	H	-0.371857	1.028803	-1.240605
O64	O	-0.175728	1.083790	-0.997842
C65	C	-0.150867	1.210846	-0.913008
C66	C	-0.180665	1.167709	-1.012479
H67	H	-0.154864	1.278701	-0.924800
H68	H	-0.085757	1.193242	-0.896986
H69	H	-0.189976	1.192520	-0.843561
H70	H	-0.141615	1.186012	-1.081987
H71	H	-0.245787	1.185314	-1.028409
O72	O	-0.702453	1.348485	-0.907776
C73	C	-0.830442	1.288030	-0.948364
C74	C	-0.743895	1.274484	-0.909196
H75	H	-0.863978	1.228214	-0.949504
H76	H	-0.828806	1.314306	-1.030882
H77	H	-0.862632	1.331618	-0.893626
H78	H	-0.711655	1.230882	-0.963857
H79	H	-0.745588	1.248248	-0.826659
H80	H	-0.640932	1.417770	-0.738051
H81	H	-0.481780	1.258859	-1.106349
H82	H	-0.135523	0.912944	-1.275601
H83	H	-0.596486	1.253208	-1.001701
O84	O	-0.074010	0.981970	-1.106026
C85	C	0.052353	0.914520	-1.134732
C86	C	-0.034196	0.928147	-1.173843
H87	H	0.084574	0.871018	-1.189555
H88	H	0.050723	0.888155	-1.052261
H89	H	0.085856	0.974353	-1.133460
H90	H	-0.067749	0.868347	-1.175182
H91	H	-0.032507	0.954549	-1.256291
H92	H	-0.498201	1.395347	-0.673501
O93	O	-0.282431	0.929267	-1.354467
C94	C	-0.263739	0.908795	-1.539837
C95	C	-0.233969	0.951863	-1.440302
H96	H	-0.224561	0.927035	-1.609256
H97	H	-0.328818	0.926473	-1.555929
H98	H	-0.259846	0.840939	-1.527992
H99	H	-0.237809	1.019727	-1.452072
H100	H	-0.168904	0.934120	-1.424241
