data_functionalizedCrystal
_audit_creation_method	'MofGen! by Chris Wilmer'
_symmetry_space_group_name_H-M	'P1'
_symmetry_Int_Tables_number	1
_symmetry_cell_setting	triclinic
loop_
_symmetry_equiv_pos_as_xyz
  x,y,z
_cell_length_a	17.699083
_cell_length_b	15.944493
_cell_length_c	16.176319
_cell_angle_alpha	89.999072
_cell_angle_beta	89.998611
_cell_angle_gamma	83.379029
loop_
_atom_site_label
_atom_site_type_symbol
_atom_site_fract_x
_atom_site_fract_y
_atom_site_fract_z
O1	O	1.004240	0.106225	-0.068620
O2	O	1.504240	0.606225	0.431380
O3	O	0.783883	0.120045	-0.068646
O4	O	1.283883	0.620045	0.431354
O5	O	0.900102	-0.009156	-0.068639
O6	O	1.400102	0.490844	0.431361
O7	O	0.888021	0.235426	-0.068627
O8	O	1.388021	0.735426	0.431373
O9	O	0.900086	-0.009164	0.068854
O10	O	1.400086	0.490836	0.568854
O11	O	0.783867	0.120037	0.068848
O12	O	1.283867	0.620037	0.568848
O13	O	1.004224	0.106217	0.068873
O14	O	1.504224	0.606217	0.568873
Cu15	Cu	0.894044	0.113126	0.081415
Cu16	Cu	1.394044	0.613126	0.581415
Cu17	Cu	0.894063	0.113136	-0.081187
Cu18	Cu	1.394063	0.613136	0.418813
O19	O	0.888005	0.235418	0.068867
O20	O	1.388005	0.735418	0.568867
C21	C	0.755677	0.119546	0.000097
C22	C	1.255677	0.619546	0.500097
C23	C	0.671657	0.118060	0.000087
C24	C	1.171657	0.618060	0.500087
C25	C	0.899600	-0.040454	0.000104
C26	C	1.399600	0.459546	0.500104
C27	C	0.898120	-0.133699	0.000093
C28	C	1.398120	0.366301	0.500093
C29	C	0.623151	0.193898	0.000091
C30	C	1.123151	0.693898	0.500091
C31	C	0.544206	0.192497	0.000102
C32	C	1.044206	0.692497	0.500102
C33	C	0.513767	0.115257	0.000102
C34	C	1.013767	0.615257	0.500102
C35	C	0.562279	0.039413	0.000101
C36	C	1.062279	0.539413	0.500101
C37	C	0.641223	0.040815	0.000096
C38	C	1.141223	0.540815	0.500096
C39	C	0.243908	0.033759	0.000121
C40	C	0.743908	0.533759	0.500121
C41	C	0.164958	0.032363	0.000123
C42	C	0.664958	0.532363	0.500123
C43	C	0.146890	0.185441	0.000127
C44	C	0.646890	0.685441	0.500127
C45	C	0.225834	0.186843	0.000122
C46	C	0.725834	0.686843	0.500122
C47	C	0.274339	0.110999	0.000125
C48	C	0.774339	0.610999	0.500125
C49	C	0.359940	0.112519	0.000115
C50	C	0.859940	0.612519	0.500115
C51	C	0.428167	0.113737	0.000107
C52	C	0.928167	0.613737	0.500107
C53	C	0.966529	-0.369603	0.000117
C54	C	1.466529	0.130397	0.500117
C55	C	0.929646	-0.420089	-0.067678
C56	C	1.429646	0.079911	0.432322
C57	C	0.895377	-0.304415	0.000103
C58	C	1.395377	0.195585	0.500103
C59	C	0.929614	-0.420074	0.067879
C60	C	1.429614	0.079926	0.567879
C61	C	0.892733	-0.469319	0.000116
C62	C	1.392733	0.030681	0.500116
C63	C	0.858514	-0.353673	-0.067748
C64	C	1.358514	0.146327	0.432252
C65	C	0.858492	-0.353654	0.067870
C66	C	1.358492	0.146346	0.567870
C67	C	0.821557	-0.404107	0.000059
C68	C	1.321557	0.095893	0.500059
C69	C	0.896902	-0.209418	0.000095
C70	C	1.396902	0.290582	0.500095
C71	C	0.891202	-0.564312	0.000119
C72	C	1.391202	-0.064312	0.500119
C73	C	1.032430	0.106716	0.000128
C74	C	1.532430	0.606716	0.500128
C75	C	1.116450	0.108202	0.000133
C76	C	1.616450	0.608202	0.500133
C77	C	0.888507	0.266715	0.000122
C78	C	1.388507	0.766715	0.500122
C79	C	0.889987	0.359961	0.000127
C80	C	1.389987	0.859961	0.500127
N81	N	0.894036	0.113119	0.195780
N82	N	1.394036	0.613119	0.695780
N83	N	0.894077	0.113136	-0.195552
N84	N	1.394077	0.613136	0.304448
C85	C	0.945514	0.055932	0.239047
C86	C	1.445514	0.555932	0.739047
C87	C	0.945517	0.055931	0.325594
C88	C	1.445517	0.555931	0.825594
C89	C	0.894047	0.113122	0.368872
C90	C	1.394047	0.613122	0.868872
C91	C	0.842564	0.170311	0.325599
C92	C	1.342564	0.670311	0.825599
C93	C	0.842557	0.170307	0.239054
C94	C	1.342557	0.670307	0.739054
C95	C	0.842590	0.170327	0.674628
C96	C	1.342590	0.670327	1.174628
C97	C	0.842603	0.170328	0.761179
C98	C	1.342603	0.670328	1.261179
C99	C	0.945550	0.055950	0.761168
C100	C	1.445550	0.555950	1.261168
C101	C	0.945543	0.055947	0.674622
C102	C	1.445543	0.555947	1.174622
C103	C	0.894058	0.113133	0.631357
C104	C	1.394058	0.613133	1.131357
C105	C	0.894054	0.113132	0.537513
C106	C	1.394054	0.613132	1.037513
C107	C	0.894055	0.113127	0.462715
C108	C	1.394055	0.613127	0.962715
H109	H	0.647927	0.256796	0.000090
H110	H	1.147927	0.756796	0.500090
H111	H	0.680716	-0.020940	0.000092
H112	H	1.180716	0.479060	0.500092
H113	H	0.800638	0.216874	0.203826
H114	H	1.300638	0.716874	0.703826
C115	C	1.048419	0.037380	0.577104
C116	C	1.548419	0.537380	1.077104
C117	C	1.001988	-0.006995	0.626970
C118	C	1.501988	0.493005	1.126970
H119	H	1.083227	-0.001504	0.547667
H120	H	1.583227	0.498496	1.047667
H121	H	1.017753	0.071508	0.539018
H122	H	1.517753	0.571508	1.039018
H123	H	1.075776	0.072219	0.610812
H124	H	1.575776	0.572219	1.110812
H125	H	0.974626	-0.041830	0.593262
H126	H	1.474626	0.458170	1.093262
H127	H	1.032658	-0.041137	0.665061
H128	H	1.532658	0.458863	1.165061
C129	C	0.086664	-0.058027	-0.070553
C130	C	0.586664	0.441973	0.429447
C131	C	0.131500	-0.052547	0.000128
C132	C	0.631500	0.447453	0.500128
H133	H	0.066013	-0.110446	-0.070552
H134	H	0.566013	0.389554	0.429448
H135	H	0.046482	-0.013064	-0.070549
H136	H	0.546482	0.486936	0.429451
H137	H	0.117095	-0.054302	-0.118494
H138	H	0.617095	0.445698	0.381506
H139	H	0.101067	-0.056266	0.048069
H140	H	0.601067	0.443734	0.548069
H141	H	0.171687	-0.097522	0.000131
H142	H	0.671687	0.402478	0.500131
C143	C	0.819201	-0.226828	0.143991
C144	C	1.319201	0.273172	0.643991
C145	C	0.817951	-0.314468	0.145235
C146	C	1.317951	0.185532	0.645235
H147	H	0.794172	-0.202638	0.191755
H148	H	1.294172	0.297362	0.691755
H149	H	0.870414	-0.214421	0.143517
H150	H	1.370414	0.285579	0.643517
H151	H	0.793852	-0.203990	0.095861
H152	H	1.293852	0.296010	0.595861
H153	H	0.843305	-0.337308	0.193363
H154	H	1.343305	0.162692	0.693363
H155	H	0.766728	-0.326882	0.145717
H156	H	1.266728	0.173118	0.645717
C157	C	0.534276	0.343953	0.000092
C158	C	1.034276	0.843953	0.500092
C159	C	0.490888	0.275861	0.000102
C160	C	0.990888	0.775861	0.500102
H161	H	0.501358	0.395419	0.000089
H162	H	1.001358	0.895419	0.500089
H163	H	0.565444	0.341315	0.048033
H164	H	1.065444	0.841315	0.548033
H165	H	0.565442	0.341308	-0.047861
H166	H	1.065442	0.841308	0.452139
H167	H	0.459726	0.278503	0.048059
H168	H	0.959726	0.778503	0.548059
H169	H	0.459707	0.278500	-0.047843
H170	H	0.959707	0.778500	0.452157
C171	C	0.304115	0.277232	-0.070577
C172	C	0.804115	0.777232	0.429423
C173	C	0.259284	0.271750	0.000111
C174	C	0.759284	0.771750	0.500111
H175	H	0.324758	0.329655	-0.070585
H176	H	0.824758	0.829655	0.429415
H177	H	0.344302	0.232275	-0.070572
H178	H	0.844302	0.732275	0.429428
H179	H	0.273682	0.273497	-0.118513
H180	H	0.773682	0.773497	0.381487
H181	H	0.289719	0.275479	0.048048
H182	H	0.789719	0.775479	0.548048
H183	H	0.219092	0.316720	0.000113
H184	H	0.719092	0.816720	0.500113
H185	H	0.107387	0.247196	0.000129
H186	H	0.607387	0.747196	0.500129
C187	C	0.990026	-0.089535	0.787808
C188	C	1.490026	0.410465	1.287808
C189	C	1.002136	-0.006922	0.808728
C190	C	1.502136	0.493078	1.308728
H191	H	1.024963	-0.128346	0.817166
H192	H	1.524963	0.371654	1.317166
H193	H	0.939525	-0.098581	0.802000
H194	H	1.439525	0.401419	1.302000
H195	H	0.997391	-0.097707	0.730070
H196	H	1.497391	0.402293	1.230070
H197	H	0.994766	0.001253	0.866466
H198	H	1.494766	0.501253	1.366466
H199	H	1.052650	0.002128	0.794541
H200	H	1.552650	0.502128	1.294541
C201	C	0.869099	-0.273346	-0.191911
C202	C	1.369099	0.226654	0.308089
C203	C	0.817996	-0.314694	-0.145219
C204	C	1.317996	0.185306	0.354781
H205	H	0.844089	-0.249288	-0.239742
H206	H	1.344089	0.250712	0.260258
H207	H	0.886985	-0.229989	-0.159578
H208	H	1.386985	0.270011	0.340422
H209	H	0.910875	-0.312726	-0.208090
H210	H	1.410875	0.187274	0.291910
H211	H	0.776222	-0.275312	-0.129034
H212	H	1.276222	0.224688	0.370966
H213	H	0.800098	-0.358056	-0.177558
H214	H	1.300098	0.141944	0.322442
H215	H	0.800652	0.216874	0.360841
H216	H	1.300652	0.716874	0.860841
H217	H	0.283391	-0.027998	0.000124
H218	H	0.783391	0.472002	0.500124
H219	H	0.760221	-0.419444	0.000014
H220	H	1.260221	0.080556	0.500014
C221	C	0.449288	-0.030709	0.000099
C222	C	0.949288	0.469291	0.500099
C223	C	0.528824	-0.045491	0.000100
C224	C	1.028824	0.454509	0.500100
H225	H	0.428637	-0.083128	0.000092
H226	H	0.928637	0.416872	0.500092
H227	H	0.432643	0.000501	0.048045
H228	H	0.932643	0.500501	0.548045
H229	H	0.432646	0.000515	-0.047849
H230	H	0.932646	0.500515	0.452151
H231	H	0.545467	-0.076710	0.048052
H232	H	1.045467	0.423290	0.548052
H233	H	0.545476	-0.076715	-0.047851
H234	H	1.045476	0.423285	0.452149
C235	C	1.086345	-0.382326	-0.071071
C236	C	1.586345	0.117674	0.428929
C237	C	1.049251	-0.348630	0.000016
C238	C	1.549251	0.151370	0.500016
H239	H	1.137407	-0.369360	-0.071143
H240	H	1.637407	0.130640	0.428857
H241	H	1.085989	-0.441848	-0.071549
H242	H	1.585989	0.058152	0.428451
H243	H	1.060800	-0.358610	-0.118733
H244	H	1.560800	0.141390	0.381267
H245	H	1.074792	-0.372351	0.047678
H246	H	1.574792	0.127649	0.547678
H247	H	1.049611	-0.289097	0.000501
H248	H	1.549611	0.210903	0.500501
H249	H	0.800686	0.216901	0.796415
H250	H	1.300686	0.716901	1.296415
H251	H	0.959671	-0.449071	0.125191
H252	H	1.459671	0.050929	0.625191
C253	C	0.918949	-0.500006	-0.192088
C254	C	1.418949	-0.000006	0.307912
C255	C	0.970213	-0.459247	-0.145046
C256	C	1.470213	0.040753	0.354954
H257	H	0.943997	-0.524172	-0.239852
H258	H	1.443997	-0.024172	0.260148
H259	H	0.900604	-0.543224	-0.159947
H260	H	1.400604	-0.043224	0.340053
H261	H	0.877486	-0.460258	-0.208379
H262	H	1.377486	0.039742	0.291621
H263	H	1.011674	-0.498996	-0.128750
H264	H	1.511674	0.001004	0.371250
H265	H	0.988570	-0.416025	-0.177193
H266	H	1.488570	0.083975	0.322807
C267	C	1.047271	-0.057134	0.247738
C268	C	1.547271	0.442866	0.747738
C269	C	1.002091	-0.006937	0.191480
C270	C	1.502091	0.493063	0.691480
H271	H	1.082196	-0.095952	0.218372
H272	H	1.582196	0.404048	0.718372
H273	H	1.074491	-0.022206	0.281485
H274	H	1.574491	0.477794	0.781485
H275	H	1.015767	-0.087300	0.281502
H276	H	1.515767	0.412700	0.781502
H277	H	1.033596	0.023234	0.157719
H278	H	1.533596	0.523234	0.657719
H279	H	0.974870	-0.041870	0.157718
H280	H	1.474870	0.458130	0.657718
H281	H	0.987434	0.009365	0.360822
H282	H	1.487434	0.509365	0.860822
C283	C	0.740836	0.283393	0.683344
C284	C	1.240836	0.783393	1.183344
C285	C	0.786005	0.233192	0.627077
C286	C	1.286005	0.733192	1.127077
H287	H	0.705905	0.322208	0.653984
H288	H	1.205905	0.822208	1.153984
H289	H	0.713624	0.248466	0.717104
H290	H	1.213624	0.748466	1.217104
H291	H	0.772348	0.313561	0.717094
H292	H	1.272348	0.813561	1.217094
H293	H	0.754493	0.203018	0.593331
H294	H	1.254493	0.703018	1.093331
H295	H	0.813218	0.268123	0.593303
H296	H	1.313218	0.768123	1.093303
