data_functionalizedCrystal
_audit_creation_method	'MofGen! by Chris Wilmer'
_symmetry_space_group_name_H-M	'P1'
_symmetry_Int_Tables_number	1
_symmetry_cell_setting	triclinic
loop_
_symmetry_equiv_pos_as_xyz
  x,y,z
_cell_length_a	14.519709
_cell_length_b	11.792241
_cell_length_c	10.268362
_cell_angle_alpha	89.999626
_cell_angle_beta	89.993769
_cell_angle_gamma	83.936780
loop_
_atom_site_label
_atom_site_type_symbol
_atom_site_fract_x
_atom_site_fract_y
_atom_site_fract_z
O1	O	0.126405	1.506208	-0.108177
O2	O	0.459738	1.839541	0.225157
O3	O	0.793071	2.172875	0.558490
O4	O	0.139432	1.175795	-0.108207
O5	O	0.472765	1.509128	0.225126
O6	O	0.806099	1.842461	0.558459
O7	O	-0.001288	1.349762	-0.108180
O8	O	0.332045	1.683095	0.225154
O9	O	0.665378	2.016429	0.558487
O10	O	0.267125	1.332241	-0.108205
O11	O	0.600458	1.665574	0.225129
O12	O	0.933791	1.998908	0.558462
O13	O	-0.001294	1.349747	0.108421
O14	O	0.332039	1.683080	0.441754
O15	O	0.665373	2.016413	0.775088
O16	O	0.139426	1.175780	0.108393
O17	O	0.472759	1.509113	0.441726
O18	O	0.806093	1.842446	0.775060
O19	O	0.126399	1.506193	0.108424
O20	O	0.459732	1.839526	0.441757
O21	O	0.793065	2.172860	0.775090
Cu22	Cu	0.132912	1.340985	0.128186
Cu23	Cu	0.466245	1.674318	0.461519
Cu24	Cu	0.799578	2.007652	0.794853
Cu25	Cu	0.132919	1.341003	-0.127969
Cu26	Cu	0.466252	1.674336	0.205364
Cu27	Cu	0.799585	2.007669	0.538697
O28	O	0.267119	1.332226	0.108396
O29	O	0.600452	1.665559	0.441729
O30	O	0.933785	1.998893	0.775063
C31	C	0.138611	1.133501	0.000089
C32	C	0.471944	1.466834	0.333422
C33	C	0.805277	1.800167	0.666756
C34	C	0.136161	1.007501	0.000078
C35	C	0.469495	1.340834	0.333411
C36	C	0.802828	1.674167	0.666744
C37	C	0.131657	0.776813	0.000116
C38	C	0.464991	1.110147	0.333449
C39	C	0.798324	1.443480	0.666782
C40	C	0.134160	0.905185	0.000095
C41	C	0.467493	1.238518	0.333428
C42	C	0.800827	1.571851	0.666761
C43	C	-0.035654	1.348938	0.000121
C44	C	0.297679	1.682271	0.333454
C45	C	0.631013	2.015604	0.666788
C46	C	-0.138044	1.346491	0.000121
C47	C	0.195289	1.679824	0.333455
C48	C	0.528623	2.013158	0.666788
C49	C	-0.512973	1.337483	0.000087
C50	C	-0.179640	1.670816	0.333420
C51	C	0.153694	2.004149	0.666753
C52	C	-0.408656	1.339984	0.000097
C53	C	-0.075322	1.673318	0.333430
C54	C	0.258011	2.006651	0.666763
C55	C	-0.325512	1.341987	0.000105
C56	C	0.007822	1.675320	0.333439
C57	C	0.341155	2.008653	0.666772
C58	C	-0.221188	1.344489	0.000113
C59	C	0.112145	1.677822	0.333446
C60	C	0.445479	2.011155	0.666780
C61	C	0.301484	1.333050	0.000093
C62	C	0.634818	1.666383	0.333426
C63	C	0.968151	1.999717	0.666759
C64	C	0.403875	1.335497	0.000084
C65	C	0.737208	1.668830	0.333417
C66	C	1.070541	2.002164	0.666750
C67	C	0.127220	1.548487	0.000124
C68	C	0.460553	1.881820	0.333458
C69	C	0.793887	2.215154	0.666791
C70	C	0.129669	1.674487	0.000127
C71	C	0.463003	2.007820	0.333461
C72	C	0.796336	2.341154	0.666794
N73	N	0.132906	1.340981	0.308352
N74	N	0.466240	1.674314	0.641685
N75	N	0.799573	2.007647	0.975018
N76	N	0.132917	1.341016	-0.308135
N77	N	0.466250	1.674349	0.025198
N78	N	0.799584	2.007683	0.358531
C79	C	0.132917	1.340997	0.574022
C80	C	0.466250	1.674330	0.907356
C81	C	0.799584	2.007664	1.240689
C82	C	0.132914	1.340984	0.426184
C83	C	0.466247	1.674318	0.759518
C84	C	0.799580	2.007651	1.092851
