data_functionalizedCrystal
_audit_creation_method	'MofGen! by Chris Wilmer'
_symmetry_space_group_name_H-M	'P1'
_symmetry_Int_Tables_number	1
_symmetry_cell_setting	triclinic
loop_
_symmetry_equiv_pos_as_xyz
  x,y,z
_cell_length_a	11.169417
_cell_length_b	12.759394
_cell_length_c	11.169409
_cell_angle_alpha	89.965476
_cell_angle_beta	89.980176
_cell_angle_gamma	90.015716
loop_
_atom_site_label
_atom_site_type_symbol
_atom_site_fract_x
_atom_site_fract_y
_atom_site_fract_z
Zn1	Zn	1.834925	-0.418157	-0.678525
Zn2	Zn	1.834798	-0.593883	-0.477834
Zn3	Zn	1.634211	-0.418221	-0.477859
Zn4	Zn	1.634202	-0.593797	-0.678479
O5	O	1.734534	-0.506014	-0.578174
O6	O	2.002858	-0.441476	-0.651911
O7	O	1.808141	-0.570643	-0.309887
O8	O	1.660892	-0.271191	-0.504507
O9	O	2.002765	-0.570581	-0.504465
O10	O	1.808356	-0.271144	-0.651935
O11	O	1.660770	-0.441585	-0.309906
O12	O	1.466260	-0.441502	-0.504463
O13	O	1.660878	-0.570435	-0.846435
O14	O	1.466254	-0.570498	-0.651857
O15	O	1.808348	-0.441393	-0.846468
O16	O	1.808133	-0.740892	-0.504420
O17	O	1.660756	-0.740830	-0.651833
C18	C	1.422709	-0.505998	-0.578159
C19	C	1.289309	-0.506017	-0.578180
C20	C	1.734462	-0.778982	-0.578145
C21	C	1.734541	-0.895759	-0.578173
C22	C	1.888120	-0.895771	-0.424787
C23	C	1.964941	-0.950637	-0.348108
C24	C	1.965011	-1.060359	-0.348140
C25	C	1.888255	-1.115216	-0.424863
C26	C	1.811434	-1.060349	-0.501541
C27	C	1.811370	-0.950625	-0.501498
C28	C	1.657863	-1.060337	-0.654932
C29	C	1.657785	-0.950616	-0.654895
C30	C	1.581107	-1.115195	-0.731654
C31	C	1.504279	-1.060328	-0.808329
C32	C	1.504210	-0.950600	-0.808292
C33	C	1.580964	-0.895749	-0.731574
C34	C	2.047576	-0.506031	-0.578190
C35	C	2.180976	-0.506038	-0.578197
C36	C	1.734626	-0.505898	-0.891217
C37	C	1.734666	-0.505848	-1.024617
C38	C	1.734639	-0.231981	-0.578229
C39	C	1.734684	-0.115204	-0.578253
C40	C	1.734511	-0.506055	-0.266349
C41	C	1.734705	-0.505808	-0.132950
H42	H	1.888055	-0.806430	-0.424737
H43	H	1.580908	-0.806408	-0.731529
H44	H	1.581175	-1.204536	-0.731680
O45	O	1.429895	-1.113730	-0.882909
C46	C	1.413775	-1.237445	-1.045027
C47	C	1.498151	-1.177046	-0.960623
H48	H	1.468927	-1.288633	-1.107896
H49	H	1.351102	-1.288980	-0.989960
H50	H	1.358822	-1.179368	-1.099767
H51	H	1.553181	-1.235047	-0.905865
H52	H	1.560745	-1.125494	-1.015759
O53	O	2.039384	-0.897186	-0.273620
C54	C	2.107394	-0.728159	-0.205628
C55	C	2.023006	-0.788556	-0.290022
H56	H	2.094200	-0.640321	-0.218877
H57	H	2.086369	-0.749746	-0.108817
H58	H	2.204162	-0.749710	-0.226771
H59	H	1.926210	-0.767037	-0.268987
H60	H	2.044134	-0.766964	-0.386807
O61	O	1.429648	-0.897419	-0.882949
C62	C	1.371347	-0.863683	-1.087055
C63	C	1.455843	-0.923989	-1.002638
H64	H	1.392512	-0.885127	-1.183842
H65	H	1.274573	-0.885365	-1.066019
H66	H	1.384458	-0.775844	-1.073791
H67	H	1.442839	-1.011842	-1.015854
H68	H	1.552586	-0.902221	-1.023695
O69	O	2.039671	-1.113500	-0.273544
C70	C	2.192045	-1.101945	-0.121446
C71	C	2.107536	-1.041633	-0.205843
H72	H	2.246954	-1.043868	-0.066706
H73	H	2.137056	-1.153373	-0.058586
H74	H	2.254752	-1.153257	-0.176636
H75	H	2.044812	-0.990265	-0.150750
H76	H	2.162600	-0.990272	-0.268706
H77	H	1.888329	-1.204557	-0.424893
