data_functionalizedCrystal
_audit_creation_method	'MofGen! by Chris Wilmer'
_symmetry_space_group_name_H-M	'P1'
_symmetry_Int_Tables_number	1
_symmetry_cell_setting	triclinic
loop_
_symmetry_equiv_pos_as_xyz
  x,y,z
_cell_length_a	12.759401
_cell_length_b	19.121063
_cell_length_c	12.759393
_cell_angle_alpha	92.402917
_cell_angle_beta	89.981504
_cell_angle_gamma	92.469017
loop_
_atom_site_label
_atom_site_type_symbol
_atom_site_fract_x
_atom_site_fract_y
_atom_site_fract_z
Zn1	Zn	1.588321	-0.279568	-0.611771
Zn2	Zn	1.580680	-0.397037	-0.443567
Zn3	Zn	1.412621	-0.279605	-0.436113
Zn4	Zn	1.405080	-0.396983	-0.619205
O5	O	1.496676	-0.338298	-0.527664
O6	O	1.734328	-0.295158	-0.589467
O7	O	1.558345	-0.381497	-0.295559
O8	O	1.442282	-0.181316	-0.453184
O9	O	1.728714	-0.381462	-0.465888
O10	O	1.571368	-0.181289	-0.582240
O11	O	1.434872	-0.295221	-0.290083
O12	O	1.264600	-0.295168	-0.460392
O13	O	1.429429	-0.381370	-0.765237
O14	O	1.259060	-0.381405	-0.594909
O15	O	1.564056	-0.295106	-0.759776
O16	O	1.551032	-0.495314	-0.473095
O17	O	1.422020	-0.495274	-0.602136
C18	C	1.223709	-0.338285	-0.527649
C19	C	1.106932	-0.338297	-0.527668
C20	C	1.484907	-0.520778	-0.539254
C21	C	1.479969	-0.598844	-0.544247
C22	C	1.049208	-0.383272	-0.597605
C23	C	0.939483	-0.383281	-0.597616
C24	C	0.945216	-0.293337	-0.457747
C25	C	1.054939	-0.293325	-0.457741
C26	C	1.101200	-0.428244	-0.667532
C27	C	1.043476	-0.473224	-0.737473
C28	C	0.933751	-0.473233	-0.737485
C29	C	0.881751	-0.428262	-0.667556
C30	C	1.544871	-0.635516	-0.479464
C31	C	1.540233	-0.708867	-0.484167
C32	C	1.470686	-0.745544	-0.553648
C33	C	1.405781	-0.708866	-0.618438
C34	C	1.410426	-0.635517	-0.613740
C35	C	1.453305	-0.967013	-0.571195
C36	C	1.448663	-1.040368	-0.575886
C37	C	1.583116	-1.040364	-0.441616
C38	C	1.587750	-0.967013	-0.436920
C39	C	1.522849	-0.930341	-0.501714
C40	C	1.465941	-0.820521	-0.558454
C41	C	1.527600	-0.855366	-0.496912
C42	C	1.770708	-0.338312	-0.527680
C43	C	1.887484	-0.338318	-0.527686
C44	C	1.496754	-0.338227	-0.801693
C45	C	1.496787	-0.338197	-0.918468
C46	C	1.508518	-0.155106	-0.516052
C47	C	1.513565	-0.077040	-0.511103
C48	C	1.566897	-0.293275	-0.970488
C49	C	1.566923	-0.293250	-1.080210
C50	C	1.426727	-0.383075	-1.085884
C51	C	1.426696	-0.383096	-0.976163
C52	C	1.636987	-0.248377	-0.912792
C53	C	1.707103	-0.203452	-0.964812
C54	C	1.707130	-0.203426	-1.074535
C55	C	1.637040	-0.248326	-1.132237
C56	C	1.496661	-0.338318	-0.254698
C57	C	1.496844	-0.338151	-0.137911
H58	H	1.190543	-0.428243	-0.667528
O59	O	1.390210	-0.931316	-0.633972
C60	C	1.253552	-0.848603	-0.642675
C61	C	1.324964	-0.888979	-0.571460
H62	H	1.200767	-0.814375	-0.592163
H63	H	1.303879	-0.814159	-0.695433
H64	H	1.203090	-0.887428	-0.693163
H65	H	1.375439	-0.850205	-0.520908
H66	H	1.274577	-0.923434	-0.518772
H67	H	1.357577	-0.605658	-0.666494
H68	H	1.369591	-0.419664	-0.933807
H69	H	1.584229	-0.825502	-0.440345
O70	O	1.110971	-0.249718	-0.389654
C71	C	1.146649	-0.215464	-0.208850
C72	C	1.083140	-0.264903	-0.285840
H73	H	1.124155	-0.227713	-0.124901
H74	H	1.234012	-0.223187	-0.220773
H75	H	1.128744	-0.158849	-0.223892
H76	H	1.100956	-0.321536	-0.270846
H77	H	0.995795	-0.257119	-0.273900
O78	O	0.894757	-0.249561	-0.389922
C79	C	0.868882	-0.130060	-0.331577
C80	C	0.926078	-0.179553	-0.408470
H81	H	0.894200	-0.073449	-0.346531
H82	H	0.780536	-0.137737	-0.343595
H83	H	0.889621	-0.142363	-0.247618
H84	H	0.905425	-0.167281	-0.492459
H85	H	1.014409	-0.171867	-0.396360
H86	H	1.637056	-0.248293	-1.221580
H87	H	1.409314	-0.850391	-0.615023
O88	O	1.775036	-0.159800	-0.908649
C89	C	1.795268	-0.064972	-0.778822
C90	C	1.718220	-0.114377	-0.842336
H91	H	1.749362	-0.028225	-0.725209
H92	H	1.848094	-0.097191	-0.729426
H93	H	1.845399	-0.032891	-0.834877
H94	H	1.668020	-0.146468	-0.786357
H95	H	1.665466	-0.082117	-0.891745
O96	O	1.094148	-0.516881	-0.805301
C97	C	1.260642	-0.556698	-0.867321
C98	C	1.203392	-0.507233	-0.790430
H99	H	1.348976	-0.548905	-0.855339
H100	H	1.235494	-0.613334	-0.852329
H101	H	1.239829	-0.544441	-0.951279
H102	H	1.224177	-0.519428	-0.706443
H103	H	1.228544	-0.450612	-0.805513
O104	O	0.877835	-0.516986	-0.805463
C105	C	0.883737	-0.606169	-0.944233
C106	C	0.947186	-0.556661	-0.867289
H107	H	0.939781	-0.638249	-0.994255
H108	H	0.830013	-0.642907	-0.898293
H109	H	0.834434	-0.573962	-0.997165
H110	H	0.996550	-0.588812	-0.814339
H111	H	1.000844	-0.519922	-0.913294
O112	O	0.775158	-0.428358	-0.667705
C113	C	0.614561	-0.477643	-0.744579
C114	C	0.735266	-0.477627	-0.744490
H115	H	0.582272	-0.517462	-0.806668
H116	H	0.583698	-0.492188	-0.664154
H117	H	0.588354	-0.423246	-0.763029
H118	H	0.761563	-0.532007	-0.726084
H119	H	0.766059	-0.463042	-0.824922
H120	H	1.601498	-0.605659	-0.422881
O121	O	1.775333	-0.159764	-1.124904
C122	C	1.914346	-0.070646	-1.107689
C123	C	1.837172	-0.120067	-1.050517
H124	H	1.964347	-0.038527	-1.047571
H125	H	1.967280	-0.102851	-1.161072
H126	H	1.868484	-0.033935	-1.156759
H127	H	1.882949	-0.156788	-1.001390
H128	H	1.784238	-0.087818	-0.997197
H129	H	1.369663	-0.419629	-1.132874
H130	H	1.593082	-0.738723	-0.431413
H131	H	1.644380	-0.937152	-0.380343
O132	O	1.646054	-1.075958	-0.378538
C133	C	1.695784	-1.098444	-0.201318
C134	C	1.624420	-1.058102	-0.272629
H135	H	1.678334	-1.084011	-0.115677
H136	H	1.680516	-1.157177	-0.216521
H137	H	1.781398	-1.083973	-0.218975
H138	H	1.538782	-1.072514	-0.255014
H139	H	1.639779	-0.999379	-0.257413
H140	H	1.392042	-1.070228	-0.632484
H141	H	1.349159	-0.738734	-0.675015
H142	H	1.636976	-0.248394	-0.823451
