data_functionalizedCrystal
_audit_creation_method	'MofGen! by Chris Wilmer'
_symmetry_space_group_name_H-M	'P1'
_symmetry_Int_Tables_number	1
_symmetry_cell_setting	triclinic
loop_
_symmetry_equiv_pos_as_xyz
  x,y,z
_cell_length_a	8.559649
_cell_length_b	14.853567
_cell_length_c	7.088929
_cell_angle_alpha	83.771294
_cell_angle_beta	95.325015
_cell_angle_gamma	76.706797
loop_
_atom_site_label
_atom_site_type_symbol
_atom_site_fract_x
_atom_site_fract_y
_atom_site_fract_z
O1	O	2.103683	-0.020180	-0.158959
O2	O	1.638582	0.026373	-0.158964
O3	O	1.883556	-0.129002	-0.158967
O4	O	1.858710	0.135195	-0.158956
O5	O	1.916294	-0.149808	0.159008
O6	O	1.671320	0.005566	0.159011
O7	O	2.136422	-0.040986	0.159016
Cu8	Cu	1.906860	-0.019609	0.188047
Cu9	Cu	1.868144	0.004996	-0.187995
O10	O	1.891448	0.114389	0.159019
C11	C	1.595429	0.019497	0.000023
C12	C	1.418072	0.029999	0.000021
C13	C	1.898798	-0.172915	0.000015
C14	C	1.895423	-0.272761	-0.000002
C15	C	1.735645	-0.674122	0.000033
C16	C	2.026680	-0.715759	0.000036
C17	C	2.029851	-0.621946	0.000024
C18	C	1.885917	-0.554217	0.000020
C19	C	1.738813	-0.580300	0.000028
C20	C	2.176955	-0.595857	0.000037
C21	C	2.180133	-0.502039	0.000027
C22	C	2.036196	-0.434307	0.000010
C23	C	1.889085	-0.460395	0.000015
C24	C	1.745151	-0.392666	0.000011
C25	C	1.598037	-0.418751	0.000002
C26	C	1.594876	-0.512568	0.000010
C27	C	2.039357	-0.340490	0.000002
C28	C	1.748318	-0.298844	0.000005
C29	C	2.179574	-0.034110	0.000025
C30	C	2.356930	-0.044611	0.000015
C31	C	1.876205	0.158302	0.000033
C32	C	1.879579	0.258149	0.000037
N33	N	1.934103	-0.036917	0.452535
N34	N	1.840913	0.022296	-0.452483
H35	H	1.334725	0.101914	0.000013
H36	H	1.744333	0.083658	0.465873
C37	C	2.033551	-0.203484	0.514501
C38	C	2.064499	-0.119760	0.562748
H39	H	2.114056	-0.254625	0.582536
H40	H	1.930233	-0.207956	0.547245
H41	H	2.035402	-0.204655	0.381002
H42	H	2.062636	-0.118585	0.696246
H43	H	2.167844	-0.115286	0.530017
H44	H	1.440266	-0.116520	0.000002
H45	H	2.159136	-0.319257	0.000022
C46	C	1.460316	-0.267111	-0.000000
C47	C	1.590098	-0.224399	0.000003
H48	H	1.362642	-0.221151	0.000010
H49	H	1.453721	-0.297311	-0.110881
H50	H	1.476561	-0.311828	0.110890
H51	H	1.573859	-0.179686	-0.110895
H52	H	1.596692	-0.194184	0.110895
H53	H	1.480848	-0.363595	0.000012
C54	C	1.329006	-0.495284	-0.163457
C55	C	1.433184	-0.541249	0.000009
H56	H	1.229191	-0.513000	-0.163456
H57	H	1.310284	-0.429726	-0.163452
H58	H	1.376883	-0.511969	-0.274325
H59	H	1.385312	-0.524559	0.110878
H60	H	1.451901	-0.606821	0.000022
C61	C	1.601545	-0.799438	0.000036
C62	C	1.573943	-0.702791	0.000033
H63	H	1.501715	-0.817135	0.000049
H64	H	1.649385	-0.816107	-0.110843
H65	H	1.672235	-0.830616	0.110928
H66	H	1.503262	-0.671612	-0.110866
H67	H	1.526078	-0.686112	0.110924
C68	C	2.175116	-0.834727	-0.163411
C69	C	2.184886	-0.790204	0.000042
H70	H	2.272796	-0.880685	-0.163410
H71	H	2.087067	-0.863687	-0.163387
H72	H	2.158888	-0.790003	-0.274288
H73	H	2.201103	-0.834927	0.110920
H74	H	2.272962	-0.761244	0.000035
H75	H	2.294140	-0.651009	0.000058
H76	H	2.299921	-0.480810	0.000032
