data_functionalizedCrystal
_audit_creation_method	'MofGen! by Chris Wilmer'
_symmetry_space_group_name_H-M	'P1'
_symmetry_Int_Tables_number	1
_symmetry_cell_setting	triclinic
loop_
_symmetry_equiv_pos_as_xyz
  x,y,z
_cell_length_a	21.295420
_cell_length_b	21.295417
_cell_length_c	19.120904
_cell_angle_alpha	92.408338
_cell_angle_beta	92.422904
_cell_angle_gamma	90.026289
loop_
_atom_site_label
_atom_site_type_symbol
_atom_site_fract_x
_atom_site_fract_y
_atom_site_fract_z
Zn1	Zn	0.947123	-0.265876	-0.397094
Zn2	Zn	0.951531	-0.366654	-0.279638
Zn3	Zn	0.846351	-0.261396	-0.279660
Zn4	Zn	0.841817	-0.371101	-0.397046
O5	O	0.896705	-0.316257	-0.338360
O6	O	1.035796	-0.279258	-0.381524
O7	O	0.941320	-0.348955	-0.181359
O8	O	0.859771	-0.173902	-0.295267
O9	O	1.039035	-0.353299	-0.295230
O10	O	0.933808	-0.177193	-0.381545
O11	O	0.864045	-0.271622	-0.181375
O12	O	0.757660	-0.275935	-0.295221
O13	O	0.852044	-0.360879	-0.495335
O14	O	0.754330	-0.356535	-0.381464
O15	O	0.929411	-0.283570	-0.495370
O16	O	0.936924	-0.455332	-0.295183
O17	O	0.856318	-0.458600	-0.381442
C18	C	0.733154	-0.316232	-0.338340
C19	C	0.663186	-0.316237	-0.338348
C20	C	0.162037	-0.277801	-0.383377
C21	C	0.227780	-0.277797	-0.383376
C22	C	0.262345	-0.316276	-0.338376
C23	C	0.231163	-0.354776	-0.293385
C24	C	0.165421	-0.354784	-0.293391
N25	N	0.367894	-0.318670	-0.276878
N26	N	0.430346	-0.318658	-0.276874
C27	C	0.460421	-0.316255	-0.338355
N28	N	0.425685	-0.313851	-0.399842
N29	N	0.363228	-0.313859	-0.399845
C30	C	0.333631	-0.316272	-0.338364
C31	C	0.562881	-0.277756	-0.383347
C32	C	0.628625	-0.277756	-0.383348
C33	C	0.632007	-0.354731	-0.293350
C34	C	0.566264	-0.354735	-0.293355
C35	C	0.531705	-0.316244	-0.338353
C36	C	0.896624	-0.479807	-0.338321
C37	C	0.896646	-0.549775	-0.338328
C38	C	0.938652	-0.580921	-0.293458
C39	C	0.938681	-0.646664	-0.293474
C40	C	0.896693	-0.681259	-0.338352
C41	C	0.854684	-0.650105	-0.383230
C42	C	0.854661	-0.584363	-0.383217
N43	N	0.841421	-0.784725	-0.343699
N44	N	0.841445	-0.847177	-0.343707
C45	C	0.896762	-0.879335	-0.338392
N46	N	0.952056	-0.846682	-0.333056
N47	N	0.952031	-0.784224	-0.333045
C48	C	0.896714	-0.752545	-0.338370
C49	C	0.938802	-0.981767	-0.293538
C50	C	0.938832	-1.047512	-0.293558
C51	C	0.854830	-1.050951	-0.383310
C52	C	0.854806	-0.985207	-0.383293
C53	C	0.896791	-0.950620	-0.338403
C54	C	1.060895	-0.316282	-0.338380
C55	C	1.130862	-0.316293	-0.338389
C56	C	0.889730	-0.323220	-0.521548
C57	C	0.886758	-0.326188	-0.599612
C58	C	0.896803	-0.152068	-0.338414
C59	C	0.896845	-0.082101	-0.338437
C60	C	0.925641	-0.287333	-0.636306
C61	C	0.922840	-0.290119	-0.709656
C62	C	0.881160	-0.331763	-0.746310
C63	C	0.842273	-0.370619	-0.709610
C64	C	0.845071	-0.367830	-0.636262
C65	C	0.870694	-0.342197	-0.967773
C66	C	0.867901	-0.344984	-1.041126
C67	C	0.948468	-0.264483	-1.041166
C68	C	0.951264	-0.261700	-0.967817
C69	C	0.912375	-0.300554	-0.931124
C70	C	0.878298	-0.334613	-0.821285
C71	C	0.915235	-0.297700	-0.856150
C72	C	0.903689	-0.309275	-0.155884
C73	C	0.906784	-0.306130	-0.077820
H74	H	0.534742	-0.246415	-0.419986
C75	C	0.961083	-0.251894	-0.815833
C76	C	0.935760	-0.200553	-0.765416
C77	C	0.981612	-0.154749	-0.725092
C78	C	1.052785	-0.160286	-0.735183
C79	C	1.078112	-0.211629	-0.785602
C80	C	1.032261	-0.257433	-0.825927
H81	H	0.883070	-0.196452	-0.757944
H82	H	0.962863	-0.116742	-0.687768
H83	H	1.086727	-0.126379	-0.705333
H84	H	1.130802	-0.215729	-0.793075
H85	H	1.051009	-0.295440	-0.863251
C86	C	0.971491	-0.241524	-0.595990
C87	C	0.946167	-0.190182	-0.545575
C88	C	0.992017	-0.144370	-0.505261
C89	C	1.063190	-0.149899	-0.515361
C90	C	1.088517	-0.201243	-0.565778
C91	C	1.042667	-0.247056	-0.606092
H92	H	0.893477	-0.186086	-0.538096
H93	H	0.973268	-0.106361	-0.467939
H94	H	1.097130	-0.115986	-0.485518
H95	H	1.141207	-0.205339	-0.573257
H96	H	1.061416	-0.285064	-0.643414
H97	H	0.844364	-0.368523	-0.851137
C98	C	0.531968	-0.397072	-0.243862
C99	C	0.569984	-0.439401	-0.194362
C100	C	0.535688	-0.481743	-0.144868
C101	C	0.463375	-0.481755	-0.144874
C102	C	0.425354	-0.439424	-0.194376
C103	C	0.459650	-0.397083	-0.243869
H104	H	0.623518	-0.439394	-0.194355
H105	H	0.563833	-0.513079	-0.108223
H106	H	0.437986	-0.513098	-0.108236
H107	H	0.371820	-0.439431	-0.194382
H108	H	0.431505	-0.365747	-0.280514
C109	C	0.808644	-1.088998	-0.432677
C110	C	0.810680	-1.082957	-0.512522
C111	C	0.764494	-1.121008	-0.561893
C112	C	0.716272	-1.165100	-0.531418
C113	C	0.714235	-1.171142	-0.451568
C114	C	0.760420	-1.133091	-0.402198
H115	H	0.846378	-1.050316	-0.535085
H116	H	0.766003	-1.116535	-0.621003
H117	H	0.682083	-1.193268	-0.567965
H118	H	0.678536	-1.203783	-0.429005
H119	H	0.758911	-1.137564	-0.343088
H120	H	0.133903	-0.246462	-0.420020
H121	H	0.820454	-0.559004	-0.419756
C122	C	0.262083	-0.235450	-0.432862
C123	C	0.224070	-0.193113	-0.482357
C124	C	0.258371	-0.150766	-0.531842
C125	C	0.330684	-0.150757	-0.531832
C126	C	0.368701	-0.193096	-0.482335
C127	C	0.334400	-0.235443	-0.432851
H128	H	0.170536	-0.193119	-0.482366
H129	H	0.230228	-0.119424	-0.568482
H130	H	0.356075	-0.119409	-0.568463
H131	H	0.422235	-0.193090	-0.482327
H132	H	0.362543	-0.266785	-0.396210
H133	H	0.820499	-0.678276	-0.419770
H134	H	0.259310	-0.386108	-0.256747
C135	C	0.822047	-0.390793	-1.081447
C136	C	0.818976	-0.393863	-1.162127
C137	C	0.773126	-0.439671	-1.202449
C138	C	0.730347	-0.482408	-1.162091
C139	C	0.733417	-0.479339	-1.081406
C140	C	0.779267	-0.433532	-1.041084
H141	H	0.850644	-0.362226	-1.192007
H142	H	0.770853	-0.441942	-1.262177
H143	H	0.696407	-0.516317	-1.191939
H144	H	0.701749	-0.510977	-1.051526
H145	H	0.781539	-0.431261	-0.981356
C146	C	0.984991	-0.943714	-0.244171
C147	C	0.959842	-0.896467	-0.188992
C148	C	1.006032	-0.858415	-0.139627
C149	C	1.077371	-0.867609	-0.145443
C150	C	1.102524	-0.914857	-0.200625
C151	C	1.056334	-0.952910	-0.249989
H152	H	0.907029	-0.889659	-0.184685
H153	H	0.987412	-0.823438	-0.098778
H154	H	1.111564	-0.839440	-0.108900
H155	H	1.155337	-0.921665	-0.204932
H156	H	1.074954	-0.987886	-0.290838
C157	C	0.131125	-0.397124	-0.243898
C158	C	0.143193	-0.388844	-0.164065
C159	C	0.108896	-0.431183	-0.114570
C160	C	0.062531	-0.481803	-0.144907
C161	C	0.050462	-0.490085	-0.224743
C162	C	0.084759	-0.447746	-0.274238
H163	H	0.177517	-0.351370	-0.141605
H164	H	0.117831	-0.425052	-0.055470
H165	H	0.037143	-0.513145	-0.108267
H166	H	0.016138	-0.527558	-0.247204
H167	H	0.075824	-0.453877	-0.333339
H168	H	0.972840	-0.552762	-0.256908
H169	H	0.973042	-1.072870	-0.257022
H170	H	0.820599	-0.959847	-0.419827
H171	H	0.654006	-0.246414	-0.419988
H172	H	0.808334	-0.404525	-0.739460
H173	H	0.660149	-0.386068	-0.256715
H174	H	0.972889	-0.672029	-0.256937
H175	H	0.954504	-0.258481	-0.739529
C176	C	0.997109	-0.215883	-0.927504
C177	C	0.971782	-0.164540	-0.877093
C178	C	1.017628	-0.118723	-0.836781
C179	C	1.088802	-0.124248	-0.846881
C180	C	1.114133	-0.175593	-0.897294
C181	C	1.068286	-0.221411	-0.937605
H182	H	0.919092	-0.160448	-0.869614
H183	H	0.998877	-0.080714	-0.799462
H184	H	1.122740	-0.090331	-0.817040
H185	H	1.166823	-0.179685	-0.904772
H186	H	1.087038	-0.259420	-0.974925
C187	C	0.991239	-0.221741	-1.081529
C188	C	0.988164	-0.224803	-1.162209
C189	C	1.030934	-0.182056	-1.202572
C190	C	1.076780	-0.136247	-1.162254
C191	C	1.079857	-0.133183	-1.081569
C192	C	1.037086	-0.175930	-1.041207
H193	H	0.954224	-0.258715	-1.192059
H194	H	1.028656	-0.184324	-1.262300
H195	H	1.108441	-0.104603	-1.192133
H196	H	1.113796	-0.099271	-1.051720
H197	H	1.039364	-0.173662	-0.981479
H198	H	0.839037	-0.373843	-0.937906
C199	C	0.802303	-0.410572	-0.595893
C200	C	0.730360	-0.405809	-0.605963
C201	C	0.687589	-0.448550	-0.565593
C202	C	0.716761	-0.496054	-0.515154
C203	C	0.788708	-0.500819	-0.505081
C204	C	0.831478	-0.458078	-0.545451
H205	H	0.708762	-0.370642	-0.643304
H206	H	0.634329	-0.445022	-0.573050
H207	H	0.685100	-0.527693	-0.485269
H208	H	0.810306	-0.535986	-0.467740
H209	H	0.884738	-0.461606	-0.537994
