data_functionalizedCrystal
_audit_creation_method	'MofGen! by Chris Wilmer'
_symmetry_space_group_name_H-M	'P1'
_symmetry_Int_Tables_number	1
_symmetry_cell_setting	triclinic
loop_
_symmetry_equiv_pos_as_xyz
  x,y,z
_cell_length_a	15.995350
_cell_length_b	8.559648
_cell_length_c	7.681481
_cell_angle_alpha	94.914083
_cell_angle_beta	95.743001
_cell_angle_gamma	103.364481
loop_
_atom_site_label
_atom_site_type_symbol
_atom_site_fract_x
_atom_site_fract_y
_atom_site_fract_z
O1	O	1.106631	-0.190894	0.146234
O2	O	0.861223	-0.216324	0.146265
O3	O	1.005550	0.028997	0.146290
O4	O	0.962304	-0.436215	0.146209
O5	O	0.987736	-0.001167	-0.146571
O6	O	0.843408	-0.246489	-0.146596
O7	O	1.088817	-0.221058	-0.146627
Zn8	Zn	0.963285	-0.238563	-0.193110
Zn9	Zn	0.986755	-0.198820	0.192747
O10	O	0.944490	-0.466380	-0.146652
C11	C	0.999921	0.073446	-0.000126
C12	C	1.009678	0.250831	-0.000083
C13	C	0.821189	-0.230354	-0.000161
C14	C	0.728442	-0.227201	-0.000147
C15	C	0.391420	-0.215884	-0.000182
C16	C	0.450051	-0.041236	-0.000804
C17	C	0.546579	-0.044320	-0.000133
C18	C	0.558621	-0.221497	-0.000165
C19	C	0.522164	-0.290448	0.167051
C20	C	0.425818	-0.286045	0.167179
C21	C	0.404989	-0.323958	-0.165859
C22	C	0.501803	-0.324143	-0.168057
C23	C	0.653114	-0.224678	-0.000150
C24	C	0.296927	-0.212706	-0.000185
C25	C	1.128851	-0.207028	-0.000197
C26	C	1.221599	-0.210180	-0.000200
C27	C	0.950122	0.489177	-0.000183
C28	C	0.940375	0.311809	-0.000068
N29	N	1.002775	-0.171684	0.456084
N30	N	0.947272	-0.265685	-0.456447
H31	H	0.873577	0.228311	-0.000080
C32	C	1.079307	-0.042025	0.557693
N33	N	1.136948	0.055635	0.634226
C34	C	1.099925	0.363638	-0.000084
N35	N	1.167898	0.448605	-0.000082
C36	C	0.581024	0.030526	-0.162058
N37	N	0.606966	0.086912	-0.284021
C38	C	0.421233	0.036427	-0.162801
N39	N	0.399520	0.094925	-0.284821
C40	C	0.575917	-0.192263	0.335205
N41	N	0.616403	-0.118299	0.461856
H42	H	0.586128	0.036245	0.119966
C43	C	0.439409	0.069286	0.160315
N44	N	0.431390	0.152529	0.281670
H45	H	0.419155	-0.210327	0.292201
C46	C	0.371802	-0.264420	-0.337091
N47	N	0.346809	-0.219557	-0.466054
H48	H	0.890621	-0.361641	0.468347
H49	H	0.385781	-0.413536	0.174745
H50	H	0.528295	-0.419975	0.173245
C51	C	0.533977	-0.256325	-0.335181
N52	N	0.558210	-0.205230	-0.461055
H53	H	0.364874	-0.452890	-0.167014
C54	C	0.510517	-0.500092	-0.181759
N55	N	0.517086	-0.632618	-0.192074
