data_functionalizedCrystal
_audit_creation_method	'MofGen! by Chris Wilmer'
_symmetry_space_group_name_H-M	'P1'
_symmetry_Int_Tables_number	1
_symmetry_cell_setting	triclinic
loop_
_symmetry_equiv_pos_as_xyz
  x,y,z
_cell_length_a	14.971486
_cell_length_b	15.995350
_cell_length_c	14.048226
_cell_angle_alpha	89.995798
_cell_angle_beta	89.998499
_cell_angle_gamma	83.553252
loop_
_atom_site_label
_atom_site_type_symbol
_atom_site_fract_x
_atom_site_fract_y
_atom_site_fract_z
O1	O	1.186822	0.109116	-0.079046
O2	O	0.926407	0.122183	-0.079072
O3	O	1.063733	-0.006231	-0.079057
O4	O	1.049496	0.237530	-0.079061
O5	O	1.063717	-0.006238	0.079264
O6	O	0.926391	0.122176	0.079250
O7	O	1.186806	0.109109	0.079275
Zn8	Zn	1.056596	0.115641	0.104399
Zn9	Zn	1.056617	0.115651	-0.104196
O10	O	1.049480	0.237523	0.079261
C11	C	0.893075	0.121595	0.000086
C12	C	0.793780	0.119844	0.000076
C13	C	0.736468	0.195284	0.000076
C14	C	0.643171	0.193633	0.000090
C15	C	0.607187	0.116542	0.000098
C16	C	0.664505	0.041097	0.000100
C17	C	0.757801	0.042748	0.000093
C18	C	0.470047	0.037660	0.000113
C19	C	0.376745	0.036008	0.000119
C20	C	0.355417	0.188545	0.000111
C21	C	0.448712	0.190197	0.000104
C22	C	0.506025	0.114751	0.000104
C23	C	1.063137	-0.037430	0.000101
C24	C	1.061372	-0.130382	0.000096
C25	C	1.055035	-0.468136	0.000098
C26	C	0.957234	-0.420800	-0.000266
C27	C	0.958999	-0.324108	0.000091
C28	C	1.058178	-0.300572	0.000097
C29	C	1.106408	-0.341606	0.090509
C30	C	1.103951	-0.438244	0.090584
C31	C	1.105990	-0.438591	-0.089456
C32	C	1.105967	-0.341646	-0.090651
C33	C	1.059960	-0.205873	0.000099
C34	C	1.053256	-0.562835	0.000103
C35	C	1.220138	0.109697	0.000116
C36	C	1.319433	0.111448	0.000119
C37	C	1.050077	0.268722	0.000100
C38	C	1.051841	0.361674	0.000099
N39	N	1.056587	0.115634	0.246760
N40	N	1.056633	0.115652	-0.246557
C41	C	1.117414	0.058795	0.296584
C42	C	1.117421	0.058795	0.396242
C43	C	1.056603	0.115637	0.446073
C44	C	0.995769	0.172478	0.396242
C45	C	0.995760	0.172474	0.296586
C46	C	0.995795	0.172484	0.603956
C47	C	0.995806	0.172490	0.703619
C48	C	1.117456	0.058805	0.703612
C49	C	1.117446	0.058801	0.603956
C50	C	1.056614	0.115643	0.554132
H51	H	0.516709	-0.023776	0.000115
O52	O	0.629509	-0.033769	-0.000061
C53	C	0.536510	-0.124132	-0.082047
C54	C	0.576098	-0.039325	-0.081990
H55	H	0.493303	-0.128645	-0.148269
H56	H	0.593464	-0.177803	-0.082108
H57	H	0.493403	-0.128708	-0.015757
H58	H	0.619194	-0.034667	-0.148268
H59	H	0.519101	0.014305	-0.081879
H60	H	0.946246	0.218758	0.436821
O61	O	0.813349	-0.030612	0.000045
C62	C	0.824663	-0.182082	0.000105
C63	C	0.761655	-0.099062	0.000133
H64	H	0.782894	-0.237445	0.000197
H65	H	0.868856	-0.185177	-0.066170
H66	H	0.868896	-0.185078	0.066344
H67	H	0.717365	-0.096010	-0.066061
H68	H	0.717523	-0.096002	0.066453
O69	O	0.913699	-0.290368	-0.077247
C70	C	0.829764	-0.316681	-0.218385
C71	C	0.881031	-0.354994	-0.130828
H72	H	0.803354	-0.368915	-0.261740
H73	H	0.770968	-0.270108	-0.194023
H74	H	0.877077	-0.282652	-0.264247
H75	H	0.833789	-0.389066	-0.084928
H76	H	0.939837	-0.401523	-0.155255
H77	H	0.918150	-0.439368	-0.065103
O78	O	0.936641	0.227770	0.248331
C79	C	0.815947	0.340496	0.258849
C80	C	0.882869	0.277934	0.313614
H81	H	0.772442	0.381058	0.311607
H82	H	0.854507	0.382442	0.212206
H83	H	0.771304	0.304256	0.212180
H84	H	0.927528	0.314106	0.360335
H85	H	0.844253	0.235989	0.360198
O86	O	0.910708	-0.444304	0.076540
C87	C	0.781660	-0.507297	0.132659
C88	C	0.834269	-0.480734	0.045593
H89	H	0.719838	-0.536741	0.107670
H90	H	0.826465	-0.555096	0.176562
H91	H	0.759700	-0.449657	0.178210
H92	H	0.856237	-0.538324	-0.000031
H93	H	0.789432	-0.432907	0.001761
H94	H	0.920818	-0.296284	0.065005
O95	O	1.062114	-0.460190	0.171264
C96	C	1.073953	-0.541342	0.316139
C97	C	1.121453	-0.516548	0.224821
H98	H	1.121902	-0.586924	0.359456
H99	H	1.052822	-0.482615	0.360243
H100	H	1.011938	-0.572886	0.296285
H101	H	1.183499	-0.485023	0.244589
H102	H	1.142518	-0.575303	0.180741
H103	H	1.166973	0.012520	0.563384
H104	H	0.478007	0.252971	0.000089
H105	H	1.175755	-0.470420	0.094691
O106	O	1.064027	-0.308983	-0.170424
C107	C	1.020018	-0.184400	-0.263141
C108	C	1.067562	-0.221291	-0.172779
H109	H	1.022844	-0.113494	-0.265065
H110	H	1.055074	-0.214438	-0.328768
H111	H	0.946874	-0.197958	-0.262454
H112	H	1.140708	-0.207744	-0.173373
H113	H	1.032437	-0.191251	-0.107192
O114	O	0.771271	0.270244	0.000110
C115	C	0.740258	0.421365	0.000052
C116	C	0.700729	0.336529	0.000032
H117	H	0.683245	0.474978	-0.000031
H118	H	0.783375	0.426006	0.066321
H119	H	0.783430	0.425910	-0.066194
H120	H	0.657517	0.331927	0.066233
H121	H	0.657664	0.331924	-0.066280
H122	H	1.166950	0.012513	0.436809
H123	H	1.179272	-0.327407	0.093875
H124	H	1.072896	-0.313261	0.157786
H125	H	0.946256	0.218769	0.563393
H126	H	0.308748	0.249976	0.000115
H127	H	1.074021	-0.459160	-0.157983
O128	O	0.587411	0.266862	-0.000045
C129	C	0.469740	0.353550	-0.082104
C130	C	0.532819	0.270573	-0.082056
H131	H	0.425599	0.356585	-0.148413
H132	H	0.425468	0.356611	-0.015890
H133	H	0.511508	0.408914	-0.082073
H134	H	0.491122	0.215162	-0.082121
H135	H	0.577094	0.267585	-0.148265
O136	O	1.192243	-0.323245	-0.097362
C137	C	1.330253	-0.340398	-0.187105
C138	C	1.232562	-0.361311	-0.179622
H139	H	1.362885	-0.371179	-0.253596
H140	H	1.330806	-0.269300	-0.191730
H141	H	1.369411	-0.365281	-0.121478
H142	H	1.193346	-0.336483	-0.245230
H143	H	1.232075	-0.432413	-0.174951
O144	O	1.191959	-0.476530	-0.090235
C145	C	1.288766	-0.607428	-0.094444
C146	C	1.191370	-0.564566	-0.093599
H147	H	1.288323	-0.678613	-0.097144
H148	H	1.325337	-0.585782	-0.159589
H149	H	1.324748	-0.589614	-0.027150
H150	H	1.155312	-0.582360	-0.160848
H151	H	1.154867	-0.586213	-0.028410
O152	O	1.176528	0.003497	0.248330
C153	C	1.297220	-0.109232	0.258853
C154	C	1.230310	-0.046661	0.313615
H155	H	1.340733	-0.149789	0.311612
H156	H	1.258650	-0.151181	0.212234
H157	H	1.341856	-0.072999	0.212159
H158	H	1.185658	-0.082826	0.360361
H159	H	1.268936	-0.004712	0.360174
H160	H	1.166988	0.012522	0.744185
O161	O	0.936598	0.227610	0.751990
C162	C	0.781072	0.276427	0.782477
C163	C	0.848029	0.213949	0.727651
H164	H	0.709450	0.265415	0.762804
H165	H	0.791459	0.266659	0.862271
H166	H	0.792747	0.343509	0.762893
H167	H	0.836395	0.146842	0.747155
H168	H	0.837626	0.223790	0.647870
O169	O	0.341890	-0.038926	0.000004
C170	C	0.331511	-0.169782	-0.082028
C171	C	0.371064	-0.084958	-0.082004
H172	H	0.355068	-0.207015	-0.148334
H173	H	0.355135	-0.207125	-0.015811
H174	H	0.254988	-0.157973	-0.081981
H175	H	0.447588	-0.096690	-0.082084
H176	H	0.347370	-0.047642	-0.148215
