data_functionalizedCrystal
_audit_creation_method	'MofGen! by Chris Wilmer'
_symmetry_space_group_name_H-M	'P1'
_symmetry_Int_Tables_number	1
_symmetry_cell_setting	triclinic
loop_
_symmetry_equiv_pos_as_xyz
  x,y,z
_cell_length_a	11.792241
_cell_length_b	16.109301
_cell_length_c	15.186229
_cell_angle_alpha	90.001705
_cell_angle_beta	89.995233
_cell_angle_gamma	96.172552
loop_
_atom_site_label
_atom_site_type_symbol
_atom_site_fract_x
_atom_site_fract_y
_atom_site_fract_z
O1	O	1.505912	-0.113949	-0.073214
O2	O	1.175468	-0.125693	-0.073220
O3	O	1.349768	0.001168	-0.073208
O4	O	1.331612	-0.240809	-0.073226
O5	O	1.349747	0.001160	0.073249
O6	O	1.175447	-0.125700	0.073237
O7	O	1.505892	-0.113956	0.073243
Zn8	Zn	1.340666	-0.119829	0.096493
Zn9	Zn	1.340693	-0.119820	-0.096470
O10	O	1.331592	-0.240816	0.073231
C11	C	1.133173	-0.124959	0.000008
C12	C	1.007179	-0.122751	0.000006
C13	C	1.548186	-0.114690	0.000013
C14	C	1.674181	-0.116898	0.000009
C15	C	1.349022	0.032142	0.000021
C16	C	1.346817	0.124448	0.000022
C17	C	1.904857	-0.120958	0.000009
C18	C	1.776492	-0.118702	0.000010
C19	C	1.332338	-0.271791	0.000000
C20	C	1.334542	-0.364097	-0.000007
N21	N	1.340656	-0.119835	0.228186
C22	C	1.445116	0.346258	0.000010
C23	C	1.443036	0.432988	0.000003
C24	C	1.236235	0.414087	0.000003
C25	C	1.238317	0.327358	0.000004
C26	C	1.342761	0.293446	0.000012
C27	C	1.338599	0.466905	0.000004
C28	C	1.336342	0.560942	-0.000004
C29	C	1.345018	0.199404	0.000018
N30	N	1.340712	-0.119807	-0.228163
C31	C	1.409491	-0.170587	0.453906
C32	C	1.409503	-0.170581	0.546096
C33	C	1.271875	-0.069049	0.546110
C34	C	1.271869	-0.069051	0.453922
C35	C	1.340675	-0.119825	0.407823
C36	C	1.340693	-0.119817	0.592200
C37	C	1.340706	-0.119810	0.692156
C38	C	1.340664	-0.119831	0.307860
H39	H	1.530161	0.318650	0.000015
N40	N	1.553433	0.489950	0.000000
H41	H	1.619909	0.455303	0.000006
H42	H	1.557065	0.526349	0.054293
H43	H	1.465541	-0.211916	0.583613
H44	H	1.151201	0.441709	-0.000002
N45	N	1.197666	-0.014293	0.595840
H46	H	1.142104	-0.050219	0.634092
H47	H	1.154147	0.017859	0.552602
H48	H	1.154962	0.284357	0.000002
H49	H	1.215831	-0.027710	0.416400
N50	N	1.483703	-0.225344	0.404182
H51	H	1.527301	-0.257499	0.447368
H52	H	1.539194	-0.189365	0.365928
