data_functionalizedCrystal
_audit_creation_method	'MofGen! by Chris Wilmer'
_symmetry_space_group_name_H-M	'P1'
_symmetry_Int_Tables_number	1
_symmetry_cell_setting	triclinic
loop_
_symmetry_equiv_pos_as_xyz
  x,y,z
_cell_length_a	17.077404
_cell_length_b	11.169416
_cell_length_c	17.077396
_cell_angle_alpha	89.977334
_cell_angle_beta	89.978556
_cell_angle_gamma	90.008588
loop_
_atom_site_label
_atom_site_type_symbol
_atom_site_fract_x
_atom_site_fract_y
_atom_site_fract_z
Zn1	Zn	1.200123	-0.477863	-0.443915
Zn2	Zn	1.700123	0.022137	0.056085
Zn3	Zn	1.200059	-0.678575	-0.312662
Zn4	Zn	1.700059	-0.178575	0.187338
Zn5	Zn	1.068855	-0.477898	-0.312659
Zn6	Zn	1.568855	0.022102	0.187341
Zn7	Zn	1.068852	-0.678497	-0.443882
Zn8	Zn	1.568852	-0.178497	0.056118
O9	O	1.134472	-0.578208	-0.378279
O10	O	1.634472	-0.078208	0.121721
O11	O	1.309961	-0.504506	-0.426520
O12	O	1.809961	-0.004506	0.073480
O13	O	1.182629	-0.652002	-0.202815
O14	O	1.682629	-0.152002	0.297185
O15	O	1.086296	-0.309944	-0.330083
O16	O	1.586296	0.190056	0.169917
O17	O	1.309914	-0.651968	-0.330089
O18	O	1.809914	-0.151968	0.169911
O19	O	1.182738	-0.309918	-0.426516
O20	O	1.682738	0.190082	0.073484
O21	O	1.086234	-0.504566	-0.202812
O22	O	1.586234	-0.004566	0.297188
O23	O	0.959008	-0.504490	-0.330050
O24	O	1.459008	-0.004490	0.169950
O25	O	1.086291	-0.651835	-0.553733
O26	O	1.586291	-0.151835	-0.053733
O27	O	0.959005	-0.651869	-0.426459
O28	O	1.459005	-0.151869	0.073541
O29	O	1.182735	-0.504430	-0.553758
O30	O	1.682735	-0.004430	-0.053758
O31	O	1.182626	-0.846514	-0.330057
O32	O	1.682626	-0.346514	0.169943
O33	O	1.086228	-0.846457	-0.426463
O34	O	1.586228	-0.346457	0.073537
C35	C	0.930524	-0.578176	-0.378251
C36	C	1.430524	-0.078176	0.121749
C37	C	0.843274	-0.578191	-0.378257
C38	C	1.343274	-0.078191	0.121743
C39	C	0.467482	-0.501596	-0.428600
C40	C	0.967482	-0.001596	0.071400
C41	C	0.549462	-0.501587	-0.428591
C42	C	1.049462	-0.001587	0.071409
C43	C	0.590426	-0.578234	-0.378299
C44	C	1.090426	-0.078234	0.121701
C45	C	0.549404	-0.654902	-0.328018
C46	C	1.049404	-0.154902	0.171982
C47	C	0.467425	-0.654916	-0.328031
C48	C	0.967425	-0.154916	0.171969
C49	C	0.720274	-0.654866	-0.327993
C50	C	1.220274	-0.154866	0.172007
C51	C	0.802259	-0.654851	-0.327979
C52	C	1.302259	-0.154851	0.172021
C53	C	0.802311	-0.501537	-0.428553
C54	C	1.302311	-0.001537	0.071447
C55	C	0.720332	-0.501551	-0.428566
C56	C	1.220332	-0.001551	0.071434
C57	C	0.679317	-0.578218	-0.378284
C58	C	1.179317	-0.078218	0.121716
C59	C	1.134441	-0.890033	-0.378273
C60	C	1.634441	-0.390033	0.121727
C61	C	1.134500	-1.023433	-0.378297
C62	C	1.634500	-0.523433	0.121703
C63	C	1.339216	-0.578242	-0.378309
C64	C	1.839216	-0.078242	0.121691
C65	C	1.426466	-0.578256	-0.378321
C66	C	1.926466	-0.078256	0.121679
C67	C	1.134520	-0.578120	-0.583024
C68	C	1.634520	-0.078120	-0.083024
C69	C	1.134540	-0.578082	-0.670274
C70	C	1.634540	-0.078082	-0.170274
C71	C	1.134525	-0.265166	-0.378303
C72	C	1.634525	0.234834	0.121697
C73	C	1.134547	-0.131766	-0.378313
C74	C	1.634547	0.368234	0.121687
C75	C	1.184760	-0.501322	-0.711278
C76	C	1.684760	-0.001322	-0.211278
C77	C	1.184770	-0.501282	-0.793258
C78	C	1.684770	-0.001282	-0.293258
C79	C	1.134562	-0.578009	-0.834233
C80	C	1.634562	-0.078009	-0.334233
C81	C	1.084336	-0.654773	-0.793223
C82	C	1.584336	-0.154773	-0.293223
C83	C	1.084323	-0.654806	-0.711244
C84	C	1.584323	-0.154806	-0.211244
C85	C	1.084368	-0.654701	-0.964093
C86	C	1.584368	-0.154701	-0.464093
C87	C	1.084381	-0.654669	-1.046078
C88	C	1.584381	-0.154669	-0.546078
C89	C	1.184814	-0.501177	-1.046108
C90	C	1.684814	-0.001177	-0.546108
C91	C	1.184801	-0.501210	-0.964129
C92	C	1.684801	-0.001210	-0.464129
C93	C	1.134576	-0.577975	-0.923124
C94	C	1.634576	-0.077975	-0.423124
C95	C	1.134470	-0.578210	-0.174332
C96	C	1.634470	-0.078210	0.325668
C97	C	1.134602	-0.577909	-0.087082
C98	C	1.634602	-0.077909	0.412918
H99	H	0.582763	-0.717314	-0.287073
H100	H	1.082763	-0.217314	0.212927
H101	H	1.043457	-0.717192	-0.930710
H102	H	1.543457	-0.217192	-0.430710
Br103	Br	0.411760	-0.758974	-0.259803
Br104	Br	0.911760	-0.258974	0.240197
H105	H	1.043421	-0.717299	-0.677860
H106	H	1.543421	-0.217299	-0.177860
H107	H	0.582853	-0.439167	-0.469536
H108	H	1.082853	0.060833	0.030464
Br109	Br	1.252909	-0.397196	-0.655677
Br110	Br	1.752909	0.102804	-0.155677
Br111	Br	1.252980	-0.397000	-1.101755
Br112	Br	1.752980	0.103000	-0.601755
Br113	Br	0.411896	-0.397560	-0.496851
Br114	Br	0.911896	0.102440	0.003149
H115	H	0.686982	-0.439134	-0.469515
H116	H	1.186982	0.060866	0.030485
Br117	Br	0.664611	-0.758934	-0.259764
Br118	Br	1.164611	-0.258934	0.240236
Br119	Br	0.857974	-0.397477	-0.496786
Br120	Br	1.357974	0.102523	0.003214
Br121	Br	1.252966	-0.397159	-0.848904
Br122	Br	1.752966	0.102841	-0.348904
Br123	Br	0.857852	-0.758907	-0.259747
Br124	Br	1.357852	-0.258907	0.240253
H125	H	1.225689	-0.438739	-0.930769
H126	H	1.725689	0.061261	-0.430769
H127	H	1.043453	-0.717241	-0.826591
H128	H	1.543453	-0.217241	-0.326591
Br129	Br	1.016234	-0.758788	-1.101687
Br130	Br	1.516234	-0.258788	-0.601687
