data_functionalizedCrystal
_audit_creation_method	'MofGen! by Chris Wilmer'
_symmetry_space_group_name_H-M	'P1'
_symmetry_Int_Tables_number	1
_symmetry_cell_setting	triclinic
loop_
_symmetry_equiv_pos_as_xyz
  x,y,z
_cell_length_a	15.297979
_cell_length_b	21.295417
_cell_length_c	15.296720
_cell_angle_alpha	80.360665
_cell_angle_beta	91.645807
_cell_angle_gamma	99.689164
loop_
_atom_site_label
_atom_site_type_symbol
_atom_site_fract_x
_atom_site_fract_y
_atom_site_fract_z
Zn1	Zn	1.253358	-0.187256	0.727349
Zn2	Zn	1.753358	0.312744	1.227349
Zn3	Zn	1.278607	-0.271799	0.580868
Zn4	Zn	1.778607	0.228201	1.080868
Zn5	Zn	1.132238	-0.181140	0.555515
Zn6	Zn	1.632238	0.318860	1.055515
Zn7	Zn	1.106829	-0.307090	0.701884
Zn8	Zn	1.606829	0.192910	1.201884
O9	O	1.192758	-0.236821	0.641404
O10	O	1.692758	0.263179	1.141404
O11	O	1.379286	-0.186261	0.729185
O12	O	1.879286	0.313739	1.229185
O13	O	1.280391	-0.242444	0.454946
O14	O	1.780391	0.257556	0.954946
O15	O	1.148372	-0.093860	0.578356
O16	O	1.648372	0.406140	1.078356
O17	O	1.397836	-0.248374	0.621566
O18	O	1.897836	0.251626	1.121566
O19	O	1.237358	-0.098353	0.704602
O20	O	1.737358	0.401647	1.204602
O21	O	1.172855	-0.175837	0.436319
O22	O	1.672855	0.324163	0.936319
O23	O	1.006289	-0.210058	0.553664
O24	O	1.506289	0.289942	1.053664
O25	O	1.105066	-0.308523	0.827821
O26	O	1.605066	0.191477	1.327821
O27	O	0.987621	-0.302592	0.661201
O28	O	1.487621	0.197408	1.161201
O29	O	1.212720	-0.220481	0.846530
O30	O	1.712720	0.279519	1.346530
O31	O	1.255753	-0.364572	0.596874
O32	O	1.755753	0.135428	1.096874
O33	O	1.129549	-0.390500	0.685785
O34	O	1.629549	0.109500	1.185785
C35	C	0.965172	-0.259491	0.601919
C36	C	1.465172	0.240509	1.101919
C37	C	0.867805	-0.269208	0.585048
C38	C	1.367805	0.230792	1.085048
C39	C	0.831735	-0.306035	0.521001
C40	C	1.331735	0.193965	1.021001
C41	C	0.740254	-0.315166	0.505154
C42	C	1.240254	0.184834	1.005154
C43	C	0.684835	-0.287467	0.553348
C44	C	1.184835	0.212533	1.053348
C45	C	0.720906	-0.250635	0.617392
C46	C	1.220906	0.249365	1.117392
C47	C	0.812395	-0.241507	0.633245
C48	C	1.312395	0.258493	1.133245
C49	C	0.665495	-0.222938	0.665592
C50	C	1.165495	0.277062	1.165592
C51	C	0.701566	-0.186106	0.729636
C52	C	1.201566	0.313894	1.229636
C53	C	0.793046	-0.176980	0.745486
C54	C	1.293046	0.323020	1.245486
C55	C	0.848465	-0.204679	0.697292
C56	C	1.348465	0.295321	1.197292
C57	C	0.574006	-0.232066	0.649739
C58	C	1.074006	0.267934	1.149739
C59	C	0.554666	-0.167538	0.761983
C60	C	1.054666	0.332462	1.261983
C61	C	0.646147	-0.158407	0.777830
C62	C	1.146147	0.341593	1.277830
C63	C	1.192654	-0.400378	0.641340
C64	C	1.692654	0.099622	1.141340
C65	C	1.192685	-0.470344	0.641356
C66	C	1.692685	0.029656	1.141356
C67	C	1.238981	-0.505502	0.707127
C68	C	1.738981	-0.005502	1.207127
C69	C	1.239008	-0.571245	0.707154
C70	C	1.739008	-0.071245	1.207154
C71	C	1.192751	-0.601823	0.641396
C72	C	1.692751	-0.101823	1.141396
C73	C	1.146445	-0.566658	0.575620
C74	C	1.646445	-0.066658	1.075620
C75	C	1.146411	-0.500918	0.575600
C76	C	1.646411	-0.000918	1.075600
N77	N	1.199411	-0.694892	0.563604
N78	N	1.699411	-0.194892	1.063604
N79	N	1.199447	-0.757341	0.563626
N80	N	1.699447	-0.257341	1.063626
C81	C	1.192846	-0.799893	0.641453
C82	C	1.692846	-0.299893	1.141453
N83	N	1.186225	-0.777635	0.719262
N84	N	1.686225	-0.277635	1.219262
N85	N	1.186194	-0.715179	0.719240
N86	N	1.686194	-0.215179	1.219240
C87	C	1.192781	-0.673107	0.641411
C88	C	1.692781	-0.173107	1.141411
C89	C	1.239174	-0.906337	0.707258
C90	C	1.739174	-0.406337	1.207258
C91	C	1.239195	-0.972082	0.707286
C92	C	1.739195	-0.472082	1.207286
C93	C	1.146638	-0.967492	0.575745
C94	C	1.646638	-0.467492	1.075745
C95	C	1.146611	-0.901751	0.575725
C96	C	1.646611	-0.401751	1.075725
C97	C	1.192884	-0.871177	0.641481
C98	C	1.692884	-0.371177	1.141481
C99	C	1.421233	-0.214063	0.681044
C100	C	1.921233	0.285937	1.181044
C101	C	1.518596	-0.204365	0.697936
C102	C	2.018596	0.295635	1.197936
C103	C	1.153243	-0.269121	0.869842
C104	C	1.653243	0.230879	1.369842
C105	C	1.136403	-0.282885	0.967189
C106	C	1.636403	0.217115	1.467189
C107	C	1.192883	-0.072626	0.641491
C108	C	1.692883	0.427374	1.141491
C109	C	1.192936	-0.002656	0.641528
C110	C	1.692936	0.497344	1.141528
C111	C	1.232170	-0.204597	0.413863
C112	C	1.732170	0.295403	0.913863
C113	C	1.249179	-0.190639	0.316547
C114	C	1.749179	0.309361	0.816547
C115	C	1.313143	-0.138334	1.280557
C116	C	1.813143	0.361666	1.780557
C117	C	1.328970	-0.125402	1.189096
C118	C	1.828970	0.374598	1.689096
C119	C	1.280829	-0.164771	1.133615
C120	C	1.780829	0.335229	1.633615
C121	C	1.216860	-0.217075	1.169603
C122	C	1.716860	0.282925	1.669603
C123	C	1.201036	-0.230011	1.261074
C124	C	1.701036	0.269989	1.761074
C125	C	1.168723	-0.256449	1.114132
C126	C	1.668723	0.243551	1.614132
C127	C	1.104753	-0.308752	1.150121
C128	C	1.604753	0.191248	1.650121
C129	C	1.088932	-0.321685	1.241583
C130	C	1.588932	0.178315	1.741583
C131	C	1.137073	-0.282316	1.297064
C132	C	1.637073	0.217684	1.797064
C133	C	1.184546	-0.243513	1.022661
C134	C	1.684546	0.256487	1.522661
C135	C	1.072440	-0.335190	1.003179
C136	C	1.572440	0.164810	1.503179
C137	C	1.056613	-0.348121	1.094640
C138	C	1.556613	0.151879	1.594640
H139	H	0.922958	-0.197245	0.710189
H140	H	1.422958	0.302755	1.210189
F141	F	1.097133	-0.463500	0.505596
F142	F	1.597133	0.036500	1.005596
H143	H	1.108916	-0.873122	0.522165
H144	H	1.608916	-0.373122	1.022165
H145	H	1.108968	-0.992390	0.522208
H146	H	1.608968	-0.492390	1.022208
F147	F	0.831431	-0.137789	0.813658
F148	F	1.331431	0.362211	1.313658
F149	F	0.495689	-0.138057	0.813280
F150	F	0.995689	0.361943	1.313280
F151	F	1.120235	-0.296078	1.394410
F152	F	1.620235	0.203922	1.894410
H153	H	0.675529	-0.128418	0.829975
H154	H	1.175529	0.371582	1.329975
F155	F	1.364376	-0.096445	1.339608
F156	F	1.864376	0.403555	1.839608
H157	H	1.276657	-0.480611	0.760671
H158	H	1.776657	0.019389	1.260671
H159	H	1.276699	-0.599878	0.760721
H160	H	1.776699	-0.099878	1.260721
H161	H	1.108780	-0.591560	0.522081
H162	H	1.608780	-0.091560	1.022081
F163	F	1.288418	-0.873796	0.777243
F164	F	1.788418	-0.373796	1.277243
H165	H	1.276894	-1.000707	0.760848
H166	H	1.776894	-0.500707	1.260848
H167	H	1.236630	-0.200926	0.993368
H168	H	1.736630	0.299074	1.493368
F169	F	1.297674	-0.151006	1.036273
F170	F	1.797674	0.348994	1.536273
H171	H	1.381056	-0.082818	1.159801
H172	H	1.881056	0.417182	1.659801
H173	H	1.036851	-0.364279	1.270883
H174	H	1.536851	0.135721	1.770883
F175	F	0.988534	-0.403786	1.132953
F176	F	1.488534	0.096214	1.632953
H177	H	0.610348	-0.294903	0.540441
H178	H	1.110348	0.205097	1.040441
H179	H	0.876864	-0.328587	0.481772
H180	H	1.376864	0.171413	0.981772
H181	H	1.033241	-0.367249	0.958006
H182	H	1.533241	0.132751	1.458006
H183	H	0.544646	-0.262056	0.597594
H184	H	1.044646	0.237944	1.097594
H185	H	0.710892	-0.345155	0.453010
H186	H	1.210892	0.154845	0.953010
