data_functionalizedCrystal
_audit_creation_method	'MofGen! by Chris Wilmer'
_symmetry_space_group_name_H-M	'P1'
_symmetry_Int_Tables_number	1
_symmetry_cell_setting	triclinic
loop_
_symmetry_equiv_pos_as_xyz
  x,y,z
_cell_length_a	19.077105
_cell_length_b	21.295417
_cell_length_c	19.076919
_cell_angle_alpha	92.266620
_cell_angle_beta	90.076224
_cell_angle_gamma	87.726672
loop_
_atom_site_label
_atom_site_type_symbol
_atom_site_fract_x
_atom_site_fract_y
_atom_site_fract_z
Zn1	Zn	1.058236	-0.304534	-0.440387
Zn2	Zn	1.558236	0.195466	0.059613
Zn3	Zn	1.062864	-0.405747	-0.322870
Zn4	Zn	1.562864	0.094253	0.177130
Zn5	Zn	0.945454	-0.296102	-0.318181
Zn6	Zn	1.445454	0.203898	0.181819
Zn7	Zn	0.940686	-0.405368	-0.435623
Zn8	Zn	1.440686	0.094632	0.064377
O9	O	1.001810	-0.352938	-0.379265
O10	O	1.501810	0.147062	0.120735
O11	O	1.157181	-0.321649	-0.428754
O12	O	1.657181	0.178351	0.071246
O13	O	1.051222	-0.387832	-0.223917
O14	O	1.551222	0.112168	0.276083
O15	O	0.960474	-0.209134	-0.334424
O16	O	1.460474	0.290866	0.165576
O17	O	1.160581	-0.396009	-0.342415
O18	O	1.660581	0.103991	0.157585
O19	O	1.043334	-0.215330	-0.424208
O20	O	1.543334	0.284670	0.075792
O21	O	0.964962	-0.307276	-0.220472
O22	O	1.464962	0.192724	0.279528
O23	O	0.846490	-0.306908	-0.329804
O24	O	1.346490	0.193092	0.170196
O25	O	0.952346	-0.395362	-0.534586
O26	O	1.452346	0.104638	-0.034586
O27	O	0.842987	-0.387185	-0.416088
O28	O	1.342987	0.112815	0.083912
O29	O	1.038710	-0.321280	-0.538086
O30	O	1.538710	0.178720	-0.038086
O31	O	1.046598	-0.493783	-0.337795
O32	O	1.546598	0.006217	0.162205
O33	O	0.956834	-0.493504	-0.420634
O34	O	1.456834	0.006496	0.079366
C35	C	0.819242	-0.346091	-0.371921
C36	C	1.319242	0.153909	0.128079
C37	C	0.741139	-0.343178	-0.368795
C38	C	1.241139	0.156822	0.131205
C39	C	1.001719	-0.516485	-0.379223
C40	C	1.501719	-0.016485	0.120777
C41	C	1.001744	-0.586454	-0.379231
C42	C	1.501744	-0.086454	0.120769
C43	C	0.702642	-0.383663	-0.412179
C44	C	1.202642	0.116337	0.087821
C45	C	0.629255	-0.380918	-0.409246
C46	C	1.129255	0.119082	0.090754
C47	C	0.594366	-0.337689	-0.362924
C48	C	1.094366	0.162311	0.137076
C49	C	0.632868	-0.297199	-0.319538
C50	C	1.132868	0.202801	0.180462
C51	C	0.706253	-0.299942	-0.322476
C52	C	1.206253	0.200058	0.177524
C53	C	0.375080	-0.324994	-0.349333
C54	C	0.875080	0.175006	0.150667
C55	C	0.301690	-0.322256	-0.346397
C56	C	0.801690	0.177744	0.153603
C57	C	0.298082	-0.405974	-0.436106
C58	C	0.798082	0.094026	0.063894
C59	C	0.371470	-0.408715	-0.439037
C60	C	0.871470	0.091285	0.060963
C61	C	0.409965	-0.368223	-0.395653
C62	C	0.909965	0.131777	0.104347
N63	N	0.519353	-0.334883	-0.359923
N64	N	1.019353	0.165117	0.140077
N65	N	0.484976	-0.371027	-0.398658
N66	N	0.984976	0.128973	0.101342
C67	C	1.048522	-0.619448	-0.336144
C68	C	1.548522	-0.119448	0.163856
C69	C	1.048554	-0.685192	-0.336161
C70	C	1.548554	-0.185192	0.163839
C71	C	1.001796	-0.717939	-0.379257
C72	C	1.501796	-0.217939	0.120743
C73	C	0.955015	-0.684937	-0.422352
C74	C	1.455015	-0.184937	0.077648
C75	C	0.954989	-0.619195	-0.422339
C76	C	1.454989	-0.119195	0.077661
N77	N	0.940111	-0.819089	-0.382141
N78	N	1.440111	-0.319089	0.117859
N79	N	0.940138	-0.881541	-0.382149
N80	N	1.440138	-0.381541	0.117851
C81	C	1.001873	-0.916018	-0.379300
C82	C	1.501873	-0.416018	0.120700
N83	N	1.063583	-0.885683	-0.376429
N84	N	1.563583	-0.385683	0.123571
N85	N	1.063555	-0.823224	-0.376417
N86	N	1.563555	-0.323224	0.123583
C87	C	1.001820	-0.789226	-0.379276
C88	C	1.501820	-0.289226	0.120724
C89	C	1.048690	-1.020300	-0.336230
C90	C	1.548690	-0.520300	0.163770
C91	C	1.048724	-1.086046	-0.336252
C92	C	1.548724	-0.586046	0.163748
C93	C	0.955178	-1.085789	-0.422439
C94	C	1.455178	-0.585789	0.077561
C95	C	0.955151	-1.020045	-0.422421
C96	C	1.455151	-0.520045	0.077579
C97	C	1.001906	-0.987304	-0.379313
C98	C	1.501906	-0.487304	0.120687
C99	C	1.185090	-0.359812	-0.386639
C100	C	1.685090	0.140188	0.113361
C101	C	1.263193	-0.362741	-0.389782
C102	C	1.763193	0.137259	0.110218
C103	C	0.994480	-0.359220	-0.562545
C104	C	1.494480	0.140780	-0.062545
C105	C	0.991356	-0.361897	-0.640648
C106	C	1.491356	0.138103	-0.140648
C107	C	1.001919	-0.188754	-0.379324
C108	C	1.501919	0.311246	0.120676
C109	C	1.001966	-0.118788	-0.379349
C110	C	1.501966	0.381212	0.120651
C111	C	1.034851	-0.324586	-0.679164
C112	C	1.534851	0.175414	-0.179164
C113	C	1.031907	-0.327098	-0.752550
C114	C	1.531907	0.172902	-0.252550
C115	C	0.985472	-0.366925	-0.787418
C116	C	1.485472	0.133075	-0.287418
C117	C	0.941972	-0.404238	-0.748896
C118	C	1.441972	0.095762	-0.248896
C119	C	0.944913	-0.401722	-0.675512
C120	C	1.444913	0.098278	-0.175512
C121	C	0.971853	-0.378584	-1.006698
C122	C	1.471853	0.121416	-0.506698
C123	C	0.968917	-0.381099	-1.080087
C124	C	1.468917	0.118901	-0.580087
C125	C	1.058852	-0.303958	-1.083736
C126	C	1.558852	0.196042	-0.583736
C127	C	1.061791	-0.301448	-1.010350
C128	C	1.561791	0.198552	-0.510350
C129	C	1.018289	-0.338758	-0.971835
C130	C	1.518289	0.161242	-0.471835
N131	N	0.982464	-0.369496	-0.862429
N132	N	1.482464	0.130504	-0.362429
N133	N	1.021294	-0.336183	-0.896824
N134	N	1.521294	0.163817	-0.396824
C135	C	1.009152	-0.346637	-0.196700
C136	C	1.509152	0.153363	0.303300
C137	C	1.012412	-0.343787	-0.118604
C138	C	1.512412	0.156213	0.381396
H139	H	0.731044	-0.418867	-0.449897
H140	H	1.231044	0.081133	0.050103
H141	H	0.931101	-0.413532	-1.108474
H142	H	1.431101	0.086468	-0.608474
H143	H	1.072666	-0.292156	-0.650780
H144	H	1.572666	0.207844	-0.150780
H145	H	0.917110	-1.112451	-0.457532
H146	H	1.417110	-0.612451	0.042468
O147	O	1.101204	-0.267782	-1.121122
O148	O	1.601204	0.232218	-0.621122
C149	C	1.219849	-0.242446	-1.148370
C150	C	1.719849	0.257554	-0.648370
C151	C	1.171968	-0.283470	-1.106003
C152	C	1.671968	0.216530	-0.606003
H153	H	1.277071	-0.255105	-1.136150
H154	H	1.777071	0.244895	-0.636150
H155	H	1.209833	-0.251088	-1.206820
H156	H	1.709833	0.248912	-0.706820
H157	H	1.208081	-0.190735	-1.133467
H158	H	1.708081	0.309265	-0.633467
H159	H	1.183707	-0.335194	-1.120846
H160	H	1.683707	0.164806	-0.620846
H161	H	1.181992	-0.274775	-1.047563
H162	H	1.681992	0.225225	-0.547563
O163	O	0.896803	-0.442941	-0.782653
O164	O	1.396803	0.057059	-0.282653
C165	C	0.807945	-0.519219	-0.771284
C166	C	1.307945	-0.019219	-0.271284
C167	C	0.859053	-0.475402	-0.732968
C168	C	1.359053	0.024598	-0.232968
H169	H	0.777421	-0.545486	-0.731131
H170	H	1.277421	-0.045486	-0.231131
H171	H	0.769799	-0.490149	-0.804152
H172	H	1.269799	0.009851	-0.304152
H173	H	0.838819	-0.554496	-0.806946
H174	H	1.338819	-0.054496	-0.306946
H175	H	0.828236	-0.440118	-0.697270
H176	H	1.328236	0.059882	-0.197270
H177	H	0.897199	-0.504513	-0.700144
H178	H	1.397199	-0.004513	-0.200144
H179	H	1.086820	-1.112908	-0.301168
H180	H	1.586820	-0.612908	0.198832
H181	H	0.916895	-0.592330	-0.457426
H182	H	1.416895	-0.092330	0.042574
H183	H	1.086764	-0.993641	-0.301131
H184	H	1.586764	-0.493641	0.198869
O185	O	0.909636	-0.988086	-0.464288
O186	O	1.409636	-0.488086	0.035712
C187	C	0.816881	-0.994774	-0.549802
C188	C	1.316881	-0.494774	-0.049802
C189	C	0.868380	-1.031044	-0.502406
C190	C	1.368380	-0.531044	-0.002406
H191	H	0.783522	-1.029490	-0.580643
H192	H	1.283522	-0.529490	-0.080643
H193	H	0.781397	-0.961574	-0.516057
H194	H	1.281397	-0.461574	-0.016057
H195	H	0.847640	-0.966401	-0.587831
H196	H	1.347640	-0.466401	-0.087831
H197	H	0.837678	-1.059452	-0.464369
H198	H	1.337678	-0.559452	0.035631
H199	H	0.903864	-1.064205	-0.536194
H200	H	1.403864	-0.564205	-0.036194
O201	O	0.599088	-0.255151	-0.274523
O202	O	1.099088	0.244849	0.225477
C203	C	0.610418	-0.172432	-0.185821
C204	C	1.110418	0.327568	0.314179
C205	C	0.648759	-0.220011	-0.236784
C206	C	1.148759	0.279989	0.263216
H207	H	0.650561	-0.144018	-0.155285
H208	H	1.150561	0.355982	0.344715
H209	H	0.574811	-0.139344	-0.216741
H210	H	1.074811	0.360656	0.283259
H211	H	0.577492	-0.198747	-0.147672
H212	H	1.077492	0.301253	0.352328
H213	H	0.681724	-0.193748	-0.274944
H214	H	1.181724	0.306252	0.225056
H215	H	0.684324	-0.253097	-0.205818
H216	H	1.184324	0.246903	0.294182
O217	O	1.106819	-0.262654	-0.976524
O218	O	1.606819	0.237346	-0.476524
C219	C	1.141909	-0.156084	-0.955561
C220	C	1.641909	0.343916	-0.455561
C221	C	1.090858	-0.199949	-0.993888
C222	C	1.590858	0.300051	-0.493888
H223	H	1.129032	-0.105379	-0.969597
H224	H	1.629032	0.394621	-0.469597
H225	H	1.136550	-0.160625	-0.896483
H226	H	1.636550	0.339375	-0.396483
H227	H	1.197979	-0.169786	-0.972266
H228	H	1.697979	0.330214	-0.472266
H229	H	1.034767	-0.186276	-0.977240
H230	H	1.534767	0.313724	-0.477240
H231	H	1.096278	-0.195402	-1.052958
H232	H	1.596278	0.304598	-0.552958
O233	O	0.591969	-0.420317	-0.451408
O234	O	1.091969	0.079683	0.048592
C235	C	0.596135	-0.503633	-0.540707
C236	C	1.096135	-0.003633	-0.040707
C237	C	0.638448	-0.459056	-0.492988
C238	C	1.138448	0.040944	0.007012
H239	H	0.633694	-0.534956	-0.574348
H240	H	1.133694	-0.034956	-0.074348
H241	H	0.563068	-0.534150	-0.507028
H242	H	1.063068	-0.034150	-0.007028
H243	H	0.560308	-0.474760	-0.576111
H244	H	1.060308	0.025240	-0.076111
H245	H	0.674313	-0.487880	-0.457577
H246	H	1.174313	0.012120	0.042423
H247	H	0.671469	-0.428538	-0.526710
H248	H	1.171469	0.071462	-0.026710
O249	O	1.074183	-0.290943	-0.790048
O250	O	1.574183	0.209057	-0.290048
C251	C	1.165753	-0.288866	-0.876712
C252	C	1.665753	0.211134	-0.376712
C253	C	1.117911	-0.329890	-0.834301
C254	C	1.617911	0.170110	-0.334301
H255	H	1.201130	-0.320338	-0.912490
H256	H	1.701130	0.179662	-0.412490
H257	H	1.132165	-0.255935	-0.909823
H258	H	1.632165	0.244065	-0.409823
H259	H	1.199419	-0.259951	-0.839177
H260	H	1.699419	0.240049	-0.339177
H261	H	1.084237	-0.358844	-0.871785
H262	H	1.584237	0.141156	-0.371785
H263	H	1.151540	-0.362781	-0.801181
H264	H	1.651540	0.137219	-0.301181
O265	O	0.929561	-0.414880	-0.969397
O266	O	1.429561	0.085120	-0.469397
C267	C	0.839993	-0.491606	-0.973527
C268	C	1.339993	0.008394	-0.473527
C269	C	0.887870	-0.450551	-1.015860
C270	C	1.387870	0.049449	-0.515860
H271	H	0.806263	-0.520447	-1.011074
H272	H	1.306263	-0.020447	-0.511074
H273	H	0.873555	-0.524599	-0.940465
H274	H	1.373555	-0.024599	-0.440465
H275	H	0.804681	-0.460127	-0.937694
H276	H	1.304681	0.039873	-0.437694
H277	H	0.923191	-0.481981	-1.051732
H278	H	1.423191	0.018019	-0.551732
H279	H	0.854266	-0.417553	-1.048876
H280	H	1.354266	0.082447	-0.548876
H281	H	0.909487	-0.432098	-0.644152
H282	H	1.409487	0.067902	-0.144152
H283	H	0.273285	-0.287047	-0.308681
H284	H	0.773285	0.212953	0.191319
O285	O	0.405248	-0.450726	-0.484096
O286	O	0.905248	0.049274	0.015904
C287	C	0.393924	-0.533501	-0.572733
C288	C	0.893924	-0.033501	-0.072733
C289	C	0.355581	-0.485941	-0.521750
C290	C	0.855581	0.014059	-0.021750
H291	H	0.353787	-0.561995	-0.603179
H292	H	0.853787	-0.061995	-0.103179
H293	H	0.426813	-0.507231	-0.610957
H294	H	0.926813	-0.007231	-0.110957
H295	H	0.429568	-0.566518	-0.541764
H296	H	0.929568	-0.066518	-0.041764
H297	H	0.319901	-0.452912	-0.552661
H298	H	0.819901	0.047088	-0.052661
H299	H	0.322737	-0.512252	-0.483525
H300	H	0.822737	-0.012252	0.016475
H301	H	1.086649	-0.712061	-0.301075
H302	H	1.586649	-0.212061	0.198925
O303	O	0.412362	-0.285635	-0.307122
O304	O	0.912362	0.214365	0.192878
C305	C	0.408187	-0.202278	-0.217870
C306	C	0.908187	0.297722	0.282130
C307	C	0.365877	-0.246829	-0.265623
C308	C	0.865877	0.253171	0.234377
H309	H	0.370622	-0.170883	-0.184316
H310	H	0.870622	0.329117	0.315684
H311	H	0.443981	-0.231109	-0.182392
H312	H	0.943981	0.268891	0.317608
H313	H	0.441289	-0.171828	-0.251591
H314	H	0.941289	0.328172	0.248409
H315	H	0.332735	-0.277289	-0.231957
H316	H	0.832735	0.222711	0.268043
H317	H	0.330127	-0.217960	-0.301105
H318	H	0.830127	0.282040	0.198895
H319	H	0.266732	-0.438939	-0.471428
H320	H	0.766732	0.061061	0.028572
H321	H	0.737596	-0.266971	-0.287151
H322	H	1.237596	0.233029	0.212849
H323	H	0.916945	-0.711604	-0.457442
H324	H	1.416945	-0.211604	0.042558
O325	O	1.094013	-0.587744	-0.294258
O326	O	1.594013	-0.087744	0.205742
C327	C	1.186772	-0.594938	-0.208747
C328	C	1.686772	-0.094938	0.291253
C329	C	1.135301	-0.630923	-0.256158
C330	C	1.635301	-0.130923	0.243842
H331	H	1.220157	-0.629831	-0.177920
H332	H	1.720157	-0.129831	0.322080
H333	H	1.222234	-0.566618	-0.242480
H334	H	1.722234	-0.066618	0.257520
H335	H	1.155991	-0.561714	-0.170706
H336	H	1.655991	-0.061714	0.329294
H337	H	1.166025	-0.664179	-0.294207
H338	H	1.666025	-0.164179	0.205793
H339	H	1.099839	-0.659201	-0.222382
H340	H	1.599839	-0.159201	0.277618
