data_functionalizedCrystal
_audit_creation_method	'MofGen! by Chris Wilmer'
_symmetry_space_group_name_H-M	'P1'
_symmetry_Int_Tables_number	1
_symmetry_cell_setting	triclinic
loop_
_symmetry_equiv_pos_as_xyz
  x,y,z
_cell_length_a	17.699083
_cell_length_b	10.654550
_cell_length_c	16.776229
_cell_angle_alpha	89.994543
_cell_angle_beta	89.998886
_cell_angle_gamma	83.883959
loop_
_atom_site_label
_atom_site_type_symbol
_atom_site_fract_x
_atom_site_fract_y
_atom_site_fract_z
O1	O	1.005088	0.158809	-0.066174
O2	O	0.784841	0.179470	-0.066200
O3	O	0.900029	-0.013689	-0.066184
O4	O	0.889901	0.351967	-0.066191
O5	O	0.900013	-0.013700	0.066393
O6	O	0.784826	0.179458	0.066376
O7	O	1.005073	0.158797	0.066402
Zn8	Zn	0.894947	0.169126	0.087439
Zn9	Zn	0.894967	0.169141	-0.087237
O10	O	0.889885	0.351955	0.066386
C11	C	0.756632	0.178724	0.000085
C12	C	0.672599	0.176503	0.000075
C13	C	0.624699	0.289883	0.000073
C14	C	0.545743	0.287788	0.000083
C15	C	0.514688	0.172313	0.000090
C16	C	0.562594	0.058924	0.000094
C17	C	0.641549	0.061020	0.000090
C18	C	0.244177	0.050470	0.000114
C19	C	0.165216	0.048383	0.000116
C20	C	0.148371	0.277239	0.000108
C21	C	0.227326	0.279334	0.000103
C22	C	0.275225	0.165946	0.000112
C23	C	0.360839	0.168219	0.000102
C24	C	0.429076	0.170039	0.000094
C25	C	0.899277	-0.060479	0.000103
C26	C	0.897052	-0.199884	0.000100
C27	C	0.964873	-0.280557	0.000111
C28	C	0.962778	-0.411541	0.000105
C29	C	0.825036	-0.381166	0.000082
C30	C	0.827132	-0.250185	0.000082
C31	C	1.034794	-0.230256	0.000129
C32	C	1.102620	-0.310930	0.000141
C33	C	1.100525	-0.441914	0.000135
C34	C	1.030603	-0.492224	0.000118
C35	C	1.033282	0.159543	0.000115
C36	C	1.117314	0.161764	0.000120
C37	C	0.890637	0.398746	0.000097
C38	C	0.892861	0.538151	0.000095
N39	N	0.894938	0.169114	0.206650
N40	N	0.894981	0.169143	-0.206448
C41	C	0.945959	0.083619	0.248374
C42	C	0.945963	0.083618	0.331826
C43	C	0.894950	0.169119	0.373553
C44	C	0.843923	0.254619	0.331822
C45	C	0.843916	0.254613	0.248372
C46	C	0.843951	0.254643	0.668370
C47	C	0.843964	0.254645	0.751826
C48	C	0.945998	0.083648	0.751824
C49	C	0.945991	0.083642	0.668374
C50	C	0.894962	0.169137	0.626651
C51	C	0.894957	0.169135	0.536162
C52	C	0.894958	0.169128	0.464040
H53	H	0.506745	0.380114	0.000081
O54	O	0.788902	0.346848	0.376821
H55	H	0.797484	0.332501	0.441860
O56	O	0.260823	0.403881	0.000108
H57	H	0.214249	0.482372	0.000119
O58	O	0.788935	0.346870	0.796830
H59	H	0.797522	0.332518	0.861867
H60	H	0.802369	0.324230	0.214401
H61	H	0.109361	0.369564	0.000105
O62	O	0.753981	-0.163169	0.000076
H63	H	0.767187	-0.063639	0.000072
H64	H	0.283168	-0.041858	0.000122
O65	O	0.658194	0.414432	0.000074
H66	H	0.611617	0.492920	0.000084
H67	H	0.139935	-0.045657	0.000123
H68	H	0.537303	-0.035099	0.000111
H69	H	0.680549	-0.031306	0.000091
O70	O	1.028341	-0.633501	0.000116
H71	H	1.057530	-0.674589	-0.053913
H72	H	1.036507	-0.123604	0.000137
O73	O	1.001008	-0.008583	0.623366
H74	H	1.036482	-0.068045	0.666401
O75	O	1.178033	-0.256681	0.000151
H76	H	1.182282	-0.197753	0.054193
O77	O	0.749624	-0.435421	0.000079
H78	H	0.759561	-0.540054	0.000091
O79	O	1.000978	-0.008606	0.203370
H80	H	1.036451	-0.068066	0.246407
H81	H	1.155752	-0.507596	0.000136
H82	H	0.987508	0.014000	0.365798
H83	H	0.987546	0.014030	0.785804
H84	H	0.802403	0.324258	0.634405
