data_functionalizedCrystal
_audit_creation_method	'MofGen! by Chris Wilmer'
_symmetry_space_group_name_H-M	'P1'
_symmetry_Int_Tables_number	1
_symmetry_cell_setting	triclinic
loop_
_symmetry_equiv_pos_as_xyz
  x,y,z
_cell_length_a	10.654558
_cell_length_b	10.654551
_cell_length_c	17.766277
_cell_angle_alpha	89.996514
_cell_angle_beta	89.991280
_cell_angle_gamma	84.486839
loop_
_atom_site_label
_atom_site_type_symbol
_atom_site_fract_x
_atom_site_fract_y
_atom_site_fract_z
O1	O	1.667844	0.176451	-0.062579
O2	O	1.302367	0.193246	-0.062582
O3	O	1.493508	0.002109	-0.062581
O4	O	1.476704	0.367587	-0.062580
O5	O	1.493474	0.002099	0.062608
O6	O	1.302333	0.193236	0.062607
O7	O	1.667810	0.176440	0.062610
Cu8	Cu	1.485069	0.184837	0.074039
Cu9	Cu	1.485109	0.184849	-0.074011
O10	O	1.476670	0.367577	0.062609
C11	C	1.255553	0.192005	0.000012
C12	C	1.116110	0.188309	0.000010
C13	C	0.919590	0.183119	-0.068230
C14	C	1.050612	0.186581	-0.068231
C15	C	1.050579	0.186563	0.068257
C16	C	0.919560	0.183092	0.068257
C17	C	0.854098	0.181404	-0.136476
C18	C	0.919619	0.183147	-0.204722
C19	C	1.050642	0.186609	-0.204723
C20	C	1.116143	0.188327	-0.136477
C21	C	1.492257	-0.044694	0.000012
C22	C	1.488565	-0.184137	0.000007
C23	C	1.486851	-0.249644	-0.068232
C24	C	1.483371	-0.380664	-0.068229
C25	C	1.483323	-0.380661	0.068259
C26	C	1.486794	-0.249642	0.068255
C27	C	1.488621	-0.184139	-0.136480
C28	C	1.486909	-0.249646	-0.204724
C29	C	1.483429	-0.380667	-0.204721
C30	C	1.481661	-0.446180	-0.136473
C31	C	1.714625	0.177681	0.000015
C32	C	1.854068	0.181377	0.000011
C33	C	1.477921	0.414380	0.000014
C34	C	1.481613	0.553823	0.000015
N35	N	1.485050	0.184828	0.178169
N36	N	1.485138	0.184848	-0.178141
C37	C	1.569715	0.100235	0.217557
C38	C	1.569722	0.100229	0.296359
C39	C	1.485076	0.184838	0.335770
C40	C	1.400395	0.269438	0.296373
C41	C	1.400382	0.269432	0.217573
C42	C	1.469617	0.299076	0.460608
C43	C	1.469639	0.299083	0.539407
C44	C	1.485110	0.184854	0.578816
C45	C	1.500585	0.070613	0.539417
C46	C	1.500572	0.070608	0.460617
C47	C	1.485081	0.184853	0.421216
C48	C	1.569788	0.100247	0.703650
C49	C	1.569786	0.100240	0.782453
C50	C	1.400465	0.269459	0.782466
C51	C	1.400461	0.269456	0.703664
C52	C	1.485129	0.184851	0.664261
H53	H	1.222831	0.191139	-0.136483
H54	H	1.103920	0.187964	0.123819
H55	H	1.488336	-0.196295	-0.260289
N56	N	0.848885	0.181206	0.141859
H57	H	0.910360	0.181957	0.185089
H58	H	0.785618	0.257932	0.145061
N59	N	1.309072	0.360691	0.175087
H60	H	1.321913	0.347852	0.119188
H61	H	1.219856	0.345352	0.188872
N62	N	1.309095	0.360687	0.338880
H63	H	1.357570	0.416750	0.371561
H64	H	1.255474	0.414193	0.301921
N65	N	1.309156	0.360707	0.824963
H66	H	1.357623	0.416771	0.857649
H67	H	1.255542	0.414212	0.788001
N68	N	1.492382	-0.042827	-0.136483
H69	H	1.493244	-0.011268	-0.190070
H70	H	1.415487	-0.001859	-0.109661
N71	N	1.488660	-0.178971	0.141850
H72	H	1.412384	-0.115109	0.144887
H73	H	1.487071	-0.240427	0.185045
H74	H	1.482021	-0.433997	-0.260289
N75	N	1.481439	-0.451316	0.141865
H76	H	1.402288	-0.496184	0.144911
H77	H	1.557774	-0.515105	0.144859
N78	N	0.712783	0.177667	-0.136474
H79	H	0.681234	0.176842	-0.190060
H80	H	0.690820	0.099108	-0.109650
H81	H	1.478808	-0.552864	-0.136476
H82	H	1.103988	0.188017	-0.260292
H83	H	1.638669	0.031341	0.328434
H84	H	0.866281	0.181740	-0.260285
N85	N	1.517257	-0.052596	0.418121
H86	H	1.527062	-0.124964	0.455038
H87	H	1.440893	-0.060639	0.385439
N88	N	1.661027	0.008983	0.175058
H89	H	1.714662	-0.044609	0.211972
H90	H	1.612463	-0.046994	0.142376
H91	H	1.513182	-0.022403	0.571503
H92	H	1.638726	0.031353	0.671566
N93	N	1.661131	0.009011	0.824934
H94	H	1.645926	-0.080271	0.811228
H95	H	1.750333	0.024452	0.811180
N96	N	1.309142	0.360695	0.661176
H97	H	1.255517	0.414294	0.698097
H98	H	1.357691	0.416667	0.628468
H99	H	1.457047	0.392104	0.571479
N100	N	1.452932	0.422287	0.418105
H101	H	1.443146	0.494656	0.455019
H102	H	1.529288	0.430323	0.385401
