data_functionalizedCrystal
_audit_creation_method	'MofGen! by Chris Wilmer'
_symmetry_space_group_name_H-M	'P1'
_symmetry_Int_Tables_number	1
_symmetry_cell_setting	triclinic
loop_
_symmetry_equiv_pos_as_xyz
  x,y,z
_cell_length_a	21.606444
_cell_length_b	21.606444
_cell_length_c	21.606444
_cell_angle_alpha	90.004592
_cell_angle_beta	59.999490
_cell_angle_gamma	60.013249
loop_
_atom_site_label
_atom_site_type_symbol
_atom_site_fract_x
_atom_site_fract_y
_atom_site_fract_z
Zr1	Zr	0.677361	0.596390	-0.081144
O2	O	0.806462	0.497593	-0.179965
O3	O	0.548262	0.626654	-0.050858
O4	O	0.677366	0.626679	-0.179970
O5	O	0.677353	0.497573	0.051002
O6	O	0.677368	0.728530	-0.179966
O7	O	0.677358	0.497567	-0.050853
O8	O	0.446424	0.728485	0.050992
O9	O	0.908297	0.497618	-0.179956
O10	O	0.601363	0.715598	-0.037929
O11	O	0.601358	0.639592	0.038080
O12	O	0.753362	0.639622	-0.113933
O13	O	0.753357	0.563615	-0.037923
Zr14	Zr	0.677358	0.758838	0.081308
Zr15	Zr	0.677365	0.758830	-0.081138
Zr16	Zr	0.677354	0.596398	0.081301
Zr17	Zr	0.839777	0.596429	-0.081131
Zr18	Zr	0.514942	0.758798	0.081295
O19	O	0.806457	0.728574	0.051021
O20	O	0.806467	0.728562	-0.179955
O21	O	0.806452	0.497604	0.051012
O22	O	0.548257	0.857635	0.180128
O23	O	0.548267	0.857623	-0.050849
O24	O	0.548252	0.626666	0.180119
O25	O	0.677365	0.857655	-0.050838
O26	O	0.677353	0.728548	0.180133
O27	O	0.677350	0.626698	0.180129
O28	O	0.677361	0.857660	0.051016
O29	O	0.908300	0.626736	-0.179951
O30	O	0.446419	0.728492	0.180115
O31	O	0.446421	0.857610	0.180120
O32	O	0.446427	0.857604	0.050997
O33	O	0.908292	0.497624	-0.050834
O34	O	0.908294	0.626743	-0.050829
O35	O	0.601357	0.715606	0.114096
O36	O	0.601362	0.791612	0.038086
O37	O	0.753360	0.715636	-0.037917
O38	O	0.753355	0.639629	0.038093
C39	C	0.474202	0.677564	0.000065
C40	C	0.405253	0.677547	0.000060
C41	C	-0.074217	0.733771	0.056213
C42	C	-0.009409	0.733755	0.056205
C43	C	0.079082	0.677644	0.000091
C44	C	0.102764	0.621551	-0.056024
C45	C	0.037957	0.621571	-0.056019
C46	C	0.364127	0.621470	-0.056048
C47	C	0.428935	0.621453	-0.056047
C48	C	0.316762	0.733653	0.056177
C49	C	0.251954	0.733673	0.056182
C50	C	0.275642	0.677583	0.000065
C51	C	0.205369	0.677602	0.000074
C52	C	0.149354	0.677622	0.000085
C53	C	0.677355	0.474426	0.000074
C54	C	0.677353	0.405466	0.000071
C55	C	0.677365	-0.017834	0.056203
C56	C	0.677359	0.046965	0.056203
C57	C	0.677360	0.079356	0.000088
C58	C	0.677358	0.046949	-0.056026
C59	C	0.677357	-0.017846	-0.056021
C60	C	0.677357	0.308260	-0.056043
C61	C	0.677360	0.373058	-0.056044
C62	C	0.677359	0.373070	0.056182
C63	C	0.677358	0.308275	0.056186
C64	C	0.677352	0.275877	0.000075
C65	C	0.677357	0.205615	0.000077
C66	C	0.677361	0.149613	0.000083
C67	C	0.880516	0.677664	0.000098
C68	C	0.949466	0.677681	0.000104
C69	C	0.677368	0.677604	-0.203113
C70	C	0.677371	0.677600	-0.272075
C71	C	0.677364	0.880802	0.000090
C72	C	0.677365	0.949762	0.000093
C73	C	0.756712	0.637941	-0.344147
C74	C	0.756710	0.637947	-0.408942
C75	C	0.677365	0.677609	-0.401663
C76	C	0.598018	0.717273	-0.329584
C77	C	0.598021	0.717271	-0.264791
C78	C	0.598003	0.717285	-0.590887
C79	C	0.598006	0.717283	-0.655688
C80	C	0.756691	0.637962	-0.735038
C81	C	0.756695	0.637959	-0.670245
C82	C	0.677348	0.677626	-0.598171
C83	C	0.677351	0.677620	-0.527914
C84	C	0.677361	0.677612	-0.471919
C85	C	0.677351	0.677624	0.203276
C86	C	0.677348	0.677628	0.272239
C87	C	0.474207	0.880752	0.000073
C88	C	0.405258	0.949695	0.000071
C89	C	0.474193	0.677574	0.203260
C90	C	0.405241	0.677561	0.272217
C91	C	0.474198	0.880762	0.203268
C92	C	0.405247	0.949709	0.272228
C93	C	0.880521	0.474465	-0.203105
C94	C	0.949472	0.405519	-0.272064
C95	C	0.880512	0.474476	0.000090
C96	C	0.949460	0.405532	0.000093
C97	C	0.880525	0.677653	-0.203096
C98	C	0.949478	0.677667	-0.272053
C99	C	0.372881	0.942393	-0.039617
C100	C	0.308105	1.007166	-0.039635
C101	C	0.275705	1.079241	0.000040
C102	C	0.308089	1.086542	0.039729
C103	C	0.372868	1.021769	0.039742
C104	C	0.372859	0.717233	0.344286
C105	C	0.308080	0.717218	0.409084
C106	C	0.275679	0.677534	0.401812
C107	C	0.308067	0.637857	0.329735
C108	C	0.372850	0.637868	0.264939
C109	C	0.372869	1.021768	0.264936
C110	C	0.308091	1.086557	0.329724
C111	C	0.275688	1.079285	0.401804
C112	C	0.308072	1.007218	0.409095
C113	C	0.372853	0.942431	0.344307
C114	C	0.981857	0.333459	-0.264772
C115	C	1.046655	0.268670	-0.329561
C116	C	1.079062	0.275942	-0.401641
C117	C	1.046674	0.348009	-0.408931
C118	C	0.981882	0.412797	-0.344143
C119	C	0.981845	0.412834	0.039774
C120	C	1.046638	0.348061	0.039773
C121	C	1.079041	0.275987	0.000097
C122	C	1.046653	0.268686	-0.039589
C123	C	0.981866	0.333459	-0.039593
C124	C	0.981858	0.717358	-0.264757
C125	C	1.046638	0.717386	-0.329543
C126	C	1.079041	0.677717	-0.401625
C127	C	1.046654	0.638024	-0.408920
C128	C	0.981871	0.638002	-0.344134
H129	H	-0.146268	0.779459	0.101911
H130	H	0.281699	1.145233	0.072030
H131	H	0.955468	0.471515	0.072088
O132	O	0.521007	0.755775	-0.520826
C133	C	0.450670	0.790839	-0.385836
C134	C	0.537934	0.747248	-0.465140
H135	H	0.464325	0.783947	-0.340793
H136	H	0.411498	0.853497	-0.378927
H137	H	0.411576	0.767299	-0.379082
H138	H	0.577098	0.770724	-0.471949
H139	H	0.577039	0.684595	-0.472013
H140	H	0.955475	0.327524	-0.206087
O141	O	0.276718	0.999930	-0.078196
C142	C	0.283606	0.914350	-0.156931
C143	C	0.319213	0.922439	-0.113280
H144	H	0.317961	0.851703	-0.185321
H145	H	0.210208	0.942640	-0.115863
H146	H	0.296330	0.942728	-0.201972
H147	H	0.306551	0.894056	-0.068239
H148	H	0.392600	0.894169	-0.154395
O149	O	1.141894	0.213012	0.000127
C150	C	1.181540	0.098294	0.031731
C151	C	1.110289	0.169569	0.031725
H152	H	1.156008	0.063159	0.057290
H153	H	1.242210	0.063075	-0.028924
H154	H	1.199135	0.115915	0.066882
H155	H	1.092620	0.152016	-0.003389
H156	H	1.049666	0.204771	0.092401
H157	H	0.399206	0.883759	0.350255
O158	O	0.677199	0.404577	-0.110492
C159	C	0.601805	0.462053	-0.168724
C160	C	0.601869	0.426391	-0.107023
H161	H	0.540917	0.479685	-0.165951
H162	H	0.601753	0.513962	-0.159097
H163	H	0.662743	0.418858	-0.226846
H164	H	0.540941	0.469529	-0.048876
H165	H	0.601966	0.374467	-0.116717
H166	H	0.222957	1.131977	0.000024
O167	O	0.950457	0.755964	-0.194798
C168	C	0.957324	0.834655	-0.122926
C169	C	0.992946	0.790974	-0.202195
H170	H	0.991675	0.862959	-0.128879
H171	H	0.883927	0.879739	-0.090597
H172	H	0.970040	0.793554	-0.090611
H173	H	0.980293	0.832017	-0.234573
H174	H	1.066333	0.745880	-0.234466
O175	O	1.078223	0.354932	-0.479009
C176	C	1.178078	0.290265	-0.613991
C177	C	1.142416	0.282319	-0.534673
H178	H	1.229998	0.231566	-0.659016
H179	H	1.122310	0.322505	-0.620881
H180	H	1.208370	0.322615	-0.620791
H181	H	1.112134	0.249953	-0.527818
H182	H	1.198215	0.250108	-0.527819
O183	O	0.677202	0.276843	-0.110457
C184	C	0.601817	0.241343	-0.137886
C185	C	0.601875	0.276956	-0.076182
H186	H	0.540932	0.241408	-0.110197
H187	H	0.601765	0.275627	-0.177987
H188	H	0.662758	0.180572	-0.171158
H189	H	0.540945	0.337722	-0.042855
H190	H	0.601972	0.242615	-0.036133
H191	H	1.131820	0.223182	-0.454389
H192	H	1.073046	0.209994	-0.071893
H193	H	0.281677	0.605547	0.323826
H194	H	0.533390	0.749583	-0.649753
O195	O	1.078248	0.755828	-0.322543
C196	C	1.204696	0.748578	-0.349574
C197	C	1.169019	0.704955	-0.357573
H198	H	1.278085	0.707464	-0.377876
H199	H	1.192022	0.793626	-0.377946
H200	H	1.170372	0.776939	-0.286921
H201	H	1.203320	0.676548	-0.420205
H202	H	1.181680	0.659949	-0.329153
H203	H	0.222939	1.132046	0.454553
H204	H	0.533414	0.749571	-0.323663
H205	H	0.955500	0.327503	-0.071904
H206	H	1.131791	0.677741	-0.454371
O207	O	0.520926	0.755696	-0.194795
C208	C	0.385268	0.770197	-0.107163
C209	C	0.472557	0.726603	-0.186449
H210	H	0.346129	0.746703	-0.100396
H211	H	0.398846	0.763371	-0.062070
H212	H	0.346179	0.832835	-0.100346
H213	H	0.511690	0.663950	-0.193340
H214	H	0.458918	0.733492	-0.231503
H215	H	1.073046	0.605727	-0.467617
O216	O	0.677203	0.078463	-0.110474
C217	C	0.601826	0.135926	-0.168722
C218	C	0.601879	0.100272	-0.107013
H219	H	0.540943	0.153554	-0.165956
H220	H	0.601773	0.187837	-0.159097
H221	H	0.662769	0.092727	-0.226840
H222	H	0.540947	0.143414	-0.048870
H223	H	0.601978	0.048347	-0.116705
O224	O	0.404185	1.029003	0.078370
C225	C	0.397339	1.114586	0.157061
C226	C	0.361786	1.106494	0.113357
H227	H	0.363088	1.177233	0.185346
H228	H	0.384556	1.086290	0.202170
H229	H	0.470751	1.086214	0.115969
H230	H	0.288370	1.134870	0.154390
H231	H	0.374636	1.134769	0.068238
O232	O	0.950551	0.599369	-0.351363
C233	C	0.957397	0.520681	-0.436949
C234	C	0.992954	0.564389	-0.428864
H235	H	0.991651	0.492402	-0.499604
H236	H	0.970175	0.475576	-0.408654
H237	H	0.883987	0.561760	-0.408565
H238	H	1.066369	0.523369	-0.457252
H239	H	0.980108	0.609504	-0.457138
H240	H	0.399206	0.605565	0.206259
H241	H	0.281679	1.001309	0.467791
O242	O	0.677322	-0.049402	-0.110454
C243	C	0.677371	-0.149254	-0.160211
C244	C	0.677396	-0.113587	-0.098513
H245	H	0.677449	-0.201163	-0.150587
H246	H	0.616443	-0.106109	-0.157425
H247	H	0.738272	-0.166923	-0.218336
H248	H	0.616536	-0.095920	-0.040358
H249	H	0.738364	-0.156755	-0.101366
O250	O	-0.032566	0.788276	0.110786
C251	C	-0.150669	0.899594	0.222077
C252	C	-0.124562	0.837879	0.160319
H253	H	-0.225049	0.939723	0.262131
H254	H	-0.123203	0.871965	0.255389
H255	H	-0.123073	0.932812	0.194393
H256	H	-0.152151	0.804640	0.187940
H257	H	-0.152016	0.865553	0.127012
O258	O	0.212828	0.677503	0.464815
C259	C	0.173199	0.645918	0.579555
C260	C	0.244449	0.645917	0.508242
H261	H	0.198744	0.620369	0.614678
H262	H	0.112540	0.706565	0.614783
H263	H	0.155581	0.610769	0.561966
H264	H	0.262141	0.681029	0.525764
H265	H	0.305061	0.585249	0.473032
O266	O	1.077945	0.355204	0.078455
C267	C	1.044392	0.403266	0.199618
C268	C	1.008831	0.395212	0.155906
H269	H	0.988528	0.435625	0.262243
H270	H	1.096234	0.344616	0.192876
H271	H	1.074738	0.435567	0.176079
H272	H	0.978441	0.362941	0.179416
H273	H	0.957029	0.453885	0.162647
O274	O	0.166024	0.788160	0.110790
C275	C	0.050288	0.846336	0.244415
C276	C	0.147623	0.784606	0.182652
H277	H	0.035375	0.843472	0.302530
H278	H	0.035357	0.904479	0.241686
H279	H	0.008054	0.836721	0.234745
H280	H	0.189920	0.794148	0.192282
H281	H	0.162483	0.726484	0.185398
O282	O	0.293901	0.788110	0.110612
C283	C	0.344018	0.837787	0.160375
C284	C	0.370029	0.776086	0.098673
H285	H	0.405551	0.828078	0.150753
H286	H	0.303665	0.895933	0.157591
H287	H	0.303570	0.834998	0.218499
H288	H	0.410507	0.778804	0.040520
H289	H	0.410338	0.717967	0.101524
O290	O	0.677475	0.404560	0.110594
C291	C	0.752914	0.439990	0.138011
C292	C	0.752875	0.404332	0.076318
H293	H	0.813878	0.439804	0.110323
H294	H	0.692041	0.500795	0.171265
H295	H	0.752876	0.405719	0.178128
H296	H	0.752944	0.438544	0.036150
H297	H	0.813743	0.343522	0.043120
O298	O	0.404266	0.755787	0.351496
C299	C	0.397414	0.834508	0.437057
C300	C	0.361780	0.790870	0.428992
H301	H	0.363065	0.862897	0.499708
H302	H	0.470810	0.793440	0.408751
H303	H	0.384705	0.879539	0.408672
H304	H	0.374426	0.745838	0.457381
H305	H	0.288394	0.831984	0.457277
H306	H	0.281731	1.145232	0.323775
O307	O	1.077980	0.198727	-0.322334
C308	C	1.071129	0.126888	-0.236757
C309	C	1.035566	0.206139	-0.244835
H310	H	1.036866	0.132853	-0.174103
H311	H	1.058369	0.094545	-0.265067
H312	H	1.144537	0.094589	-0.265129
H313	H	0.962154	0.238501	-0.216458
H314	H	1.048395	0.238424	-0.216545
H315	H	0.383425	0.575796	-0.101740
O316	O	0.188763	0.567081	-0.110460
C317	C	0.338317	0.517343	-0.160229
C318	C	0.240958	0.579069	-0.098528
H319	H	0.380544	0.527023	-0.150613
H320	H	0.353271	0.459207	-0.157439
H321	H	0.353211	0.520134	-0.218354
H322	H	0.225995	0.576348	-0.040374
H323	H	0.226054	0.637179	-0.101386
O324	O	0.514939	0.566986	-0.110491
C325	C	0.664489	0.517268	-0.160262
C326	C	0.567127	0.578980	-0.098554
H327	H	0.706710	0.526953	-0.150641
H328	H	0.679457	0.459125	-0.157485
H329	H	0.679376	0.520070	-0.218383
H330	H	0.552171	0.576249	-0.040404
H331	H	0.552209	0.637096	-0.101398
O332	O	0.061010	0.566987	-0.110462
C333	C	0.137092	0.433379	-0.168701
C334	C	0.111022	0.495121	-0.106997
H335	H	0.177547	0.375260	-0.165930
H336	H	0.075607	0.442961	-0.159073
H337	H	0.177475	0.436209	-0.226821
H338	H	0.070660	0.492327	-0.048851
H339	H	0.172542	0.485518	-0.116691
O340	O	0.677327	-0.049182	0.110788
C341	C	0.677376	-0.042349	0.222079
C342	C	0.677401	-0.006764	0.160314
H343	H	0.677454	-0.008079	0.262127
H344	H	0.616448	-0.042213	0.255396
H345	H	0.738277	-0.103141	0.194401
H346	H	0.616541	0.054040	0.187930
H347	H	0.738369	-0.006959	0.127003
H348	H	0.677357	0.073348	0.101893
H349	H	0.677362	0.281902	0.101878
H350	H	0.955514	0.471469	-0.350090
O351	O	0.833761	0.599542	-0.478967
C352	C	0.925845	0.606829	-0.598184
C353	C	0.838557	0.650418	-0.518897
H354	H	0.929743	0.647941	-0.630496
H355	H	0.982586	0.578503	-0.592296
H356	H	0.929801	0.561755	-0.630477
H357	H	0.834516	0.695528	-0.486560
H358	H	0.781858	0.678692	-0.524838
O359	O	0.833749	0.599556	-0.805069
C360	C	0.925829	0.606841	-0.924289
C361	C	0.838544	0.650431	-0.845000
H362	H	0.929727	0.647953	-0.956602
H363	H	0.982572	0.578514	-0.918405
H364	H	0.929782	0.561768	-0.956579
H365	H	0.834506	0.695540	-0.812667
H366	H	0.781842	0.678706	-0.850939
H367	H	0.821305	0.605659	-0.676178
H368	H	0.399243	1.027704	0.206250
H369	H	0.821324	0.605638	-0.350082
H370	H	0.281717	0.749530	0.467766
H371	H	0.399260	0.883712	-0.071934
