data_functionalizedCrystal
_audit_creation_method	'MofGen! by Chris Wilmer'
_symmetry_space_group_name_H-M	'P1'
_symmetry_Int_Tables_number	1
_symmetry_cell_setting	triclinic
loop_
_symmetry_equiv_pos_as_xyz
  x,y,z
_cell_length_a	14.853567
_cell_length_b	15.500215
_cell_length_c	14.853559
_cell_angle_alpha	93.177227
_cell_angle_beta	83.633192
_cell_angle_gamma	93.176541
loop_
_atom_site_label
_atom_site_type_symbol
_atom_site_fract_x
_atom_site_fract_y
_atom_site_fract_z
O1	O	1.200101	0.071880	0.121444
O2	O	0.937642	0.071895	0.135466
O3	O	1.075886	0.071886	-0.002775
O4	O	1.061857	0.071889	0.259685
O5	O	1.068388	-0.072003	-0.010265
O6	O	0.930144	-0.071994	0.127977
O7	O	1.192603	-0.072008	0.113954
Cu8	Cu	1.060688	-0.085139	0.120282
Cu9	Cu	1.069556	0.085026	0.129139
O10	O	1.054358	-0.072000	0.252196
C11	C	0.900304	-0.000048	0.131086
C12	C	0.800221	-0.000042	0.129183
N13	N	1.054458	-0.204825	0.114051
C14	C	0.387689	-0.000062	0.039015
C15	C	0.366403	-0.000060	0.203249
C16	C	0.460437	-0.000057	0.205039
C17	C	0.518101	-0.000056	0.123816
C18	C	0.481732	-0.000057	0.040803
C19	C	0.496814	-0.000047	0.288051
C20	C	0.590853	-0.000043	0.289845
C21	C	0.648519	-0.000048	0.208621
C22	C	0.612144	-0.000050	0.125604
C23	C	0.669808	-0.000049	0.044382
C24	C	0.633435	-0.000057	-0.038636
C25	C	0.539397	-0.000062	-0.040421
C26	C	0.742556	-0.000044	0.210405
C27	C	0.763851	-0.000044	0.046170
C28	C	1.106844	-0.250100	0.166477
C29	C	1.102144	-0.340673	0.161759
C30	C	1.045053	-0.385969	0.104620
C31	C	0.992665	-0.340687	0.052189
C32	C	0.997371	-0.250116	0.056902
C33	C	1.028112	-0.659436	0.087644
C34	C	1.023408	-0.750014	0.082937
C35	C	1.132888	-0.749993	0.192506
C36	C	1.137585	-0.659420	0.197218
C37	C	1.085201	-0.614147	0.144784
C38	C	1.040245	-0.478549	0.099799
C39	C	1.090014	-0.521568	0.149601
C40	C	1.229941	-0.000064	0.118334
C41	C	1.330024	-0.000064	0.120238
C42	C	1.071503	-0.000056	-0.040109
C43	C	1.069602	-0.000052	-0.140193
N44	N	1.075794	0.204711	0.135362
C45	C	1.065626	0.078383	-0.559285
C46	C	1.057451	-0.078490	-0.567445
C47	C	1.059244	-0.078491	-0.473412
C48	C	1.064227	-0.000054	-0.422311
C49	C	1.067417	0.078384	-0.465243
C50	C	1.056045	-0.156928	-0.430472
C51	C	1.057838	-0.156932	-0.336433
C52	C	1.062827	-0.078494	-0.285331
C53	C	1.066018	-0.000052	-0.328268
C54	C	1.071001	0.078385	-0.277167
C55	C	1.074198	0.156827	-0.320104
C56	C	1.072406	0.156823	-0.414140
C57	C	1.064619	-0.078489	-0.191294
C58	C	1.072792	0.078387	-0.183125
C59	C	1.058742	-0.000055	0.289529
C60	C	1.060643	-0.000055	0.389614
H61	H	0.810796	-0.000046	-0.019973
H62	H	1.076854	0.142261	-0.141525
H63	H	1.075008	0.220686	-0.449108
N64	N	1.079277	0.236940	-0.267886
N65	N	1.080865	0.236921	-0.183925
H66	H	1.084450	0.293498	-0.147041
H67	H	1.144803	-0.377532	0.204448
N68	N	0.628017	-0.000055	0.374632
N69	N	0.711979	-0.000062	0.376219
H70	H	0.738229	-0.000075	0.436100
H71	H	1.184077	-0.622547	0.243744
H72	H	1.175537	-0.786865	0.235195
H73	H	1.068232	0.142249	-0.594249
N74	N	1.165165	-0.203822	0.224831
N75	N	1.169363	-0.122956	0.229032
H76	H	1.210556	-0.090273	0.270243
H77	H	0.976913	-0.786891	0.036408
H78	H	0.985457	-0.622585	0.044947
N79	N	1.054561	-0.237055	-0.292578
N80	N	0.988124	-0.289569	-0.297576
H81	H	0.985811	-0.346157	-0.266603
H82	H	0.680398	-0.000050	-0.104767
H83	H	0.946185	-0.377574	0.005661
N84	N	0.779697	-0.000045	0.295202
N85	N	0.758908	-0.060695	0.346830
H86	H	0.785136	-0.060699	0.406723
H87	H	0.954712	-0.213253	0.014212
N88	N	1.148343	-0.475300	0.207947
N89	N	1.210527	-0.424757	0.175472
H90	H	1.251723	-0.392071	0.216679
H91	H	0.319448	-0.000054	0.269377
H92	H	0.993761	-0.515439	0.053277
H93	H	1.053388	-0.142350	-0.609057
H94	H	1.051984	-0.220787	-0.472085
N95	N	1.061332	-0.158604	-0.147430
N96	N	0.994887	-0.211110	-0.152427
H97	H	0.992564	-0.267695	-0.121447
N98	N	0.502228	-0.000070	-0.125206
N99	N	0.418264	-0.000070	-0.126787
H100	H	0.392009	-0.000073	-0.186666
H101	H	0.358069	-0.000073	-0.028576
N102	N	0.437902	-0.000022	0.371006
N103	N	0.353943	-0.000018	0.369394
H104	H	0.312331	0.000006	0.427984
