data_functionalizedCrystal
_audit_creation_method	'MofGen! by Chris Wilmer'
_symmetry_space_group_name_H-M	'P1'
_symmetry_Int_Tables_number	1
_symmetry_cell_setting	triclinic
loop_
_symmetry_equiv_pos_as_xyz
  x,y,z
_cell_length_a	11.792254
_cell_length_b	11.792254
_cell_length_c	7.088929
_cell_angle_alpha	83.733108
_cell_angle_beta	96.246827
_cell_angle_gamma	84.198598
loop_
_atom_site_label
_atom_site_type_symbol
_atom_site_fract_x
_atom_site_fract_y
_atom_site_fract_z
O1	O	1.495328	0.167231	-0.158988
O2	O	1.164989	0.183249	-0.158992
O3	O	1.338169	0.010070	-0.158976
O4	O	1.322149	0.340410	-0.159004
O5	O	1.361312	-0.013127	0.159001
O6	O	1.188133	0.160053	0.158985
O7	O	1.518471	0.144034	0.158989
Cu8	Cu	1.355415	0.149926	0.188021
Cu9	Cu	1.328046	0.177358	-0.188024
O10	O	1.345292	0.317214	0.158974
C11	C	1.134270	0.170642	-0.000004
C12	C	1.008257	0.167622	-0.000005
C13	C	0.905920	0.165168	-0.000013
C14	C	0.777533	0.162100	-0.000014
C15	C	1.348731	-0.043819	0.000012
C16	C	1.345711	-0.169832	0.000010
C17	C	1.343257	-0.272168	0.000003
C18	C	1.340187	-0.400554	-0.000015
C19	C	1.549190	0.156642	-0.000003
C20	C	1.675203	0.159663	-0.000014
C21	C	1.334729	0.371103	-0.000019
C22	C	1.337749	0.497117	-0.000029
N23	N	1.374674	0.130630	0.452511
N24	N	1.308796	0.196644	-0.452514
H25	H	1.240521	0.265053	0.465834
H26	H	1.442962	0.062225	0.534173
