data_functionalizedCrystal
_audit_creation_method	'MofGen! by Chris Wilmer'
_symmetry_space_group_name_H-M	'P1'
_symmetry_Int_Tables_number	1
_symmetry_cell_setting	triclinic
loop_
_symmetry_equiv_pos_as_xyz
  x,y,z
_cell_length_a	31.640172
_cell_length_b	21.606444
_cell_length_c	21.606444
_cell_angle_alpha	59.991153
_cell_angle_beta	90.005700
_cell_angle_gamma	60.001198
loop_
_atom_site_label
_atom_site_type_symbol
_atom_site_fract_x
_atom_site_fract_y
_atom_site_fract_z
Zr1	Zr	0.407182	0.677438	-0.081257
O2	O	0.339689	0.806585	-0.180118
O3	O	0.427871	0.548303	-0.050935
O4	O	0.427868	0.677439	-0.180079
O5	O	0.339697	0.677445	0.050880
O6	O	0.497425	0.677426	-0.180066
O7	O	0.339693	0.677449	-0.050974
O8	O	0.497432	0.446425	0.050949
O9	O	0.339689	0.908445	-0.180135
O10	O	0.488605	0.601404	-0.038012
O11	O	0.436698	0.601410	0.037991
O12	O	0.436694	0.753451	-0.114060
O13	O	0.384787	0.753457	-0.038057
Zr14	Zr	0.518123	0.677411	0.081211
Zr15	Zr	0.518117	0.677418	-0.081235
Zr16	Zr	0.407187	0.677431	0.081189
Zr17	Zr	0.407182	0.839893	-0.081284
Zr18	Zr	0.518122	0.514955	0.081238
O19	O	0.497433	0.806546	0.050889
O20	O	0.497425	0.806556	-0.180087
O21	O	0.339697	0.806575	0.050858
O22	O	0.585615	0.548264	0.180072
O23	O	0.585607	0.548274	-0.050905
O24	O	0.427879	0.548293	0.180041
O25	O	0.585608	0.677404	-0.050926
O26	O	0.497437	0.677410	0.180033
O27	O	0.427880	0.677423	0.180020
O28	O	0.585611	0.677399	0.050928
O29	O	0.427868	0.908429	-0.180118
O30	O	0.497436	0.446420	0.180072
O31	O	0.585615	0.446404	0.180089
O32	O	0.585611	0.446409	0.050967
O33	O	0.339694	0.908440	-0.051013
O34	O	0.427873	0.908423	-0.050996
O35	O	0.488611	0.601398	0.114014
O36	O	0.540518	0.601391	0.038011
O37	O	0.488606	0.753438	-0.038037
O38	O	0.436699	0.753445	0.037965
C39	C	0.462651	0.474218	0.000011
C40	C	0.462651	0.405251	0.000022
C41	C	0.424328	0.428995	-0.056113
C42	C	0.424330	0.364206	-0.056129
C43	C	0.462652	0.275673	-0.000005
C44	C	0.500979	0.251929	0.056133
C45	C	0.500979	0.316718	0.056145
C46	C	0.500979	-0.009357	0.056086
C47	C	0.500975	-0.074146	0.056071
C48	C	0.424329	0.038131	-0.056189
C49	C	0.424329	0.102920	-0.056177
C50	C	0.462657	0.079170	-0.000041
C51	C	0.462656	0.149423	-0.000025
C52	C	0.462652	0.205421	-0.000017
C53	C	0.323889	0.677450	-0.000050
C54	C	0.276794	0.677459	-0.000059
C55	C	0.011885	0.598049	0.039689
C56	C	-0.165100	0.598034	0.039704
O57	O	-0.164940	0.530535	0.073492
N58	N	-0.214327	0.677400	0.000006
C59	C	-0.219307	0.756776	-0.039694
O60	O	-0.265239	0.824282	-0.073452
C61	C	-0.042322	0.756790	-0.039704
C62	C	0.006904	0.677419	-0.000010
C63	C	0.061110	0.518684	0.079380
C64	C	0.105353	0.518689	0.079372
C65	C	0.100372	0.598058	0.039674
C66	C	0.051148	0.677423	-0.000018
C67	C	-0.047303	0.836165	-0.079399
C68	C	-0.003052	0.836162	-0.079396
C69	C	0.046175	0.756790	-0.039702
C70	C	0.090410	0.756798	-0.039724
N71	N	0.139637	0.677431	-0.000026
C72	C	0.144618	0.598062	0.039672
C73	C	-0.312224	0.756763	-0.039687
C74	C	-0.356470	0.756760	-0.039685
C75	C	-0.302260	0.598017	0.039713
C76	C	-0.258014	0.598021	0.039707
C77	C	-0.262997	0.677397	0.000011
C78	C	0.237530	0.598077	0.039653
C79	C	0.281775	0.598089	0.039639
C80	C	0.227561	0.756831	-0.039756
C81	C	0.183320	0.756820	-0.039746
C82	C	0.188308	0.677436	-0.000036
O83	O	0.090290	0.824262	-0.073487
O84	O	0.190554	0.530566	0.073439
C85	C	-0.032358	0.598045	0.039696
C86	C	-0.081582	0.677410	0.000005
C87	C	-0.086564	0.756779	-0.039694
C88	C	-0.125828	0.677406	0.000006
C89	C	-0.120847	0.598037	0.039705
C90	C	-0.071620	0.518670	0.079402
C91	C	-0.027377	0.518675	0.079395
C92	C	-0.135791	0.836146	-0.079391
C93	C	-0.180032	0.836135	-0.079381
C94	C	-0.175051	0.756765	-0.039682
C95	C	0.601416	0.677399	0.000004
C96	C	0.648511	0.677390	0.000013
C97	C	0.462645	0.677433	-0.203218
C98	C	0.462643	0.677436	-0.272180
C99	C	0.462653	0.880631	-0.000057
C100	C	0.462653	0.949598	-0.000069
C101	C	0.435545	0.756802	-0.344275
C102	C	0.435550	0.756800	-0.409070
C103	C	0.462649	0.677430	-0.401768
C104	C	0.489750	0.598058	-0.329666
C105	C	0.489748	0.598061	-0.264872
C106	C	0.489758	0.598043	-0.590969
C107	C	0.489757	0.598045	-0.655769
C108	C	0.435560	0.756781	-0.735166
C109	C	0.435558	0.756785	-0.670373
C110	C	0.462661	0.677413	-0.598276
C111	C	0.462657	0.677416	-0.528019
C112	C	0.462651	0.677426	-0.472024
C113	C	0.462659	0.677416	0.203172
C114	C	0.462662	0.677413	0.272134
C115	C	0.601415	0.474192	0.000038
C116	C	0.648510	0.405217	0.000059
C117	C	0.462659	0.474209	0.203206
C118	C	0.462661	0.405240	0.272179
C119	C	0.601422	0.474183	0.203233
C120	C	0.648519	0.405205	0.272216
C121	C	0.323883	0.880665	-0.203279
C122	C	0.276786	0.949644	-0.272262
C123	C	0.323890	0.880657	-0.000084
C124	C	0.276795	0.949632	-0.000105
C125	C	0.462646	0.880640	-0.203252
C126	C	0.462644	0.949609	-0.272226
C127	C	0.643528	0.372832	-0.039621
C128	C	0.687774	0.308032	-0.039617
C129	C	0.737002	0.275613	0.000072
C130	C	0.741982	0.308004	0.039754
C131	C	0.697736	0.372808	0.039744
C132	C	0.489759	0.372844	0.344260
C133	C	0.489759	0.308049	0.409075
C134	C	0.462663	0.275646	0.401807
C135	C	0.435561	0.308048	0.329719
C136	C	0.435559	0.372846	0.264906
C137	C	0.697736	0.372809	0.264938
C138	C	0.741993	0.308006	0.329749
C139	C	0.737032	0.275595	0.401837
C140	C	0.687810	0.307998	0.409112
C141	C	0.643554	0.372804	0.344302
C142	C	0.227569	0.982048	-0.264985
C143	C	0.183312	1.046871	-0.329795
C144	C	0.188273	1.079285	-0.401883
C145	C	0.237495	1.046878	-0.409158
C146	C	0.281751	0.982060	-0.344348
C147	C	0.281776	0.982023	0.039568
C148	C	0.237530	1.046842	0.039546
C149	C	0.188303	1.079263	-0.000145
C150	C	0.183322	1.046869	-0.039824
C151	C	0.227568	0.982056	-0.039805
C152	C	0.489745	0.981992	-0.264933
C153	C	0.489753	1.046787	-0.329736
C154	C	0.462657	1.079204	-0.401829
C155	C	0.435555	1.046815	-0.409120
C156	C	0.435550	0.982016	-0.344318
H157	H	0.393122	0.057463	-0.101900
C158	C	0.519578	0.272411	0.488362
H159	H	0.535721	0.300981	0.483402
H160	H	0.496196	0.283039	0.515289
H161	H	0.545222	0.211222	0.515304
C162	C	0.703203	0.408452	0.185651
H163	H	0.738856	0.379876	0.190610
H164	H	0.687070	0.397833	0.158720
H165	H	0.687065	0.469638	0.158713
H166	H	0.462665	1.131967	-0.454588
C167	C	0.139588	1.150571	-0.473167
H168	H	0.109568	1.165214	-0.458502
H169	H	0.139575	1.201140	-0.502498
H170	H	0.139582	1.129323	-0.502471
H171	H	0.701800	0.399167	0.072061
C172	C	0.519568	0.510735	-0.647735
H173	H	0.535713	0.463463	-0.595517
H174	H	0.496180	0.507438	-0.671364
H175	H	0.545210	0.507436	-0.671358
C176	C	0.242948	1.082527	-0.488455
H177	H	0.278598	1.053952	-0.483515
H178	H	0.226804	1.071911	-0.515374
H179	H	0.226811	1.143714	-0.515394
H180	H	0.223519	0.955660	-0.206293
H181	H	0.413489	0.821416	-0.676325
H182	H	0.511827	0.533413	-0.532273
C183	C	0.243018	1.082455	0.083202
H184	H	0.278673	1.053849	0.106853
H185	H	0.226890	1.143637	0.048950
H186	H	0.226883	1.071832	0.120752
H187	H	-0.220113	0.900774	-0.111712
H188	H	0.683778	0.281600	0.467814
C189	C	0.335886	0.946412	-0.352363
H190	H	0.332498	0.974997	-0.404579
H191	H	0.354287	0.957016	-0.328736
H192	H	0.354270	0.885228	-0.328731
H193	H	0.532188	-0.028705	0.101795
H194	H	0.143236	1.073276	-0.072139
H195	H	0.683709	0.281667	-0.071930
H196	H	0.603481	0.399173	0.350238
C197	C	0.519558	0.510753	-0.321633
H198	H	0.515674	0.522116	-0.370546
H199	H	0.555207	0.478135	-0.294696
H200	H	0.506172	0.478150	-0.294708
C201	C	0.589383	0.408487	-0.083284
H202	H	0.563740	0.451717	-0.077608
H203	H	0.585500	0.433773	-0.135491
H204	H	0.585503	0.361962	-0.063682
C205	C	0.519553	0.510758	-0.185568
H206	H	0.535689	0.463488	-0.190498
H207	H	0.545194	0.507455	-0.158635
H208	H	0.496161	0.507466	-0.158649
C209	C	0.785667	0.204322	0.000084
H210	H	0.775646	0.189676	-0.029228
H211	H	0.805690	0.225548	-0.021158
H212	H	0.805685	0.153749	0.050651
H213	H	0.393116	0.501081	-0.101808
H214	H	0.152279	1.132038	-0.000154
C215	C	0.462674	0.204364	0.473105
H216	H	0.482699	0.189709	0.517073
H217	H	0.428154	0.225601	0.473109
H218	H	0.477188	0.153793	0.473128
C219	C	0.796130	0.272366	0.321732
H220	H	0.792742	0.300942	0.269517
H221	H	0.814524	0.282986	0.345350
H222	H	0.814519	0.211179	0.345375
C223	C	0.405746	1.082486	-0.488425
H224	H	0.409628	1.125723	-0.525968
H225	H	0.419119	1.035977	-0.494114
H226	H	0.370094	1.107788	-0.494122
H227	H	0.413501	0.281656	0.323812
H228	H	0.143237	1.073246	-0.323856
C229	C	0.785716	0.204303	0.473121
H230	H	0.815737	0.189649	0.458456
H231	H	0.785727	0.225531	0.502437
H232	H	0.785724	0.153734	0.502440
C233	C	0.222082	0.946421	-0.083438
H234	H	0.186426	0.975010	-0.107069
H235	H	0.238214	0.957030	-0.120988
H236	H	0.238213	0.885237	-0.049167
H237	H	0.782069	0.281599	0.072067
C238	C	0.335921	0.946371	0.083233
H239	H	0.332543	0.974958	0.106849
H240	H	0.354310	0.885188	0.120798
H241	H	0.354308	0.956991	0.048983
H242	H	0.511824	0.399219	0.350192
C243	C	0.405752	0.408469	0.185621
H244	H	0.389621	0.379880	0.190582
H245	H	0.380108	0.469654	0.158668
H246	H	0.429143	0.397830	0.158704
C247	C	0.519555	0.946342	-0.185639
H248	H	0.535699	0.974908	-0.190588
H249	H	0.496171	0.956967	-0.158715
H250	H	0.545199	0.885153	-0.158700
C251	C	0.519560	1.082413	-0.321702
H252	H	0.535687	1.053835	-0.269484
H253	H	0.545207	1.071786	-0.345311
H254	H	0.496167	1.143601	-0.345346
H255	H	0.532186	0.297379	0.101857
C256	C	0.405728	0.946414	-0.352345
H257	H	0.409603	0.903177	-0.303431
H258	H	0.370082	0.992957	-0.379289
H259	H	0.419108	0.921130	-0.379263
C260	C	0.543132	0.154546	0.117869
H261	H	0.537641	0.119360	0.109828
H262	H	0.576213	0.142101	0.115557
H263	H	0.541541	0.142096	0.166316
H264	H	0.393121	0.175006	-0.101876
C265	C	0.382173	0.390328	-0.117876
H266	H	0.359346	0.452333	-0.151293
H267	H	0.397910	0.367399	-0.145599
H268	H	0.363246	0.367378	-0.094828
C269	C	-0.141277	0.923457	-0.123068
H270	H	-0.176933	0.970718	-0.146711
H271	H	-0.125142	0.926770	-0.088832
H272	H	-0.125151	0.926759	-0.160625
H273	H	0.321858	0.533452	0.071965
C274	C	0.543134	-0.171534	0.117806
H275	H	0.565964	-0.176400	0.151237
H276	H	0.527395	-0.199151	0.145518
H277	H	0.562058	-0.199129	0.094745
C278	C	-0.066148	0.431366	0.123074
H279	H	-0.099551	0.442740	0.117394
H280	H	-0.047765	0.398747	0.103494
H281	H	-0.047759	0.398759	0.175286
H282	H	0.241599	0.533435	0.071989
H283	H	0.065174	0.454048	0.111711
C284	C	0.159497	0.431379	0.123044
H285	H	0.156119	0.384116	0.146691
H286	H	0.177886	0.428071	0.088803
H287	H	0.177886	0.428079	0.160598
H288	H	-0.217934	0.533390	0.072036
H289	H	-0.298211	0.533391	0.072033
H290	H	-0.316291	0.821404	-0.072017
C291	C	-0.410616	0.844066	-0.083354
H292	H	-0.436258	0.832705	-0.077675
H293	H	-0.414495	0.876674	-0.063766
H294	H	-0.414502	0.876678	-0.135566
H295	H	-0.087379	0.900798	-0.111721
H296	H	0.143236	0.821451	-0.072077
C297	C	-0.008537	0.923477	-0.123067
H298	H	-0.044192	0.970741	-0.146709
H299	H	0.007601	0.926779	-0.088825
H300	H	0.007590	0.926782	-0.160625
H301	H	0.223514	0.821452	-0.072080
H302	H	0.012702	0.454042	0.111719
H303	H	0.413485	0.821428	-0.467771
H304	H	0.413474	0.821435	-0.350230
C305	C	0.405752	0.844091	-0.814474
H306	H	0.409637	0.832726	-0.852019
H307	H	0.370102	0.876706	-0.820174
H308	H	0.419135	0.876697	-0.820159
