data_functionalizedCrystal
_audit_creation_method	'MofGen! by Chris Wilmer'
_symmetry_space_group_name_H-M	'P1'
_symmetry_Int_Tables_number	1
_symmetry_cell_setting	triclinic
loop_
_symmetry_equiv_pos_as_xyz
  x,y,z
_cell_length_a	6.817900
_cell_length_b	11.102188
_cell_length_c	11.102291
_cell_angle_alpha	91.949911
_cell_angle_beta	108.605752
_cell_angle_gamma	108.603875
loop_
_atom_site_label
_atom_site_type_symbol
_atom_site_fract_x
_atom_site_fract_y
_atom_site_fract_z
V1	V	-4.111529	-0.175855	-0.396259
O2	O	-4.070572	0.008434	-0.388716
O3	O	-4.088297	-0.348675	-0.393549
O4	O	-4.088314	-0.173157	-0.569081
O5	O	-4.070554	-0.168299	-0.211968
V6	V	-4.588633	-0.153811	-0.374216
O7	O	-4.386870	-0.224210	-0.444611
O8	O	-4.763490	-0.105456	-0.325864
O9	O	-4.388658	0.019009	-0.376926
O10	O	-4.746987	-0.338100	-0.381760
O11	O	-4.747005	-0.161367	-0.558507
O12	O	-4.388641	-0.156509	-0.201394
C13	C	-3.938605	-0.390804	-0.387298
C14	C	-4.001065	-0.532087	-0.386234
C15	C	-3.970237	-0.580308	-0.269349
C16	C	-4.028949	-0.713059	-0.268355
C17	C	-4.149307	-0.749358	-0.501140
C18	C	-4.090610	-0.616610	-0.502134
C19	C	-3.938626	-0.166912	-0.611205
C20	C	-4.001095	-0.165850	-0.752488
C21	C	-4.214449	-0.171690	-0.825336
C22	C	-4.273121	-0.170667	-0.958082
C23	C	-3.905065	-0.157969	-0.945121
C24	C	-3.846392	-0.158983	-0.812376
C25	C	-4.426947	-0.179026	-0.832821
C26	C	-4.485619	-0.178003	-0.965567
C27	C	-4.201692	0.061132	-0.383174
C28	C	-4.118473	0.202413	-0.384246
C29	C	-4.201671	-0.162757	-0.159264
C30	C	-4.118439	-0.163813	-0.017979
H31	H	-3.672664	-0.154230	-0.753068
C32	C	-4.124413	-0.563552	-0.630707
H33	H	-4.076620	-0.472387	-0.614696
H34	H	-4.041000	-0.588640	-0.674273
H35	H	-4.276470	-0.596883	-0.682461
H36	H	-4.522338	-0.273804	-0.808358
H37	H	-4.003843	-0.752313	-0.173175
H38	H	-4.222217	-0.818192	-0.595501
C39	C	-4.453252	-0.062503	-0.769183
H40	H	-4.413460	-0.063207	-0.679105
H41	H	-4.360076	0.014541	-0.785180
H42	H	-4.602479	-0.066977	-0.803994
C43	C	-3.871790	-0.487339	-0.141868
H44	H	-3.861868	-0.535077	-0.072115
H45	H	-3.728671	-0.430653	-0.133345
H46	H	-3.964143	-0.438948	-0.141486
C47	C	-4.534888	-0.056108	-1.004893
H48	H	-4.516248	-0.002537	-0.930550
H49	H	-4.436280	-0.010912	-1.045618
H50	H	-4.682548	-0.079677	-1.062761
C51	C	-4.679716	-0.302139	-1.036974
H52	H	-4.719532	-0.301434	-1.127053
H53	H	-4.636971	-0.374486	-1.016190
H54	H	-4.802405	-0.307066	-1.011745
H55	H	-3.779118	-0.152376	-0.993898
