data_functionalizedCrystal
_audit_creation_method	'MofGen! by Chris Wilmer'
_symmetry_space_group_name_H-M	'P1'
_symmetry_Int_Tables_number	1
_symmetry_cell_setting	triclinic
loop_
_symmetry_equiv_pos_as_xyz
  x,y,z
_cell_length_a	12.759394
_cell_length_b	17.077404
_cell_length_c	17.077396
_cell_angle_alpha	90.017258
_cell_angle_beta	89.972081
_cell_angle_gamma	89.988094
loop_
_atom_site_label
_atom_site_type_symbol
_atom_site_fract_x
_atom_site_fract_y
_atom_site_fract_z
Zn1	Zn	-0.418332	-1.200080	-0.443859
Zn2	Zn	-0.594038	-1.200011	-0.312598
Zn3	Zn	-0.418364	-1.068817	-0.312606
Zn4	Zn	-0.593961	-1.068798	-0.443821
O5	O	-0.506174	-1.134426	-0.378221
O6	O	-0.441659	-1.309917	-0.426459
O7	O	-0.570780	-1.182587	-0.202752
O8	O	-0.271339	-1.086266	-0.330037
O9	O	-0.570749	-1.309867	-0.330022
O10	O	-0.271315	-1.182704	-0.426467
O11	O	-0.441713	-1.086199	-0.202758
O12	O	-0.441639	-0.958968	-0.330000
O13	O	-0.570617	-1.086233	-0.553673
O14	O	-0.570649	-0.958953	-0.426403
O15	O	-0.441584	-1.182686	-0.553701
O16	O	-0.741048	-1.182568	-0.329985
O17	O	-0.740992	-1.086167	-0.426394
C18	C	-0.506140	-0.930478	-0.378198
C19	C	-0.506150	-0.843229	-0.378207
C20	C	-0.439052	-0.802266	-0.428498
C21	C	-0.439057	-0.720285	-0.428500
C22	C	-0.506166	-0.679269	-0.378214
C23	C	-0.573268	-0.720238	-0.327918
C24	C	-0.573257	-0.802217	-0.327913
C25	C	-0.573288	-0.549368	-0.327934
C26	C	-0.573301	-0.467383	-0.327940
C27	C	-0.439088	-0.467436	-0.428520
C28	C	-0.439077	-0.549415	-0.428515
C29	C	-0.506180	-0.590378	-0.378220
C30	C	-0.779141	-1.134379	-0.378202
C31	C	-0.895918	-1.134431	-0.378220
C32	C	-0.895923	-1.234889	-0.277904
C33	C	-0.950787	-1.285139	-0.227756
C34	C	-1.060508	-1.285185	-0.227777
C35	C	-1.115369	-1.234977	-0.277954
C36	C	-1.060505	-1.184728	-0.328103
C37	C	-0.950781	-1.184686	-0.328074
C38	C	-1.060500	-1.084275	-0.428421
C39	C	-0.950778	-1.084224	-0.428397
C40	C	-1.115360	-1.034067	-0.478598
C41	C	-1.060497	-0.983813	-0.528744
C42	C	-0.950769	-0.983768	-0.528720
C43	C	-0.895915	-1.033974	-0.478545
C44	C	-0.232140	-1.134495	-0.378257
C45	C	-0.115363	-1.134524	-0.378272
C46	C	-0.506089	-1.134465	-0.582965
C47	C	-0.506052	-1.134482	-0.670215
C48	C	-0.506203	-0.339171	-0.378238
C49	C	-0.506202	-0.426420	-0.378230
C50	C	-0.573135	-1.184742	-1.046029
C51	C	-0.573165	-1.184722	-0.964048
C52	C	-0.505978	-1.134532	-0.923064
C53	C	-0.438763	-1.084353	-0.964065
C54	C	-0.438739	-1.084370	-1.046044
C55	C	-0.438817	-1.084324	-0.793195
C56	C	-0.438840	-1.084308	-0.711210
C57	C	-0.573244	-1.184676	-0.711199
C58	C	-0.573220	-1.184693	-0.793178
C59	C	-0.506003	-1.134514	-0.834173
C60	C	-0.506183	-1.134433	-0.174273
C61	C	-0.505923	-1.134568	-0.087024
H62	H	-0.384436	-0.582808	-0.469466
O63	O	-0.645667	-0.423139	-0.273695
H64	H	-0.728149	-0.438871	-0.287033
O65	O	-0.645703	-1.238817	-0.837378
H66	H	-0.627721	-1.300430	-0.821653
O67	O	-1.119685	-1.339399	-0.173705
H68	H	-1.205196	-1.331002	-0.182163
H69	H	-0.906110	-1.326019	-0.186904
O70	O	-0.645664	-0.593555	-0.273691
H71	H	-0.692341	-0.551263	-0.238731
H72	H	-1.204710	-1.235026	-0.277974
O73	O	-0.645599	-1.238877	-1.090233
H74	H	-0.699024	-1.203733	-1.127573
O75	O	-1.233703	-1.034106	-0.478620
H76	H	-1.262639	-1.077474	-0.435312
H77	H	-0.806582	-1.234847	-0.277872
O78	O	-1.119662	-0.929657	-0.582852
H79	H	-1.205175	-0.938129	-0.574439
O80	O	-0.891594	-0.929562	-0.582801
H81	H	-0.948179	-0.894655	-0.617685
H82	H	-0.384406	-0.835655	-0.469448
O83	O	-0.777572	-1.033912	-0.478525
H84	H	-0.748556	-1.093094	-0.494437
H85	H	-0.627909	-1.225569	-0.930674
O86	O	-0.645753	-1.238794	-0.666991
H87	H	-0.634497	-1.230345	-0.603100
H88	H	-0.384420	-0.686937	-0.469453
H89	H	-0.627905	-0.686836	-0.286971
O90	O	-0.645626	-0.846398	-0.273667
H91	H	-0.634335	-0.910294	-0.282103
H92	H	-0.384063	-1.043484	-0.930689
O93	O	-0.366374	-1.030174	-0.667007
H94	H	-0.377676	-1.038603	-0.603115
O95	O	-0.366316	-1.030209	-0.837415
H96	H	-0.319589	-0.995313	-0.795146
H97	H	-0.384007	-1.043514	-1.079421
H98	H	-0.384448	-0.434080	-0.469471
