data_functionalizedCrystal
_audit_creation_method	'MofGen! by Chris Wilmer'
_symmetry_space_group_name_H-M	'P1'
_symmetry_Int_Tables_number	1
_symmetry_cell_setting	triclinic
loop_
_symmetry_equiv_pos_as_xyz
  x,y,z
_cell_length_a	10.654553
_cell_length_b	10.654550
_cell_length_c	13.448316
_cell_angle_alpha	89.994587
_cell_angle_beta	89.992798
_cell_angle_gamma	84.485540
loop_
_atom_site_label
_atom_site_type_symbol
_atom_site_fract_x
_atom_site_fract_y
_atom_site_fract_z
O1	O	1.667843	0.176420	-0.082700
O2	O	1.302365	0.193222	-0.082700
O3	O	1.493507	0.002082	-0.082696
O4	O	1.476701	0.367560	-0.082704
O5	O	1.493482	0.002070	0.082688
O6	O	1.302340	0.193210	0.082684
O7	O	1.667818	0.176408	0.082683
Cu8	Cu	1.485077	0.184808	0.097785
Cu9	Cu	1.485106	0.184822	-0.097801
O10	O	1.476676	0.367548	0.082680
C11	C	1.255555	0.191982	-0.000008
C12	C	1.116112	0.188288	-0.000007
C13	C	1.492261	-0.044722	-0.000006
C14	C	1.488569	-0.184165	-0.000009
C15	C	0.919558	0.183068	0.090137
C16	C	1.050579	0.186546	0.090142
C17	C	1.050615	0.186566	-0.090168
C18	C	0.919596	0.183097	-0.090173
C19	C	0.919539	0.183051	0.194238
C20	C	1.050560	0.186529	0.194243
C21	C	1.601110	-0.263650	-0.000006
C22	C	1.597634	-0.394670	-0.000013
C23	C	1.369064	-0.366710	-0.000022
C24	C	1.372542	-0.235691	-0.000022
C25	C	1.733073	-0.279794	0.000003
C26	C	1.729596	-0.410815	-0.000004
C27	C	1.714628	0.177649	-0.000011
C28	C	1.854072	0.181342	-0.000017
C29	C	1.477922	0.414352	-0.000013
C30	C	1.481614	0.553796	-0.000016
N31	N	1.485066	0.184797	0.235349
N32	N	1.485127	0.184823	-0.235365
C33	C	1.569731	0.100196	0.287391
C34	C	1.569738	0.100195	0.391494
C35	C	1.485087	0.184802	0.443554
C36	C	1.400413	0.269408	0.391504
C37	C	1.400400	0.269402	0.287403
C38	C	1.400448	0.269417	0.608485
C39	C	1.400462	0.269425	0.712593
C40	C	1.569786	0.100210	0.712575
C41	C	1.569773	0.100204	0.608474
C42	C	1.485101	0.184811	0.556432
H43	H	0.866280	0.181708	-0.163585
H44	H	1.784698	-0.250430	-0.069205
Cl45	Cl	1.132998	0.188770	-0.203500
H46	H	0.873249	0.269838	0.234207
Cl47	Cl	1.797913	-0.224783	0.110258
Cl48	Cl	1.791184	-0.481286	-0.110248
Cl49	Cl	1.122019	0.052524	0.255949
H50	H	1.779308	-0.452579	0.069207
Cl51	Cl	1.293986	0.375768	0.456948
Cl52	Cl	1.231056	-0.135771	-0.000050
H53	H	1.638669	0.031304	0.245011
Cl54	Cl	1.293955	0.375759	0.221980
Cl55	Cl	1.676174	-0.006164	0.456920
H56	H	0.889961	0.091451	0.226537
H57	H	1.080120	0.278128	0.226544
H58	H	1.638709	0.031316	0.566087
H59	H	1.274599	-0.408679	-0.000033
H60	H	1.638729	0.031319	0.754954
H61	H	1.331529	0.338320	0.754975
Cl62	Cl	1.293997	0.375781	0.543064
