data_functionalizedCrystal
_audit_creation_method	'MofGen! by Chris Wilmer'
_symmetry_space_group_name_H-M	'P1'
_symmetry_Int_Tables_number	1
_symmetry_cell_setting	triclinic
loop_
_symmetry_equiv_pos_as_xyz
  x,y,z
_cell_length_a	14.971486
_cell_length_b	10.489741
_cell_length_c	13.448316
_cell_angle_alpha	89.993703
_cell_angle_beta	89.998199
_cell_angle_gamma	84.076651
loop_
_atom_site_label
_atom_site_type_symbol
_atom_site_fract_x
_atom_site_fract_y
_atom_site_fract_z
O1	O	1.187893	0.166222	-0.082577
O2	O	0.927607	0.186128	-0.082604
O3	O	1.063673	-0.009491	-0.082584
O4	O	1.051827	0.361841	-0.082597
O5	O	1.063655	-0.009503	0.082800
O6	O	0.927589	0.186116	0.082780
O7	O	1.187876	0.166210	0.082807
Cu8	Cu	1.057731	0.176162	0.097894
Cu9	Cu	1.057752	0.176176	-0.097691
O10	O	1.051810	0.361829	0.082787
C11	C	0.894268	0.185232	0.000085
C12	C	0.794956	0.182564	0.000074
C13	C	0.738385	0.297485	0.000072
C14	C	0.645071	0.294971	0.000087
C15	C	0.608330	0.177534	0.000097
C16	C	0.664909	0.062604	0.000103
C17	C	0.758221	0.065120	0.000095
C18	C	0.470416	0.057369	0.000117
C19	C	0.377098	0.054853	0.000123
C20	C	0.357267	0.287220	0.000108
C21	C	0.450579	0.289736	0.000101
C22	C	0.507151	0.174805	0.000104
C23	C	1.062769	-0.057019	0.000107
C24	C	1.060093	-0.198617	0.000105
C25	C	0.973518	-0.265755	0.000089
C26	C	1.014406	-0.358357	0.081636
C27	C	1.014444	-0.358320	-0.081419
C28	C	1.101017	-0.289354	0.081720
C29	C	1.101043	-0.289307	-0.081409
C30	C	1.141994	-0.381882	0.000158
C31	C	1.221215	0.167106	0.000116
C32	C	1.320527	0.169774	0.000120
C33	C	1.052713	0.409357	0.000094
C34	C	1.055390	0.550955	0.000089
N35	N	1.057723	0.176151	0.235459
N36	N	1.057766	0.176177	-0.235255
C37	C	1.117992	0.089567	0.287508
C38	C	1.117998	0.089566	0.391611
C39	C	1.057738	0.176156	0.443663
C40	C	0.997462	0.262745	0.391607
C41	C	0.997453	0.262739	0.287505
C42	C	0.997487	0.262753	0.608587
C43	C	0.997497	0.262761	0.712695
C44	C	1.118032	0.089580	0.712693
C45	C	1.118023	0.089574	0.608591
C46	C	1.057748	0.176165	0.556542
H47	H	0.599014	0.388551	0.000083
H48	H	0.516476	-0.036219	0.000121
N49	N	0.965869	-0.398882	0.172942
H50	H	0.964926	-0.495017	0.172593
H51	H	0.997956	-0.372483	0.234485
N52	N	0.625277	-0.064055	0.000126
H53	H	0.587001	-0.070277	-0.061179
H54	H	0.675322	-0.136406	0.000168
N55	N	0.490210	0.416395	0.000070
H56	H	0.440214	0.488822	0.000068
H57	H	0.528500	0.422502	0.061373
H58	H	1.137610	-0.258951	0.150739
N59	N	1.183024	-0.003809	0.447735
H60	H	1.148509	-0.060389	0.490940
H61	H	1.221180	-0.058554	0.398886
H62	H	1.213239	-0.432131	0.000211
H63	H	1.167095	0.019072	0.566211
N64	N	0.932483	0.356149	0.552442
H65	H	0.892564	0.307312	0.509263
H66	H	0.894372	0.410988	0.601272
N67	N	1.149529	-0.248729	-0.172727
H68	H	1.151484	-0.152783	-0.171695
H69	H	1.212782	-0.292772	-0.173325
N70	N	0.965912	-0.398783	-0.172739
H71	H	0.997977	-0.372438	-0.234325
H72	H	0.964973	-0.494914	-0.172316
H73	H	1.167067	0.019060	0.245134
N74	N	1.183046	-0.003813	0.768824
H75	H	1.173908	0.009322	0.842670
H76	H	1.172139	-0.094327	0.750637
N77	N	0.777999	0.424157	0.000061
H78	H	0.816276	0.430378	0.061365
H79	H	0.816223	0.430313	-0.061292
H80	H	0.948426	0.333271	0.755071
N81	N	0.296256	0.411184	0.000101
H82	H	0.231568	0.391775	0.000112
H83	H	0.308240	0.462361	0.061403
H84	H	0.948375	0.333243	0.245128
N85	N	0.337455	-0.071798	0.000142
H86	H	0.358024	-0.122165	-0.061159
H87	H	0.358034	-0.122048	0.061498
N88	N	0.819241	-0.058829	0.000105
H89	H	0.781809	-0.133608	0.000113
H90	H	0.858390	-0.062848	-0.061205
N91	N	0.879236	-0.198883	0.000179
H92	H	0.846186	-0.225015	-0.060780
H93	H	0.846719	-0.223830	0.061871
H94	H	0.948393	0.333244	0.433993
