data_functionalizedCrystal
_audit_creation_method	'MofGen! by Chris Wilmer'
_symmetry_space_group_name_H-M	'P1'
_symmetry_Int_Tables_number	1
_symmetry_cell_setting	triclinic
loop_
_symmetry_equiv_pos_as_xyz
  x,y,z
_cell_length_a	14.044191
_cell_length_b	9.016244
_cell_length_c	14.044220
_cell_angle_alpha	90.002898
_cell_angle_beta	93.190327
_cell_angle_gamma	90.005095
loop_
_atom_site_label
_atom_site_type_symbol
_atom_site_fract_x
_atom_site_fract_y
_atom_site_fract_z
O1	O	1.277177	0.123275	0.230196
O2	O	1.777177	0.623275	0.730196
O3	O	1.000504	0.123294	0.221884
O4	O	1.500504	0.623294	0.721884
O5	O	1.134687	0.123270	0.087704
O6	O	1.634687	0.623270	0.587704
O7	O	1.142993	0.123299	0.364376
O8	O	1.642993	0.623299	0.864376
O9	O	1.134666	-0.123411	0.087706
O10	O	1.634666	0.376589	0.587706
O11	O	1.000483	-0.123387	0.221885
O12	O	1.500483	0.376613	0.721885
O13	O	1.277155	-0.123406	0.230198
O14	O	1.777155	0.376594	0.730198
Cu15	Cu	1.138817	-0.145920	0.226042
Cu16	Cu	1.638817	0.354080	0.726042
Cu17	Cu	1.138842	0.145808	0.226040
Cu18	Cu	1.638842	0.645808	0.726040
O19	O	1.142972	-0.123382	0.364377
O20	O	1.642972	0.376618	0.864377
C21	C	0.964872	-0.000044	0.218248
C22	C	1.464872	0.499956	0.718248
C23	C	0.858728	-0.000038	0.207401
C24	C	1.358728	0.499962	0.707401
C25	C	0.613270	-0.000047	0.264501
C26	C	1.113270	0.499953	0.764501
C27	C	0.664395	-0.000052	0.187585
C28	C	1.164395	0.499948	0.687585
C29	C	0.772532	-0.000044	0.198613
C30	C	1.272532	0.499956	0.698613
C31	C	0.505123	-0.000055	0.253474
C32	C	1.005123	0.499945	0.753474
N33	N	1.138807	-0.351106	0.226043
N34	N	1.638807	0.148894	0.726043
C35	C	1.066769	-0.586126	0.297542
C36	C	1.566769	-0.086126	0.797542
C37	C	1.066964	-0.414235	0.297845
C38	C	1.566964	0.085765	0.797845
C39	C	1.240264	-0.413449	0.256228
C40	C	1.740264	0.086551	0.756228
C41	C	1.239881	-0.585394	0.256743
C42	C	1.739881	-0.085394	0.756743
C43	C	1.110357	-0.585659	0.124181
C44	C	1.610357	-0.085659	0.624181
C45	C	1.108118	-0.413704	0.124658
C46	C	1.608118	0.086296	0.624658
C47	C	1.312788	-0.000064	0.233834
C48	C	1.812788	0.499936	0.733834
C49	C	1.418931	-0.000061	0.244681
C50	C	1.918931	0.499939	0.744681
C51	C	1.131041	-0.000071	0.052083
C52	C	1.631041	0.499929	0.552083
C53	C	1.120197	-0.000072	-0.054060
C54	C	1.620197	0.499928	0.445940
N55	N	1.138860	0.350995	0.226032
N56	N	1.638860	0.850995	0.726032
C57	C	1.100370	-0.000049	-0.248398
C58	C	1.600370	0.499951	0.251602
C59	C	1.177285	-0.000050	-0.299526
C60	C	1.677285	0.499950	0.200474
C61	C	1.166253	-0.000037	-0.407663
C62	C	1.666253	0.499963	0.092337
C63	C	1.111400	-0.000062	-0.140252
C64	C	1.611400	0.499938	0.359748
C65	C	1.146618	-0.000038	0.399998
C66	C	1.646618	0.499962	0.899998
C67	C	1.157463	-0.000027	0.506142
C68	C	1.657463	0.499973	1.006142
H69	H	0.626952	0.000045	0.113452
H70	H	1.126952	0.500045	0.613452
Br71	Br	1.197815	-0.653426	0.035319
Br72	Br	1.697815	-0.153426	0.535319
Br73	Br	0.675675	-0.000019	0.388054
Br74	Br	1.175675	0.499981	0.888054
H75	H	1.251419	0.000045	-0.262085
H76	H	1.751419	0.500045	0.237915
H77	H	0.991820	-0.372088	0.278617
H78	H	1.491820	0.127912	0.778617
Br79	Br	0.941152	-0.655068	0.265800
Br80	Br	1.441152	-0.155068	0.765800
H81	H	1.026242	-0.000041	-0.285837
H82	H	1.526242	0.499959	0.214163
H83	H	1.085635	-0.629313	0.372514
H84	H	1.585635	-0.129313	0.872514
H85	H	1.086036	-0.373082	0.373252
H86	H	1.586036	0.126918	0.873252
H87	H	1.295648	-0.626985	0.207163
H88	H	1.795648	-0.126985	0.707163
Br89	Br	1.279599	-0.652210	0.380974
Br90	Br	1.779599	-0.152210	0.880974
Br91	Br	1.332391	-0.345303	0.172315
Br92	Br	1.832391	0.154697	0.672315
H93	H	1.037530	-0.629104	0.097247
H94	H	1.537530	-0.129104	0.597247
Br95	Br	1.280566	-0.341643	0.379133
Br96	Br	1.780566	0.158357	0.879133
Br97	Br	0.983651	-0.345800	0.086800
Br98	Br	1.483651	0.154200	0.586800
Br99	Br	1.188869	-0.342114	0.030720
Br100	Br	1.688869	0.157886	0.530720
