data_functionalizedCrystal
_audit_creation_method	'MofGen! by Chris Wilmer'
_symmetry_space_group_name_H-M	'P1'
_symmetry_Int_Tables_number	1
_symmetry_cell_setting	triclinic
loop_
_symmetry_equiv_pos_as_xyz
  x,y,z
_cell_length_a	23.532407
_cell_length_b	23.532361
_cell_length_c	22.610064
_cell_angle_alpha	89.989007
_cell_angle_beta	89.996958
_cell_angle_gamma	97.160828
loop_
_atom_site_label
_atom_site_type_symbol
_atom_site_fract_x
_atom_site_fract_y
_atom_site_fract_z
O1	O	-0.069007	0.755286	-0.049116
O2	O	-0.079038	0.589419	-0.049129
O3	O	0.008910	0.677354	-0.049129
O4	O	-0.156955	0.667350	-0.049115
O5	O	0.008910	0.677328	0.049240
O6	O	-0.079038	0.589393	0.049240
O7	O	-0.069007	0.755260	0.049253
Zn8	Zn	-0.074023	0.672322	0.064865
Zn9	Zn	-0.074023	0.672356	-0.064741
O10	O	-0.156955	0.667325	0.049254
C11	C	-0.078787	0.568189	0.000054
C12	C	-0.078032	0.504971	0.000049
C13	C	-0.074728	0.231741	-0.053569
C14	C	-0.075443	0.291141	-0.053571
O15	O	-0.075793	0.321879	-0.099172
N16	N	-0.075804	0.320832	0.000051
C17	C	-0.075445	0.291122	0.053677
O18	O	-0.075817	0.321832	0.099286
C19	C	-0.074726	0.231724	0.053678
C20	C	-0.074370	0.202035	0.000053
C21	C	-0.074372	0.202052	-0.107190
C22	C	-0.073658	0.142656	-0.107188
C23	C	-0.073301	0.112949	-0.053566
C24	C	-0.073657	0.142639	0.000055
C25	C	-0.074362	0.202015	0.107303
C26	C	-0.073642	0.142613	0.107299
C27	C	-0.073287	0.112924	0.053675
C28	C	-0.072585	0.053537	0.053678
N29	N	-0.072224	0.023845	0.000057
C30	C	-0.072582	0.053551	-0.053565
C31	C	-0.076954	0.415862	0.053671
C32	C	-0.077677	0.475259	0.053671
C33	C	-0.077674	0.475273	-0.053577
C34	C	-0.076955	0.415875	-0.053576
C35	C	-0.076593	0.386171	0.000050
C36	C	-0.071083	-0.071184	-0.053558
C37	C	-0.070372	-0.130586	-0.053551
C38	C	-0.070371	-0.130595	0.053696
C39	C	-0.071086	-0.071199	0.053690
C40	C	-0.071440	-0.041495	0.000058
O41	O	-0.072232	0.022761	0.099256
O42	O	-0.072202	0.022836	-0.099166
C43	C	-0.178171	0.667592	0.000071
C44	C	-0.241388	0.668358	0.000077
C45	C	-0.640499	0.621124	0.000043
C46	C	-0.699899	0.621835	0.000039
O47	O	-0.736651	0.578048	0.000014
N48	N	-0.722517	0.674113	0.000044
C49	C	-0.685730	0.725682	0.000047
O50	O	-0.710423	0.770214	0.000050
C51	C	-0.626331	0.724970	0.000046
C52	C	-0.603718	0.672689	0.000048
C53	C	-0.617885	0.568847	0.000044
C54	C	-0.558489	0.568136	0.000049
C55	C	-0.521707	0.619701	0.000053
C56	C	-0.544322	0.671978	0.000053
C57	C	-0.589546	0.776539	0.000045
C58	C	-0.530144	0.775822	0.000044
C59	C	-0.507530	0.723541	0.000046
C60	C	-0.448144	0.722832	0.000063
N61	N	-0.425527	0.670555	0.000058
C62	C	-0.462308	0.618989	0.000053
C63	C	-0.810473	0.727174	0.000046
C64	C	-0.869870	0.727886	0.000050
C65	C	-0.884035	0.624039	0.000041
C66	C	-0.824636	0.623327	0.000041
C67	C	-0.787855	0.674896	0.000041
C68	C	-0.337572	0.617499	0.000065
C69	C	-0.278170	0.616793	0.000072
C70	C	-0.264010	0.720640	0.000078
C71	C	-0.323407	0.721347	0.000073
C72	C	-0.360187	0.669772	0.000065
O73	O	-0.411357	0.766596	0.000085
O74	O	-0.437608	0.574465	0.000042
C75	C	0.030126	0.677086	0.000052
C76	C	0.093343	0.676320	0.000042
C77	C	-0.069258	0.776489	0.000069
C78	C	-0.070014	0.839708	0.000071
N79	N	-0.074022	0.672304	0.153318
N80	N	-0.074018	0.672380	-0.153193
C81	C	-0.108377	0.706702	0.561965
C82	C	-0.108376	0.706709	0.623885
O83	O	-0.137582	0.735933	0.655909
N84	N	-0.074016	0.672367	0.654855
C85	C	-0.039651	0.638021	0.623901
O86	O	-0.010425	0.608811	0.655929
C87	C	-0.039650	0.638017	0.561983
C88	C	-0.074016	0.672356	0.531016
C89	C	-0.142741	0.741039	0.530998
C90	C	-0.142743	0.741031	0.469083
C91	C	-0.108382	0.706685	0.438134
C92	C	-0.074018	0.672348	0.469100
C93	C	-0.005282	0.603674	0.531030
C94	C	-0.005284	0.603673	0.469107
C95	C	-0.039650	0.638013	0.438141
C96	C	-0.039659	0.637995	0.376236
N97	N	-0.074019	0.672336	0.345266
C98	C	-0.108380	0.706682	0.376215
C99	C	-0.039656	0.638032	0.753935
C100	C	-0.039659	0.638032	0.815853
C101	C	-0.108384	0.706721	0.815832
C102	C	-0.108382	0.706717	0.753913
C103	C	-0.074015	0.672373	0.722965
C104	C	-0.108383	0.706662	0.246188
C105	C	-0.108383	0.706649	0.184266
C106	C	-0.039657	0.637962	0.184293
C107	C	-0.039658	0.637973	0.246208
C108	C	-0.074023	0.672327	0.277154
O109	O	-0.010466	0.608788	0.344173
O110	O	-0.137596	0.735892	0.344179
H111	H	-0.070084	-0.154756	-0.097221
C112	C	-0.894742	0.785393	0.000059
H113	H	-0.935386	0.778438	0.000061
H114	H	-0.882090	0.806622	-0.034241
H115	H	-0.882099	0.806597	0.034371
H116	H	-0.780528	0.769170	0.000050
H117	H	-0.071386	-0.047026	0.097356
H118	H	-0.500199	0.817817	0.000041
H119	H	-0.136365	0.734637	0.271376
C120	C	-0.658336	0.512120	0.000043
H121	H	-0.636352	0.480889	0.000048
H122	H	-0.681803	0.510238	-0.034258
H123	H	-0.681801	0.510230	0.034353
H124	H	-0.071372	-0.047006	-0.097230
H125	H	0.022703	0.575711	0.556233
C126	C	-0.799766	0.565819	0.000034
H127	H	-0.830184	0.535213	0.000027
H128	H	-0.776890	0.563368	0.034335
H129	H	-0.776890	0.563392	-0.034277
C130	C	-0.078075	0.507912	0.112657
H131	H	-0.078556	0.547543	0.104982
H132	H	-0.044743	0.502705	0.134688
H133	H	-0.111179	0.493637	0.134688
H134	H	-0.076666	0.391706	-0.097242
C135	C	-0.076566	0.383190	0.112663
H136	H	-0.076890	0.409384	0.144594
H137	H	-0.043072	0.364552	0.114898
H138	H	-0.109508	0.355486	0.114895
C139	C	-0.078065	0.507959	-0.112561
H140	H	-0.078539	0.547586	-0.104877
H141	H	-0.111162	0.493696	-0.134594
H142	H	-0.044727	0.502766	-0.134595
H143	H	-0.234052	0.762623	0.000085
H144	H	0.022703	0.575706	0.443913
C145	C	-0.146185	0.744425	0.150204
H146	H	-0.141271	0.739500	0.108894
H147	H	-0.135399	0.783452	0.160339
H148	H	-0.185210	0.733617	0.160359
H149	H	-0.074662	0.226233	-0.150858
H150	H	-0.341820	0.763918	0.000081
H151	H	-0.136367	0.734679	0.728704
C152	C	-0.074754	0.234661	0.166292
H153	H	-0.074432	0.208454	0.198222
H154	H	-0.108249	0.253297	0.168529
H155	H	-0.041814	0.262366	0.168522
H156	H	-0.073352	0.118430	0.150969
H157	H	-0.073367	0.118488	-0.150855
C158	C	-0.001862	0.600253	0.849909
H159	H	0.018602	0.579801	0.822604
H160	H	-0.025335	0.573911	0.874074
H161	H	0.024477	0.623744	0.874053
C162	C	-0.069929	-0.163273	0.112676
H163	H	-0.069432	-0.202897	0.104992
H164	H	-0.103245	-0.158095	0.134747
H165	H	-0.036810	-0.148990	0.134671
H166	H	-0.607948	0.819111	0.000044
H167	H	-0.170725	0.768996	0.443875
H168	H	-0.136363	0.734686	0.841042
H169	H	-0.913994	0.582052	0.000038
C170	C	-0.253298	0.559282	0.000069
H171	H	-0.283714	0.528675	0.000058
H172	H	-0.230425	0.556832	0.034373
H173	H	-0.230417	0.556856	-0.034239
C174	C	-0.378021	0.560769	0.000060
H175	H	-0.356038	0.529537	0.000066
H176	H	-0.401484	0.558889	-0.034244
H177	H	-0.401490	0.558878	0.034367
C178	C	-0.180545	0.778818	0.565033
H179	H	-0.201010	0.799261	0.537714
H180	H	-0.157078	0.805168	0.589182
H181	H	-0.206883	0.755328	0.589190
C182	C	-0.001874	0.600183	0.280273
H183	H	0.018587	0.579725	0.252970
H184	H	-0.025357	0.573848	0.304435
H185	H	0.024469	0.623668	0.304420
H186	H	-0.011672	0.610059	0.728741
C187	C	-0.533621	0.510627	0.000042
H188	H	-0.564040	0.480022	0.000032
H189	H	-0.510747	0.508173	0.034344
H190	H	-0.510743	0.508199	-0.034268
C191	C	-0.001856	0.600192	0.150241
H192	H	-0.006775	0.605116	0.108930
H193	H	-0.012631	0.561164	0.160394
H194	H	0.037169	0.611010	0.160384
