data_functionalizedCrystal
_audit_creation_method	'MofGen! by Chris Wilmer'
_symmetry_space_group_name_H-M	'P1'
_symmetry_Int_Tables_number	1
_symmetry_cell_setting	triclinic
loop_
_symmetry_equiv_pos_as_xyz
  x,y,z
_cell_length_a	12.645331
_cell_length_b	12.645330
_cell_length_c	17.077396
_cell_angle_alpha	89.973796
_cell_angle_beta	89.984878
_cell_angle_gamma	90.013057
loop_
_atom_site_label
_atom_site_type_symbol
_atom_site_fract_x
_atom_site_fract_y
_atom_site_fract_z
Zn1	Zn	1.620738	-0.422028	-0.443763
Zn2	Zn	1.620644	-0.599313	-0.312503
Zn3	Zn	1.443462	-0.422066	-0.312521
Zn4	Zn	1.443450	-0.599251	-0.443736
O5	O	1.532074	-0.510664	-0.378131
O6	O	1.769073	-0.445555	-0.426355
O7	O	1.597106	-0.575843	-0.202658
O8	O	1.467022	-0.273713	-0.329950
O9	O	1.769004	-0.575806	-0.329918
O10	O	1.597266	-0.273686	-0.426373
O11	O	1.466931	-0.445620	-0.202672
O12	O	1.295113	-0.445559	-0.329924
O13	O	1.467002	-0.575700	-0.553587
O14	O	1.295104	-0.575737	-0.426327
O15	O	1.597255	-0.445495	-0.553607
O16	O	1.597095	-0.747652	-0.329892
O17	O	1.466911	-0.747606	-0.426309
C18	C	1.256644	-0.510646	-0.378125
C19	C	1.138814	-0.510664	-0.378141
C20	C	1.093962	-0.592698	-0.438699
C21	C	0.971402	-0.593035	-0.438519
C22	C	0.970868	-0.540501	-0.295313
C23	C	1.093467	-0.541080	-0.295664
C24	C	1.093656	-0.398619	-0.399686
C25	C	0.971051	-0.399238	-0.401510
C26	C	1.532020	-0.786094	-0.378112
C27	C	1.532095	-0.903924	-0.378131
C28	C	1.613862	-1.071473	-0.317352
C29	C	1.614128	-0.948912	-0.317501
C30	C	1.562389	-0.948308	-0.460873
C31	C	1.563038	-1.070906	-0.460550
C32	C	1.420001	-1.071252	-0.356983
C33	C	1.420538	-0.948647	-0.355127
C34	C	1.808579	-0.510684	-0.378138
C35	C	1.926409	-0.510692	-0.378140
C36	C	1.532138	-0.510586	-0.582875
C37	C	1.532165	-0.510553	-0.670125
C38	C	1.532156	-0.234159	-0.378167
C39	C	1.532191	-0.116329	-0.378182
C40	C	1.599990	-0.442750	-0.711127
C41	C	1.600003	-0.442714	-0.793107
C42	C	1.532195	-0.510489	-0.834085
C43	C	1.464363	-0.578295	-0.793077
C44	C	1.464345	-0.578324	-0.711098
C45	C	1.464405	-0.578231	-0.963947
C46	C	1.464424	-0.578204	-1.045932
C47	C	1.600063	-0.442621	-1.045957
C48	C	1.600046	-0.442651	-0.963978
C49	C	1.532214	-0.510459	-0.922976
C50	C	1.532071	-0.510666	-0.174183
C51	C	1.532249	-0.510400	-0.086934
H52	H	1.122039	-0.622969	-0.277454
O53	O	1.132781	-0.465351	-0.233829
H54	H	1.064224	-0.428484	-0.203804
O55	O	0.932277	-0.463788	-0.233897
H56	H	0.880871	-0.403462	-0.261822
O57	O	1.671665	-1.108675	-0.484332
H58	H	1.665293	-1.157491	-0.538124
H59	H	0.941344	-0.574440	-0.499924
H60	H	0.940147	-0.621499	-0.276794
O61	O	1.134650	-0.362526	-0.478338
H62	H	1.187671	-0.424054	-0.502953
O63	O	1.589202	-1.111487	-0.236055
H64	H	1.508582	-1.085701	-0.218858
H65	H	1.409206	-0.633389	-1.079293
O66	O	1.724194	-0.909948	-0.336078
H67	H	1.753826	-0.861256	-0.286671
O68	O	1.486012	-0.909683	-0.522523
H69	H	1.509174	-0.942156	-0.580412
H70	H	1.655267	-0.387469	-0.930616
O71	O	1.487680	-1.110220	-0.522638
H72	H	1.450942	-1.041663	-0.552765
H73	H	1.122662	-0.337504	-0.355583
O74	O	1.391235	-0.651358	-0.919722
H75	H	1.409396	-0.734557	-0.935439
H76	H	1.643468	-0.917519	-0.479130
O77	O	1.383506	-1.112303	-0.278449
H78	H	1.444932	-1.165300	-0.253648
H79	H	1.655292	-0.387408	-1.079344
O80	O	1.390262	-0.910234	-0.274474
H81	H	1.454389	-0.859494	-0.250865
O82	O	1.673168	-0.369590	-0.837329
H83	H	1.625751	-0.315625	-0.874676
H84	H	1.359149	-1.100261	-0.401288
O85	O	1.335574	-0.908100	-0.409505
H86	H	1.371693	-0.855209	-0.453979
O87	O	1.133043	-0.568357	-0.520296
H88	H	1.220730	-0.572039	-0.521306
H89	H	1.655210	-0.387563	-0.677769
O90	O	0.932546	-0.369423	-0.482243
H91	H	0.881822	-0.433707	-0.505634
O92	O	0.930504	-0.314008	-0.347378
H93	H	0.842873	-0.311237	-0.350451
O94	O	1.589045	-0.909155	-0.236232
H95	H	1.576617	-0.977495	-0.196469
O96	O	1.723350	-1.112153	-0.335716
H97	H	1.719852	-1.164180	-0.387982
O98	O	1.391219	-0.651387	-0.837274
H99	H	1.409360	-0.734596	-0.821525
O100	O	1.134720	-0.702059	-0.419996
H101	H	1.186781	-0.698241	-0.367755
O102	O	0.932509	-0.703013	-0.419568
H103	H	1.001267	-0.756162	-0.410489
H104	H	1.409104	-0.633526	-0.677715
