data_functionalizedCrystal
_audit_creation_method	'MofGen! by Chris Wilmer'
_symmetry_space_group_name_H-M	'P1'
_symmetry_Int_Tables_number	1
_symmetry_cell_setting	triclinic
loop_
_symmetry_equiv_pos_as_xyz
  x,y,z
_cell_length_a	16.109301
_cell_length_b	16.109301
_cell_length_c	15.186229
_cell_angle_alpha	89.994299
_cell_angle_beta	89.998755
_cell_angle_gamma	83.461481
loop_
_atom_site_label
_atom_site_type_symbol
_atom_site_fract_x
_atom_site_fract_y
_atom_site_fract_z
O1	O	-1.103131	-0.106867	0.073176
O2	O	-0.769798	0.226467	0.406509
O3	O	-0.436465	0.559800	0.739842
O4	O	-0.861069	-0.120166	0.073190
O5	O	-0.527736	0.213167	0.406523
O6	O	-0.194403	0.546501	0.739857
O7	O	-0.988750	0.007515	0.073174
O8	O	-0.655417	0.340848	0.406507
O9	O	-0.322083	0.674181	0.739840
O10	O	-0.975451	-0.234547	0.073192
O11	O	-0.642117	0.098786	0.406526
O12	O	-0.308784	0.432119	0.739859
O13	O	-0.988740	0.007518	-0.073284
O14	O	-0.655407	0.340851	0.260050
O15	O	-0.322073	0.674184	0.593383
O16	O	-0.861059	-0.120163	-0.073267
O17	O	-0.527726	0.213170	0.260066
O18	O	-0.194393	0.546504	0.593399
O19	O	-1.103121	-0.106864	-0.073282
O20	O	-0.769788	0.226470	0.260052
O21	O	-0.436455	0.559803	0.593385
Zn22	Zn	-0.982089	-0.113513	-0.096528
Zn23	Zn	-0.648756	0.219820	0.236806
Zn24	Zn	-0.315422	0.553154	0.570139
Zn25	Zn	-0.982102	-0.113517	0.096436
Zn26	Zn	-0.648769	0.219817	0.429769
Zn27	Zn	-0.315435	0.553150	0.763103
O28	O	-0.975441	-0.234544	-0.073265
O29	O	-0.642107	0.098789	0.260068
O30	O	-0.308774	0.432122	0.593402
C31	C	-0.830090	-0.119626	-0.000037
C32	C	-0.496756	0.213708	0.333296
C33	C	-0.163423	0.547041	0.666630
C34	C	-0.737794	-0.118011	-0.000032
C35	C	-0.404461	0.215323	0.333302
C36	C	-0.071128	0.548656	0.666635
C37	C	-0.988206	0.038491	-0.000056
C38	C	-0.654873	0.371824	0.333278
C39	C	-0.321540	0.705158	0.666611
C40	C	-0.986591	0.130786	-0.000057
C41	C	-0.653258	0.464120	0.333277
C42	C	-0.319925	0.797453	0.666610
C43	C	-1.134101	-0.107404	-0.000053
C44	C	-0.800768	0.225929	0.333281
C45	C	-0.467435	0.559263	0.666614
C46	C	-1.226397	-0.109019	-0.000052
C47	C	-0.893063	0.224314	0.333281
C48	C	-0.559730	0.557648	0.666615
C49	C	-0.515522	-0.190018	-0.000036
C50	C	-0.182188	0.143315	0.333297
C51	C	0.151145	0.476648	0.666630
C52	C	-0.428801	-0.188494	-0.000042
C53	C	-0.095468	0.144839	0.333291
C54	C	0.237865	0.478172	0.666625
C55	C	-0.448676	-0.037006	-0.000050
C56	C	-0.115342	0.296328	0.333283
C57	C	0.217991	0.629661	0.666617
C58	C	-0.535394	-0.038530	-0.000051
C59	C	-0.202061	0.294803	0.333283
C60	C	0.131272	0.628136	0.666616
C61	C	-0.568815	-0.115039	-0.000039
C62	C	-0.235482	0.218294	0.333294
C63	C	0.097852	0.551627	0.666627
C64	C	-0.395376	-0.111990	-0.000045
C65	C	-0.062042	0.221343	0.333289
C66	C	0.271291	0.554676	0.666622
C67	C	-0.301350	-0.110337	-0.000051
C68	C	0.031984	0.222996	0.333283
C69	C	0.365317	0.556329	0.666616
C70	C	-0.662847	-0.116693	-0.000035
C71	C	-0.329514	0.216641	0.333299
C72	C	0.003820	0.549974	0.666632
C73	C	-0.975984	-0.265521	-0.000034
C74	C	-0.642651	0.067813	0.333299
C75	C	-0.309318	0.401146	0.666633
C76	C	-0.977600	-0.357816	-0.000027
C77	C	-0.644266	-0.024483	0.333306
C78	C	-0.310933	0.308851	0.666640
N79	N	-0.982086	-0.113510	-0.228220
N80	N	-0.648753	0.219824	0.105113
N81	N	-0.315419	0.553157	0.438446
C82	C	-1.058599	0.353059	-0.000047
C83	C	-0.725266	0.686392	0.333286
C84	C	-0.391932	1.019725	0.666620
C85	C	-1.057075	0.439779	-0.000040
C86	C	-0.723742	0.773112	0.333294
C87	C	-0.390408	1.106446	0.666627
C88	C	-0.905586	0.419905	-0.000034
C89	C	-0.572253	0.753238	0.333299
C90	C	-0.238919	1.086571	0.666633
C91	C	-0.907111	0.333186	-0.000035
C92	C	-0.573778	0.666519	0.333298
C93	C	-0.240444	0.999853	0.666631
C94	C	-0.983620	0.299766	-0.000046
C95	C	-0.650287	0.633099	0.333287
C96	C	-0.316953	0.966432	0.666621
C97	C	-0.980571	0.473205	-0.000038
C98	C	-0.647238	0.806538	0.333296
C99	C	-0.313904	1.139871	0.666629
C100	C	-0.978918	0.567231	-0.000030
C101	C	-0.645585	0.900564	0.333304
C102	C	-0.312251	1.233897	0.666637
C103	C	-0.985273	0.205734	-0.000052
C104	C	-0.651940	0.539067	0.333281
C105	C	-0.318607	0.872400	0.666614
C106	C	-1.038646	-0.056992	-0.546146
C107	C	-0.705313	0.276342	-0.212813
C108	C	-0.371979	0.609675	0.120521
C109	C	-1.038644	-0.056992	-0.453956
C110	C	-0.705310	0.276341	-0.120623
C111	C	-0.371977	0.609675	0.212710
C112	C	-0.925549	-0.170038	-0.453952
C113	C	-0.592215	0.163296	-0.120619
C114	C	-0.258882	0.496629	0.212715
C115	C	-0.925556	-0.170041	-0.546140
C116	C	-0.592222	0.163293	-0.212807
C117	C	-0.258889	0.496626	0.120527
C118	C	-0.982103	-0.113513	-0.592235
C119	C	-0.648770	0.219820	-0.258901
C120	C	-0.315437	0.553154	0.074432
C121	C	-0.982094	-0.113510	-0.407857
C122	C	-0.648761	0.219823	-0.074524
C123	C	-0.315427	0.553156	0.258810
C124	C	-0.982091	-0.113511	-0.307901
C125	C	-0.648758	0.219822	0.025433
C126	C	-0.315424	0.553156	0.358766
C127	C	-0.982107	-0.113513	-0.692197
C128	C	-0.648774	0.219820	-0.358864
C129	C	-0.315441	0.553154	-0.025530
N130	N	-0.982111	-0.113513	0.228129
N131	N	-0.648778	0.219820	0.561462
N132	N	-0.315445	0.553153	0.894795
H133	H	-0.542730	-0.252317	-0.000034
H134	H	-0.209396	0.081017	0.333300
H135	H	0.123937	0.414350	0.666633
H136	H	-0.385413	-0.249550	-0.000041
H137	H	-0.052080	0.083783	0.333292
H138	H	0.281254	0.417117	0.666625
F139	F	-0.413100	0.044416	-0.000058
F140	F	-0.079766	0.377749	0.333275
F141	F	0.253567	0.711083	0.666608
H142	H	-0.843295	0.447127	-0.000027
H143	H	-0.509962	0.780460	0.333306
H144	H	-0.176628	1.113793	0.666640
H145	H	-1.120897	0.325851	-0.000054
H146	H	-0.787564	0.659184	0.333279
H147	H	-0.454231	0.992518	0.666613
H148	H	-0.578788	0.022530	-0.000056
H149	H	-0.245455	0.355864	0.333278
H150	H	0.087878	0.689197	0.666611
H151	H	-0.846050	0.289792	-0.000032
H152	H	-0.512717	0.623126	0.333302
H153	H	-0.179384	0.956459	0.666635
F154	F	-1.098831	0.003168	-0.595200
F155	F	-0.765498	0.336502	-0.261866
F156	F	-0.432165	0.669835	0.071467
F157	F	-1.098826	0.003164	-0.404909
F158	F	-0.765492	0.336497	-0.071575
F159	F	-0.432159	0.669831	0.261758
F160	F	-0.865367	-0.230194	-0.404889
F161	F	-0.532034	0.103140	-0.071555
F162	F	-0.198701	0.436473	0.261778
H163	H	-0.879511	-0.216071	-0.583668
H164	H	-0.546178	0.117262	-0.250334
H165	H	-0.212845	0.450596	0.082999
H166	H	-1.118130	0.483168	-0.000039
H167	H	-0.784797	0.816501	0.333295
H168	H	-0.451464	1.149834	0.666628
