data_functionalizedCrystal
_audit_creation_method	'MofGen! by Chris Wilmer'
_symmetry_space_group_name_H-M	'P1'
_symmetry_Int_Tables_number	1
_symmetry_cell_setting	triclinic
loop_
_symmetry_equiv_pos_as_xyz
  x,y,z
_cell_length_a	17.038272
_cell_length_b	17.038272
_cell_length_c	15.500227
_cell_angle_alpha	93.043705
_cell_angle_beta	93.033254
_cell_angle_gamma	88.888444
loop_
_atom_site_label
_atom_site_type_symbol
_atom_site_fract_x
_atom_site_fract_y
_atom_site_fract_z
O1	O	0.167139	-1.052160	-0.071836
O2	O	0.164430	-0.824350	-0.071862
O3	O	0.051879	-0.936901	-0.071842
O4	O	0.279690	-0.939609	-0.071856
O5	O	0.058680	-0.930069	0.072045
O6	O	0.171231	-0.817518	0.072026
O7	O	0.173940	-1.045328	0.072051
Cu8	Cu	0.173207	-0.930799	0.085177
Cu9	Cu	0.165164	-0.938879	-0.084987
O10	O	0.286491	-0.932777	0.072032
C11	C	0.165368	-0.791641	0.000079
C12	C	0.158019	-0.704358	0.000069
N13	N	0.178864	-0.925122	0.204861
C14	C	0.025987	-0.931022	0.000101
C15	C	-0.061297	-0.923674	0.000100
C16	C	-0.106906	-0.991137	0.000108
C17	C	-0.188918	-0.984229	0.000100
C18	C	-0.225320	-0.909856	0.000088
C19	C	-0.179705	-0.842388	0.000077
C20	C	-0.097694	-0.849297	0.000080
C21	C	-0.472708	-0.885446	0.000074
C22	C	-0.554725	-0.878541	0.000074
C23	C	-0.563932	-1.020383	0.000094
C24	C	-0.481919	-1.027286	0.000102
C25	C	-0.436312	-0.959818	0.000087
C26	C	-0.309149	-0.902792	0.000082
C27	C	-0.352484	-0.966882	0.000087
C28	C	0.312383	-0.938656	0.000087
C29	C	0.399667	-0.946004	0.000082
C30	C	0.173003	-1.078037	0.000109
C31	C	0.180351	-1.165320	0.000113
C32	C	0.225482	-0.658749	0.000066
C33	C	0.218574	-0.576737	0.000078
C34	C	0.144201	-0.540335	0.000088
C35	C	0.076733	-0.585950	0.000094
C36	C	0.083642	-0.667961	0.000088
C37	C	0.119792	-0.292946	0.000112
C38	C	0.112887	-0.210929	0.000116
C39	C	0.254729	-0.201721	0.000102
C40	C	0.261632	-0.283734	0.000091
C41	C	0.194164	-0.329342	0.000101
C42	C	0.137138	-0.456505	0.000098
C43	C	0.201228	-0.413170	0.000098
N44	N	0.159501	-0.944561	-0.204671
C45	C	0.131192	-0.972833	0.250145
C46	C	0.135478	-0.968547	0.340718
C47	C	0.187440	-0.916555	0.386003
C48	C	0.235114	-0.868839	0.340712
C49	C	0.230823	-0.873121	0.250142
C50	C	0.202884	-0.901128	0.659467
C51	C	0.207172	-0.896851	0.750044
C52	C	0.107535	-0.996559	0.750044
C53	C	0.103252	-1.000840	0.659471
C54	C	0.150923	-0.953121	0.614188
C55	C	0.191824	-0.912174	0.478582
C56	C	0.146534	-0.957498	0.521610
H57	H	-0.077273	-1.051699	0.000123
C58	C	0.343440	-0.323774	0.000077
H59	H	0.337892	-0.379150	0.000063
H60	H	0.373827	-0.306070	0.050249
H61	H	0.369067	-0.310815	-0.050111
H62	H	-0.060560	-0.794361	0.000073
H63	H	0.064854	-0.330070	0.000122
H64	H	0.261782	-0.442811	0.000095
H65	H	-0.338796	-0.842237	0.000075
C66	C	0.328938	-0.151552	0.000102
H67	H	0.314175	-0.097495	0.000114
H68	H	0.356841	-0.165474	-0.050076
H69	H	0.361577	-0.160726	0.050284
H70	H	0.286045	-0.688381	0.000058
H71	H	-0.226049	-1.039164	0.000108
C72	C	0.292784	-0.526570	0.000072
H73	H	0.338066	-0.559996	0.000055
H74	H	0.295414	-0.492012	0.050252
H75	H	0.290662	-0.496761	-0.050108
C76	C	-0.614098	-1.094593	0.000102
H77	H	-0.580672	-1.139875	0.000114
H78	H	-0.648651	-1.097229	-0.050075
H79	H	-0.643912	-1.092465	0.050285
C80	C	0.283266	-0.820642	0.200328
H81	H	0.314833	-0.789069	0.240269
H82	H	0.251149	-0.787745	0.165006
H83	H	0.316182	-0.852741	0.164988
C84	C	-0.005076	-0.545911	0.000103
H85	H	0.000470	-0.490536	0.000096
H86	H	-0.030713	-0.558867	0.050280
H87	H	-0.035452	-0.563621	-0.050080
C88	C	0.055095	-1.049037	0.799857
H89	H	0.065085	-1.039037	0.860283
H90	H	0.066432	-1.102718	0.785005
H91	H	0.001405	-1.037717	0.785022
H92	H	-0.322844	-1.027437	0.000077
H93	H	0.052321	-0.181294	0.000123
H94	H	0.028706	-0.705095	0.000090
H95	H	-0.452287	-1.087848	0.000111
C96	C	0.292273	-0.811649	0.390524
H97	H	0.288008	-0.815937	0.450950
H98	H	0.279527	-0.759371	0.375692
H99	H	0.344557	-0.824370	0.375666
C100	C	0.074032	-1.030025	0.200339
H101	H	0.046249	-1.057819	0.240284
H102	H	0.102798	-1.066265	0.164996
H103	H	0.037768	-1.001266	0.165020
C104	C	0.083047	-1.021037	0.390527
H105	H	0.051495	-1.052624	0.350585
H106	H	0.050129	-0.988952	0.425871
H107	H	0.115176	-1.053935	0.425846
H108	H	-0.584359	-0.817974	0.000078
H109	H	0.076584	-0.426857	0.000130
C110	C	0.046089	-1.058027	0.609663
H111	H	0.018305	-1.085824	0.649606
H112	H	0.074857	-1.094266	0.574320
H113	H	0.009826	-1.029267	0.574345
H114	H	0.234135	-0.869842	0.515461
C115	C	-0.422550	-0.811233	0.000072
H116	H	-0.455977	-0.765952	0.000077
H117	H	-0.392732	-0.813355	-0.050102
H118	H	-0.388000	-0.808600	0.050257
H119	H	-0.209350	-0.781832	0.000063
C120	C	0.255327	-0.848646	0.609667
H121	H	0.286893	-0.817076	0.649612
H122	H	0.223213	-0.815745	0.574345
H123	H	0.288243	-0.880744	0.574327
H124	H	0.249490	-0.854510	0.786912
H125	H	0.104223	-0.999827	0.484736
