data_functionalizedCrystal
_audit_creation_method	'MofGen! by Chris Wilmer'
_symmetry_space_group_name_H-M	'P1'
_symmetry_Int_Tables_number	1
_symmetry_cell_setting	triclinic
loop_
_symmetry_equiv_pos_as_xyz
  x,y,z
_cell_length_a	16.992694
_cell_length_b	11.792241
_cell_length_c	10.868271
_cell_angle_alpha	89.998441
_cell_angle_beta	90.001136
_cell_angle_gamma	87.430819
loop_
_atom_site_label
_atom_site_type_symbol
_atom_site_fract_x
_atom_site_fract_y
_atom_site_fract_z
O1	O	1.041415	0.240748	-0.102169
O2	O	1.541415	0.740748	0.397831
O3	O	0.813118	0.238107	-0.102205
O4	O	1.313118	0.738107	0.397795
O5	O	0.932807	0.074710	-0.102178
O6	O	1.432807	0.574710	0.397822
O7	O	0.921727	0.404145	-0.102197
O8	O	1.421727	0.904145	0.397803
O9	O	0.932796	0.074715	0.102467
O10	O	1.432796	0.574715	0.602467
O11	O	0.813108	0.238111	0.102439
O12	O	1.313108	0.738111	0.602439
O13	O	1.041404	0.240753	0.102476
O14	O	1.541404	0.740753	0.602476
Zn15	Zn	0.927254	0.239433	0.134949
Zn16	Zn	1.427254	0.739433	0.634949
Zn17	Zn	0.927268	0.239427	-0.134679
Zn18	Zn	1.427268	0.739427	0.365321
O19	O	0.921716	0.404149	0.102448
O20	O	1.421716	0.904149	0.602448
C21	C	0.783886	0.234711	0.000112
C22	C	1.283886	0.734711	0.500112
C23	C	0.696799	0.224573	0.000099
C24	C	1.196799	0.724573	0.500099
C25	C	0.646974	0.322391	0.000094
C26	C	1.146974	0.822391	0.500094
C27	C	0.565147	0.312859	0.000112
C28	C	1.065147	0.812859	0.500112
C29	C	0.533146	0.205507	0.000125
C30	C	1.033146	0.705507	0.500125
C31	C	0.582977	0.107682	0.000134
C32	C	1.082977	0.607682	0.500134
C33	C	0.664803	0.117216	0.000125
C34	C	1.164803	0.617216	0.500125
C35	C	0.289380	0.165995	0.000160
C36	C	0.789380	0.665995	0.500160
C37	C	0.207548	0.156468	0.000165
C38	C	0.707548	0.656468	0.500165
C39	C	0.189724	0.361646	0.000146
C40	C	0.689724	0.861646	0.500146
C41	C	0.271552	0.371170	0.000130
C42	C	0.771552	0.871170	0.500130
C43	C	0.321376	0.273345	0.000145
C44	C	0.821376	0.773345	0.500145
N45	N	0.449506	0.195761	0.000139
N46	N	0.949506	0.695761	0.500139
N47	N	0.405014	0.283092	0.000139
N48	N	0.905014	0.783092	0.500139
C49	C	0.932105	0.032364	0.000144
C50	C	1.432105	0.532364	0.500144
C51	C	0.930022	-0.093820	0.000143
C52	C	1.430022	0.406180	0.500143
C53	C	0.926191	-0.324845	0.000121
C54	C	1.426191	0.175155	0.500121
C55	C	0.928320	-0.196286	0.000133
C56	C	1.428320	0.303714	0.500133
C57	C	1.070637	0.244148	0.000155
C58	C	1.570637	0.744148	0.500155
C59	C	1.157724	0.254286	0.000161
C60	C	1.657724	0.754286	0.500161
C61	C	0.922417	0.446495	0.000123
C62	C	1.422417	0.946495	0.500123
C63	C	0.924500	0.572679	0.000117
C64	C	1.424500	1.072679	0.500117
N65	N	0.927250	0.239437	0.318963
N66	N	1.427250	0.739437	0.818963
N67	N	0.927279	0.239414	-0.318693
N68	N	1.427279	0.739414	0.181307
C69	C	0.927256	0.239438	0.430301
C70	C	1.427256	0.739438	0.930301
C71	C	0.927266	0.239428	0.569978
C72	C	1.427266	0.739428	1.069978
H73	H	0.524583	0.392513	0.000106
H74	H	1.024583	0.892513	0.500106
H75	H	0.181497	0.069046	0.000175
H76	H	0.681497	0.569046	0.500175
H77	H	0.556916	0.020274	0.000162
H78	H	1.056916	0.520274	0.500162
H79	H	0.329938	0.086338	0.000173
H80	H	0.829938	0.586338	0.500173
H81	H	0.673022	0.409808	0.000082
H82	H	1.173022	0.909808	0.500082
H83	H	0.705370	0.037562	0.000128
H84	H	1.205370	0.537562	0.500128
H85	H	0.297600	0.458587	0.000105
H86	H	0.797600	0.958587	0.500105
H87	H	0.149149	0.441289	0.000136
H88	H	0.649149	0.941289	0.500136
