data_functionalizedCrystal
_audit_creation_method	'MofGen! by Chris Wilmer'
_symmetry_space_group_name_H-M	'P1'
_symmetry_Int_Tables_number	1
_symmetry_cell_setting	triclinic
loop_
_symmetry_equiv_pos_as_xyz
  x,y,z
_cell_length_a	14.519731
_cell_length_b	14.519731
_cell_length_c	8.140239
_cell_angle_alpha	89.995496
_cell_angle_beta	89.997185
_cell_angle_gamma	83.688853
loop_
_atom_site_label
_atom_site_type_symbol
_atom_site_fract_x
_atom_site_fract_y
_atom_site_fract_z
O1	O	1.223862	0.120982	-0.136621
O2	O	1.473862	0.370982	0.113379
O3	O	1.723862	0.620982	0.363379
O4	O	1.973862	0.870982	0.613379
O5	O	0.955389	0.135198	-0.136624
O6	O	1.205389	0.385198	0.113376
O7	O	1.455389	0.635198	0.363376
O8	O	1.705389	0.885198	0.613376
O9	O	1.096734	-0.006146	-0.136607
O10	O	1.346734	0.243854	0.113393
O11	O	1.596734	0.493854	0.363393
O12	O	1.846734	0.743854	0.613393
O13	O	1.082518	0.262327	-0.136637
O14	O	1.332518	0.512327	0.113363
O15	O	1.582518	0.762327	0.363363
O16	O	1.832518	1.012327	0.613363
O17	O	1.096726	-0.006148	0.136620
O18	O	1.346726	0.243852	0.386620
O19	O	1.596726	0.493852	0.636620
O20	O	1.846726	0.743852	0.886620
O21	O	0.955381	0.135196	0.136603
O22	O	1.205381	0.385196	0.386603
O23	O	1.455381	0.635196	0.636603
O24	O	1.705381	0.885196	0.886603
O25	O	1.223855	0.120981	0.136606
O26	O	1.473855	0.370981	0.386606
O27	O	1.723855	0.620981	0.636606
O28	O	1.973855	0.870981	0.886606
Zn29	Zn	1.089617	0.128088	0.179986
Zn30	Zn	1.339617	0.378088	0.429986
Zn31	Zn	1.589617	0.628088	0.679986
Zn32	Zn	1.839617	0.878088	0.929986
Zn33	Zn	1.089627	0.128090	-0.180003
Zn34	Zn	1.339627	0.378090	0.069997
Zn35	Zn	1.589627	0.628090	0.319997
Zn36	Zn	1.839627	0.878090	0.569997
O37	O	1.082510	0.262325	0.136590
O38	O	1.332510	0.512325	0.386590
O39	O	1.582510	0.762325	0.636590
O40	O	1.832510	1.012325	0.886590
C41	C	0.921026	0.134531	-0.000010
C42	C	1.171026	0.384531	0.249990
C43	C	1.421026	0.634531	0.499990
C44	C	1.671026	0.884531	0.749990
C45	C	0.818645	0.132535	-0.000011
C46	C	1.068645	0.382535	0.249989
C47	C	1.318645	0.632535	0.499989
C48	C	1.568645	0.882535	0.749989
C49	C	0.735501	0.130913	-0.000018
C50	C	0.985501	0.380913	0.249982
C51	C	1.235501	0.630913	0.499982
C52	C	1.485501	0.880913	0.749982
C53	C	0.631192	0.128887	-0.000018
C54	C	0.881192	0.378887	0.249982
C55	C	1.131192	0.628887	0.499982
C56	C	1.381192	0.878887	0.749982
C57	C	0.548053	0.127278	-0.000018
C58	C	0.798053	0.377278	0.249982
C59	C	1.048053	0.627278	0.499982
C60	C	1.298053	0.877278	0.749982
C61	C	0.443738	0.125252	-0.000021
C62	C	0.693738	0.375252	0.249979
C63	C	0.943738	0.625252	0.499979
C64	C	1.193738	0.875252	0.749979
C65	C	1.096064	-0.040507	0.000007
C66	C	1.346064	0.209493	0.250007
C67	C	1.596064	0.459493	0.500007
C68	C	1.846064	0.709493	0.750007
C69	C	1.094068	-0.142887	0.000008
C70	C	1.344068	0.107113	0.250008
C71	C	1.594068	0.357113	0.500008
C72	C	1.844068	0.607113	0.750008
C73	C	1.092446	-0.226031	0.000004
C74	C	1.342446	0.023969	0.250004
C75	C	1.592446	0.273969	0.500004
C76	C	1.842446	0.523969	0.750004
C77	C	1.090419	-0.330340	-0.000009
C78	C	1.340419	-0.080340	0.249991
C79	C	1.590419	0.169660	0.499991
C80	C	1.840419	0.419660	0.749991
C81	C	1.088811	-0.413479	-0.000019
C82	C	1.338811	-0.163479	0.249981
C83	C	1.588811	0.086521	0.499981
C84	C	1.838811	0.336521	0.749981
C85	C	1.086785	-0.517795	-0.000029
C86	C	1.336785	-0.267795	0.249971
C87	C	1.586785	-0.017795	0.499971
C88	C	1.836785	0.232205	0.749971
C89	C	1.258218	0.121648	-0.000011
C90	C	1.508218	0.371648	0.249989
C91	C	1.758218	0.621648	0.499989
C92	C	2.008218	0.871648	0.749989
C93	C	1.360598	0.123643	-0.000021
C94	C	1.610598	0.373643	0.249979
C95	C	1.860598	0.623643	0.499979
C96	C	2.110598	0.873643	0.749979
C97	C	1.083180	0.296685	-0.000028
C98	C	1.333180	0.546685	0.249972
C99	C	1.583180	0.796685	0.499972
C100	C	1.833180	1.046685	0.749972
C101	C	1.085176	0.399066	-0.000039
C102	C	1.335176	0.649066	0.249961
C103	C	1.585176	0.899066	0.499961
C104	C	1.835176	1.149066	0.749961
N105	N	1.089617	0.128086	0.425668
N106	N	1.339617	0.378086	0.675668
N107	N	1.589617	0.628086	0.925668
N108	N	1.839617	0.878086	1.175668
N109	N	1.089635	0.128085	-0.425685
N110	N	1.339635	0.378085	-0.175685
N111	N	1.589635	0.628085	0.074315
N112	N	1.839635	0.878085	0.324315
