data_functionalizedCrystal
_audit_creation_method	'MofGen! by Chris Wilmer'
_symmetry_space_group_name_H-M	'P1'
_symmetry_Int_Tables_number	1
_symmetry_cell_setting	triclinic
loop_
_symmetry_equiv_pos_as_xyz
  x,y,z
_cell_length_a	13.897447
_cell_length_b	13.897449
_cell_length_c	13.897441
_cell_angle_alpha	90.023394
_cell_angle_beta	90.029327
_cell_angle_gamma	90.020357
loop_
_atom_site_label
_atom_site_type_symbol
_atom_site_fract_x
_atom_site_fract_y
_atom_site_fract_z
Zn1	Zn	-0.383963	1.474690	0.545458
Zn2	Zn	-0.050629	1.808024	0.878792
Zn3	Zn	0.282704	2.141357	1.212125
Zn4	Zn	-0.545285	1.474579	0.384163
Zn5	Zn	-0.211951	1.807912	0.717496
Zn6	Zn	0.121382	2.141246	1.050830
Zn7	Zn	-0.384007	1.313379	0.384169
Zn8	Zn	-0.050674	1.646713	0.717502
Zn9	Zn	0.282659	1.980046	1.050836
Zn10	Zn	-0.545220	1.313356	0.545408
Zn11	Zn	-0.211887	1.646689	0.878742
Zn12	Zn	0.121447	1.980023	1.212075
O13	O	-0.464619	1.394001	0.464800
O14	O	-0.131285	1.727335	0.798133
O15	O	0.202048	2.060668	1.131466
O16	O	-0.405371	1.609657	0.524080
O17	O	-0.072038	1.942991	0.857414
O18	O	0.261296	2.276324	1.190747
O19	O	-0.523937	1.453159	0.249182
O20	O	-0.190603	1.786492	0.582516
O21	O	0.142730	2.119826	0.915849
O22	O	-0.249020	1.334834	0.405588
O23	O	0.084313	1.668167	0.738921
O24	O	0.417647	2.001501	1.072254
O25	O	-0.523893	1.609576	0.405578
O26	O	-0.190560	1.942909	0.738911
O27	O	0.142773	2.276242	1.072244
O28	O	-0.248987	1.453348	0.524086
O29	O	0.084346	1.786682	0.857420
O30	O	0.417680	2.120015	1.190753
O31	O	-0.405447	1.334726	0.249187
O32	O	-0.072114	1.668060	0.582520
O33	O	0.261220	2.001393	0.915853
O34	O	-0.405384	1.178395	0.405539
O35	O	-0.072051	1.511728	0.738873
O36	O	0.261282	1.845061	1.072206
O37	O	-0.523783	1.334794	0.680397
O38	O	-0.190450	1.668127	1.013730
O39	O	0.142884	2.001461	1.347063
O40	O	-0.523826	1.178378	0.524001
O41	O	-0.190493	1.511711	0.857334
O42	O	0.142840	1.845044	1.190668
O43	O	-0.405308	1.453326	0.680433
O44	O	-0.071975	1.786659	1.013767
O45	O	0.261358	2.119992	1.347100
O46	O	-0.680258	1.453136	0.405529
O47	O	-0.346924	1.786470	0.738863
O48	O	-0.013591	2.119803	1.072196
O49	O	-0.680210	1.334686	0.523995
O50	O	-0.346877	1.668020	0.857329
O51	O	-0.013543	2.001353	1.190662
C52	C	-0.464604	1.143387	0.464766
C53	C	-0.131271	1.476720	0.798099
C54	C	0.202063	1.810054	1.131433
C55	C	-0.464621	1.036173	0.464775
C56	C	-0.131287	1.369506	0.798108
C57	C	0.202046	1.702840	1.131441
C58	C	-0.464624	0.949103	0.464791
C59	C	-0.131291	1.282437	0.798124
C60	C	0.202043	1.615770	1.131457
C61	C	-0.464631	0.839871	0.464820
C62	C	-0.131297	1.173204	0.798153
C63	C	0.202036	1.506537	1.131487
C64	C	-0.715233	1.393923	0.464777
C65	C	-0.381900	1.727256	0.798111
C66	C	-0.048566	2.060589	1.131444
C67	C	-0.822447	1.393978	0.464800
C68	C	-0.489114	1.727311	0.798133
C69	C	-0.155780	2.060644	1.131467
C70	C	-0.909517	1.394024	0.464822
C71	C	-0.576183	1.727357	0.798155
C72	C	-0.242850	2.060691	1.131489
C73	C	-1.018749	1.394092	0.464847
C74	C	-0.685416	1.727425	0.798180
C75	C	-0.352082	2.060758	1.131513
C76	C	-0.213026	1.394106	0.464843
C77	C	0.120308	1.727440	0.798177
C78	C	0.453641	2.060773	1.131510
C79	C	-0.105812	1.394151	0.464862
C80	C	0.227522	1.727484	0.798195
C81	C	0.560855	2.060818	1.131528
C82	C	-0.464533	1.394070	0.716393
C83	C	-0.131200	1.727403	1.049726
C84	C	0.202133	2.060736	1.383059
C85	C	-0.464497	1.394099	0.823607
C86	C	-0.131164	1.727432	1.156940
C87	C	0.202170	2.060765	1.490273
C88	C	-0.464634	1.645594	0.464834
C89	C	-0.131301	1.978928	0.798167
C90	C	0.202032	2.312261	1.131501
C91	C	-0.464641	1.752808	0.464849
C92	C	-0.131308	2.086141	0.798182
C93	C	0.202026	2.419475	1.131515
C94	C	-0.464634	1.393989	0.214185
C95	C	-0.131301	1.727322	0.547519
C96	C	0.202033	2.060655	0.880852
C97	C	-0.464399	1.394146	0.106972
C98	C	-0.131065	1.727480	0.440305
C99	C	0.202268	2.060813	0.773639
C100	C	-0.464432	1.394125	1.019902
C101	C	-0.131099	1.727458	1.353235
C102	C	0.202235	2.060792	1.686569
C103	C	-0.464471	1.394107	0.910669
C104	C	-0.131137	1.727441	1.244003
C105	C	0.202196	2.060774	1.577336
