data_functionalizedCrystal
_audit_creation_method	'MofGen! by Chris Wilmer'
_symmetry_space_group_name_H-M	'P1'
_symmetry_Int_Tables_number	1
_symmetry_cell_setting	triclinic
loop_
_symmetry_equiv_pos_as_xyz
  x,y,z
_cell_length_a	14.044220
_cell_length_b	14.519709
_cell_length_c	12.996460
_cell_angle_alpha	89.992910
_cell_angle_beta	89.999501
_cell_angle_gamma	88.434511
loop_
_atom_site_label
_atom_site_type_symbol
_atom_site_fract_x
_atom_site_fract_y
_atom_site_fract_z
O1	O	-1.258085	-0.222370	0.085462
O2	O	-0.982102	-0.214346	0.085488
O3	O	-1.127411	-0.084710	0.085465
O4	O	-1.112776	-0.352006	0.085485
O5	O	-1.127396	-0.084701	-0.085669
O6	O	-0.982087	-0.214337	-0.085646
O7	O	-1.258070	-0.222361	-0.085672
Cu8	Cu	-1.120077	-0.218348	-0.101285
Cu9	Cu	-1.120095	-0.218359	0.101101
O10	O	-1.112761	-0.351997	-0.085649
C11	C	-0.946774	-0.210829	-0.000076
C12	C	-0.841531	-0.200352	-0.000066
C13	C	-1.126721	-0.050290	-0.000102
C14	C	-1.124677	0.052256	-0.000103
C15	C	-1.293398	-0.225878	-0.000106
C16	C	-1.398641	-0.236355	-0.000109
C17	C	-0.648837	-0.181197	-0.000088
C18	C	-0.591329	-0.255505	-0.000087
C19	C	-0.484108	-0.244848	-0.000099
C20	C	-0.756068	-0.191854	-0.000076
C21	C	-1.113451	-0.386416	-0.000080
C22	C	-1.115494	-0.488963	-0.000073
N23	N	-1.120071	-0.218341	-0.243632
C24	C	-1.117153	0.427758	-0.000075
C25	C	-1.119243	0.323282	-0.000083
C26	C	-1.120915	0.240010	-0.000090
C27	C	-1.123005	0.135527	-0.000096
C28	C	-1.120094	-0.218360	-0.663446
C29	C	-1.120085	-0.218357	-0.546641
C30	C	-1.120083	-0.218351	-0.453543
C31	C	-1.120073	-0.218347	-0.336730
N32	N	-1.120108	-0.218360	0.243448
H33	H	-0.617546	-0.109582	-0.000099
H34	H	-0.622622	-0.327127	-0.000077
