data_functionalizedCrystal
_audit_creation_method	'MofGen! by Chris Wilmer'
_symmetry_space_group_name_H-M	'P1'
_symmetry_Int_Tables_number	1
_symmetry_cell_setting	triclinic
loop_
_symmetry_equiv_pos_as_xyz
  x,y,z
_cell_length_a	14.908571
_cell_length_b	13.897448
_cell_length_c	14.908404
_cell_angle_alpha	86.647708
_cell_angle_beta	89.784600
_cell_angle_gamma	86.713891
loop_
_atom_site_label
_atom_site_type_symbol
_atom_site_fract_x
_atom_site_fract_y
_atom_site_fract_z
Zn1	Zn	1.345433	-0.430604	-0.587629
Zn2	Zn	1.845433	0.069396	-0.087629
Zn3	Zn	1.353991	-0.601798	-0.437257
Zn4	Zn	1.853991	-0.101798	0.062743
Zn5	Zn	1.203717	-0.431770	-0.428614
Zn6	Zn	1.703717	0.068230	0.071386
Zn7	Zn	1.195047	-0.583107	-0.578920
Zn8	Zn	1.695047	-0.083107	-0.078920
O9	O	1.274547	-0.511820	-0.508105
O10	O	1.774547	-0.011820	-0.008105
O11	O	1.472396	-0.460647	-0.574944
O12	O	1.972396	0.039353	-0.074944
O13	O	1.341267	-0.587554	-0.310276
O14	O	1.841267	-0.087554	0.189724
O15	O	1.222563	-0.296635	-0.449735
O16	O	1.722563	0.203365	0.050265
O17	O	1.478684	-0.586423	-0.464466
O18	O	1.978684	-0.086423	0.035534
O19	O	1.326681	-0.295778	-0.566563
O20	O	1.826681	0.204222	-0.066563
O21	O	1.230861	-0.462635	-0.303926
O22	O	1.730861	0.037365	0.196074
O23	O	1.076739	-0.444511	-0.441291
O24	O	1.576739	0.055489	0.058709
O25	O	1.207786	-0.554567	-0.705910
O26	O	1.707786	-0.054567	-0.205910
O27	O	1.070369	-0.555698	-0.551720
O28	O	1.570369	-0.055698	-0.051720
O29	O	1.318274	-0.442523	-0.712308
O30	O	1.818274	0.057477	-0.212308
O31	O	1.332860	-0.734299	-0.456022
O32	O	1.832860	-0.234299	0.043978
O33	O	1.216084	-0.720567	-0.560101
O34	O	1.716084	-0.220567	-0.060101
C35	C	1.040928	-0.498204	-0.494623
C36	C	1.540928	0.001796	0.005377
C37	C	0.940984	-0.492401	-0.488877
C38	C	1.440984	0.007599	0.011123
C39	C	0.746602	-0.597476	-0.592914
C40	C	1.246602	-0.097476	-0.092914
C41	C	0.652695	-0.592026	-0.587518
C42	C	1.152695	-0.092026	-0.087518
C43	C	0.659261	-0.476047	-0.472693
C44	C	1.159261	0.023953	0.027307
C45	C	0.753168	-0.481496	-0.478089
C46	C	1.253168	0.018504	0.021911
C47	C	0.796835	-0.542214	-0.538201
C48	C	1.296835	-0.042214	-0.038201
C49	C	0.890744	-0.547669	-0.543592
C50	C	1.390744	-0.047669	-0.043592
C51	C	0.897308	-0.431685	-0.428772
C52	C	1.397308	0.068315	0.071228
C53	C	0.803401	-0.426235	-0.423376
C54	C	1.303401	0.073765	0.076624
C55	C	1.274483	-0.762432	-0.508075
C56	C	1.774483	-0.262432	-0.008075
C57	C	1.274536	-0.869648	-0.508097
C58	C	1.774536	-0.369648	-0.008097
C59	C	1.274627	-1.065945	-0.508159
C60	C	1.774627	-0.565945	-0.008159
C61	C	1.274574	-0.956711	-0.508127
C62	C	1.774574	-0.456711	-0.008127
C63	C	1.509078	-0.525489	-0.521641
C64	C	2.009078	-0.025489	-0.021641
C65	C	1.609021	-0.531315	-0.527409
C66	C	2.109021	-0.031315	-0.027409
C67	C	1.261108	-0.496330	-0.742649
C68	C	1.761108	0.003670	-0.242649
C69	C	1.255382	-0.489729	-0.842598
C70	C	1.755382	0.010271	-0.342598
C71	C	1.274635	-0.260229	-0.508156
C72	C	1.774635	0.239771	-0.008156
C73	C	1.274672	-0.153016	-0.508178
C74	C	1.774672	0.346984	-0.008178
C75	C	1.287985	-0.527183	-0.274477
C76	C	1.787985	-0.027183	0.225523
C77	C	1.293886	-0.533522	-0.174539
C78	C	1.793886	-0.033522	0.325461
C79	C	1.189173	-0.416179	0.019830
C80	C	1.689173	0.083821	0.519830
C81	C	1.194714	-0.422132	0.113731
C82	C	1.694714	0.077868	0.613731
C83	C	1.310514	-0.551375	0.107166
C84	C	1.810514	-0.051375	0.607166
C85	C	1.304972	-0.545423	0.013265
C86	C	1.804972	-0.045423	0.513265
C87	C	1.244299	-0.477823	-0.030400
C88	C	1.744299	0.022177	0.469600
C89	C	1.238754	-0.471875	-0.124302
C90	C	1.738754	0.028125	0.375698
C91	C	1.354557	-0.601114	-0.130866
C92	C	1.854557	-0.101114	0.369134
C93	C	1.360098	-0.607067	-0.036965
C94	C	1.860098	-0.107067	0.463035
H95	H	0.767834	-0.376798	-0.374438
H96	H	1.267834	0.123202	0.125562
H97	H	1.189350	-0.416833	-0.159852
H98	H	1.689350	0.083167	0.340148
H99	H	0.623691	-0.426607	-0.423759
H100	H	1.123691	0.073393	0.076241
O101	O	0.598515	-0.651719	-0.646449
O102	O	1.098515	-0.151719	-0.146449
H103	H	0.644661	-0.694889	-0.689120
H104	H	1.144661	-0.194889	-0.189120
O105	O	1.414002	-0.667621	-0.185046
O106	O	1.914002	-0.167621	0.314954
H107	H	1.457110	-0.715635	-0.138904
H108	H	1.957110	-0.215635	0.361096
O109	O	1.425541	-0.679970	0.010132
O110	O	1.925541	-0.179970	0.510132
H111	H	1.409553	-0.753792	-0.006811
H112	H	1.909553	-0.253792	0.493189
H113	H	0.782156	-0.646920	-0.641854
H114	H	1.282156	-0.146920	-0.141854
H115	H	0.926296	-0.597110	-0.592536
H116	H	1.426296	-0.097110	-0.092536
H117	H	1.359917	-0.606405	0.142733
H118	H	1.859917	-0.106405	0.642733
H119	H	1.149827	-0.371933	0.154625
H120	H	1.649827	0.128067	0.654625
O121	O	0.951485	-0.372071	-0.369756
O122	O	1.451485	0.127929	0.130244
H123	H	1.024121	-0.386055	-0.383609
H124	H	1.524121	0.113945	0.116391
O125	O	1.123746	-0.343270	-0.027282
O126	O	1.623746	0.156730	0.472718
H127	H	1.054351	-0.357394	-0.005034
H128	H	1.554351	0.142606	0.494966
