data_functionalizedCrystal
_audit_creation_method	'MofGen! by Chris Wilmer'
_symmetry_space_group_name_H-M	'P1'
_symmetry_Int_Tables_number	1
_symmetry_cell_setting	triclinic
loop_
_symmetry_equiv_pos_as_xyz
  x,y,z
_cell_length_a	10.686285
_cell_length_b	12.759401
_cell_length_c	12.759393
_cell_angle_alpha	90.021532
_cell_angle_beta	85.601879
_cell_angle_gamma	94.371114
loop_
_atom_site_label
_atom_site_type_symbol
_atom_site_fract_x
_atom_site_fract_y
_atom_site_fract_z
Zn1	Zn	-0.502364	-1.638387	-0.562077
Zn2	Zn	-0.713409	-1.651789	-0.372945
Zn3	Zn	-0.502421	-1.462696	-0.386400
Zn4	Zn	-0.713301	-1.476175	-0.548580
O5	O	-0.607874	-1.557262	-0.467500
O6	O	-0.530381	-1.787187	-0.537005
O7	O	-0.685490	-1.626673	-0.227704
O8	O	-0.325836	-1.474753	-0.420983
O9	O	-0.685435	-1.797033	-0.398051
O10	O	-0.325794	-1.603832	-0.550052
O11	O	-0.530478	-1.487748	-0.237589
O12	O	-0.530373	-1.317462	-0.407896
O13	O	-0.685251	-1.497725	-0.697396
O14	O	-0.685306	-1.327364	-0.527049
O15	O	-0.530276	-1.616902	-0.707312
O16	O	-0.889972	-1.639742	-0.384964
O17	O	-0.889893	-1.510719	-0.514002
C18	C	-0.607835	-1.284292	-0.467469
C19	C	-0.607848	-1.167516	-0.467478
C20	C	-0.527066	-1.107460	-0.405563
C21	C	-0.527092	-0.997738	-0.405569
C22	C	-0.688685	-1.008137	-0.529415
C23	C	-0.688665	-1.117858	-0.529402
C24	C	-0.433768	-1.101455	-0.334065
C25	C	-0.433794	-0.991732	-0.334071
C26	C	-0.935717	-1.578176	-0.446581
C27	C	-1.075970	-1.587220	-0.437667
C28	C	-0.278750	-1.536294	-0.488524
C29	C	-0.138497	-1.527359	-0.497483
C30	C	-0.607745	-1.557322	-0.741542
C31	C	-0.607691	-1.557347	-0.858322
C32	C	-0.607905	-0.831297	-0.467520
C33	C	-0.607895	-0.948073	-0.467497
C34	C	-0.526961	-1.485036	-0.918338
C35	C	-0.526923	-1.485066	-1.028065
C36	C	-0.688349	-1.629726	-1.017749
C37	C	-0.688392	-1.629691	-0.908024
C38	C	-0.433759	-1.401521	-0.924296
C39	C	-0.433721	-1.401550	-1.034022
C40	C	-0.607911	-1.557257	-0.194531
C41	C	-0.607610	-1.557412	-0.077774
H42	H	-0.340973	-1.129569	-0.369259
H43	H	-1.084733	-1.469192	-0.555515
O44	O	-0.766851	-1.700043	-1.065862
C45	C	-0.838090	-1.763879	-0.989358
H46	H	-0.842479	-1.721101	-0.910861
H47	H	-0.791899	-1.840726	-0.980648
C48	C	-0.966983	-1.840129	-1.120004
C49	C	-0.972383	-1.787584	-1.023594
H50	H	-1.049820	-1.854756	-1.141123
H51	H	-0.918986	-1.797124	-1.171547
H52	H	-0.928485	-1.904162	-1.112733
H53	H	-1.010865	-1.723546	-1.030870
H54	H	-1.020390	-1.830578	-0.972053
O55	O	-1.140303	-1.656624	-0.368542
C56	C	-1.270714	-1.650514	-0.374731
H57	H	-1.288541	-1.617151	-0.454641
H58	H	-1.308252	-1.597035	-0.309974
C59	C	-1.316486	-1.802127	-0.262877
C60	C	-1.338381	-1.761158	-0.361027
H61	H	-1.358228	-1.870376	-0.254418
H62	H	-1.228625	-1.806242	-0.258703
H63	H	-1.347768	-1.757552	-0.208923
H64	H	-1.307086	-1.805727	-0.414978
H65	H	-1.426239	-1.757054	-0.365209
O66	O	-0.317096	-1.419959	-1.077069
C67	C	-0.269071	-1.334175	-1.141515
H68	H	-0.317955	-1.261046	-1.115720
H69	H	-0.286887	-1.352483	-1.226797
C70	C	-0.066467	-1.404342	-1.163238
C71	C	-0.126501	-1.314521	-1.131549
H72	H	0.021478	-1.392220	-1.157095
H73	H	-0.098823	-1.462138	-1.119823
H74	H	-0.081327	-1.419589	-1.234304
H75	H	-0.111653	-1.299283	-1.060481
H76	H	-0.094139	-1.256721	-1.174953
H77	H	-0.468692	-0.959896	-0.254501
H78	H	-0.754148	-1.688559	-0.859161
H79	H	-0.459924	-1.321805	-0.892844
H80	H	-0.340946	-1.424746	-0.896197
O81	O	-0.767294	-0.960066	-0.589601
C82	C	-0.838561	-1.036604	-0.644273
H83	H	-0.842860	-1.115071	-0.600949
H84	H	-0.792455	-1.045366	-0.727066
C85	C	-0.967606	-0.906003	-0.703886
C86	C	-0.972895	-1.002376	-0.650670
H87	H	-1.050468	-0.884889	-0.707837
H88	H	-0.919590	-0.854437	-0.667056
H89	H	-0.929179	-0.913318	-0.772875
H90	H	-1.011307	-0.995057	-0.581679
H91	H	-1.020921	-1.053940	-0.687489
H92	H	-0.468698	-1.326491	-1.065813
H93	H	-0.459818	-1.132856	-0.250992
O94	O	-0.766967	-1.176299	-0.589606
C95	C	-0.695218	-1.235191	-0.662158
H96	H	-0.599534	-1.245497	-0.631346
H97	H	-0.681478	-1.192062	-0.740916
C98	C	-0.882179	-1.331206	-0.714487
C99	C	-0.764661	-1.343870	-0.676638
H100	H	-0.925016	-1.398242	-0.723424
H101	H	-0.930519	-1.291526	-0.665611
H102	H	-0.870712	-1.295261	-0.780115
H103	H	-0.776130	-1.379803	-0.611006
H104	H	-0.716325	-1.383559	-0.725504
H105	H	-0.336101	-0.955718	-0.362233
