data_functionalizedCrystal
_audit_creation_method	'MofGen! by Chris Wilmer'
_symmetry_space_group_name_H-M	'P1'
_symmetry_Int_Tables_number	1
_symmetry_cell_setting	triclinic
loop_
_symmetry_equiv_pos_as_xyz
  x,y,z
_cell_length_a	12.759395
_cell_length_b	12.759394
_cell_length_c	12.759387
_cell_angle_alpha	90.029967
_cell_angle_beta	90.019431
_cell_angle_gamma	90.013701
loop_
_atom_site_label
_atom_site_type_symbol
_atom_site_fract_x
_atom_site_fract_y
_atom_site_fract_z
Zn1	Zn	1.606275	-0.418215	0.593981
Zn2	Zn	1.606168	-0.593932	0.418304
Zn3	Zn	1.430573	-0.418268	0.418321
Zn4	Zn	1.430568	-0.593853	0.593946
O5	O	1.518396	-0.506067	0.506138
O6	O	1.753282	-0.441536	0.570684
O7	O	1.582832	-0.570685	0.271285
O8	O	1.453927	-0.271240	0.441644
O9	O	1.753203	-0.570635	0.441615
O10	O	1.583014	-0.271201	0.570701
O11	O	1.453824	-0.441625	0.271298
O12	O	1.283551	-0.441548	0.441611
O13	O	1.453918	-0.570499	0.740972
O14	O	1.283548	-0.570549	0.570642
O15	O	1.583010	-0.441459	0.740998
O16	O	1.582828	-0.740943	0.441582
O17	O	1.453815	-0.740884	0.570625
C18	C	1.245428	-0.506046	0.506125
C19	C	1.128652	-0.506063	0.506145
C20	C	1.128714	-0.371849	0.640761
C21	C	1.073885	-0.304756	0.708078
C22	C	0.964163	-0.304774	0.708091
C23	C	0.909268	-0.371892	0.640778
C24	C	0.964098	-0.438986	0.573461
C25	C	1.073822	-0.438962	0.573458
C26	C	0.964036	-0.573192	0.438841
C27	C	1.073757	-0.573180	0.438831
C28	C	0.909141	-0.640309	0.371527
C29	C	0.963971	-0.707410	0.304214
C30	C	1.073699	-0.707389	0.304205
C31	C	1.128587	-0.640274	0.371514
C32	C	1.518338	-0.779034	0.506121
C33	C	1.518409	-0.895811	0.506148
C34	C	1.652727	-0.895613	0.640636
C35	C	1.719919	-0.950375	0.707887
C36	C	1.719981	-1.060096	0.707910
C37	C	1.652842	-1.115059	0.640676
C38	C	1.585650	-1.060297	0.573425
C39	C	1.585597	-0.950573	0.573407
C40	C	1.451328	-1.060495	0.438944
C41	C	1.451270	-0.950773	0.438915
C42	C	1.384189	-1.115457	0.371710
C43	C	1.317001	-1.060696	0.304452
C44	C	1.316942	-0.950967	0.304431
C45	C	1.384077	-0.896012	0.371663
C46	C	1.792429	-0.506089	0.506152
C47	C	1.909206	-0.506098	0.506158
C48	C	1.518475	-0.505964	0.780172
C49	C	1.518509	-0.505920	0.896948
C50	C	1.518483	-0.232034	0.506178
C51	C	1.518520	-0.115257	0.506196
C52	C	1.518377	-0.506094	0.233171
C53	C	1.518547	-0.505842	0.116394
C54	C	1.652941	-0.371560	0.896995
C55	C	1.720171	-0.304364	0.951879
C56	C	1.720197	-0.304326	1.061600
C57	C	1.652982	-0.371488	1.116441
C58	C	1.585752	-0.438684	1.061557
C59	C	1.585736	-0.438717	0.951832
C60	C	1.451317	-0.573038	1.061510
C61	C	1.451295	-0.573083	0.951789
C62	C	1.384102	-0.640200	1.116351
C63	C	1.316875	-0.707403	1.061467
C64	C	1.316853	-0.707439	0.951738
C65	C	1.384064	-0.640279	0.896905
H66	H	1.118335	-0.762022	0.249383
C67	C	1.652908	-1.235749	0.640706
H68	H	1.702542	-1.260491	0.690385
H69	H	1.585115	-1.260611	0.658822
H70	H	1.671128	-1.260604	0.572923
C71	C	1.384012	-0.775321	0.371639
H72	H	1.334385	-0.750575	0.321955
H73	H	1.365807	-0.750467	0.439421
H74	H	1.451809	-0.750463	0.353510
C75	C	1.249405	-0.371837	0.640761
H76	H	1.274245	-0.322256	0.690487
H77	H	1.274223	-0.439657	0.658803
H78	H	1.274205	-0.353570	0.572992
C79	C	1.794105	-0.230495	0.891554
H80	H	1.784472	-0.240145	0.818346
H81	H	1.778768	-0.159894	0.909545
H82	H	1.864695	-0.245889	0.909545
H83	H	1.653000	-0.371442	1.205782
C84	C	0.788578	-0.371906	0.640788
H85	H	0.763786	-0.322337	0.690521
H86	H	0.763730	-0.353660	0.573023
H87	H	0.763759	-0.439734	0.658846
C88	C	1.243158	-1.121154	0.230505
H89	H	1.252820	-1.194342	0.240150
H90	H	1.172551	-1.103213	0.245816
H91	H	1.258566	-1.103218	0.159918
H92	H	0.919267	-0.762047	0.249409
H93	H	0.819800	-0.640317	0.371540
H94	H	1.262222	-0.906386	0.249671
C95	C	1.652920	-0.371603	0.776304
H96	H	1.702573	-0.321979	0.751504
H97	H	1.671050	-0.439414	0.751473
H98	H	1.585122	-0.353421	0.751477
H99	H	1.384124	-0.640160	1.205692
C100	C	1.384251	-1.236148	0.371732
H101	H	1.334638	-1.261035	0.322066
H102	H	1.452069	-1.260932	0.353619
H103	H	1.366062	-1.260935	0.439525
C104	C	1.794150	-0.230415	1.121975
H105	H	1.834181	-0.190425	1.073605
H106	H	1.753990	-0.184620	1.164785
H107	H	1.839921	-0.270611	1.164771
C108	C	1.242952	-0.781273	1.121790
H109	H	1.252597	-0.771627	1.194996
H110	H	1.172363	-0.765899	1.103800
H111	H	1.258307	-0.851877	1.103804
H112	H	1.262095	-0.762147	0.907058
H113	H	0.919521	-0.250135	0.762900
C114	C	1.134269	-0.230935	0.782120
H115	H	1.207469	-0.240537	0.772482
H116	H	1.116286	-0.160328	0.766878
H117	H	1.116315	-0.246415	0.852687
C118	C	1.249277	-0.640249	0.371508
H119	H	1.274113	-0.590663	0.421232
H120	H	1.274107	-0.708064	0.389549
H121	H	1.274070	-0.621978	0.303738
H122	H	1.652693	-0.806272	0.640614
C123	C	1.793770	-0.889916	0.781835
H124	H	1.784120	-0.816726	0.772186
H125	H	1.778379	-0.907858	0.852419
H126	H	1.864379	-0.907856	0.766506
C127	C	1.793894	-1.120337	0.781880
H128	H	1.833876	-1.071894	0.821914
H129	H	1.753711	-1.163143	0.827631
H130	H	1.839712	-1.163127	0.741720
H131	H	1.384057	-0.640306	0.807564
