data_functionalizedCrystal
_audit_creation_method	'MofGen! by Chris Wilmer'
_symmetry_space_group_name_H-M	'P1'
_symmetry_Int_Tables_number	1
_symmetry_cell_setting	triclinic
loop_
_symmetry_equiv_pos_as_xyz
  x,y,z
_cell_length_a	10.654550
_cell_length_b	10.723024
_cell_length_c	9.130313
_cell_angle_alpha	89.996649
_cell_angle_beta	89.999724
_cell_angle_gamma	84.476400
loop_
_atom_site_label
_atom_site_type_symbol
_atom_site_fract_x
_atom_site_fract_y
_atom_site_fract_z
O1	O	1.667813	0.175275	-0.121686
O2	O	1.302332	0.191974	-0.121712
O3	O	1.493503	0.002049	-0.121693
O4	O	1.476642	0.365199	-0.121705
O5	O	1.493490	0.002044	0.121906
O6	O	1.302319	0.191968	0.121886
O7	O	1.667800	0.175269	0.121913
Cu8	Cu	1.485058	0.183618	0.144142
Cu9	Cu	1.485074	0.183625	-0.143942
O10	O	1.476629	0.365194	0.121894
C11	C	1.255528	0.190745	0.000084
C12	C	1.116085	0.187077	0.000073
C13	C	1.036583	0.298901	0.000074
C14	C	0.905562	0.295447	0.000100
C15	C	0.933560	0.068334	0.000118
C16	C	1.064577	0.071789	0.000103
C17	C	1.492269	-0.044453	0.000104
C18	C	1.488598	-0.183008	0.000099
C19	C	1.595567	-0.257975	0.000105
C20	C	1.591776	-0.401179	0.000099
C21	C	1.714604	0.176498	0.000114
C22	C	1.854047	0.180167	0.000114
C23	C	1.477863	0.411696	0.000093
C24	C	1.481534	0.550251	0.000089
N25	N	1.485056	0.183613	0.346765
N26	N	1.485085	0.183620	-0.346564
C27	C	1.569736	0.099550	0.423425
C28	C	1.569748	0.099550	0.576762
C29	C	1.400397	0.267687	0.576765
C30	C	1.400380	0.267680	0.423431
H31	H	0.891606	-0.025530	0.000151
H32	H	1.331457	0.336135	0.639201
H33	H	1.394211	-0.224844	0.000083
C34	C	1.357811	-0.362747	0.000083
H35	H	1.288156	-0.411796	0.000086
H36	H	1.354475	-0.311377	-0.084861
H37	H	1.354467	-0.311397	0.085047
C38	C	1.715493	-0.488188	0.000107
H39	H	1.785149	-0.439139	0.000125
H40	H	1.718839	-0.539546	-0.084839
H41	H	1.718827	-0.539550	0.085068
C42	C	1.723084	-0.201477	0.000119
H43	H	1.789704	-0.267080	0.000114
H44	H	1.729109	-0.151258	0.085068
H45	H	1.729120	-0.151252	-0.084839
C46	C	1.152041	-0.051220	0.000101
H47	H	1.237447	-0.032648	0.000104
H48	H	1.136320	-0.098449	-0.084840
H49	H	1.136329	-0.098441	0.085067
H50	H	1.638683	0.031096	0.361008
H51	H	1.638700	0.031097	0.639175
C52	C	1.307239	0.360160	0.339091
H53	H	1.319352	0.348107	0.236792
H54	H	1.321595	0.443574	0.364205
H55	H	1.223304	0.345830	0.364230
C56	C	1.093238	0.425711	0.000057
H57	H	1.027119	0.491813	0.000074
H58	H	1.143760	0.431785	-0.084896
H59	H	1.143771	0.431777	0.085011
H60	H	0.840836	0.386506	0.000103
