data_functionalizedCrystal
_audit_creation_method	'MofGen! by Chris Wilmer'
_symmetry_space_group_name_H-M	'P1'
_symmetry_Int_Tables_number	1
_symmetry_cell_setting	triclinic
loop_
_symmetry_equiv_pos_as_xyz
  x,y,z
_cell_length_a	9.065215
_cell_length_b	10.654550
_cell_length_c	9.130313
_cell_angle_alpha	90.004369
_cell_angle_beta	89.997021
_cell_angle_gamma	95.250186
loop_
_atom_site_label
_atom_site_type_symbol
_atom_site_fract_x
_atom_site_fract_y
_atom_site_fract_z
O1	O	1.959395	-0.184142	-0.121782
O2	O	1.530027	-0.199251	-0.121789
O3	O	1.754583	-0.008996	-0.121776
O4	O	1.734839	-0.374397	-0.121795
O5	O	1.754568	-0.008991	0.121823
O6	O	1.530012	-0.199245	0.121810
O7	O	1.959380	-0.184136	0.121817
Cu8	Cu	1.744694	-0.191690	0.144056
Cu9	Cu	1.744713	-0.191697	-0.144028
O10	O	1.734824	-0.374391	0.121804
C11	C	1.475041	-0.197797	0.000010
C12	C	1.311221	-0.193458	0.000008
C13	C	1.753126	0.037810	0.000023
C14	C	1.748788	0.177271	0.000020
C15	C	2.014366	-0.185590	0.000015
C16	C	2.178186	-0.189930	0.000008
N17	N	1.744692	-0.191685	0.346679
C18	C	1.736281	-0.421198	0.000002
C19	C	1.740619	-0.560658	-0.000005
C20	C	1.881003	0.256234	0.000022
C21	C	1.876919	0.387271	0.000004
C22	C	1.608394	0.360369	-0.000011
C23	C	1.612479	0.229334	-0.000003
N24	N	1.744726	-0.191693	-0.346651
C25	C	1.844160	-0.107476	0.423336
C26	C	1.844174	-0.107476	0.576673
C27	C	1.645249	-0.275905	0.576681
C28	C	1.645228	-0.275898	0.423347
H29	H	1.984582	0.451558	0.000002
O30	O	2.013282	0.205450	0.000094
C31	C	1.988544	0.072863	0.000065
H32	H	1.873716	0.043408	0.046185
H33	H	2.075842	0.031662	0.070789
H34	H	1.996072	0.036304	-0.116801
H35	H	1.497415	0.402775	-0.000027
O36	O	1.548547	-0.357825	0.349099
C37	C	1.460745	-0.432142	0.449645
H38	H	1.521260	-0.434292	0.558937
H39	H	1.439246	-0.532174	0.405322
H40	H	1.350734	-0.390056	0.465980
O41	O	1.483938	0.152750	-0.000199
C42	C	1.401291	0.176551	-0.126385
H43	H	1.436499	0.275513	-0.168447
H44	H	1.278323	0.168726	-0.098019
H45	H	1.422217	0.104662	-0.214725
H46	H	1.925147	-0.038903	0.360916
O47	O	1.940941	-0.025633	0.650910
C48	C	2.028692	0.048715	0.550354
H49	H	2.030866	-0.002799	0.441046
H50	H	2.146329	0.066472	0.594639
H51	H	1.979842	0.142590	0.534064
O52	O	1.548582	-0.357539	0.651325
C53	C	1.456869	-0.289196	0.740025
H54	H	1.514638	-0.191613	0.762998
H55	H	1.434080	-0.341348	0.847847
H56	H	1.347730	-0.279366	0.680958
