data_functionalizedCrystal
_audit_creation_method	'MofGen! by Chris Wilmer'
_symmetry_space_group_name_H-M	'P1'
_symmetry_Int_Tables_number	1
_symmetry_cell_setting	triclinic
loop_
_symmetry_equiv_pos_as_xyz
  x,y,z
_cell_length_a	15.995350
_cell_length_b	15.995350
_cell_length_c	12.996460
_cell_angle_alpha	89.996086
_cell_angle_beta	89.998063
_cell_angle_gamma	83.492375
loop_
_atom_site_label
_atom_site_type_symbol
_atom_site_fract_x
_atom_site_fract_y
_atom_site_fract_z
O1	O	1.110987	0.107928	-0.085474
O2	O	0.867211	0.121256	-0.085495
O3	O	0.995763	-0.007296	-0.085483
O4	O	0.982435	0.236480	-0.085486
O5	O	0.995749	-0.007303	0.085651
O6	O	0.867198	0.121249	0.085639
O7	O	1.110973	0.107921	0.085659
Cu8	Cu	0.989084	0.114584	0.101275
Cu9	Cu	0.989100	0.114593	-0.101111
O10	O	0.982422	0.236472	0.085648
C11	C	0.836010	0.120701	0.000069
C12	C	0.743060	0.119049	0.000061
C13	C	0.405312	0.113117	0.000083
C14	C	0.452746	0.021565	0.000466
C15	C	0.549436	0.023217	0.000073
C16	C	0.572873	0.116060	0.000073
C17	C	0.531793	0.161220	-0.097650
C18	C	0.435157	0.158920	-0.097724
C19	C	0.434803	0.160804	0.096887
C20	C	0.531749	0.160782	0.098171
C21	C	0.667570	0.117727	0.000063
C22	C	0.310614	0.111452	0.000085
C23	C	0.995205	-0.038494	0.000082
C24	C	0.993553	-0.131444	0.000076
C25	C	0.987621	-0.469192	0.000079
C26	C	0.896069	-0.421758	-0.000313
C27	C	0.897721	-0.325068	0.000073
C28	C	0.990564	-0.301631	0.000077
C29	C	1.035713	-0.342713	0.097804
C30	C	1.033413	-0.439349	0.097886
C31	C	1.035319	-0.439699	-0.096725
C32	C	1.035298	-0.342753	-0.098017
C33	C	0.992231	-0.206934	0.000079
C34	C	0.985956	-0.563890	0.000083
C35	C	1.142175	0.108476	0.000093
C36	C	1.235125	0.110127	0.000094
C37	C	0.982980	0.267671	0.000080
C38	C	0.984631	0.360621	0.000080
N39	N	0.989079	0.114578	0.243622
N40	N	0.989112	0.114592	-0.243458
C41	C	0.989099	0.114593	0.663436
C42	C	0.989091	0.114592	0.546631
C43	C	0.989090	0.114586	0.453533
C44	C	0.989081	0.114583	0.336720
H45	H	0.862231	-0.296643	-0.069982
N46	N	1.124735	-0.481755	-0.097595
H47	H	1.134809	-0.516240	-0.162427
H48	H	1.164904	-0.437416	-0.095271
H49	H	0.547113	0.228485	0.104074
N50	N	0.847596	-0.446299	-0.093139
H51	H	0.884508	-0.488405	-0.135841
H52	H	0.796119	-0.472237	-0.069735
H53	H	1.100628	-0.471597	0.102323
H54	H	1.103921	-0.328587	0.101441
H55	H	0.559060	0.127815	0.170466
H56	H	0.859634	-0.441355	0.069373
N57	N	0.850394	-0.288152	0.093025
H58	H	0.801668	-0.246711	0.069893
H59	H	0.828433	-0.334750	0.133872
H60	H	1.002288	-0.315502	-0.170313
N61	N	0.989790	-0.463604	0.194645
H62	H	0.972231	-0.411545	0.236843
H63	H	0.938400	-0.491556	0.175624
N64	N	0.392456	0.247959	-0.103606
H65	H	0.356575	0.254750	-0.167660
H66	H	0.355798	0.260217	-0.040916
H67	H	0.577860	-0.012281	0.070124
N68	N	0.426779	-0.026686	-0.091837
H69	H	0.441283	0.003013	-0.156930
H70	H	0.457536	-0.085419	-0.090919
N71	N	1.124984	-0.322415	-0.105829
H72	H	1.152083	-0.349651	-0.169520
H73	H	1.125421	-0.259422	-0.110146
N74	N	0.428212	-0.026916	0.093298
H75	H	0.386107	0.009992	0.136008
H76	H	0.402274	-0.078393	0.069904
H77	H	1.004343	-0.314334	0.170527
H78	H	0.577300	-0.012515	-0.070100
N79	N	0.995683	-0.466903	-0.194843
H80	H	0.935038	-0.441332	-0.198075
H81	H	1.027318	-0.447327	-0.255919
N82	N	0.410905	0.115304	-0.194482
H83	H	0.462965	0.097749	-0.236683
H84	H	0.382954	0.063913	-0.175455
H85	H	0.545918	0.229429	-0.101283
H86	H	0.560173	0.129859	-0.170376
H87	H	0.403042	0.228304	0.097548
N88	N	0.407600	0.121157	0.195007
H89	H	0.375878	0.071878	0.177697
H90	H	0.458858	0.100987	0.237408
