data_functionalizedCrystal
_audit_creation_method	'MofGen! by Chris Wilmer'
_symmetry_space_group_name_H-M	'P1'
_symmetry_Int_Tables_number	1
_symmetry_cell_setting	triclinic
loop_
_symmetry_equiv_pos_as_xyz
  x,y,z
_cell_length_a	21.295418
_cell_length_b	12.759400
_cell_length_c	12.759393
_cell_angle_alpha	90.030580
_cell_angle_beta	89.960549
_cell_angle_gamma	89.969501
loop_
_atom_site_label
_atom_site_type_symbol
_atom_site_fract_x
_atom_site_fract_y
_atom_site_fract_z
Zn1	Zn	0.962398	0.417771	-0.594609
Zn2	Zn	0.962338	0.593487	-0.418929
Zn3	Zn	0.857129	0.417871	-0.418880
Zn4	Zn	0.857120	0.593457	-0.594502
O5	O	0.909746	0.505646	-0.506730
O6	O	1.050480	0.441051	-0.571370
O7	O	0.948360	0.570245	-0.271901
O8	O	0.871123	0.270837	-0.442215
O9	O	1.050435	0.570148	-0.442299
O10	O	0.948464	0.270763	-0.571322
O11	O	0.871064	0.441221	-0.271865
O12	O	0.769039	0.441192	-0.442111
O13	O	0.871107	0.570097	-0.741537
O14	O	0.769032	0.570194	-0.571140
O15	O	0.948454	0.441022	-0.741616
O16	O	0.948351	0.740504	-0.442195
O17	O	0.871048	0.740482	-0.571188
C18	C	0.746195	0.505702	-0.506609
C19	C	0.676227	0.505751	-0.506582
C20	C	0.909709	0.778614	-0.506708
C21	C	0.909751	0.895390	-0.506734
C22	C	0.909786	0.505545	-0.780764
C23	C	0.909803	0.505502	-0.897540
C24	C	0.643373	0.573011	-0.573667
C25	C	0.577630	0.572985	-0.573714
C26	C	0.544744	0.505710	-0.506658
C27	C	0.577606	0.438436	-0.439568
C28	C	0.643347	0.438457	-0.439530
N29	N	0.441471	0.497513	-0.414766
N30	N	0.379019	0.497500	-0.414805
C31	C	0.346669	0.505643	-0.506769
N32	N	0.379130	0.513820	-0.598696
N33	N	0.441587	0.513839	-0.598656
C34	C	0.473459	0.505680	-0.506692
C35	C	0.242530	0.572879	-0.573911
C36	C	0.176786	0.572846	-0.573960
C37	C	0.176763	0.438302	-0.439804
C38	C	0.242506	0.438330	-0.439765
C39	C	0.275385	0.505624	-0.506817
C40	C	1.073937	0.505592	-0.506852
C41	C	1.143905	0.505568	-0.506904
C42	C	0.909801	0.231613	-0.506775
C43	C	0.909824	0.114836	-0.506794
C44	C	0.950047	0.950229	-0.439642
C45	C	0.950086	1.059953	-0.439674
C46	C	0.869526	1.059990	-0.573894
C47	C	0.869491	0.950268	-0.573866
C48	C	0.996555	0.950208	-0.362148
C49	C	0.996594	1.059932	-0.362180
C50	C	0.950081	0.572612	-1.062142
C51	C	0.950058	0.572657	-0.952418
C52	C	0.869565	0.438305	-0.952392
C53	C	0.869586	0.438266	-1.062115
C54	C	0.996555	0.650176	-1.062156
C55	C	0.996532	0.650221	-0.952432
C56	C	0.909743	0.505671	-0.233763
C57	C	0.909848	0.505419	-0.116987
H58	H	0.670139	0.627806	-0.628268
H59	H	0.269302	0.627668	-0.628514
H60	H	0.269255	0.383564	-0.385132
H61	H	0.983571	1.089799	-0.280791
H62	H	1.042911	1.093856	-0.391422
H63	H	0.979106	0.916268	-0.284810
H64	H	0.150038	0.627615	-0.628595
H65	H	0.670096	0.383682	-0.384902
H66	H	0.979062	0.727547	-0.918377
H67	H	0.836785	0.383633	-0.907702
H68	H	0.836817	0.383562	-1.106765
H69	H	1.045283	0.628414	-0.922686
H70	H	0.550876	0.627756	-0.628347
H71	H	0.550826	0.383658	-0.384972
H72	H	0.983489	0.731541	-1.091909
H73	H	0.836685	0.905620	-0.628507
H74	H	0.836749	1.104685	-0.628551
H75	H	0.149988	0.383520	-0.385211
H76	H	1.045293	0.920328	-0.384031
H77	H	1.042878	0.621001	-1.096223
