data_functionalizedCrystal
_audit_creation_method	'MofGen! by Chris Wilmer'
_symmetry_space_group_name_H-M	'P1'
_symmetry_Int_Tables_number	1
_symmetry_cell_setting	triclinic
loop_
_symmetry_equiv_pos_as_xyz
  x,y,z
_cell_length_a	16.098538
_cell_length_b	17.699083
_cell_length_c	17.019370
_cell_angle_alpha	96.661380
_cell_angle_beta	83.407930
_cell_angle_gamma	87.272911
loop_
_atom_site_label
_atom_site_type_symbol
_atom_site_fract_x
_atom_site_fract_y
_atom_site_fract_z
O1	O	0.062215	-1.007192	0.096581
O2	O	0.061309	-0.786778	0.109605
O3	O	0.070019	-0.903537	-0.012171
O4	O	0.053505	-0.890432	0.218357
O5	O	-0.069001	-0.896717	-0.005085
O6	O	-0.077711	-0.779957	0.116691
O7	O	-0.076804	-1.000371	0.103666
Zn8	Zn	-0.099330	-0.889081	0.111304
Zn9	Zn	0.083835	-0.898067	0.101968
O10	O	-0.085514	-0.883612	0.225442
C11	C	-0.008164	-0.755172	0.112681
C12	C	-0.008053	-0.671158	0.111280
N13	N	-0.224335	-0.882954	0.117675
C14	C	0.002624	-0.899764	-0.038124
C15	C	0.008926	-0.898675	-0.126011
C16	C	-0.264224	-0.932529	0.066006
C17	C	-0.351733	-0.928250	0.070470
C18	C	-0.399350	-0.874398	0.126607
C19	C	-0.359455	-0.824818	0.178278
C20	C	-0.271948	-0.829094	0.173809
C21	C	-0.663758	-0.858896	0.142793
C22	C	-0.751271	-0.854625	0.147259
C23	C	-0.743542	-0.958057	0.039450
C24	C	-0.656034	-0.962332	0.034989
C25	C	-0.616146	-0.912749	0.086657
C26	C	-0.488798	-0.870025	0.131174
C27	C	-0.526700	-0.917119	0.082087
N28	N	0.208840	-0.904201	0.095591
C29	C	-0.007330	-1.031977	0.100590
C30	C	-0.007435	-1.115991	0.101991
C31	C	-0.013174	-0.622335	0.182761
C32	C	-0.013090	-0.543395	0.181441
C33	C	-0.007880	-0.513280	0.108639
C34	C	-0.002761	-0.562109	0.037154
C35	C	-0.002851	-0.641048	0.038475
C36	C	-0.002400	-0.243760	0.031825
C37	C	-0.002308	-0.164816	0.030509
C38	C	-0.012639	-0.146108	0.174791
C39	C	-0.012729	-0.225046	0.176112
C40	C	-0.007615	-0.273868	0.104627
C41	C	-0.007707	-0.359464	0.106059
C42	C	-0.007781	-0.427686	0.107206
C43	C	-0.063889	-0.894444	-0.163446
C44	C	-0.057961	-0.893425	-0.246027
C45	C	0.020784	-0.896632	-0.291171
C46	C	0.093605	-0.900866	-0.253731
C47	C	0.087675	-0.901890	-0.171153
C48	C	0.042478	-0.893732	-0.540699
C49	C	0.048401	-0.892706	-0.623283
C50	C	-0.103165	-0.885266	-0.615573
C51	C	-0.109087	-0.886285	-0.532992
C52	C	-0.036266	-0.890523	-0.495560
C53	C	0.026846	-0.895589	-0.375582
C54	C	-0.042329	-0.891572	-0.411152
C55	C	-0.018118	-0.887385	0.251395
C56	C	-0.024414	-0.888474	0.339283
H57	H	-0.225460	-0.976384	0.020297
C58	C	0.113463	-0.899110	-0.425247
N59	N	0.178703	-0.901761	-0.462658
H60	H	-0.162451	-0.881816	-0.646059
C61	C	-0.018276	-0.092395	0.253428
N62	N	-0.022521	-0.051941	0.312655
C63	C	-0.018466	-0.258167	0.256199
N64	N	-0.022793	-0.283112	0.316523
C65	C	0.003231	-0.297455	-0.046812
N66	N	0.007474	-0.337901	-0.106044
H67	H	-0.128012	-0.891819	-0.126693
H68	H	-0.776027	-0.998425	-0.002617
H69	H	0.112528	-0.895310	-0.660036
C70	C	-0.603661	-1.021569	-0.026770
N71	N	-0.564213	-1.066188	-0.073287
C72	C	0.003414	-0.131692	-0.049581
N73	N	0.007722	-0.106742	-0.109902
C74	C	0.002969	-0.528980	-0.042929
N75	N	0.007288	-0.504028	-0.103249
C76	C	0.167778	-0.906543	-0.129975
N77	N	0.228114	-0.910049	-0.098961
H78	H	-0.631288	-0.818525	0.184864
C79	C	0.002785	-0.694754	-0.040160
N80	N	0.007028	-0.735204	-0.099389
H81	H	-0.117255	-0.889983	-0.276503
H82	H	-0.173209	-0.883690	-0.496244
H83	H	0.101774	-0.897182	-0.510232
C84	C	0.180225	-0.904394	-0.303393
N85	N	0.245469	-0.907048	-0.340797
C86	C	-0.803649	-0.795380	0.209014
N87	N	-0.843099	-0.750758	0.255527
H88	H	-0.398230	-0.780967	0.223983
C89	C	-0.128946	-0.888040	-0.361490
N90	N	-0.194186	-0.885375	-0.324078
H91	H	-0.384210	-0.968618	0.028397
H92	H	-0.487927	-0.960963	0.036377
C93	C	-0.228070	-0.774563	0.230655
N94	N	-0.195023	-0.733489	0.273474
H95	H	-0.527575	-0.826179	0.176883
H96	H	-0.017259	-0.503646	0.239648
H97	H	-0.017416	-0.646848	0.242044
