data_functionalizedCrystal
_audit_creation_method	'MofGen! by Chris Wilmer'
_symmetry_space_group_name_H-M	'P1'
_symmetry_Int_Tables_number	1
_symmetry_cell_setting	triclinic
loop_
_symmetry_equiv_pos_as_xyz
  x,y,z
_cell_length_a	10.686220
_cell_length_b	12.645330
_cell_length_c	10.683246
_cell_angle_alpha	85.553623
_cell_angle_beta	90.335275
_cell_angle_gamma	94.399208
loop_
_atom_site_label
_atom_site_type_symbol
_atom_site_fract_x
_atom_site_fract_y
_atom_site_fract_z
Zn1	Zn	1.972037	-0.258113	-0.562601
Zn2	Zn	1.955886	-0.450114	-0.352771
Zn3	Zn	1.746235	-0.285347	-0.368848
Zn4	Zn	1.762221	-0.447830	-0.578632
O5	O	1.859095	-0.360351	-0.465713
O6	O	2.145443	-0.273140	-0.521329
O7	O	1.914626	-0.440610	-0.179295
O8	O	1.776258	-0.133381	-0.394569
O9	O	2.133576	-0.414202	-0.367169
O10	O	1.942153	-0.113372	-0.536918
O11	O	1.760597	-0.319557	-0.191106
O12	O	1.572808	-0.317343	-0.410113
O13	O	1.803503	-0.410311	-0.752115
O14	O	1.584552	-0.436719	-0.564241
O15	O	1.957654	-0.270926	-0.740337
O16	O	1.930126	-0.598164	-0.382713
O17	O	1.787841	-0.596486	-0.548652
C18	C	1.533162	-0.379739	-0.490662
C19	C	1.393730	-0.388057	-0.501365
C20	C	1.859002	-0.635787	-0.465702
C21	C	1.859080	-0.753610	-0.465731
C22	C	1.769991	-0.920118	-0.570391
C23	C	1.769474	-0.797610	-0.570117
C24	C	1.813198	-0.809604	-0.336218
C25	C	1.812654	-0.932196	-0.336854
C26	C	1.994560	-0.910410	-0.489465
C27	C	1.993966	-0.787649	-0.492420
C28	C	2.186300	-0.340888	-0.440667
C29	C	2.325735	-0.332594	-0.429994
C30	C	1.884163	-0.337326	-0.793032
C31	C	1.894846	-0.327514	-0.932516
C32	C	1.859224	-0.083835	-0.465748
C33	C	1.859279	0.034000	-0.465763
C34	C	1.834196	-0.383206	-0.139661
C35	C	1.823757	-0.392705	-0.000160
H36	H	1.374192	-0.278748	-0.360702
N37	N	1.332965	-0.455614	-0.588311
N38	N	1.396828	-0.507755	-0.655415
H39	H	1.353915	-0.555467	-0.716822
H40	H	2.061205	-0.940070	-0.413137
H41	H	1.714978	-0.786755	-0.314362
N42	N	1.981222	-0.248397	0.006242
N43	N	1.989869	-0.240542	-0.110795
H44	H	2.050874	-0.184665	-0.154057
N45	N	1.737392	-0.471839	0.061089
N46	N	1.728749	-0.479701	0.178127
H47	H	1.667755	-0.535588	0.221386
H48	H	1.799350	-0.759251	-0.666467
H49	H	1.799686	-0.941315	-0.667079
N50	N	1.645238	-0.968142	-0.551996
N51	N	1.621802	-1.036012	-0.462164
H52	H	1.533695	-1.069933	-0.449168
N53	N	1.643911	-0.770264	-0.551428
N54	N	1.556390	-0.841706	-0.538537
H55	H	1.467705	-0.822395	-0.525335
N56	N	1.891629	-0.774453	-0.236317
N57	N	1.902196	-0.678189	-0.215822
H58	H	1.957591	-0.653360	-0.145269
N59	N	1.688229	-0.977968	-0.310165
N60	N	1.636694	-0.963451	-0.208823
H61	H	1.548815	-0.995774	-0.189972
N62	N	1.889965	-0.970960	-0.236378
N63	N	1.864223	-0.955691	-0.125541
H64	H	1.918808	-0.983069	-0.054570
N65	N	2.044584	-0.938343	-0.605251
N66	N	1.981129	-0.999569	-0.671713
H67	H	2.016446	-1.019300	-0.753491
N68	N	2.037133	-0.740504	-0.611930
N69	N	1.968885	-0.682041	-0.677268
H70	H	1.999367	-0.648740	-0.761675
N71	N	2.082820	-0.749306	-0.402760
N72	N	2.048021	-0.696035	-0.317345
H73	H	2.110769	-0.668959	-0.254009
