data_functionalizedCrystal
_audit_creation_method	'MofGen! by Chris Wilmer'
_symmetry_space_group_name_H-M	'P1'
_symmetry_Int_Tables_number	1
_symmetry_cell_setting	triclinic
loop_
_symmetry_equiv_pos_as_xyz
  x,y,z
_cell_length_a	10.654550
_cell_length_b	19.188930
_cell_length_c	9.730223
_cell_angle_alpha	89.993564
_cell_angle_beta	89.996251
_cell_angle_gamma	83.814841
loop_
_atom_site_label
_atom_site_type_symbol
_atom_site_fract_x
_atom_site_fract_y
_atom_site_fract_z
O1	O	1.665759	0.098059	-0.114420
O2	O	1.300083	0.107401	-0.114400
O3	O	1.493474	0.001144	-0.114384
O4	O	1.472368	0.204317	-0.114436
O5	O	1.493471	0.001146	0.114196
O6	O	1.300081	0.107404	0.114180
O7	O	1.665757	0.098061	0.114160
Zn8	Zn	1.482918	0.102733	0.150462
Zn9	Zn	1.482921	0.102730	-0.150702
O10	O	1.472366	0.204319	0.114144
C11	C	1.253298	0.106717	-0.000107
C12	C	1.113898	0.104664	-0.000098
C13	C	1.492789	-0.024871	-0.000090
C14	C	1.490737	-0.102389	-0.000078
C15	C	1.033089	0.167227	-0.000134
C16	C	0.902109	0.165295	-0.000157
C17	C	0.932761	0.038231	-0.000114
C18	C	1.063738	0.040164	-0.000081
C19	C	1.083249	0.231728	-0.000151
C20	C	1.002438	0.294296	-0.000189
C21	C	0.871458	0.292363	-0.000212
C22	C	0.821289	0.227863	-0.000198
C23	C	1.604213	-0.146570	-0.000078
C24	C	1.602285	-0.219407	-0.000099
C25	C	1.486876	-0.248058	-0.000094
C26	C	1.373386	-0.203867	-0.000102
C27	C	1.375316	-0.131032	-0.000094
N28	N	1.398658	-0.356639	0.077701
N29	N	1.396832	-0.425830	0.077696
C30	C	1.481052	-0.467505	-0.000121
N31	N	1.567186	-0.437377	-0.077917
N32	N	1.569016	-0.368180	-0.077906
C33	C	1.484770	-0.327034	-0.000104
C34	C	1.592445	-0.590665	-0.000147
C35	C	1.590513	-0.663502	-0.000177
C36	C	1.361610	-0.647960	-0.000166
C37	C	1.363545	-0.575125	-0.000149
C38	C	1.478966	-0.546481	-0.000133
C39	C	1.712541	0.098746	-0.000136
C40	C	1.851941	0.100798	-0.000154
C41	C	1.473051	0.230334	-0.000153
C42	C	1.475102	0.307852	-0.000174
N43	N	1.482925	0.102735	0.355998
N44	N	1.482924	0.102722	-0.356238
C45	C	1.568581	0.055700	0.427932
C46	C	1.568577	0.055692	0.571815
C47	C	1.397260	0.149759	0.571818
C48	C	1.397258	0.149764	0.427938
C49	C	1.654248	0.008672	0.355992
C50	C	1.739911	-0.038367	0.427925
C51	C	1.739908	-0.038375	0.571808
C52	C	1.654242	0.008655	0.643758
H53	H	1.043295	0.346810	-0.000189
O54	O	1.237132	-0.678857	-0.000159
H55	H	1.158547	-0.635893	-0.000159
O56	O	1.654243	0.008645	0.798947
H57	H	1.580287	0.049249	0.836888
H58	H	1.271141	-0.539151	-0.000142
O59	O	1.728696	-0.115674	-0.000099
H60	H	1.807280	-0.158638	-0.000122
H61	H	1.809651	-0.076661	0.369336
H62	H	0.891902	-0.014283	-0.000125
H63	H	1.129536	-0.010780	-0.000055
H64	H	1.327515	0.188050	0.630409
H65	H	1.654261	0.008676	0.238835
O66	O	1.832302	-0.089100	0.649401
H67	H	1.891877	-0.121793	0.575200
O68	O	1.724679	-0.267074	-0.000081
H69	H	1.805261	-0.234920	-0.000057
H70	H	1.279418	-0.227199	-0.000101
H71	H	1.282908	-0.095058	-0.000094
H72	H	0.714635	0.226294	-0.000195
H73	H	1.327509	0.188064	0.369370
H74	H	1.686428	-0.567342	-0.000140
H75	H	0.805665	0.343309	-0.000229
O76	O	1.712914	-0.711157	-0.000164
H77	H	1.768184	-0.700890	-0.093314
H78	H	1.189898	0.233309	-0.000138
