data_functionalizedCrystal
_audit_creation_method	'MofGen! by Chris Wilmer'
_symmetry_space_group_name_H-M	'P1'
_symmetry_Int_Tables_number	1
_symmetry_cell_setting	triclinic
loop_
_symmetry_equiv_pos_as_xyz
  x,y,z
_cell_length_a	25.639239
_cell_length_b	25.639242
_cell_length_c	18.215399
_cell_angle_alpha	89.974553
_cell_angle_beta	89.967555
_cell_angle_gamma	90.034213
loop_
_atom_site_label
_atom_site_type_symbol
_atom_site_fract_x
_atom_site_fract_y
_atom_site_fract_z
Zn1	Zn	-0.208206	0.799242	-0.416274
Zn2	Zn	0.291794	1.299242	0.083726
Zn3	Zn	-0.295646	0.799160	-0.293204
Zn4	Zn	0.204354	1.299160	0.206796
Zn5	Zn	-0.208219	0.711813	-0.293203
Zn6	Zn	0.291781	1.211813	0.206797
Zn7	Zn	-0.295605	0.711763	-0.416210
Zn8	Zn	0.204395	1.211763	0.083790
O9	O	-0.251919	0.755495	-0.354723
O10	O	0.248081	1.255495	0.145277
O11	O	-0.219816	0.872396	-0.399976
O12	O	0.280184	1.372396	0.100024
O13	O	-0.284071	0.787560	-0.190219
O14	O	0.215929	1.287560	0.309781
O15	O	-0.135052	0.723466	-0.309556
O16	O	0.364948	1.223466	0.190444
O17	O	-0.284058	0.872336	-0.309556
O18	O	0.215942	1.372336	0.190444
O19	O	-0.135043	0.787699	-0.399976
O20	O	0.364957	1.287699	0.100024
O21	O	-0.219839	0.723387	-0.190219
O22	O	0.280161	1.223387	0.309781
O23	O	-0.219800	0.638642	-0.309493
O24	O	0.280200	1.138642	0.190507
O25	O	-0.283989	0.723381	-0.519203
O26	O	0.216011	1.223381	-0.019203
O27	O	-0.284002	0.638605	-0.399866
O28	O	0.215998	1.138605	0.100134
O29	O	-0.219777	0.787651	-0.519250
O30	O	0.280223	1.287651	-0.019250
O31	O	-0.368806	0.787512	-0.309494
O32	O	0.131194	1.287512	0.190506
O33	O	-0.368776	0.723302	-0.399866
O34	O	0.131224	1.223302	0.100134
C35	C	-0.251899	0.619652	-0.354673
C36	C	0.248101	1.119652	0.145327
C37	C	-0.251902	0.561538	-0.354669
C38	C	0.248098	1.061538	0.145331
C39	C	-0.285405	0.201165	-0.401735
C40	C	0.214595	0.701165	0.098265
C41	C	-0.285408	0.146561	-0.401747
C42	C	0.214592	0.646561	0.098253
O43	O	-0.313868	0.118315	-0.441722
O44	O	0.186132	0.618315	0.058278
N45	N	-0.251934	0.119256	-0.354771
N46	N	0.248066	0.619256	0.145229
C47	C	-0.218450	0.146558	-0.307785
C48	C	0.281550	0.646558	0.192215
O49	O	-0.189977	0.118319	-0.267830
O50	O	0.310023	0.618319	0.232170
C51	C	-0.218444	0.201161	-0.307778
C52	C	0.281556	0.701161	0.192222
C53	C	-0.251925	0.228463	-0.354752
C54	C	0.248075	0.728463	0.145248
C55	C	-0.318883	0.228467	-0.448706
C56	C	0.181117	0.728467	0.051294
C57	C	-0.318880	0.283068	-0.448693
C58	C	0.181120	0.783068	0.051307
C59	C	-0.285400	0.310366	-0.401710
C60	C	0.214600	0.810366	0.098290
C61	C	-0.251922	0.283064	-0.354739
C62	C	0.248078	0.783064	0.145261
C63	C	-0.184958	0.228463	-0.260797
C64	C	0.315042	0.728463	0.239203
C65	C	-0.184955	0.283070	-0.260794
C66	C	0.315045	0.783070	0.239206
C67	C	-0.218436	0.310372	-0.307768
C68	C	0.281564	0.810372	0.192232
C69	C	-0.218439	0.364963	-0.307743
C70	C	0.281561	0.864963	0.192257
N71	N	-0.251914	0.392268	-0.354719
N72	N	0.248086	0.892268	0.145281
C73	C	-0.285394	0.364969	-0.401702
C74	C	0.214606	0.864969	0.098298
C75	C	-0.218463	0.031887	-0.307805
C76	C	0.281537	0.531887	0.192195
C77	C	-0.218471	-0.022715	-0.307808
C78	C	0.281529	0.477285	0.192192
C79	C	-0.285429	-0.022709	-0.401771
C80	C	0.214571	0.477291	0.098229
C81	C	-0.285423	0.031895	-0.401764
C82	C	0.214577	0.531895	0.098236
C83	C	-0.251938	0.059192	-0.354781
C84	C	0.248062	0.559192	0.145219
C85	C	-0.285387	0.479634	-0.401672
C86	C	0.214613	0.979634	0.098328
C87	C	-0.285383	0.534240	-0.401652
C88	C	0.214617	1.034240	0.098348
C89	C	-0.218423	0.534229	-0.307693
C90	C	0.281577	1.034229	0.192307
C91	C	-0.218429	0.479628	-0.307709
C92	C	0.281571	0.979628	0.192291
C93	C	-0.251912	0.452332	-0.354704
C94	C	0.248088	0.952332	0.145296
O95	O	-0.189993	0.393243	-0.267791
O96	O	0.310007	0.893243	0.232209
O97	O	-0.313858	0.393215	-0.441658
O98	O	0.186142	0.893215	0.058342
C99	C	-0.387762	0.755407	-0.354689
C100	C	0.112238	1.255407	0.145311
C101	C	-0.445876	0.755417	-0.354699
C102	C	0.054124	1.255417	0.145301
C103	C	-0.806242	0.789016	-0.307746
C104	C	-0.306242	1.289016	0.192254
C105	C	-0.860846	0.789037	-0.307756
C106	C	-0.360846	1.289037	0.192244
O107	O	-0.889085	0.817513	-0.267798
O108	O	-0.389085	1.317513	0.232202
N109	N	-0.888158	0.755587	-0.354772
N110	N	-0.388158	1.255587	0.145228
C111	C	-0.860863	0.722118	-0.401786
C112	C	-0.360863	1.222118	0.098214
O113	O	-0.889108	0.693669	-0.441778
O114	O	-0.389108	1.193669	0.058222
C115	C	-0.806260	0.722101	-0.401779
C116	C	-0.306260	1.222101	0.098221
C117	C	-0.778951	0.755549	-0.354755
C118	C	-0.278951	1.255549	0.145245
C119	C	-0.778932	0.822462	-0.260727
C120	C	-0.278932	1.322462	0.239273
C121	C	-0.724332	0.822441	-0.260716
C122	C	-0.224332	1.322441	0.239284
C123	C	-0.697041	0.788974	-0.307725
C124	C	-0.197041	1.288974	0.192275
C125	C	-0.724350	0.755528	-0.354744
C126	C	-0.224350	1.255528	0.145256
C127	C	-0.778966	0.688635	-0.448796
C128	C	-0.278966	1.188635	0.051204
C129	C	-0.724359	0.688621	-0.448786
C130	C	-0.224359	1.188621	0.051214
C131	C	-0.697050	0.722070	-0.401762
C132	C	-0.197050	1.222070	0.098238
C133	C	-0.642458	0.722040	-0.401743
C134	C	-0.142458	1.222040	0.098257
N135	N	-0.615146	0.755490	-0.354727
N136	N	-0.115146	1.255490	0.145273
C137	C	-0.642437	0.788957	-0.307718
C138	C	-0.142437	1.288957	0.192282
C139	C	-0.975534	0.722158	-0.401797
C140	C	-0.475534	1.222158	0.098203
C141	C	-1.030136	0.722172	-0.401801
C142	C	-0.530136	1.222172	0.098199
C143	C	-1.030115	0.789091	-0.307772
C144	C	-0.530115	1.289091	0.192228
C145	C	-0.975512	0.789074	-0.307765
C146	C	-0.475512	1.289074	0.192235
C147	C	-0.948222	0.755607	-0.354782
C148	C	-0.448222	1.255607	0.145218
C149	C	-0.527772	0.788910	-0.307699
C150	C	-0.027772	1.288910	0.192301
C151	C	-0.473167	0.788884	-0.307690
C152	C	0.026833	1.288884	0.192310
C153	C	-0.473193	0.721967	-0.401722
C154	C	0.026807	1.221967	0.098278
C155	C	-0.527793	0.721991	-0.401728
C156	C	-0.027793	1.221991	0.098272
C157	C	-0.555082	0.755466	-0.354714
C158	C	-0.055082	1.255466	0.145286
O159	O	-0.614185	0.693580	-0.441683
O160	O	-0.114185	1.193580	0.058317
O161	O	-0.614185	0.817407	-0.267740
O162	O	-0.114185	1.317407	0.232260
C163	C	-0.115546	0.755597	-0.354773
C164	C	0.384454	1.255597	0.145227
C165	C	-0.057432	0.755641	-0.354794
C166	C	0.442568	1.255641	0.145206
C167	C	-0.251877	0.755520	-0.546676
C168	C	0.248123	1.255520	-0.046676
C169	C	-0.251860	0.755530	-0.628475
C170	C	0.248140	1.255530	-0.128475
C171	C	-0.251940	0.891868	-0.354773
C172	C	0.248060	1.391868	0.145227
C173	C	-0.251949	0.949982	-0.354795
C174	C	0.248051	1.449982	0.145205
C175	C	-0.218392	0.722143	-0.816670
C176	C	0.281608	1.222143	-0.316670
C177	C	-0.218381	0.722152	-0.893528
C178	C	0.281619	1.222152	-0.393528
C179	C	-0.285265	0.788980	-0.893518
C180	C	0.214735	1.288980	-0.393518
C181	C	-0.285278	0.788967	-0.816661
C182	C	0.214722	1.288967	-0.316661
C183	C	-0.251838	0.755550	-0.778238
C184	C	0.248162	1.255550	-0.278238
C185	C	-0.251815	0.755571	-0.931955
C186	C	0.248185	1.255571	-0.431955
C187	C	-0.251804	0.755581	-1.015288
C188	C	0.248196	1.255581	-0.515288
C189	C	-0.251850	0.755539	-0.694899
C190	C	0.248150	1.255539	-0.194899
C191	C	-0.251923	0.755500	-0.163517
C192	C	0.248077	1.255500	0.336483
C193	C	-0.251794	0.755591	-0.081718
C194	C	0.248206	1.255591	0.418282
H195	H	-0.346142	0.305292	-0.486945
H196	H	0.153858	0.805292	0.013055
H197	H	-0.312649	0.556467	-0.439905
H198	H	0.187351	1.056467	0.060095
H199	H	-0.191166	0.556465	-0.269438
H200	H	0.308834	1.056465	0.230562
H201	H	-0.312490	0.816187	-0.924811
H202	H	0.187510	1.316187	-0.424811
H203	H	-0.953280	0.816311	-0.269475
H204	H	-0.453280	1.316311	0.230525
H205	H	-0.157696	0.206243	-0.222544
H206	H	0.342304	0.706243	0.277456
Cl207	Cl	-0.327513	-0.057037	-0.460844
Cl208	Cl	0.172487	0.442963	0.039156
H209	H	-0.191213	-0.044940	-0.269550
H210	H	0.308787	0.455060	0.230450
Cl211	Cl	-1.064461	0.680114	-0.460910
Cl212	Cl	-0.564461	1.180114	0.039090
H213	H	-0.191195	0.054110	-0.269541
H214	H	0.308805	0.554110	0.230459
H215	H	-0.191146	0.694949	-0.924816
H216	H	0.308854	1.194949	-0.424816
H217	H	-0.191163	0.694932	-0.785389
H218	H	0.308837	1.194932	-0.285389
Cl219	Cl	-0.327331	0.830966	-0.768343
Cl220	Cl	0.172669	1.330966	-0.268343
Cl221	Cl	-0.327482	0.445328	-0.460751
Cl222	Cl	0.172518	0.945328	0.039249
Cl223	Cl	-0.360978	0.194159	-0.507778
Cl224	Cl	0.139022	0.694159	-0.007778
H225	H	-0.450933	0.816122	-0.269395
H226	H	0.049067	1.316122	0.230605
Cl227	Cl	-0.690008	0.864501	-0.201608
Cl228	Cl	-0.190008	1.364501	0.298392
Cl229	Cl	-0.142856	0.317383	-0.201727
Cl230	Cl	0.357144	0.817383	0.298273
Cl231	Cl	-0.176346	0.445304	-0.248644
Cl232	Cl	0.323654	0.945304	0.251356
Cl233	Cl	-0.327514	0.066212	-0.460820
Cl234	Cl	0.172486	0.566212	0.039180
Cl235	Cl	-0.562126	0.679930	-0.460829
Cl236	Cl	-0.062126	1.179930	0.039171
H237	H	-0.549984	0.816170	-0.269418
H238	H	-0.049984	1.316170	0.230582
H239	H	-0.801147	0.849718	-0.222446
H240	H	-0.301147	1.349718	0.277554
H241	H	-0.953317	0.694901	-0.440081
H242	H	-0.453317	1.194901	0.059919
Cl243	Cl	-1.064434	0.831164	-0.248673
Cl244	Cl	-0.564434	1.331164	0.251327
Cl245	Cl	-0.813285	0.646589	-0.507925
Cl246	Cl	-0.313285	1.146589	-0.007925
Cl247	Cl	-0.690055	0.646547	-0.507897
Cl248	Cl	-0.190055	1.146547	-0.007897
H249	H	-0.450964	0.694717	-0.439994
H250	H	0.049036	1.194717	0.060006
