data_functionalizedCrystal
_audit_creation_method	'MofGen! by Chris Wilmer'
_symmetry_space_group_name_H-M	'P1'
_symmetry_Int_Tables_number	1
_symmetry_cell_setting	triclinic
loop_
_symmetry_equiv_pos_as_xyz
  x,y,z
_cell_length_a	26.374263
_cell_length_b	26.373608
_cell_length_c	26.370205
_cell_angle_alpha	60.005297
_cell_angle_beta	60.010839
_cell_angle_gamma	59.993700
loop_
_atom_site_label
_atom_site_type_symbol
_atom_site_fract_x
_atom_site_fract_y
_atom_site_fract_z
O1	O	0.070152	-0.740800	0.619517
O2	O	0.026377	-0.576764	0.499159
O3	O	0.130245	-0.680560	0.499088
O4	O	-0.033715	-0.637003	0.619589
O5	O	0.164701	-0.646107	0.533470
O6	O	0.060833	-0.542310	0.533541
O7	O	0.104608	-0.706346	0.653899
Cu8	Cu	0.085867	-0.621182	0.596859
Cu9	Cu	0.045119	-0.661927	0.556199
O10	O	0.000741	-0.602549	0.653971
N11	N	0.114528	-0.592529	0.625461
N12	N	0.016463	-0.690587	0.527598
C13	C	0.181428	-0.355400	0.692330
C14	C	0.181530	-0.525690	0.862573
C15	C	0.181440	-0.525667	0.692313
C16	C	0.351736	-0.525673	0.692271
C17	C	0.200174	-0.411588	0.711047
C18	C	0.200232	-0.506954	0.806384
C19	C	0.295546	-0.506943	0.711016
C20	C	0.200182	-0.506940	0.711037
C21	C	0.157567	-0.283881	0.668507
C22	C	0.157587	-0.549500	0.668479
C23	C	0.224035	-0.483107	0.734871
C24	C	0.455739	-0.507754	0.637520
C25	C	0.520749	-0.529425	0.615835
C26	C	0.520768	-0.634611	0.655947
C27	C	0.455759	-0.612939	0.677633
C28	C	0.173240	-0.251367	0.604595
C29	C	0.151546	-0.186351	0.582941
C30	C	0.098512	-0.186369	0.689113
C31	C	0.120206	-0.251385	0.710768
C32	C	0.093669	-0.533798	0.684205
C33	C	0.071992	-0.555464	0.662532
C34	C	0.178144	-0.608536	0.609422
C35	C	0.199825	-0.586869	0.631088
C36	C	0.093821	-0.533842	0.966616
C37	C	0.072187	-0.555526	1.031630
C38	C	0.178370	-0.608608	1.031591
C39	C	0.200004	-0.586926	0.966576
C40	C	0.157728	-0.549541	0.934090
C41	C	0.423247	-0.549509	0.668416
C42	C	-0.097522	-0.709158	0.508557
C43	C	-0.002050	-0.709295	0.413344
C44	C	-0.002241	-0.804604	0.508735
C45	C	-0.002225	-0.709288	0.508793
C46	C	-0.026009	-0.733087	0.484858
N47	N	0.552340	-0.592538	0.625346
O48	O	0.750867	-0.598274	0.477076
O49	O	0.751048	-0.718989	0.640960
O50	O	0.750981	-0.718715	0.537020
O51	O	0.750934	-0.598547	0.581017
O52	O	0.647701	-0.684348	0.571512
O53	O	0.647768	-0.684622	0.675452
O54	O	0.647587	-0.563907	0.511569
Cu55	Cu	0.638247	-0.621127	0.596660
Cu56	Cu	0.760388	-0.661769	0.555869
O57	O	0.647654	-0.564181	0.615509
N58	N	0.846295	-0.690358	0.527176
N59	N	0.114503	-0.154778	0.625499
O60	O	-0.033701	0.043855	0.619632
O61	O	0.130190	0.043858	0.498933
O62	O	0.026233	0.043841	0.499224
O63	O	0.070257	0.043872	0.619341
O64	O	0.060690	-0.059448	0.533654
O65	O	0.164647	-0.059431	0.533363
O66	O	0.000756	-0.059434	0.654062
Cu67	Cu	0.085848	-0.068863	0.596857
Cu68	Cu	0.045099	0.053287	0.556138
O69	O	0.104714	-0.059417	0.653771
N70	N	0.016435	0.139202	0.527497
N71	N	0.114760	-0.592585	1.063190
O72	O	0.108896	-0.740779	1.261808
O73	O	-0.011787	-0.576838	1.261822
O74	O	-0.011509	-0.680779	1.261780
O75	O	0.108618	-0.636838	1.261850
O76	O	0.022916	-0.646341	1.158496
O77	O	0.022638	-0.542399	1.158538
O78	O	0.143321	-0.706341	1.158524
Cu79	Cu	0.086123	-0.621225	1.149100
Cu80	Cu	0.045411	-0.661953	1.271246
O81	O	0.143044	-0.602399	1.158566
N82	N	0.016774	-0.690600	1.357156
C83	C	0.039504	-0.538867	0.499769
C84	C	0.168130	-0.667407	0.499680
C85	C	0.091482	-0.744243	0.653289
C86	C	-0.037145	-0.615703	0.653378
C87	C	0.699429	-0.718429	0.678853
C88	C	0.699348	-0.718091	0.550135
C89	C	0.699202	-0.564465	0.473677
C90	C	0.699287	-0.564805	0.602393
C91	C	0.168023	-0.007659	0.499484
C92	C	0.039327	-0.007807	0.499887
C93	C	-0.037119	-0.007789	0.653468
C94	C	0.091620	-0.007770	0.653109
C95	C	-0.011194	-0.538964	1.210181
C96	C	-0.010843	-0.667676	1.210109
C97	C	0.142729	-0.744214	1.210165
C98	C	0.142386	-0.615494	1.210214
H99	H	0.020147	-0.542732	1.058106
H100	H	0.699366	-0.755841	0.540718
O101	O	0.102747	-0.007736	0.698190
C102	C	0.062167	-0.007767	0.802835
C103	C	0.049479	-0.007791	0.751831
H104	H	0.019113	-0.007825	0.846220
H105	H	0.073956	0.035472	0.785659
H106	H	0.102851	-0.050980	0.814395
H107	H	0.008787	0.035393	0.740248
H108	H	0.037727	-0.051059	0.769034
H109	H	0.215222	-0.676694	0.461838
H110	H	-0.084239	-0.606419	0.691217
O111	O	-0.056474	-0.482847	1.210265
C112	C	-0.160030	-0.427366	1.263782
C113	C	-0.108810	-0.490960	1.263757
H114	H	-0.202352	-0.433902	1.307032
H115	H	-0.173621	-0.405051	1.220578
H116	H	-0.142015	-0.396057	1.263771
H117	H	-0.126782	-0.522317	1.263790
H118	H	-0.095227	-0.513225	1.306958
O119	O	0.699515	-0.763584	0.735028
C120	C	0.699550	-0.792443	0.837335
C121	C	0.699468	-0.741255	0.773741
H122	H	0.699499	-0.774404	0.868657
H123	H	0.742804	-0.834786	0.830824
H124	H	0.656359	-0.806022	0.859620
H125	H	0.742630	-0.727623	0.751422
H126	H	0.656185	-0.698946	0.780293
O127	O	0.699159	-0.519325	0.417487
C128	C	0.699025	-0.490433	0.315213
C129	C	0.699090	-0.541615	0.378813
H130	H	0.698956	-0.508432	0.283932
H131	H	0.742234	-0.476860	0.292848
H132	H	0.655788	-0.448096	0.321794
H133	H	0.742297	-0.583986	0.372287
H134	H	0.655853	-0.555135	0.401157
O135	O	0.166739	-0.154828	0.520840
C136	C	0.161696	-0.134889	0.423486
C137	C	0.144465	-0.170636	0.493804
H138	H	0.143684	-0.147646	0.401609
H139	H	0.214333	-0.147674	0.401516
H140	H	0.139790	-0.082843	0.415285
H141	H	0.166330	-0.222691	0.502061
H142	H	0.091824	-0.157799	0.515739
O143	O	0.102636	-0.800410	0.698444
C144	C	0.108311	-0.856007	0.801920
C145	C	0.095677	-0.792360	0.750832
H146	H	0.102677	-0.849519	0.844293
H147	H	0.157653	-0.887240	0.783834
H148	H	0.073910	-0.878380	0.815468
H149	H	0.130039	-0.769934	0.737262
H150	H	0.046319	-0.761172	0.768946
O151	O	-0.055771	-0.678959	1.210004
C152	C	-0.084157	-0.752714	1.209922
C153	C	-0.033216	-0.740014	1.210026
H154	H	-0.065944	-0.802080	1.209953
H155	H	-0.097693	-0.718355	1.166667
H156	H	-0.126567	-0.747119	1.253116
H157	H	0.009227	-0.745618	1.166861
H158	H	-0.019732	-0.774371	1.253309
O159	O	0.028076	-0.007711	0.454816
C160	C	0.022244	0.045755	0.351401
C161	C	0.034990	0.045735	0.402390
H162	H	0.027842	0.088955	0.308998
H163	H	-0.027111	0.045789	0.369578
H164	H	0.056610	0.002505	0.337866
H165	H	0.000664	0.088978	0.415948
H166	H	0.084362	0.045668	0.384185
H167	H	0.180620	-0.791296	1.210154
H168	H	0.699278	-0.527058	0.611808
O169	O	0.187353	-0.604172	1.210203
C170	C	0.215742	-0.530413	1.210271
C171	C	0.164767	-0.543148	1.210270
H172	H	0.197497	-0.481080	1.210339
H173	H	0.258127	-0.535929	1.167039
H174	H	0.229329	-0.564826	1.253487
H175	H	0.151128	-0.508746	1.167084
H176	H	0.122416	-0.537653	1.253532
O177	O	0.224082	-0.007285	0.454219
C178	C	0.326227	-0.006803	0.425182
C179	C	0.262765	-0.007211	0.476493
H180	H	0.357524	-0.006756	0.443176
H181	H	0.319480	0.036526	0.382961
H182	H	0.348675	-0.049925	0.411433
H183	H	0.240283	0.035882	0.490295
H184	H	0.269552	-0.050568	0.518680
H185	H	0.030155	-0.491745	0.461969
H186	H	0.059391	-0.503396	0.940172
H187	H	0.212798	-0.639038	1.058038
O188	O	0.262101	-0.602285	0.935051
C189	C	0.359474	-0.684705	0.915096
C190	C	0.289162	-0.667399	0.950845
H191	H	0.381372	-0.737349	0.927843
H192	H	0.381432	-0.666811	0.927887
H193	H	0.367664	-0.662759	0.863052
H194	H	0.280917	-0.689340	1.002897
H195	H	0.267240	-0.685282	0.938002
O196	O	0.052556	-0.497478	0.720493
C197	C	-0.055024	-0.447147	0.770908
C198	C	-0.008531	-0.488273	0.729795
H199	H	-0.104423	-0.439703	0.778453
H200	H	-0.047592	-0.400357	0.747100
H201	H	-0.047473	-0.470975	0.817650
H202	H	-0.016055	-0.464499	0.683046
H203	H	-0.015975	-0.535060	0.753652
O204	O	0.009907	-0.540141	0.677700
C205	C	-0.076203	-0.490135	0.640380
C206	C	-0.005888	-0.507438	0.623116
H207	H	-0.088994	-0.463704	0.596260
H208	H	-0.102698	-0.459675	0.670801
H209	H	-0.088966	-0.534263	0.666866
H210	H	0.006932	-0.463345	0.596608
H211	H	0.020568	-0.537922	0.592724
O212	O	-0.093317	-0.007670	0.698621
C213	C	-0.203796	0.045835	0.728597
C214	C	-0.140190	0.045780	0.677415
H215	H	-0.241711	0.089038	0.711466
H216	H	-0.203899	0.045887	0.771854
H217	H	-0.212869	0.002588	0.740350
H218	H	-0.131077	0.089019	0.665609
H219	H	-0.140118	0.045695	0.634190
O220	O	0.219206	-0.644746	0.573013
C221	C	0.303309	-0.653048	0.477326
C222	C	0.256833	-0.611974	0.518493
H223	H	0.333750	-0.626572	0.433244
H224	H	0.276873	-0.665827	0.464481
H225	H	0.333739	-0.697177	0.503805
H226	H	0.226390	-0.567819	0.492052
H227	H	0.283306	-0.599245	0.531341
O228	O	0.261908	-0.602010	0.615744
C229	C	0.347952	-0.564637	0.565741
C230	C	0.277639	-0.547406	0.583065
H231	H	0.360691	-0.520499	0.539329
H232	H	0.374454	-0.595037	0.535259
H233	H	0.360759	-0.591138	0.609856
H234	H	0.264775	-0.520883	0.538984
H235	H	0.251176	-0.517035	0.613571
H236	H	0.429307	-0.646943	0.702793
H237	H	0.547237	-0.686258	0.663446
H238	H	0.547206	-0.495421	0.590679
H239	H	0.429268	-0.456103	0.630015
H240	H	0.203661	-0.277820	0.570179
H241	H	0.068098	-0.159910	0.723527
H242	H	0.107441	-0.277854	0.762810
