data_functionalizedCrystal
_audit_creation_method	'MofGen! by Chris Wilmer'
_symmetry_space_group_name_H-M	'P1'
_symmetry_Int_Tables_number	1
_symmetry_cell_setting	triclinic
loop_
_symmetry_equiv_pos_as_xyz
  x,y,z
_cell_length_a	20.016444
_cell_length_b	14.560438
_cell_length_c	14.560438
_cell_angle_alpha	90.000977
_cell_angle_beta	60.001636
_cell_angle_gamma	60.000669
loop_
_atom_site_label
_atom_site_type_symbol
_atom_site_fract_x
_atom_site_fract_y
_atom_site_fract_z
Zr1	Zr	0.731262	0.884755	-0.120461
O2	O	0.870634	0.738109	-0.267103
O3	O	0.591889	0.929709	-0.075515
O4	O	0.731264	0.929710	-0.267109
O5	O	0.731257	0.738109	0.075633
O6	O	0.731266	1.080848	-0.267107
O7	O	0.731259	0.738109	-0.075508
O8	O	0.481949	1.080847	0.075621
O9	O	0.980574	0.738109	-0.267095
O10	O	0.649216	1.061675	-0.056335
O11	O	0.649214	0.948882	0.056457
O12	O	0.813310	0.948883	-0.169121
O13	O	0.813307	0.836090	-0.056328
Zr14	Zr	0.731262	1.125803	0.120595
Zr15	Zr	0.731265	1.125803	-0.120457
Zr16	Zr	0.731259	0.884755	0.120591
Zr17	Zr	0.906603	0.884756	-0.120449
Zr18	Zr	0.555921	1.125803	0.120583
O19	O	0.870634	1.080849	0.075648
O20	O	0.870639	1.080848	-0.267097
O21	O	0.870630	0.738109	0.075642
O22	O	0.591889	1.272449	0.267236
O23	O	0.591893	1.272449	-0.075509
O24	O	0.591885	0.929710	0.267231
O25	O	0.731266	1.272449	-0.075499
O26	O	0.731259	1.080848	0.267243
O27	O	0.731257	0.929710	0.267240
O28	O	0.731264	1.272449	0.075641
O29	O	0.980576	0.929711	-0.267092
O30	O	0.481947	1.080848	0.267225
O31	O	0.481949	1.272449	0.267228
O32	O	0.481952	1.272448	0.075624
O33	O	0.980572	0.738110	-0.075491
O34	O	0.980574	0.929711	-0.075488
O35	O	0.649214	1.061675	0.169254
O36	O	0.649216	1.174468	0.056461
O37	O	0.813310	1.061676	-0.056324
O38	O	0.813307	0.948883	0.056469
C39	C	0.731258	0.703765	0.000062
C40	C	0.731257	0.601433	0.000060
C41	C	0.511937	1.005278	0.000052
C42	C	0.437500	1.005278	0.000046
C43	C	0.645603	0.612231	0.058933
C44	C	0.645608	0.516076	0.058943
C45	C	0.816927	0.398329	-0.058801
C46	C	0.816921	0.494483	-0.058804
C47	C	0.546693	0.680211	0.126907
C48	C	0.546698	0.584056	0.126917
C49	C	0.266232	1.064158	-0.058812
C50	C	0.196284	1.064162	-0.058803
C51	C	0.196295	0.946398	0.058952
C52	C	0.266236	0.946402	0.058949
C53	C	0.301206	1.005279	0.000061
C54	C	0.161317	1.005279	0.000072
C55	C	0.085477	1.005282	0.000082
C56	C	0.377050	1.005278	0.000052
C57	C	0.950586	1.005280	0.000082
C58	C	1.025023	1.005280	0.000087
C59	C	0.731265	1.005279	-0.301453
C60	C	0.731267	1.005279	-0.403786
C61	C	0.731265	1.306793	0.000072
C62	C	0.731267	1.409125	0.000073
C63	C	0.816920	0.946398	-0.510735
C64	C	0.816916	0.946401	-0.606884
C65	C	0.645597	1.064168	-0.489121
C66	C	0.645602	1.064170	-0.392974
C67	C	0.915830	0.878402	-0.578725
C68	C	0.915825	0.878405	-0.674874
C69	C	0.731258	1.005279	0.301586
C70	C	0.731257	1.005279	0.403919
C71	C	0.511941	1.306793	0.000056
C72	C	0.437505	1.409124	0.000053
C73	C	0.511933	1.005279	0.301571
C74	C	0.437495	1.005278	0.403899
C75	C	0.511937	1.306793	0.301576
C76	C	0.437500	1.409124	0.403905
C77	C	0.950586	0.703765	-0.301443
C78	C	1.025023	0.601434	-0.403772
C79	C	0.950583	0.703765	0.000077
C80	C	1.025018	0.601434	0.000080
C81	C	0.950590	1.005279	-0.301438
C82	C	1.025028	1.005280	-0.403766
C83	C	0.402549	1.398303	-0.058837
C84	C	0.332619	1.494444	-0.058863
C85	C	0.297641	1.601406	0.000009
C86	C	0.332603	1.612225	0.058901
C87	C	0.402537	1.516084	0.058919
C88	C	0.402538	1.064155	0.510842
C89	C	0.332605	1.064151	0.606999
C90	C	0.297626	1.005276	0.596211
C91	C	0.332590	0.946392	0.489256
C92	C	0.402526	0.946390	0.393102
C93	C	0.402545	1.516067	0.393084
C94	C	0.332614	1.612227	0.489224
C95	C	0.297633	1.601442	0.596185
C96	C	0.332595	1.494488	0.607004
C97	C	0.402530	1.398330	0.510865
C98	C	1.059987	0.494492	-0.392950
C99	C	1.129940	0.398331	-0.489090
C100	C	1.164924	0.409116	-0.596051
C101	C	1.129958	0.516070	-0.606871
C102	C	1.060010	0.612228	-0.510732
C103	C	1.059981	0.612255	0.058961
C104	C	1.129931	0.516114	0.058960
C105	C	1.164912	0.409152	0.000085
C106	C	1.129946	0.398334	-0.058803
C107	C	1.060002	0.494474	-0.058808
C108	C	1.059985	1.064166	-0.392941
C109	C	1.129919	1.064188	-0.489080
C110	C	1.164898	1.005317	-0.596042
C111	C	1.129934	0.946428	-0.606864
C112	C	1.059997	0.946413	-0.510726
H113	H	0.886668	0.485682	-0.106739
N114	N	1.167688	0.527689	-0.722241
H115	H	1.134930	0.610027	-0.714521
H116	H	1.237898	0.490358	-0.764690
N117	N	1.022267	0.482832	-0.277598
H118	H	1.075630	0.440366	-0.268589
H119	H	0.972634	0.560003	-0.218391
N120	N	0.496397	0.749358	0.246149
H121	H	0.496371	0.818741	0.246194
H122	H	0.429142	0.772416	0.292362
H123	H	1.158425	0.898496	-0.693965
N124	N	0.294861	1.482865	0.722372
H125	H	0.245251	1.560013	0.781624
H126	H	0.265884	1.440359	0.731283
N127	N	1.167643	0.527789	0.122470
H128	H	1.114284	0.570253	0.204836
H129	H	1.217279	0.450617	0.113441
H130	H	1.221846	1.005338	-0.674314
N131	N	0.294891	1.127685	0.722344
H132	H	0.245280	1.118757	0.781630
H133	H	0.348310	1.096784	0.731245
N134	N	0.440267	1.127649	0.522490
H135	H	0.428094	1.186906	0.485231
H136	H	0.407490	1.164865	0.604854
H137	H	0.304155	1.699304	0.480394
N138	N	0.909316	0.282975	-0.122299
H139	H	0.963577	0.290728	-0.159596
H140	H	0.913048	0.240524	-0.068232
H141	H	0.516008	0.731119	0.082039
N142	N	1.022299	0.882894	-0.522409
H143	H	1.055077	0.845604	-0.604760
H144	H	1.034478	0.823693	-0.485093
N145	N	0.956485	0.763106	-0.567143
H146	H	0.907208	0.765486	-0.494218
H147	H	0.976132	0.707452	-0.632319
N148	N	1.022261	0.727613	0.122466
H149	H	1.055037	0.719863	0.159756
H150	H	1.034433	0.770068	0.068401
H151	H	1.031544	0.699302	-0.519556
N152	N	0.440224	1.282983	0.522536
H153	H	0.469238	1.273973	0.565017
H154	H	0.386806	1.274070	0.564983
H155	H	0.946517	0.923265	-0.725794
H156	H	0.516002	0.575340	0.213973
N157	N	0.440265	1.282945	-0.122337
H158	H	0.407504	1.290695	-0.159646
H159	H	0.510476	1.240487	-0.181521
H160	H	0.304161	1.485613	-0.106820
N161	N	0.303954	0.882898	0.122461
H162	H	0.332975	0.800530	0.091580
H163	H	0.353526	0.891927	0.113512
H164	H	0.430989	1.524910	0.106881
N165	N	1.167669	0.282963	-0.122282
H166	H	1.134910	0.290684	-0.159587
H167	H	1.237879	0.240503	-0.181467
H168	H	0.304099	0.898457	0.480489
H169	H	1.221864	0.330878	0.000098
N170	N	0.158573	1.127654	-0.122316
H171	H	0.108957	1.118723	-0.113379
H172	H	0.129610	1.209992	-0.091406
N173	N	0.222193	1.005284	0.699925
H174	H	0.205358	1.051523	0.769307
H175	H	0.164203	1.038770	0.699874
N176	N	1.022295	0.482795	-0.122317
H177	H	1.055072	0.400444	-0.159608
H178	H	0.952087	0.520110	-0.068261
N179	N	0.440257	1.527715	0.277726
H180	H	0.407494	1.610061	0.285476
H181	H	0.510468	1.490382	0.235264
H182	H	0.508730	0.584050	0.089088
N183	N	0.222203	1.705160	0.699873
H184	H	0.205371	1.774541	0.676777
H185	H	0.164211	1.705113	0.746107
N186	N	1.167643	0.282984	-0.477407
H187	H	1.134855	0.290752	-0.395057
H188	H	1.155479	0.240518	-0.514741
H189	H	0.294701	1.112102	-0.106760
N190	N	1.240366	0.305398	-0.699740
H191	H	1.257200	0.236018	-0.676643
H192	H	1.215976	0.305444	-0.745980
H193	H	0.167814	0.898461	0.106896
N194	N	1.022267	1.127667	-0.277583
H195	H	1.055030	1.164973	-0.285331
H196	H	0.952058	1.186853	-0.235129
H197	H	0.953796	0.788377	-0.727067
H198	H	1.158379	1.112141	-0.480246
H199	H	0.240695	1.679680	-0.000015
N200	N	0.553220	1.127697	-0.277621
H201	H	0.498954	1.165001	-0.285366
H202	H	0.549478	1.073647	-0.235150
H203	H	0.575852	1.112115	-0.480332
H204	H	0.430979	0.898449	0.306027
N205	N	0.966139	0.928489	-0.578737
H206	H	0.988581	0.950847	-0.648088
H207	H	0.921281	0.997042	-0.509342
H208	H	0.304114	1.699325	0.106832
