data_functionalizedCrystal
_audit_creation_method	'MofGen! by Chris Wilmer'
_symmetry_space_group_name_H-M	'P1'
_symmetry_Int_Tables_number	1
_symmetry_cell_setting	triclinic
loop_
_symmetry_equiv_pos_as_xyz
  x,y,z
_cell_length_a	23.532407
_cell_length_b	10.967829
_cell_length_c	10.066323
_cell_angle_alpha	69.202805
_cell_angle_beta	98.708888
_cell_angle_gamma	83.801088
loop_
_atom_site_label
_atom_site_type_symbol
_atom_site_fract_x
_atom_site_fract_y
_atom_site_fract_z
O1	O	-0.744944	-0.176591	0.154909
O2	O	-0.578831	-0.199381	0.160295
O3	O	-0.668950	0.000917	0.113170
O4	O	-0.654825	-0.376889	0.202034
O5	O	-0.686154	0.039189	-0.122808
O6	O	-0.596035	-0.161108	-0.075683
O7	O	-0.762149	-0.138319	-0.081069
Zn8	Zn	-0.681823	-0.143637	-0.115843
Zn9	Zn	-0.659156	-0.194062	0.195069
O10	O	-0.672030	-0.338617	-0.033944
C11	C	-0.566223	-0.179665	0.042173
C12	C	-0.503024	-0.177922	0.041772
C13	C	-0.238230	-0.052192	0.012170
C14	C	-0.297613	-0.053812	0.012550
O15	O	-0.335449	0.045932	-0.010959
N16	N	-0.318940	-0.172889	0.040566
C17	C	-0.280881	-0.290352	0.068190
O18	O	-0.304474	-0.391785	0.092054
C19	C	-0.221500	-0.288728	0.067800
C20	C	-0.200176	-0.169646	0.039796
C21	C	-0.216906	0.066881	-0.015833
C22	C	-0.157527	0.068501	-0.016211
C23	C	-0.119473	-0.048953	0.011416
C24	C	-0.140798	-0.168026	0.039419
C25	C	-0.183444	-0.406187	0.095413
C26	C	-0.124060	-0.404554	0.095020
C27	C	-0.102736	-0.285471	0.067016
C28	C	-0.043365	-0.283861	0.066668
N29	N	-0.022038	-0.164784	0.038651
C30	C	-0.060092	-0.047330	0.011025
C31	C	-0.405585	-0.293751	0.069005
C32	C	-0.464964	-0.295378	0.069406
C33	C	-0.481692	-0.058837	0.013763
C34	C	-0.422312	-0.057214	0.013372
C35	C	-0.384259	-0.174674	0.040989
C36	C	0.064608	-0.043938	0.010237
C37	C	0.123994	-0.042330	0.009868
C38	C	0.140716	-0.278869	0.065504
C39	C	0.081336	-0.280479	0.065880
C40	C	0.043283	-0.163002	0.038239
O41	O	-0.005495	-0.383552	0.090159
O42	O	-0.036492	0.054089	-0.012853
C43	C	0.225244	-0.158036	0.037064
C44	C	0.162048	-0.159784	0.037494
C45	C	-0.677824	0.068379	-0.016182
C46	C	-0.678628	0.212374	-0.050042
C47	C	-0.663155	-0.406079	0.095411
C48	C	-0.662350	-0.550076	0.129280
N49	N	-0.697298	-0.109222	-0.328031
C50	C	-0.670074	0.256739	0.057108
C51	C	-0.670905	0.405565	0.022115
C52	C	-0.676452	-0.155600	-0.542081
C53	C	-0.664527	-0.182100	-0.378689
N54	N	-0.643686	-0.228467	0.407255
H55	H	-0.247885	0.162533	-0.038336
Br56	Br	-0.691853	0.332694	-0.246124
H57	H	-0.662133	0.184541	0.174749
H58	H	-0.654404	0.377730	0.246930
Br59	Br	-0.737927	-0.018926	-0.671380
Br60	Br	-0.212367	-0.567810	0.133425
Br61	Br	-0.684131	0.525882	-0.173976
Br62	Br	-0.603059	-0.318799	-0.249386
Br63	Br	-0.758775	0.027455	-0.457330
Br64	Br	0.012974	0.115496	-0.027276
Br65	Br	0.152930	0.119290	-0.028125
Br66	Br	-0.128595	0.230118	-0.054199
Br67	Br	-0.393379	0.104403	-0.024637
Br68	Br	-0.072420	-0.563972	0.132490
H69	H	-0.606809	-0.310475	-0.515157
H70	H	-0.512687	0.036800	-0.008732
H71	H	-0.374604	-0.389409	0.091506
H72	H	-0.482319	-0.392350	0.092230
H73	H	0.063974	-0.377445	0.088685
H74	H	0.171710	-0.374497	0.088003
