data_functionalizedCrystal
_audit_creation_method	'MofGen! by Chris Wilmer'
_symmetry_space_group_name_H-M	'P1'
_symmetry_Int_Tables_number	1
_symmetry_cell_setting	triclinic
loop_
_symmetry_equiv_pos_as_xyz
  x,y,z
_cell_length_a	15.298206
_cell_length_b	15.297327
_cell_length_c	15.298013
_cell_angle_alpha	91.640710
_cell_angle_beta	72.630534
_cell_angle_gamma	88.422996
loop_
_atom_site_label
_atom_site_type_symbol
_atom_site_fract_x
_atom_site_fract_y
_atom_site_fract_z
Zn1	Zn	1.225004	-0.504412	0.384937
Zn2	Zn	1.216231	-0.674493	0.265013
Zn3	Zn	1.096427	-0.504429	0.256388
Zn4	Zn	1.046177	-0.615643	0.435135
O5	O	1.145960	-0.574744	0.335368
O6	O	1.348819	-0.551594	0.351630
O7	O	1.217696	-0.676569	0.138874
O8	O	1.138185	-0.386704	0.248823
O9	O	1.342373	-0.676552	0.263523
O10	O	1.232650	-0.386691	0.343267
O11	O	1.129677	-0.551625	0.132538
O12	O	0.964783	-0.494561	0.297498
O13	O	1.052541	-0.576252	0.553471
O14	O	0.927865	-0.576270	0.428823
O15	O	1.183925	-0.494531	0.516591
O16	O	1.168971	-0.784409	0.312198
O17	O	1.044033	-0.741173	0.437186
C18	C	0.913918	-0.529032	0.367672
C19	C	0.814643	-0.509492	0.381517
C20	C	0.771335	-0.435318	0.434006
C21	C	0.678062	-0.416951	0.447014
C22	C	0.628086	-0.472760	0.407542
C23	C	0.671392	-0.546939	0.355058
C24	C	0.764676	-0.565304	0.342042
C25	C	0.621426	-0.602745	0.315579
C26	C	0.664732	-0.676924	0.263095
C27	C	0.758007	-0.695286	0.250082
C28	C	0.807983	-0.639478	0.289554
C29	C	0.528143	-0.584380	0.328595
C30	C	0.521483	-0.714365	0.236632
C31	C	0.614756	-0.732732	0.223623
C32	C	1.100119	-0.793316	0.381091
C33	C	1.080585	-0.886832	0.400670
C34	C	1.285894	-1.240365	0.195688
C35	C	1.304247	-1.152503	0.177289
C36	C	1.248333	-1.086081	0.233132
C37	C	1.174063	-1.107530	0.307379
C38	C	1.155704	-1.195401	0.325777
C39	C	1.118144	-1.041117	0.363221
C40	C	1.043874	-1.062565	0.437467
C41	C	1.025519	-1.150428	0.455862
C42	C	1.081432	-1.216850	0.400018
C43	C	1.136503	-0.953246	0.344823
C44	C	1.006313	-0.908281	0.474912
C45	C	0.987960	-0.996144	0.493311
C46	C	1.378907	-0.620636	0.302939
C47	C	1.478175	-0.640192	0.289120
C48	C	1.113606	-0.528825	0.568347
C49	C	1.099819	-0.509257	0.667629
C50	C	1.192001	-0.355320	0.289483
C51	C	1.211622	-0.261814	0.269930
C52	C	1.244266	-0.714315	0.960677
C53	C	1.257214	-0.732704	0.867399
C54	C	1.217866	-0.676844	0.817452
C55	C	1.165569	-0.602591	0.860792
C56	C	1.152613	-0.584204	0.954081
C57	C	1.126214	-0.546733	0.810856
C58	C	1.073916	-0.472480	0.854196
C59	C	1.060964	-0.454095	0.947475
C60	C	1.100311	-0.509956	0.997423
C61	C	1.139169	-0.565120	0.717567
C62	C	1.047517	-0.435009	0.710970
C63	C	1.034569	-0.416619	0.804248
C64	C	1.178177	-0.620502	1.103301
C65	C	1.191963	-0.640067	1.004019
H66	H	0.793266	-0.755682	0.207338
H67	H	0.552140	-0.457799	0.418134
Cl68	Cl	0.968824	-0.323277	0.858744
H69	H	1.181757	-0.625574	0.682286
Cl70	Cl	1.397617	-1.125544	0.083962
Cl71	Cl	1.084039	-0.486839	1.114691
Cl72	Cl	0.458663	-0.784526	0.187002
Cl73	Cl	0.925244	-0.662569	0.273209
H74	H	1.228411	-0.691822	0.741501
H75	H	0.960782	-0.854200	0.520383
H76	H	1.263280	-1.014541	0.218146
Cl77	Cl	0.669209	-0.825982	0.157644
H78	H	1.015477	-0.389523	0.670304
H79	H	0.812036	-0.389884	0.466133
H80	H	0.965034	-1.167887	0.516310
Cl81	Cl	0.995175	-0.360775	1.001970
H82	H	1.276289	-0.759793	1.001355
Cl83	Cl	1.058051	-1.327311	0.422834
H84	H	0.492893	-0.523982	0.371326
Cl85	Cl	0.623626	-0.323705	0.512994
Cl86	Cl	1.229868	-0.926292	0.251488
Cl87	Cl	1.322959	-0.826045	0.812920
H88	H	1.331406	-1.294451	0.150224
Cl89	Cl	0.894595	-1.023120	0.586647
