data_functionalizedCrystal
_audit_creation_method	'MofGen! by Chris Wilmer'
_symmetry_space_group_name_H-M	'P1'
_symmetry_Int_Tables_number	1
_symmetry_cell_setting	triclinic
loop_
_symmetry_equiv_pos_as_xyz
  x,y,z
_cell_length_a	14.908571
_cell_length_b	21.295417
_cell_length_c	14.909241
_cell_angle_alpha	86.669119
_cell_angle_beta	83.210755
_cell_angle_gamma	86.726349
loop_
_atom_site_label
_atom_site_type_symbol
_atom_site_fract_x
_atom_site_fract_y
_atom_site_fract_z
Zn1	Zn	1.413288	-0.283768	-0.591477
Zn2	Zn	1.913288	0.216232	-0.091477
Zn3	Zn	1.404421	-0.394784	-0.440090
Zn4	Zn	1.904421	0.105216	0.059910
Zn5	Zn	1.253184	-0.283784	-0.431408
Zn6	Zn	1.753184	0.216216	0.068592
Zn7	Zn	1.261861	-0.383251	-0.582694
Zn8	Zn	1.761861	0.116749	-0.082694
O9	O	1.333189	-0.336397	-0.511417
O10	O	1.833189	0.163603	-0.011417
O11	O	1.538778	-0.303315	-0.578704
O12	O	2.038778	0.196685	-0.078704
O13	O	1.377017	-0.384893	-0.312269
O14	O	1.877017	0.115107	0.187731
O15	O	1.274502	-0.195694	-0.452683
O16	O	1.774502	0.304306	0.047317
O17	O	1.532263	-0.384878	-0.467481
O18	O	2.032263	0.115122	0.032519
O19	O	1.392129	-0.195682	-0.570285
O20	O	1.892129	0.304318	-0.070285
O21	O	1.265904	-0.303341	-0.305890
O22	O	1.765904	0.196659	0.194110
O23	O	1.127669	-0.292158	-0.444167
O24	O	1.627669	0.207842	0.055833
O25	O	1.289291	-0.365221	-0.710528
O26	O	1.789291	0.134779	-0.210528
O27	O	1.134044	-0.365236	-0.555316
O28	O	1.634044	0.134764	-0.055316
O29	O	1.400543	-0.292132	-0.716981
O30	O	1.900543	0.207868	-0.216981
O31	O	1.385431	-0.481342	-0.458965
O32	O	1.885431	0.018658	0.041035
O33	O	1.280693	-0.472869	-0.563735
O34	O	1.780693	0.027131	-0.063735
C35	C	1.098014	-0.327448	-0.497847
C36	C	1.598014	0.172552	0.002153
C37	C	0.997406	-0.323634	-0.492063
C38	C	1.497406	0.176366	0.007937
C39	C	0.815031	-0.392694	-0.596779
C40	C	1.315031	0.107306	-0.096779
C41	C	0.720502	-0.389112	-0.591347
C42	C	1.220502	0.110888	-0.091347
C43	C	0.713816	-0.312885	-0.475774
C44	C	1.213816	0.187115	0.024226
C45	C	0.808345	-0.316467	-0.481206
C46	C	1.308345	0.183533	0.018794
C47	C	0.858950	-0.356373	-0.541709
C48	C	1.358950	0.143627	-0.041709
C49	C	0.953481	-0.359958	-0.547135
C50	C	1.453481	0.140042	-0.047135
C51	C	0.946794	-0.283728	-0.431567
C52	C	1.446794	0.216272	0.068433
C53	C	0.852264	-0.280147	-0.426136
C54	C	1.352264	0.219853	0.073864
C55	C	1.333067	-0.499946	-0.511360
C56	C	1.833067	0.000054	-0.011360
C57	C	1.333100	-0.569915	-0.511371
C58	C	1.833100	-0.069915	-0.011371
C59	C	1.387692	-0.607172	-0.456879
C60	C	1.887692	-0.107172	0.043121
C61	C	1.387735	-0.672916	-0.456902
C62	C	1.887735	-0.172916	0.043098
C63	C	1.333170	-0.701399	-0.511406
C64	C	1.833170	-0.201399	-0.011406
C65	C	1.278575	-0.664133	-0.565909
C66	C	1.778575	-0.164133	-0.065909
C67	C	1.278539	-0.598391	-0.565891
C68	C	1.778539	-0.098391	-0.065891
N69	N	1.254386	-0.801393	-0.513738
N70	N	1.754386	-0.301393	-0.013738
N71	N	1.254421	-0.863846	-0.513749
N72	N	1.754421	-0.363846	-0.013749
C73	C	1.333275	-0.899475	-0.511464
C74	C	1.833275	-0.399475	-0.011464
N75	N	1.412091	-0.870294	-0.509149
N76	N	1.912091	-0.370294	-0.009149
N77	N	1.412054	-0.807836	-0.509132
N78	N	1.912054	-0.307836	-0.009132
C79	C	1.333203	-0.772684	-0.511432
C80	C	1.833203	-0.272684	-0.011432
C81	C	1.387919	-1.008019	-0.456994
C82	C	1.887919	-0.508019	0.043006
C83	C	1.387964	-1.073764	-0.457023
C84	C	1.887964	-0.573764	0.042977
C85	C	1.278795	-1.064980	-0.566025
C86	C	1.778795	-0.564980	-0.066025
C87	C	1.278758	-0.999237	-0.566001
C88	C	1.778758	-0.499237	-0.066001
C89	C	1.333318	-0.970761	-0.511480
C90	C	1.833318	-0.470761	-0.011480
C91	C	1.569282	-0.345381	-0.525041
C92	C	2.069282	0.154619	-0.025041
C93	C	1.669891	-0.349210	-0.530846
C94	C	2.169891	0.150790	-0.030846
C95	C	1.346874	-0.327388	-0.747517
C96	C	1.846874	0.172612	-0.247517
C97	C	1.352706	-0.323550	-0.848129
C98	C	1.852706	0.176450	-0.348129
C99	C	1.333336	-0.172209	-0.511496
C100	C	1.833336	0.327791	-0.011496
C101	C	1.333399	-0.102242	-0.511529
C102	C	1.833399	0.397758	-0.011529
C103	C	1.247819	-0.392459	-1.030471
C104	C	1.747819	0.107541	-0.530471
C105	C	1.253296	-0.388854	-1.125005
C106	C	1.753296	0.111146	-0.625005
C107	C	1.369139	-0.312739	-1.131731
C108	C	1.869139	0.187261	-0.631731
C109	C	1.363663	-0.316344	-1.037198
C110	C	1.863663	0.183656	-0.537198
C111	C	1.303000	-0.356204	-0.986571
C112	C	1.803000	0.143796	-0.486571
C113	C	1.297519	-0.359806	-0.892035
C114	C	1.797519	0.140194	-0.392035
C115	C	1.413366	-0.283694	-0.898764
C116	C	1.913366	0.216306	-0.398764
C117	C	1.418843	-0.280089	-0.993297
C118	C	1.918843	0.219911	-0.493297
C119	C	1.319609	-0.345326	-0.276239
C120	C	1.819609	0.154674	0.223761
C121	C	1.313953	-0.348995	-0.175638
C122	C	1.813953	0.151005	0.324362
H123	H	1.432194	-0.703256	-0.412529
H124	H	1.932194	-0.203256	0.087471
H125	H	0.856234	-0.425191	-0.646038
H126	H	1.356234	0.074809	-0.146038
N127	N	0.675654	-0.426213	-0.647610
N128	N	1.175654	0.073787	-0.147610
N129	N	0.720852	-0.461837	-0.701627
N130	N	1.220852	0.038163	-0.201627
H131	H	0.689179	-0.488041	-0.741367
H132	H	1.189179	0.011959	-0.241367
H133	H	0.672598	-0.280391	-0.426522
H134	H	1.172598	0.219609	0.073478
H135	H	1.248115	-0.392255	-0.850816
H136	H	1.748115	0.107745	-0.350816
N137	N	0.800556	-0.239385	-0.364347
N138	N	1.300556	0.260615	0.135653
N139	N	0.716156	-0.236190	-0.359507
N140	N	1.216156	0.263810	0.140493
H141	H	0.679637	-0.207402	-0.315866
H142	H	1.179637	0.292598	0.184134
N143	N	1.222782	-0.560321	-0.621556
N144	N	1.722782	-0.060321	-0.121556
N145	N	1.257912	-0.522603	-0.681084
N146	N	1.757912	-0.022603	-0.181084
H147	H	1.218534	-0.495715	-0.720399
H148	H	1.718534	0.004285	-0.220399
N149	N	1.480813	-0.239372	-1.044998
N150	N	1.980813	0.260628	-0.544998
N151	N	1.563721	-0.247119	-1.039255
N152	N	2.063721	0.252881	-0.539255
H153	H	1.607488	-0.218359	-1.075766
H154	H	2.107488	0.281641	-0.575766
H155	H	0.982562	-0.254155	-0.386723
H156	H	1.482562	0.245845	0.113277
H157	H	1.198408	-0.424903	-0.989249
H158	H	1.698408	0.075097	-0.489249
N159	N	1.443428	-0.578096	-0.401185
N160	N	1.943428	-0.078096	0.098815
N161	N	1.492169	-0.611375	-0.352536
N162	N	1.992169	-0.111375	0.147464
H163	H	1.531534	-0.590839	-0.313202
H164	H	2.031534	-0.090839	0.186798
H165	H	1.458294	-0.254169	-0.863010
H166	H	1.958294	0.245831	-0.363010
H167	H	1.234149	-0.687328	-0.610288
H168	H	1.734149	-0.187328	-0.110288
H169	H	1.432425	-1.104098	-0.412652
H170	H	1.932425	-0.604098	0.087348
N171	N	1.443653	-0.978937	-0.401301
N172	N	1.943653	-0.478937	0.098699
N173	N	1.492400	-1.012214	-0.352656
N174	N	1.992400	-0.512214	0.147344
H175	H	1.531763	-0.991677	-0.313321
H176	H	2.031763	-0.491677	0.186679
H177	H	1.234371	-1.088170	-0.610407
H178	H	1.734371	-0.588170	-0.110407
H179	H	1.208363	-0.418377	-1.160745
H180	H	1.708363	0.081623	-0.660745
H181	H	1.234300	-0.968899	-0.610369
H182	H	1.734300	-0.468899	-0.110369
H183	H	0.994682	-0.392453	-0.596398
H184	H	1.494682	0.107547	-0.096398
H185	H	1.418535	-0.280292	-1.172968
H186	H	1.918535	0.219708	-0.672968
