data_functionalizedCrystal
_audit_creation_method	'MofGen! by Chris Wilmer'
_symmetry_space_group_name_H-M	'P1'
_symmetry_Int_Tables_number	1
_symmetry_cell_setting	triclinic
loop_
_symmetry_equiv_pos_as_xyz
  x,y,z
_cell_length_a	21.395362
_cell_length_b	19.077068
_cell_length_c	21.395356
_cell_angle_alpha	92.271626
_cell_angle_beta	89.964230
_cell_angle_gamma	92.343691
loop_
_atom_site_label
_atom_site_type_symbol
_atom_site_fract_x
_atom_site_fract_y
_atom_site_fract_z
Zn1	Zn	0.947810	-0.279939	-0.364584
Zn2	Zn	0.943524	-0.397635	-0.264011
Zn3	Zn	0.843039	-0.279987	-0.259787
Zn4	Zn	0.838791	-0.397635	-0.368715
O5	O	0.893291	-0.338799	-0.314274
O6	O	1.034921	-0.295532	-0.351282
O7	O	0.930178	-0.382049	-0.175773
O8	O	0.860508	-0.181488	-0.270193
O9	O	1.031771	-0.382003	-0.277391
O10	O	0.937484	-0.181453	-0.347186
O11	O	0.856352	-0.295613	-0.172670
O12	O	0.754797	-0.295613	-0.274198
O13	O	0.853269	-0.382003	-0.455845
O14	O	0.751676	-0.382048	-0.354227
O15	O	0.933365	-0.295532	-0.452810
O16	O	0.926060	-0.496128	-0.281396
O17	O	0.849113	-0.496128	-0.358323
C18	C	0.730502	-0.338836	-0.314203
C19	C	0.660860	-0.338869	-0.314188
C20	C	0.886677	-0.521666	-0.320780
C21	C	0.883905	-0.599897	-0.323584
C22	C	0.626536	-0.383936	-0.355801
C23	C	0.561101	-0.383919	-0.355829
C24	C	0.529992	-0.338842	-0.314232
C25	C	0.564324	-0.293766	-0.272615
C26	C	0.629758	-0.293780	-0.272594
C27	C	0.426478	-0.333180	-0.257624
C28	C	0.361045	-0.333171	-0.257645
C29	C	0.328173	-0.338796	-0.314299
C30	C	0.360741	-0.344444	-0.370935
C31	C	0.426175	-0.344458	-0.370913
C32	C	0.459041	-0.338822	-0.314251
C33	C	0.222897	-0.383847	-0.355946
C34	C	0.157462	-0.383824	-0.355974
C35	C	0.160686	-0.293676	-0.272755
C36	C	0.226121	-0.293694	-0.272732
C37	C	0.257222	-0.338783	-0.314327
C38	C	0.922696	-0.636626	-0.284883
C39	C	0.920092	-0.710133	-0.287524
C40	C	0.878694	-0.746908	-0.328863
C41	C	0.839901	-0.710173	-0.367568
C42	C	0.842509	-0.636668	-0.364930
C43	C	0.866600	-0.966747	-0.341047
C44	C	0.863994	-1.040257	-0.343681
C45	C	0.944186	-1.040212	-0.263638
C46	C	0.946787	-0.966706	-0.261001
C47	C	0.907997	-0.929977	-0.299708
N48	N	0.876030	-0.822043	-0.331562
N49	N	0.910664	-0.854843	-0.297012
C50	C	1.056716	-0.338762	-0.314347
C51	C	1.126358	-0.338746	-0.314377
C52	C	0.893321	-0.338762	-0.477697
C53	C	0.893334	-0.338746	-0.547337
C54	C	0.899948	-0.155218	-0.307758
C55	C	0.902785	-0.076987	-0.304980
C56	C	0.931851	-0.383606	-1.050745
C57	C	0.931839	-0.383628	-0.985310
C58	C	0.893398	-0.338635	-0.950972
C59	C	0.854954	-0.293628	-0.982074
C60	C	0.854962	-0.293612	-1.047508
C61	C	0.890736	-0.275249	-0.845051
C62	C	0.890732	-0.275264	-0.779618
C63	C	0.893368	-0.338685	-0.749153
C64	C	0.896021	-0.402092	-0.784128
C65	C	0.896029	-0.402076	-0.849561
C66	C	0.893384	-0.338647	-0.880020
C67	C	0.931793	-0.383716	-0.647107
C68	C	0.931776	-0.383739	-0.581671
C69	C	0.854895	-0.293733	-0.578436
C70	C	0.854908	-0.293716	-0.643871
C71	C	0.893360	-0.338706	-0.678202
C72	C	0.893299	-0.338785	-0.151486
C73	C	0.893415	-0.338602	-0.081839
H74	H	0.651855	-0.420650	-0.389672
C75	C	0.325223	-0.326965	-0.195349
C76	C	0.361378	-0.320767	-0.133031
C77	C	0.325557	-0.314564	-0.070732
C78	C	0.253582	-0.314558	-0.070752
C79	C	0.217424	-0.320755	-0.133073
C80	C	0.253244	-0.326959	-0.195371
H81	H	0.414661	-0.320772	-0.133014
H82	H	0.352325	-0.309976	-0.024599
H83	H	0.227066	-0.309965	-0.024635
H84	H	0.164140	-0.320751	-0.133090
H85	H	0.226477	-0.331547	-0.241505
H86	H	0.888631	-0.223597	-0.869850
H87	H	0.538992	-0.257063	-0.238748
H88	H	0.823654	-0.256995	-0.954112
C89	C	0.462636	-0.326989	-0.195301
C90	C	0.455981	-0.261938	-0.151218
C91	C	0.492140	-0.255745	-0.088899
C92	C	0.534954	-0.314603	-0.070663
C93	C	0.541611	-0.379659	-0.114747
C94	C	0.505452	-0.385852	-0.177066
H95	H	0.424286	-0.218364	-0.164717
H96	H	0.487212	-0.207586	-0.056265
H97	H	0.561721	-0.310019	-0.024530
H98	H	0.573306	-0.423233	-0.101248
H99	H	0.510380	-0.434011	-0.209700
C100	C	0.257115	-0.433434	-0.401705
C101	C	0.329089	-0.433454	-0.401681
C102	C	0.363304	-0.483040	-0.447441
C103	C	0.325546	-0.532605	-0.493226
C104	C	0.253567	-0.532587	-0.493251
C105	C	0.219352	-0.483001	-0.447491
H106	H	0.357044	-0.396761	-0.367787
H107	H	0.416588	-0.483053	-0.447422
H108	H	0.350874	-0.569311	-0.527100
H109	H	0.225612	-0.569279	-0.527145
H110	H	0.166069	-0.482987	-0.447511
H111	H	0.333979	-0.349023	-0.417068
C112	C	0.823929	-0.926347	-0.383618
C113	C	0.852842	-0.875748	-0.431029
C114	C	0.810170	-0.835343	-0.473600
C115	C	0.738584	-0.845536	-0.468761
C116	C	0.709667	-0.896137	-0.421349
C117	C	0.752339	-0.936543	-0.378777
H118	H	0.905838	-0.868201	-0.434613
H119	H	0.831577	-0.797884	-0.508698
H120	H	0.706995	-0.815625	-0.500275
H121	H	0.656671	-0.903685	-0.417765
H122	H	0.730933	-0.974001	-0.343679
C123	C	0.812632	-0.244204	-0.678079
C124	C	0.812639	-0.244185	-0.750053
C125	C	0.770360	-0.194673	-0.784261
C126	C	0.728074	-0.145181	-0.746495
C127	C	0.728065	-0.145198	-0.674516
C128	C	0.770344	-0.194710	-0.640308
H129	H	0.843944	-0.280824	-0.778014
H130	H	0.770367	-0.194661	-0.837544
H131	H	0.696776	-0.108529	-0.771817
H132	H	0.696761	-0.108559	-0.646555
H133	H	0.770338	-0.194722	-0.587025
H134	H	0.823662	-0.256963	-1.072824
C135	C	0.119704	-0.433401	-0.401753
C136	C	0.125764	-0.513408	-0.399359
C137	C	0.088006	-0.562986	-0.445139
C138	C	0.044188	-0.532557	-0.493313
C139	C	0.038126	-0.452546	-0.495709
C140	C	0.075884	-0.402968	-0.449929
H141	H	0.158202	-0.535937	-0.363695
H142	H	0.092493	-0.622215	-0.443365
H143	H	0.016237	-0.569257	-0.527202
H144	H	0.005687	-0.430017	-0.531373
H145	H	0.071396	-0.343739	-0.451703
C146	C	0.818461	-1.080712	-0.389165
C147	C	0.815595	-1.161565	-0.392065
C148	C	0.770067	-1.202020	-0.437548
C149	C	0.727404	-1.161622	-0.480130
C150	C	0.730268	-1.080765	-0.477231
C151	C	0.775796	-1.040310	-0.431749
H152	H	0.847179	-1.191474	-0.360542
H153	H	0.767947	-1.261876	-0.439693
H154	H	0.693701	-1.191569	-0.513799
H155	H	0.698685	-1.050856	-0.508755
H156	H	0.777916	-0.980454	-0.429603
H157	H	0.135358	-0.256970	-0.238889
H158	H	0.254068	-0.257000	-0.238843
H159	H	0.806197	-0.740121	-0.401230
H160	H	0.657704	-0.257079	-0.238707
C161	C	0.887796	-0.205520	-0.741150
C162	C	0.884870	-0.135761	-0.774657
C163	C	0.881925	-0.066017	-0.736190
C164	C	0.881906	-0.066031	-0.664215
C165	C	0.884832	-0.135793	-0.630704
C166	C	0.887777	-0.205538	-0.669171
H167	H	0.884884	-0.135748	-0.827940
H168	H	0.879759	-0.014375	-0.760997
H169	H	0.879725	-0.014402	-0.635740
H170	H	0.884818	-0.135806	-0.577421
H171	H	0.889943	-0.257180	-0.644364
H172	H	0.956404	-0.606689	-0.251218
H173	H	0.533149	-0.420617	-0.389717
C174	C	0.962767	-0.750531	-0.244952
C175	C	0.958056	-0.740483	-0.173358
C176	C	1.000736	-0.780879	-0.130786
C177	C	1.048127	-0.831323	-0.159809
C178	C	1.052840	-0.841373	-0.231407
C179	C	1.010160	-0.800977	-0.273979
H180	H	0.922972	-0.703140	-0.151870
H181	H	0.997246	-0.773439	-0.077784
H182	H	1.079721	-0.861227	-0.128295
H183	H	1.087924	-0.878717	-0.252895
H184	H	1.013649	-0.808417	-0.326981
C185	C	0.799836	-0.596261	-0.407499
C186	C	0.728250	-0.606455	-0.402661
C187	C	0.685579	-0.566049	-0.445234
C188	C	0.714493	-0.515449	-0.492643
C189	C	0.786083	-0.505253	-0.497482
C190	C	0.828754	-0.545659	-0.454910
H191	H	0.706843	-0.643914	-0.367564
H192	H	0.632583	-0.573597	-0.441651
H193	H	0.682905	-0.485538	-0.524157
H194	H	0.807490	-0.467794	-0.532579
H195	H	0.881750	-0.538111	-0.458492
C196	C	0.898939	-0.471820	-0.888034
C197	C	0.898947	-0.471799	-0.960008
C198	C	0.901854	-0.541543	-0.998481
C199	C	0.904752	-0.611309	-0.964980
C200	C	0.904745	-0.611332	-0.893001
C201	C	0.901838	-0.541588	-0.854528
H202	H	0.896801	-0.420152	-0.984811
H203	H	0.901860	-0.541526	-1.051764
H204	H	0.906904	-0.662938	-0.993460
H205	H	0.906890	-0.662979	-0.868198
H206	H	0.901832	-0.541605	-0.801245
H207	H	0.980496	-0.936765	-0.227339
H208	H	0.963160	-0.420243	-1.078693
C209	C	0.986858	-1.080614	-0.221067
C210	C	0.983996	-1.161467	-0.223966
C211	C	1.026673	-1.201869	-0.181396
C212	C	1.072211	-1.161418	-0.135925
C213	C	1.075075	-1.080560	-0.133024
C214	C	1.032398	-1.040159	-0.175595
H215	H	0.950285	-1.191415	-0.257628
H216	H	1.024553	-1.261725	-0.183543
H217	H	1.103803	-1.191325	-0.104412
H218	H	1.108786	-1.050612	-0.099363
H219	H	1.034518	-0.980303	-0.173447
H220	H	0.963148	-0.420267	-0.959988
H221	H	0.898168	-0.453735	-0.759324
H222	H	0.823594	-0.257100	-0.550479
H223	H	0.963101	-0.420351	-0.675061
H224	H	0.452690	-0.349055	-0.417027
H225	H	0.963072	-0.420393	-0.556355
