data_functionalizedCrystal
_audit_creation_method	'MofGen! by Chris Wilmer'
_symmetry_space_group_name_H-M	'P1'
_symmetry_Int_Tables_number	1
_symmetry_cell_setting	triclinic
loop_
_symmetry_equiv_pos_as_xyz
  x,y,z
_cell_length_a	14.446369
_cell_length_b	14.560438
_cell_length_c	14.560438
_cell_angle_alpha	60.000069
_cell_angle_beta	90.000111
_cell_angle_gamma	59.998281
loop_
_atom_site_label
_atom_site_type_symbol
_atom_site_fract_x
_atom_site_fract_y
_atom_site_fract_z
Zr1	Zr	0.891773	1.005228	-0.120475
O2	O	0.743963	1.196840	-0.267125
O3	O	0.937084	0.813624	-0.075521
O4	O	0.937084	1.005229	-0.267122
O5	O	0.743963	1.005233	0.075616
O6	O	1.089421	1.005220	-0.267116
O7	O	0.743963	1.005236	-0.075524
O8	O	1.089421	0.662475	0.075623
O9	O	0.743964	1.347978	-0.267122
O10	O	1.070096	0.892425	-0.056342
O11	O	0.956409	0.892429	0.056449
O12	O	0.956409	1.118018	-0.169136
O13	O	0.842722	1.118022	-0.056346
Zr14	Zr	1.134733	1.005211	0.120586
Zr15	Zr	1.134733	1.005215	-0.120466
Zr16	Zr	0.891773	1.005224	0.120578
Zr17	Zr	0.891773	1.246276	-0.120470
Zr18	Zr	1.134733	0.764163	0.120582
O19	O	1.089422	1.196815	0.075633
O20	O	1.089421	1.196821	-0.267113
O21	O	0.743964	1.196834	0.075620
O22	O	1.282542	0.813600	0.267237
O23	O	1.282542	0.813606	-0.075508
O24	O	0.937084	0.813618	0.267224
O25	O	1.282542	1.005206	-0.075505
O26	O	1.089422	1.005211	0.267233
O27	O	0.937085	1.005219	0.267228
O28	O	1.282542	1.005204	0.075636
O29	O	0.937085	1.347967	-0.267115
O30	O	1.089421	0.662472	0.267227
O31	O	1.282542	0.662462	0.267234
O32	O	1.282542	0.662465	0.075630
O33	O	0.743964	1.347974	-0.075518
O34	O	0.937085	1.347964	-0.075511
O35	O	1.070097	0.892421	0.169248
O36	O	1.183784	0.892417	0.056457
O37	O	1.070097	1.118010	-0.056337
O38	O	0.956409	1.118014	0.056453
C39	C	1.013252	0.703706	0.000050
C40	C	1.013252	0.601375	0.000048
C41	C	1.072593	0.553297	-0.058827
C42	C	1.072598	0.457137	-0.058817
C43	C	0.953910	0.457147	0.058946
C44	C	0.953913	0.553298	0.058942
C45	C	0.709347	1.005236	0.000045
C46	C	0.606204	1.005242	0.000041
C47	C	0.387835	1.147509	-0.070740
C48	C	0.495067	1.147605	-0.071138
C49	C	0.602880	0.934571	-0.051851
C50	C	0.495111	0.935474	-0.052370
C51	C	0.496475	0.932541	0.122804
C52	C	0.602444	0.935222	0.122611
C53	C	1.317159	1.005203	0.000067
C54	C	1.420302	1.005197	0.000071
C55	C	1.013252	1.005225	-0.301464
C56	C	1.013252	1.005227	-0.403797
C57	C	1.013253	1.306733	0.000062
C58	C	1.013254	1.409064	0.000063
C59	C	1.097176	1.005223	-0.451870
C60	C	1.097179	1.005212	-0.548016
C61	C	0.929325	1.005212	-0.548010
C62	C	0.929328	1.005215	-0.451861
C63	C	1.013253	1.005214	0.301575
C64	C	1.013253	1.005212	0.403908
C65	C	1.317158	0.703689	0.000061
C66	C	1.420301	0.601353	0.000063
C67	C	1.013253	0.703700	0.301570
C68	C	1.013253	0.601368	0.403901
C69	C	1.317159	0.703684	0.301581
C70	C	1.420302	0.601345	0.403916
C71	C	0.709347	1.306755	-0.301469
C72	C	0.606204	1.409094	-0.403804
C73	C	0.709347	1.306750	0.000050
C74	C	0.606205	1.409087	0.000049
C75	C	1.013253	1.306739	-0.301458
C76	C	1.013253	1.409072	-0.403789
C77	C	1.409417	0.553276	-0.058813
C78	C	1.506334	0.457128	-0.058816
C79	C	1.625017	0.457137	0.058944
C80	C	1.528100	0.553290	0.058939
C81	C	1.072595	0.553285	0.510856
C82	C	1.072582	0.457142	0.607003
C83	C	0.953882	0.457168	0.489226
C84	C	0.953889	0.553316	0.393081
C85	C	1.528102	0.553262	0.393120
C86	C	1.625012	0.457113	0.489279
C87	C	1.506307	0.457135	0.607025
C88	C	1.409400	0.553289	0.510867
H89	H	1.120920	0.417993	-0.106757
H90	H	1.497445	0.417993	0.694114
H91	H	1.536984	0.592390	0.306039
C92	C	1.290839	0.606152	-0.123589
N93	N	1.201527	0.645980	-0.172384
C94	C	0.836957	1.005305	-0.399021
N95	N	0.767372	1.005401	-0.359236
H96	H	1.321617	0.592442	0.519666
C97	C	0.888595	0.404294	0.477337
N98	N	0.839422	0.364467	0.468380
H99	H	1.497462	0.417991	-0.106761
H100	H	1.120912	0.592437	-0.106780
C101	C	1.540078	0.606177	0.123712
N102	N	1.549097	0.646013	0.172494
C103	C	0.888631	0.404263	0.123715
N104	N	0.839457	0.364437	0.172496
H105	H	1.712797	0.417991	0.106881
C106	C	0.837015	1.005195	-0.600888
N107	N	0.767485	1.005181	-0.640715
C108	C	1.137887	0.606148	0.522762
N109	N	1.187063	0.645965	0.531735
H110	H	0.905590	0.592442	0.106890
H111	H	1.120903	0.417999	0.694088
C112	C	1.189503	1.005221	-0.398994
N113	N	1.259050	1.005214	-0.359168
H114	H	0.905560	0.592468	0.305987
H115	H	0.493307	1.203334	-0.036601
H116	H	0.333879	1.203360	-0.036109
H117	H	0.681603	0.831360	0.179809
H118	H	1.712785	0.417968	0.480481
H119	H	0.332850	1.203091	-0.160730
C120	C	0.531115	0.794422	0.012800
N121	N	0.558237	0.688182	0.061880
H122	H	0.492621	1.203394	-0.161674
H123	H	0.681148	0.829896	-0.002759
C124	C	0.427094	1.003330	-0.174382
N125	N	0.375866	1.054442	-0.266285
H126	H	0.605015	0.983659	-0.141309
H127	H	0.601926	0.986751	0.161377
C128	C	0.428901	0.994068	0.181361
N129	N	0.377997	1.040424	0.225454
C130	C	0.533551	0.790914	0.194415
N131	N	0.561467	0.684245	0.248345
C132	C	1.189510	1.005192	-0.600884
N133	N	1.259061	1.005171	-0.640700
