data_functionalizedCrystal
_audit_creation_method	'MofGen! by Chris Wilmer'
_symmetry_space_group_name_H-M	'P1'
_symmetry_Int_Tables_number	1
_symmetry_cell_setting	triclinic
loop_
_symmetry_equiv_pos_as_xyz
  x,y,z
_cell_length_a	16.109301
_cell_length_b	16.109301
_cell_length_c	15.186229
_cell_angle_alpha	89.994833
_cell_angle_beta	89.999362
_cell_angle_gamma	83.461481
loop_
_atom_site_label
_atom_site_type_symbol
_atom_site_fract_x
_atom_site_fract_y
_atom_site_fract_z
O1	O	1.103131	0.106866	-0.073176
O2	O	0.861069	0.120165	-0.073190
O3	O	0.988749	-0.007515	-0.073174
O4	O	0.975450	0.234547	-0.073192
O5	O	0.988741	-0.007517	0.073284
O6	O	0.861060	0.120164	0.073267
O7	O	1.103122	0.106864	0.073282
Zn8	Zn	0.982090	0.113514	0.096528
Zn9	Zn	0.982101	0.113516	-0.096436
O10	O	0.975441	0.234545	0.073265
C11	C	0.830090	0.119626	0.000037
C12	C	0.737794	0.118011	0.000032
C13	C	0.515522	0.190018	0.000036
C14	C	0.428801	0.188494	0.000042
C15	C	0.448676	0.037006	0.000050
C16	C	0.535394	0.038530	0.000051
C17	C	0.568815	0.115039	0.000039
C18	C	0.395376	0.111990	0.000045
C19	C	0.301350	0.110337	0.000051
C20	C	0.662847	0.116693	0.000035
C21	C	0.988206	-0.038491	0.000056
C22	C	0.986591	-0.130786	0.000057
C23	C	1.058599	-0.353059	0.000047
C24	C	1.057075	-0.439779	0.000040
C25	C	0.905586	-0.419905	0.000034
C26	C	0.907111	-0.333186	0.000035
C27	C	0.983620	-0.299766	0.000046
C28	C	0.980571	-0.473205	0.000038
C29	C	0.978918	-0.567231	0.000030
C30	C	0.985273	-0.205734	0.000052
C31	C	1.134101	0.107404	0.000053
C32	C	1.226397	0.109019	0.000052
C33	C	0.975984	0.265521	0.000034
C34	C	0.977600	0.357816	0.000027
N35	N	0.982088	0.113511	0.228220
N36	N	0.982109	0.113512	-0.228129
C37	C	1.038644	0.056994	0.453950
C38	C	1.038647	0.056992	0.546140
C39	C	0.925547	0.170032	0.546135
C40	C	0.925541	0.170030	0.453947
C41	C	0.982094	0.113511	0.407857
C42	C	0.982103	0.113512	0.592235
C43	C	0.982105	0.113510	0.692191
C44	C	0.982091	0.113512	0.307894
H45	H	0.421454	-0.025285	0.000065
H46	H	0.578788	-0.022530	0.000056
C47	C	1.188183	-0.343287	-0.075248
C48	C	1.142694	-0.316319	0.000044
H49	H	1.240098	-0.320602	-0.075253
H50	H	1.198004	-0.402554	-0.075241
H51	H	1.157299	-0.324982	-0.126312
H52	H	1.173575	-0.334629	0.051109
H53	H	1.132876	-0.257040	0.000046
C54	C	1.122004	-0.581535	0.000027
C55	C	1.139494	-0.498360	0.000038
H56	H	1.172889	-0.617699	0.000018
H57	H	1.090639	-0.591669	0.051095
H58	H	1.090632	-0.591647	-0.051051
H59	H	1.170860	-0.488246	0.051120
H60	H	1.170872	-0.488222	-0.051035
C61	C	1.088871	0.006796	0.687458
C62	C	1.100809	-0.005134	0.596807
H63	H	1.127245	-0.031565	0.718735
H64	H	1.097885	0.062280	0.702556
H65	H	1.033387	-0.002252	0.702560
H66	H	1.156291	0.003920	0.581703
H67	H	1.091800	-0.060631	0.581703
C68	C	0.815993	-0.505900	-0.075253
C69	C	0.821492	-0.456647	0.000032
H70	H	0.764078	-0.528586	-0.075247
H71	H	0.819731	-0.472479	-0.126317
H72	H	0.860435	-0.550048	-0.075242
H73	H	0.777053	-0.412496	0.000018
H74	H	0.817746	-0.490071	0.051109
H75	H	0.846050	-0.289792	0.000032
C76	C	1.150431	-0.054749	0.463219
C77	C	1.100799	-0.005138	0.403288
H78	H	1.188798	-0.093111	0.431942
H79	H	1.180329	-0.020132	0.499165
H80	H	1.115824	-0.084658	0.499185
H81	H	1.135406	0.024777	0.367326
H82	H	1.070899	-0.039759	0.367326
H83	H	0.879503	0.216049	0.583670
C84	C	0.876678	0.313953	0.425538
C85	C	0.863379	0.232161	0.403273
H86	H	0.838305	0.352305	0.394250
H87	H	0.868585	0.322040	0.487030
H88	H	0.932163	0.322985	0.410420
H89	H	0.807896	0.223127	0.418398
H90	H	0.871466	0.224071	0.341768
C91	C	0.525273	0.319617	-0.075253
C92	C	0.552256	0.274117	0.000033
H93	H	0.547945	0.371540	-0.075249
H94	H	0.543574	0.288752	-0.126316
H95	H	0.465998	0.329430	-0.075243
H96	H	0.611530	0.264299	0.000020
H97	H	0.533959	0.304989	0.051109
C98	C	0.319749	0.274661	-0.075252
C99	C	0.370220	0.270913	0.000033
H100	H	0.283581	0.325543	-0.075253
H101	H	0.353992	0.272109	-0.126316
H102	H	0.287435	0.228877	-0.075236
H103	H	0.402539	0.316694	0.000014
H104	H	0.335973	0.273473	0.051110
