data_functionalizedCrystal
_audit_creation_method	'MofGen! by Chris Wilmer'
_symmetry_space_group_name_H-M	'P1'
_symmetry_Int_Tables_number	1
_symmetry_cell_setting	triclinic
loop_
_symmetry_equiv_pos_as_xyz
  x,y,z
_cell_length_a	8.559649
_cell_length_b	17.038272
_cell_length_c	7.681187
_cell_angle_alpha	83.854209
_cell_angle_beta	94.921715
_cell_angle_gamma	80.445110
loop_
_atom_site_label
_atom_site_type_symbol
_atom_site_fract_x
_atom_site_fract_y
_atom_site_fract_z
O1	O	2.130536	-0.034548	0.146425
O2	O	1.670777	0.005503	0.146431
O3	O	1.897923	-0.128174	0.146414
O4	O	1.903391	0.099128	0.146442
O5	O	1.869931	-0.111697	-0.146454
O6	O	1.642785	0.021979	-0.146437
O7	O	2.102544	-0.018072	-0.146443
Zn8	Zn	1.868220	0.004570	-0.192939
Zn9	Zn	1.905101	-0.017139	0.192927
O10	O	1.875398	0.115605	-0.146426
C11	C	1.597664	0.016776	-0.000002
C12	C	1.421512	0.025811	-0.000000
C13	C	1.878956	-0.148766	-0.000020
C14	C	1.864127	-0.234670	-0.000019
C15	C	2.000279	-0.292942	-0.000022
C16	C	1.986337	-0.373658	-0.000006
C17	C	1.836241	-0.396100	0.000002
C18	C	1.700079	-0.337822	0.000011
C19	C	1.714024	-0.257108	0.000007
C20	C	1.786979	-0.638908	0.000027
C21	C	1.773044	-0.719628	0.000026
C22	C	2.059304	-0.755459	0.000013
C23	C	2.073234	-0.674741	-0.000002
C24	C	1.937073	-0.616471	0.000016
C25	C	1.821986	-0.478604	0.000014
C26	C	1.951330	-0.533969	0.000017
C27	C	2.175658	-0.029345	-0.000006
C28	C	2.351811	-0.038380	0.000004
C29	C	1.894365	0.136197	0.000012
C30	C	1.909196	0.222100	0.000023
N31	N	1.843061	0.019384	-0.456283
N32	N	1.930272	-0.031960	0.456271
H33	H	1.426905	-0.100253	-0.000003
H34	H	1.346428	0.087678	0.000025
H35	H	2.122502	-0.274677	-0.000040
H36	H	2.097207	-0.421101	-0.000012
C37	C	1.722846	0.090173	-0.557903
C38	C	1.703390	0.101374	-0.760677
C39	C	1.583173	0.172164	-0.862310
C40	C	1.482412	0.231754	-0.761169
C41	C	1.501866	0.220554	-0.558384
C42	C	1.622083	0.149764	-0.456751
H43	H	1.777981	0.057261	-0.835557
H44	H	1.568772	0.180454	-1.012425
H45	H	1.393420	0.284157	-0.836404
H46	H	1.427274	0.264668	-0.483503
H47	H	1.636483	0.141474	-0.306635
H48	H	1.577868	-0.356101	0.000029
H49	H	2.195458	-0.656477	-0.000009
H50	H	1.676106	-0.591472	0.000041
C51	C	2.116432	-0.509285	0.000005
C52	C	2.150821	-0.450168	-0.152082
C53	C	2.315922	-0.425475	-0.152103
C54	C	2.446635	-0.459898	-0.000037
C55	C	2.412250	-0.519018	0.152062
C56	C	2.247149	-0.543711	0.152082
H57	H	2.054056	-0.424683	-0.264661
H58	H	2.341375	-0.381710	-0.264698
H59	H	2.568853	-0.441618	-0.000053
H60	H	2.509015	-0.544503	0.264640
H61	H	2.221696	-0.587476	0.264677
H62	H	1.603154	-0.209662	0.000010
H63	H	2.170158	-0.802911	0.000001
C64	C	1.656885	-0.503298	0.000010
C65	C	1.526183	-0.468880	-0.152071
C66	C	1.361086	-0.493579	-0.152068
C67	C	1.326690	-0.552696	0.000015
C68	C	1.457396	-0.587117	0.152108
C69	C	1.622493	-0.562418	0.152105
H70	H	1.551641	-0.425116	-0.264662
H71	H	1.264329	-0.468099	-0.264658
H72	H	1.204475	-0.570980	0.000017
H73	H	1.431938	-0.630881	0.264699
H74	H	1.719250	-0.587899	0.264695
H75	H	2.019255	-0.084364	-0.468490
H76	H	1.650809	-0.737894	0.000004
