data_functionalizedCrystal
_audit_creation_method	'MofGen! by Chris Wilmer'
_symmetry_space_group_name_H-M	'P1'
_symmetry_Int_Tables_number	1
_symmetry_cell_setting	triclinic
loop_
_symmetry_equiv_pos_as_xyz
  x,y,z
_cell_length_a	6.394989
_cell_length_b	16.109301
_cell_length_c	15.186229
_cell_angle_alpha	90.000638
_cell_angle_beta	90.000778
_cell_angle_gamma	84.979596
loop_
_atom_site_label
_atom_site_type_symbol
_atom_site_fract_x
_atom_site_fract_y
_atom_site_fract_z
O1	O	-0.268480	-1.105973	-0.073167
O2	O	-0.301892	-0.864264	-0.073180
O3	O	0.018881	-0.988549	-0.073174
O4	O	-0.589252	-0.981688	-0.073173
O5	O	0.018885	-0.988541	0.073283
O6	O	-0.301887	-0.864256	0.073277
O7	O	-0.268475	-1.105964	0.073290
Zn8	Zn	-0.285181	-0.985109	0.096537
Zn9	Zn	-0.285187	-0.985120	-0.096427
O10	O	-0.589248	-0.981679	0.073284
C11	C	-0.300536	-0.833271	0.000047
C12	C	-0.296479	-0.740933	0.000041
C13	C	-0.269831	-1.136958	0.000061
C14	C	-0.273889	-1.229296	0.000061
N15	N	-0.285175	-0.985107	0.228229
C16	C	0.096703	-0.987189	0.000051
C17	C	0.332935	-0.983042	0.000050
N18	N	-0.285175	-0.985128	-0.228120
C19	C	-0.477384	-0.520575	0.000052
C20	C	-0.473555	-0.433814	0.000057
C21	C	-0.092969	-0.449660	0.000053
C22	C	-0.096800	-0.536419	0.000054
C23	C	-0.289014	-0.571874	0.000049
C24	C	-0.281354	-0.398354	0.000054
C25	C	-0.277201	-0.304284	0.000060
C26	C	-0.293168	-0.665950	0.000044
C27	C	-0.143185	-1.040160	0.453955
C28	C	-0.143180	-1.040163	0.546145
C29	C	-0.427172	-0.930069	0.546148
C30	C	-0.427166	-0.930063	0.453960
C31	C	-0.285175	-0.985113	0.407866
C32	C	-0.285176	-0.985122	0.592244
C33	C	-0.285172	-0.985124	0.692200
C34	C	-0.285176	-0.985110	0.307904
H35	H	-0.626945	-0.392050	0.000062
H36	H	-0.633896	-0.549440	0.000054
C37	C	0.081894	-0.323699	0.000041
C38	C	0.118305	-0.410684	0.000047
H39	H	0.212331	-0.299641	0.000030
H40	H	0.004360	-0.306228	0.051112
H41	H	0.004323	-0.306236	-0.051034
H42	H	0.195863	-0.428147	0.051126
H43	H	0.195871	-0.428162	-0.051029
H44	H	-0.027564	-1.084984	0.416427
C45	C	0.226409	-0.576650	-0.075245
C46	C	0.110271	-0.592816	0.000047
H47	H	0.354232	-0.611471	-0.075248
H48	H	0.256203	-0.519913	-0.075240
H49	H	0.147563	-0.587616	-0.126310
H50	H	0.189111	-0.581844	0.051112
H51	H	0.080483	-0.649566	0.000050
C52	C	-0.788736	-0.885025	0.574520
C53	C	-0.583257	-0.869560	0.596813
H54	H	-0.885095	-0.847665	0.605792
H55	H	-0.811455	-0.940741	0.589630
H56	H	-0.809018	-0.877145	0.513017
H57	H	-0.562970	-0.877447	0.658315
H58	H	-0.560529	-0.813832	0.581709
C59	C	0.137510	-1.148991	0.536875
C60	C	0.012891	-1.100676	0.596806
H61	H	0.233857	-1.186353	0.568153
H62	H	0.212670	-1.113598	0.500924
H63	H	0.050513	-1.179800	0.500914
H64	H	0.099887	-1.069862	0.632763
H65	H	-0.062274	-1.136074	0.632772
C66	C	-0.711417	-0.914993	0.350276
C67	C	-0.583259	-0.869554	0.403291
H68	H	-0.807764	-0.877636	0.318992
H69	H	-0.786576	-0.950379	0.386236
H70	H	-0.626820	-0.947770	0.309635
H71	H	-0.667855	-0.836781	0.443937
H72	H	-0.508095	-0.834153	0.367329
