data_functionalizedCrystal
_audit_creation_method	'MofGen! by Chris Wilmer'
_symmetry_space_group_name_H-M	'P1'
_symmetry_Int_Tables_number	1
_symmetry_cell_setting	triclinic
loop_
_symmetry_equiv_pos_as_xyz
  x,y,z
_cell_length_a	9.065218
_cell_length_b	11.295483
_cell_length_c	12.784905
_cell_angle_alpha	86.337109
_cell_angle_beta	79.061602
_cell_angle_gamma	94.166271
loop_
_atom_site_label
_atom_site_type_symbol
_atom_site_fract_x
_atom_site_fract_y
_atom_site_fract_z
O1	O	1.948384	0.099024	0.148604
O2	O	1.517225	0.099025	0.161371
O3	O	1.764355	0.099021	0.000564
O4	O	1.701254	0.099028	0.309411
O5	O	1.742652	-0.099029	0.014666
O6	O	1.495522	-0.099025	0.175473
O7	O	1.926681	-0.099027	0.162706
Cu8	Cu	1.709120	-0.117109	0.170377
Cu9	Cu	1.734786	0.117108	0.153700
O10	O	1.679551	-0.099022	0.323513
C11	C	1.451567	0.000000	0.167195
C12	C	1.288263	0.000001	0.163526
N13	N	1.691078	-0.281845	0.182106
C14	C	1.882722	-0.531138	0.057469
C15	C	1.869097	-0.655802	0.066340
C16	C	1.650199	-0.655838	0.208715
C17	C	1.663823	-0.531175	0.199844
C18	C	1.780090	-0.468829	0.124219
C19	C	1.793720	-0.344163	0.115353
C20	C	1.574816	-0.344202	0.257722
C21	C	1.561191	-0.468865	0.266594
C22	C	1.992340	0.000001	0.156881
C23	C	2.155644	0.000008	0.160550
C24	C	1.757608	-0.000002	-0.031945
C25	C	1.769820	0.000003	-0.149822
N26	N	1.752841	0.281844	0.141962
C27	C	1.521033	-0.000008	-0.348600
C28	C	1.532500	-0.000004	-0.459355
C29	C	1.804218	0.000008	-0.482088
C30	C	1.792751	0.000004	-0.371333
C31	C	1.651154	-0.000003	-0.304592
C32	C	1.639689	0.000001	-0.193836
C33	C	1.911405	0.000004	-0.216570
C34	C	1.922872	0.000009	-0.327325
C35	C	1.686298	0.000004	0.356022
C36	C	1.674088	0.000007	0.473898
H37	H	1.977400	-0.480375	-0.004101
N38	N	1.486963	-0.000025	-0.121861
H39	H	1.468119	-0.073449	-0.070184
H40	H	1.484260	0.073434	-0.080692
H41	H	1.952669	-0.706530	0.011984
H42	H	1.466525	-0.519642	0.328164
N43	N	2.051758	-0.000003	-0.169102
H44	H	2.143193	0.000002	-0.228191
H45	H	2.060960	0.073417	-0.128871
H46	H	1.888394	-0.293403	0.053779
N47	N	1.524804	-0.723108	0.290263
H48	H	1.569428	-0.774828	0.341503
H49	H	1.461882	-0.664657	0.331135
N50	N	1.464119	-0.276999	0.329732
H51	H	1.490392	-0.188564	0.312642
H52	H	1.358786	-0.298803	0.317978
N53	N	1.368324	0.000003	-0.276610
H54	H	1.287631	0.000007	-0.321296
H55	H	1.349600	-0.073417	-0.224936
N56	N	2.075586	0.000031	-0.399316
H57	H	2.156278	0.000038	-0.354628
H58	H	2.078232	-0.073386	-0.440541
H59	H	1.426541	-0.000014	-0.495180
H60	H	1.919497	-0.000001	-0.536445
