data_functionalizedCrystal
_audit_creation_method	'MofGen! by Chris Wilmer'
_symmetry_space_group_name_H-M	'P1'
_symmetry_Int_Tables_number	1
_symmetry_cell_setting	triclinic
loop_
_symmetry_equiv_pos_as_xyz
  x,y,z
_cell_length_a	6.817900
_cell_length_b	10.992723
_cell_length_c	10.992410
_cell_angle_alpha	91.830958
_cell_angle_beta	108.764651
_cell_angle_gamma	108.770285
loop_
_atom_site_label
_atom_site_type_symbol
_atom_site_fract_x
_atom_site_fract_y
_atom_site_fract_z
V1	V	-4.114281	-0.177763	-0.400582
O2	O	-4.072374	0.008542	-0.392968
O3	O	-4.091893	-0.352473	-0.397831
O4	O	-4.091873	-0.175028	-0.575295
O5	O	-4.072394	-0.170131	-0.214276
V6	V	-4.591171	-0.155478	-0.378300
O7	O	-4.390091	-0.226645	-0.449460
O8	O	-4.765559	-0.106596	-0.329421
O9	O	-4.390353	0.019232	-0.381050
O10	O	-4.750475	-0.341783	-0.385913
O11	O	-4.750455	-0.163110	-0.564605
O12	O	-4.390373	-0.158213	-0.203587
C13	C	-3.942380	-0.395064	-0.391509
C14	C	-4.005535	-0.537892	-0.390424
C15	C	-4.317466	-0.748833	-0.396136
C16	C	-4.252189	-0.600354	-0.397761
C17	C	-3.982608	-0.607105	-0.509425
C18	C	-4.049772	-0.755778	-0.508444
C19	C	-3.918395	-0.717504	-0.262824
C20	C	-3.856042	-0.568782	-0.262474
C21	C	-3.942354	-0.168714	-0.617879
C22	C	-4.005488	-0.167634	-0.760708
C23	C	-3.872609	-0.157797	-0.955832
C24	C	-3.807059	-0.159452	-0.807348
C25	C	-4.203527	-0.294316	-0.837804
C26	C	-4.267841	-0.293195	-0.986371
C27	C	-4.145561	-0.047894	-0.948354
C28	C	-4.074852	-0.047293	-0.799341
C29	C	-4.203208	0.061816	-0.387369
C30	C	-4.119293	0.204643	-0.388462
C31	C	-4.203234	-0.164532	-0.160995
C32	C	-4.119337	-0.165605	-0.018165
H33	H	-4.375016	-0.774000	-0.310573
C34	C	-4.141727	-0.415022	-0.803215
N35	N	-4.095165	-0.505935	-0.777167
H36	H	-3.905367	-0.786810	-0.508115
H37	H	-4.216965	-0.045806	-0.766830
H38	H	-4.449845	-0.304211	-1.029001
H39	H	-3.957867	-0.742960	-0.171595
C40	C	-4.410568	-0.575159	-0.521815
N41	N	-4.529855	-0.556186	-0.615264
C42	C	-4.387355	-0.054105	-1.003538
N43	N	-4.569474	-0.058791	-1.045111
C44	C	-3.880113	-0.505819	-0.143435
N45	N	-3.898238	-0.458382	-0.053776
C46	C	-4.518512	-0.821960	-0.518593
N47	N	-4.669934	-0.877038	-0.610833
C48	C	-3.743658	-0.552473	-0.508288
N49	N	-3.563679	-0.511321	-0.507430
H50	H	-3.749895	-0.245203	-0.782528
C51	C	-3.838929	-0.272049	-1.020665
N52	N	-3.813568	-0.358105	-1.069502
H53	H	-3.673420	-0.524703	-0.249649
H54	H	-4.191229	-0.807600	-0.603052
C55	C	-3.717422	-0.756951	-0.253627
N56	N	-3.566064	-0.786672	-0.246709
H57	H	-3.755388	-0.066081	-0.974667
C58	C	-4.128099	-0.579844	-0.637339
N59	N	-4.237695	-0.559314	-0.733682
C60	C	-3.606447	-0.036408	-0.735293
N61	N	-3.455328	0.056268	-0.681027
H62	H	-4.252295	-0.382324	-1.032635
C63	C	-4.406682	-0.308592	-0.798888
N64	N	-4.559696	-0.319343	-0.769573
C65	C	-4.006495	0.082068	-0.975860
N66	N	-3.901731	0.179950	-0.996577
H67	H	-4.277091	-0.553204	-0.312705
C68	C	-3.881298	0.079313	-0.728621
N69	N	-3.735507	0.174670	-0.675344
