data_functionalizedCrystal
_audit_creation_method	'MofGen! by Chris Wilmer'
_symmetry_space_group_name_H-M	'P1'
_symmetry_Int_Tables_number	1
_symmetry_cell_setting	triclinic
loop_
_symmetry_equiv_pos_as_xyz
  x,y,z
_cell_length_a	17.699083
_cell_length_b	17.699083
_cell_length_c	16.176319
_cell_angle_alpha	90.001116
_cell_angle_beta	89.999583
_cell_angle_gamma	83.283014
loop_
_atom_site_label
_atom_site_type_symbol
_atom_site_fract_x
_atom_site_fract_y
_atom_site_fract_z
O1	O	1.004072	0.095715	0.068702
O2	O	0.783693	0.108167	0.068710
O3	O	0.900109	-0.008248	0.068714
O4	O	0.887656	0.212130	0.068698
O5	O	0.900107	-0.008259	-0.068779
O6	O	0.783691	0.108157	-0.068784
O7	O	1.004070	0.095704	-0.068791
Cu8	Cu	0.893880	0.101929	-0.081341
Cu9	Cu	0.893883	0.101942	0.081260
O10	O	0.887654	0.212120	-0.068795
C11	C	0.755495	0.107716	-0.000036
C12	C	0.671477	0.106377	-0.000033
C13	C	1.032268	0.096156	-0.000044
C14	C	1.116286	0.097494	-0.000042
C15	C	0.888102	0.240322	-0.000051
C16	C	0.889440	0.324340	-0.000057
C17	C	0.899662	-0.036451	-0.000029
C18	C	0.898323	-0.120469	-0.000017
C19	C	1.164907	0.029161	-0.000034
C20	C	1.243850	0.030423	-0.000037
C21	C	1.274171	0.100020	-0.000041
C22	C	1.225544	0.168358	-0.000052
C23	C	1.146602	0.167095	-0.000055
C24	C	1.543907	0.173453	-0.000040
C25	C	1.622855	0.174711	-0.000034
C26	C	1.641155	0.036781	-0.000022
C27	C	1.562213	0.035518	-0.000025
C28	C	1.513593	0.103857	-0.000040
C29	C	1.427994	0.102487	-0.000038
C30	C	1.359769	0.101390	-0.000037
N31	N	0.893885	0.101945	0.195625
C32	C	0.821107	0.372961	-0.000054
C33	C	0.822369	0.451904	-0.000045
C34	C	0.891965	0.482225	-0.000043
C35	C	0.960304	0.433598	-0.000043
C36	C	0.959041	0.354656	-0.000047
C37	C	0.965399	0.751961	-0.000027
C38	C	0.966657	0.830909	-0.000026
C39	C	0.828727	0.849209	-0.000025
C40	C	0.827464	0.770267	-0.000029
C41	C	0.895803	0.721647	-0.000024
C42	C	0.894433	0.636048	-0.000033
C43	C	0.893336	0.567823	-0.000040
N44	N	0.893884	0.101920	-0.195707
C45	C	0.945529	0.050498	0.238891
C46	C	0.945532	0.050496	0.325439
C47	C	0.893887	0.101939	0.368718
C48	C	0.842240	0.153392	0.325446
C49	C	0.842241	0.153397	0.238900
C50	C	0.842234	0.153375	0.674474
C51	C	0.842236	0.153364	0.761026
C52	C	0.945525	0.050474	0.761012
C53	C	0.945527	0.050479	0.674467
C54	C	0.893883	0.101934	0.631202
C55	C	0.893881	0.101936	0.537358
C56	C	0.893884	0.101934	0.462561
H57	H	1.140226	-0.027513	-0.000025
H58	H	0.987579	0.008587	0.639231
N59	N	1.491508	0.247180	-0.000123
H60	H	1.501232	0.277590	0.050822
H61	H	1.436906	0.235803	-0.000183
N62	N	1.693602	-0.036925	-0.000020
H63	H	1.683863	-0.067301	-0.050985
H64	H	1.683840	-0.067231	0.050986
N65	N	1.529507	-0.039544	-0.000028
H66	H	1.497158	-0.043141	0.050938
H67	H	1.572328	-0.082600	-0.000058
H68	H	0.773083	0.888806	-0.000025
N69	N	0.746038	0.340267	-0.000064
H70	H	0.716107	0.358006	0.050907
H71	H	0.755664	0.282885	-0.000101
N72	N	1.041725	0.863615	-0.000025
H73	H	1.084826	0.820836	-0.000021
H74	H	1.045248	0.895972	0.050945
H75	H	1.647538	0.231388	-0.000042
N76	N	0.748667	0.504346	-0.000043
H77	H	0.718295	0.494602	0.050923
H78	H	0.718359	0.494586	-0.051048
H79	H	0.800183	0.195270	0.639255
N80	N	1.258242	0.243425	-0.000062
H81	H	1.315630	0.233857	-0.000055
H82	H	1.240442	0.273324	0.050906
H83	H	1.107015	0.222739	-0.000064
N84	N	1.039103	0.699527	-0.000032
H85	H	1.083382	0.730716	-0.000037
H86	H	1.041580	0.666378	-0.051005
N87	N	0.752400	0.737564	-0.000042
H88	H	0.709301	0.780345	-0.000040
H89	H	0.748870	0.705206	0.050924
H90	H	1.016971	0.458291	-0.000043
N91	N	1.032743	0.302211	-0.000045
H92	H	1.077024	0.333396	-0.000045
H93	H	1.035224	0.269058	-0.051016
H94	H	0.987582	0.008604	0.203659
N95	N	0.786535	0.208879	0.192228
H96	H	0.815323	0.242420	0.156325
H97	H	0.753828	0.241415	0.232827
N98	N	1.001235	-0.004992	0.372105
H99	H	1.033949	-0.037583	0.331555
H100	H	0.972393	-0.038478	0.408012
N101	N	1.001222	-0.005034	0.807676
H102	H	0.993386	0.002764	0.869070
H103	H	1.054871	0.003732	0.792553
N104	N	0.786528	0.208849	0.807709
H105	H	0.753812	0.241448	0.767169
H106	H	0.815371	0.242328	0.843625
N107	N	0.786533	0.208879	0.372117
H108	H	0.815318	0.242414	0.408032
H109	H	0.753152	0.179871	0.407971
N110	N	1.296292	-0.043279	-0.000038
H111	H	1.265105	-0.087559	-0.000033
H112	H	1.329447	-0.045758	0.050930
