data_functionalizedCrystal
_audit_creation_method	'MofGen! by Chris Wilmer'
_symmetry_space_group_name_H-M	'P1'
_symmetry_Int_Tables_number	1
_symmetry_cell_setting	triclinic
loop_
_symmetry_equiv_pos_as_xyz
  x,y,z
_cell_length_a	14.044220
_cell_length_b	12.837943
_cell_length_c	11.892095
_cell_angle_alpha	94.310562
_cell_angle_beta	94.243827
_cell_angle_gamma	85.991091
loop_
_atom_site_label
_atom_site_type_symbol
_atom_site_fract_x
_atom_site_fract_y
_atom_site_fract_z
O1	O	0.242985	-1.404549	-0.093990
O2	O	0.230709	-1.101609	-0.093996
O3	O	0.098452	-1.248531	-0.093982
O4	O	0.375241	-1.257627	-0.094004
O5	O	0.109461	-1.236280	0.094025
O6	O	0.241718	-1.089357	0.094010
O7	O	0.253993	-1.392297	0.094017
Zn8	Zn	0.249603	-1.238882	0.123864
Zn9	Zn	0.235099	-1.255024	-0.123843
O10	O	0.386250	-1.245375	0.094002
C11	C	0.068282	-1.238425	0.000022
C12	C	-0.038016	-1.226550	0.000023
C13	C	0.232067	-1.056479	0.000007
C14	C	0.219699	-0.940259	0.000005
C15	C	0.252635	-1.437428	0.000012
C16	C	0.265002	-1.553649	0.000006
C17	C	-0.232639	-1.204843	0.000006
C18	C	-0.282665	-1.289060	0.000005
C19	C	-0.390960	-1.276982	-0.000005
C20	C	-0.124334	-1.216919	0.000016
C21	C	0.416420	-1.255482	-0.000004
C22	C	0.522717	-1.267357	-0.000012
N23	N	0.259502	-1.227873	0.292917
C24	C	0.368378	-0.713048	0.000009
C25	C	0.356763	-0.603848	0.000008
C26	C	0.184853	-0.612657	0.000009
C27	C	0.196469	-0.721856	0.000011
C28	C	0.288234	-0.772048	0.000008
C29	C	0.299849	-0.881251	0.000001
C30	C	0.127940	-0.890056	0.000011
C31	C	0.116324	-0.780857	0.000010
N32	N	0.225193	-1.266041	-0.292896
C33	C	0.156258	-1.342643	0.529576
C34	C	0.163185	-1.334956	0.647917
C35	C	0.280277	-1.204807	0.647942
C36	C	0.273350	-1.212494	0.529601
C37	C	0.211340	-1.281415	0.470422
C38	C	0.204418	-1.289107	0.352079
C39	C	0.321505	-1.158954	0.352106
C40	C	0.328432	-1.151267	0.470447
H41	H	-0.244167	-1.370237	-0.000070
H42	H	-0.271140	-1.123677	0.000002
O43	O	0.144027	-1.355929	0.294665
C44	C	-0.018751	-1.404161	0.258589
C45	C	0.049548	-1.328402	0.323639
H46	H	-0.095150	-1.381946	0.282008
H47	H	-0.014353	-1.399157	0.163825
H48	H	0.002705	-1.487524	0.281837
H49	H	0.028137	-1.245006	0.300485
H50	H	0.045139	-1.333497	0.418387
H51	H	0.105774	-1.398769	0.481391
H52	H	0.374569	-0.922115	0.000002
O53	O	0.340627	-1.137913	0.705308
C54	C	0.503389	-1.089680	0.741588
C55	C	0.435151	-1.165502	0.676536
H56	H	0.579828	-1.111971	0.718368
H57	H	0.482036	-1.006304	0.718304
H58	H	0.498823	-1.094674	0.836326
H59	H	0.439682	-1.160600	0.581783
H60	H	0.456525	-1.248845	0.699913
H61	H	0.443098	-0.753915	0.000005
H62	H	0.062681	-0.938107	0.000003
H63	H	0.422025	-0.555814	0.000011
O64	O	0.109641	-1.394540	0.705204
C65	C	-0.007279	-1.524387	0.692685
C66	C	0.053326	-1.456987	0.627668
H67	H	-0.052840	-1.574876	0.630026
H68	H	0.041925	-1.576899	0.748046
H69	H	-0.055841	-1.471217	0.748132
H70	H	0.101895	-1.510077	0.572160
H71	H	0.004067	-1.404466	0.572378
H72	H	0.378917	-1.095149	0.518645
O73	O	0.095784	-0.563727	-0.000026
C74	C	0.001718	-0.399388	0.000075
C75	C	0.102641	-0.454669	0.000084
H76	H	0.007229	-0.311204	0.000188
H77	H	-0.043020	-0.428068	-0.078620
H78	H	-0.033769	-0.417972	0.078741
H79	H	0.138210	-0.436109	-0.078528
H80	H	0.147310	-0.425984	0.078832
O81	O	0.375162	-1.099584	0.294698
C82	C	0.533694	-1.056013	0.258566
C83	C	0.473041	-1.123323	0.323628
H84	H	0.612841	-1.075166	0.281949
H85	H	0.518183	-1.073350	0.163804
H86	H	0.514951	-0.969627	0.281838
H87	H	0.491749	-1.209730	0.300450
H88	H	0.488560	-1.105897	0.418374
H89	H	0.041612	-0.739974	0.000025
