data_functionalizedCrystal
_audit_creation_method	'MofGen! by Chris Wilmer'
_symmetry_space_group_name_H-M	'P1'
_symmetry_Int_Tables_number	1
_symmetry_cell_setting	triclinic
loop_
_symmetry_equiv_pos_as_xyz
  x,y,z
_cell_length_a	16.956995
_cell_length_b	13.101039
_cell_length_c	16.992695
_cell_angle_alpha	86.408978
_cell_angle_beta	83.361347
_cell_angle_gamma	93.108940
loop_
_atom_site_label
_atom_site_type_symbol
_atom_site_fract_x
_atom_site_fract_y
_atom_site_fract_z
O1	O	1.064197	0.085286	0.027767
O2	O	1.397530	0.418619	0.361100
O3	O	1.730863	0.751952	0.694433
O4	O	0.833786	0.085273	0.055181
O5	O	1.167119	0.418606	0.388514
O6	O	1.500452	0.751939	0.721848
O7	O	0.948067	0.085271	-0.072609
O8	O	1.281400	0.418604	0.260725
O9	O	1.614734	0.751938	0.594058
O10	O	0.949915	0.085287	0.155556
O11	O	1.283249	0.418621	0.488889
O12	O	1.616582	0.751954	0.822223
O13	O	0.939868	-0.085159	-0.063426
O14	O	1.273202	0.248175	0.269908
O15	O	1.606535	0.581508	0.603241
O16	O	0.825587	-0.085157	0.064364
O17	O	1.158920	0.248176	0.397697
O18	O	1.492254	0.581510	0.731031
O19	O	1.055998	-0.085144	0.036950
O20	O	1.389331	0.248189	0.370283
O21	O	1.722665	0.581523	0.703616
Zn22	Zn	0.939491	-0.112210	0.052115
Zn23	Zn	1.272824	0.221123	0.385448
Zn24	Zn	1.606158	0.554457	0.718781
Zn25	Zn	0.950293	0.112339	0.040016
Zn26	Zn	1.283626	0.445672	0.373349
Zn27	Zn	1.616960	0.779005	0.706682
O28	O	0.941717	-0.085142	0.164739
O29	O	1.275050	0.248191	0.498072
O30	O	1.608383	0.581524	0.831406
C31	C	0.800068	0.000056	0.061176
C32	C	1.133401	0.333389	0.394509
C33	C	1.466734	0.666723	0.727843
C34	C	0.711813	0.000051	0.065349
C35	C	1.045146	0.333384	0.398683
C36	C	1.378480	0.666718	0.732016
C37	C	0.214504	0.000091	0.096565
C38	C	0.547837	0.333425	0.429899
C39	C	0.881171	0.666758	0.763232
C40	C	0.297429	0.000090	0.092638
C41	C	0.630762	0.333424	0.425972
C42	C	0.964096	0.666757	0.759305
C43	C	0.343819	0.000077	0.018926
C44	C	0.677153	0.333411	0.352260
C45	C	1.010486	0.666744	0.685593
C46	C	0.307281	0.000076	-0.050864
C47	C	0.640614	0.333409	0.282470
C48	C	0.973948	0.666742	0.615803
C49	C	0.224358	0.000084	-0.046936
C50	C	0.557691	0.333417	0.286397
C51	C	0.891025	0.666751	0.619730
C52	C	0.592352	0.000058	-0.000513
C53	C	0.925685	0.333391	0.332820
C54	C	1.259019	0.666725	0.666153
C55	C	0.675280	0.000046	-0.004435
C56	C	1.008614	0.333380	0.328898
C57	C	1.341947	0.666713	0.662231
C58	C	0.665422	0.000063	0.139067
C59	C	0.998756	0.333396	0.472401
C60	C	1.332089	0.666730	0.805734
C61	C	0.582498	0.000065	0.142988
C62	C	0.915831	0.333398	0.476322
C63	C	1.249164	0.666732	0.809655
C64	C	0.545967	0.000069	0.073198
C65	C	0.879301	0.333402	0.406531
C66	C	1.212634	0.666736	0.739865
N67	N	0.428582	0.000073	0.014911
N68	N	0.761915	0.333406	0.348244
N69	N	1.095248	0.666740	0.681577
N70	N	0.461206	0.000081	0.077214
N71	N	0.794540	0.333414	0.410547
N72	N	1.127873	0.666747	0.743881
N73	N	0.932124	-0.265458	0.060371
N74	N	1.265458	0.067875	0.393704
N75	N	1.598791	0.401208	0.727038
C76	C	0.922103	-0.474501	0.071611
C77	C	1.255436	-0.141167	0.404945
C78	C	1.588769	0.192166	0.738278
C79	C	0.967685	-0.525377	0.020515
C80	C	1.301018	-0.192044	0.353849
C81	C	1.634351	0.141290	0.687182
C82	C	0.962108	-0.641695	0.026769
C83	C	1.295442	-0.308362	0.360103
C84	C	1.628775	0.024971	0.693436
C85	C	0.927678	-0.358172	0.065358
C86	C	1.261011	-0.024839	0.398692
C87	C	1.594345	0.308495	0.732025
C88	C	1.089716	0.000075	0.030954
C89	C	1.423049	0.333408	0.364288
C90	C	1.756383	0.666742	0.697621
C91	C	1.177971	0.000087	0.026781
C92	C	1.511305	0.333420	0.360114
C93	C	1.844638	0.666753	0.693447
C94	C	0.941591	0.000056	-0.097076
C95	C	1.274925	0.333389	0.236258
C96	C	1.608258	0.666723	0.569591
C97	C	0.934501	0.000056	-0.183660
C98	C	1.267834	0.333389	0.149673
C99	C	1.601167	0.666723	0.483006
N100	N	0.957665	0.265587	0.031753
N101	N	1.290999	0.598920	0.365086
N102	N	1.624332	0.932254	0.698419
C103	C	1.002916	0.000059	-0.238335
C104	C	1.336249	0.333392	0.094999
C105	C	1.669582	0.666725	0.428332
C106	C	0.996249	0.000068	-0.319690
C107	C	1.329582	0.333402	0.013643
C108	C	1.662916	0.666735	0.346977
C109	C	0.921166	0.000067	-0.346368
C110	C	1.254500	0.333401	-0.013035
C111	C	1.587833	0.666734	0.320298
C112	C	0.852746	0.000068	-0.291687
C113	C	1.186080	0.333401	0.041646
C114	C	1.519413	0.666734	0.374980
C115	C	0.859414	0.000066	-0.210334
C116	C	1.192747	0.333399	0.122999
C117	C	1.526081	0.666732	0.456333
C118	C	0.893531	0.000080	-0.588176
C119	C	1.226865	0.333413	-0.254842
C120	C	1.560198	0.666747	0.078491
C121	C	0.886869	0.000079	-0.669535
C122	C	1.220202	0.333412	-0.336202
C123	C	1.553535	0.666746	-0.002869
C124	C	1.030372	0.000081	-0.697533
C125	C	1.363705	0.333415	-0.364199
C126	C	1.697039	0.666748	-0.030866
C127	C	1.037033	0.000073	-0.616176
C128	C	1.370366	0.333406	-0.282843
C129	C	1.703700	0.666740	0.050490
C130	C	0.968613	0.000079	-0.561503
C131	C	1.301947	0.333412	-0.228169
C132	C	1.635280	0.666745	0.105164
N133	N	0.914350	0.000074	-0.429526
N134	N	1.247683	0.333407	-0.096192
N135	N	1.581017	0.666740	0.237141
N136	N	0.975431	0.000080	-0.478347
N137	N	1.308764	0.333413	-0.145014
N138	N	1.642097	0.666746	0.188319
C139	C	0.948193	0.000075	0.189206
C140	C	1.281526	0.333408	0.522539
C141	C	1.614859	0.666742	0.855873
C142	C	0.955284	0.000082	0.275790
C143	C	1.288617	0.333415	0.609124
C144	C	1.621950	0.666748	0.942457
H145	H	0.544732	0.000079	0.203013
H146	H	0.878065	0.333412	0.536346
H147	H	1.211399	0.666745	0.869679
Br148	Br	0.766562	0.000070	-0.136131
Br149	Br	1.099895	0.333404	0.197202
Br150	Br	1.433229	0.666737	0.530535
Br151	Br	1.040064	-0.452379	-0.059917
Br152	Br	1.373397	-0.119045	0.273417
Br153	Br	1.706731	0.214288	0.606750
H154	H	1.064056	0.000053	-0.216620
H155	H	1.397389	0.333386	0.116713
H156	H	1.730722	0.666720	0.450046
Br157	Br	0.750848	0.000084	-0.327893
Br158	Br	1.084181	0.333417	0.005440
Br159	Br	1.417514	0.666751	0.338774
H160	H	0.837819	0.000084	-0.543669
H161	H	1.171152	0.333418	-0.210336
H162	H	1.504485	0.666751	0.122998
H163	H	0.878894	-0.518297	0.120050
H164	H	1.212228	-0.184964	0.453384
H165	H	1.545561	0.148369	0.786717
H166	H	0.345059	0.000071	-0.110882
H167	H	0.678392	0.333405	0.222451
H168	H	1.011726	0.666738	0.555785
H169	H	1.086075	0.000079	-0.742056
H170	H	1.419409	0.333412	-0.408723
H171	H	1.752742	0.666745	-0.075389
Br172	Br	0.542786	0.000093	-0.095231
Br173	Br	0.876120	0.333427	0.238102
Br174	Br	1.209453	0.666760	0.571436
H175	H	1.051960	0.000068	-0.364204
H176	H	1.385293	0.333402	-0.030870
H177	H	1.718627	0.666735	0.302463
Br178	Br	0.784963	0.000067	-0.705740
Br179	Br	1.118297	0.333401	-0.372406
Br180	Br	1.451630	0.666734	-0.039073
H181	H	0.327170	0.000104	0.149464
H182	H	0.660503	0.333437	0.482797
H183	H	0.993837	0.666770	0.816131
H184	H	0.695175	0.000061	0.195887
H185	H	1.028508	0.333395	0.529220
H186	H	1.361841	0.666728	0.862553
H187	H	1.098173	0.000074	-0.594462
H188	H	1.431506	0.333407	-0.261129
H189	H	1.764840	0.666740	0.072205
H190	H	0.176738	0.000094	0.156590
H191	H	0.510071	0.333428	0.489924
H192	H	0.843405	0.666761	0.823257
H193	H	0.194615	0.000082	-0.103763
H194	H	0.527948	0.333416	0.229571
H195	H	0.861281	0.666749	0.562904
H196	H	0.713050	0.000041	-0.064464
H197	H	1.046383	0.333374	0.268869
H198	H	1.379717	0.666707	0.602203
