data_functionalizedCrystal
_audit_creation_method	'MofGen! by Chris Wilmer'
_symmetry_space_group_name_H-M	'P1'
_symmetry_Int_Tables_number	1
_symmetry_cell_setting	triclinic
loop_
_symmetry_equiv_pos_as_xyz
  x,y,z
_cell_length_a	18.050591
_cell_length_b	18.050590
_cell_length_c	19.077271
_cell_angle_alpha	87.714442
_cell_angle_beta	87.714286
_cell_angle_gamma	90.014558
loop_
_atom_site_label
_atom_site_type_symbol
_atom_site_fract_x
_atom_site_fract_y
_atom_site_fract_z
Zn1	Zn	1.118406	-0.312738	0.398056
Zn2	Zn	1.618406	0.187262	0.898056
Zn3	Zn	1.123345	-0.431909	0.280361
Zn4	Zn	1.623345	0.068091	0.780361
Zn5	Zn	0.999233	-0.307729	0.280364
Zn6	Zn	1.499233	0.192271	0.780364
Zn7	Zn	0.994197	-0.436880	0.398003
Zn8	Zn	1.494197	0.063120	0.898003
O9	O	1.058795	-0.372314	0.339196
O10	O	1.558795	0.127686	0.839196
O11	O	1.222985	-0.328563	0.382465
O12	O	1.722985	0.171437	0.882465
O13	O	1.111057	-0.411260	0.181873
O14	O	1.611057	0.088740	0.681873
O15	O	1.015082	-0.204470	0.295999
O16	O	1.515082	0.295530	0.795999
O17	O	1.226614	-0.416117	0.295995
O18	O	1.726614	0.083883	0.795995
O19	O	1.102638	-0.208150	0.382468
O20	O	1.602638	0.291850	0.882468
O21	O	1.019872	-0.320025	0.181875
O22	O	1.519872	0.179975	0.681875
O23	O	0.894641	-0.324845	0.295948
O24	O	1.394641	0.175155	0.795948
O25	O	1.006499	-0.424589	0.496499
O26	O	1.506499	0.075411	0.996499
O27	O	0.890941	-0.419732	0.382377
O28	O	1.390941	0.080268	0.882377
O29	O	1.097755	-0.333383	0.496538
O30	O	1.597755	0.166617	0.996538
O31	O	1.106173	-0.536492	0.295943
O32	O	1.606173	-0.036492	0.795943
O33	O	1.011288	-0.540144	0.382374
O34	O	1.511288	-0.040144	0.882374
C35	C	0.865845	-0.372285	0.339157
C36	C	1.365845	0.127715	0.839157
C37	C	0.783299	-0.372291	0.339157
C38	C	1.283299	0.127709	0.839157
C39	C	0.585834	-0.320639	0.292265
C40	C	1.085834	0.179361	0.792265
C41	C	0.537163	-0.387637	0.274944
C42	C	1.037163	0.112363	0.774944
C43	C	0.632167	-0.372315	0.339189
C44	C	1.132167	0.127685	0.839189
C45	C	0.533757	-0.305340	0.356508
C46	C	1.033757	0.194660	0.856508
C47	C	0.486181	-0.372332	0.339218
C48	C	0.986181	0.127668	0.839218
C49	C	0.584585	-0.439347	0.321835
C50	C	1.084585	0.060653	0.821835
C51	C	0.581182	-0.357006	0.403428
C52	C	1.081182	0.142994	0.903428
C53	C	0.532532	-0.424052	0.386132
C54	C	1.032532	0.075948	0.886132
C55	C	0.716266	-0.372304	0.339170
C56	C	1.216266	0.127696	0.839170
C57	C	0.402084	-0.372350	0.339237
C58	C	0.902084	0.127650	0.839237
C59	C	1.058739	-0.565265	0.339168
C60	C	1.558739	-0.065265	0.839168
C61	C	1.058782	-0.647811	0.339180
C62	C	1.558782	-0.147811	0.839180
C63	C	1.110481	-0.845252	0.292244
C64	C	1.610481	-0.345252	0.792244
C65	C	1.125884	-0.897327	0.356480
C66	C	1.625884	-0.397327	0.856480
C67	C	1.058823	-0.798943	0.339208
C68	C	1.558823	-0.298943	0.839208
C69	C	1.043495	-0.893950	0.275000
C70	C	1.543495	-0.393950	0.775000
C71	C	1.058865	-0.944929	0.339229
C72	C	1.558865	-0.444929	0.839229
C73	C	1.074259	-0.849933	0.403478
C74	C	1.574259	-0.349933	0.903478
C75	C	0.991841	-0.846549	0.321954
C76	C	1.491841	-0.346549	0.821954
C77	C	1.007216	-0.898605	0.386235
C78	C	1.507216	-0.398605	0.886235
C79	C	1.058802	-0.714844	0.339194
C80	C	1.558802	-0.214844	0.839194
C81	C	1.058886	-1.029026	0.339250
C82	C	1.558886	-0.529026	0.839250
C83	C	1.252499	-0.372344	0.339236
C84	C	1.752499	0.127656	0.839236
C85	C	1.335044	-0.372357	0.339252
C86	C	1.835044	0.127643	0.839252
C87	C	1.051014	-0.380099	0.522769
C88	C	1.551014	0.119901	1.022769
C89	C	1.047698	-0.383417	0.600997
C90	C	1.547698	0.116583	1.100997
C91	C	1.058871	-0.178611	0.339240
C92	C	1.558871	0.321389	0.839240
C93	C	1.058903	-0.096066	0.339258
C94	C	1.558903	0.403934	0.839258
C95	C	1.093650	-0.337492	0.637770
C96	C	1.593650	0.162508	1.137770
C97	C	1.090525	-0.340606	0.711274
C98	C	1.590525	0.159394	1.211274
C99	C	1.041452	-0.389650	0.748003
C100	C	1.541452	0.110350	1.248003
C101	C	0.995495	-0.435578	0.711225
C102	C	1.495495	0.064422	1.211225
C103	C	0.998616	-0.432459	0.637722
C104	C	1.498616	0.067541	1.137722
C105	C	1.027018	-0.404066	0.967828
C106	C	1.527018	0.095934	1.467828
C107	C	1.023901	-0.407183	1.041336
C108	C	1.523901	0.092817	1.541336
C109	C	1.118931	-0.312210	1.041380
C110	C	1.618931	0.187790	1.541380
C111	C	1.122051	-0.309098	0.967876
C112	C	1.622051	0.190902	1.467876
C113	C	1.076092	-0.355023	0.931105
C114	C	1.576092	0.144977	1.431105
N115	N	1.038258	-0.392836	0.823135
N116	N	1.538258	0.107164	1.323135
N117	N	1.079282	-0.351832	0.855974
N118	N	1.579282	0.148168	1.355974
C119	C	1.066540	-0.364576	1.156337
C120	C	1.566540	0.135424	1.656337
C121	C	1.069853	-0.361257	1.078109
C122	C	1.569853	0.138743	1.578109
H123	H	0.517739	-0.400598	0.220631
H124	H	1.017739	0.099402	0.720631
H125	H	0.963546	-0.921830	0.426006
H126	H	1.463546	-0.421830	0.926006
H127	H	1.087182	-0.830602	0.457833
H128	H	1.587182	-0.330602	0.957833
Cl129	Cl	0.904381	-0.812123	0.299376
Cl130	Cl	1.404381	-0.312123	0.799376
Cl131	Cl	1.023452	-0.923942	0.191154
Cl132	Cl	1.523452	-0.423942	0.691154
Cl133	Cl	0.611200	-0.336964	0.487261
Cl134	Cl	1.111200	0.163036	0.987261
H135	H	1.127946	-0.303210	0.741211
H136	H	1.627946	0.196790	1.241211
Cl137	Cl	0.969240	-0.461801	0.921611
Cl138	Cl	1.469240	0.038199	1.421611
H139	H	0.983937	-0.447122	1.071238
H140	H	1.483937	0.052878	1.571238
H141	H	0.606798	-0.496008	0.307138
H142	H	1.106798	0.003992	0.807138
Cl143	Cl	1.155349	-0.275836	0.591604
Cl144	Cl	1.655349	0.224164	1.091604
Cl145	Cl	1.183747	-0.247441	0.921708
Cl146	Cl	1.683747	0.252559	1.421708
Cl147	Cl	1.176702	-0.254477	1.087612
Cl148	Cl	1.676702	0.245523	1.587612
H149	H	0.955535	-0.475508	0.741135
H150	H	1.455535	0.024492	1.241135
H151	H	0.961190	-0.469849	0.607783
H152	H	1.461190	0.030151	1.107783
H153	H	0.609175	-0.276981	0.252540
H154	H	1.109175	0.223019	0.752540
H155	H	0.511418	-0.248700	0.371120
H156	H	1.011418	0.251300	0.871120
Cl157	Cl	0.496703	-0.491606	0.447418
Cl158	Cl	0.996703	0.008394	0.947418
H159	H	1.154179	-0.821893	0.252569
H160	H	1.654179	-0.321893	0.752569
H161	H	1.182547	-0.919610	0.371087
H162	H	1.682547	-0.419610	0.871087
