data_functionalizedCrystal
_audit_creation_method	'MofGen! by Chris Wilmer'
_symmetry_space_group_name_H-M	'P1'
_symmetry_Int_Tables_number	1
_symmetry_cell_setting	triclinic
loop_
_symmetry_equiv_pos_as_xyz
  x,y,z
_cell_length_a	17.699104
_cell_length_b	14.421503
_cell_length_c	17.699083
_cell_angle_alpha	90.000692
_cell_angle_beta	96.712734
_cell_angle_gamma	89.993796
loop_
_atom_site_label
_atom_site_type_symbol
_atom_site_fract_x
_atom_site_fract_y
_atom_site_fract_z
O1	O	1.004054	0.077132	-0.095781
O2	O	1.337387	0.410466	0.237553
O3	O	1.670720	0.743799	0.570886
O4	O	0.783678	0.077130	-0.108217
O5	O	1.117011	0.410464	0.225117
O6	O	1.450344	0.743797	0.558450
O7	O	0.900092	0.077123	0.008190
O8	O	1.233425	0.410456	0.341523
O9	O	1.566759	0.743790	0.674857
O10	O	0.887640	0.077139	-0.212187
O11	O	1.220973	0.410473	0.121146
O12	O	1.554306	0.743806	0.454479
O13	O	0.900106	-0.077100	0.008183
O14	O	1.233439	0.256233	0.341516
O15	O	1.566773	0.589566	0.674849
O16	O	0.783692	-0.077093	-0.108224
O17	O	1.117025	0.256240	0.225109
O18	O	1.450358	0.589573	0.558442
O19	O	1.004068	-0.077091	-0.095788
O20	O	1.337401	0.256242	0.237545
O21	O	1.670735	0.589575	0.570878
Cu22	Cu	0.893881	-0.091174	-0.102007
Cu23	Cu	1.227214	0.242159	0.231326
Cu24	Cu	1.560548	0.575493	0.564660
Cu25	Cu	0.893864	0.091213	-0.101998
Cu26	Cu	1.227198	0.424546	0.231335
Cu27	Cu	1.560531	0.757880	0.564669
O28	O	0.887654	-0.077084	-0.212195
O29	O	1.220987	0.256249	0.121138
O30	O	1.554320	0.589583	0.454472
C31	C	0.755488	0.000018	-0.107772
C32	C	1.088821	0.333351	0.225561
C33	C	1.422155	0.666685	0.558895
C34	C	0.671471	0.000017	-0.106427
C35	C	1.004804	0.333350	0.226906
C36	C	1.338137	0.666684	0.560239
N37	N	0.893898	-0.219455	-0.102013
N38	N	1.227232	0.113878	0.231321
N39	N	1.560565	0.447211	0.564654
C40	C	0.146600	0.000031	-0.167171
C41	C	0.479933	0.333365	0.166162
C42	C	0.813266	0.666698	0.499496
C43	C	0.225543	0.000034	-0.168430
C44	C	0.558877	0.333367	0.164903
C45	C	0.892210	0.666701	0.498236
C46	C	0.274161	0.000029	-0.100095
C47	C	0.607494	0.333362	0.233238
C48	C	0.940828	0.666696	0.566572
C49	C	0.243831	0.000030	-0.030496
C50	C	0.577165	0.333364	0.302837
C51	C	0.910498	0.666697	0.636171
C52	C	0.164889	0.000034	-0.029238
C53	C	0.498222	0.333367	0.304095
C54	C	0.831555	0.666701	0.637429
C55	C	0.562197	0.000016	-0.035569
C56	C	0.895531	0.333349	0.297764
C57	C	1.228864	0.666682	0.631097
C58	C	0.641144	0.000009	-0.036833
C59	C	0.974478	0.333342	0.296500
C60	C	1.307811	0.666676	0.629834
C61	C	0.622852	0.000016	-0.174762
C62	C	0.956185	0.333349	0.158572
C63	C	1.289519	0.666682	0.491905
C64	C	0.543909	0.000020	-0.173503
C65	C	0.877243	0.333353	0.159830
C66	C	1.210576	0.666686	0.493163
C67	C	0.513587	0.000026	-0.103905
C68	C	0.846920	0.333359	0.229428
C69	C	1.180253	0.666693	0.562762
C70	C	0.427987	0.000025	-0.102541
C71	C	0.761320	0.333358	0.230793
C72	C	1.094653	0.666691	0.564126
C73	C	0.359759	0.000023	-0.101459
C74	C	0.693093	0.333357	0.231875
C75	C	1.026426	0.666690	0.565208
C76	C	0.947740	-0.469087	-0.048174
C77	C	1.281073	-0.135754	0.285159
C78	C	1.614406	0.197579	0.618492
C79	C	0.879378	-0.530886	-0.033596
C80	C	1.212711	-0.197553	0.299737
C81	C	1.546045	0.135780	0.633071
C82	C	0.893881	-0.408617	-0.102004
C83	C	1.227215	-0.075283	0.231330
C84	C	1.560548	0.258050	0.564663
C85	C	0.962227	-0.530912	-0.116538
C86	C	1.295561	-0.197578	0.216796
C87	C	1.628894	0.135755	0.550129
C88	C	0.893871	-0.591338	-0.101993
C89	C	1.227205	-0.258005	0.231340
C90	C	1.560538	0.075329	0.564674
C91	C	0.825485	-0.469055	-0.087391
C92	C	1.158818	-0.135721	0.245942
C93	C	1.492152	0.197612	0.579275
C94	C	0.908379	-0.469075	-0.170363
C95	C	1.241713	-0.135741	0.162971
C96	C	1.575046	0.197592	0.496304
C97	C	0.839968	-0.530846	-0.155813
C98	C	1.173301	-0.197512	0.177520
C99	C	1.506635	0.135821	0.510853
C100	C	0.893888	-0.303356	-0.102008
C101	C	1.227222	0.029978	0.231326
C102	C	1.560555	0.363311	0.564659
C103	C	0.893857	-0.696597	-0.101989
C104	C	1.227190	-0.363264	0.231344
C105	C	1.560523	-0.029930	0.564677
C106	C	1.032258	0.000023	-0.096233
C107	C	1.365591	0.333356	0.237101
C108	C	1.698924	0.666690	0.570434
C109	C	1.116275	0.000030	-0.097578
C110	C	1.449608	0.333363	0.235756
C111	C	1.782941	0.666697	0.569089
C112	C	0.899653	0.000011	0.036383
C113	C	1.232986	0.333345	0.369717
C114	C	1.566319	0.666678	0.703050
C115	C	0.898314	0.000011	0.120402
C116	C	1.231647	0.333344	0.453735
C117	C	1.564981	0.666678	0.787068
N118	N	0.893853	0.219494	-0.101986
N119	N	1.227186	0.552828	0.231347
N120	N	1.560520	0.886161	0.564680
C121	C	0.888093	0.000030	-0.240388
C122	C	1.221426	0.333363	0.092945
C123	C	1.554759	0.666696	0.426278
C124	C	0.889431	0.000036	-0.324406
C125	C	1.222765	0.333370	0.008927
C126	C	1.556098	0.666703	0.342260
C127	C	0.966647	0.000010	0.169017
C128	C	1.299980	0.333344	0.502351
C129	C	1.633314	0.666677	0.835684
C130	C	0.965385	0.000018	0.247961
C131	C	1.298718	0.333352	0.581294
C132	C	1.632051	0.666685	0.914627
C133	C	0.895789	0.000021	0.278287
C134	C	1.229122	0.333354	0.611620
C135	C	1.562455	0.666687	0.944953
C136	C	0.827451	0.000024	0.229665
C137	C	1.160784	0.333357	0.562998
C138	C	1.494118	0.666691	0.896331
C139	C	0.828714	0.000023	0.150723
C140	C	1.162047	0.333356	0.484056
C141	C	1.495381	0.666689	0.817390
C142	C	0.822356	0.000032	0.548028
C143	C	1.155689	0.333365	0.881361
C144	C	1.489022	0.666698	1.214695
C145	C	0.821098	0.000030	0.626976
C146	C	1.154431	0.333364	0.960310
C147	C	1.487764	0.666697	1.293643
C148	C	0.959026	0.000027	0.645266
C149	C	1.292360	0.333361	0.978599
C150	C	1.625693	0.666694	1.311933
C151	C	0.960289	0.000026	0.566324
C152	C	1.293623	0.333359	0.899658
C153	C	1.626956	0.666693	1.232991
C154	C	0.891952	0.000034	0.517709
C155	C	1.225285	0.333368	0.851042
C156	C	1.558618	0.666701	1.184376
C157	C	0.893321	0.000027	0.432110
C158	C	1.226655	0.333360	0.765443
C159	C	1.559988	0.666694	1.098776
C160	C	0.894419	0.000021	0.363885
C161	C	1.227752	0.333354	0.697218
C162	C	1.561085	0.666688	1.030551
H163	H	0.107020	0.000029	-0.222818
H164	H	0.440353	0.333362	0.110516
H165	H	0.773687	0.666695	0.443849
Cl166	Cl	0.742806	0.000027	0.089605
Cl167	Cl	1.076139	0.333360	0.422938
Cl168	Cl	1.409473	0.666694	0.756272
Cl169	Cl	0.736445	0.000044	0.486922
Cl170	Cl	1.069778	0.333378	0.820256
Cl171	Cl	1.403112	0.666711	1.153589
Cl172	Cl	0.263662	0.000041	-0.255923
Cl173	Cl	0.596996	0.333374	0.077410
Cl174	Cl	0.930329	0.666708	0.410743
Cl175	Cl	0.860423	-0.572798	0.055664
Cl176	Cl	1.193756	-0.239465	0.388997
Cl177	Cl	1.527090	0.093868	0.722331
Cl178	Cl	0.736221	-0.427287	-0.068300
Cl179	Cl	1.069554	-0.093954	0.265034
Cl180	Cl	1.402887	0.239380	0.598367
H181	H	0.504328	0.000019	-0.229149
H182	H	0.837661	0.333353	0.104184
H183	H	1.170995	0.666686	0.437518
Cl184	Cl	1.017987	-0.427216	0.022143
Cl185	Cl	1.351320	-0.093882	0.355476
Cl186	Cl	1.684653	0.239451	0.688809
Cl187	Cl	1.047784	0.000026	0.528205
Cl188	Cl	1.381118	0.333360	0.861538
Cl189	Cl	1.714451	0.666693	1.194871
Cl190	Cl	0.733599	0.000035	0.665099
Cl191	Cl	1.066932	0.333369	0.998432
Cl192	Cl	1.400266	0.666702	1.331765
Cl193	Cl	0.304951	0.000026	0.055412
Cl194	Cl	0.638284	0.333359	0.388745
Cl195	Cl	0.971617	0.666692	0.722078
Cl196	Cl	0.126766	0.000032	0.058255
Cl197	Cl	0.460100	0.333366	0.391588
Cl198	Cl	0.793433	0.666699	0.724922
Cl199	Cl	0.927362	-0.427116	-0.259595
Cl200	Cl	1.260695	-0.093783	0.073739
Cl201	Cl	1.594028	0.239551	0.407072
H202	H	0.794368	-0.557791	-0.201334
H203	H	1.127701	-0.224458	0.132000
H204	H	1.461035	0.108875	0.465333
H205	H	1.020031	-0.558083	-0.128836
H206	H	1.353364	-0.224749	0.204498
H207	H	1.686697	0.108584	0.537831
Cl208	Cl	1.054144	-0.000002	0.130902
Cl209	Cl	1.387477	0.333331	0.464235
Cl210	Cl	1.720811	0.666665	0.797568
H211	H	0.537518	0.000018	0.021102
H212	H	0.870852	0.333352	0.354435
H213	H	1.204185	0.666685	0.687768
H214	H	1.021028	0.000016	0.287541
H215	H	1.354361	0.333349	0.620875
H216	H	1.687695	0.666682	0.954208
H217	H	0.647550	0.000015	-0.231432
H218	H	0.980883	0.333348	0.101901
H219	H	1.314216	0.666681	0.435235
H220	H	0.770785	0.000032	0.254362
H221	H	1.104118	0.333365	0.587696
H222	H	1.437451	0.666698	0.921029
Cl223	Cl	1.044938	0.000021	0.706387
Cl224	Cl	1.378271	0.333354	1.039721
Cl225	Cl	1.711605	0.666687	1.373054
H226	H	0.680728	0.000007	0.018817
H227	H	1.014061	0.333341	0.352151
H228	H	1.347395	0.666674	0.685484
