data_functionalizedCrystal
_audit_creation_method	'MofGen! by Chris Wilmer'
_symmetry_space_group_name_H-M	'P1'
_symmetry_Int_Tables_number	1
_symmetry_cell_setting	triclinic
loop_
_symmetry_equiv_pos_as_xyz
  x,y,z
_cell_length_a	16.109301
_cell_length_b	27.732064
_cell_length_c	26.809956
_cell_angle_alpha	89.984712
_cell_angle_beta	89.982309
_cell_angle_gamma	83.055452
loop_
_atom_site_label
_atom_site_type_symbol
_atom_site_fract_x
_atom_site_fract_y
_atom_site_fract_z
O1	O	1.102386	0.062139	-0.041443
O2	O	1.602386	0.562139	0.458557
O3	O	0.860229	0.069871	-0.041451
O4	O	1.360229	0.569871	0.458549
O5	O	0.988821	-0.004360	-0.041449
O6	O	1.488821	0.495640	0.458551
O7	O	0.973794	0.136370	-0.041445
O8	O	1.473794	0.636370	0.458555
O9	O	0.988776	-0.004380	0.041510
O10	O	1.488776	0.495620	0.541510
O11	O	0.860184	0.069851	0.041508
O12	O	1.360184	0.569851	0.541508
O13	O	1.102341	0.062119	0.041516
O14	O	1.602341	0.562119	0.541516
Zn15	Zn	0.981255	0.065982	0.054684
Zn16	Zn	1.481255	0.565982	0.554684
Zn17	Zn	0.981315	0.066008	-0.054619
Zn18	Zn	1.481315	0.566008	0.445381
O19	O	0.973749	0.136349	0.041514
O20	O	1.473749	0.636349	0.541514
C21	C	0.829236	0.069548	0.000028
C22	C	1.329236	0.569548	0.500028
C23	C	0.736952	0.068609	0.000025
C24	C	1.236952	0.568609	0.500025
C25	C	0.514165	0.110472	0.000032
C26	C	1.014165	0.610472	0.500032
C27	C	0.427456	0.109586	0.000035
C28	C	0.927456	0.609586	0.500035
C29	C	0.448412	0.021514	0.000031
C30	C	0.948412	0.521514	0.500031
C31	C	0.535119	0.022401	0.000031
C32	C	1.035119	0.522401	0.500031
C33	C	0.567994	0.066881	0.000029
C34	C	1.067994	0.566881	0.500029
C35	C	0.394576	0.065109	0.000032
C36	C	0.894576	0.565109	0.500032
C37	C	0.300562	0.064148	0.000035
C38	C	0.800562	0.564148	0.500035
C39	C	0.662014	0.067843	0.000026
C40	C	1.162014	0.567843	0.500026
C41	C	0.988481	-0.022378	0.000029
C42	C	1.488481	0.477622	0.500029
C43	C	0.987525	-0.076036	0.000025
C44	C	1.487525	0.423964	0.500025
C45	C	0.905024	-0.453454	0.000020
C46	C	1.405024	0.046546	0.500020
C47	C	0.908543	-0.251779	0.000020
C48	C	1.408543	0.248221	0.500020
O49	O	0.844525	-0.220795	-0.000002
O50	O	1.344525	0.279205	0.499998
N51	N	0.984796	-0.232333	0.000022
N52	N	1.484796	0.267667	0.500022
C53	C	1.060174	-0.263308	0.000021
C54	C	1.560174	0.236692	0.500021
O55	O	1.125113	-0.242140	0.000018
O56	O	1.625113	0.257860	0.500018
C57	C	1.056654	-0.464982	0.000018
C58	C	1.556654	0.035018	0.500018
C59	C	0.980396	-0.484426	0.000021
C60	C	1.480396	0.015574	0.500021
C61	C	0.828772	-0.472898	0.000022
C62	C	1.328772	0.027102	0.500022
C63	C	0.827893	-0.523314	0.000025
C64	C	1.327893	-0.023314	0.500025
C65	C	0.903266	-0.554286	0.000026
C66	C	1.403266	-0.054286	0.500026
C67	C	0.979517	-0.534842	0.000024
C68	C	1.479517	-0.034842	0.500024
C69	C	1.132031	-0.495957	0.000013
C70	C	1.632031	0.004043	0.500013
C71	C	1.131144	-0.546378	0.000011
C72	C	1.631144	-0.046378	0.500011
C73	C	1.054887	-0.565822	0.000014
C74	C	1.554887	-0.065822	0.500014
C75	C	1.054011	-0.616229	0.000027
C76	C	1.554011	-0.116229	0.500027
N77	N	0.977758	-0.635676	0.000025
N78	N	1.477758	-0.135676	0.500025
C79	C	0.902385	-0.604704	0.000024
C80	C	1.402385	-0.104704	0.500024
C81	C	1.062017	-0.157426	0.000023
C82	C	1.562017	0.342574	0.500023
C83	C	1.062897	-0.107008	0.000025
C84	C	1.562897	0.392992	0.500025
C85	C	0.911266	-0.095482	0.000023
C86	C	1.411266	0.404518	0.500023
C87	C	0.910386	-0.145902	0.000025
C88	C	1.410386	0.354098	0.500025
C89	C	0.985764	-0.176873	0.000021
C90	C	1.485764	0.323127	0.500021
C91	C	0.900545	-0.710581	0.000031
C92	C	1.400545	-0.210581	0.500031
C93	C	0.899673	-0.761002	0.000035
C94	C	1.399673	-0.261002	0.500035
C95	C	1.051304	-0.772523	0.000035
C96	C	1.551304	-0.272523	0.500035
C97	C	1.052176	-0.722107	0.000033
C98	C	1.552176	-0.222107	0.500033
C99	C	0.976790	-0.691137	0.000029
C100	C	1.476790	-0.191137	0.500029
O101	O	1.117995	-0.647242	0.000043
O102	O	1.617995	-0.147242	0.500043
O103	O	0.837456	-0.625882	0.000016
O104	O	1.337456	-0.125882	0.500016
C105	C	0.905903	-0.403039	0.000017
C106	C	1.405903	0.096961	0.500017
C107	C	0.982154	-0.383594	0.000015
C108	C	1.482154	0.116406	0.500015
C109	C	1.057527	-0.414566	0.000016
C110	C	1.557527	0.085434	0.500016
C111	C	0.983035	-0.333176	0.000017
C112	C	1.483035	0.166824	0.500017
C113	C	0.907662	-0.302204	0.000016
C114	C	1.407662	0.197796	0.500016
C115	C	0.831409	-0.321651	0.000014
C116	C	1.331409	0.178349	0.500014
C117	C	0.830530	-0.372067	0.000017
C118	C	1.330530	0.127933	0.500017
C119	C	1.133780	-0.395119	0.000018
C120	C	1.633780	0.104881	0.500018
C121	C	1.134652	-0.344703	0.000016
C122	C	1.634652	0.155297	0.500016
C123	C	1.059280	-0.313731	0.000015
C124	C	1.559280	0.186269	0.500015
C125	C	1.133334	0.062442	0.000036
C126	C	1.633334	0.562442	0.500036
C127	C	1.225618	0.063381	0.000036
C128	C	1.725618	0.563381	0.500036
C129	C	0.974089	0.154368	0.000035
C130	C	1.474089	0.654368	0.500035
C131	C	0.975045	0.208026	0.000036
C132	C	1.475045	0.708026	0.500036
N133	N	0.981220	0.065963	0.129280
N134	N	1.481220	0.565963	0.629280
N135	N	0.981357	0.066023	-0.129215
N136	N	1.481357	0.566023	0.370785
C137	C	0.931252	0.036660	0.526170
C138	C	1.431252	0.536660	1.026170
C139	C	0.931213	0.036646	0.317293
C140	C	1.431213	0.536646	0.817293
O141	O	0.888673	0.011691	0.290298
O142	O	1.388673	0.511691	0.790298
N143	N	0.981254	0.065971	0.291158
N144	N	1.481254	0.565971	0.791158
C145	C	1.031311	0.095298	0.317246
C146	C	1.531311	0.595298	0.817246
O147	O	1.073879	0.120236	0.290225
O148	O	1.573879	0.620236	0.790225
C149	C	1.031355	0.095308	0.526123
C150	C	1.531355	0.595308	1.026123
C151	C	0.981305	0.065986	0.552255
C152	C	1.481305	0.565986	1.052255
C153	C	0.881207	0.007339	0.552302
C154	C	1.381207	0.507339	1.052302
C155	C	0.881214	0.007345	0.604519
C156	C	1.381214	0.507345	1.104519
C157	C	0.931266	0.036671	0.630603
C158	C	1.431266	0.536671	1.130603
C159	C	0.981311	0.065992	0.604471
C160	C	1.481311	0.565992	1.104471
C161	C	1.081416	0.124633	0.552210
C162	C	1.581416	0.624633	1.052210
C163	C	1.081424	0.124632	0.604433
C164	C	1.581424	0.624632	1.104433
C165	C	1.031374	0.095309	0.630565
C166	C	1.531374	0.595309	1.130565
C167	C	1.031370	0.095323	0.682772
C168	C	1.531370	0.595323	1.182772
N169	N	0.981330	0.065999	0.708906
N170	N	1.481330	0.565999	1.208906
C171	C	0.931278	0.036673	0.682822
C172	C	1.431278	0.536673	1.182822
C173	C	1.031284	0.095291	0.207583
C174	C	1.531284	0.595291	0.707583
C175	C	1.031272	0.095289	0.155364
C176	C	1.531272	0.595289	0.655364
C177	C	0.931175	0.036637	0.155414
C178	C	1.431175	0.536637	0.655414
C179	C	0.931183	0.036642	0.207634
C180	C	1.431183	0.536642	0.707634
C181	C	0.981244	0.065967	0.233718
C182	C	1.481244	0.565967	0.733718
C183	C	0.931296	0.036687	0.792480
C184	C	1.431296	0.536687	1.292480
C185	C	0.931305	0.036697	0.844701
C186	C	1.431305	0.536697	1.344701
C187	C	1.031405	0.095347	0.844646
C188	C	1.531405	0.595347	1.344646
C189	C	1.031393	0.095340	0.792430
C190	C	1.531393	0.595340	1.292430
C191	C	0.981336	0.066006	0.766348
C192	C	1.481336	0.566006	1.266348
O193	O	1.073895	0.120262	0.709798
O194	O	1.573895	0.620262	1.209798
O195	O	0.888730	0.011731	0.709853
O196	O	1.388730	0.511731	1.209853
C197	C	0.931246	0.036654	0.473954
C198	C	1.431246	0.536654	0.973954
C199	C	0.981291	0.065975	0.447822
C200	C	1.481291	0.565975	0.947822
C201	C	1.031343	0.095301	0.473907
C202	C	1.531343	0.595301	0.973907
C203	C	0.981279	0.065973	0.395603
C204	C	1.481279	0.565973	0.895603
C205	C	0.931227	0.036647	0.369519
C206	C	1.431227	0.536647	0.869519
C207	C	0.881187	0.007322	0.395653
C208	C	1.381187	0.507322	0.895653
C209	C	0.881194	0.007328	0.447870
C210	C	1.381194	0.507328	0.947870
C211	C	1.081383	0.124625	0.447772
C212	C	1.581383	0.624625	0.947772
C213	C	1.081371	0.124617	0.395556
C214	C	1.581371	0.624617	0.895556
C215	C	1.031319	0.095291	0.369471
C216	C	1.531319	0.595291	0.869471
H217	H	0.383631	0.145083	0.000038
H218	H	0.883631	0.645083	0.500038
H219	H	0.890535	0.012801	0.771250
H220	H	1.390535	0.512801	1.271250
H221	H	0.421634	-0.014700	0.000035
H222	H	0.921634	0.485300	0.500035
F223	F	0.748543	-0.439943	0.000020
F224	F	1.248543	0.060057	0.500020
F225	F	0.549150	0.157812	0.000031
F226	F	1.049150	0.657812	0.500031
F227	F	1.142250	-0.190383	0.000022
F228	F	1.642250	0.309617	0.500022
F229	F	0.592412	-0.023997	0.000031
F230	F	1.092412	0.476003	0.500031
H231	H	0.849895	-0.070256	0.000025
H232	H	1.349895	0.429744	0.500025
H233	H	0.837572	-0.776830	0.000040
H234	H	1.337572	-0.276830	0.500040
F235	F	0.820311	-0.677627	0.000027
F236	F	1.320311	-0.177627	0.500027
H237	H	1.122192	0.148512	0.625667
H238	H	1.622192	0.648512	1.125667
F239	F	1.084666	0.126559	0.872416
F240	F	1.584666	0.626559	1.372416
H241	H	0.765796	-0.539140	0.000023
H242	H	1.265796	-0.039140	0.500023
H243	H	0.890544	0.012819	0.865975
H244	H	1.390544	0.512819	1.365975
F245	F	0.829224	-0.166590	0.000027
F246	F	1.329224	0.333410	0.500027
H247	H	1.072136	0.119223	0.771152
H248	H	1.572136	0.619223	1.271152
F249	F	1.144061	-0.086320	0.000029
F250	F	1.644061	0.413680	0.500029
F251	F	1.213197	-0.475275	0.000002
F252	F	1.713197	0.024725	0.500002
H253	H	1.192528	-0.571593	0.000006
H254	H	1.692528	-0.071593	0.500006
H255	H	1.114272	-0.706275	0.000038
H256	H	1.614272	-0.206275	0.500038
H257	H	1.112670	-0.797749	0.000038
H258	H	1.612670	-0.297749	0.500038
H259	H	0.768433	-0.387893	0.000019
H260	H	1.268433	0.112107	0.500019
F261	F	0.827923	-0.023881	0.475675
F262	F	1.327923	0.476119	0.975675
H263	H	1.195158	-0.420332	0.000018
H264	H	1.695158	0.079668	0.500018
F265	F	1.084566	0.126506	0.235337
F266	F	1.584566	0.626506	0.735337
F267	F	0.751192	-0.288680	0.000015
F268	F	1.251192	0.211320	0.500015
H269	H	1.196755	-0.328877	0.000017
H270	H	1.696755	0.171123	0.500017
H271	H	0.840461	-0.016534	0.625790
H272	H	1.340461	0.483466	1.125790
H273	H	0.840449	-0.016544	0.531070
H274	H	1.340449	0.483456	1.031070
H275	H	0.890428	0.012765	0.228907
H276	H	1.390428	0.512765	0.728907
F277	F	0.827914	-0.023887	0.367883
F278	F	1.327914	0.476113	0.867883
F279	F	0.877906	0.005426	0.127644
F280	F	1.377906	0.505426	0.627644
H281	H	1.072018	0.119172	0.134092
H282	H	1.572018	0.619172	0.634092
H283	H	1.122174	0.148509	0.530943
H284	H	1.622174	0.648509	1.030943
H285	H	1.122126	0.148500	0.374284
H286	H	1.622126	0.648500	0.874284
H287	H	1.122144	0.148505	0.469005
H288	H	1.622144	0.648505	0.969005
