data_functionalizedCrystal
_audit_creation_method	'MofGen! by Chris Wilmer'
_symmetry_space_group_name_H-M	'P1'
_symmetry_Int_Tables_number	1
_symmetry_cell_setting	triclinic
loop_
_symmetry_equiv_pos_as_xyz
  x,y,z
_cell_length_a	12.759401
_cell_length_b	16.959454
_cell_length_c	12.759401
_cell_angle_alpha	90.008476
_cell_angle_beta	90.000621
_cell_angle_gamma	90.020236
loop_
_atom_site_label
_atom_site_type_symbol
_atom_site_fract_x
_atom_site_fract_y
_atom_site_fract_z
Zn1	Zn	1.606031	-0.314805	0.593987
Zn2	Zn	1.605963	-0.446955	0.418310
Zn3	Zn	1.430388	-0.314795	0.418327
Zn4	Zn	1.430305	-0.446946	0.593951
O5	O	1.518172	-0.380875	0.506144
O6	O	1.753043	-0.332343	0.570691
O7	O	1.582679	-0.429424	0.271291
O8	O	1.453750	-0.204186	0.441650
O9	O	1.752993	-0.429433	0.441622
O10	O	1.582794	-0.204193	0.570707
O11	O	1.453684	-0.332326	0.271303
O12	O	1.283356	-0.332317	0.441616
O13	O	1.453609	-0.429417	0.740977
O14	O	1.283295	-0.429408	0.570646
O15	O	1.582714	-0.332334	0.741003
O16	O	1.582599	-0.557565	0.441587
O17	O	1.453544	-0.557558	0.570630
C18	C	1.245204	-0.380861	0.506129
C19	C	1.128428	-0.380874	0.506148
C20	C	1.073562	-0.431509	0.573223
C21	C	0.963837	-0.431520	0.573235
C22	C	0.963855	-0.330255	0.439087
C23	C	1.073577	-0.330242	0.439082
C24	C	1.128412	-0.482141	0.640290
C25	C	1.073546	-0.532782	0.707370
C26	C	0.963822	-0.532792	0.707381
C27	C	0.908964	-0.482161	0.640313
C28	C	1.518084	-0.586242	0.506126
C29	C	1.518142	-0.674098	0.506153
C30	C	1.451070	-1.045600	0.573329
C31	C	1.585566	-1.045547	0.439065
C32	C	1.585529	-0.963002	0.439056
C33	C	1.518261	-0.921751	0.506183
C34	C	1.451029	-0.963046	0.573319
C35	C	1.652752	-0.921700	0.371913
C36	C	1.652718	-0.839149	0.371899
C37	C	1.585453	-0.797897	0.439033
C38	C	1.518220	-0.839198	0.506173
C39	C	1.450951	-0.797947	0.573300
C40	C	1.383722	-0.839246	0.640446
C41	C	1.383765	-0.921795	0.640453
C42	C	1.585411	-0.715349	0.439026
C43	C	1.450910	-0.715394	0.573290
C44	C	1.792205	-0.380891	0.506159
C45	C	1.908982	-0.380897	0.506165
C46	C	1.518160	-0.380876	0.780177
C47	C	1.518155	-0.380876	0.896954
C48	C	1.518289	-0.174707	0.506185
C49	C	1.518338	-0.086850	0.506202
C50	C	1.450999	-0.330324	0.951828
C51	C	1.450999	-0.330333	1.061552
C52	C	1.585318	-0.431447	1.061518
C53	C	1.585312	-0.431442	0.951796
C54	C	1.383842	-0.279758	0.896986
C55	C	1.316682	-0.229201	0.951861
C56	C	1.316681	-0.229210	1.061585
C57	C	1.383841	-0.279775	1.116434
C58	C	1.518171	-0.380892	1.233176
C59	C	1.518160	-0.380890	1.116400
H60	H	0.819619	-0.482167	0.640337
Br61	Br	1.292425	-0.783254	0.731536
Br62	Br	1.148046	-0.261519	0.348052
Br63	Br	1.383832	-0.279791	1.265347
H64	H	1.707460	-0.805528	0.317227
Br65	Br	1.383846	-0.279737	0.748075
H66	H	1.396136	-0.681812	0.627957
Br67	Br	1.744045	-0.977685	0.280822
Br68	Br	1.676458	-0.500066	1.135956
H69	H	1.640143	-0.681727	0.384352
Br70	Br	1.359842	-1.101644	0.664460
H71	H	1.329029	-0.955428	0.695118
H72	H	1.261997	-0.188037	0.907195
H73	H	1.261990	-0.188049	1.106260
Br74	Br	1.676445	-0.500055	0.877316
H75	H	0.919181	-0.289035	0.384482
H76	H	1.640327	-1.079138	0.384407
H77	H	1.118218	-0.573998	0.761981
Br78	Br	1.277322	-0.482135	0.640272
H79	H	0.919152	-0.574020	0.762008
