data_functionalizedCrystal
_audit_creation_method	'MofGen! by Chris Wilmer'
_symmetry_space_group_name_H-M	'P1'
_symmetry_Int_Tables_number	1
_symmetry_cell_setting	triclinic
loop_
_symmetry_equiv_pos_as_xyz
  x,y,z
_cell_length_a	21.295419
_cell_length_b	25.639239
_cell_length_c	21.295412
_cell_angle_alpha	89.970930
_cell_angle_beta	89.983579
_cell_angle_gamma	90.053487
loop_
_atom_site_label
_atom_site_type_symbol
_atom_site_fract_x
_atom_site_fract_y
_atom_site_fract_z
Zn1	Zn	0.962269	-0.207955	-0.355920
Zn2	Zn	0.962172	-0.295389	-0.250650
Zn3	Zn	0.857007	-0.207992	-0.250665
Zn4	Zn	0.856947	-0.295384	-0.355881
O5	O	0.909599	-0.251680	-0.303279
O6	O	1.050346	-0.219540	-0.341966
O7	O	0.948206	-0.283814	-0.162562
O8	O	0.871037	-0.134822	-0.264651
O9	O	1.050274	-0.283778	-0.264624
O10	O	0.948372	-0.134794	-0.341981
O11	O	0.870942	-0.219604	-0.162574
O12	O	0.768910	-0.219598	-0.264613
O13	O	0.870934	-0.283768	-0.443976
O14	O	0.768866	-0.283804	-0.341915
O15	O	0.948314	-0.219534	-0.444005
O16	O	0.948147	-0.368554	-0.264586
O17	O	0.870839	-0.368550	-0.341899
C18	C	0.746047	-0.251705	-0.303262
C19	C	0.676079	-0.251728	-0.303269
C20	C	0.643272	-0.218334	-0.343603
C21	C	0.577530	-0.218320	-0.343606
C22	C	0.544597	-0.251710	-0.303280
C23	C	0.577411	-0.285106	-0.262938
C24	C	0.643153	-0.285115	-0.262933
N25	N	0.441314	-0.297456	-0.298363
N26	N	0.378863	-0.297446	-0.298372
C27	C	0.346522	-0.251683	-0.303294
N28	N	0.378992	-0.205929	-0.308220
N29	N	0.441449	-0.205940	-0.308214
C30	C	0.473311	-0.251703	-0.303282
C31	C	0.242430	-0.218271	-0.343633
C32	C	0.176686	-0.218256	-0.343631
C33	C	0.176569	-0.285046	-0.262967
C34	C	0.242311	-0.285056	-0.262966
C35	C	0.275238	-0.251669	-0.303302
C36	C	0.909493	-0.387523	-0.303250
C37	C	0.909505	-0.445637	-0.303259
C38	C	0.949958	-0.805989	-0.263091
C39	C	0.949983	-0.860593	-0.263099
O40	O	0.984267	-0.888821	-0.228915
N41	N	0.909710	-0.887919	-0.303321
C42	C	0.869414	-0.860637	-0.343541
O43	O	0.835161	-0.888894	-0.377754
C44	C	0.869393	-0.806034	-0.343536
C45	C	0.909664	-0.778711	-0.303307
C46	C	0.990227	-0.778666	-0.222866
C47	C	0.990201	-0.724066	-0.222857
C48	C	0.949907	-0.696788	-0.263073
C49	C	0.909639	-0.724111	-0.303298
C50	C	0.829101	-0.778753	-0.383759
C51	C	0.829084	-0.724146	-0.383750
C52	C	0.869355	-0.696824	-0.343521
C53	C	0.869320	-0.642232	-0.343505
N54	N	0.909593	-0.614907	-0.303283
C55	C	0.949887	-0.642185	-0.263067
C56	C	0.869461	-0.975308	-0.343551
C57	C	0.869478	-1.029910	-0.343554
C58	C	0.950048	-1.029863	-0.263113
C59	C	0.950027	-0.975259	-0.263107
C60	C	0.909734	-0.947982	-0.303329
C61	C	0.949830	-0.527520	-0.263050
C62	C	0.949799	-0.472914	-0.263043
C63	C	0.869232	-0.472967	-0.343487
C64	C	0.869260	-0.527567	-0.343492
C65	C	0.909564	-0.554842	-0.303272
O66	O	0.835054	-0.613970	-0.377673
O67	O	0.984140	-0.613922	-0.228866
C68	C	1.073789	-0.251655	-0.303297
C69	C	1.143757	-0.251645	-0.303305
C70	C	0.909628	-0.251646	-0.467470
C71	C	0.909640	-0.251632	-0.537438
C72	C	0.909722	-0.115307	-0.303322
C73	C	0.909775	-0.057193	-0.303340
C74	C	0.949992	-0.218103	-1.036912
C75	C	0.949987	-0.218115	-0.971169
C76	C	0.909695	-0.251563	-0.938277
C77	C	0.869416	-0.285010	-0.971133
C78	C	0.869427	-0.285000	-1.036875
N79	N	0.854573	-0.255598	-0.835049
N80	N	0.854565	-0.255604	-0.772597
C81	C	0.909662	-0.251595	-0.740203
N82	N	0.964769	-0.247570	-0.772618
N83	N	0.964776	-0.247561	-0.835076
C84	C	0.909679	-0.251577	-0.866992
C85	C	0.949936	-0.218167	-0.636069
C86	C	0.949932	-0.218183	-0.570325
C87	C	0.869356	-0.285075	-0.570290
C88	C	0.869365	-0.285061	-0.636033
C89	C	0.909654	-0.251605	-0.668918
C90	C	0.909606	-0.251676	-0.139728
C91	C	0.909716	-0.251543	-0.069760
H92	H	0.149976	-0.191059	-0.376475
C93	C	0.994291	-0.181326	-0.935027
C94	C	1.043688	-0.203975	-0.889828
C95	C	1.087992	-0.167186	-0.853689
C96	C	1.082899	-0.107749	-0.862750
C97	C	1.033500	-0.085097	-0.907951
C98	C	0.989196	-0.121886	-0.944090
H99	H	1.047460	-0.247977	-0.883119
H100	H	1.124560	-0.183955	-0.820228
H101	H	1.115695	-0.080515	-0.835997
H102	H	1.029728	-0.041095	-0.914660
H103	H	0.952628	-0.105117	-0.977551
C104	C	0.825174	-1.059961	-0.387802
C105	C	0.780854	-1.029949	-0.432036
C106	C	0.736552	-1.059998	-0.476288
C107	C	0.736569	-1.120059	-0.476306
C108	C	0.780891	-1.150075	-0.432070
C109	C	0.825194	-1.120026	-0.387818
H110	H	0.780840	-0.985485	-0.432024
H111	H	0.703742	-1.037778	-0.509035
H112	H	0.703774	-1.142303	-0.509064
H113	H	0.780906	-1.194539	-0.432082
H114	H	0.858004	-1.142246	-0.355072
C115	C	0.825034	-0.321866	-0.534113
C116	C	0.830118	-0.381302	-0.543123
C117	C	0.785797	-0.418094	-0.506939
C118	C	0.736392	-0.395449	-0.461745
C119	C	0.731305	-0.336010	-0.452733
C120	C	0.775626	-0.299218	-0.488917
H121	H	0.866693	-0.398067	-0.576580
H122	H	0.789563	-0.462094	-0.513611
H123	H	0.703583	-0.422685	-0.434960
H124	H	0.694731	-0.319245	-0.419276
H125	H	0.771861	-0.255218	-0.482245
H126	H	0.836628	-0.312232	-1.063619
H127	H	1.023042	-0.800870	-0.190117
H128	H	0.836611	-0.312244	-0.944349
C129	C	0.994260	-0.181373	-0.672248
C130	C	1.038574	-0.144595	-0.636112
C131	C	1.082899	-0.107802	-0.672289
C132	C	1.082911	-0.107787	-0.744602
C133	C	1.038595	-0.144567	-0.780742
C134	C	0.994270	-0.181360	-0.744565
H135	H	1.038567	-0.144605	-0.582578
H136	H	1.115705	-0.080576	-0.645535
H137	H	1.115723	-0.080551	-0.771382
H138	H	1.038602	-0.144557	-0.834276
H139	H	0.961464	-0.208586	-0.771318
C140	C	0.140352	-0.321774	-0.218607
C141	C	0.095170	-0.299058	-0.169238
C142	C	0.058950	-0.335786	-0.124873
C143	C	0.067912	-0.395230	-0.129877
C144	C	0.113096	-0.417950	-0.179248
C145	C	0.149316	-0.381222	-0.223613
H146	H	0.088534	-0.255051	-0.165531
H147	H	0.025502	-0.318967	-0.088325
H148	H	0.041100	-0.422419	-0.097035
H149	H	0.119732	-0.461957	-0.182954
H150	H	0.182764	-0.398041	-0.260161
C151	C	0.541432	-0.181588	-0.387979
C152	C	0.577649	-0.144865	-0.432347
C153	C	0.541554	-0.108134	-0.476721
C154	C	0.469241	-0.108126	-0.476728
C155	C	0.433020	-0.144850	-0.432359
C156	C	0.469115	-0.181581	-0.387984
H157	H	0.631183	-0.144869	-0.432343
H158	H	0.568367	-0.080948	-0.509566
H159	H	0.442521	-0.080935	-0.509577
H160	H	0.379486	-0.144846	-0.432363
H161	H	0.442301	-0.208767	-0.355139
C162	C	0.994160	-0.557517	-0.218805
C163	C	0.966932	-0.595109	-0.169361
C164	C	1.011258	-0.625107	-0.125113
C165	C	1.082813	-0.617513	-0.130309
C166	C	1.110045	-0.579920	-0.179755
C167	C	1.065719	-0.549922	-0.224003
H168	H	0.913960	-0.600732	-0.165514
H169	H	0.991099	-0.652936	-0.088510
H170	H	1.115625	-0.639719	-0.097554
H171	H	1.163017	-0.574297	-0.183602
H172	H	1.085878	-0.522093	-0.260606
H173	H	0.836470	-0.549815	-0.376252
C174	C	0.994240	-0.181396	-0.534191
C175	C	0.989147	-0.121958	-0.543249
C176	C	1.033455	-0.085170	-0.507115
C177	C	1.082857	-0.107820	-0.461922
C178	C	1.087952	-0.167261	-0.452861
C179	C	1.043643	-0.204049	-0.488995
H180	H	0.952575	-0.105189	-0.576706
H181	H	1.029683	-0.041168	-0.513823
H182	H	1.115657	-0.080588	-0.435173
H183	H	1.124524	-0.184031	-0.419404
H184	H	1.047415	-0.248051	-0.482288
H185	H	0.269023	-0.312251	-0.230124
H186	H	0.836565	-0.312290	-0.662778
C187	C	0.994331	-0.945207	-0.218859
C188	C	1.043725	-0.907607	-0.246176
C189	C	1.088032	-0.877558	-0.201927
C190	C	1.082944	-0.885110	-0.130362
C191	C	1.033548	-0.922712	-0.103042
C192	C	0.989241	-0.952761	-0.147290
H193	H	1.047493	-0.902015	-0.299156
H194	H	1.124598	-0.849723	-0.222152
H195	H	1.115743	-0.862866	-0.097607
H196	H	1.029780	-0.928304	-0.050062
H197	H	0.952675	-0.980596	-0.127066
C198	C	0.541188	-0.321836	-0.218581
C199	C	0.468875	-0.321830	-0.218589
C200	C	0.432653	-0.358559	-0.174227
C201	C	0.468743	-0.395295	-0.129859
C202	C	0.541060	-0.395302	-0.129850
C203	C	0.577283	-0.358572	-0.174211
H204	H	0.442155	-0.294635	-0.251434
H205	H	0.379119	-0.358554	-0.174234
H206	H	0.441929	-0.422484	-0.097020
H207	H	0.567780	-0.422496	-0.097004
H208	H	0.630816	-0.358578	-0.174204
H209	H	0.670077	-0.191148	-0.376448
C210	C	0.679244	-0.321854	-0.218566
C211	C	0.724454	-0.299152	-0.169192
C212	C	0.760546	-0.335892	-0.124825
C213	C	0.751429	-0.395334	-0.129833
C214	C	0.706217	-0.418039	-0.179209
C215	C	0.670124	-0.381299	-0.223575
H216	H	0.731205	-0.255147	-0.165483
H217	H	0.794015	-0.319084	-0.088274
H218	H	0.778147	-0.422531	-0.096990
H219	H	0.699466	-0.462044	-0.182918
H220	H	0.636655	-0.398106	-0.260127
C221	C	0.278657	-0.181542	-0.387992
C222	C	0.269640	-0.185878	-0.459546
C223	C	0.305868	-0.149149	-0.503903
C224	C	0.351112	-0.108083	-0.476707
C225	C	0.360131	-0.103745	-0.405150
C226	C	0.323904	-0.140474	-0.360792
H227	H	0.236146	-0.216279	-0.479682
H228	H	0.299191	-0.152361	-0.556875
H229	H	0.377930	-0.080894	-0.509543
H230	H	0.393626	-0.073344	-0.385014
H231	H	0.330581	-0.137262	-0.307821
H232	H	0.982593	-0.450670	-0.230282
H233	H	0.796273	-0.701940	-0.416506
H234	H	1.022995	-0.701823	-0.190101
H235	H	0.982860	-1.052082	-0.230369
C236	C	0.825128	-0.945306	-0.387792
C237	C	0.753574	-0.952897	-0.382584
C238	C	0.709242	-0.922899	-0.426826
C239	C	0.736463	-0.885310	-0.476276
C240	C	0.808021	-0.877717	-0.481486
C241	C	0.852353	-0.907715	-0.437244
H242	H	0.733419	-0.980725	-0.345977
H243	H	0.656270	-0.928520	-0.422969
H244	H	0.703646	-0.863103	-0.509026
H245	H	0.828175	-0.849889	-0.518093
H246	H	0.905325	-0.902094	-0.441101
H247	H	0.796305	-0.800990	-0.416515
C248	C	0.994311	-0.181303	-1.073085
C249	C	1.038617	-0.144519	-1.036947
C250	C	1.082936	-0.107720	-1.073121
C251	C	1.082951	-0.107705	-1.145434
C252	C	1.038644	-0.144490	-1.181576
C253	C	0.994324	-0.181289	-1.145402
H254	H	1.038607	-0.144529	-0.983413
H255	H	1.115735	-0.080489	-1.046366
H256	H	1.115759	-0.080464	-1.172213
H257	H	1.038653	-0.144480	-1.235110
H258	H	0.961526	-0.208520	-1.172157
H259	H	0.836423	-0.450749	-0.376228
