data_functionalizedCrystal
_audit_creation_method	'MofGen! by Chris Wilmer'
_symmetry_space_group_name_H-M	'P1'
_symmetry_Int_Tables_number	1
_symmetry_cell_setting	triclinic
loop_
_symmetry_equiv_pos_as_xyz
  x,y,z
_cell_length_a	25.639242
_cell_length_b	16.994747
_cell_length_c	25.639233
_cell_angle_alpha	89.993240
_cell_angle_beta	90.022166
_cell_angle_gamma	90.006589
loop_
_atom_site_label
_atom_site_type_symbol
_atom_site_fract_x
_atom_site_fract_y
_atom_site_fract_z
Zn1	Zn	0.799326	-0.314218	0.295835
Zn2	Zn	0.799291	-0.446103	0.208438
Zn3	Zn	0.711902	-0.314207	0.208399
Zn4	Zn	0.711889	-0.446074	0.295828
O5	O	0.755602	-0.380150	0.252125
O6	O	0.872486	-0.331730	0.284261
O7	O	0.787690	-0.428614	0.135268
O8	O	0.723518	-0.203827	0.219984
O9	O	0.872461	-0.428625	0.220051
O10	O	0.787748	-0.203835	0.284223
O11	O	0.723485	-0.331710	0.135239
O12	O	0.638735	-0.331682	0.219977
O13	O	0.723497	-0.428575	0.368994
O14	O	0.638726	-0.428564	0.284211
O15	O	0.787736	-0.331702	0.368999
O16	O	0.787677	-0.556480	0.220044
O17	O	0.723463	-0.556459	0.284249
C18	C	0.619759	-0.380119	0.252090
C19	C	0.561645	-0.380125	0.252087
C20	C	0.755572	-0.585090	0.252149
C21	C	0.755575	-0.674412	0.252147
Zn22	Zn	0.711917	-0.945293	0.208384
Zn23	Zn	0.799349	-0.945283	0.295812
Zn24	Zn	0.711907	-0.813466	0.295819
Zn25	Zn	0.799301	-0.813358	0.208421
O26	O	0.755618	-0.879350	0.252109
O27	O	0.723539	-1.055673	0.219963
O28	O	0.787765	-0.927838	0.368978
O29	O	0.638743	-0.831003	0.284209
O30	O	0.787775	-1.055666	0.284196
O31	O	0.638750	-0.927855	0.219971
O32	O	0.723522	-0.830993	0.368984
O33	O	0.723476	-0.703071	0.284244
O34	O	0.787693	-0.830819	0.135251
O35	O	0.787683	-0.702991	0.220033
O36	O	0.723492	-0.927751	0.135224
O37	O	0.872508	-0.927734	0.284232
O38	O	0.872472	-0.830809	0.220026
C39	C	0.201286	-0.430681	0.285540
C40	C	0.146682	-0.430686	0.285548
O41	O	0.118449	-0.473632	0.313961
N42	N	0.119363	-0.380172	0.252159
C43	C	0.146651	-0.329644	0.218764
O44	O	0.118400	-0.286678	0.190365
C45	C	0.201254	-0.329636	0.218758
C46	C	0.228570	-0.380159	0.252146
C47	C	0.228603	-0.481199	0.318925
C48	C	0.283203	-0.481195	0.318916
C49	C	0.310487	-0.430673	0.285522
C50	C	0.283171	-0.380155	0.252137
C51	C	0.228541	-0.279105	0.185366
C52	C	0.283148	-0.279101	0.185364
C53	C	0.310464	-0.329624	0.218751
C54	C	0.365056	-0.329629	0.218733
N55	N	0.392375	-0.380143	0.252122
C56	C	0.365091	-0.430665	0.285517
C57	C	0.031980	-0.329664	0.218778
C58	C	-0.022622	-0.329676	0.218780
C59	C	-0.022587	-0.430717	0.285565
C60	C	0.032016	-0.430709	0.285560
C61	C	0.059299	-0.380178	0.252167
C62	C	0.479756	-0.430653	0.285495
C63	C	0.534361	-0.430647	0.285481
C64	C	0.534321	-0.329604	0.218698
C65	C	0.479721	-0.329612	0.218709
C66	C	0.452439	-0.380140	0.252112
O67	O	0.393324	-0.286702	0.190336
O68	O	0.393348	-0.473617	0.313916
C69	C	0.891975	-0.380182	0.252161
C70	C	0.950089	-0.380196	0.252176
C71	C	0.755619	-0.380137	0.388498
C72	C	0.755626	-0.380131	0.446612
C73	C	0.755635	-0.174410	0.252098
C74	C	0.755651	-0.085088	0.252087
C75	C	0.755615	-0.380107	0.116283
C76	C	0.755709	-0.379891	0.058169
C77	C	0.789118	-0.329539	0.806984
C78	C	0.789124	-0.329517	0.861588
O79	O	0.817558	-0.286595	0.889832
N80	N	0.755684	-0.379946	0.888895
C81	C	0.722231	-0.430394	0.861595
O82	O	0.693787	-0.473285	0.889835
C83	C	0.722222	-0.430411	0.806991
C84	C	0.755668	-0.379985	0.779687
C85	C	0.822561	-0.279115	0.779680
C86	C	0.822555	-0.279139	0.725079
C87	C	0.789106	-0.329585	0.697783
C88	C	0.755662	-0.380008	0.725087
C89	C	0.688767	-0.480855	0.779692
C90	C	0.688761	-0.480868	0.725085
C91	C	0.722207	-0.430441	0.697781
C92	C	0.722207	-0.430477	0.643190
N93	N	0.755648	-0.380048	0.615883
C94	C	0.789097	-0.329602	0.643179
C95	C	0.722251	-0.430353	0.976265
C96	C	0.722262	-0.430340	1.030868
C97	C	0.789155	-0.329462	1.030857
C98	C	0.789146	-0.329479	0.976254
C99	C	0.755691	-0.379924	0.948958
C100	C	0.789083	-0.329655	0.528514
C101	C	0.789075	-0.329684	0.473909
C102	C	0.722181	-0.430560	0.473924
C103	C	0.722190	-0.430533	0.528524
C104	C	0.755642	-0.380074	0.555818
O105	O	0.693787	-0.473375	0.614911
O106	O	0.817531	-0.286711	0.614932
C107	C	0.891461	-0.879261	0.252133
C108	C	0.949575	-0.879245	0.252159
C109	C	0.755588	-0.879274	0.115736
C110	C	0.755576	-0.879241	0.057622
C111	C	0.619245	-0.879442	0.252086
C112	C	0.561131	-0.879481	0.252077
C113	C	0.755611	-0.879471	0.387952
C114	C	0.755477	-0.879654	0.446065
C115	C	0.976869	-0.929749	0.285572
C116	C	1.031473	-0.929750	0.285597
C117	C	1.058783	-0.879243	0.252210
C118	C	1.031485	-0.828737	0.218793
C119	C	0.976881	-0.828741	0.218766
C120	C	0.722140	-0.929694	0.030314
C121	C	0.722118	-0.929663	-0.024290
C122	C	0.755534	-0.879184	-0.051586
C123	C	0.788971	-0.828726	-0.024274
C124	C	0.788991	-0.828753	0.030330
C125	C	0.533834	-0.829068	0.285518
C126	C	0.479229	-0.829089	0.285509
C127	C	0.451924	-0.879529	0.252061
C128	C	0.479225	-0.929944	0.218616
C129	C	0.533828	-0.929919	0.218623
C130	C	0.722207	-0.828952	0.473337
C131	C	0.722071	-0.829124	0.527941
C132	C	0.755210	-0.879994	0.555273
C133	C	0.788482	-0.930701	0.527998
C134	C	0.788615	-0.930533	0.473394
H135	H	0.556600	-0.471792	0.312670
H136	H	0.815462	-0.972120	0.550259
H137	H	0.695032	-0.471411	1.053094
O138	O	0.689696	-0.978800	-0.050791
C139	C	0.701147	-1.057409	-0.037446
H140	H	0.742923	-1.061357	-0.022437
H141	H	0.673136	-1.078066	-0.005752
C142	C	0.643749	-1.105190	-0.104390
C143	C	0.695061	-1.110041	-0.085960
H144	H	0.639993	-1.137658	-0.134314
H145	H	0.636033	-1.052230	-0.113380
H146	H	0.620412	-1.122403	-0.077973
H147	H	0.718396	-1.092819	-0.112374
H148	H	0.702782	-1.163000	-0.076976
H149	H	0.456984	-0.971010	0.191383
H150	H	1.103244	-0.879248	0.252237
O151	O	1.058064	-0.978781	0.318015
C152	C	1.112116	-0.967944	0.310893
H153	H	1.119584	-0.942050	0.270563
H154	H	1.127609	-0.925986	0.341939
C155	C	1.130967	-1.079566	0.365189
C156	C	1.140141	-1.047769	0.315653
H157	H	1.148256	-1.128804	0.368127
H158	H	1.094552	-1.086865	0.369989
H159	H	1.143879	-1.044593	0.391055
H160	H	1.127223	-1.082737	0.289788
H161	H	1.176554	-1.040477	0.310848
O162	O	0.821694	-0.280426	1.057298
C163	C	0.851203	-0.235901	1.021494
H164	H	0.853009	-0.268219	0.982577
H165	H	0.832064	-0.175993	1.015668
C166	C	0.904633	-0.184839	1.090621
C167	C	0.906854	-0.224536	1.042824
H168	H	0.938961	-0.177825	1.103779
H169	H	0.884751	-0.214834	1.114743
H170	H	0.888681	-0.134920	1.085760
H171	H	0.922799	-0.274458	1.047687
H172	H	0.926740	-0.194549	1.018703
O173	O	0.821451	-0.779636	0.056795
C174	C	0.809997	-0.701020	0.043469
H175	H	0.789876	-0.699382	0.003827
H176	H	0.783129	-0.674477	0.074207
C177	C	0.885672	-0.655225	0.089631
C178	C	0.860963	-0.653213	0.040940
H179	H	0.917109	-0.625733	0.088073
H180	H	0.893388	-0.708190	0.098611
H181	H	0.863276	-0.633107	0.115241
H182	H	0.883356	-0.675339	0.015333
H183	H	0.853252	-0.600251	0.031956
O184	O	1.058097	-0.779698	0.186414
C185	C	1.112143	-0.790545	0.193602
H186	H	1.119587	-0.816460	0.233935
H187	H	1.127643	-0.832488	0.162566
C188	C	1.131043	-0.678896	0.139356
C189	C	1.140186	-0.710720	0.188896
H190	H	1.148342	-0.629658	0.136451
H191	H	1.094631	-0.671590	0.134512
H192	H	1.143960	-0.713856	0.113498
H193	H	1.127263	-0.675765	0.214753
H194	H	1.176596	-0.718018	0.193745
H195	H	0.694960	-0.471602	0.550757
H196	H	0.695007	-0.471436	0.954045
O197	O	0.560271	-0.779992	0.318028
C198	C	0.524459	-0.735519	0.347546
H199	H	0.485532	-0.732804	0.326121
H200	H	0.518664	-0.764427	0.387250
C201	C	0.593563	-0.654893	0.381411
C202	C	0.545754	-0.651552	0.355095
H203	H	0.606699	-0.603099	0.386070
H204	H	0.617691	-0.684856	0.361526
H205	H	0.588727	-0.678985	0.414495
H206	H	0.550592	-0.627469	0.322009
H207	H	0.521627	-0.621582	0.374974
H208	H	0.457008	-0.788034	0.312745
O209	O	0.656324	-0.529991	0.698591
C210	C	0.667733	-0.608601	0.711971
H211	H	0.709502	-0.612580	0.726997
H212	H	0.639701	-0.629202	0.743661
C213	C	0.610340	-0.656379	0.645022
C214	C	0.661643	-0.661267	0.663474
H215	H	0.606581	-0.688868	0.615108
H216	H	0.602652	-0.603419	0.636009
H217	H	0.586985	-0.673546	0.671436
H218	H	0.684996	-0.644092	0.637063
H219	H	0.669336	-0.714227	0.672481
O220	O	0.854985	-0.230025	0.698590
C221	C	0.843569	-0.151414	0.711938
H222	H	0.801800	-0.147437	0.726929
H223	H	0.871600	-0.130799	0.743645
C224	C	0.900962	-0.103645	0.645022
C225	C	0.849658	-0.098760	0.663431
H226	H	0.904720	-0.071164	0.615102
H227	H	0.908654	-0.156607	0.636031
H228	H	0.924314	-0.086468	0.671450
H229	H	0.826307	-0.115946	0.637006
H230	H	0.841962	-0.045799	0.672417
H231	H	0.206394	-0.522341	0.346122
O232	O	0.755032	-0.880025	0.608314
C233	C	0.718550	-0.824373	0.626518
H234	H	0.711516	-0.778125	0.595085
H235	H	0.680260	-0.855286	0.636062
C236	C	0.748562	-0.841102	0.714578
C237	C	0.739927	-0.784295	0.675973
H238	H	0.761747	-0.816382	0.745086
H239	H	0.773140	-0.878597	0.702315
H240	H	0.716652	-0.866857	0.722525
H241	H	0.771838	-0.758548	0.668022
H242	H	0.715355	-0.746794	0.688236
H243	H	0.694949	-0.471634	0.451689
H244	H	0.755514	-0.879171	-0.096047
H245	H	0.556050	-0.970976	0.191392
O246	O	0.820989	-0.979807	0.446987
C247	C	0.850198	-1.024749	0.482825
H248	H	0.852054	-0.992576	0.521794
H249	H	0.830767	-1.084479	0.488501
C250	C	0.903567	-1.076133	0.413803
C251	C	0.905850	-1.036614	0.461663
H252	H	0.937895	-1.083455	0.400749
H253	H	0.883887	-1.045857	0.389658
H254	H	0.887372	-1.125903	0.418539
H255	H	0.922039	-0.986841	0.456925
H256	H	0.925534	-1.066881	0.485807
H257	H	0.954663	-0.787610	0.191558
H258	H	-0.044812	-0.471852	0.312759
H259	H	0.849800	-0.238032	0.801899
O260	O	0.821419	-0.779775	-0.050873
C261	C	0.814221	-0.790571	-0.104922
H262	H	0.797098	-0.851449	-0.112379
H263	H	0.786370	-0.743790	-0.120418
C264	C	0.888142	-0.708553	-0.123796
C265	C	0.867115	-0.783326	-0.132956
H266	H	0.920769	-0.704080	-0.141090
H267	H	0.892991	-0.701276	-0.087383
H268	H	0.864928	-0.669576	-0.136710
H269	H	0.890326	-0.822300	-0.120036
H270	H	0.862272	-0.790608	-0.169368
H271	H	0.694927	-0.970803	0.052531
H272	H	0.407462	-0.879539	0.252058
H273	H	0.695221	-0.787524	0.451090
H274	H	0.457550	-0.471796	0.312696
H275	H	0.305439	-0.522335	0.346105
H276	H	0.694978	-0.787829	0.550140
O277	O	0.821554	-0.280533	0.554964
C278	C	0.810134	-0.201919	0.541604
H279	H	0.790025	-0.200300	0.501956
H280	H	0.783267	-0.175325	0.572324
C281	C	0.885813	-0.156148	0.587769
C282	C	0.861119	-0.154158	0.539069
H283	H	0.917262	-0.126684	0.586207
H284	H	0.893507	-0.209110	0.596772
H285	H	0.863419	-0.133987	0.613363
H286	H	0.883510	-0.176328	0.513477
H287	H	0.853430	-0.101198	0.530062
O288	O	0.058526	-0.479697	0.318071
C289	C	0.045193	-0.462588	0.370195
H290	H	0.030186	-0.399580	0.372891
H291	H	0.013501	-0.504911	0.383823
C292	C	0.112142	-0.549228	0.401771
C293	C	0.093715	-0.471838	0.405083
H294	H	0.142072	-0.554937	0.423292
H295	H	0.121124	-0.560757	0.366654
H296	H	0.085728	-0.584488	0.413127
H297	H	0.120126	-0.436581	0.393721
H298	H	0.084738	-0.460303	0.440199
O299	O	0.058400	-0.280560	0.186281
C300	C	0.022574	-0.235970	0.156824
H301	H	-0.016349	-0.268284	0.154996
H302	H	0.016776	-0.176104	0.176023
C303	C	0.091655	-0.184789	0.103428
C304	C	0.043850	-0.224481	0.101179
H305	H	0.104779	-0.177699	0.069104
H306	H	0.115792	-0.214827	0.123275
H307	H	0.086817	-0.134905	0.119429
H308	H	0.048689	-0.274368	0.085184
H309	H	0.019713	-0.194451	0.081328
O310	O	0.202096	-0.229948	0.152919
C311	C	0.237897	-0.185371	0.123442
H312	H	0.276829	-0.182699	0.144859
H313	H	0.243684	-0.214159	0.083704
C314	C	0.168779	-0.104678	0.089686
C315	C	0.216595	-0.101392	0.115993
H316	H	0.155639	-0.052877	0.085089
H317	H	0.144658	-0.134712	0.109543
H318	H	0.173608	-0.128672	0.056574
H319	H	0.211765	-0.077408	0.149107
H320	H	0.240715	-0.071352	0.096141
H321	H	-0.044858	-0.288543	0.191587
H322	H	0.305359	-0.237947	0.158173
H323	H	0.457479	-0.288474	0.191521
H324	H	0.816313	-0.288620	0.451680
O325	O	0.560890	-0.280639	0.186236
C326	C	0.592448	-0.325470	0.152415
H327	H	0.600628	-0.385292	0.170797
H328	H	0.571389	-0.334042	0.113660
C329	C	0.634271	-0.208578	0.120414
C330	C	0.644321	-0.282050	0.142994
H331	H	0.666267	-0.181794	0.114601
H332	H	0.613008	-0.178374	0.143198
H333	H	0.616720	-0.215732	0.088121
H334	H	0.661865	-0.274895	0.175289
H335	H	0.665587	-0.312253	0.120215
O336	O	0.821559	-0.280448	0.949677
C337	C	0.791794	-0.229487	0.918088
H338	H	0.752167	-0.257302	0.909900
H339	H	0.786060	-0.171030	0.939125
C340	C	0.869229	-0.181048	0.876285
C341	C	0.820559	-0.215214	0.866224
H342	H	0.886973	-0.172240	0.844293
H343	H	0.889282	-0.215379	0.897568
H344	H	0.864443	-0.132338	0.893816
H345	H	0.825346	-0.263927	0.848699
H346	H	0.800508	-0.180890	0.844937
O347	O	0.656352	-0.529930	0.806226
C348	C	0.686107	-0.580872	0.837837
H349	H	0.727287	-0.585751	0.821401
H350	H	0.687909	-0.556486	0.879219
C351	C	0.609973	-0.656873	0.858855
C352	C	0.660549	-0.662872	0.838665
H353	H	0.594207	-0.707454	0.859368
H354	H	0.589925	-0.622552	0.837560
H355	H	0.611482	-0.636549	0.893338
H356	H	0.659040	-0.683186	0.804181
H357	H	0.680596	-0.697199	0.859955
H358	H	0.954641	-0.970877	0.312763
