data_functionalizedCrystal
_audit_creation_method	'MofGen! by Chris Wilmer'
_symmetry_space_group_name_H-M	'P1'
_symmetry_Int_Tables_number	1
_symmetry_cell_setting	triclinic
loop_
_symmetry_equiv_pos_as_xyz
  x,y,z
_cell_length_a	11.792241
_cell_length_b	11.792241
_cell_length_c	13.930277
_cell_angle_alpha	89.995317
_cell_angle_beta	89.996987
_cell_angle_gamma	84.193416
loop_
_atom_site_label
_atom_site_type_symbol
_atom_site_fract_x
_atom_site_fract_y
_atom_site_fract_z
O1	O	1.506913	0.155567	-0.079738
O2	O	2.006913	0.655567	0.420262
O3	O	1.176572	0.171600	-0.079760
O4	O	1.676572	0.671600	0.420240
O5	O	1.349759	-0.001587	-0.079742
O6	O	1.849759	0.498413	0.420258
O7	O	1.333726	0.328754	-0.079757
O8	O	1.833726	0.828754	0.420243
O9	O	1.349735	-0.001591	0.079920
O10	O	1.849735	0.498409	0.579920
O11	O	1.176548	0.171596	0.079901
O12	O	1.676548	0.671596	0.579901
O13	O	1.506889	0.155563	0.079924
O14	O	2.006889	0.655563	0.579924
Zn15	Zn	1.341715	0.163579	0.105262
Zn16	Zn	1.841715	0.663579	0.605262
Zn17	Zn	1.341747	0.163584	-0.105099
Zn18	Zn	1.841747	0.663584	0.394901
O19	O	1.333702	0.328750	0.079905
O20	O	1.833702	0.828750	0.579905
C21	C	1.134269	0.170591	0.000068
C22	C	1.634269	0.670591	0.500068
C23	C	1.008255	0.167576	0.000059
C24	C	1.508255	0.667576	0.500059
C25	C	1.348740	-0.043880	0.000089
C26	C	1.848740	0.456120	0.500089
C27	C	1.345726	-0.169894	0.000087
C28	C	1.845726	0.330106	0.500087
C29	C	0.777543	0.162034	0.000087
C30	C	1.277543	0.662034	0.500087
C31	C	0.905928	0.165113	0.000072
C32	C	1.405928	0.665113	0.500072
C33	C	1.340183	-0.400606	0.000071
C34	C	1.840183	0.099394	0.500071
C35	C	1.343262	-0.272221	0.000080
C36	C	1.843262	0.227779	0.500080
C37	C	1.549192	0.156572	0.000094
C38	C	2.049192	0.656572	0.500094
C39	C	1.675206	0.159587	0.000096
C40	C	2.175206	0.659587	0.500096
C41	C	1.334721	0.371043	0.000073
C42	C	1.834721	0.871043	0.500073
C43	C	1.337736	0.497057	0.000068
C44	C	1.837736	0.997057	0.500068
N45	N	1.341701	0.163575	0.248828
N46	N	1.841701	0.663575	0.748828
N47	N	1.341769	0.163579	-0.248665
N48	N	1.841769	0.663579	0.251335
C49	C	1.265056	0.240241	0.701090
C50	C	1.765056	0.740241	1.201090
C51	C	1.418468	0.086919	0.701075
C52	C	1.918468	0.586919	1.201075
C53	C	1.418455	0.086915	0.600580
C54	C	1.918455	0.586915	1.100580
C55	C	1.341742	0.163577	0.550334
C56	C	1.841742	0.663577	1.050334
C57	C	1.265043	0.240242	0.600585
C58	C	1.765043	0.740242	1.100585
C59	C	1.495160	0.010259	0.550322
C60	C	1.995160	0.510259	1.050322
C61	C	1.495151	0.010253	0.449820
C62	C	1.995151	0.510253	0.949820
C63	C	1.418432	0.086910	0.399573
C64	C	1.918432	0.586910	0.899573
C65	C	1.341728	0.163578	0.449829
C66	C	1.841728	0.663578	0.949829
C67	C	1.265016	0.240239	0.399584
C68	C	1.765016	0.740239	0.899584
C69	C	1.188306	0.316902	0.449838
C70	C	1.688306	0.816902	0.949838
C71	C	1.188324	0.316899	0.550337
C72	C	1.688324	0.816899	1.050337
C73	C	1.418414	0.086913	0.299074
C74	C	1.918414	0.586913	0.799074
C75	C	1.265002	0.240240	0.299079
C76	C	1.765002	0.740240	0.799079
H77	H	1.202529	0.302664	0.258175
H78	H	1.702529	0.802664	0.758175
H79	H	1.202597	0.302656	0.742009
H80	H	1.702597	0.802656	1.242009
H81	H	1.480875	0.024500	0.258161
H82	H	1.980875	0.524500	0.758161
H83	H	1.125851	0.379326	0.408917
H84	H	1.625851	0.879326	0.908917
H85	H	1.125870	0.379316	0.591261
H86	H	1.625870	0.879316	1.091261
N87	N	1.501214	0.004246	0.755263
N88	N	2.001214	0.504246	1.255263
H89	H	1.489587	0.015882	0.826554
H90	H	1.989587	0.515882	1.326554
H91	H	1.487610	-0.076364	0.737709
H92	H	1.987610	0.423636	1.237709
N93	N	1.577905	-0.072412	0.604511
N94	N	2.077905	0.427588	1.104511
H95	H	1.566269	-0.060781	0.675802
H96	H	2.066269	0.439219	1.175802
H97	H	1.564309	-0.153023	0.586952
H98	H	2.064309	0.346977	1.086952
H99	H	1.557610	-0.052171	0.408909
H100	H	2.057610	0.447829	0.908909
