data_functionalizedCrystal
_audit_creation_method	'MofGen! by Chris Wilmer'
_symmetry_space_group_name_H-M	'P1'
_symmetry_Int_Tables_number	1
_symmetry_cell_setting	triclinic
loop_
_symmetry_equiv_pos_as_xyz
  x,y,z
_cell_length_a	19.288864
_cell_length_b	17.019370
_cell_length_c	15.500258
_cell_angle_alpha	97.050599
_cell_angle_beta	93.174037
_cell_angle_gamma	83.266759
loop_
_atom_site_label
_atom_site_type_symbol
_atom_site_fract_x
_atom_site_fract_y
_atom_site_fract_z
O1	O	0.918913	0.095453	-0.065112
O2	O	1.418913	0.595453	0.434888
O3	O	0.716718	0.108775	-0.064061
O4	O	1.216718	0.608775	0.435939
O5	O	0.823114	-0.013126	-0.073164
O6	O	1.323114	0.486874	0.426836
O7	O	0.812517	0.217354	-0.056009
O8	O	1.312517	0.717354	0.443991
O9	O	0.828889	-0.006587	0.071209
O10	O	1.328889	0.493413	0.571209
O11	O	0.722492	0.115314	0.080312
O12	O	1.222492	0.615314	0.580312
O13	O	0.924688	0.101992	0.079261
O14	O	1.424688	0.601992	0.579261
Cu15	Cu	0.824117	0.109250	0.092969
Cu16	Cu	1.324117	0.609250	0.592969
Cu17	Cu	0.817288	0.101517	-0.077769
Cu18	Cu	1.317288	0.601517	0.422231
O19	O	0.818292	0.223893	0.088364
O20	O	1.318292	0.723893	0.588364
C21	C	0.693727	0.111616	0.008101
C22	C	1.193727	0.611616	0.508101
C23	C	0.616618	0.110331	0.008028
C24	C	1.116618	0.610331	0.508028
C25	C	0.572260	0.181855	0.013339
C26	C	1.072260	0.681855	0.513339
C27	C	0.499807	0.180646	0.013239
C28	C	0.999807	0.680646	0.513239
C29	C	0.471714	0.107908	0.007811
C30	C	0.971714	0.607908	0.507811
C31	C	0.516082	0.036374	0.002505
C32	C	1.016082	0.536374	0.502505
C33	C	0.588534	0.037586	0.002614
C34	C	1.088534	0.537586	0.502614
C35	C	0.361157	0.048435	-0.047054
C36	C	0.861157	0.548435	0.452946
C37	C	0.288706	0.047227	-0.047168
C38	C	0.788706	0.547227	0.452832
C39	C	0.248249	0.104168	0.007481
C40	C	0.748249	0.604168	0.507481
C41	C	0.280250	0.162331	0.062232
C42	C	0.780250	0.662331	0.562232
C43	C	0.352702	0.163543	0.062341
C44	C	0.852702	0.663543	0.562341
C45	C	0.393153	0.106586	0.007694
C46	C	0.893153	0.606586	0.507694
C47	C	0.125328	0.174387	0.012685
C48	C	0.625328	0.674387	0.512685
C49	C	0.052874	0.173175	0.012590
C50	C	0.552874	0.673175	0.512590
C51	C	0.069151	0.028900	0.001848
C52	C	0.569151	0.528900	0.501848
C53	C	0.141604	0.030114	0.001951
C54	C	0.641604	0.530114	0.501951
C55	C	0.169688	0.102860	0.007366
C56	C	0.669688	0.602860	0.507366
C57	C	0.825485	-0.039343	-0.003174
C58	C	1.325485	0.460657	0.496826
C59	C	0.823940	-0.127204	-0.009718
C60	C	1.323940	0.372796	0.490282
C61	C	0.826360	-0.164924	0.065902
C62	C	1.326360	0.335076	0.565902
C63	C	0.824912	-0.247480	0.059746
C64	C	1.324912	0.252520	0.559746
C65	C	0.821039	-0.292314	-0.022031
C66	C	1.321039	0.207686	0.477969
C67	C	0.818622	-0.254588	-0.097656
C68	C	1.318622	0.245412	0.402344
C69	C	0.820074	-0.172035	-0.091499
C70	C	1.320074	0.327965	0.408501
C71	C	0.816500	-0.541751	-0.044558
C72	C	1.316500	-0.041751	0.455442
C73	C	0.815045	-0.624309	-0.050709
C74	C	1.315045	-0.124309	0.449291
C75	C	0.821337	-0.617196	0.106693
C76	C	1.321337	-0.117196	0.606693
C77	C	0.822786	-0.534640	0.112843
C78	C	1.322786	-0.034640	0.612843
C79	C	0.820371	-0.496923	0.037218
C80	C	1.320371	0.003077	0.537218
C81	C	0.819557	-0.376699	-0.028325
C82	C	1.319557	0.123301	0.471675
C83	C	0.821859	-0.412540	0.043513
C84	C	1.321859	0.087460	0.543513
C85	C	0.947678	0.099150	0.007097
C86	C	1.447678	0.599150	0.507097
C87	C	1.024787	0.100436	0.007164
C88	C	1.524787	0.600436	0.507164
C89	C	0.815920	0.250110	0.018372
C90	C	1.315920	0.750110	0.518372
C91	C	0.817465	0.337970	0.024910
C92	C	1.317465	0.837970	0.524910
N93	N	0.828926	0.114689	0.213056
N94	N	1.328926	0.614689	0.713056
N95	N	0.812485	0.096072	-0.197857
N96	N	1.312485	0.596072	0.302143
C97	C	0.852885	0.141895	0.760259
C98	C	1.352885	0.641895	1.260259
C99	C	0.849253	0.137776	0.669381
C100	C	1.349253	0.637776	1.169381
C101	C	0.805224	0.087829	0.620389
C102	C	1.305224	0.587829	1.120389
C103	C	0.764819	0.042004	0.662280
C104	C	1.264819	0.542004	1.162280
C105	C	0.768448	0.046128	0.753157
C106	C	1.268448	0.546128	1.253157
C107	C	0.792150	0.072987	0.345824
C108	C	1.292150	0.572987	0.845824
C109	C	0.788526	0.068865	0.254941
C110	C	1.288526	0.568865	0.754941
C111	C	0.872959	0.164639	0.262048
C112	C	1.372959	0.664639	0.762048
C113	C	0.876587	0.168754	0.352926
C114	C	1.376587	0.668754	0.852926
C115	C	0.836180	0.122933	0.394809
C116	C	1.336180	0.622933	0.894809
C117	C	0.801511	0.083616	0.527497
C118	C	1.301511	0.583616	1.027497
C119	C	0.839889	0.127150	0.487699
C120	C	1.339889	0.627150	0.987699
H121	H	0.148196	0.233621	0.017106
H122	H	0.648196	0.733621	0.517106
H123	H	0.829502	-0.128424	0.132493
H124	H	1.329502	0.371576	0.632493
H125	H	0.752668	0.028193	0.215054
H126	H	1.252668	0.528193	0.715054
H127	H	0.624651	-0.020660	-0.001711
H128	H	1.124651	0.479340	0.498289
H129	H	0.177721	-0.028129	-0.002378
H130	H	0.677721	0.471871	0.497622
H131	H	0.493204	-0.022851	-0.001926
H132	H	0.993204	0.477149	0.498074
H133	H	0.826886	-0.278188	0.121323
H134	H	1.326886	0.221812	0.621323
H135	H	0.016758	0.231421	0.016920
H136	H	0.516758	0.731421	0.516920
H137	H	0.378754	0.210899	0.106924
H138	H	0.878754	0.710899	0.606924
H139	H	0.046277	-0.030327	-0.002625
H140	H	0.546277	0.469673	0.497375
H141	H	0.247311	0.208698	0.106733
H142	H	0.747311	0.708698	0.606733
H143	H	0.394092	0.002065	-0.091561
H144	H	0.894092	0.502065	0.408439
H145	H	0.825954	-0.498144	0.179434
H146	H	1.325954	0.001856	0.679434
H147	H	0.759250	0.035673	0.379914
H148	H	1.259250	0.535673	0.879914
H149	H	0.728966	0.001340	0.622384
H150	H	1.228966	0.501340	1.122384
H151	H	0.735549	0.008815	0.787258
H152	H	1.235549	0.508815	1.287258
H153	H	0.882152	0.175090	0.635283
H154	H	1.382152	0.675090	1.135283
H155	H	0.912442	0.209425	0.392809
H156	H	1.412442	0.709425	0.892809
H157	H	0.811885	-0.660810	-0.117305
H158	H	1.311885	-0.160810	0.382695
H159	H	0.463684	0.238892	0.017566
H160	H	0.963684	0.738892	0.517566
H161	H	0.825015	-0.376033	0.110095
H162	H	1.325015	0.123967	0.610095
H163	H	0.875734	0.167821	0.527593
H164	H	1.375734	0.667821	1.027593
H165	H	0.262656	-0.000130	-0.091753
H166	H	0.762656	0.499870	0.408247
H167	H	0.823304	-0.647914	0.168262
H168	H	1.323304	-0.147914	0.668262
H169	H	0.816403	-0.413211	-0.094908
H170	H	1.316403	0.086789	0.405092
H171	H	0.888742	0.182564	0.800141
H172	H	1.388742	0.682564	1.300141
H173	H	0.814533	-0.511051	-0.106138
H174	H	1.314533	-0.011051	0.393862
H175	H	0.905855	0.201946	0.227937
H176	H	1.405855	0.701946	0.727937
H177	H	0.815473	-0.291099	-0.164240
H178	H	1.315473	0.208901	0.335760
H179	H	0.595121	0.241090	0.017746
H180	H	1.095121	0.741090	0.517746
H181	H	0.818104	-0.141325	-0.153077
H182	H	1.318104	0.358675	0.346923
H183	H	0.765664	0.042947	0.487598
H184	H	1.265664	0.542947	0.987598
