data_functionalizedCrystal
_audit_creation_method	'MofGen! by Chris Wilmer'
_symmetry_space_group_name_H-M	'P1'
_symmetry_Int_Tables_number	1
_symmetry_cell_setting	triclinic
loop_
_symmetry_equiv_pos_as_xyz
  x,y,z
_cell_length_a	15.297979
_cell_length_b	21.395361
_cell_length_c	21.395355
_cell_angle_alpha	89.980951
_cell_angle_beta	99.716914
_cell_angle_gamma	80.309785
loop_
_atom_site_label
_atom_site_type_symbol
_atom_site_fract_x
_atom_site_fract_y
_atom_site_fract_z
Zn1	Zn	1.379413	0.083951	0.520372
Zn2	Zn	1.712746	0.417285	0.853705
Zn3	Zn	2.046079	0.750618	1.187038
Zn4	Zn	1.379273	0.188728	0.415576
Zn5	Zn	1.712606	0.522061	0.748910
Zn6	Zn	2.045940	0.855395	1.082243
Zn7	Zn	1.228512	0.102063	0.397436
Zn8	Zn	1.561845	0.435396	0.730770
Zn9	Zn	1.895179	0.768730	1.064103
Zn10	Zn	1.228468	0.206812	0.502156
Zn11	Zn	1.561801	0.540145	0.835490
Zn12	Zn	1.895135	0.873478	1.168823
O13	O	1.303916	0.145389	0.458885
O14	O	1.637250	0.478722	0.792218
O15	O	1.970583	0.812055	1.125552
O16	O	1.505659	0.082702	0.521685
O17	O	1.838992	0.416036	0.855018
O18	O	2.172326	0.749369	1.188352
O19	O	1.359234	0.177243	0.325487
O20	O	1.692567	0.510577	0.658821
O21	O	2.025901	0.843910	0.992154
O22	O	1.248606	0.011973	0.413776
O23	O	1.581940	0.345307	0.747109
O24	O	1.915273	0.678640	1.080442
O25	O	1.505556	0.159681	0.444692
O26	O	1.838890	0.493015	0.778026
O27	O	2.172223	0.826348	1.111359
O28	O	1.359472	-0.001333	0.504096
O29	O	1.692806	0.332000	0.837429
O30	O	2.026139	0.665333	1.170762
O31	O	1.248471	0.113571	0.312160
O32	O	1.581804	0.446904	0.645493
O33	O	1.915137	0.780238	0.978827
O34	O	1.102241	0.131106	0.396113
O35	O	1.435575	0.464439	0.729446
O36	O	1.768908	0.797773	1.062780
O37	O	1.248531	0.190502	0.592255
O38	O	1.581865	0.523836	0.925589
O39	O	1.915198	0.857169	1.258922
O40	O	1.102209	0.208064	0.473050
O41	O	1.435542	0.541398	0.806383
O42	O	1.768876	0.874731	1.139717
O43	O	1.359430	0.100237	0.605638
O44	O	1.692763	0.433571	0.938971
O45	O	2.026097	0.766904	1.272305
O46	O	1.359191	0.278814	0.427030
O47	O	1.692525	0.612147	0.760363
O48	O	2.025858	0.945481	1.093696
O49	O	1.248396	0.292100	0.490640
O50	O	1.581729	0.625433	0.823973
O51	O	1.915062	0.958767	1.157306
C52	C	1.303798	0.308190	0.458843
C53	C	1.637131	0.641524	0.792176
C54	C	1.970465	0.974857	1.125510
C55	C	1.303830	0.377828	0.458856
C56	C	1.637163	0.711161	0.792189
C57	C	1.970497	1.044494	1.125523
C58	C	1.069486	0.173513	0.430637
C59	C	1.402820	0.506847	0.763970
C60	C	1.736153	0.840180	1.097304
C61	C	0.969196	0.185560	0.418567
C62	C	1.302529	0.518894	0.751900
C63	C	1.635863	0.852227	1.085234
C64	C	1.303991	0.145367	0.622318
C65	C	1.637325	0.478700	0.955651
C66	C	1.970658	0.812034	1.288984
C67	C	1.304023	0.145358	0.691963
C68	C	1.637357	0.478691	1.025296
C69	C	1.970690	0.812024	1.358629
C70	C	0.922025	0.231235	0.372747
C71	C	1.255358	0.564569	0.706080
C72	C	1.588691	0.897902	1.039413
C73	C	0.827797	0.242556	0.361409
C74	C	1.161130	0.575889	0.694743
C75	C	1.494464	0.909222	1.028076
C76	C	0.780731	0.208198	0.395888
C77	C	1.114065	0.541532	0.729221
C78	C	1.447398	0.874865	1.062555
C79	C	0.827902	0.162519	0.441706
C80	C	1.161236	0.495852	0.775040
C81	C	1.494569	0.829186	1.108373
C82	C	0.922139	0.151201	0.453048
C83	C	1.255473	0.484535	0.786381
C84	C	1.588806	0.817868	1.119715
C85	C	0.780846	0.128164	0.476190
C86	C	1.114179	0.461497	0.809523
C87	C	1.447513	0.794831	1.142856
C88	C	0.828017	0.082485	0.522008
C89	C	1.161350	0.415818	0.855341
C90	C	1.494684	0.749151	1.188675
C91	C	0.922245	0.071169	0.533347
C92	C	1.255578	0.404502	0.866681
C93	C	1.588911	0.737835	1.200014
C94	C	0.969310	0.105526	0.498869
C95	C	1.302644	0.438859	0.832202
C96	C	1.635977	0.772193	1.165535
C97	C	0.686609	0.139482	0.464848
C98	C	1.019942	0.472815	0.798181
C99	C	1.353276	0.806148	1.131515
C100	C	0.686723	0.059448	0.545149
C101	C	1.020057	0.392781	0.878483
C102	C	1.353390	0.726114	1.211816
C103	C	0.780951	0.048127	0.556487
C104	C	1.114285	0.381461	0.889820
C105	C	1.447618	0.714794	1.223153
C106	C	1.539262	0.117154	0.487244
C107	C	1.872595	0.450488	0.820577
C108	C	2.205929	0.783821	1.153911
C109	C	1.639552	0.105123	0.499329
C110	C	1.972886	0.438456	0.832662
C111	C	2.306219	0.771789	1.165996
C112	C	1.361572	0.403596	0.425783
C113	C	1.694906	0.736929	0.759116
C114	C	2.028239	1.070263	1.092450
C115	C	1.361615	0.469026	0.425805
C116	C	1.694948	0.802360	0.759138
C117	C	2.028281	1.135693	1.092471
C118	C	1.303898	0.508688	0.458891
C119	C	1.637232	0.842021	0.792225
C120	C	1.970565	1.175355	1.125558
C121	C	1.246152	0.482912	0.491972
C122	C	1.579485	0.816246	0.825305
C123	C	1.912818	1.149579	1.158638
C124	C	1.246118	0.417482	0.491954
C125	C	1.579451	0.750816	0.825287
C126	C	1.912784	1.084149	1.158621
C127	C	1.222656	0.622154	0.454022
C128	C	1.555989	0.955487	0.787356
C129	C	1.889323	1.288821	1.120689
C130	C	1.222689	0.687583	0.454035
C131	C	1.556022	1.020916	0.787369
C132	C	1.889355	1.354250	1.120702
C133	C	1.304004	0.710496	0.458949
C134	C	1.637338	1.043829	0.792283
C135	C	1.970671	1.377163	1.125616
C136	C	1.385290	0.667971	0.463838
C137	C	1.718623	1.001305	0.797171
C138	C	2.051956	1.334638	1.130504
C139	C	1.385256	0.602541	0.463820
C140	C	1.718589	0.935875	0.797153
C141	C	2.051922	1.269208	1.130487
C142	C	1.303929	0.579637	0.458914
C143	C	1.637263	0.912970	0.792248
C144	C	1.970596	1.246303	1.125581
C145	C	1.361798	0.807210	0.425899
C146	C	1.695131	1.140544	0.759232
C147	C	2.028464	1.473877	1.092565
C148	C	1.361841	0.872642	0.425925
C149	C	1.695175	1.205975	0.759258
C150	C	2.028508	1.539308	1.092592
C151	C	1.246370	0.886528	0.492088
C152	C	1.579704	1.219861	0.825421
C153	C	1.913037	1.553194	1.158754
C154	C	1.246335	0.821097	0.492065
C155	C	1.579668	1.154430	0.825399
C156	C	1.913001	1.487763	1.158732
C157	C	1.304047	0.781442	0.458967
C158	C	1.637380	1.114775	0.792301
C159	C	1.970714	1.448109	1.125634
C160	C	1.304061	0.981948	0.458955
C161	C	1.637394	1.315281	0.792288
C162	C	1.970728	1.648615	1.125622
C163	C	1.304125	0.912299	0.459013
C164	C	1.637459	1.245632	0.792346
C165	C	1.970792	1.578966	1.125679
C166	C	1.303894	0.145359	0.296095
C167	C	1.637227	0.478692	0.629428
C168	C	1.970560	0.812025	0.962762
C169	C	1.304037	0.145170	0.226471
C170	C	1.637370	0.478504	0.559805
C171	C	1.970703	0.811837	0.893138
C172	C	1.361766	0.098355	0.731645
C173	C	1.695099	0.431689	1.064978
C174	C	2.028432	0.765022	1.398312
C175	C	1.361764	0.098328	0.797080
C176	C	1.695098	0.431662	1.130414
C177	C	2.028431	0.764995	1.463747
C178	C	1.304030	0.145314	0.822832
C179	C	1.637364	0.478647	1.156165
C180	C	1.970697	0.811981	1.489499
C181	C	1.246277	0.192321	0.783140
C182	C	1.579610	0.525654	1.116474
C183	C	1.912943	0.858987	1.449807
C184	C	1.246273	0.192342	0.717706
C185	C	1.579607	0.525676	1.051039
C186	C	1.912940	0.859009	1.384372
C187	C	1.296865	0.202589	0.925634
C188	C	1.630198	0.535923	1.258967
C189	C	1.963531	0.869256	1.592301
C190	C	1.296875	0.202568	0.991068
C191	C	1.630208	0.535901	1.324402
C192	C	1.963541	0.869235	1.657735
C193	C	1.304036	0.145247	1.024653
C194	C	1.637369	0.478581	1.357987
C195	C	1.970703	0.811914	1.691320
C196	C	1.311206	0.087944	0.992799
C197	C	1.644540	0.421277	1.326132
C198	C	1.977873	0.754611	1.659465
C199	C	1.311203	0.087966	0.927364
C200	C	1.644536	0.421299	1.260697
C201	C	1.977869	0.754632	1.594031
C202	C	1.304027	0.145295	0.893784
C203	C	1.637361	0.478629	1.227117
C204	C	1.970694	0.811962	1.560451
C205	C	1.361780	0.098212	1.135288
C206	C	1.695113	0.431545	1.468622
C207	C	2.028447	0.764879	1.801955
C208	C	1.361772	0.098185	1.200724
C209	C	1.695106	0.431518	1.534058
C210	C	2.028439	0.764852	1.867391
C211	C	1.246290	0.192182	1.186784
C212	C	1.579623	0.525515	1.520117
C213	C	1.912956	0.858849	1.853450
C214	C	1.246292	0.192204	1.121349
C215	C	1.579626	0.525538	1.454682
C216	C	1.912959	0.858871	1.788015
C217	C	1.304042	0.145219	1.095606
C218	C	1.637376	0.478553	1.428939
C219	C	1.970709	0.811886	1.762272
H220	H	0.648211	0.176675	0.427543
H221	H	0.981545	0.510008	0.760876
H222	H	1.314878	0.843341	1.094209
H223	H	1.156434	0.603506	0.450022
H224	H	1.489767	0.936840	0.783356
H225	H	1.823101	1.270173	1.116689
H226	H	1.451440	0.567919	0.467802
H227	H	1.784773	0.901253	0.801135
H228	H	2.118107	1.234586	1.134468
Br229	Br	1.287172	0.280387	0.880064
Br230	Br	1.620505	0.613721	1.213397
Br231	Br	1.953839	0.947054	1.546731
H232	H	0.819371	0.010935	0.593792
H233	H	1.152705	0.344268	0.927126
H234	H	1.486038	0.677602	1.260459
H235	H	1.408789	0.060096	0.710689
H236	H	1.742122	0.393429	1.044023
H237	H	2.075456	0.726763	1.377356
Br238	Br	1.440158	0.034398	1.254583
Br239	Br	1.773491	0.367731	1.587916
Br240	Br	2.106825	0.701065	1.921250
Br241	Br	1.440116	0.753390	0.380979
Br242	Br	1.773450	1.086724	0.714312
Br243	Br	2.106783	1.420057	1.047645
H244	H	1.199096	0.396502	0.518887
H245	H	1.532429	0.729836	0.852220
H246	H	1.865763	1.063169	1.185553
H247	H	1.408783	0.060050	0.829395
H248	H	1.742116	0.393384	1.162729
H249	H	2.075450	0.726717	1.496062
H250	H	1.199278	0.230482	1.089039
H251	H	1.532611	0.563815	1.422372
H252	H	1.865944	0.897148	1.755706
Br253	Br	0.652849	0.223563	0.380502
Br254	Br	0.986182	0.556896	0.713835
Br255	Br	1.319515	0.890229	1.047169
H256	H	1.199266	0.230575	0.804111
H257	H	1.532600	0.563908	1.137445
H258	H	1.865933	0.897242	1.470778
Br259	Br	1.320929	0.010202	0.884134
Br260	Br	1.654262	0.343535	1.217467
Br261	Br	1.987596	0.676869	1.550800
Br262	Br	0.622857	0.012820	0.591949
Br263	Br	0.956190	0.346154	0.925282
Br264	Br	1.289523	0.679487	1.258615
H265	H	1.408868	0.893620	0.398995
H266	H	1.742201	1.226953	0.732328
H267	H	2.075534	1.560286	1.065662
Br268	Br	1.439985	0.504007	0.380917
Br269	Br	1.773319	0.837340	0.714250
Br270	Br	2.106652	1.170673	1.047584
Br271	Br	1.320934	0.010145	1.038371
Br272	Br	1.654267	0.343478	1.371704
Br273	Br	1.987600	0.676812	1.705038
Br274	Br	1.167963	0.786123	0.536951
Br275	Br	1.501296	1.119456	0.870284
Br276	Br	1.834630	1.452790	1.203618
H277	H	1.199380	0.918819	0.519031
H278	H	1.532714	1.252152	0.852364
H279	H	1.866047	1.585486	1.185697
H280	H	1.291041	0.249227	1.017000
H281	H	1.624375	0.582561	1.350333
H282	H	1.957708	0.915894	1.683667
H283	H	0.789397	0.279748	0.324104
H284	H	1.122730	0.613081	0.657438
H285	H	1.456064	0.946415	0.990771
Br286	Br	1.167901	0.256136	0.663847
Br287	Br	1.501234	0.589469	0.997180
Br288	Br	1.834568	0.922802	1.330514
Br289	Br	1.439908	0.349780	0.380875
Br290	Br	1.773242	0.683114	0.714208
Br291	Br	2.106575	1.016447	1.047541
H292	H	1.408798	0.059951	1.114327
H293	H	1.742132	0.393285	1.447660
H294	H	2.075465	0.726618	1.780993
H295	H	1.156501	0.722202	0.450049
H296	H	1.489834	1.055535	0.783382
H297	H	1.823168	1.388869	1.116715
H298	H	1.199160	0.515209	0.518912
H299	H	1.532494	0.848542	0.852245
H300	H	1.865827	1.181876	1.185579
H301	H	0.960354	0.259207	0.344682
H302	H	1.293688	0.592540	0.678015
H303	H	1.627021	0.925873	1.011348
H304	H	1.199272	0.230433	1.207749
H305	H	1.532605	0.563767	1.541082
H306	H	1.865939	0.897100	1.874415
H307	H	1.046039	0.096310	0.508095
H308	H	1.379372	0.429643	0.841428
H309	H	1.712705	0.762977	1.174762
Br310	Br	1.495654	0.699058	0.470498
Br311	Br	1.828987	1.032391	0.803831
Br312	Br	2.162320	1.365725	1.137164
Br313	Br	0.986261	0.009187	0.595541
Br314	Br	1.319595	0.342520	0.928874
Br315	Br	1.652928	0.675854	1.262207
