data_functionalizedCrystal
_audit_creation_method	'MofGen! by Chris Wilmer'
_symmetry_space_group_name_H-M	'P1'
_symmetry_Int_Tables_number	1
_symmetry_cell_setting	triclinic
loop_
_symmetry_equiv_pos_as_xyz
  x,y,z
_cell_length_a	18.426585
_cell_length_b	14.560438
_cell_length_c	14.560438
_cell_angle_alpha	60.000069
_cell_angle_beta	90.001634
_cell_angle_gamma	59.999574
loop_
_atom_site_label
_atom_site_type_symbol
_atom_site_fract_x
_atom_site_fract_y
_atom_site_fract_z
Zr1	Zr	0.699142	1.005239	-0.120457
O2	O	0.583261	1.196849	-0.267110
O3	O	0.734665	0.813636	-0.075502
O4	O	0.734665	1.005240	-0.267103
O5	O	0.583261	1.005242	0.075631
O6	O	0.854096	1.005234	-0.267094
O7	O	0.583261	1.005245	-0.075509
O8	O	0.854096	0.662489	0.075645
O9	O	0.583261	1.347987	-0.267107
O10	O	0.838946	0.892438	-0.056320
O11	O	0.749816	0.892441	0.056468
O12	O	0.749816	1.118030	-0.169117
O13	O	0.660686	1.118033	-0.056329
Zr14	Zr	0.889621	1.005225	0.120609
Zr15	Zr	0.889620	1.005229	-0.120443
Zr16	Zr	0.699142	1.005235	0.120596
Zr17	Zr	0.699142	1.246287	-0.120452
Zr18	Zr	0.889620	0.764177	0.120605
O19	O	0.854097	1.196828	0.075655
O20	O	0.854097	1.196834	-0.267091
O21	O	0.583261	1.196843	0.075635
O22	O	1.005502	0.813615	0.267263
O23	O	1.005501	0.813622	-0.075482
O24	O	0.734666	0.813630	0.267243
O25	O	1.005502	1.005222	-0.075479
O26	O	0.854097	1.005224	0.267255
O27	O	0.734666	1.005231	0.267247
O28	O	1.005502	1.005220	0.075662
O29	O	0.734666	1.347979	-0.267096
O30	O	0.854096	0.662486	0.267249
O31	O	1.005501	0.662478	0.267260
O32	O	1.005501	0.662481	0.075656
O33	O	0.583261	1.347984	-0.075503
O34	O	0.734666	1.347975	-0.075492
O35	O	0.838946	0.892434	0.169270
O36	O	0.928076	0.892431	0.056481
O37	O	0.838946	1.118023	-0.056316
O38	O	0.749816	1.118026	0.056473
C39	C	0.794381	0.703718	0.000071
C40	C	0.794381	0.601387	0.000069
C41	C	0.556121	1.005245	0.000059
C42	C	0.475258	1.005249	0.000053
C43	C	0.840904	0.553310	-0.058806
C44	C	0.840907	0.457151	-0.058795
C45	C	0.747857	0.457159	0.058966
C46	C	0.747860	0.553310	0.058961
C47	C	0.409588	1.005254	0.000053
C48	C	0.327206	1.005249	0.000064
C49	C	0.261548	1.005235	0.000077
C50	C	0.179162	1.005229	0.000086
C51	C	1.032641	1.005219	0.000094
C52	C	1.113504	1.005215	0.000099
C53	C	0.794381	1.005238	-0.301443
C54	C	0.794381	1.005239	-0.403776
C55	C	0.794382	1.306746	0.000082
C56	C	0.794382	1.409077	0.000084
C57	C	0.860176	1.005237	-0.451847
C58	C	0.860179	1.005225	-0.547993
C59	C	0.728583	1.005224	-0.547991
C60	C	0.728585	1.005226	-0.451842
C61	C	0.794381	1.005227	0.301596
C62	C	0.794382	1.005225	0.403929
C63	C	1.032640	0.703706	0.000088
C64	C	1.113503	0.601370	0.000092
C65	C	0.794381	0.703713	0.301590
C66	C	0.794381	0.601380	0.403921
C67	C	1.032641	0.703700	0.301607
C68	C	1.113504	0.601363	0.403944
C69	C	0.556122	1.306764	-0.301455
C70	C	0.475259	1.409101	-0.403792
C71	C	0.556122	1.306759	0.000065
C72	C	0.475259	1.409094	0.000061
C73	C	0.794381	1.306751	-0.301438
C74	C	0.794381	1.409084	-0.403769
C75	C	1.104952	0.553316	-0.058798
C76	C	1.180925	0.457174	-0.058816
C77	C	1.265447	0.409082	0.000061
C78	C	1.273996	0.457146	0.058952
C79	C	1.198025	0.553292	0.058964
C80	C	1.198011	0.553303	0.393129
C81	C	1.273998	0.457160	0.489276
C82	C	1.265475	0.409072	0.596238
C83	C	1.180959	0.457141	0.607051
C84	C	1.104975	0.553289	0.510905
C85	C	0.390751	1.457173	-0.392976
C86	C	0.314765	1.553346	-0.489123
C87	C	0.323287	1.601439	-0.596085
C88	C	0.407803	1.553363	-0.606899
C89	C	0.483788	1.457199	-0.510753
C90	C	0.483810	1.457158	0.058940
C91	C	0.407838	1.553327	0.058932
C92	C	0.323316	1.601422	0.000051
C93	C	0.314767	1.553354	-0.058835
C94	C	0.390738	1.457194	-0.058833
C95	C	0.840905	0.553299	0.510878
C96	C	0.840895	0.457155	0.607025
C97	C	0.747835	0.457179	0.489245
C98	C	0.747841	0.553328	0.393101
H99	H	0.878785	0.592451	-0.106758
H100	H	0.709951	0.592480	0.306006
Br101	Br	0.904048	0.391907	-0.138701
H102	H	1.036168	0.592408	0.519727
H103	H	0.383796	1.418021	-0.305891
Br104	Br	1.368543	0.278596	0.000034
Br105	Br	0.990253	0.618566	-0.138716
Br106	Br	1.169301	0.391963	-0.138743
H107	H	1.204999	0.592406	0.106925
Br108	Br	0.684733	0.391895	0.138897
H109	H	1.174034	0.417974	0.694153
H110	H	0.675012	1.005215	-0.587138
H111	H	1.342824	0.417975	0.106888
Br112	Br	0.419354	1.618644	-0.752071
H113	H	0.878798	0.592425	0.519695
Br114	Br	0.598473	1.391964	-0.525452
H115	H	0.552625	1.418006	0.106896
Br116	Br	0.200076	1.618569	-0.474421
Br117	Br	0.684727	0.618551	0.138881
Br118	Br	0.639291	1.005214	-0.386588
Br119	Br	0.419461	1.618538	0.138859
Br120	Br	0.220220	1.731927	0.000061
Br121	Br	0.949472	1.005251	-0.386616
Br122	Br	1.209601	0.618551	0.247978
H123	H	1.342807	0.418031	0.480451
H124	H	0.261408	1.679742	-0.674364
H125	H	1.327354	0.330782	0.674517
H126	H	0.913756	1.005221	-0.587129
H127	H	0.245938	1.592528	-0.106775
H128	H	0.383763	1.418063	-0.106777
H129	H	0.709945	0.418042	0.480449
Br130	Br	0.904032	0.391912	0.752180
