data_functionalizedCrystal
_audit_creation_method	'MofGen! by Chris Wilmer'
_symmetry_space_group_name_H-M	'P1'
_symmetry_Int_Tables_number	1
_symmetry_cell_setting	triclinic
loop_
_symmetry_equiv_pos_as_xyz
  x,y,z
_cell_length_a	9.565339
_cell_length_b	14.044220
_cell_length_c	14.044220
_cell_angle_alpha	93.188878
_cell_angle_beta	89.999264
_cell_angle_gamma	90.001002
loop_
_atom_site_label
_atom_site_type_symbol
_atom_site_fract_x
_atom_site_fract_y
_atom_site_fract_z
O1	O	0.116117	-1.277167	-0.230161
O2	O	0.116152	-1.000495	-0.221855
O3	O	0.116121	-1.134678	-0.087672
O4	O	0.116148	-1.142984	-0.364344
O5	O	-0.116399	-1.134667	-0.087680
O6	O	-0.116368	-1.000485	-0.221863
O7	O	-0.116403	-1.277156	-0.230169
Zn8	Zn	-0.153303	-1.138819	-0.226017
Zn9	Zn	0.153052	-1.138833	-0.226007
O10	O	-0.116372	-1.142973	-0.364352
C11	C	-0.000104	-0.964868	-0.218223
C12	C	-0.000091	-0.858725	-0.207379
C13	C	-0.000139	-1.131037	-0.052054
C14	C	-0.000139	-1.120193	0.054088
N15	N	-0.362383	-1.138816	-0.226025
C16	C	-0.453571	-1.076738	-0.288056
C17	C	-0.546759	-1.164577	-0.313875
C18	C	-0.546750	-1.051015	-0.200215
C19	C	-0.453519	-1.226701	-0.251891
C20	C	-0.453501	-1.113080	-0.138189
C21	C	-0.546647	-1.200978	-0.163977
N22	N	0.362131	-1.138843	-0.225992
C23	C	-0.000145	-1.312783	-0.233800
C24	C	-0.000148	-1.418926	-0.244645
C25	C	-0.000120	-0.664388	-0.187553
C26	C	-0.000119	-0.613258	-0.264467
C27	C	-0.000135	-0.505122	-0.253435
C28	C	-0.000104	-0.772534	-0.198583
C29	C	-0.000109	-1.146614	-0.399969
C30	C	-0.000100	-1.157459	-0.506112
C31	C	-0.000117	-1.100366	0.248426
C32	C	-0.000122	-1.177281	0.299556
C33	C	-0.000110	-1.166249	0.407692
C34	C	-0.000129	-1.111397	0.140280
H35	H	-0.412705	-1.024298	-0.340570
C36	C	-0.000127	-0.613811	-0.087408
N37	N	-0.000125	-0.575706	-0.011979
H38	H	-0.412738	-1.300987	-0.273794
C39	C	-0.602114	-1.194002	-0.414204
N40	N	-0.643807	-1.216158	-0.489773
H41	H	-0.000105	-0.650697	-0.338600
H42	H	-0.000038	-1.251414	0.262117
H43	H	-0.000104	-1.026239	0.285863
H44	H	-0.412506	-1.091269	-0.063942
C45	C	-0.602069	-0.950689	-0.170739
N46	N	-0.643730	-0.875121	-0.148544
C47	C	-0.601535	-1.271999	-0.093102
N48	N	-0.642885	-1.325495	-0.039725
