data_functionalizedCrystal
_audit_creation_method	'MofGen! by Chris Wilmer'
_symmetry_space_group_name_H-M	'P1'
_symmetry_Int_Tables_number	1
_symmetry_cell_setting	triclinic
loop_
_symmetry_equiv_pos_as_xyz
  x,y,z
_cell_length_a	15.698487
_cell_length_b	14.809374
_cell_length_c	14.809384
_cell_angle_alpha	119.201816
_cell_angle_beta	90.000079
_cell_angle_gamma	67.426642
loop_
_atom_site_label
_atom_site_type_symbol
_atom_site_fract_x
_atom_site_fract_y
_atom_site_fract_z
Zr1	Zr	0.940905	0.955221	0.203689
O2	O	0.836557	1.113138	0.350845
O3	O	0.958121	0.777455	0.145612
O4	O	0.992965	0.926602	0.332152
O5	O	0.791032	0.993487	0.031908
O6	O	1.133146	0.926605	0.332154
O7	O	0.801713	0.963991	0.164306
O8	O	1.070817	0.659808	-0.001531
O9	O	0.853362	1.260285	0.365594
O10	O	1.087927	0.857926	0.136509
O11	O	0.975340	0.879936	0.037700
O12	O	1.016364	1.055538	0.257327
O13	O	0.903777	1.077548	0.158518
Zr14	Zr	1.147444	1.002269	-0.007467
Zr15	Zr	1.164479	0.955226	0.203692
Zr16	Zr	0.923870	1.002264	-0.007471
Zr17	Zr	0.967707	1.189902	0.227210
Zr18	Zr	1.120642	0.767587	-0.030988
O19	O	1.130228	1.180035	0.050610
O20	O	1.154450	1.113145	0.350851
O21	O	0.812335	1.180028	0.050604
O22	O	1.251792	0.844351	-0.154624
O23	O	1.276013	0.777462	0.145618
O24	O	0.933899	0.844344	-0.154629
O25	O	1.297317	0.964002	0.164314
O26	O	1.095384	1.030887	-0.135930
O27	O	0.955203	1.030884	-0.135932
O28	O	1.286636	0.993498	0.031916
O29	O	1.031073	1.260288	0.365597
O30	O	1.057276	0.697201	-0.169375
O31	O	1.234987	0.697205	-0.169372
O32	O	1.248528	0.659812	-0.001528
O33	O	0.839821	1.297678	0.197750
O34	O	1.017532	1.297681	0.197753
O35	O	1.071985	0.901951	-0.061105
O36	O	1.184572	0.879941	0.037704
O37	O	1.113009	1.077553	0.158522
O38	O	1.000422	1.099563	0.059713
C39	C	1.010650	0.685194	0.068689
C40	C	0.999272	0.585566	0.058704
C41	C	1.050050	0.530230	0.103268
C42	C	1.038292	0.427258	0.092948
C43	C	0.764518	0.978739	0.098106
C44	C	0.669605	0.978736	0.098105
C45	C	0.495823	0.978756	0.098116
C46	C	0.592526	0.978750	0.098112
C47	C	1.323831	0.978751	0.098116
C48	C	1.418744	0.978753	0.098117
C49	C	1.065483	0.919901	0.362239
C50	C	1.072714	0.899930	0.451882
C51	C	1.077699	1.272295	0.127533
C52	C	1.089077	1.371923	0.137518
C53	C	1.040439	0.989055	0.551781
C54	C	1.047912	0.968416	0.644433
C55	C	1.022866	1.037587	0.833982
C56	C	1.015632	1.057554	0.744337
C57	C	1.290306	0.685200	0.068694
C58	C	1.373841	0.585574	0.058710
C59	C	0.989342	0.744038	-0.195439
C60	C	0.970732	0.664381	-0.295067
C61	C	1.268998	0.744044	-0.195434
C62	C	1.345301	0.664389	-0.295060
C63	C	0.819351	1.213445	0.391656
C64	C	0.743048	1.293100	0.491282
C65	C	0.798042	1.272289	0.127528
C66	C	0.714508	1.371915	0.137512
C67	C	1.099007	1.213451	0.391661
C68	C	1.117617	1.293109	0.491289
C69	C	1.362623	0.527295	0.105606
C70	C	1.441108	0.433694	0.096246
C71	C	1.530808	0.398369	0.039983
C72	C	1.542025	0.456658	-0.006913
C73	C	1.463543	0.550262	0.002454
C74	C	1.012439	0.638466	-0.393437
C75	C	0.994951	0.563635	-0.487055
C76	C	0.935759	0.514712	-0.482301
C77	C	0.894047	0.540634	-0.383920
C78	C	0.911531	0.615470	-0.290303
C79	C	1.439913	0.615493	-0.290269
C80	C	1.511618	0.540660	-0.383869
C81	C	1.488710	0.514717	-0.482261
C82	C	1.394089	0.563622	-0.487049
C83	C	1.322386	0.638461	-0.393449
C84	C	0.648437	1.342008	0.486492
C85	C	0.576735	1.416870	0.580095
C86	C	0.599644	1.442817	0.678487
C87	C	0.694264	1.393906	0.683275
C88	C	0.765965	1.319052	0.589674
C89	C	0.725727	1.430202	0.090626
C90	C	0.647248	1.523824	0.100012
C91	C	0.557548	1.559151	0.156277
C92	C	0.546330	1.500859	0.203169
C93	C	0.624810	1.407244	0.193789
C94	C	1.176813	1.342008	0.486500
C95	C	1.194317	1.416844	0.580102
C96	C	1.152619	1.442785	0.678492
C97	C	1.093420	1.393877	0.683278
C98	C	1.075922	1.319036	0.589677
H99	H	0.947096	0.556706	0.012908
H100	H	0.473286	1.529638	0.248981
Cl101	Cl	0.610687	1.333972	0.252731
H102	H	1.027716	1.279229	0.593591
H103	H	1.375450	0.542489	-0.567172
Cl104	Cl	0.723048	1.426532	0.806976
Cl105	Cl	0.884902	1.257567	0.595714
Cl106	Cl	1.203446	0.699915	-0.399492
Cl107	Cl	1.229247	1.309413	0.362821
H108	H	1.242519	1.456660	0.576185
H109	H	1.060637	0.678293	-0.397329
H110	H	1.102233	0.559081	0.149056
H111	H	1.007278	1.080638	0.568716
Cl112	Cl	1.630560	0.479188	-0.377825
Cl113	Cl	0.859095	0.648030	-0.166643
Cl114	Cl	1.426984	0.360431	0.155203
Cl115	Cl	0.957731	0.382712	0.022235
Cl116	Cl	0.913791	0.420631	-0.600002
Cl117	Cl	1.578862	0.420629	-0.599921
H118	H	1.141263	0.400772	0.183310
Cl119	Cl	1.654797	0.412230	-0.077645
Cl120	Cl	1.099128	0.827007	0.618268
H121	H	0.656399	1.571272	0.061821
H122	H	0.982467	1.149144	0.761281
H123	H	1.105883	0.808347	0.434947
Cl124	Cl	1.249867	0.571686	0.176347
H125	H	1.594706	0.322148	0.032363
H126	H	0.629765	1.320886	0.406385
H127	H	0.493652	1.635380	0.163907
Cl128	Cl	1.174623	1.536879	0.796155
Cl129	Cl	1.040996	1.426512	0.806979
H130	H	0.499697	1.456682	0.576176
Cl131	Cl	1.477660	0.623510	-0.056517
Cl132	Cl	1.047402	0.531060	-0.610721
H133	H	0.798758	1.401448	0.044803
H134	H	0.541252	1.503770	0.754695
H135	H	0.845852	0.500790	-0.380065
H136	H	1.458583	0.636602	-0.210163
