data_functionalizedCrystal
_audit_creation_method	'MofGen! by Chris Wilmer'
_symmetry_space_group_name_H-M	'P1'
_symmetry_Int_Tables_number	1
_symmetry_cell_setting	triclinic
loop_
_symmetry_equiv_pos_as_xyz
  x,y,z
_cell_length_a	10.967926
_cell_length_b	9.065218
_cell_length_c	7.540329
_cell_angle_alpha	90.001757
_cell_angle_beta	102.126281
_cell_angle_gamma	95.140411
loop_
_atom_site_label
_atom_site_type_symbol
_atom_site_fract_x
_atom_site_fract_y
_atom_site_fract_z
O1	O	1.658000	-0.206929	0.359260
O2	O	1.294934	-0.226740	0.248293
O3	O	1.483972	-0.002149	0.306074
O4	O	1.468963	-0.431519	0.301479
O5	O	1.483960	-0.002146	0.601035
O6	O	1.294923	-0.226737	0.543255
O7	O	1.657989	-0.206926	0.654221
Cu8	Cu	1.476455	-0.216831	0.625670
Cu9	Cu	1.476468	-0.216835	0.276844
O10	O	1.468951	-0.431517	0.596441
C11	C	1.248424	-0.225297	0.381560
C12	C	1.109854	-0.220985	0.339208
C13	C	1.048069	-0.219061	0.473125
C14	C	0.904850	-0.214605	0.429355
C15	C	1.482523	0.052831	0.453111
C16	C	1.478210	0.216649	0.451784
C17	C	1.704499	-0.208369	0.520950
C18	C	1.843069	-0.212681	0.563291
C19	C	1.470399	-0.486496	0.449400
C20	C	1.474712	-0.650315	0.450715
N21	N	1.476454	-0.216828	0.871019
N22	N	1.476478	-0.216826	0.031499
H23	H	1.056722	-0.219329	0.192153
H24	H	0.896196	-0.214328	0.710357
H25	H	1.101203	-0.220705	0.620180
H26	H	0.851723	-0.212949	0.282290
