data_functionalizedCrystal
_audit_creation_method	'MofGen! by Chris Wilmer'
_symmetry_space_group_name_H-M	'P1'
_symmetry_Int_Tables_number	1
_symmetry_cell_setting	triclinic
loop_
_symmetry_equiv_pos_as_xyz
  x,y,z
_cell_length_a	16.625546
_cell_length_b	12.759401
_cell_length_c	12.759393
_cell_angle_alpha	89.980193
_cell_angle_beta	90.035077
_cell_angle_gamma	89.981453
loop_
_atom_site_label
_atom_site_type_symbol
_atom_site_fract_x
_atom_site_fract_y
_atom_site_fract_z
Zn1	Zn	-0.321047	-1.606197	0.593990
Zn2	Zn	0.178953	-1.106197	1.093990
Zn3	Zn	-0.455901	-1.606068	0.418296
Zn4	Zn	0.044099	-1.106068	0.918296
Zn5	Zn	-0.321077	-1.430499	0.418325
Zn6	Zn	0.178923	-0.930499	0.918325
Zn7	Zn	-0.455832	-1.430463	0.593933
Zn8	Zn	0.044168	-0.930463	1.093933
O9	O	-0.388465	-1.518307	0.506136
O10	O	0.111535	-1.018307	1.006136
O11	O	-0.338952	-1.753200	0.570696
O12	O	0.161048	-1.253200	1.070696
O13	O	-0.438058	-1.582739	0.271279
O14	O	0.061942	-1.082739	0.771279
O15	O	-0.208241	-1.453875	0.441663
O16	O	0.291759	-0.953875	0.941663
O17	O	-0.438029	-1.753106	0.441614
O18	O	0.061971	-1.253106	0.941614
O19	O	-0.208219	-1.582959	0.570724
O20	O	0.291781	-1.082959	1.070724
O21	O	-0.339003	-1.453750	0.271300
O22	O	0.160997	-0.953750	0.771300
O23	O	-0.338937	-1.283473	0.441608
O24	O	0.161063	-0.783473	0.941608
O25	O	-0.437911	-1.453814	0.740961
O26	O	0.062089	-0.953814	1.240961
O27	O	-0.437941	-1.283447	0.570626
O28	O	0.062059	-0.783447	1.070626
O29	O	-0.338885	-1.582924	0.741003
O30	O	0.161115	-1.082924	1.241003
O31	O	-0.568725	-1.582704	0.441558
O32	O	-0.068725	-1.082704	0.941558
O33	O	-0.568674	-1.453689	0.570598
O34	O	-0.068674	-0.953689	1.070598
C35	C	-0.388435	-1.245339	0.506114
C36	C	0.111565	-0.745339	1.006114
C37	C	-0.388442	-1.128563	0.506130
C38	C	0.111558	-0.628563	1.006130
C39	C	-0.336947	-1.073743	0.573446
C40	C	0.163053	-0.573743	1.073446
C41	C	-0.336959	-0.964019	0.573449
C42	C	0.163041	-0.464019	1.073449
C43	C	-0.439965	-0.963944	0.438819
C44	C	0.060035	-0.463944	0.938819
C45	C	-0.439949	-1.073666	0.438811
C46	C	0.060051	-0.573666	0.938811
C47	C	-0.285440	-1.128640	0.640765
C48	C	0.214560	-0.628640	1.140765
C49	C	-0.233942	-1.073820	0.708087
C50	C	0.266058	-0.573820	1.208087
C51	C	-0.233953	-0.964096	0.708091
C52	C	0.266047	-0.464096	1.208091
C53	C	-0.285462	-0.909192	0.640772
C54	C	0.214538	-0.409192	1.140772
C55	C	-0.597956	-1.518207	0.506092
C56	C	-0.097956	-1.018207	1.006092
C57	C	-0.687577	-1.518261	0.506108
C58	C	-0.187577	-1.018261	1.006108
C59	C	-1.015752	-1.518444	0.506218
C60	C	-0.515752	-1.018444	1.006218
C61	C	-0.924444	-1.518390	0.506190
C62	C	-0.424444	-1.018390	1.006190
C63	C	-0.851667	-1.518352	0.506162
C64	C	-0.351667	-1.018352	1.006162
C65	C	-0.760353	-1.518299	0.506136
C66	C	-0.260353	-1.018299	1.006136
C67	C	-0.178156	-1.518435	0.506203
C68	C	0.321844	-1.018435	1.006203
C69	C	-0.088535	-1.518490	0.506232
C70	C	0.411465	-1.018490	1.006232
C71	C	-0.388387	-1.518379	0.780169
C72	C	0.111613	-1.018379	1.280169
C73	C	-0.388354	-1.518410	0.896946
C74	C	0.111646	-1.018410	1.396946
C75	C	-0.388485	-0.792340	0.506152
C76	C	0.111515	-0.292340	1.006152
C77	C	-0.388468	-0.909117	0.506142
C78	C	0.111532	-0.409117	1.006142
C79	C	-0.388483	-1.518295	0.233168
C80	C	0.111517	-1.018295	0.733168
C81	C	-0.388289	-1.518467	0.116392
C82	C	0.111711	-1.018467	0.616392
C83	C	-0.439913	-1.585578	0.951794
C84	C	0.060087	-1.085578	1.451794
C85	C	-0.439878	-1.585610	1.061519
C86	C	0.060122	-1.085610	1.561519
C87	C	-0.336725	-1.451296	1.061536
C88	C	0.163275	-0.951296	1.561536
C89	C	-0.336756	-1.451271	0.951814
C90	C	0.163244	-0.951271	1.451814
C91	C	-0.491511	-1.652718	0.896926
C92	C	0.008489	-1.152718	1.396926
C93	C	-0.543074	-1.719890	0.951775
C94	C	-0.043074	-1.219890	1.451775
C95	C	-0.543039	-1.719922	1.061499
C96	C	-0.043039	-1.219922	1.561499
C97	C	-0.491442	-1.652781	1.116375
C98	C	0.008558	-1.152781	1.616375
H99	H	-0.481880	-1.118301	0.383997
H100	H	0.018120	-0.618301	0.883997
Cl101	Cl	-0.607855	-1.804372	1.130449
Cl102	Cl	-0.107855	-1.304372	1.630449
H103	H	-0.491547	-1.652696	0.807583
H104	H	0.008453	-1.152696	1.307583
Cl105	Cl	-0.169209	-0.895182	0.792714
Cl106	Cl	0.330791	-0.395182	1.292714
H107	H	-0.585078	-1.774560	0.907088
H108	H	-0.085078	-1.274560	1.407088
H109	H	-0.285450	-0.819847	0.640759
H110	H	0.214550	-0.319847	1.140759
Cl111	Cl	-0.491393	-1.652834	1.254315
Cl112	Cl	0.008607	-1.152834	1.754315
Cl113	Cl	-0.271868	-1.366893	1.130524
Cl114	Cl	0.228132	-0.866893	1.630524
H115	H	-0.481902	-0.919232	0.384014
H116	H	0.018098	-0.419232	0.884014
Cl117	Cl	-0.285426	-1.266578	0.640769
Cl118	Cl	0.214574	-0.766578	1.140769
Cl119	Cl	-0.169186	-1.142840	0.792701
Cl120	Cl	0.330814	-0.642840	1.292701
Cl121	Cl	-0.271937	-1.366832	0.882857
Cl122	Cl	0.228063	-0.866832	1.382857
