data_functionalizedCrystal
_audit_creation_method	'MofGen! by Chris Wilmer'
_symmetry_space_group_name_H-M	'P1'
_symmetry_Int_Tables_number	1
_symmetry_cell_setting	triclinic
loop_
_symmetry_equiv_pos_as_xyz
  x,y,z
_cell_length_a	10.489741
_cell_length_b	14.853567
_cell_length_c	13.930277
_cell_angle_alpha	90.000757
_cell_angle_beta	90.004523
_cell_angle_gamma	84.087052
loop_
_atom_site_label
_atom_site_type_symbol
_atom_site_fract_x
_atom_site_fract_y
_atom_site_fract_z
O1	O	-1.692631	-0.127194	-0.079763
O2	O	-1.321301	-0.139134	-0.079777
O3	O	-1.516885	-0.001990	-0.079772
O4	O	-1.497047	-0.264338	-0.079767
O5	O	-1.516858	-0.001987	0.079890
O6	O	-1.321274	-0.139131	0.079885
O7	O	-1.692604	-0.127191	0.079899
Zn8	Zn	-1.506935	-0.133160	0.105242
Zn9	Zn	-1.506971	-0.133165	-0.105119
O10	O	-1.497020	-0.264335	0.079895
C11	C	-1.515973	0.031605	0.000056
C12	C	-1.513279	0.131704	0.000047
C13	C	-1.273766	-0.138230	0.000052
C14	C	-1.132167	-0.135533	0.000047
C15	C	-1.740139	-0.128095	0.000068
C16	C	-1.881738	-0.130793	0.000068
C17	C	-1.065006	-0.048272	0.000054
C18	C	-0.972430	-0.089495	-0.078665
C19	C	-0.972437	-0.089512	0.078749
C20	C	-1.041456	-0.176791	-0.078737
C21	C	-1.041473	-0.176797	0.078747
C22	C	-0.948923	-0.218083	0.000009
C23	C	-1.497933	-0.297930	0.000065
C24	C	-1.500626	-0.398029	0.000067
N25	N	-1.506920	-0.133157	0.248808
C26	C	-1.385712	0.544953	0.000061
C27	C	-1.618070	0.564931	0.000070
C28	C	-1.620602	0.470883	0.000064
C29	C	-1.505688	0.413866	0.000058
C30	C	-1.388241	0.450896	0.000058
C31	C	-1.738047	0.433846	0.000074
C32	C	-1.740585	0.339793	0.000070
C33	C	-1.625669	0.282773	0.000057
C34	C	-1.508217	0.319809	0.000056
C35	C	-1.393303	0.262791	0.000050
C36	C	-1.275850	0.299825	0.000042
C37	C	-1.273325	0.393877	0.000046
C38	C	-1.628193	0.188722	0.000053
C39	C	-1.395832	0.168735	0.000047
N40	N	-1.506996	-0.133161	-0.248685
C41	C	-1.420363	-0.193868	0.701075
C42	C	-1.593614	-0.072455	0.701049
C43	C	-1.593598	-0.072452	0.600553
C44	C	-1.506965	-0.133159	0.550314
C45	C	-1.420348	-0.193869	0.600570
C46	C	-1.680223	-0.011749	0.550289
C47	C	-1.680213	-0.011744	0.449787
C48	C	-1.593572	-0.072448	0.399546
C49	C	-1.506950	-0.133159	0.449809
C50	C	-1.420317	-0.193866	0.399570
C51	C	-1.333688	-0.254574	0.449830
C52	C	-1.333707	-0.254572	0.550329
C53	C	-1.593553	-0.072450	0.299047
C54	C	-1.420302	-0.193867	0.299064
H55	H	-1.115501	0.023462	-0.000046
H56	H	-1.711628	0.611360	0.000082
H57	H	-1.071881	-0.213685	-0.145363
C58	C	-1.325082	-0.260644	0.756356
H59	H	-1.337497	-0.251956	0.823406
H60	H	-1.239941	-0.250268	0.739894
H61	H	-1.339045	-0.320913	0.739882
H62	H	-1.836222	0.309648	0.000075
H63	H	-1.072093	-0.213687	0.145304
C64	C	-1.775488	0.055038	0.394509
H65	H	-1.827077	0.091196	0.438824
H66	H	-1.828630	0.022246	0.355289
H67	H	-1.729522	0.092888	0.355319
C68	C	-1.269423	0.106022	0.000042
H69	H	-1.199118	0.141551	0.000044
H70	H	-1.265590	0.068914	-0.055634
H71	H	-1.265570	0.068921	0.055729
C72	C	-1.144139	0.434612	0.000038
H73	H	-1.076060	0.387187	0.000023
H74	H	-1.138311	0.470885	0.055716
H75	H	-1.138341	0.470887	-0.055646
C76	C	-1.864440	0.496563	0.000087
H77	H	-1.846110	0.557880	0.000078
H78	H	-1.912577	0.485256	0.055769
H79	H	-1.912605	0.485257	-0.055593
H80	H	-0.898693	-0.289892	-0.000032
H81	H	-1.723822	0.158573	0.000066
C82	C	-1.775512	0.055020	0.605551
H83	H	-1.763102	0.046332	0.672603
H84	H	-1.860649	0.044640	0.589074
H85	H	-1.761552	0.115290	0.589083
C86	C	-1.325006	-0.260648	0.243809
H87	H	-1.273427	-0.296804	0.288138
H88	H	-1.271855	-0.227853	0.204607
H89	H	-1.370955	-0.298501	0.204603
C90	C	-1.688831	-0.005684	0.243760
H91	H	-1.676419	-0.014380	0.176711
H92	H	-1.674891	0.054584	0.260235
H93	H	-1.773975	-0.016075	0.260216
H94	H	-0.941842	-0.052574	-0.145219
C95	C	-1.238399	-0.321353	0.394565
H96	H	-1.186813	-0.357513	0.438887
H97	H	-1.185254	-0.288555	0.355361
H98	H	-1.284355	-0.359202	0.355361
C99	C	-1.238438	-0.321351	0.605617
H100	H	-1.250868	-0.312662	0.672665
H101	H	-1.153292	-0.310978	0.589166
H102	H	-1.252402	-0.381618	0.589141
C103	C	-0.931136	-0.039618	0.168656
H104	H	-0.971299	0.020706	0.168549
H105	H	-0.840716	-0.038737	0.168327
H106	H	-0.955943	-0.070032	0.224559
H107	H	-1.182287	0.253390	0.000044
H108	H	-1.290084	0.575111	0.000051
C109	C	-1.688902	-0.005683	0.756309
H110	H	-1.676501	-0.014375	0.823361
H111	H	-1.774039	-0.016057	0.739825
H112	H	-1.674933	0.054586	0.739845
