data_functionalizedCrystal
_audit_creation_method	'MofGen! by Chris Wilmer'
_symmetry_space_group_name_H-M	'P1'
_symmetry_Int_Tables_number	1
_symmetry_cell_setting	triclinic
loop_
_symmetry_equiv_pos_as_xyz
  x,y,z
_cell_length_a	10.723024
_cell_length_b	26.210047
_cell_length_c	10.723024
_cell_angle_alpha	89.994275
_cell_angle_beta	84.467869
_cell_angle_gamma	90.008813
loop_
_atom_site_label
_atom_site_type_symbol
_atom_site_fract_x
_atom_site_fract_y
_atom_site_fract_z
O1	O	1.657199	0.042424	0.175009
O2	O	1.294046	0.042426	0.191763
O3	O	1.483999	0.042423	0.001810
O4	O	1.467246	0.042427	0.364962
O5	O	1.483962	-0.042435	0.001839
O6	O	1.294009	-0.042432	0.191792
O7	O	1.657162	-0.042434	0.175039
Cu8	Cu	1.475582	-0.050181	0.183418
Cu9	Cu	1.475626	0.050173	0.183383
O10	O	1.467209	-0.042431	0.364992
C11	C	1.247528	-0.000003	0.190558
C12	C	1.108974	-0.000002	0.186911
N13	N	1.475561	-0.120765	0.183442
C14	C	1.033991	-0.000001	0.293198
C15	C	0.890788	-0.000000	0.289431
C16	C	1.559728	-0.473280	0.099291
C17	C	1.559756	-0.686939	0.099274
O18	O	1.631270	-0.714562	0.027731
N19	N	1.475632	-0.713659	0.183356
C20	C	1.391490	-0.686961	0.267443
O21	O	1.319930	-0.714591	0.338950
C22	C	1.391458	-0.473304	0.267453
C23	C	1.475595	-0.446586	0.183374
C24	C	1.643858	-0.446563	0.015219
C25	C	1.643855	-0.393152	0.015228
C26	C	1.559722	-0.366457	0.099311
C27	C	1.475592	-0.393175	0.183384
C28	C	1.307311	-0.446607	0.351532
C29	C	1.307308	-0.393189	0.351525
C30	C	1.391446	-0.366472	0.267446
C31	C	1.391456	-0.313069	0.267476
N32	N	1.475580	-0.286349	0.183394
C33	C	1.559713	-0.313043	0.099312
C34	C	1.391515	-0.799134	0.267433
C35	C	1.391524	-0.852549	0.267432
C36	C	1.559788	-0.852523	0.099262
C37	C	1.559784	-0.799108	0.099270
C38	C	1.475638	-0.772414	0.183351
C39	C	1.559701	-0.200875	0.099339
C40	C	1.559694	-0.147459	0.099360
C41	C	1.391426	-0.147490	0.267525
C42	C	1.391437	-0.200901	0.267509
C43	C	1.475579	-0.227593	0.183406
O44	O	1.319970	-0.285413	0.338972
O45	O	1.631244	-0.285405	0.027796
C46	C	1.559731	-0.526692	0.099282
C47	C	1.475602	-0.553409	0.183354
C48	C	1.391469	-0.526715	0.267437
C49	C	1.475611	-0.606823	0.183354
C50	C	1.559744	-0.633517	0.099271
C51	C	1.643867	-0.606797	0.015189
C52	C	1.643864	-0.553386	0.015199
C53	C	1.307345	-0.553435	0.351519
C54	C	1.307356	-0.606847	0.351503
C55	C	1.391489	-0.633541	0.267421
C56	C	1.703680	-0.000004	0.176243
C57	C	1.842234	-0.000001	0.179891
C58	C	1.482762	-0.000005	-0.044675
C59	C	1.479114	-0.000003	-0.183229
N60	N	1.475657	0.120757	0.183350
C61	C	1.585401	-0.000003	-0.258212
C62	C	1.581634	-0.000001	-0.401415
C63	C	1.468447	-0.000001	0.411477
C64	C	1.472094	0.000000	0.550031
H65	H	1.075814	-0.000003	0.386984
H66	H	1.385328	0.000000	-0.225051
H67	H	0.826355	0.000003	0.380421
H68	H	1.067152	0.000010	0.093125
H69	H	0.906659	0.000001	0.088896
N70	N	1.703051	0.000002	-0.205740
N71	N	1.705945	0.000003	-0.089485
H72	H	1.789038	0.000007	-0.052427
H73	H	1.323025	-0.874298	0.335910
H74	H	1.712364	-0.371401	-0.053239
N75	N	1.695800	0.000004	-0.482217
N76	N	1.798781	0.000005	-0.436631
H77	H	1.879416	0.000009	-0.493698
H78	H	1.712377	-0.628540	-0.053270
N79	N	1.645638	-0.120177	0.013451
N80	N	1.720736	-0.144021	-0.061628
H81	H	1.781426	-0.124755	-0.122308
N82	N	1.645652	-0.228127	0.013419
N83	N	1.720755	-0.204257	-0.061634
H84	H	1.781463	-0.223503	-0.122313
N85	N	1.357948	0.000005	-0.369137
N86	N	1.334639	0.035774	-0.293377
H87	H	1.254024	0.035779	-0.236279
N88	N	1.729808	-0.473817	-0.070691
N89	N	1.804907	-0.449946	-0.145745
H90	H	1.865621	-0.469190	-0.206421
H91	H	1.628295	-0.777357	0.030805
H92	H	1.628295	-0.874266	0.030800
N93	N	1.305544	-0.771880	0.353332
N94	N	1.230447	-0.795750	0.428391
H95	H	1.169731	-0.776504	0.489061
H96	H	1.238783	-0.371458	0.419993
N97	N	1.221365	-0.473881	0.437435
N98	N	1.146259	-0.450030	0.512492
H99	H	1.085554	-0.469291	0.573168
H100	H	1.322936	-0.222655	0.335986
N101	N	1.305504	-0.120209	0.353406
N102	N	1.305520	-0.072518	0.353388
H103	H	1.244832	-0.053249	0.414038
H104	H	1.712377	-0.531636	-0.053266
H105	H	1.238844	-0.628596	0.419981
N106	N	1.221387	-0.526180	0.437415
N107	N	1.146286	-0.550049	0.512472
H108	H	1.085575	-0.530803	0.573145
