data_functionalizedCrystal
_audit_creation_method	'MofGen! by Chris Wilmer'
_symmetry_space_group_name_H-M	'P1'
_symmetry_Int_Tables_number	1
_symmetry_cell_setting	triclinic
loop_
_symmetry_equiv_pos_as_xyz
  x,y,z
_cell_length_a	19.188905
_cell_length_b	19.188930
_cell_length_c	12.996460
_cell_angle_alpha	90.005414
_cell_angle_beta	90.013319
_cell_angle_gamma	83.139668
loop_
_atom_site_label
_atom_site_type_symbol
_atom_site_fract_x
_atom_site_fract_y
_atom_site_fract_z
O1	O	0.926158	0.087080	0.085748
O2	O	1.426158	0.587080	0.585748
O3	O	0.722844	0.098832	0.085714
O4	O	1.222844	0.598832	0.585714
O5	O	0.830369	-0.008700	0.085712
O6	O	1.330369	0.491300	0.585712
O7	O	0.818634	0.194612	0.085750
O8	O	1.318634	0.694612	0.585750
O9	O	0.830355	-0.008694	-0.085422
O10	O	1.330355	0.491306	0.414578
O11	O	0.722831	0.098838	-0.085420
O12	O	1.222831	0.598838	0.414580
O13	O	0.926144	0.087086	-0.085386
O14	O	1.426144	0.587086	0.414614
Cu15	Cu	0.824486	0.092963	-0.101029
Cu16	Cu	1.324486	0.592963	0.398971
Cu17	Cu	0.824503	0.092955	0.101357
Cu18	Cu	1.324503	0.592955	0.601357
O19	O	0.818620	0.194618	-0.085384
O20	O	1.318620	0.694618	0.414616
C21	C	0.696826	0.098458	0.000143
C22	C	1.196826	0.598458	0.500143
C23	C	0.619321	0.097324	0.000129
C24	C	1.119321	0.597324	0.500129
C25	C	0.582937	0.096776	0.093417
C26	C	1.082937	0.596776	0.593417
C27	C	0.510113	0.095703	0.093429
C28	C	1.010113	0.595703	0.593429
C29	C	0.473678	0.095164	0.000149
C30	C	0.973678	0.595164	0.500149
C31	C	0.510071	0.095716	-0.093151
C32	C	1.010071	0.595716	0.406849
C33	C	0.582892	0.096796	-0.093161
C34	C	1.082892	0.596796	0.406839
N35	N	0.364652	0.053738	-0.069278
N36	N	0.864652	0.553738	0.430722
N37	N	0.295475	0.052710	-0.069263
N38	N	0.795475	0.552710	0.430737
C39	C	0.254272	0.091911	0.000173
C40	C	0.754272	0.591911	0.500173
N41	N	0.284859	0.132170	0.069608
N42	N	0.784859	0.632170	0.569608
N43	N	0.354043	0.133194	0.069595
N44	N	0.854043	0.633194	0.569595
C45	C	0.394716	0.093993	0.000149
C46	C	0.894716	0.593993	0.500149
C47	C	0.138923	0.090201	0.093481
C48	C	0.638923	0.590201	0.593481
C49	C	0.066098	0.089132	0.093490
C50	C	0.566098	0.589132	0.593490
C51	C	0.066058	0.089138	-0.093093
C52	C	0.566058	0.589138	0.406907
C53	C	0.138881	0.090214	-0.093099
C54	C	0.638881	0.590214	0.406901
C55	C	0.175310	0.090742	0.000191
C56	C	0.675310	0.590742	0.500191
C57	C	0.829982	-0.034708	0.000142
C58	C	1.329982	0.465292	0.500142
C59	C	0.828841	-0.112213	0.000133
C60	C	1.328841	0.387787	0.500133
C61	C	0.891933	-0.157142	0.000138
C62	C	1.391933	0.342858	0.500138
C63	C	0.890861	-0.229966	0.000155
C64	C	1.390861	0.270034	0.500155
C65	C	0.826694	-0.257857	0.000145
C66	C	1.326694	0.242143	0.500145
C67	C	0.763594	-0.212917	0.000145
C68	C	1.263594	0.287083	0.500145
C69	C	0.764668	-0.140095	0.000139
C70	C	1.264668	0.359905	0.500139
N71	N	0.777641	-0.365855	-0.058103
N72	N	1.277641	0.134145	0.441897
N73	N	0.776626	-0.435034	-0.058100
N74	N	1.276626	0.064966	0.441900
C75	C	0.823456	-0.477265	0.000165
C76	C	1.323456	0.022735	0.500165
N77	N	0.871350	-0.447706	0.058414
N78	N	1.371350	0.052294	0.558414
N79	N	0.872368	-0.378521	0.058406
N80	N	1.372368	0.121479	0.558406
C81	C	0.825523	-0.336819	0.000152
C82	C	1.325523	0.163181	0.500152
C83	C	0.885390	-0.601159	0.000190
C84	C	1.385390	-0.101159	0.500190
C85	C	0.884315	-0.673984	0.000213
C86	C	1.384315	-0.173984	0.500213
C87	C	0.757047	-0.656933	0.000193
C88	C	1.257047	-0.156933	0.500193
C89	C	0.758123	-0.584110	0.000180
C90	C	1.258123	-0.084110	0.500180
C91	C	0.822296	-0.556228	0.000174
C92	C	1.322296	-0.056228	0.500174
C93	C	0.952163	0.087460	0.000188
C94	C	1.452163	0.587460	0.500188
C95	C	1.029668	0.088594	0.000208
C96	C	1.529668	0.588594	0.500208
C97	C	0.819007	0.220626	0.000189
C98	C	1.319007	0.720626	0.500189
C99	C	0.820148	0.298131	0.000204
C100	C	1.320148	0.798131	0.500204
N101	N	0.824480	0.092967	-0.243376
N102	N	1.324480	0.592967	0.256624
C103	C	0.824483	0.092969	-0.336482
C104	C	1.324483	0.592969	0.163518
C105	C	0.824489	0.092965	-0.453287
C106	C	1.324489	0.592965	0.046713
C107	C	0.824498	0.092957	-0.546385
C108	C	1.324498	0.592957	-0.046385
C109	C	0.824506	0.092953	-0.663198
C110	C	1.324506	0.592953	-0.163198
N111	N	0.824515	0.092945	0.243704
N112	N	1.324515	0.592945	0.743704
H113	H	0.168506	0.090655	-0.169065
H114	H	0.668506	0.590655	0.330935
H115	H	0.480483	0.095258	0.169398
H116	H	0.980483	0.595258	0.669398
F117	F	0.697514	-0.092276	0.000134
F118	F	1.197514	0.407724	0.500134
H119	H	0.944187	-0.134445	0.000137
H120	H	1.444187	0.365555	0.500137
H121	H	0.036475	0.088690	0.169459
H122	H	0.536475	0.588690	0.669459
H123	H	0.168584	0.090638	0.169443
H124	H	0.668584	0.590638	0.669443
F125	F	0.951470	-0.721802	0.000225
F126	F	1.451470	-0.221802	0.500225
H127	H	0.942239	-0.266555	0.000163
H128	H	1.442239	0.233445	0.500163
H129	H	0.480401	0.095279	-0.169101
H130	H	0.980401	0.595279	0.330899
F131	F	0.621616	0.097379	-0.192455
F132	F	1.121616	0.597379	0.307545
H133	H	0.711349	-0.235631	0.000139
H134	H	1.211349	0.264369	0.500139
F135	F	0.953688	-0.571482	0.000178
F136	F	1.453688	-0.071482	0.500178
H137	H	0.704801	-0.679641	0.000190
H138	H	1.204801	-0.179641	0.500190
F139	F	0.690971	-0.536291	0.000170
F140	F	1.190971	-0.036291	0.500170
F141	F	0.027286	0.088570	-0.192370
F142	F	0.527286	0.588570	0.307630
H143	H	0.612592	0.097206	0.169381
H144	H	1.112592	0.597206	0.669381
