data_functionalizedCrystal
_audit_creation_method	'MofGen! by Chris Wilmer'
_symmetry_space_group_name_H-M	'P1'
_symmetry_Int_Tables_number	1
_symmetry_cell_setting	triclinic
loop_
_symmetry_equiv_pos_as_xyz
  x,y,z
_cell_length_a	19.188930
_cell_length_b	14.853567
_cell_length_c	13.330367
_cell_angle_alpha	90.000844
_cell_angle_beta	90.021431
_cell_angle_gamma	83.389856
loop_
_atom_site_label
_atom_site_type_symbol
_atom_site_fract_x
_atom_site_fract_y
_atom_site_fract_z
O1	O	-0.926523	-0.112552	-0.083738
O2	O	-0.426523	0.387448	0.416262
O3	O	-0.723263	-0.127704	-0.083668
O4	O	-0.223263	0.372296	0.416332
O5	O	-0.830322	0.011132	-0.083708
O6	O	-0.330322	0.511132	0.416292
O7	O	-0.819464	-0.251388	-0.083698
O8	O	-0.319464	0.248612	0.416302
O9	O	-0.830307	0.011135	0.083139
O10	O	-0.330307	0.511135	0.583139
O11	O	-0.723247	-0.127701	0.083179
O12	O	-0.223247	0.372299	0.583179
O13	O	-0.926508	-0.112549	0.083109
O14	O	-0.426508	0.387451	0.583109
Cu15	Cu	-0.824876	-0.120125	0.098379
Cu16	Cu	-0.324876	0.379875	0.598379
Cu17	Cu	-0.824894	-0.120128	-0.098937
Cu18	Cu	-0.324894	0.379872	0.401063
O19	O	-0.819448	-0.251385	0.083149
O20	O	-0.319448	0.248615	0.583149
C21	C	-0.829823	0.044720	-0.000287
C22	C	-0.329823	0.544720	0.499713
C23	C	-0.828348	0.144795	-0.000295
C24	C	-0.328348	0.644795	0.499705
C25	C	-0.697242	-0.127211	-0.000236
C26	C	-0.197242	0.372789	0.499764
C27	C	-0.619733	-0.125739	-0.000209
C28	C	-0.119733	0.374261	0.499791
C29	C	-0.952528	-0.113041	-0.000325
C30	C	-0.452528	0.386959	0.499675
C31	C	-1.030038	-0.114514	-0.000358
C32	C	-0.530038	0.385486	0.499642
C33	C	-0.575080	-0.207203	-0.000222
C34	C	-0.075080	0.292797	0.499778
C35	C	-0.502252	-0.205819	-0.000233
C36	C	-0.002252	0.294181	0.499767
C37	C	-0.474079	-0.122966	-0.000252
C38	C	0.025921	0.377034	0.499748
C39	C	-0.518741	-0.041491	-0.000233
C40	C	-0.018741	0.458509	0.499767
C41	C	-0.591568	-0.042878	-0.000212
C42	C	-0.091568	0.457122	0.499788
N43	N	-0.365893	-0.059637	-0.057080
N44	N	0.134107	0.440363	0.442920
N45	N	-0.296710	-0.058326	-0.057102
N46	N	0.203290	0.441674	0.442898
C47	C	-0.254657	-0.118785	-0.000313
C48	C	0.245343	0.381215	0.499687
N49	N	-0.284398	-0.180619	0.056486
N50	N	0.215602	0.319381	0.556486
N51	N	-0.353587	-0.181933	0.056504
N52	N	0.146413	0.318067	0.556504
C53	C	-0.395112	-0.121454	-0.000274
C54	C	0.104888	0.378546	0.499726
C55	C	-0.131035	-0.198755	-0.000336
C56	C	0.368965	0.301245	0.499664
C57	C	-0.058205	-0.197368	-0.000341
C58	C	0.441795	0.302632	0.499659
C59	C	-0.074696	-0.033038	-0.000352
C60	C	0.425304	0.466962	0.499648
C61	C	-0.147524	-0.034427	-0.000337
C62	C	0.352476	0.465573	0.499663
C63	C	-0.175689	-0.117288	-0.000334
C64	C	0.324311	0.382712	0.499666
C65	C	-0.819948	-0.284972	-0.000274
C66	C	-0.319948	0.215028	0.499726
C67	C	-0.821422	-0.385048	-0.000272
C68	C	-0.321422	0.114952	0.499728
N69	N	-0.824868	-0.120121	0.237160
N70	N	-0.324868	0.379879	0.737160
C71	C	-0.758520	0.556941	-0.000252
C72	C	-0.258520	1.056941	0.499748
C73	C	-0.885709	0.578929	-0.000296
C74	C	-0.385709	1.078929	0.499704
C75	C	-0.887095	0.484903	-0.000302
C76	C	-0.387095	0.984903	0.499698
C77	C	-0.824193	0.426891	-0.000282
C78	C	-0.324193	0.926891	0.499718
C79	C	-0.759904	0.462906	-0.000255
C80	C	-0.259904	0.962906	0.499745
C81	C	-0.951383	0.448881	-0.000319
C82	C	-0.451383	0.948881	0.499681
C83	C	-0.952772	0.354850	-0.000324
C84	C	-0.452772	0.854850	0.499676
C85	C	-0.889869	0.296836	-0.000311
C86	C	-0.389869	0.796836	0.499689
C87	C	-0.825577	0.332856	-0.000285
C88	C	-0.325577	0.832856	0.499715
C89	C	-0.762675	0.274845	-0.000265
C90	C	-0.262675	0.774845	0.499735
C91	C	-0.698383	0.310862	-0.000247
C92	C	-0.198383	0.810862	0.499753
C93	C	-0.697001	0.404892	-0.000242
C94	C	-0.197001	0.904892	0.499758
C95	C	-0.891251	0.202807	-0.000315
C96	C	-0.391251	0.702807	0.499685
C97	C	-0.764059	0.180809	-0.000269
C98	C	-0.264059	0.680809	0.499731
N99	N	-0.824908	-0.120124	-0.237719
N100	N	-0.324908	0.379876	0.262281
C101	C	-0.777486	-0.181580	0.709801
C102	C	-0.277486	0.318420	1.209801
C103	C	-0.872321	-0.058669	0.709733
C104	C	-0.372321	0.441331	1.209733
C105	C	-0.872313	-0.058666	0.604715
C106	C	-0.372313	0.441334	1.104715
C107	C	-0.824892	-0.120122	0.552235
C108	C	-0.324892	0.379878	1.052235
C109	C	-0.777478	-0.181581	0.604773
C110	C	-0.277478	0.318419	1.104773
C111	C	-0.919731	0.002786	0.552169
C112	C	-0.419731	0.502786	1.052169
C113	C	-0.919725	0.002791	0.447144
C114	C	-0.419725	0.502791	0.947144
C115	C	-0.872300	-0.058662	0.394662
C116	C	-0.372300	0.441338	0.894662
C117	C	-0.824884	-0.120123	0.447207
C118	C	-0.324884	0.379877	0.947207
C119	C	-0.777462	-0.181580	0.394726
C120	C	-0.277462	0.318420	0.894726
C121	C	-0.730042	-0.243037	0.447269
C122	C	-0.230042	0.256963	0.947269
C123	C	-0.730053	-0.243034	0.552290
C124	C	-0.230053	0.256966	1.052290
C125	C	-0.872290	-0.058665	0.289641
C126	C	-0.372290	0.441335	0.789641
C127	C	-0.777454	-0.181581	0.289698
C128	C	-0.277454	0.318419	0.789698
H129	H	-0.598007	-0.274675	-0.000222
H130	H	-0.098007	0.225325	0.499778
N131	N	-0.689182	0.595789	-0.000226
N132	N	-0.189182	1.095789	0.499774
H133	H	-0.661616	0.574617	0.061634
H134	H	-0.161616	1.074617	0.561634
H135	H	-0.661682	0.574607	-0.062108
H136	H	-0.161682	1.074607	0.437892
H137	H	-0.465889	-0.272159	-0.000241
H138	H	0.034111	0.227841	0.499759
N139	N	-0.639737	0.044988	-0.000211
N140	N	-0.139737	0.544988	0.499789
H141	H	-0.670298	0.048074	0.061646
H142	H	-0.170298	0.548074	0.561646
H143	H	-0.610796	0.097639	-0.000260
H144	H	-0.110796	0.597639	0.499740
N145	N	-0.195690	0.053438	-0.000323
N146	N	0.304310	0.553438	0.499677
H147	H	-0.166794	0.106137	-0.000335
H148	H	0.333206	0.606137	0.499665
H149	H	-0.226292	0.056444	-0.062165
H150	H	0.273708	0.556444	0.437835
N151	N	-0.726299	-0.247865	0.233105
N152	N	-0.226299	0.252135	0.733105
H153	H	-0.734397	-0.311826	0.251378
H154	H	-0.234397	0.188174	0.751378
H155	H	-0.733512	-0.238467	0.158618
H156	H	-0.233512	0.261533	0.658618
N157	N	-0.678900	-0.309326	0.390661
N158	N	-0.178900	0.190674	0.890661
H159	H	-0.686096	-0.299999	0.316159
H160	H	-0.186096	0.200001	0.816159
H161	H	-0.629362	-0.299067	0.409043
H162	H	-0.129362	0.200933	0.909043
N163	N	-1.022111	0.316004	-0.000344
N164	N	-0.522111	0.816004	0.499656
H165	H	-1.061748	0.367024	-0.000354
H166	H	-0.561748	0.867024	0.499646
H167	H	-1.025462	0.277474	-0.062201
H168	H	-0.525462	0.777474	0.437799
H169	H	-0.712835	0.133582	-0.000256
H170	H	-0.212835	0.633582	0.499744
N171	N	-0.044321	0.056327	-0.000360
N172	N	0.455679	0.556327	0.499640
H173	H	0.008591	0.044846	-0.000372
H174	H	0.508591	0.544846	0.499628
H175	H	-0.060674	0.091965	-0.062210
H176	H	0.439326	0.591965	0.437790
N177	N	-0.678918	-0.309329	0.608953
N178	N	-0.178918	0.190671	1.108953
H179	H	-0.629354	-0.299108	0.590717
H180	H	-0.129354	0.200892	1.090717
H181	H	-0.686182	-0.299977	0.683429
H182	H	-0.186182	0.200023	1.183429
H183	H	-0.910901	-0.008631	0.246865
H184	H	-0.410901	0.491369	0.746865
H185	H	-0.738876	-0.231616	0.752583
H186	H	-0.238876	0.268384	1.252583
H187	H	-0.647168	0.263617	-0.000223
H188	H	-0.147168	0.763617	0.499777
N189	N	-0.923472	0.007606	0.766331
N190	N	-0.423472	0.507606	1.266331
H191	H	-0.916284	-0.001721	0.840835
H192	H	-0.416284	0.498279	1.340835
H193	H	-0.915347	0.071539	0.747986
H194	H	-0.415347	0.571539	1.247986
H195	H	-0.958344	0.052818	0.594902
H196	H	-0.458344	0.552818	1.094902
N197	N	-0.010063	-0.285256	-0.000339
N198	N	0.489937	0.214744	0.499661
H199	H	0.020504	-0.288366	-0.062190
H200	H	0.520504	0.211634	0.437810
H201	H	0.020491	-0.288303	0.061552
H202	H	0.520491	0.211697	0.561552
H203	H	-0.644657	0.434227	-0.000226
H204	H	-0.144657	0.934227	0.499774
N205	N	-0.970867	0.069073	0.390477
N206	N	-0.470867	0.569073	0.890477
H207	H	-1.000909	0.108004	0.439661
H208	H	-0.500909	0.608004	0.939661
H209	H	-0.944097	0.108846	0.346926
H210	H	-0.444097	0.608846	0.846926
N211	N	-0.953551	0.641492	-0.000302
N212	N	-0.453551	1.141492	0.499698
H213	H	-0.942919	0.706525	-0.000290
H214	H	-0.442919	1.206525	0.499710
H215	H	-0.981572	0.629867	-0.062164
H216	H	-0.481572	1.129867	0.437836
H217	H	-0.153968	-0.266225	-0.000319
H218	H	0.346032	0.233775	0.499681
N219	N	-0.488360	0.047872	-0.000241
N220	N	0.011640	0.547872	0.499759
H221	H	-0.435448	0.036390	-0.000258
H222	H	0.064552	0.536390	0.499742
H223	H	-0.504715	0.083513	-0.062088
H224	H	-0.004715	0.583513	0.437912
N225	N	-1.019224	0.511446	-0.000322
N226	N	-0.519224	1.011446	0.499678
H227	H	-1.008590	0.576479	-0.000319
H228	H	-0.508590	1.076479	0.499681
H229	H	-1.047250	0.499817	-0.062179
H230	H	-0.547250	0.999817	0.437821
N231	N	-0.960585	0.163956	-0.000325
N232	N	-0.460585	0.663956	0.499675
H233	H	-1.000223	0.214974	-0.000331
H234	H	-0.500223	0.714974	0.499669
H235	H	-0.963940	0.125425	-0.062180
H236	H	-0.463940	0.625425	0.437820
