data_functionalizedCrystal
_audit_creation_method	'MofGen! by Chris Wilmer'
_symmetry_space_group_name_H-M	'P1'
_symmetry_Int_Tables_number	1
_symmetry_cell_setting	triclinic
loop_
_symmetry_equiv_pos_as_xyz
  x,y,z
_cell_length_a	16.109301
_cell_length_b	15.995350
_cell_length_c	15.186229
_cell_angle_alpha	89.998487
_cell_angle_beta	89.999362
_cell_angle_gamma	83.476928
loop_
_atom_site_label
_atom_site_type_symbol
_atom_site_fract_x
_atom_site_fract_y
_atom_site_fract_z
O1	O	1.103160	0.107624	-0.073168
O2	O	1.603160	0.607624	0.426832
O3	O	0.861101	0.121018	-0.073182
O4	O	1.361101	0.621018	0.426818
O5	O	0.988747	-0.007569	-0.073174
O6	O	1.488747	0.492431	0.426826
O7	O	0.975514	0.236210	-0.073176
O8	O	1.475514	0.736210	0.426824
O9	O	0.988739	-0.007570	0.073283
O10	O	1.488739	0.492430	0.573283
O11	O	0.861093	0.121016	0.073275
O12	O	1.361093	0.621016	0.573275
O13	O	1.103151	0.107622	0.073289
O14	O	1.603151	0.607622	0.573289
Zn15	Zn	0.982121	0.114319	0.096535
Zn16	Zn	1.482121	0.614319	0.596535
Zn17	Zn	0.982132	0.114321	-0.096428
Zn18	Zn	1.482132	0.614321	0.403572
O19	O	0.975505	0.236208	0.073281
O20	O	1.475505	0.736208	0.573281
C21	C	0.830122	0.120474	0.000045
C22	C	1.330122	0.620474	0.500045
C23	C	0.737826	0.118848	0.000040
C24	C	1.237826	0.618848	0.500040
C25	C	0.515573	0.191366	0.000049
C26	C	1.015573	0.691366	0.500049
C27	C	0.428853	0.189831	0.000055
C28	C	0.928853	0.689831	0.500055
C29	C	0.448686	0.037268	0.000053
C30	C	0.948686	0.537268	0.500053
C31	C	0.535405	0.038804	0.000053
C32	C	1.035405	0.538804	0.500053
C33	C	0.568846	0.115855	0.000047
C34	C	1.068846	0.615855	0.500047
C35	C	0.395406	0.112785	0.000052
C36	C	0.895406	0.612785	0.500052
C37	C	0.301380	0.111120	0.000058
C38	C	0.801380	0.611120	0.500058
C39	C	0.662879	0.117520	0.000043
C40	C	1.162879	0.617520	0.500043
C41	C	0.988196	-0.038764	0.000053
C42	C	1.488196	0.461236	0.500053
C43	C	0.986556	-0.131714	0.000048
C44	C	1.486556	0.368286	0.500048
C45	C	0.980665	-0.469460	0.000050
C46	C	1.480665	0.030540	0.500050
C47	C	0.889758	-0.422001	-0.000283
C48	C	1.389758	0.077999	0.499717
C49	C	0.891399	-0.325311	0.000047
C50	C	1.391399	0.174689	0.500047
C51	C	0.983587	-0.301900	0.000049
C52	C	1.483587	0.198100	0.500049
C53	C	1.028421	-0.342991	0.083684
C54	C	1.528421	0.157009	0.583684
C55	C	1.026137	-0.439626	0.083754
C56	C	1.526137	0.060374	0.583754
C57	C	1.028025	-0.439983	-0.082795
C58	C	1.528025	0.060017	0.417205
C59	C	1.028003	-0.343037	-0.083901
C60	C	1.528003	0.156963	0.416099
C61	C	0.985243	-0.207203	0.000051
C62	C	1.485243	0.292797	0.500051
C63	C	0.979012	-0.564157	0.000054
C64	C	1.479012	-0.064157	0.500054
C65	C	1.134130	0.108166	0.000060
C66	C	1.634130	0.608166	0.500060
C67	C	1.226426	0.109792	0.000059
C68	C	1.726426	0.609792	0.500059
C69	C	0.976056	0.267404	0.000052
C70	C	1.476056	0.767404	0.500052
C71	C	0.977697	0.360354	0.000051
C72	C	1.477697	0.860354	0.500051
N73	N	0.982119	0.114317	0.228228
N74	N	1.482119	0.614317	0.728228
N75	N	0.982140	0.114317	-0.228121
N76	N	1.482140	0.614317	0.271879
C77	C	1.038660	0.057398	0.453954
C78	C	1.538660	0.557398	0.953954
C79	C	1.038662	0.057396	0.546144
C80	C	1.538662	0.557396	1.046144
C81	C	0.925593	0.171238	0.546146
C82	C	1.425593	0.671238	1.046146
C83	C	0.925587	0.171236	0.453958
C84	C	1.425587	0.671236	0.953958
C85	C	0.982125	0.114316	0.407865
C86	C	1.482125	0.614316	0.907865
C87	C	0.982134	0.114317	0.592242
C88	C	1.482134	0.614317	1.092242
C89	C	0.982136	0.114315	0.692198
C90	C	1.482136	0.614315	1.192198
C91	C	0.982122	0.114317	0.307902
C92	C	1.482122	0.614317	0.807902
H93	H	0.385481	0.251320	0.000058
H94	H	0.885481	0.751320	0.500058
C95	C	1.100849	-0.005213	0.596843
C96	C	1.600849	0.494787	1.096843
H97	H	1.092751	0.002932	0.658349
H98	H	1.592751	0.502932	1.158349
H99	H	1.156333	0.003895	0.581732
H100	H	1.656333	0.503895	1.081732
H101	H	1.091814	-0.061100	0.581735
H102	H	1.591814	0.438900	1.081735
H103	H	0.879562	0.217582	0.583685
H104	H	1.379562	0.717582	1.083685
C105	C	0.594009	-0.044262	0.000047
C106	C	1.094009	0.455738	0.500047
H107	H	0.561674	-0.090371	0.000038
H108	H	1.061674	0.409629	0.500038
H109	H	0.628251	-0.046836	0.051119
H110	H	1.128251	0.453164	0.551119
H111	H	0.628249	-0.046828	-0.051033
H112	H	1.128249	0.453172	0.448967
C113	C	0.411897	-0.047482	0.000048
C114	C	0.911897	0.452518	0.500048
H115	H	0.352620	-0.037583	0.000038
H116	H	0.852620	0.462417	0.500038
H117	H	0.430181	-0.078578	0.051119
H118	H	0.930181	0.421422	0.551119
H119	H	0.430186	-0.078565	-0.051034
H120	H	0.930186	0.421435	0.448966
C121	C	0.986349	-0.304651	0.167766
C122	C	1.486349	0.195349	0.667766
H123	H	1.013927	-0.329923	0.218027
H124	H	1.513927	0.170077	0.718027
H125	H	0.929332	-0.314606	0.168515
H126	H	1.429332	0.185394	0.668515
H127	H	0.989843	-0.245767	0.168632
H128	H	1.489843	0.254233	0.668632
C129	C	0.863398	0.233851	0.403256
C130	C	1.363398	0.733851	0.903256
H131	H	0.829735	0.267759	0.443909
H132	H	1.329735	0.767759	0.943909
H133	H	0.828790	0.203719	0.367297
H134	H	1.328790	0.703719	0.867297
H135	H	0.893309	0.268715	0.367290
H136	H	1.393309	0.768715	0.867290
H137	H	0.542798	0.254106	0.000051
H138	H	1.042798	0.754106	0.500051
H139	H	0.856156	-0.296879	-0.059906
H140	H	1.356156	0.203121	0.440094
H141	H	0.853427	-0.440522	-0.060260
H142	H	1.353427	0.059478	0.439740
C143	C	1.100847	-0.005209	0.403250
C144	C	1.600847	0.494791	0.903250
H145	H	1.092755	0.002947	0.341745
H146	H	1.592755	0.502947	0.841745
H147	H	1.091825	-0.061095	0.418360
H148	H	1.591825	0.438905	0.918360
H149	H	1.156333	0.003911	0.418358
H150	H	1.656333	0.503911	0.918358
H151	H	0.993437	-0.457919	0.146271
H152	H	1.493437	0.042081	0.646271
H153	H	0.855912	-0.297438	0.060099
H154	H	1.355912	0.202562	0.560099
C155	C	0.840886	-0.448446	0.080286
C156	C	1.340886	0.051554	0.580286
H157	H	0.875642	-0.488282	0.114128
H158	H	1.375642	0.011718	0.614128
H159	H	0.793028	-0.472977	0.061057
H160	H	1.293028	0.027023	0.561057
H161	H	0.823850	-0.400389	0.115392
H162	H	1.323850	0.099611	0.615392
H163	H	1.092880	-0.471892	0.087550
H164	H	1.592880	0.028108	0.587550
C165	C	1.119913	-0.323931	0.087897
C166	C	1.619913	0.176069	0.587897
H167	H	1.131608	-0.290661	0.038571
H168	H	1.631608	0.209339	0.538571
H169	H	1.155963	-0.375228	0.087124
H170	H	1.655963	0.124772	0.587124
H171	H	1.128607	-0.294127	0.140594
H172	H	1.628607	0.205873	0.640594
C173	C	0.987877	-0.467710	-0.168431
C174	C	1.487877	0.032290	0.331569
H175	H	0.941851	-0.497525	-0.154457
H176	H	1.441851	0.002475	0.345543
H177	H	1.027992	-0.503195	-0.201087
H178	H	1.527992	-0.003195	0.298913
H179	H	0.968999	-0.419506	-0.202572
H180	H	1.468999	0.080494	0.297428
C181	C	0.983787	-0.306144	-0.167488
C182	C	1.483787	0.193856	0.332512
H183	H	0.938450	-0.265834	-0.151302
H184	H	1.438450	0.234166	0.348698
H185	H	0.963368	-0.350038	-0.200328
H186	H	1.463368	0.149962	0.299672
H187	H	1.022268	-0.279778	-0.202394
H188	H	1.522268	0.220222	0.297606
H189	H	1.095050	-0.471762	-0.083356
H190	H	1.595050	0.028238	0.416644
C191	C	1.118824	-0.322317	-0.090723
C192	C	1.618824	0.177683	0.409277
H193	H	1.130899	-0.288159	-0.042242
H194	H	1.630899	0.211841	0.457758
H195	H	1.125869	-0.292973	-0.144101
H196	H	1.625869	0.207027	0.355899
H197	H	1.155741	-0.373044	-0.090011
H198	H	1.655741	0.126956	0.409989
