data_functionalizedCrystal
_audit_creation_method	'MofGen! by Chris Wilmer'
_symmetry_space_group_name_H-M	'P1'
_symmetry_Int_Tables_number	1
_symmetry_cell_setting	triclinic
loop_
_symmetry_equiv_pos_as_xyz
  x,y,z
_cell_length_a	23.532407
_cell_length_b	23.532409
_cell_length_c	22.610064
_cell_angle_alpha	90.007112
_cell_angle_beta	89.997161
_cell_angle_gamma	82.849119
loop_
_atom_site_label
_atom_site_type_symbol
_atom_site_fract_x
_atom_site_fract_y
_atom_site_fract_z
O1	O	0.755264	0.069127	-0.049107
O2	O	1.005264	0.319127	0.200893
O3	O	1.255264	0.569127	0.450893
O4	O	1.505264	0.819127	0.700893
O5	O	0.589401	0.079130	-0.049124
O6	O	0.839401	0.329130	0.200876
O7	O	1.089401	0.579130	0.450876
O8	O	1.339401	0.829130	0.700876
O9	O	0.677333	-0.008803	-0.049116
O10	O	0.927333	0.241197	0.200884
O11	O	1.177333	0.491197	0.450884
O12	O	1.427333	0.741197	0.700884
O13	O	0.667331	0.157060	-0.049115
O14	O	0.917331	0.407060	0.200885
O15	O	1.167331	0.657060	0.450885
O16	O	1.417331	0.907060	0.700885
O17	O	0.677318	-0.008790	0.049254
O18	O	0.927318	0.241210	0.299254
O19	O	1.177318	0.491210	0.549254
O20	O	1.427318	0.741210	0.799254
O21	O	0.589385	0.079143	0.049245
O22	O	0.839385	0.329143	0.299245
O23	O	1.089385	0.579143	0.549245
O24	O	1.339385	0.829143	0.799245
O25	O	0.755248	0.069140	0.049262
O26	O	1.005248	0.319140	0.299262
O27	O	1.255248	0.569140	0.549262
O28	O	1.505248	0.819140	0.799262
Zn29	Zn	0.672314	0.074143	0.064872
Zn30	Zn	0.922314	0.324143	0.314872
Zn31	Zn	1.172314	0.574143	0.564872
Zn32	Zn	1.422314	0.824143	0.814872
Zn33	Zn	0.672335	0.074127	-0.064734
Zn34	Zn	0.922335	0.324127	0.185266
Zn35	Zn	1.172335	0.574127	0.435266
Zn36	Zn	1.422335	0.824127	0.685266
O37	O	0.667316	0.157073	0.049254
O38	O	0.917316	0.407073	0.299254
O39	O	1.167316	0.657073	0.549254
O40	O	1.417316	0.907073	0.799254
C41	C	0.568177	0.078882	0.000059
C42	C	0.818177	0.328882	0.250059
C43	C	1.068177	0.578882	0.500059
C44	C	1.318177	0.828882	0.750059
C45	C	0.504960	0.078116	0.000052
C46	C	0.754960	0.328116	0.250052
C47	C	1.004960	0.578116	0.500052
C48	C	1.254960	0.828116	0.750052
C49	C	0.105857	0.125349	0.000079
C50	C	0.355857	0.375349	0.250079
C51	C	0.605857	0.625349	0.500079
C52	C	0.855857	0.875349	0.750079
C53	C	0.046457	0.124638	0.000083
C54	C	0.296457	0.374638	0.250083
C55	C	0.546457	0.624638	0.500083
C56	C	0.796457	0.874638	0.750083
O57	O	0.009713	0.168424	0.000104
O58	O	0.259713	0.418424	0.250104
O59	O	0.509713	0.668424	0.500104
O60	O	0.759713	0.918424	0.750104
N61	N	0.023830	0.072362	0.000081
N62	N	0.273830	0.322362	0.250081
N63	N	0.523830	0.572362	0.500081
N64	N	0.773830	0.822362	0.750081
C65	C	0.060608	0.020794	0.000083
C66	C	0.310608	0.270794	0.250083
C67	C	0.560608	0.520794	0.500083
C68	C	0.810608	0.770794	0.750083
O69	O	0.035908	-0.023737	0.000083
O70	O	0.285908	0.226263	0.250083
O71	O	0.535908	0.476263	0.500083
O72	O	0.785908	0.726263	0.750083
C73	C	0.120007	0.021506	0.000083
C74	C	0.370007	0.271506	0.250083
C75	C	0.620007	0.521506	0.500083
C76	C	0.870007	0.771506	0.750083
C77	C	0.142630	0.073785	0.000078
C78	C	0.392630	0.323785	0.250078
C79	C	0.642630	0.573785	0.500078
C80	C	0.892630	0.823785	0.750078
C81	C	0.128481	0.177625	0.000075
C82	C	0.378481	0.427625	0.250075
C83	C	0.628481	0.677625	0.500075
C84	C	0.878481	0.927625	0.750075
C85	C	0.187877	0.178336	0.000070
C86	C	0.437877	0.428336	0.250070
C87	C	0.687877	0.678336	0.500070
C88	C	0.937877	0.928336	0.750070
C89	C	0.224649	0.126772	0.000069
C90	C	0.474649	0.376772	0.250069
C91	C	0.724649	0.626772	0.500069
C92	C	0.974649	0.876772	0.750069
C93	C	0.202026	0.074496	0.000074
C94	C	0.452026	0.324496	0.250074
C95	C	0.702026	0.574496	0.500074
C96	C	0.952026	0.824496	0.750074
C97	C	0.156783	-0.030062	0.000089
C98	C	0.406783	0.219938	0.250089
C99	C	0.656783	0.469938	0.500089
C100	C	0.906783	0.719938	0.750089
C101	C	0.216185	-0.029345	0.000090
C102	C	0.466185	0.220655	0.250090
C103	C	0.716185	0.470655	0.500090
C104	C	0.966185	0.720655	0.750090
C105	C	0.238808	0.022934	0.000085
C106	C	0.488808	0.272934	0.250085
C107	C	0.738808	0.522934	0.500085
C108	C	0.988808	0.772934	0.750085
C109	C	0.298195	0.023643	0.000068
C110	C	0.548195	0.273643	0.250068
C111	C	0.798195	0.523643	0.500068
C112	C	1.048195	0.773643	0.750068
N113	N	0.320821	0.075920	0.000070
N114	N	0.570821	0.325920	0.250070
N115	N	0.820821	0.575920	0.500070
N116	N	1.070821	0.825920	0.750070
C117	C	0.284049	0.127484	0.000070
C118	C	0.534049	0.377484	0.250070
C119	C	0.784049	0.627484	0.500070
C120	C	1.034049	0.877484	0.750070
C121	C	-0.064135	0.019302	0.000082
C122	C	0.185865	0.269302	0.250082
C123	C	0.435865	0.519302	0.500082
C124	C	0.685865	0.769302	0.750082
C125	C	-0.123533	0.018589	0.000078
C126	C	0.126467	0.268589	0.250078
C127	C	0.376467	0.518589	0.500078
C128	C	0.626467	0.768589	0.750078
C129	C	-0.137679	0.122434	0.000079
C130	C	0.112321	0.372434	0.250079
C131	C	0.362321	0.622434	0.500079
C132	C	0.612321	0.872434	0.750079
C133	C	-0.078280	0.123146	0.000079
C134	C	0.171720	0.373146	0.250079
C135	C	0.421720	0.623146	0.500079
C136	C	0.671720	0.873146	0.750079
C137	C	-0.041508	0.071578	0.000084
C138	C	0.208492	0.321578	0.250084
C139	C	0.458492	0.571578	0.500084
C140	C	0.708492	0.821578	0.750084
C141	C	0.408785	0.128974	0.000060
C142	C	0.658785	0.378974	0.250060
C143	C	0.908785	0.628974	0.500060
C144	C	1.158785	0.878974	0.750060
C145	C	0.468187	0.129680	0.000052
C146	C	0.718187	0.379680	0.250052
C147	C	0.968187	0.629680	0.500052
C148	C	1.218187	0.879680	0.750052
C149	C	0.482329	0.025836	0.000055
C150	C	0.732329	0.275836	0.250055
C151	C	0.982329	0.525836	0.500055
C152	C	1.232329	0.775836	0.750055
C153	C	0.422932	0.025129	0.000059
C154	C	0.672932	0.275129	0.250059
C155	C	0.922932	0.525129	0.500059
C156	C	1.172932	0.775129	0.750059
C157	C	0.386161	0.076702	0.000063
C158	C	0.636161	0.326702	0.250063
C159	C	0.886161	0.576702	0.500063
C160	C	1.136161	0.826702	0.750063
O161	O	0.334973	-0.020119	0.000049
O162	O	0.584973	0.229881	0.250049
O163	O	0.834973	0.479881	0.500049
O164	O	1.084973	0.729881	0.750049
O165	O	0.308757	0.172007	0.000078
O166	O	0.558757	0.422007	0.250078
O167	O	0.808757	0.672007	0.500078
O168	O	1.058757	0.922007	0.750078
C169	C	0.677071	-0.030013	0.000067
C170	C	0.927071	0.219987	0.250067
C171	C	1.177071	0.469987	0.500067
C172	C	1.427071	0.719987	0.750067
C173	C	0.676304	-0.093230	0.000063
C174	C	0.926304	0.156770	0.250063
C175	C	1.176304	0.406770	0.500063
C176	C	1.426304	0.656770	0.750063
C177	C	0.673054	-0.366482	-0.053561
C178	C	0.923054	-0.116482	0.196439
C179	C	1.173054	0.133518	0.446439
C180	C	1.423054	0.383518	0.696439
C181	C	0.673765	-0.307081	-0.053561
C182	C	0.923765	-0.057081	0.196439
C183	C	1.173765	0.192919	0.446439
C184	C	1.423765	0.442919	0.696439
O185	O	0.674161	-0.276363	-0.099162
O186	O	0.924161	-0.026363	0.150838
O187	O	1.174161	0.223637	0.400838
O188	O	1.424161	0.473637	0.650838
N189	N	0.674109	-0.277372	0.000061
N190	N	0.924109	-0.027372	0.250061
N191	N	1.174109	0.222628	0.500061
N192	N	1.424109	0.472628	0.750061
C193	C	0.673747	-0.307067	0.053687
C194	C	0.923747	-0.057067	0.303687
C195	C	1.173747	0.192933	0.553687
C196	C	1.423747	0.442933	0.803687
O197	O	0.674105	-0.276343	0.099296
O198	O	0.924105	-0.026343	0.349296
O199	O	1.174105	0.223657	0.599296
O200	O	1.424105	0.473657	0.849296
C201	C	0.673040	-0.366467	0.053686
C202	C	0.923040	-0.116467	0.303686
C203	C	1.173040	0.133533	0.553686
C204	C	1.423040	0.383533	0.803686
C205	C	0.672690	-0.396172	0.000060
C206	C	0.922690	-0.146172	0.250060
C207	C	1.172690	0.103828	0.500060
C208	C	1.422690	0.353828	0.750060
C209	C	0.672705	-0.396187	-0.107182
C210	C	0.922705	-0.146187	0.142818
C211	C	1.172705	0.103813	0.392818
C212	C	1.422705	0.353813	0.642818
C213	C	0.671992	-0.455583	-0.107182
C214	C	0.921992	-0.205583	0.142818
C215	C	1.171992	0.044417	0.392818
C216	C	1.421992	0.294417	0.642818
C217	C	0.671628	-0.485274	-0.053560
C218	C	0.921628	-0.235274	0.196440
C219	C	1.171628	0.014726	0.446440
C220	C	1.421628	0.264726	0.696440
C221	C	0.671977	-0.455568	0.000061
C222	C	0.921977	-0.205568	0.250061
C223	C	1.171977	0.044432	0.500061
C224	C	1.421977	0.294432	0.750061
C225	C	0.672682	-0.396161	0.107311
C226	C	0.922682	-0.146161	0.357311
C227	C	1.172682	0.103839	0.607311
C228	C	1.422682	0.353839	0.857311
C229	C	0.671974	-0.455565	0.107306
C230	C	0.921974	-0.205565	0.357306
C231	C	1.171974	0.044435	0.607306
C232	C	1.421974	0.294435	0.857306
C233	C	0.671625	-0.485270	0.053680
C234	C	0.921625	-0.235270	0.303680
C235	C	1.171625	0.014730	0.553680
C236	C	1.421625	0.264730	0.803680
C237	C	0.670901	-0.544655	0.053682
C238	C	0.920901	-0.294655	0.303682
C239	C	1.170901	-0.044655	0.553682
C240	C	1.420901	0.205345	0.803682
N241	N	0.670557	-0.574364	0.000060
N242	N	0.920557	-0.324364	0.250060
N243	N	1.170557	-0.074364	0.500060
N244	N	1.420557	0.175636	0.750060
C245	C	0.670921	-0.544673	-0.053561
C246	C	0.920921	-0.294673	0.196439
C247	C	1.170921	-0.044673	0.446439
C248	C	1.420921	0.205327	0.696439
C249	C	0.675234	-0.182324	0.053684
C250	C	0.925234	0.067676	0.303684
C251	C	1.175234	0.317676	0.553684
C252	C	1.425234	0.567676	0.803684
C253	C	0.675937	-0.122925	0.053685
C254	C	0.925937	0.127075	0.303685
C255	C	1.175937	0.377075	0.553685
C256	C	1.425937	0.627075	0.803685
C257	C	0.675957	-0.122943	-0.053563
C258	C	0.925957	0.127057	0.196437
C259	C	1.175957	0.377057	0.446437
C260	C	1.425957	0.627057	0.696437
C261	C	0.675249	-0.182343	-0.053563
C262	C	0.925249	0.067657	0.196437
C263	C	1.175249	0.317657	0.446437
C264	C	1.425249	0.567657	0.696437
C265	C	0.674890	-0.212033	0.000062
C266	C	0.924890	0.037967	0.250062
C267	C	1.174890	0.287967	0.500062
C268	C	1.424890	0.537967	0.750062
C269	C	0.669424	-0.669409	-0.053556
C270	C	0.919424	-0.419409	0.196444
C271	C	1.169424	-0.169409	0.446444
C272	C	1.419424	0.080591	0.696444
C273	C	0.668709	-0.728810	-0.053551
C274	C	0.918709	-0.478810	0.196449
C275	C	1.168709	-0.228810	0.446449
C276	C	1.418709	0.021190	0.696449
C277	C	0.668692	-0.728787	0.053696
C278	C	0.918692	-0.478787	0.303696
C279	C	1.168692	-0.228787	0.553696
C280	C	1.418692	0.021213	0.803696
C281	C	0.669404	-0.669391	0.053691
C282	C	0.919404	-0.419391	0.303691
C283	C	1.169404	-0.169391	0.553691
C284	C	1.419404	0.080609	0.803691
C285	C	0.669772	-0.639703	0.000060
C286	C	0.919772	-0.389703	0.250060
C287	C	1.169772	-0.139703	0.500060
C288	C	1.419772	0.110297	0.750060
O289	O	0.670508	-0.575412	0.099260
O290	O	0.920508	-0.325412	0.349260
O291	O	1.170508	-0.075412	0.599260
O292	O	1.420508	0.174588	0.849260
O293	O	0.670570	-0.575406	-0.099163
O294	O	0.920570	-0.325406	0.150837
O295	O	1.170570	-0.075406	0.400837
O296	O	1.420570	0.174594	0.650837
C297	C	0.776472	0.069388	0.000078
C298	C	1.026472	0.319388	0.250078
C299	C	1.276472	0.569388	0.500078
C300	C	1.526472	0.819388	0.750078
C301	C	0.839689	0.070154	0.000081
C302	C	1.089689	0.320154	0.250081
C303	C	1.339689	0.570154	0.500081
C304	C	1.589689	0.820154	0.750081
C305	C	0.667579	0.178283	0.000070
C306	C	0.917579	0.428283	0.250070
C307	C	1.167579	0.678283	0.500070
C308	C	1.417579	0.928283	0.750070
C309	C	0.668345	0.241500	0.000070
C310	C	0.918345	0.491500	0.250070
C311	C	1.168345	0.741500	0.500070
C312	C	1.418345	0.991500	0.750070
N313	N	0.672305	0.074155	0.153324
N314	N	0.922305	0.324155	0.403324
N315	N	1.172305	0.574155	0.653324
N316	N	1.422305	0.824155	0.903324
N317	N	0.672349	0.074111	-0.153186
N318	N	0.922349	0.324111	0.096814
N319	N	1.172349	0.574111	0.346814
N320	N	1.422349	0.824111	0.596814
C321	C	0.711273	0.035196	0.561969
C322	C	0.961273	0.285196	0.811969
C323	C	1.211273	0.535196	1.061969
C324	C	1.461273	0.785196	1.311969
C325	C	0.711276	0.035192	0.623889
C326	C	0.961276	0.285192	0.873889
C327	C	1.211276	0.535192	1.123889
C328	C	1.461276	0.785192	1.373889
O329	O	0.744384	0.002076	0.655911
O330	O	0.994384	0.252076	0.905911
O331	O	1.244384	0.502076	1.155911
O332	O	1.494384	0.752076	1.405911
N333	N	0.672334	0.074115	0.654862
N334	N	0.922334	0.324115	0.904862
N335	N	1.172334	0.574115	1.154862
N336	N	1.422334	0.824115	1.404862
C337	C	0.633384	0.113041	0.623911
C338	C	0.883384	0.363041	0.873911
C339	C	1.133384	0.613041	1.123911
C340	C	1.383384	0.863041	1.373911
O341	O	0.600261	0.146147	0.655941
O342	O	0.850261	0.396147	0.905941
O343	O	1.100261	0.646147	1.155941
O344	O	1.350261	0.896147	1.405941
C345	C	0.633378	0.113042	0.561992
C346	C	0.883378	0.363042	0.811992
C347	C	1.133378	0.613042	1.061992
C348	C	1.383378	0.863042	1.311992
C349	C	0.672326	0.074120	0.531023
C350	C	0.922326	0.324120	0.781023
C351	C	1.172326	0.574120	1.031023
C352	C	1.422326	0.824120	1.281023
C353	C	0.750218	-0.003724	0.531000
C354	C	1.000218	0.246276	0.781000
C355	C	1.250218	0.496276	1.031000
C356	C	1.500218	0.746276	1.281000
C357	C	0.750215	-0.003719	0.469085
C358	C	1.000215	0.246281	0.719085
C359	C	1.250215	0.496281	0.969085
C360	C	1.500215	0.746281	1.219085
C361	C	0.711268	0.035206	0.438138
C362	C	0.961268	0.285206	0.688138
C363	C	1.211268	0.535206	0.938138
C364	C	1.461268	0.785206	1.188138
C365	C	0.672324	0.074125	0.469107
C366	C	0.922324	0.324125	0.719107
C367	C	1.172324	0.574125	0.969107
C368	C	1.422324	0.824125	1.219107
C369	C	0.594425	0.151965	0.531042
C370	C	0.844425	0.401965	0.781042
C371	C	1.094425	0.651965	1.031042
C372	C	1.344425	0.901965	1.281042
C373	C	0.594423	0.151962	0.469119
C374	C	0.844423	0.401962	0.719119
C375	C	1.094423	0.651962	0.969119
C376	C	1.344423	0.901962	1.219119
C377	C	0.633371	0.113040	0.438150
C378	C	0.883371	0.363040	0.688150
C379	C	1.133371	0.613040	0.938150
C380	C	1.383371	0.863040	1.188150
C381	C	0.633375	0.113054	0.376245
C382	C	0.883375	0.363054	0.626245
C383	C	1.133375	0.613054	0.876245
C384	C	1.383375	0.863054	1.126245
N385	N	0.672316	0.074131	0.345273
N386	N	0.922316	0.324131	0.595273
N387	N	1.172316	0.574131	0.845273
N388	N	1.422316	0.824131	1.095273
C389	C	0.711263	0.035207	0.376219
C390	C	0.961263	0.285207	0.626219
C391	C	1.211263	0.535207	0.876219
C392	C	1.461263	0.785207	1.126219
C393	C	0.633397	0.113035	0.753944
C394	C	0.883397	0.363035	1.003944
C395	C	1.133397	0.613035	1.253944
C396	C	1.383397	0.863035	1.503944
C397	C	0.633404	0.113037	0.815862
C398	C	0.883404	0.363037	1.065862
C399	C	1.133404	0.613037	1.315862
C400	C	1.383404	0.863037	1.565862
C401	C	0.711296	0.035187	0.815836
C402	C	0.961296	0.285187	1.065836
C403	C	1.211296	0.535187	1.315836
C404	C	1.461296	0.785187	1.565836
C405	C	0.711291	0.035188	0.753918
C406	C	0.961291	0.285188	1.003918
C407	C	1.211291	0.535188	1.253918
C408	C	1.461291	0.785188	1.503918
C409	C	0.672338	0.074112	0.722972
C410	C	0.922338	0.324112	0.972972
C411	C	1.172338	0.574112	1.222972
C412	C	1.422338	0.824112	1.472972
C413	C	0.711256	0.035220	0.246192
C414	C	0.961256	0.285220	0.496192
C415	C	1.211256	0.535220	0.746192
C416	C	1.461256	0.785220	0.996192
C417	C	0.711251	0.035230	0.184271
C418	C	0.961251	0.285230	0.434271
C419	C	1.211251	0.535230	0.684271
C420	C	1.461251	0.785230	0.934271
C421	C	0.633358	0.113078	0.184302
C422	C	0.883358	0.363078	0.434302
C423	C	1.133358	0.613078	0.684302
C424	C	1.383358	0.863078	0.934302
C425	C	0.633364	0.113071	0.246218
C426	C	0.883364	0.363071	0.496218
C427	C	1.133364	0.613071	0.746218
C428	C	1.383364	0.863071	0.996218
C429	C	0.672315	0.074137	0.277161
C430	C	0.922315	0.324137	0.527161
C431	C	1.172315	0.574137	0.777161
C432	C	1.422315	0.824137	1.027161
O433	O	0.600282	0.146151	0.344184
O434	O	0.850282	0.396151	0.594184
O435	O	1.100282	0.646151	0.844184
O436	O	1.350282	0.896151	1.094184
O437	O	0.744376	0.002101	0.344182
O438	O	0.994376	0.252101	0.594182
O439	O	1.244376	0.502101	0.844182
O440	O	1.494376	0.752101	1.094182
H441	H	0.404512	-0.017441	0.000054
H442	H	0.654512	0.232559	0.250054
H443	H	0.904512	0.482559	0.500054
H444	H	1.154512	0.732559	0.750054
H445	H	0.669724	-0.645245	-0.097228
H446	H	0.919724	-0.395245	0.152772
H447	H	1.169724	-0.145245	0.402772
H448	H	1.419724	0.104755	0.652772
H449	H	0.246123	-0.071339	0.000094
H450	H	0.496123	0.178661	0.250094
H451	H	0.746123	0.428661	0.500094
H452	H	0.996123	0.678661	0.750094
H453	H	0.673003	-0.372020	-0.150849
H454	H	0.923003	-0.122020	0.099151
H455	H	1.173003	0.127980	0.349151
H456	H	1.423003	0.377980	0.599151
Cl457	Cl	0.760255	-0.013745	0.714992
Cl458	Cl	1.010255	0.236255	0.964992
Cl459	Cl	1.260255	0.486255	1.214992
Cl460	Cl	1.510255	0.736255	1.464992
H461	H	0.676211	-0.098742	0.097352
H462	H	0.926211	0.151258	0.347352
H463	H	1.176211	0.401258	0.597352
H464	H	1.426211	0.651258	0.847352
Cl465	Cl	0.760257	-0.013747	0.854753
Cl466	Cl	1.010257	0.236253	1.104753
Cl467	Cl	1.260257	0.486253	1.354753
Cl468	Cl	1.510257	0.736253	1.604753
H469	H	0.512279	-0.016146	0.000052
H470	H	0.762279	0.233854	0.250052
H471	H	1.012279	0.483854	0.500052
H472	H	1.262279	0.733854	0.750052
Cl473	Cl	0.668268	-0.766150	-0.120971
Cl474	Cl	0.918268	-0.516150	0.129029
Cl475	Cl	1.168268	-0.266150	0.379029
Cl476	Cl	1.418268	-0.016150	0.629029
H477	H	0.671712	-0.479764	-0.150849
H478	H	0.921712	-0.229764	0.099151
H479	H	1.171712	0.020236	0.349151
H480	H	1.421712	0.270236	0.599151
Cl481	Cl	-0.151966	-0.047136	0.000069
Cl482	Cl	0.098034	0.202864	0.250069
Cl483	Cl	0.348034	0.452864	0.500069
Cl484	Cl	0.598034	0.702864	0.750069
H485	H	0.676251	-0.098758	-0.097224
H486	H	0.926251	0.151242	0.152776
H487	H	1.176251	0.401242	0.402776
H488	H	1.426251	0.651242	0.652776
H489	H	-0.034198	-0.022693	0.000081
H490	H	0.215802	0.227307	0.250081
H491	H	0.465802	0.477307	0.500081
H492	H	0.715802	0.727307	0.750081
H493	H	0.138374	-0.072634	0.000093
H494	H	0.388374	0.177366	0.250093
H495	H	0.638374	0.427366	0.500093
H496	H	0.888374	0.677366	0.750093
H497	H	0.781933	-0.035423	0.556192
H498	H	1.031933	0.214577	0.806192
H499	H	1.281933	0.464577	1.056192
H500	H	1.531933	0.714577	1.306192
H501	H	0.098546	0.219617	0.000077
H502	H	0.348546	0.469617	0.250077
H503	H	0.598546	0.719617	0.500077
H504	H	0.848546	0.969617	0.750077
Cl505	Cl	0.362568	0.193810	0.000065
Cl506	Cl	0.612568	0.443810	0.250065
Cl507	Cl	0.862568	0.693810	0.500065
Cl508	Cl	1.112568	0.943810	0.750065
Cl509	Cl	0.674776	-0.219642	0.121105
Cl510	Cl	0.924776	0.030358	0.371105
Cl511	Cl	1.174776	0.280358	0.621105
Cl512	Cl	1.424776	0.530358	0.871105
Cl513	Cl	0.674812	-0.219681	-0.120981
Cl514	Cl	0.924812	0.030319	0.129019
Cl515	Cl	1.174812	0.280319	0.379019
Cl516	Cl	1.424812	0.530319	0.629019
H517	H	0.672972	-0.371986	0.150979
H518	H	0.922972	-0.121986	0.400979
H519	H	1.172972	0.128014	0.650979
H520	H	1.422972	0.378014	0.900979
Cl521	Cl	0.671525	-0.492886	0.174725
Cl522	Cl	0.921525	-0.242886	0.424725
Cl523	Cl	1.171525	0.007114	0.674725
Cl524	Cl	1.421525	0.257114	0.924725
Cl525	Cl	0.669843	-0.632046	0.121107
Cl526	Cl	0.919843	-0.382046	0.371107
Cl527	Cl	1.169843	-0.132046	0.621107
Cl528	Cl	1.419843	0.117954	0.871107
H529	H	0.668394	-0.752971	0.097353
H530	H	0.918394	-0.502971	0.347353
H531	H	1.168394	-0.252971	0.597353
H532	H	1.418394	-0.002971	0.847353
Cl533	Cl	0.760219	-0.013703	0.145342
Cl534	Cl	1.010219	0.236297	0.395342
Cl535	Cl	1.260219	0.486297	0.645342
Cl536	Cl	1.510219	0.736297	0.895342
H537	H	0.742973	0.003516	0.271379
H538	H	0.992973	0.253516	0.521379
H539	H	1.242973	0.503516	0.771379
H540	H	1.492973	0.753516	1.021379
Cl541	Cl	0.799176	-0.052654	0.430159
Cl542	Cl	1.049176	0.197346	0.680159
Cl543	Cl	1.299176	0.447346	0.930159
Cl544	Cl	1.549176	0.697346	1.180159
H545	H	-0.059865	0.165717	0.000079
H546	H	0.190135	0.415717	0.250079
H547	H	0.440135	0.665717	0.500079
H548	H	0.690135	0.915717	0.750079
Cl549	Cl	-0.183919	0.187258	0.000082
Cl550	Cl	0.066081	0.437258	0.250082
Cl551	Cl	0.316081	0.687258	0.500082
Cl552	Cl	0.566081	0.937258	0.750082
Cl553	Cl	0.584447	0.161977	0.854788
Cl554	Cl	0.834447	0.411977	1.104788
Cl555	Cl	1.084447	0.661977	1.354788
Cl556	Cl	1.334447	0.911977	1.604788
Cl557	Cl	0.584427	0.161977	0.715047
Cl558	Cl	0.834427	0.411977	0.965047
Cl559	Cl	1.084427	0.661977	1.215047
Cl560	Cl	1.334427	0.911977	1.465047
Cl561	Cl	0.545458	0.200896	0.569962
Cl562	Cl	0.795458	0.450896	0.819962
Cl563	Cl	1.045458	0.700896	1.069962
Cl564	Cl	1.295458	0.950896	1.319962
Cl565	Cl	0.545450	0.200897	0.430221
Cl566	Cl	0.795450	0.450897	0.680221
Cl567	Cl	1.045450	0.700897	0.930221
Cl568	Cl	1.295450	0.950897	1.180221
H569	H	0.601654	0.144770	0.271433
H570	H	0.851654	0.394770	0.521433
H571	H	1.101654	0.644770	0.771433
H572	H	1.351654	0.894770	1.021433
Cl573	Cl	0.584398	0.162010	0.145388
Cl574	Cl	0.834398	0.412010	0.395388
Cl575	Cl	1.084398	0.662010	0.645388
Cl576	Cl	1.334398	0.912010	0.895388
H577	H	0.206291	0.220907	0.000066
H578	H	0.456291	0.470907	0.250066
H579	H	0.706291	0.720907	0.500066
H580	H	0.956291	0.970907	0.750066
Cl581	Cl	0.496623	0.195408	0.000045
Cl582	Cl	0.746623	0.445408	0.250045
Cl583	Cl	0.996623	0.695408	0.500045
Cl584	Cl	1.246623	0.945408	0.750045
