data_functionalizedCrystal
_audit_creation_method	'MofGen! by Chris Wilmer'
_symmetry_space_group_name_H-M	'P1'
_symmetry_Int_Tables_number	1
_symmetry_cell_setting	triclinic
loop_
_symmetry_equiv_pos_as_xyz
  x,y,z
_cell_length_a	12.759401
_cell_length_b	12.759400
_cell_length_c	19.805399
_cell_angle_alpha	90.022119
_cell_angle_beta	90.015508
_cell_angle_gamma	90.012209
loop_
_atom_site_label
_atom_site_type_symbol
_atom_site_fract_x
_atom_site_fract_y
_atom_site_fract_z
Zn1	Zn	1.606235	-0.418317	0.382672
Zn2	Zn	1.606143	-0.594011	0.269494
Zn3	Zn	1.430546	-0.418344	0.269505
Zn4	Zn	1.430530	-0.593952	0.382649
O5	O	1.518364	-0.506156	0.326080
O6	O	1.753244	-0.441637	0.367664
O7	O	1.582818	-0.570744	0.174779
O8	O	1.453897	-0.271319	0.284530
O9	O	1.753176	-0.570718	0.284513
O10	O	1.582974	-0.271300	0.367674
O11	O	1.453808	-0.441682	0.174787
O12	O	1.283523	-0.441625	0.284508
O13	O	1.453869	-0.570618	0.477369
O14	O	1.283511	-0.570643	0.367635
O15	O	1.582959	-0.441580	0.477386
O16	O	1.582803	-0.741024	0.284491
O17	O	1.453781	-0.740981	0.367625
C18	C	1.245396	-0.506131	0.326071
C19	C	1.128620	-0.506146	0.326083
C20	C	1.073786	-0.439060	0.369446
C21	C	0.964062	-0.439080	0.369451
C22	C	0.964015	-0.573281	0.282725
C23	C	1.073737	-0.573255	0.282718
C24	C	1.128668	-0.371952	0.412811
C25	C	1.073834	-0.304861	0.456179
C26	C	0.964110	-0.304881	0.456183
C27	C	0.909220	-0.371992	0.412819
C28	C	1.518309	-0.779123	0.326069
C29	C	1.518381	-0.895900	0.326087
C30	C	1.585558	-0.950672	0.369416
C31	C	1.585607	-1.060396	0.369432
C32	C	1.451299	-1.060566	0.282786
C33	C	1.451245	-0.950844	0.282774
C34	C	1.652694	-0.895728	0.412729
C35	C	1.719877	-0.950501	0.456061
C36	C	1.719926	-1.060225	0.456077
C37	C	1.652792	-1.115176	0.412762
C38	C	1.792397	-0.506181	0.326090
C39	C	1.909174	-0.506192	0.326094
C40	C	1.518423	-0.506090	0.502623
C41	C	1.518448	-0.506062	0.577855
C42	C	1.518448	-0.232123	0.326106
C43	C	1.518483	-0.115346	0.326116
C44	C	1.518365	-0.506146	0.150224
C45	C	1.518544	-0.505878	0.074992
C46	C	1.585666	-0.438868	0.613209
C47	C	1.585677	-0.438838	0.683897
C48	C	1.518474	-0.506007	0.719231
C49	C	1.451248	-0.573203	0.683872
C50	C	1.451233	-0.573227	0.613184
C51	C	1.451307	-0.573105	0.968945
C52	C	1.451330	-0.573078	1.039637
C53	C	1.585751	-0.438715	1.039658
C54	C	1.585736	-0.438740	0.968971
C55	C	1.518507	-0.505932	0.933618
C56	C	1.518495	-0.505963	0.856970
C57	C	1.518491	-0.505982	0.795878
H58	H	0.919315	-0.627921	0.247422
C59	C	1.378535	-1.120414	0.235783
C60	C	1.392981	-1.228227	0.245055
C61	C	1.325981	-1.283390	0.201759
H62	H	1.307883	-1.102602	0.245604
H63	H	1.393955	-1.102522	0.190298
H64	H	1.377554	-1.246112	0.290530
H65	H	1.463619	-1.246070	0.235229
H66	H	1.341401	-1.265497	0.156274
H67	H	1.255334	-1.265570	0.211584
H68	H	1.335781	-1.356546	0.208040
C69	C	1.133090	-0.646212	0.235617
C70	C	1.061545	-0.705018	0.197660
C71	C	1.116182	-0.772247	0.154269
H72	H	1.175881	-0.606071	0.206108
H73	H	1.175884	-0.692086	0.261444
H74	H	1.018769	-0.659150	0.171835
H75	H	1.018752	-0.745181	0.227152
H76	H	1.158977	-0.818120	0.180096
H77	H	1.158971	-0.732097	0.124764
H78	H	1.067648	-0.812161	0.128514
H79	H	1.640394	-0.384174	0.584446
C80	C	1.792719	-0.890655	0.503015
C81	C	1.778321	-0.782841	0.493715
C82	C	1.845415	-0.727682	0.536953
H83	H	1.777378	-0.908477	0.548514
H84	H	1.863350	-0.908540	0.493143
H85	H	1.707707	-0.764964	0.503592
H86	H	1.793670	-0.764988	0.448225
H87	H	1.916045	-0.745567	0.527081
H88	H	1.830068	-0.745513	0.582449
H89	H	1.835662	-0.654525	0.530645
C90	C	1.792800	-1.119560	0.503232
C91	C	1.769873	-1.092801	0.570184
C92	C	1.836998	-1.147427	0.613640
H93	H	1.783284	-1.192792	0.497132
H94	H	1.863408	-1.101516	0.493400
H95	H	1.699283	-1.110852	0.580013
H96	H	1.779396	-1.019579	0.576306
H97	H	1.907606	-1.129383	0.603808
H98	H	1.827477	-1.220656	0.607534
H99	H	1.821458	-1.129272	0.659071
C100	C	1.653023	-1.234307	0.412863
C101	C	1.726234	-1.270517	0.460073
C102	C	1.726486	-1.380250	0.460179
H103	H	1.585285	-1.259283	0.424560
H104	H	1.671292	-1.259205	0.369212
H105	H	1.707959	-1.245629	0.503715
H106	H	1.793983	-1.245569	0.448388
H107	H	1.744754	-1.405149	0.416528
H108	H	1.658744	-1.405217	0.471874
H109	H	1.776164	-1.404833	0.492206
H110	H	1.640463	-0.384047	0.940206
H111	H	0.919467	-0.250246	0.491490
H112	H	1.396543	-0.906248	0.247492
H113	H	1.396486	-0.627933	0.584400
H114	H	1.118533	-0.250216	0.491480
H115	H	1.218011	-0.371927	0.412812
H116	H	1.652664	-0.806385	0.412719
H117	H	1.640415	-0.384125	0.712679
C118	C	1.658621	-0.365790	1.078164
C119	C	1.644233	-0.380116	1.147632
C120	C	1.711332	-0.312950	1.183122
H121	H	1.729247	-0.381112	1.066667
H122	H	1.643255	-0.295180	1.066621
H123	H	1.659607	-0.450709	1.159170
H124	H	1.573621	-0.364786	1.159150
H125	H	1.695965	-0.242340	1.171579
H126	H	1.781954	-0.328277	1.171619
H127	H	1.701572	-0.322653	1.230260
C128	C	1.378263	-0.646154	0.930690
C129	C	1.319429	-0.704983	0.976766
C130	C	1.252128	-0.772290	0.941547
H131	H	1.332403	-0.606068	0.903122
H132	H	1.418386	-0.692009	0.903120
H133	H	1.279309	-0.659133	1.004324
H134	H	1.365261	-0.745090	1.004336
H135	H	1.292251	-0.818146	0.913977
H136	H	1.206275	-0.732196	0.913980
H137	H	1.212208	-0.812220	0.972804
H138	H	1.396601	-0.627777	1.068404
H139	H	0.819875	-0.371980	0.412812
C140	C	1.378395	-0.646089	0.722353
C141	C	1.392815	-0.631709	0.791826
C142	C	1.325731	-0.698846	0.827294
H143	H	1.307764	-0.630775	0.710847
H144	H	1.393756	-0.716708	0.710801
H145	H	1.377447	-0.561106	0.803374
H146	H	1.463432	-0.647030	0.803352
H147	H	1.341092	-0.769465	0.815741
H148	H	1.255104	-0.683527	0.815782
H149	H	1.335512	-0.689105	0.874434
