data_functionalizedCrystal
_audit_creation_method	'MofGen! by Chris Wilmer'
_symmetry_space_group_name_H-M	'P1'
_symmetry_Int_Tables_number	1
_symmetry_cell_setting	triclinic
loop_
_symmetry_equiv_pos_as_xyz
  x,y,z
_cell_length_a	15.297328
_cell_length_b	17.639874
_cell_length_c	17.640968
_cell_angle_alpha	87.863041
_cell_angle_beta	90.289131
_cell_angle_gamma	71.421639
loop_
_atom_site_label
_atom_site_type_symbol
_atom_site_fract_x
_atom_site_fract_y
_atom_site_fract_z
Zn1	Zn	-0.025621	-1.244806	-0.199602
Zn2	Zn	-0.209268	-1.197673	-0.104755
Zn3	Zn	-0.083518	-1.085402	-0.108375
Zn4	Zn	-0.197548	-1.097776	-0.255283
O5	O	-0.128989	-1.156414	-0.167004
O6	O	-0.030657	-1.347071	-0.162203
O7	O	-0.221723	-1.157875	-0.004060
O8	O	0.048741	-1.121094	-0.098689
O9	O	-0.165582	-1.312443	-0.092519
O10	O	0.091277	-1.238207	-0.165713
O11	O	-0.129335	-1.075391	-0.006719
O12	O	-0.117970	-0.978525	-0.152680
O13	O	-0.145606	-1.142184	-0.349072
O14	O	-0.201746	-0.987617	-0.260613
O15	O	-0.019292	-1.250206	-0.308164
O16	O	-0.332292	-1.169874	-0.146510
O17	O	-0.323681	-1.096481	-0.257103
C18	C	-0.164869	-0.954934	-0.213082
C19	C	-0.180236	-0.868741	-0.232815
C20	C	-0.012190	-0.561625	-0.017049
C21	C	-0.026644	-0.480634	-0.035604
C22	C	-0.114084	-0.490098	-0.147862
C23	C	-0.099633	-0.571092	-0.129318
C24	C	-0.048687	-0.606848	-0.063910
C25	C	-0.136130	-0.616316	-0.176180
C26	C	-0.121684	-0.697302	-0.157635
C27	C	-0.070742	-0.733064	-0.092229
C28	C	-0.034241	-0.687834	-0.045365
C29	C	-0.187081	-0.580556	-0.241585
C30	C	-0.223578	-0.625780	-0.288446
C31	C	-0.209127	-0.706769	-0.269905
C32	C	-0.158185	-0.742531	-0.204498
C33	C	-0.245628	-0.751998	-0.316768
C34	C	-0.231182	-0.832984	-0.298223
C35	C	-0.143739	-0.823517	-0.185953
C36	C	-0.360280	-1.129431	-0.207467
C37	C	-0.459208	-1.117964	-0.224785
C38	C	-0.501245	-1.074319	-0.290483
C39	C	-0.594190	-1.063551	-0.306760
C40	C	-0.645105	-1.096433	-0.257344
C41	C	-0.603067	-1.140084	-0.191647
C42	C	-0.510115	-1.150848	-0.175365
C43	C	-0.653976	-1.172962	-0.142226
C44	C	-0.611938	-1.216613	-0.076529
C45	C	-0.518994	-1.227376	-0.060250
C46	C	-0.468079	-1.194494	-0.109667
C47	C	-0.746928	-1.162198	-0.158508
C48	C	-0.755798	-1.238727	-0.043390
C49	C	-0.662853	-1.249495	-0.027113
C50	C	0.103214	-1.183528	-0.126394
C51	C	0.202165	-1.195082	-0.109088
C52	C	-0.074683	-1.202833	-0.355585
C53	C	-0.051541	-1.222614	-0.435947
C54	C	-0.092960	-0.358681	-0.120737
C55	C	-0.077583	-0.444874	-0.100997
C56	C	-0.304257	-1.006494	-0.806737
C57	C	-0.282498	-1.025099	-0.882243
C58	C	-0.150979	-1.137572	-0.839639
C59	C	-0.172724	-1.118975	-0.764127
C60	C	-0.249366	-1.053435	-0.747683
C61	C	-0.117833	-1.165916	-0.705073
C62	C	-0.139580	-1.147322	-0.629568
C63	C	-0.216219	-1.081786	-0.613116
C64	C	-0.271113	-1.034841	-0.672177
C65	C	-0.041196	-1.231458	-0.721519
C66	C	0.013696	-1.278399	-0.662465
C67	C	-0.008047	-1.259802	-0.586958
C68	C	-0.084686	-1.194267	-0.570507
C69	C	0.046847	-1.306748	-0.527897
C70	C	0.025100	-1.288154	-0.452392
C71	C	-0.106433	-1.175673	-0.495001
C72	C	-0.183011	-1.110228	0.020865
C73	C	-0.205875	-1.090626	0.101305
H74	H	0.007261	-0.716954	0.007888
H75	H	-0.333504	-0.981456	-0.658789
H76	H	0.109242	-1.360115	-0.541298
H77	H	-0.628615	-1.285037	0.026379
C78	C	-0.472756	-1.275386	0.012020
C79	C	-0.510386	-1.247408	0.090535
C80	C	-0.464151	-1.295419	0.162806
C81	C	-0.380288	-1.371407	0.156561
C82	C	-0.342654	-1.399389	0.078043
C83	C	-0.388888	-1.351379	0.005772
H84	H	-0.572471	-1.191153	0.095161
H85	H	-0.492011	-1.274704	0.220930
H86	H	-0.346062	-1.406948	0.210060
H87	H	-0.280568	-1.455644	0.073417
H88	H	-0.361028	-1.372093	-0.052353
C89	C	-0.640431	-1.015533	-0.379020
C90	C	-0.742672	-1.003683	-0.396926
C91	C	-0.788915	-0.955660	-0.469188
C92	C	-0.732917	-0.919488	-0.523545
C93	C	-0.630670	-0.931337	-0.505640
C94	C	-0.584427	-0.979360	-0.433378
H95	H	-0.784130	-1.030461	-0.356687
H96	H	-0.864605	-0.946889	-0.482442
H97	H	-0.767148	-0.883938	-0.577038
H98	H	-0.589211	-0.904559	-0.545879
H99	H	-0.508736	-0.988131	-0.420124
C100	C	-0.271321	-0.882740	-0.349770
C101	C	-0.340268	-0.922540	-0.317814
C102	C	-0.380410	-0.972296	-0.369360
C103	C	-0.351606	-0.982252	-0.452861
C104	C	-0.282656	-0.942451	-0.484821
C105	C	-0.242513	-0.892695	-0.433276
H106	H	-0.361594	-0.915170	-0.255998
H107	H	-0.431452	-1.001759	-0.345701
H108	H	-0.381322	-1.019085	-0.491019
H109	H	-0.261329	-0.949821	-0.546638
H110	H	-0.191471	-0.863232	-0.456935
C111	C	-0.793162	-1.114189	-0.230773
C112	C	-0.797901	-1.026038	-0.242750
C113	C	-0.844134	-0.978027	-0.315022
C114	C	-0.885627	-1.018169	-0.375316
C115	C	-0.880889	-1.106326	-0.363341
C116	C	-0.834656	-1.154336	-0.291070
H117	H	-0.767184	-0.996318	-0.198115
H118	H	-0.847641	-0.912768	-0.323886
H119	H	-0.919851	-0.982629	-0.428816
H120	H	-0.911606	-1.136045	-0.407977
H121	H	-0.831149	-1.219595	-0.282206
C122	C	-0.388562	-0.934402	-0.788628
C123	C	-0.394017	-0.849644	-0.817892
C124	C	-0.478318	-0.777559	-0.799776
C125	C	-0.557164	-0.790234	-0.752397
C126	C	-0.551712	-0.874996	-0.723131
C127	C	-0.467411	-0.947081	-0.741246
H128	H	-0.335648	-0.840258	-0.852967
H129	H	-0.482354	-0.714813	-0.821441
H130	H	-0.619569	-0.736873	-0.738987
H131	H	-0.610081	-0.884382	-0.688055
H132	H	-0.463375	-1.009827	-0.719581
C133	C	-0.342903	-0.973475	-0.947205
C134	C	-0.427219	-0.901401	-0.929112
C135	C	-0.487634	-0.849789	-0.994073
C136	C	-0.463734	-0.870253	-1.077127
C137	C	-0.379415	-0.942331	-1.095224
C138	C	-0.318999	-0.993942	-1.030263
H139	H	-0.444914	-0.886249	-0.867627
H140	H	-0.550053	-0.796432	-0.980676
H141	H	-0.508457	-0.832047	-1.125215
H142	H	-0.361719	-0.957482	-1.156708
H143	H	-0.256581	-1.047299	-1.043660
H144	H	-0.797254	-1.265502	-0.003151
H145	H	-0.088580	-1.190937	-0.853039
C146	C	-0.087688	-0.862854	-0.114006
C147	C	-0.132576	-0.900052	-0.051170
C148	C	-0.076526	-0.939387	0.020773
C149	C	0.024412	-0.941525	0.029880
C150	C	0.069306	-0.904326	-0.032959
C151	C	0.013256	-0.864990	-0.104902
H152	H	-0.207302	-0.898471	-0.057909
H153	H	-0.109761	-0.966925	0.067291
H154	H	0.065903	-0.970643	0.083137
H155	H	0.144032	-0.905907	-0.026219
H156	H	0.046490	-0.837453	-0.151419
H157	H	0.029312	-0.590744	0.036205
C158	C	-0.017270	-1.251920	-0.804574
C159	C	-0.087303	-1.272123	-0.856496
C160	C	-0.063378	-1.292587	-0.939550
C161	C	0.030580	-1.292848	-0.970682
C162	C	0.100618	-1.272644	-0.918759
C163	C	0.076693	-1.252180	-0.835705
H164	H	-0.156861	-1.271930	-0.833451
H165	H	-0.115225	-1.307543	-0.977986
H166	H	0.048290	-1.307996	-1.032163
H167	H	0.170176	-1.272837	-0.941804
H168	H	0.128540	-1.237224	-0.797268
H169	H	-0.058984	-0.799007	-0.077130
H170	H	-0.459785	-1.047545	-0.330709
H171	H	0.069799	-1.326377	-0.404307
C172	C	0.098000	-1.350489	-0.680560
C173	C	0.085221	-1.419651	-0.725285
C174	C	0.169529	-1.491740	-0.743379
C175	C	0.266615	-1.494665	-0.716746
C176	C	0.279397	-1.425500	-0.672018
C177	C	0.195090	-1.353412	-0.653925
H178	H	0.013349	-1.417488	-0.745002
H179	H	0.160066	-1.542940	-0.776489
H180	H	0.329024	-1.548029	-0.730140
H181	H	0.351270	-1.427663	-0.652301
H182	H	0.204553	-1.302211	-0.620814
H183	H	0.003087	-0.443817	0.002557
H184	H	-0.155568	-0.460973	-0.201116
H185	H	-0.198841	-0.514612	-0.256682
H186	H	-0.265062	-0.596655	-0.341700
C187	C	-0.301672	-0.712658	-0.388711
C188	C	-0.402610	-0.710521	-0.397824
C189	C	-0.458656	-0.671180	-0.469768
C190	C	-0.413764	-0.633977	-0.532598
C191	C	-0.312821	-0.636113	-0.523487
C192	C	-0.256775	-0.675453	-0.451543
H193	H	-0.435846	-0.738062	-0.351312
H194	H	-0.533381	-0.669600	-0.476512
H195	H	-0.455253	-0.604855	-0.585855
H196	H	-0.279585	-0.608571	-0.569999
H197	H	-0.182050	-0.677034	-0.444799
H198	H	-0.720785	-1.087664	-0.270602
H199	H	-0.392394	-1.203262	-0.096419
H200	H	-0.168824	-1.122288	-0.481613
H201	H	-0.233927	-1.066651	-0.551634
