data_functionalizedCrystal
_audit_creation_method	'MofGen! by Chris Wilmer'
_symmetry_space_group_name_H-M	'P1'
_symmetry_Int_Tables_number	1
_symmetry_cell_setting	triclinic
loop_
_symmetry_equiv_pos_as_xyz
  x,y,z
_cell_length_a	13.033293
_cell_length_b	13.897447
_cell_length_c	13.033429
_cell_angle_alpha	82.783407
_cell_angle_beta	90.866667
_cell_angle_gamma	97.189355
loop_
_atom_site_label
_atom_site_type_symbol
_atom_site_fract_x
_atom_site_fract_y
_atom_site_fract_z
Zn1	Zn	1.498530	-0.116815	-0.781533
Zn2	Zn	1.520250	-0.295766	-0.609551
Zn3	Zn	1.348371	-0.157180	-0.587697
Zn4	Zn	1.326515	-0.300788	-0.759600
O5	O	1.423417	-0.217637	-0.684595
O6	O	1.645333	-0.121559	-0.777044
O7	O	1.515687	-0.292174	-0.462735
O8	O	1.368347	-0.016833	-0.613442
O9	O	1.661290	-0.253034	-0.650689
O10	O	1.478668	0.012823	-0.755852
O11	O	1.389408	-0.190355	-0.446678
O12	O	1.201551	-0.195224	-0.592175
O13	O	1.331096	-0.261592	-0.906427
O14	O	1.185493	-0.300732	-0.718472
O15	O	1.457475	-0.126428	-0.922540
O16	O	1.494494	-0.431424	-0.629423
O17	O	1.352157	-0.435114	-0.739663
C18	C	1.156205	-0.252903	-0.650573
C19	C	1.041887	-0.268011	-0.636042
C20	C	0.983013	-0.209777	-0.692179
C21	C	0.864859	-0.225390	-0.677162
C22	C	1.423336	-0.468265	-0.684561
C23	C	1.423391	-0.575469	-0.684592
C24	C	1.423438	-0.662529	-0.684622
C25	C	1.423507	-0.771750	-0.684658
C26	C	1.691672	-0.182234	-0.718751
C27	C	1.805987	-0.167147	-0.733306
C28	C	1.389425	-0.190068	-0.952843
C29	C	1.374940	-0.178319	-1.067155
C30	C	1.423523	0.033975	-0.684656
C31	C	1.423568	0.141198	-0.684682
C32	C	1.415998	-0.211330	-1.244206
C33	C	1.430969	-0.223468	-1.126059
C34	C	1.457335	-0.245022	-0.417398
C35	C	1.472020	-0.256472	-0.303113
H36	H	1.004820	-0.329425	-0.576863
C37	C	1.287348	-0.107602	-1.217133
C38	C	1.336285	-0.147022	-1.294190
H39	H	1.238141	-0.067896	-1.247991
H40	H	1.253263	-0.159097	-1.170214
H41	H	1.337455	-0.069063	-1.180945
H42	H	1.286179	-0.185567	-1.330373
H43	H	1.370371	-0.095519	-1.341127
C44	C	1.140405	-0.127448	-0.771484
C45	C	1.033041	-0.126866	-0.772071
H46	H	1.171286	-0.076264	-0.820813
H47	H	1.166693	-0.118025	-0.704631
H48	H	1.156048	-0.188448	-0.788629
H49	H	1.017398	-0.065868	-0.754919
H50	H	1.006744	-0.136282	-0.838939
C51	C	0.745729	-0.372488	-0.647371
C52	C	0.814837	-0.308310	-0.597269
H53	H	0.714853	-0.423681	-0.598049
H54	H	0.693488	-0.337975	-0.680632
H55	H	0.781985	-0.399347	-0.697400
H56	H	0.778580	-0.281446	-0.547245
H57	H	0.867087	-0.342828	-0.563991
H58	H	1.490024	-0.271100	-1.089029
H59	H	0.843049	-0.105723	-0.792483
H60	H	1.315894	-0.130677	-1.104185
H61	H	1.531070	-0.304101	-1.266078
