data_functionalizedCrystal
_audit_creation_method	'MofGen! by Chris Wilmer'
_symmetry_space_group_name_H-M	'P1'
_symmetry_Int_Tables_number	1
_symmetry_cell_setting	triclinic
loop_
_symmetry_equiv_pos_as_xyz
  x,y,z
_cell_length_a	11.792241
_cell_length_b	11.792254
_cell_length_c	10.868271
_cell_angle_alpha	89.994692
_cell_angle_beta	89.999893
_cell_angle_gamma	84.196007
loop_
_atom_site_label
_atom_site_type_symbol
_atom_site_fract_x
_atom_site_fract_y
_atom_site_fract_z
O1	O	1.506915	0.155568	-0.102203
O2	O	2.006915	0.655568	0.397797
O3	O	1.176575	0.171600	-0.102232
O4	O	1.676575	0.671600	0.397768
O5	O	1.349754	-0.001586	-0.102208
O6	O	1.849754	0.498414	0.397792
O7	O	1.333736	0.328754	-0.102227
O8	O	1.833736	0.828754	0.397773
O9	O	1.349740	-0.001592	0.102436
O10	O	1.849740	0.498408	0.602436
O11	O	1.176561	0.171594	0.102413
O12	O	1.676561	0.671594	0.602413
O13	O	1.506901	0.155561	0.102441
O14	O	2.006901	0.655561	0.602441
Zn15	Zn	1.341729	0.163576	0.134919
Zn16	Zn	1.841729	0.663576	0.634919
Zn17	Zn	1.341748	0.163585	-0.134709
Zn18	Zn	1.841748	0.663585	0.365291
O19	O	1.333722	0.328747	0.102418
O20	O	1.833722	0.828747	0.602418
C21	C	1.134277	0.170590	0.000087
C22	C	1.634277	0.670590	0.500087
C23	C	1.008263	0.167576	0.000076
C24	C	1.508263	0.667576	0.500076
C25	C	1.348738	-0.043880	0.000114
C26	C	1.848738	0.456120	0.500114
C27	C	1.345718	-0.169893	0.000112
C28	C	1.845718	0.330107	0.500112
C29	C	1.343264	-0.272229	0.000108
C30	C	1.843264	0.227771	0.500108
C31	C	1.340196	-0.400616	0.000096
C32	C	1.840196	0.099384	0.500096
C33	C	0.777551	0.162033	0.000112
C34	C	1.277551	0.662033	0.500112
C35	C	0.905936	0.165112	0.000092
C36	C	1.405936	0.665112	0.500092
C37	C	1.549199	0.156571	0.000120
C38	C	2.049199	0.656571	0.500120
C39	C	1.675213	0.159586	0.000123
C40	C	2.175213	0.659586	0.500123
C41	C	1.334738	0.371041	0.000093
C42	C	1.834738	0.871041	0.500093
C43	C	1.337758	0.497054	0.000086
C44	C	1.837758	0.997054	0.500086
N45	N	1.341724	0.163569	0.318933
N46	N	1.841724	0.663569	0.818933
N47	N	1.341761	0.163583	-0.318724
N48	N	1.841761	0.663583	0.181276
C49	C	1.341742	0.163583	0.569939
C50	C	1.841742	0.663583	1.069939
C51	C	1.341728	0.163579	0.430261
C52	C	1.841728	0.663579	0.930261
