data_functionalizedCrystal
_audit_creation_method	'MofGen! by Chris Wilmer'
_symmetry_space_group_name_H-M	'P1'
_symmetry_Int_Tables_number	1
_symmetry_cell_setting	triclinic
loop_
_symmetry_equiv_pos_as_xyz
  x,y,z
_cell_length_a	10.489711
_cell_length_b	13.339070
_cell_length_c	9.565339
_cell_angle_alpha	89.997192
_cell_angle_beta	90.002987
_cell_angle_gamma	79.921848
loop_
_atom_site_label
_atom_site_type_symbol
_atom_site_fract_x
_atom_site_fract_y
_atom_site_fract_z
O1	O	0.641084	-1.346896	0.116266
O2	O	0.556939	-1.051763	0.116263
O3	O	0.415716	-1.206061	0.116269
O4	O	0.782307	-1.192599	0.116261
O5	O	0.415699	-1.206052	-0.116252
O6	O	0.556922	-1.051755	-0.116257
O7	O	0.641067	-1.346888	-0.116254
Zn8	Zn	0.598992	-1.199320	-0.153173
Zn9	Zn	0.599014	-1.199331	0.153182
O10	O	0.782290	-1.192590	-0.116259
C11	C	0.542716	-1.013967	0.000003
C12	C	0.500348	-0.901361	0.000003
N13	N	0.598978	-1.199319	-0.362252
C14	C	0.367829	-1.205046	0.000012
C15	C	0.225163	-1.202023	0.000024
C16	C	0.074543	-1.294813	0.000011
C17	C	0.150811	-1.248459	-0.114633
C18	C	0.150795	-1.248443	0.114614
C19	C	0.047232	-1.150232	-0.114741
C20	C	0.047211	-1.150230	0.114608
C21	C	0.123427	-1.103804	-0.000063
C22	C	0.830177	-1.193605	-0.000000
C23	C	0.972843	-1.196627	-0.000003
C24	C	0.655290	-1.384683	0.000009
C25	C	0.697658	-1.497290	0.000019
C26	C	0.829780	-0.538940	0.000018
C27	C	0.869591	-0.644739	0.000023
C28	C	0.777284	-0.708899	0.000017
C29	C	0.645159	-0.667250	0.000008
C30	C	0.605344	-0.561441	0.000014
C31	C	0.552847	-0.731400	0.000014
C32	C	0.420722	-0.689751	0.000004
C33	C	0.380914	-0.583952	0.000009
C34	C	0.473221	-0.519791	0.000015
C35	C	0.592662	-0.837210	0.000007
C36	C	0.368226	-0.859711	0.000004
C37	C	0.328415	-0.753912	-0.000001
N38	N	0.599020	-1.199340	0.362262
C39	C	0.533913	-1.270842	0.453421
C40	C	0.656422	-1.291121	0.546650
C41	C	0.476495	-1.179085	0.546588
C42	C	0.721604	-1.219665	0.453439
C43	C	0.541587	-1.107588	0.453368
C44	C	0.664166	-1.127829	0.546556
H45	H	0.052481	-1.375515	-0.000102
H46	H	0.809706	-0.795046	0.000025
N47	N	-0.012709	-1.095246	0.242992
H48	H	0.025174	-1.132401	0.329552
H49	H	-0.109435	-1.093016	0.241404
N50	N	0.929323	-0.469737	0.000035
H51	H	0.985313	-0.483216	-0.086156
H52	H	0.985219	-0.483272	0.086292
H53	H	0.195991	-1.290009	0.211534
H54	H	0.145239	-1.023030	-0.000128
N55	N	0.737183	-1.047714	0.600366
H56	H	0.812328	-1.081052	0.659851
H57	H	0.677216	-0.996524	0.658417
N58	N	1.012085	-0.689660	0.000054
H59	H	1.064521	-0.632963	0.000060
H60	H	1.033502	-0.733068	-0.086139
N61	N	0.339269	-1.156396	0.600797
H62	H	0.290194	-1.210462	0.566918
H63	H	0.295495	-1.087604	0.565397
N64	N	0.735161	-0.882117	0.000020
H65	H	0.777286	-0.858776	-0.086172
H66	H	0.746279	-0.958871	0.000072
N67	N	-0.012399	-1.095259	-0.243285
H68	H	0.057605	-1.072412	-0.301460
H69	H	-0.077692	-1.033937	-0.214111
N70	N	0.430278	-0.405676	-0.000024
H71	H	0.508806	-0.371356	-0.000036
H72	H	0.376605	-0.384680	0.086166
N73	N	0.238411	-0.539027	0.000017
H74	H	0.185974	-0.595723	0.000010
H75	H	0.217002	-0.495612	-0.086179
N76	N	0.185915	-0.708976	-0.000016
H77	H	0.164400	-0.665582	0.086179
H78	H	0.133561	-0.765721	-0.000076
H79	H	0.478972	-1.331358	0.412529
N80	N	0.210707	-1.303481	-0.243010
H81	H	0.193444	-1.375633	-0.242924
H82	H	0.307203	-1.304489	-0.242423
H83	H	0.704986	-1.368705	0.587624
N84	N	0.268652	-0.928899	0.000006
H85	H	0.313922	-1.002245	-0.000001
H86	H	0.212683	-0.915314	-0.086190
N87	N	0.477235	-1.004854	0.399032
H88	H	0.447212	-0.958380	0.480339
H89	H	0.400350	-1.013241	0.339386
N90	N	0.858911	-1.242462	0.399485
H91	H	0.858080	-1.242358	0.293899
H92	H	0.902325	-1.311510	0.434342
