data_functionalizedCrystal
_audit_creation_method	'MofGen! by Chris Wilmer'
_symmetry_space_group_name_H-M	'P1'
_symmetry_Int_Tables_number	1
_symmetry_cell_setting	triclinic
loop_
_symmetry_equiv_pos_as_xyz
  x,y,z
_cell_length_a	27.440280
_cell_length_b	16.704494
_cell_length_c	16.704479
_cell_angle_alpha	60.174845
_cell_angle_beta	90.004292
_cell_angle_gamma	63.425370
loop_
_atom_site_label
_atom_site_type_symbol
_atom_site_fract_x
_atom_site_fract_y
_atom_site_fract_z
Zr1	Zr	0.500951	0.863813	-0.142356
O2	O	0.431996	1.017951	-0.271802
O3	O	0.518302	0.701027	-0.097020
O4	O	0.528207	0.851323	-0.263628
O5	O	0.418587	0.880523	0.019799
O6	O	0.608409	0.851310	-0.263612
O7	O	0.422091	0.867654	-0.105194
O8	O	0.590690	0.582456	0.034421
O9	O	0.436305	1.149376	-0.278233
O10	O	0.590132	0.771176	-0.084503
O11	O	0.527663	0.780790	0.008765
O12	O	0.539325	0.957745	-0.187395
O13	O	0.476856	0.967359	-0.094127
Zr14	Zr	0.623275	0.884315	0.057019
Zr15	Zr	0.628864	0.863791	-0.142329
Zr16	Zr	0.495363	0.884337	0.056993
Zr17	Zr	0.507824	1.073421	-0.152613
Zr18	Zr	0.616403	0.674707	0.067276
O19	O	0.605925	1.047101	0.011683
O20	O	0.613871	1.017920	-0.271765
O21	O	0.424050	1.047133	0.011646
O22	O	0.692231	0.730177	0.186465
O23	O	0.700177	0.700995	-0.096982
O24	O	0.510355	0.730208	0.186428
O25	O	0.705640	0.867606	-0.105135
O26	O	0.596020	0.896805	0.178291
O27	O	0.515818	0.896818	0.178275
O28	O	0.702136	0.880474	0.019857
O29	O	0.537979	1.149358	-0.278213
O30	O	0.586248	0.598770	0.192876
O31	O	0.687922	0.598752	0.192897
O32	O	0.692364	0.582439	0.034441
O33	O	0.431863	1.165689	-0.119778
O34	O	0.533536	1.165672	-0.119757
O35	O	0.584902	0.790383	0.102058
O36	O	0.647371	0.780769	0.008790
O37	O	0.596564	0.967338	-0.094102
O38	O	0.534095	0.976952	-0.000834
C39	C	0.553517	0.611877	-0.029838
C40	C	0.550599	0.522893	-0.025483
C41	C	0.610348	0.345631	-0.114667
C42	C	0.607609	0.262022	-0.110578
C43	C	0.542384	0.272061	-0.013211
C44	C	0.545124	0.355669	-0.017300
C45	C	0.579106	0.392452	-0.068031
C46	C	0.581842	0.476067	-0.072125
C47	C	0.516621	0.486099	0.025247
C48	C	0.513882	0.402491	0.029336
C49	C	0.402114	0.874092	-0.042701
C50	C	0.347812	0.874101	-0.042712
C51	C	0.037631	0.776661	0.011067
C52	C	-0.013388	0.776656	0.011075
O53	O	-0.017222	0.693835	0.056781
N54	N	-0.065425	0.874041	-0.042634
C55	C	-0.066443	0.971440	-0.096348
O56	O	-0.115390	1.054273	-0.142030
C57	C	-0.015425	0.971444	-0.096350
C58	C	0.036612	0.874052	-0.042645
C59	C	0.089666	0.679276	0.064768
C60	C	0.140681	0.679282	0.064758
C61	C	0.139662	0.776672	0.011046
C62	C	0.087627	0.874057	-0.042655
C63	C	-0.016444	1.068842	-0.150058
C64	C	0.034580	1.068839	-0.150055
C65	C	0.086617	0.971446	-0.096350
C66	C	0.137623	0.971453	-0.096377
N67	N	0.189660	0.874068	-0.042668
C68	C	0.190680	0.776677	0.011044
C69	C	-0.173583	0.971422	-0.096337
C70	C	-0.224600	0.971418	-0.096341
C71	C	-0.171541	0.776634	0.011084
C72	C	-0.120523	0.776639	0.011082
C73	C	-0.121545	0.874037	-0.042628
C74	C	0.297814	0.776696	0.011018
C75	C	0.348831	0.776710	0.011000
C76	C	0.295768	0.971494	-0.096421
C77	C	0.244755	0.971481	-0.096407
C78	C	0.245781	0.874073	-0.042680
O79	O	0.141501	1.054232	-0.142056
O80	O	0.239629	0.693859	0.056729
C81	C	0.722113	0.874037	-0.042636
C82	C	0.776415	0.874027	-0.042624
C83	C	0.569104	0.848392	-0.292023
C84	C	0.571477	0.839680	-0.376651
C85	C	0.570710	1.136251	-0.055499
C86	C	0.573627	1.225235	-0.059853
C87	C	0.601341	0.730021	-0.442229
C88	C	0.599113	0.738201	-0.362709
C89	C	0.546068	0.932986	-0.470123
C90	C	0.548297	0.924806	-0.549643
C91	C	0.575934	0.823321	-0.535691
C92	C	0.578158	0.815142	-0.615213
C93	C	0.525118	1.009926	-0.722625
C94	C	0.522889	1.018106	-0.643106
C95	C	0.555123	0.899736	0.206686
C96	C	0.552750	0.908448	0.291315
C97	C	0.713516	0.611849	-0.029805
C98	C	0.764901	0.522856	-0.025440
C99	C	0.546526	0.637549	0.219516
C100	C	0.541236	0.557278	0.308500
C101	C	0.706526	0.637521	0.219549
C102	C	0.755538	0.557241	0.308543
C103	C	0.417701	1.110607	-0.304886
C104	C	0.368689	1.190887	-0.393880
C105	C	0.410710	1.136279	-0.055531
C106	C	0.359326	1.225272	-0.059897
C107	C	0.577700	1.110579	-0.304853
C108	C	0.582990	1.190851	-0.393836
C109	C	0.759154	0.476056	-0.072096
C110	C	0.807431	0.392447	-0.068013
C111	C	0.861455	0.355635	-0.017268
C112	C	0.867201	0.402444	0.029389
C113	C	0.818924	0.486056	0.025300
C114	C	0.568630	0.524590	0.398993
C115	C	0.563657	0.449179	0.482609
C116	C	0.531294	0.406452	0.475730
C117	C	0.503897	0.439147	0.385227
C118	C	0.508867	0.514562	0.301612
C119	C	0.811168	0.514522	0.301651
C120	C	0.857226	0.439101	0.385262
C121	C	0.847652	0.406394	0.475765
C122	C	0.792016	0.449121	0.482656
C123	C	0.745960	0.524546	0.399045
C124	C	0.313059	1.233616	-0.386988
C125	C	0.267002	1.309064	-0.470601
C126	C	0.276576	1.341775	-0.561104
C127	C	0.332212	1.299042	-0.567994
C128	C	0.378268	1.223602	-0.484383
C129	C	0.365073	1.272080	-0.013250
C130	C	0.316797	1.355710	-0.017356
C131	C	0.262774	1.392525	-0.068103
C132	C	0.257028	1.345712	-0.114757
C133	C	0.305303	1.262089	-0.110656
C134	C	0.615358	1.233554	-0.386926
C135	C	0.620340	1.308967	-0.470527
C136	C	0.592950	1.341681	-0.561037
C137	C	0.560581	1.298969	-0.567945
C138	C	0.555603	1.223551	-0.484345
H139	H	0.609511	0.506018	-0.113436
C140	C	0.439460	1.176595	-0.491979
N141	N	0.485549	1.141190	-0.497708
C142	C	0.476501	0.362022	0.085133
N143	N	0.448344	0.331546	0.127158
H144	H	-0.058806	1.148150	-0.193790
C145	C	0.608560	0.703507	-0.599864
N146	N	0.631462	0.619420	-0.588299
C147	C	0.898321	0.323414	0.567732
N148	N	0.936488	0.260909	0.636998
H149	H	0.514724	0.242086	0.028104
H150	H	0.902523	0.404319	0.379635
H151	H	0.239070	1.403203	-0.629178
C152	C	0.406072	0.669567	0.070085
N153	N	0.449183	0.588868	0.114589
H154	H	0.700664	0.559319	0.404670
H155	H	0.637663	1.206932	-0.313235
H156	H	0.500390	1.100732	-0.654452
C157	C	0.424495	1.231606	0.042575
N158	N	0.469250	1.201131	0.084619
C159	C	0.781494	0.413123	0.582219
N160	N	0.773570	0.386000	0.657213
H161	H	0.911193	0.372459	0.070704
C162	C	0.302514	1.197656	-0.287443
N163	N	0.294567	1.170583	-0.212468
H164	H	0.486561	0.541165	0.227932
C165	C	0.342734	1.335025	-0.667557
N166	N	0.350657	1.362123	-0.742550
C167	C	0.655945	1.355943	-0.462906
N168	N	0.682762	1.391323	-0.457164
C169	C	0.914555	0.263650	-0.012772
N170	N	0.954548	0.194363	-0.009384
H171	H	0.638014	0.375587	-0.155982
C172	C	0.699733	0.516538	-0.127928
N173	N	0.654978	0.547029	-0.169990
C174	C	0.641973	0.210529	-0.161890
N175	N	0.667856	0.171746	-0.200543
H176	H	0.221705	1.343844	-0.464972
H177	H	0.321487	1.393812	0.020639
H178	H	0.223469	1.460617	-0.071435
H179	H	0.491179	0.524235	0.063217
C180	C	-0.170429	0.669502	0.070177
N181	N	-0.169595	0.588816	0.114683
H182	H	0.802742	0.354344	-0.106007
C183	C	0.197595	1.386207	-0.170561
N184	N	0.152829	1.416702	-0.212583
H185	H	0.300616	1.223980	-0.148640
H186	H	0.823611	0.524152	0.063299
H187	H	0.594983	0.559371	0.404613
C188	C	0.298952	0.669543	0.070112
N189	N	0.299809	0.588833	0.114616
H190	H	0.597008	1.403091	-0.629102
C191	C	0.530479	1.334925	-0.667515
N192	N	0.507813	1.361998	-0.742513
C193	C	0.468302	0.392130	0.377676
N194	N	0.441495	0.356708	0.371992
C195	C	0.033450	1.175987	-0.209145
N196	N	0.032597	1.256690	-0.253655
C197	C	0.197917	0.572142	0.123848
N198	N	0.241025	0.491439	0.168361
H199	H	0.090505	0.599965	0.108512
H200	H	0.529244	1.188790	-0.489985
H201	H	-0.078156	0.697334	0.054821
H202	H	0.619802	0.662227	-0.286610
C203	C	-0.174715	1.078573	-0.155441
N204	N	-0.175571	1.159279	-0.199960
C205	C	0.187512	1.078616	-0.155489
N206	N	0.144400	1.159314	-0.199982
C207	C	0.631739	0.618388	-0.426884
N208	N	0.654635	0.534303	-0.415324
H209	H	-0.266966	1.050724	-0.140085
H210	H	0.818974	0.541140	0.227967
C211	C	0.593804	0.413218	0.582154
N212	N	0.616513	0.386132	0.657128
C213	C	0.525839	0.323482	0.567719
N214	N	0.521735	0.260985	0.637008
H215	H	0.294948	1.050787	-0.140155
H216	H	0.523574	1.015610	-0.481466
H217	H	0.504424	1.085898	-0.798735
