data_functionalizedCrystal
_audit_creation_method	'MofGen! by Chris Wilmer'
_symmetry_space_group_name_H-M	'P1'
_symmetry_Int_Tables_number	1
_symmetry_cell_setting	triclinic
loop_
_symmetry_equiv_pos_as_xyz
  x,y,z
_cell_length_a	17.917603
_cell_length_b	17.052862
_cell_length_c	17.917603
_cell_angle_alpha	53.593295
_cell_angle_beta	90.239941
_cell_angle_gamma	67.577043
loop_
_atom_site_label
_atom_site_type_symbol
_atom_site_fract_x
_atom_site_fract_y
_atom_site_fract_z
Zr1	Zr	0.879688	0.776575	-0.162328
O2	O	0.785826	0.939442	-0.303037
O3	O	0.890737	0.613709	-0.104429
O4	O	0.921075	0.761721	-0.272688
O5	O	0.751719	0.803147	-0.018845
O6	O	1.047926	0.750003	-0.265543
O7	O	0.755487	0.791430	-0.134777
O8	O	0.993656	0.485236	0.035442
O9	O	0.805989	1.067914	-0.319831
O10	O	1.011531	0.671953	-0.092241
O11	O	0.914052	0.689442	-0.011054
O12	O	0.949771	0.863707	-0.209158
O13	O	0.852292	0.881197	-0.127972
Zr14	Zr	1.075989	0.776574	0.033966
Zr15	Zr	1.082000	0.757887	-0.150932
Zr16	Zr	0.873678	0.795263	0.022570
Zr17	Zr	0.911846	0.981473	-0.189113
Zr18	Zr	1.043832	0.571677	0.060751
O19	O	1.064940	0.939441	-0.023933
O20	O	1.073486	0.912869	-0.286834
O21	O	0.777279	0.966013	-0.040136
O22	O	1.169851	0.613707	0.174675
O23	O	1.178398	0.587136	-0.088226
O24	O	0.882191	0.640280	0.158472
O25	O	1.203959	0.750002	-0.109516
O26	O	1.034602	0.791429	0.144327
O27	O	0.907752	0.803146	0.137182
O28	O	1.200190	0.761720	0.006415
O29	O	0.966799	1.053059	-0.310773
O30	O	0.988878	0.500091	0.182411
O31	O	1.149689	0.485236	0.191469
O32	O	1.154466	0.470381	0.044500
O33	O	0.801211	1.082768	-0.172862
O34	O	0.962022	1.067913	-0.163804
O35	O	1.005906	0.689442	0.080797
O36	O	1.103385	0.671953	-0.000390
O37	O	1.041626	0.863707	-0.117307
O38	O	0.944146	0.881196	-0.036121
C39	C	0.937614	0.520279	-0.030677
C40	C	0.923963	0.433294	-0.019306
C41	C	1.089012	0.151590	-0.156780
C42	C	1.101837	0.233321	-0.167470
C43	C	1.057370	0.283318	-0.130430
C44	C	1.000075	0.251577	-0.082698
C45	C	0.987244	0.169845	-0.072014
C46	C	0.955602	0.301572	-0.045664
C47	C	0.898307	0.269832	0.002068
C48	C	0.885480	0.188107	0.012751
C49	C	0.929947	0.138110	-0.024289
C50	C	0.968433	0.383305	-0.056348
C51	C	0.866665	0.401559	0.028419
C52	C	0.853840	0.319829	0.039109
C53	C	0.724778	0.799951	-0.078435
C54	C	0.638891	0.807885	-0.083273
C55	C	0.481653	0.822377	-0.092108
C56	C	0.474018	0.730777	-0.036257
C57	C	0.386525	0.738841	-0.041173
C58	C	0.569153	0.814316	-0.087193
C59	C	1.230899	0.753198	-0.049927
C60	C	1.316786	0.745265	-0.045089
C61	C	0.985357	0.753199	-0.295460
C62	C	0.987908	0.745266	-0.373954
C63	C	1.018063	1.032870	-0.097685
C64	C	1.031714	1.119855	-0.109056
C65	C	0.992589	0.730773	-0.517688
C66	C	0.963090	0.822372	-0.610676
C67	C	0.965694	0.814308	-0.690655
C68	C	0.989985	0.738834	-0.437700
C69	C	0.970320	0.799950	0.167098
C70	C	0.967769	0.807884	0.245592
C71	C	1.190675	0.496902	-0.016423
C72	C	1.262910	0.401984	-0.000214
C73	C	0.930096	0.543654	0.200602
C74	C	0.913893	0.464603	0.290467
C75	C	1.183157	0.520278	0.214856
C76	C	1.252840	0.433293	0.309559
C77	C	0.772520	1.032871	-0.343218
C78	C	0.702837	1.119856	-0.437920
C79	C	0.765002	1.056247	-0.111939
C80	C	0.692767	1.151165	-0.128147
C81	C	1.025581	1.009495	-0.328964
C82	C	1.041784	1.088546	-0.418829
C83	C	1.248885	0.357409	-0.040556
C84	C	1.316752	0.268234	-0.025345
C85	C	1.398642	0.223630	0.030213
C86	C	1.412666	0.268214	0.070554
C87	C	1.344801	0.357392	0.055337
C88	C	0.954230	0.427481	0.380621
C89	C	0.939004	0.353216	0.465064
C90	C	0.883444	0.316070	0.459352
C91	C	0.843102	0.353200	0.369187
C92	C	0.858324	0.427469	0.284745
C93	C	1.336456	0.383314	0.311654
C94	C	1.401940	0.301593	0.400629
C95	C	1.383806	0.269846	0.487508
C96	C	1.300183	0.319834	0.485410
C97	C	1.234701	0.401559	0.396435
C98	C	0.619223	1.169845	-0.440017
C99	C	0.553742	1.251592	-0.528995
C100	C	0.571877	1.283343	-0.615875
C101	C	0.655500	1.233350	-0.613776
C102	C	0.720980	1.151610	-0.524799
C103	C	0.706793	1.195748	-0.087815
C104	C	0.638931	1.284944	-0.103049
C105	C	0.557041	1.329550	-0.158609
C106	C	0.543017	1.284963	-0.198947
C107	C	0.610880	1.195774	-0.183719
C108	C	1.097349	1.125668	-0.413085
C109	C	1.112590	1.199933	-0.497513
C110	C	1.072261	1.237081	-0.587685
C111	C	1.016694	1.199950	-0.593427
C112	C	1.001458	1.125681	-0.508998
H113	H	1.015082	0.409141	-0.095212
C114	C	0.553952	0.616651	0.033321
C115	C	0.567585	0.541200	0.143912
C116	C	0.647522	0.427079	0.213482
C117	C	0.713827	0.388409	0.172463
C118	C	0.700196	0.463862	0.061866
C119	C	0.620259	0.577982	-0.007705
H120	H	0.518501	0.569824	0.174282
H121	H	0.657613	0.371224	0.295353
H122	H	0.773001	0.303930	0.223963
H123	H	0.749280	0.435237	0.031496
H124	H	0.610169	0.633837	-0.089576
H125	H	0.825477	0.457684	0.211342
C126	C	0.940324	1.084864	-0.515329
C127	C	0.895963	1.125740	-0.614522
C128	C	0.834826	1.084928	-0.620860
C129	C	0.818051	1.003239	-0.528006
C130	C	0.862413	0.962358	-0.428806
C131	C	0.923550	1.003171	-0.422467
H132	H	0.908380	1.186214	-0.683265
H133	H	0.801986	1.115191	-0.694296
H134	H	0.772794	0.973028	-0.532698
H135	H	0.849996	0.901884	-0.360063
H136	H	0.956390	0.972907	-0.349032
C137	C	1.473288	0.125525	0.046953
C138	C	1.496791	0.137753	-0.040704
C139	C	1.571431	0.039645	-0.023964
C140	C	1.622569	-0.070691	0.080434
C141	C	1.599066	-0.082924	0.168098
C142	C	1.524426	0.015184	0.151358
H143	H	1.458935	0.219435	-0.117992
H144	H	1.588829	0.048702	-0.088859
H145	H	1.677822	-0.143316	0.092826
H146	H	1.636922	-0.164606	0.245386
H147	H	1.507028	0.006128	0.216253
C148	C	1.502746	0.219130	0.131680
C149	C	1.577384	0.121024	0.148424
C150	C	1.667464	0.071929	0.209560
C151	C	1.682905	0.120940	0.253952
C152	C	1.608264	0.219051	0.237209
C153	C	1.518185	0.268146	0.176073
H154	H	1.565955	0.084738	0.115561
H155	H	1.722717	-0.000700	0.221953
H156	H	1.749587	0.084597	0.299208
H157	H	1.619693	0.255337	0.270072
H158	H	1.462931	0.340775	0.163680
C159	C	0.482395	1.427653	-0.175347
C160	C	0.497832	1.476678	-0.130969
C161	C	0.423189	1.574777	-0.147699
C162	C	0.333109	1.623849	-0.208807
C163	C	0.317667	1.574823	-0.253189
C164	C	0.392310	1.476725	-0.236459
H165	H	0.564519	1.440352	-0.085730
H166	H	0.434621	1.611068	-0.114844
H167	H	0.277853	1.696467	-0.221192
H168	H	0.250980	1.611150	-0.298429
H169	H	0.380879	1.440433	-0.269314
H170	H	1.182214	0.393723	-0.085807
H171	H	1.351237	0.409149	0.240922
H172	H	0.789060	1.110908	-0.523103
H173	H	1.356231	0.393675	0.088196
H174	H	0.670256	1.259212	-0.684524
H175	H	0.485658	1.292284	-0.530686
C176	C	1.089022	1.318785	-0.680553
C177	C	1.127025	1.286078	-0.740805
C178	C	1.143787	1.367784	-0.833668
C179	C	1.122546	1.482199	-0.866280
C180	C	1.084540	1.514912	-0.806027
C181	C	1.067778	1.433205	-0.713164
H182	H	1.142751	1.201376	-0.716664
H183	H	1.171921	1.343568	-0.878271
H184	H	1.134954	1.542683	-0.935023
H185	H	1.068814	1.599613	-0.830168
H186	H	1.039644	1.457422	-0.668561
H187	H	1.067815	0.349866	-0.139137
H188	H	1.130192	1.095435	-0.339670
C189	C	1.015345	0.468337	0.386921
C190	C	1.059700	0.427499	0.486099
C191	C	1.120812	0.468355	0.492407
C192	C	1.137568	0.550050	0.399538
C193	C	1.093212	0.590893	0.300353
C194	C	1.032100	0.550036	0.294044
H195	H	1.047297	0.367019	0.554853
H196	H	1.153647	0.438120	0.565831
H197	H	1.182807	0.580294	0.404207
H198	H	1.105615	0.651372	0.231598
H199	H	0.999264	0.580271	0.220620
H200	H	1.305317	0.231945	-0.058199
H201	H	0.599447	1.159478	-0.216561
H202	H	1.157836	1.230158	-0.492820
C203	C	0.452932	1.334030	-0.260050
C204	C	0.405637	1.456622	-0.353353
C205	C	0.315549	1.505685	-0.414447
C206	C	0.272755	1.432156	-0.382239
C207	C	0.320050	1.309557	-0.288931
C208	C	0.410138	1.260494	-0.227837
H209	H	0.437316	1.511058	-0.377200
H210	H	0.280538	1.596441	-0.483520
H211	H	0.206066	1.468475	-0.427464
H212	H	0.288371	1.255120	-0.265084
H213	H	0.445149	1.169738	-0.158764
H214	H	0.604440	1.143999	-0.369284
H215	H	0.971861	0.322993	0.538472
C216	C	0.499842	1.373252	-0.713746
C217	C	0.407860	1.428176	-0.716034
C218	C	0.335821	1.518082	-0.813900
C219	C	0.355764	1.553064	-0.909478
C220	C	0.447750	1.498139	-0.907193
C221	C	0.519789	1.408233	-0.809327
H222	H	0.393094	1.402281	-0.645278
H223	H	0.267727	1.558741	-0.815590
H224	H	0.302437	1.619618	-0.981924
H225	H	0.462517	1.524034	-0.977949
H226	H	0.587883	1.367574	-0.807637
H227	H	0.773465	1.159437	-0.042567
C228	C	0.866710	0.234366	0.552246
C229	C	0.887965	0.119931	0.584899
C230	C	0.871238	0.038223	0.677797
C231	C	0.833256	0.070951	0.738043
C232	C	0.811999	0.185391	0.705392
C233	C	0.828726	0.267098	0.612494
H234	H	0.916084	0.095699	0.540300
H235	H	0.886975	-0.046493	0.701967
H236	H	0.820874	0.010466	0.806812
H237	H	0.783880	0.209623	0.749991
H238	H	0.812989	0.351815	0.588323
H239	H	0.919512	0.071552	-0.015582
H240	H	0.422485	0.906847	-0.143612
H241	H	1.148485	0.259162	-0.206334
H242	H	1.019797	0.646302	-0.498147
C243	C	1.455842	0.179939	0.585378
C244	C	1.547815	0.124963	0.587673
C245	C	1.619853	0.035053	0.685540
C246	C	1.599918	0.000118	0.781112
C247	C	1.507940	0.055095	0.778820
C248	C	1.435902	0.145006	0.680954
H249	H	1.562576	0.150823	0.516922
H250	H	1.687942	-0.005645	0.687235
H251	H	1.653245	-0.066439	0.853558
H252	H	1.493179	0.029236	0.849571
H253	H	1.367814	0.185703	0.679258
H254	H	0.935876	0.906850	-0.630219
H255	H	0.983862	1.230207	-0.666856
H256	H	1.125207	0.110884	-0.186941
H257	H	0.838820	0.162275	0.051609
H258	H	0.807190	0.293975	0.077971
H259	H	0.830454	0.442270	0.058577
H260	H	0.797864	0.322945	0.364551
H261	H	1.470025	0.260900	0.402321
H262	H	1.285430	0.293974	0.556159
H263	H	1.166618	0.442243	0.394743
H264	H	0.650366	1.321232	-0.070195
