data_functionalizedCrystal
_audit_creation_method	'MofGen! by Chris Wilmer'
_symmetry_space_group_name_H-M	'P1'
_symmetry_Int_Tables_number	1
_symmetry_cell_setting	triclinic
loop_
_symmetry_equiv_pos_as_xyz
  x,y,z
_cell_length_a	17.038272
_cell_length_b	11.026607
_cell_length_c	9.482900
_cell_angle_alpha	101.363848
_cell_angle_beta	100.012096
_cell_angle_gamma	80.151214
loop_
_atom_site_label
_atom_site_type_symbol
_atom_site_fract_x
_atom_site_fract_y
_atom_site_fract_z
O1	O	0.322506	-1.662374	-0.120910
O2	O	0.822506	-1.162374	0.379090
O3	O	0.284676	-1.305163	-0.120910
O4	O	0.784676	-0.805163	0.379090
O5	O	0.189477	-1.481644	-0.120899
O6	O	0.689477	-0.981644	0.379101
O7	O	0.417705	-1.485893	-0.120922
O8	O	0.917705	-0.985893	0.379078
O9	O	0.208914	-1.445807	0.120891
O10	O	0.708914	-0.945807	0.620891
O11	O	0.304112	-1.269325	0.120880
O12	O	0.804112	-0.769325	0.620880
O13	O	0.341943	-1.626537	0.120880
O14	O	0.841943	-1.126537	0.620880
Cu15	Cu	0.324802	-1.444659	0.142957
Cu16	Cu	0.824802	-0.944659	0.642957
Cu17	Cu	0.301816	-1.487041	-0.142988
Cu18	Cu	0.801816	-0.987041	0.357012
O19	O	0.437141	-1.450056	0.120868
O20	O	0.937141	-0.950056	0.620868
C21	C	0.287415	-1.241313	-0.000015
C22	C	0.787415	-0.741313	0.499985
C23	C	0.266610	-1.104451	-0.000015
C24	C	0.766610	-0.604451	0.499985
C25	C	0.169523	-1.459863	-0.000004
C26	C	0.669523	-0.959863	0.499996
C27	C	0.081107	-1.448341	-0.000004
C28	C	0.581107	-0.948341	0.499996
N29	N	0.340969	-1.414859	0.344075
N30	N	0.840969	-0.914859	0.844075
C31	C	0.045899	-1.554125	-0.000003
C32	C	0.545899	-1.054125	0.499997
C33	C	-0.037179	-1.543294	-0.000016
C34	C	0.462821	-1.043294	0.499984
C35	C	-0.085048	-1.426676	-0.000021
C36	C	0.414952	-0.926676	0.499979
C37	C	-0.049835	-1.320885	-0.000027
C38	C	0.450165	-0.820885	0.499973
C39	C	0.033241	-1.331719	-0.000024
C40	C	0.533241	-0.831719	0.499976
C41	C	-0.336201	-1.388403	-0.000041
C42	C	0.163799	-0.888403	0.499959
C43	C	-0.419281	-1.377576	-0.000040
C44	C	0.080719	-0.877576	0.499960
C45	C	-0.406621	-1.599987	-0.000032
C46	C	0.093379	-1.099987	0.499968
C47	C	-0.323543	-1.610809	-0.000020
C48	C	0.176457	-1.110809	0.499980
C49	C	-0.288338	-1.505019	-0.000034
C50	C	0.211662	-1.005019	0.499966
C51	C	-0.169967	-1.415602	-0.000031
C52	C	0.330033	-0.915602	0.499969
C53	C	-0.203421	-1.516096	-0.000034
C54	C	0.296579	-1.016096	0.499966
C55	C	0.457095	-1.471837	-0.000030
C56	C	0.957095	-0.971837	0.499970
C57	C	0.545511	-1.483360	-0.000039
C58	C	1.045511	-0.983360	0.499961
C59	C	0.339203	-1.690388	-0.000018
C60	C	0.839203	-1.190388	0.499982
C61	C	0.360008	-1.827251	-0.000028
C62	C	0.860008	-1.327251	0.499972
C63	C	0.324055	-1.036577	-0.000022
C64	C	0.824055	-0.536577	0.499978
C65	C	0.302554	-0.895123	-0.000021
C66	C	0.802554	-0.395123	0.499979
N67	N	0.285644	-1.516850	-0.344106
N68	N	0.785644	-1.016850	0.155894
C69	C	0.306580	-1.478242	0.416279
C70	C	0.806580	-0.978242	0.916279
C71	C	0.320039	-1.453458	0.583695
C72	C	0.820039	-0.953458	1.083695
H73	H	0.084868	-1.649086	0.000010
H74	H	0.584868	-1.149086	0.500010
Cl75	Cl	0.202039	-0.823170	-0.000001
Cl76	Cl	0.702039	-0.323170	0.499999
Cl77	Cl	0.460526	-0.899195	-0.000018
Cl78	Cl	0.960526	-0.399195	0.499982
H79	H	0.061906	-1.245579	-0.000025
H80	H	0.561906	-0.745579	0.499975
Cl81	Cl	-0.450884	-1.732971	-0.000019
Cl82	Cl	0.049116	-1.232971	0.499981
Cl83	Cl	0.401807	-1.302740	0.439982
Cl84	Cl	0.901807	-0.802740	0.939982
H85	H	0.389155	-1.083189	-0.000020
H86	H	0.889155	-0.583189	0.499980
Cl87	Cl	-0.479458	-1.230959	-0.000038
Cl88	Cl	0.020542	-0.730959	0.499962
Cl89	Cl	0.166099	-1.032493	0.000006
Cl90	Cl	0.666099	-0.532493	0.500006
Cl91	Cl	0.245521	-1.590058	0.320373
Cl92	Cl	0.745521	-1.090058	0.820373
Cl93	Cl	0.380879	-1.341334	0.679596
Cl94	Cl	0.880879	-0.841334	1.179596
Cl95	Cl	0.225004	-1.629247	0.559998
Cl96	Cl	0.725004	-1.129247	1.059998
H97	H	-0.284574	-1.705771	-0.000016
H98	H	0.215426	-1.205771	0.499984
Cl99	Cl	-0.081437	-1.676286	-0.000010
Cl100	Cl	0.418563	-1.176286	0.499990
Cl101	Cl	-0.291954	-1.255409	-0.000062
Cl102	Cl	0.208046	-0.755409	0.499938
H103	H	-0.088816	-1.225934	-0.000041
H104	H	0.411184	-0.725934	0.499959
H105	H	-0.208950	-1.320650	-0.000032
H106	H	0.291050	-0.820650	0.499968
H107	H	-0.164446	-1.611051	-0.000063
H108	H	0.335554	-1.111051	0.499937
