data_functionalizedCrystal
_audit_creation_method	'MofGen! by Chris Wilmer'
_symmetry_space_group_name_H-M	'P1'
_symmetry_Int_Tables_number	1
_symmetry_cell_setting	triclinic
loop_
_symmetry_equiv_pos_as_xyz
  x,y,z
_cell_length_a	13.635800
_cell_length_b	13.167930
_cell_length_c	17.982968
_cell_angle_alpha	79.894202
_cell_angle_beta	102.451960
_cell_angle_gamma	74.245432
loop_
_atom_site_label
_atom_site_type_symbol
_atom_site_fract_x
_atom_site_fract_y
_atom_site_fract_z
V1	V	2.017029	-0.149947	0.248149
O2	O	2.001021	0.006168	0.232590
O3	O	2.002088	-0.296322	0.256873
O4	O	1.990166	-0.148096	0.351621
O5	O	2.013025	-0.143084	0.137186
V6	V	2.257989	-0.131220	0.233611
O7	O	2.149418	-0.191026	0.280040
O8	O	2.350699	-0.090141	0.201721
O9	O	2.161327	0.015155	0.224888
O10	O	2.332696	-0.287335	0.249170
O11	O	2.320691	-0.138083	0.344575
O12	O	2.173249	-0.133071	0.130139
V13	V	2.517029	-0.149947	0.248149
O14	O	2.501021	0.006168	0.232590
O15	O	2.502088	-0.296322	0.256873
O16	O	2.490166	-0.148096	0.351621
O17	O	2.513025	-0.143084	0.137186
V18	V	2.757989	-0.131220	0.233611
O19	O	2.649418	-0.191026	0.280040
O20	O	2.850699	-0.090141	0.201721
O21	O	2.661327	0.015155	0.224888
O22	O	2.832696	-0.287335	0.249170
O23	O	2.820691	-0.138083	0.344575
O24	O	2.673249	-0.133071	0.130139
C25	C	1.926927	-0.331991	0.255647
C26	C	1.955336	-0.451657	0.263469
C27	C	1.969936	-0.645186	0.136396
C28	C	1.996628	-0.757622	0.143742
C29	C	2.035420	-0.788969	0.285507
C30	C	2.008728	-0.676532	0.278161
C31	C	1.975985	-0.604644	0.203603
C32	C	1.949285	-0.492205	0.196257
C33	C	1.988085	-0.523554	0.338022
C34	C	2.014777	-0.635991	0.345368
C35	C	1.911719	-0.142912	0.376507
C36	C	1.930458	-0.142367	0.461165
C37	C	2.068159	0.050818	0.226112
C38	C	2.029369	0.170483	0.218295
C39	C	2.083368	-0.138258	0.105249
C40	C	2.054247	-0.138798	0.020591
C41	C	2.426927	-0.331991	0.255647
C42	C	2.455336	-0.451657	0.263469
C43	C	2.411719	-0.142912	0.376507
C44	C	2.430458	-0.142367	0.461165
C45	C	2.030563	-0.147506	0.505200
C46	C	2.048164	-0.146993	0.584744
C47	C	1.965661	-0.141349	0.620253
C48	C	1.865547	-0.136208	0.576212
C49	C	1.847945	-0.136713	0.496668
C50	C	1.936532	-0.134169	0.897005
C51	C	1.954143	-0.133668	0.976556
C52	C	2.136751	-0.144449	0.985081
C53	C	2.119149	-0.144954	0.905537
C54	C	2.019035	-0.139807	0.861501
C55	C	1.999951	-0.140361	0.775250
C56	C	1.984747	-0.140803	0.706505
C57	C	2.568159	0.050818	0.226112
C58	C	2.529369	0.170483	0.218295
C59	C	2.583368	-0.138258	0.105249
C60	C	2.554247	-0.138798	0.020591
C61	C	2.559999	-0.513359	0.271338
C62	C	2.586710	-0.625802	0.278700
C63	C	2.508755	-0.676539	0.278187
C64	C	2.404085	-0.614830	0.270319
C65	C	2.377377	-0.502390	0.262963
C66	C	2.530567	-0.147495	0.505185
C67	C	2.548185	-0.146969	0.584728
C68	C	2.465694	-0.141323	0.620250
C69	C	2.365576	-0.136191	0.576223
C70	C	2.347957	-0.136710	0.496681
C71	C	2.597200	0.232184	0.210427
C72	C	2.560761	0.344626	0.203069
C73	C	2.456493	0.395363	0.203584
C74	C	2.388656	0.333655	0.211450
C75	C	2.425093	0.221216	0.218802
C76	C	2.454507	-0.144432	-0.014913
C77	C	2.427127	-0.144926	-0.094461
C78	C	2.499492	-0.139794	-0.138502
C79	C	2.599240	-0.134156	-0.102993
C80	C	2.626616	-0.133655	-0.023448
H81	H	1.922618	-0.433674	0.135548
H82	H	1.766423	-0.132502	0.460810
H83	H	2.041444	-0.694537	0.406071
H84	H	2.395569	-0.148611	0.020935
F85	F	2.277794	-0.130193	0.614042
H86	H	2.671941	-0.676030	0.285103
H87	H	1.993005	-0.490534	0.392747
H88	H	2.682105	0.190889	0.210007
F89	F	1.935074	-0.568674	0.057046
H90	H	2.530517	-0.768095	0.284177
F91	F	2.732780	-0.127672	0.014331
F92	F	2.320965	-0.150934	-0.132235
F93	F	2.470342	-0.140332	-0.223160
H94	H	2.658152	-0.129975	-0.138864
F95	F	2.417727	0.515033	0.195758
F96	F	2.654746	-0.152437	0.631571
H97	H	1.855026	-0.130016	0.861167
F98	F	2.277685	0.387670	0.211992
F99	F	2.243302	-0.149923	1.031953
H100	H	1.991701	-0.790625	0.089015
F101	F	2.484462	-0.140775	0.704909
F102	F	2.321129	-0.668844	0.269772
H103	H	1.798371	-0.131606	0.605129
H104	H	1.886952	-0.129069	1.005464
H105	H	2.266437	-0.132536	0.460846
F106	F	2.642983	-0.459382	0.271891
H107	H	2.616012	0.394854	0.196667
F108	F	2.352888	0.155560	0.227177
H109	H	2.129676	-0.151171	0.620593
H110	H	2.062099	-0.847519	0.346209
H111	H	2.292148	-0.452160	0.256552
F112	F	2.118380	-0.153520	0.467417
H113	H	2.186335	-0.149555	0.876631
H114	H	2.597748	-0.152096	0.476274
