data_functionalizedCrystal
_audit_creation_method	'MofGen! by Chris Wilmer'
_symmetry_space_group_name_H-M	'P1'
_symmetry_Int_Tables_number	1
_symmetry_cell_setting	triclinic
loop_
_symmetry_equiv_pos_as_xyz
  x,y,z
_cell_length_a	19.288864
_cell_length_b	9.730223
_cell_length_c	19.288865
_cell_angle_alpha	89.994288
_cell_angle_beta	83.136245
_cell_angle_gamma	89.985868
loop_
_atom_site_label
_atom_site_type_symbol
_atom_site_fract_x
_atom_site_fract_y
_atom_site_fract_z
O1	O	0.921345	-0.114746	0.086644
O2	O	1.254678	0.218587	0.419977
O3	O	1.588011	0.551920	0.753310
O4	O	0.719084	-0.114654	0.098333
O5	O	1.052417	0.218679	0.431666
O6	O	1.385751	0.552012	0.764999
O7	O	0.826059	-0.114676	-0.008642
O8	O	1.159392	0.218658	0.324691
O9	O	1.492725	0.551991	0.658025
O10	O	0.814370	-0.114725	0.193619
O11	O	1.147703	0.218608	0.526952
O12	O	1.481036	0.551942	0.860285
O13	O	0.826057	0.113904	-0.008638
O14	O	1.159390	0.447238	0.324696
O15	O	1.492724	0.780571	0.658029
O16	O	0.719082	0.113926	0.098337
O17	O	1.052416	0.447259	0.431670
O18	O	1.385749	0.780592	0.765004
O19	O	0.921343	0.113834	0.086648
O20	O	1.254676	0.447167	0.419982
O21	O	1.588010	0.780500	0.753315
Zn22	Zn	0.820212	0.150172	0.092493
Zn23	Zn	1.153546	0.483505	0.425827
Zn24	Zn	1.486879	0.816838	0.759160
Zn25	Zn	0.820214	-0.150992	0.092487
Zn26	Zn	1.153548	0.182341	0.425821
Zn27	Zn	1.486881	0.515674	0.759154
O28	O	0.814368	0.113855	0.193623
O29	O	1.147702	0.447188	0.526956
O30	O	1.481035	0.780522	0.860290
C31	C	0.693207	-0.000352	0.097959
C32	C	1.026540	0.332981	0.431292
C33	C	1.359873	0.666314	0.764625
C34	C	0.616103	-0.000316	0.096830
C35	C	0.949436	0.333017	0.430163
C36	C	1.282770	0.666351	0.763496
N37	N	0.820216	0.355708	0.092497
N38	N	1.153549	0.689041	0.425830
N39	N	1.486883	1.022375	0.759163
C40	C	0.571407	-0.000353	0.159598
C41	C	0.904740	0.332980	0.492931
C42	C	1.238073	0.666314	0.826264
C43	C	0.498960	-0.000368	0.158537
C44	C	0.832293	0.332966	0.491870
C45	C	1.165626	0.666299	0.825204
C46	C	0.471212	-0.000373	0.094705
C47	C	0.804545	0.332960	0.428038
C48	C	1.137879	0.666293	0.761371
C49	C	0.515918	-0.000329	0.031929
C50	C	0.849252	0.333004	0.365262
C51	C	1.182585	0.666338	0.698595
C52	C	0.588364	-0.000300	0.032991
C53	C	0.921697	0.333033	0.366324
C54	C	1.255030	0.666367	0.699658
C55	C	0.362951	-0.080489	0.044524
C56	C	0.696284	0.252844	0.377857
C57	C	1.029617	0.586178	0.711191
C58	C	0.290506	-0.080526	0.043464
C59	C	0.623840	0.252807	0.376798
C60	C	0.957173	0.586140	0.710131
C61	C	0.247767	-0.000456	0.091425
C62	C	0.581100	0.332877	0.424758
C63	C	0.914433	0.666211	0.758092
C64	C	0.277479	0.079634	0.140458
C65	C	0.610812	0.412967	0.473791
C66	C	0.944145	0.746301	0.807124
C67	C	0.349924	0.079663	0.141520
C68	C	0.683257	0.412996	0.474853
C69	C	1.016591	0.746330	0.808187
C70	C	0.392658	-0.000404	0.093546
C71	C	0.725991	0.332930	0.426879
C72	C	1.059325	0.666263	0.760212
C73	C	0.124514	-0.000507	0.153047
C74	C	0.457848	0.332826	0.486381
C75	C	0.791181	0.666160	0.819714
C76	C	0.052066	-0.000513	0.151984
C77	C	0.385400	0.332820	0.485317
C78	C	0.718733	0.666153	0.818651
C79	C	0.069026	-0.000488	0.025374
C80	C	0.402360	0.332845	0.358707
C81	C	0.735693	0.666178	0.692040
C82	C	0.141473	-0.000468	0.026439
C83	C	0.474806	0.332865	0.359772
C84	C	0.808140	0.666199	0.693106
C85	C	0.169212	-0.000484	0.090278
C86	C	0.502545	0.332849	0.423611
C87	C	0.835879	0.666183	0.756944
C88	C	0.867596	0.427625	0.045145
C89	C	1.200929	0.760958	0.378478
C90	C	1.534263	1.094291	0.711811
C91	C	0.867594	0.571508	0.045137
C92	C	1.200927	0.904841	0.378471
C93	C	1.534261	1.238174	0.711804
C94	C	0.772829	0.571545	0.139840
C95	C	1.106163	0.904878	0.473174
C96	C	1.439496	1.238211	0.806507
C97	C	0.772829	0.427664	0.139844
C98	C	1.106162	0.760998	0.473177
C99	C	1.439495	1.094331	0.806510
C100	C	0.914983	0.355668	-0.002202
C101	C	1.248317	0.689002	0.331131
C102	C	1.581650	1.022335	0.664465
C103	C	0.962368	0.427585	-0.049557
C104	C	1.295701	0.760918	0.283776
C105	C	1.629035	1.094252	0.617109
C106	C	0.962366	0.571468	-0.049565
C107	C	1.295699	0.904801	0.283769
C108	C	1.629033	1.238135	0.617102
C109	C	0.914979	0.643434	-0.002217
C110	C	1.248313	0.976768	0.331117
C111	C	1.581646	1.310101	0.664450
C112	C	0.947220	-0.000471	0.087022
C113	C	1.280553	0.332862	0.420355
C114	C	1.613887	0.666195	0.753689
C115	C	1.024324	-0.000517	0.088151
C116	C	1.357657	0.332817	0.421484
C117	C	1.690990	0.666150	0.754818
N118	N	0.820215	0.643471	0.092486
N119	N	1.153548	0.976805	0.425819
N120	N	1.486881	1.310138	0.759153
C121	C	0.825682	-0.000382	-0.034516
C122	C	1.159015	0.332952	0.298817
C123	C	1.492348	0.666285	0.632150
C124	C	0.824553	-0.000369	-0.111620
C125	C	1.157886	0.332964	0.221713
C126	C	1.491219	0.666298	0.555047
C127	C	0.887321	-0.000391	-0.156316
C128	C	1.220654	0.332943	0.177017
C129	C	1.553987	0.666276	0.510350
C130	C	0.886260	-0.000412	-0.228763
C131	C	1.219593	0.332921	0.104570
C132	C	1.552926	0.666255	0.437903
C133	C	0.822428	-0.000384	-0.256511
C134	C	1.155761	0.332949	0.076822
C135	C	1.489094	0.666283	0.410156
C136	C	0.759652	-0.000370	-0.211805
C137	C	1.092985	0.332964	0.121529
C138	C	1.426318	0.666297	0.454862
C139	C	0.760714	-0.000362	-0.139359
C140	C	1.094047	0.332971	0.193974
C141	C	1.427381	0.666304	0.527307
C142	C	0.772248	0.079706	-0.364797
C143	C	1.105581	0.413039	-0.031463
C144	C	1.438914	0.746372	0.301870
C145	C	0.771188	0.079707	-0.437241
C146	C	1.104521	0.413040	-0.103908
C147	C	1.437854	0.746373	0.229425
C148	C	0.819148	-0.000413	-0.479956
C149	C	1.152481	0.332920	-0.146623
C150	C	1.485815	0.666254	0.186710
C151	C	0.868180	-0.080516	-0.450220
C152	C	1.201513	0.252817	-0.116887
C153	C	1.534847	0.586151	0.216447
C154	C	0.869242	-0.080509	-0.377774
C155	C	1.202576	0.252825	-0.044441
C156	C	1.535909	0.586158	0.288892
C157	C	0.821269	-0.000393	-0.335065
C158	C	1.154602	0.332941	-0.001732
C159	C	1.487935	0.666274	0.331602
C160	C	0.880770	-0.000460	-0.603209
C161	C	1.214103	0.332873	-0.269875
C162	C	1.547437	0.666207	0.063458
C163	C	0.879707	-0.000490	-0.675657
C164	C	1.213040	0.332844	-0.342323
C165	C	1.546373	0.666177	-0.008990
C166	C	0.753097	-0.000434	-0.658697
C167	C	1.086430	0.332900	-0.325363
C168	C	1.419763	0.666233	0.007970
C169	C	0.754162	-0.000418	-0.586250
C170	C	1.087495	0.332916	-0.252917
C171	C	1.420829	0.666249	0.080417
C172	C	0.818000	-0.000424	-0.558511
C173	C	1.151334	0.332909	-0.225177
C174	C	1.484667	0.666242	0.108156
C175	C	0.814745	-0.000442	0.219497
C176	C	1.148078	0.332891	0.552830
C177	C	1.481412	0.666224	0.886164
C178	C	0.815874	-0.000464	0.296601
C179	C	1.149207	0.332869	0.629934
C180	C	1.482541	0.666203	0.963267
H181	H	0.593987	-0.000368	0.211580
H182	H	0.927320	0.332965	0.544913
H183	H	1.260654	0.666298	0.878247
H184	H	0.930822	-0.000515	-0.712049
H185	H	1.264156	0.332818	-0.378715
H186	H	1.597489	0.666152	-0.045382
Cl187	Cl	1.021930	0.337117	-0.109083
Cl188	Cl	1.355264	0.670450	0.224250
Cl189	Cl	1.688597	1.003784	0.557583
Cl190	Cl	1.021928	0.661876	-0.109101
Cl191	Cl	1.355261	0.995209	0.224233
Cl192	Cl	1.688595	1.328543	0.557566
H193	H	0.397744	-0.145700	0.005467
H194	H	0.731078	0.187633	0.338800
H195	H	1.064411	0.520966	0.672134
H196	H	0.624756	-0.000271	-0.018124
H197	H	0.958090	0.333062	0.315210
H198	H	1.291423	0.666396	0.648543
Cl199	Cl	0.481037	-0.000328	-0.048318
Cl200	Cl	0.814370	0.333005	0.285016
Cl201	Cl	1.147703	0.666339	0.618349
Cl202	Cl	0.711950	0.180442	-0.311105
Cl203	Cl	1.045283	0.513775	0.022229
Cl204	Cl	1.378617	0.847108	0.355562
Cl205	Cl	0.223757	0.180301	0.200756
Cl206	Cl	0.557090	0.513634	0.534090
Cl207	Cl	0.890423	0.846968	0.867423
Cl208	Cl	0.681799	-0.000334	-0.083166
Cl209	Cl	1.015132	0.332999	0.250167
Cl210	Cl	1.348466	0.666332	0.583500
Cl211	Cl	0.961023	-0.000460	-0.568333
Cl212	Cl	1.294356	0.332873	-0.235000
Cl213	Cl	1.627689	0.666206	0.098334
H214	H	0.731260	0.144923	-0.461446
H215	H	1.064593	0.478256	-0.128113
H216	H	1.397927	0.811590	0.205220
Cl217	Cl	0.713261	0.337253	0.199372
Cl218	Cl	1.046594	0.670586	0.532705
Cl219	Cl	1.379927	1.003919	0.866039
Cl220	Cl	0.442760	-0.000411	0.237451
Cl221	Cl	0.776093	0.332922	0.570784
Cl222	Cl	1.109426	0.666256	0.904118
H223	H	0.914977	0.760593	-0.002231
H224	H	1.248310	1.093927	0.331102
H225	H	1.581644	1.427260	0.664435
Cl226	Cl	0.713264	0.662016	0.199362
Cl227	Cl	1.046598	0.995350	0.532695
Cl228	Cl	1.379931	1.328683	0.866028
Cl229	Cl	0.967575	-0.000438	-0.121448
Cl230	Cl	1.300908	0.332895	0.211886
Cl231	Cl	1.634241	0.666229	0.545219
H232	H	0.914991	0.238512	-0.002199
H233	H	1.248324	0.571845	0.331134
H234	H	1.581657	0.905178	0.664468
Cl235	Cl	0.679405	-0.000346	-0.246686
Cl236	Cl	1.012739	0.332988	0.086647
Cl237	Cl	1.346072	0.666321	0.419980
H238	H	0.046435	-0.000578	-0.026600
H239	H	0.379769	0.332755	0.306734
H240	H	0.713102	0.666089	0.640067
Cl241	Cl	0.965174	-0.000441	-0.284963
Cl242	Cl	1.298507	0.332893	0.048370
Cl243	Cl	1.631841	0.666226	0.381703
Cl244	Cl	0.930875	-0.181214	-0.340393
Cl245	Cl	1.264209	0.152120	-0.007059
Cl246	Cl	1.597542	0.485453	0.326274
Cl247	Cl	0.387275	0.180349	0.203155
Cl248	Cl	0.720608	0.513682	0.536488
Cl249	Cl	1.053942	0.847015	0.869821
Cl250	Cl	0.159390	-0.000513	0.233300
Cl251	Cl	0.492723	0.332820	0.566633
Cl252	Cl	0.826057	0.666153	0.899966
Cl253	Cl	-0.004125	-0.000553	0.230900
Cl254	Cl	0.329208	0.332781	0.564233
Cl255	Cl	0.662541	0.666114	0.897566
H256	H	0.177866	-0.000445	-0.024674
H257	H	0.511199	0.332888	0.308660
H258	H	0.844532	0.666221	0.641993
H259	H	0.907234	-0.145758	-0.484998
H260	H	1.240567	0.187575	-0.151664
H261	H	1.573900	0.520909	0.181669
H262	H	0.701123	-0.000418	-0.681288
H263	H	1.034457	0.332916	-0.347954
H264	H	1.367790	0.666249	-0.014621
Cl265	Cl	0.675249	-0.000384	-0.530057
Cl266	Cl	1.008582	0.332949	-0.196724
Cl267	Cl	1.341916	0.666283	0.136609
Cl268	Cl	0.253160	-0.181224	-0.018169
Cl269	Cl	0.586494	0.152110	0.315164
Cl270	Cl	0.919827	0.485443	0.648497
