data_functionalizedCrystal
_audit_creation_method	'MofGen! by Chris Wilmer'
_symmetry_space_group_name_H-M	'P1'
_symmetry_Int_Tables_number	1
_symmetry_cell_setting	triclinic
loop_
_symmetry_equiv_pos_as_xyz
  x,y,z
_cell_length_a	23.532355
_cell_length_b	16.109301
_cell_length_c	14.586319
_cell_angle_alpha	89.998390
_cell_angle_beta	90.000005
_cell_angle_gamma	96.855510
loop_
_atom_site_label
_atom_site_type_symbol
_atom_site_fract_x
_atom_site_fract_y
_atom_site_fract_z
O1	O	0.755652	-0.100714	0.076119
O2	O	0.589838	-0.115362	0.076148
O3	O	0.677300	0.013030	0.076123
O4	O	0.668190	-0.229106	0.076144
O5	O	0.677289	0.013022	-0.076358
O6	O	0.589828	-0.115370	-0.076333
O7	O	0.755641	-0.100722	-0.076362
Cu8	Cu	0.672733	-0.108047	-0.090270
Cu9	Cu	0.672746	-0.108038	0.090056
O10	O	0.668179	-0.229114	-0.076337
C11	C	0.568615	-0.115000	-0.000089
C12	C	0.505392	-0.113899	-0.000078
C13	C	0.113347	-0.106987	-0.083234
C14	C	0.053944	-0.105939	-0.083237
O15	O	0.023218	-0.105373	-0.153925
N16	N	0.024239	-0.105416	-0.000121
C17	C	0.053942	-0.105931	0.083005
O18	O	0.023221	-0.105389	0.153703
C19	C	0.113345	-0.106973	0.083008
C20	C	0.143045	-0.107505	-0.000114
C21	C	0.143048	-0.107518	-0.166349
C22	C	0.202447	-0.108566	-0.166345
C23	C	0.232145	-0.109084	-0.083226
C24	C	0.202444	-0.108553	-0.000110
C25	C	0.143047	-0.107482	0.166133
C26	C	0.202453	-0.108523	0.166129
C27	C	0.232154	-0.109055	0.083006
C28	C	0.291542	-0.110120	0.083013
N29	N	0.321246	-0.110644	-0.000104
C30	C	0.291548	-0.110126	-0.083223
C31	C	-0.070808	-0.103743	0.082993
C32	C	-0.130210	-0.102707	0.082992
C33	C	-0.130204	-0.102714	-0.083251
C34	C	-0.070801	-0.103755	-0.083249
C35	C	-0.041103	-0.104266	-0.000123
C36	C	0.416290	-0.112329	-0.083209
C37	C	0.475694	-0.113382	-0.083197
C38	C	0.475683	-0.113370	0.083045
C39	C	0.416284	-0.112323	0.083035
C40	C	0.386589	-0.111799	-0.000100
O41	O	0.322305	-0.110684	0.153664
O42	O	0.322277	-0.110657	-0.153908
C43	C	0.676926	0.043998	-0.000118
C44	C	0.675819	0.136284	-0.000119
C45	C	0.776864	-0.101084	-0.000123
C46	C	0.840087	-0.102185	-0.000128
N47	N	0.672729	-0.108053	-0.217102
C48	C	0.668554	-0.260082	-0.000094
C49	C	0.669660	-0.352368	-0.000087
C50	C	0.725145	0.358958	-0.000113
C51	C	0.724101	0.445670	-0.000105
C52	C	0.620331	0.424951	-0.000090
C53	C	0.621375	0.338241	-0.000091
C54	C	0.673784	0.305247	-0.000107
C55	C	0.671695	0.478669	-0.000099
C56	C	0.670563	0.572686	-0.000090
C57	C	0.674917	0.211224	-0.000114
C58	C	0.707269	-0.158200	-0.452110
C59	C	0.707275	-0.158194	-0.548092
C60	C	0.638214	-0.057872	-0.548097
C61	C	0.638212	-0.057874	-0.452118
C62	C	0.672738	-0.108043	-0.404127
C63	C	0.672746	-0.108035	-0.596087
C64	C	0.672752	-0.108028	-0.700155
C65	C	0.672733	-0.108048	-0.300053
N66	N	0.672755	-0.108025	0.216888
H67	H	0.226625	-0.108995	-0.234032
Cl68	Cl	0.513028	-0.114053	-0.187702
Cl69	Cl	0.239784	-0.109163	0.270636
H70	H	0.610092	-0.017025	-0.413048
Cl71	Cl	0.105724	-0.106872	-0.270857
H72	H	0.735394	-0.199037	-0.587156
Cl73	Cl	0.594808	0.005187	-0.608435
Cl74	Cl	0.378969	-0.111671	-0.187722
H75	H	0.577661	0.451826	-0.000079
Cl76	Cl	-0.167549	-0.102059	-0.187746
Cl77	Cl	-0.033469	-0.104421	-0.187749
Cl78	Cl	-0.033480	-0.104395	0.187505
Cl79	Cl	-0.167542	-0.102055	0.187493
H80	H	0.579548	0.294507	-0.000084
Cl81	Cl	0.105723	-0.106810	0.270637
H82	H	0.392099	-0.111903	0.150720
H83	H	0.767820	0.332097	-0.000124
Cl84	Cl	0.513030	-0.114016	0.187533
Cl85	Cl	0.750678	-0.221263	-0.391782
H86	H	0.765924	0.489398	-0.000108
