data_functionalizedCrystal
_audit_creation_method	'MofGen! by Chris Wilmer'
_symmetry_space_group_name_H-M	'P1'
_symmetry_Int_Tables_number	1
_symmetry_cell_setting	triclinic
loop_
_symmetry_equiv_pos_as_xyz
  x,y,z
_cell_length_a	8.559649
_cell_length_b	7.088929
_cell_length_c	9.065218
_cell_angle_alpha	96.314275
_cell_angle_beta	77.397275
_cell_angle_gamma	84.674985
loop_
_atom_site_label
_atom_site_type_symbol
_atom_site_fract_x
_atom_site_fract_y
_atom_site_fract_z
O1	O	2.103251	0.158958	-0.032974
O2	O	1.639147	0.158966	0.043093
O3	O	1.880793	0.158958	-0.210789
O4	O	1.861606	0.158966	0.220908
O5	O	1.913085	-0.159019	-0.244786
O6	O	1.671440	-0.159011	0.009096
O7	O	2.135544	-0.159019	-0.066971
Cu8	Cu	1.906440	-0.188048	-0.032042
Cu9	Cu	1.868251	0.187995	0.008164
O10	O	1.893898	-0.159011	0.186911
C11	C	1.595847	-0.000022	0.031859
C12	C	1.418715	-0.000018	0.049018
N13	N	1.933312	-0.452537	-0.060322
C14	C	2.178843	-0.000027	-0.055736
C15	C	2.355974	-0.000018	-0.072894
C16	C	1.895095	-0.000027	-0.282542
C17	C	1.889580	-0.000018	-0.445691
N18	N	1.841391	0.452484	0.036431
C19	C	1.879596	-0.000021	0.258664
C20	C	1.885109	-0.000018	0.421815
H21	H	1.336908	-0.000006	0.166527
H22	H	1.746125	-0.465866	0.136697
O23	O	2.047099	-0.549644	-0.179989
C24	C	2.256968	-0.528913	-0.401021
C25	C	2.128200	-0.418703	-0.265544
H26	H	2.322552	-0.423095	-0.470247
H27	H	2.347248	-0.622561	-0.356576
H28	H	2.196345	-0.622696	-0.476598
H29	H	2.188683	-0.324816	-0.189913
H30	H	2.037933	-0.325176	-0.310094
O31	O	1.453683	0.000233	-0.212972
C32	C	1.644784	0.165022	-0.371628
C33	C	1.534214	0.164952	-0.212910
H34	H	1.709898	0.298203	-0.371641
H35	H	1.737171	0.032040	-0.400151
H36	H	1.569041	0.164929	-0.460637
H37	H	1.609825	0.165112	-0.123798
H38	H	1.441821	0.297923	-0.184517
