data_functionalizedCrystal
_audit_creation_method	'MofGen! by Chris Wilmer'
_symmetry_space_group_name_H-M	'P1'
_symmetry_Int_Tables_number	1
_symmetry_cell_setting	triclinic
loop_
_symmetry_equiv_pos_as_xyz
  x,y,z
_cell_length_a	12.827893
_cell_length_b	29.839131
_cell_length_c	12.827885
_cell_angle_alpha	89.963180
_cell_angle_beta	89.980538
_cell_angle_gamma	90.041391
loop_
_atom_site_label
_atom_site_type_symbol
_atom_site_fract_x
_atom_site_fract_y
_atom_site_fract_z
Zn1	Zn	1.597483	-0.178832	-0.590798
Zn2	Zn	1.597297	-0.253969	-0.416036
Zn3	Zn	1.422723	-0.178854	-0.416071
Zn4	Zn	1.422630	-0.253936	-0.590736
O5	O	1.510033	-0.216398	-0.503410
O6	O	1.743694	-0.188804	-0.567626
O7	O	1.574100	-0.244028	-0.269805
O8	O	1.446022	-0.115984	-0.439289
O9	O	1.743557	-0.244007	-0.439230
O10	O	1.574417	-0.115968	-0.567660
O11	O	1.445842	-0.188841	-0.269830
O12	O	1.276475	-0.188809	-0.439230
O13	O	1.445863	-0.243950	-0.736981
O14	O	1.276406	-0.243971	-0.567556
O15	O	1.574327	-0.188771	-0.737026
O16	O	1.574010	-0.316832	-0.439170
O17	O	1.445683	-0.316807	-0.567522
C18	C	1.238523	-0.216389	-0.503390
C19	C	1.122370	-0.216396	-0.503407
C20	C	1.509844	-0.333120	-0.503359
C21	C	1.509859	-0.383055	-0.503371
C22	C	1.070579	-0.243735	-0.566808
C23	C	0.950529	-0.243743	-0.566827
C24	C	1.576974	-0.692698	-0.436675
C25	C	1.577103	-0.880371	-0.436716
O26	O	1.634017	-0.904636	-0.379969
N27	N	1.510250	-0.903840	-0.503489
C28	C	1.443364	-0.880387	-0.570262
O29	O	1.386511	-0.904655	-0.627065
C30	C	1.443241	-0.692715	-0.570226
C31	C	1.510092	-0.669249	-0.503441
C32	C	1.643820	-0.669232	-0.369897
C33	C	1.643783	-0.622317	-0.369883
C34	C	1.576901	-0.598867	-0.436648
C35	C	1.510055	-0.622333	-0.503427
C36	C	1.376361	-0.669263	-0.637003
C37	C	1.376338	-0.622342	-0.636990
C38	C	1.443189	-0.598876	-0.570205
C39	C	1.443135	-0.551969	-0.570179
N40	N	1.509988	-0.528500	-0.503406
C41	C	1.576871	-0.551949	-0.436641
C42	C	1.443432	-0.978918	-0.570274
C43	C	1.443461	-1.025835	-0.570282
C44	C	1.577202	-1.025816	-0.436738
C45	C	1.577167	-0.978898	-0.436725
C46	C	1.510285	-0.955449	-0.503501
C47	C	1.576788	-0.453424	-0.436617
C48	C	1.576742	-0.406504	-0.436606
C49	C	1.443005	-0.406527	-0.570154
C50	C	1.443047	-0.453443	-0.570161
C51	C	1.509947	-0.476890	-0.503389
O52	O	1.386259	-0.527675	-0.626905
O53	O	1.633732	-0.527674	-0.379862
C54	C	1.577011	-0.739614	-0.436689
C55	C	1.510165	-0.763080	-0.503468
C56	C	1.443283	-0.739630	-0.570233
C57	C	1.510195	-0.809997	-0.503476
C58	C	1.577078	-0.833447	-0.436710
C59	C	1.643931	-0.809978	-0.369937
C60	C	1.643894	-0.763063	-0.369924
C61	C	1.376429	-0.763099	-0.637006
C62	C	1.376471	-0.810014	-0.637013
C63	C	1.443353	-0.833464	-0.570248
C64	C	1.782603	-0.216407	-0.503431
C65	C	1.898756	-0.216410	-0.503440
C66	C	1.510105	-0.216354	-0.775981
C67	C	1.510136	-0.216336	-0.892134
C68	C	1.510251	-0.099219	-0.503485
C69	C	1.510344	-0.049285	-0.503517
C70	C	1.446690	-0.189023	-0.943931
C71	C	1.446720	-0.189003	-1.063982
C72	C	1.510022	-0.216408	-0.231900
C73	C	1.510193	-0.216300	-0.115748
H74	H	0.905989	-0.267150	-0.621104
C75	C	1.130731	-0.275349	-0.640125
C76	C	1.115887	-0.271751	-0.758955
C77	C	1.176035	-0.303366	-0.832274
C78	C	1.251027	-0.338580	-0.786764
C79	C	1.265874	-0.342180	-0.667928
C80	C	1.205726	-0.310565	-0.594609
H81	H	1.060371	-0.245682	-0.792649
H82	H	1.165044	-0.300701	-0.920244
H83	H	1.295552	-0.361984	-0.841039
H84	H	1.321391	-0.368249	-0.634233
H85	H	1.216718	-0.313230	-0.506638
C86	C	1.302846	-0.737310	-0.710450
C87	C	1.220795	-0.705110	-0.665087
C88	C	1.147201	-0.679325	-0.738532
C89	C	1.155658	-0.685739	-0.857339
C90	C	1.237713	-0.717940	-0.902707
C91	C	1.311307	-0.743726	-0.829263
H92	H	1.214531	-0.700361	-0.577134
H93	H	1.086458	-0.655487	-0.704947
H94	H	1.101180	-0.666651	-0.911707
H95	H	1.243977	-0.722689	-0.990660
H96	H	1.372050	-0.767563	-0.862848
C97	C	1.373271	-0.157451	-0.883784
C98	C	1.373344	-0.157516	-0.763739
C99	C	1.299921	-0.125944	-0.703595
C100	C	1.226425	-0.094306	-0.763496
C101	C	1.226350	-0.094239	-0.883549
C102	C	1.299773	-0.125812	-0.943693
H103	H	1.427752	-0.180938	-0.719390
H104	H	1.299977	-0.125994	-0.614724
H105	H	1.172073	-0.070934	-0.718974
H106	H	1.171942	-0.070818	-0.927897
H107	H	1.299717	-0.125762	-1.032564
C108	C	1.717329	-0.596510	-0.296422
C109	C	1.672085	-0.564304	-0.214315
C110	C	1.745637	-0.538502	-0.140850
C111	C	1.864432	-0.544905	-0.149491
C112	C	1.909682	-0.577113	-0.231601
C113	C	1.836130	-0.602915	-0.305067
H114	H	1.584140	-0.559562	-0.207915
H115	H	1.712140	-0.514660	-0.080067
H116	H	1.918880	-0.525805	-0.095108
H117	H	1.997627	-0.581855	-0.238001
H118	H	1.869628	-0.626757	-0.365850
H119	H	1.392406	-0.165617	-1.108526
H120	H	1.388547	-0.387427	-0.624511
H121	H	0.943289	-0.193005	-0.449153
C122	C	1.583582	-0.247894	-1.055588
C123	C	1.665576	-0.228413	-0.980545
C124	C	1.738965	-0.260006	-0.920377
C125	C	1.730361	-0.311081	-0.935250
C126	C	1.648364	-0.330565	-1.010296
C127	C	1.574975	-0.298971	-1.070465
H128	H	1.671948	-0.190602	-0.969532
H129	H	1.799665	-0.245583	-0.864823
H130	H	1.784688	-0.334469	-0.890710
H131	H	1.641991	-0.368376	-1.021309
H132	H	1.514275	-0.313395	-1.126019
C133	C	1.717398	-0.695020	-0.296444
C134	C	1.708919	-0.688600	-0.177640
C135	C	1.782496	-0.714384	-0.104176
C136	C	1.864552	-0.746588	-0.149514
C137	C	1.873034	-0.753010	-0.268324
C138	C	1.799457	-0.727226	-0.341789
H139	H	1.648174	-0.664760	-0.144073
H140	H	1.776217	-0.709631	-0.016225
H141	H	1.919018	-0.765675	-0.095131
H142	H	1.933780	-0.776850	-0.301892
H143	H	1.805736	-0.731979	-0.429740
H144	H	1.077834	-0.192995	-0.449144
H145	H	1.631180	-0.387399	-0.382218
H146	H	1.631267	-0.472509	-0.382247
H147	H	1.631603	-0.959794	-0.382344
H148	H	1.388966	-0.959829	-0.624653
H149	H	1.631661	-1.044917	-0.382375
C150	C	1.302761	-0.596549	-0.710442
C151	C	1.183973	-0.603058	-0.701811
C152	C	1.110395	-0.577266	-0.775259
C153	C	1.155605	-0.544964	-0.857337
C154	C	1.274399	-0.538454	-0.865971
C155	C	1.347978	-0.564246	-0.792524
H156	H	1.150500	-0.626971	-0.641049
H157	H	1.022455	-0.582085	-0.768867
H158	H	1.101138	-0.525871	-0.911708
H159	H	1.307872	-0.514541	-0.926734
H160	H	1.435917	-0.559426	-0.798915
C161	C	1.717506	-0.835779	-0.296496
C162	C	1.672290	-0.868084	-0.214429
C163	C	1.745864	-0.893887	-0.140998
C164	C	1.864654	-0.887384	-0.149633
C165	C	1.909876	-0.855078	-0.231703
C166	C	1.836302	-0.829275	-0.305135
H167	H	1.584349	-0.872899	-0.208034
H168	H	1.712388	-0.917803	-0.080244
H169	H	1.919119	-0.906485	-0.095275
H170	H	1.997817	-0.850263	-0.238099
H171	H	1.869778	-0.805359	-0.365889
C172	C	1.302928	-0.835823	-0.710484
C173	C	1.184129	-0.829426	-0.701861
C174	C	1.110596	-0.855232	-0.775337
C175	C	1.155862	-0.887436	-0.857436
C176	C	1.274667	-0.893835	-0.866062
C177	C	1.348200	-0.868028	-0.792586
H178	H	1.150615	-0.805585	-0.641084
H179	H	1.022649	-0.850495	-0.768952
H180	H	1.101429	-0.906540	-0.911827
H181	H	1.308181	-0.917675	-0.926839
H182	H	1.436147	-0.872765	-0.798972
H183	H	1.564476	-0.239706	-0.936665
H184	H	1.389015	-1.044938	-0.624656
H185	H	1.321919	-0.688361	-0.691381
H186	H	1.388615	-0.472550	-0.624546
H187	H	1.698330	-0.743960	-0.315541
