data_functionalizedCrystal
_audit_creation_method	'MofGen! by Chris Wilmer'
_symmetry_space_group_name_H-M	'P1'
_symmetry_Int_Tables_number	1
_symmetry_cell_setting	triclinic
loop_
_symmetry_equiv_pos_as_xyz
  x,y,z
_cell_length_a	18.050590
_cell_length_b	18.050590
_cell_length_c	18.050582
_cell_angle_alpha	89.976663
_cell_angle_beta	90.000767
_cell_angle_gamma	90.007719
loop_
_atom_site_label
_atom_site_type_symbol
_atom_site_fract_x
_atom_site_fract_y
_atom_site_fract_z
Zn1	Zn	1.135342	-0.295921	-0.419598
Zn2	Zn	1.135274	-0.420105	-0.295406
Zn3	Zn	1.011162	-0.295910	-0.295456
Zn4	Zn	1.011131	-0.420051	-0.419589
O5	O	1.073227	-0.357997	-0.357512
O6	O	1.239258	-0.312422	-0.403106
O7	O	1.118795	-0.403648	-0.191488
O8	O	1.027676	-0.191987	-0.311948
O9	O	1.239208	-0.403659	-0.311863
O10	O	1.118911	-0.191995	-0.403155
O11	O	1.027610	-0.312402	-0.191525
O12	O	0.907233	-0.312350	-0.311939
O13	O	1.027623	-0.403567	-0.523514
O14	O	0.907210	-0.403555	-0.403139
O15	O	1.118881	-0.312370	-0.523521
O16	O	1.118765	-0.524022	-0.311854
O17	O	1.027557	-0.523982	-0.403091
C18	C	0.880275	-0.357946	-0.357544
C19	C	0.797729	-0.357942	-0.357575
C20	C	0.598288	-0.407682	-0.407052
C21	C	0.548883	-0.339967	-0.425328
C22	C	0.646599	-0.357984	-0.357539
C23	C	0.548922	-0.425737	-0.339262
C24	C	0.500614	-0.358030	-0.357505
C25	C	0.598282	-0.290233	-0.375850
C26	C	0.598324	-0.376049	-0.289753
C27	C	0.548942	-0.308287	-0.308004
C28	C	0.730697	-0.357958	-0.357560
C29	C	0.416517	-0.358047	-0.357484
C30	C	1.073170	-0.550949	-0.357482
C31	C	1.073214	-0.633494	-0.357495
C32	C	1.122915	-0.832940	-0.307949
C33	C	1.141051	-0.882282	-0.375725
C34	C	1.073256	-0.784625	-0.357524
C35	C	1.055196	-0.882364	-0.289779
C36	C	1.073298	-0.930610	-0.357547
C37	C	1.091426	-0.832880	-0.425335
C38	C	1.005539	-0.832958	-0.339344
C39	C	1.023649	-0.882278	-0.407166
C40	C	1.073233	-0.700527	-0.357510
C41	C	1.073320	-1.014706	-0.357568
C42	C	1.266933	-0.358048	-0.357480
C43	C	1.349478	-0.358070	-0.357467
C44	C	1.073256	-0.357964	-0.551218
C45	C	1.073269	-0.357950	-0.633763
C46	C	1.073305	-0.164291	-0.357558
C47	C	1.073338	-0.081745	-0.357578
C48	C	1.023680	-0.407475	-0.833211
C49	C	1.091439	-0.425641	-0.882583
C50	C	1.073305	-0.357893	-0.784894
C51	C	1.005584	-0.339706	-0.882603
C52	C	1.073335	-0.357840	-0.930879
C53	C	1.141099	-0.376095	-0.833179
C54	C	1.055199	-0.290128	-0.833195
C55	C	1.123004	-0.308269	-0.882545
C56	C	1.073287	-0.357926	-0.700796
C57	C	1.073360	-0.357807	-1.014976
C58	C	1.073241	-0.357976	-0.164560
C59	C	1.073372	-0.357781	-0.082014
H60	H	0.620058	-0.391334	-0.232459
H61	H	0.527412	-0.266230	-0.266118
H62	H	1.039846	-0.232860	-0.811484
O63	O	0.937285	-0.321416	-0.908628
C64	C	0.860989	-0.300173	-1.016101
C65	C	0.938369	-0.320903	-0.986732
H66	H	0.861845	-0.299737	-1.079251
H67	H	0.818715	-0.342533	-0.995888
H68	H	0.845134	-0.242844	-0.994897
H69	H	0.954294	-0.378214	-1.007923
H70	H	0.980599	-0.278496	-1.006938
H71	H	1.165031	-0.266316	-0.904070
H72	H	0.981672	-0.903805	-0.449148
O73	O	0.624110	-0.457650	-0.457157
C74	C	0.628177	-0.495079	-0.585218
C75	C	0.598896	-0.438434	-0.528555
H76	H	0.607790	-0.479573	-0.642954
H77	H	0.691330	-0.494965	-0.584452
H78	H	0.607044	-0.552674	-0.570182
H79	H	0.619974	-0.380812	-0.543551
H80	H	0.535744	-0.438614	-0.529331
H81	H	0.527166	-0.324702	-0.482639
O82	O	0.623908	-0.221827	-0.394340
C83	C	0.592683	-0.096540	-0.428276
C84	C	0.563560	-0.173965	-0.407327
H85	H	0.543906	-0.057826	-0.438797
H86	H	0.627859	-0.073753	-0.381035
H87	H	0.627855	-0.100738	-0.480563
H88	H	0.528357	-0.169830	-0.355060
H89	H	0.528425	-0.196723	-0.454612
O90	O	0.523012	-0.494087	-0.320960
C91	C	0.449575	-0.599100	-0.358367
C92	C	0.478882	-0.521709	-0.379186
H93	H	0.413877	-0.621449	-0.405425
H94	H	0.498236	-0.638125	-0.348471
H95	H	0.414873	-0.594997	-0.305761
H96	H	0.513573	-0.525741	-0.431803
H97	H	0.430188	-0.482714	-0.389034
O98	O	1.173129	-0.807123	-0.258070
C99	C	1.301279	-0.803002	-0.220896
C100	C	1.244493	-0.832276	-0.277442
H101	H	1.358987	-0.823340	-0.236529
H102	H	1.300482	-0.739849	-0.220978
H103	H	1.286394	-0.824189	-0.163282
H104	H	1.259339	-0.811144	-0.335083
H105	H	1.245300	-0.895428	-0.277296
O106	O	1.209399	-0.908032	-0.394193
C107	C	1.306281	-0.911023	-0.485983
C108	C	1.228875	-0.881810	-0.465160
H109	H	1.322045	-0.889848	-0.543367
H110	H	1.348576	-0.890728	-0.443702
H111	H	1.305503	-0.974175	-0.486312
H112	H	1.229580	-0.818661	-0.464839
H113	H	1.186613	-0.902163	-0.507446
H114	H	1.106662	-0.811235	-0.482685
O115	O	0.937243	-0.807117	-0.320831
C116	C	0.840944	-0.803007	-0.228472
C117	C	0.918303	-0.832308	-0.249348
H118	H	0.825601	-0.823375	-0.170684
H119	H	0.841438	-0.739854	-0.229126
H120	H	0.798498	-0.824144	-0.270185
H121	H	0.960792	-0.811226	-0.207655
H122	H	0.917748	-0.895460	-0.248718
H123	H	0.981754	-0.449460	-0.811549
O124	O	1.037033	-0.908207	-0.221366
C125	C	1.068883	-0.912480	-0.091794
C126	C	1.089520	-0.883153	-0.169228
H127	H	1.111316	-0.892249	-0.049622
H128	H	1.011564	-0.891324	-0.075819
H129	H	1.068517	-0.975630	-0.092630
H130	H	1.089929	-0.820006	-0.168452
H131	H	1.146826	-0.904366	-0.185172
H132	H	1.106771	-0.482926	-0.904277
O133	O	1.209405	-0.394524	-0.807271
C134	C	1.286032	-0.415184	-0.699920
C135	C	1.208640	-0.394317	-0.729162
H136	H	1.285444	-0.415008	-0.636767
H137	H	1.301592	-0.472768	-0.720650
H138	H	1.328373	-0.373170	-0.720705
H139	H	1.166248	-0.436281	-0.708390
H140	H	1.193143	-0.336715	-0.708438
