data_functionalizedCrystal
_audit_creation_method	'MofGen! by Chris Wilmer'
_symmetry_space_group_name_H-M	'P1'
_symmetry_Int_Tables_number	1
_symmetry_cell_setting	triclinic
loop_
_symmetry_equiv_pos_as_xyz
  x,y,z
_cell_length_a	16.956984
_cell_length_b	16.053789
_cell_length_c	9.065215
_cell_angle_alpha	92.852673
_cell_angle_beta	80.534058
_cell_angle_gamma	93.049747
loop_
_atom_site_label
_atom_site_type_symbol
_atom_site_fract_x
_atom_site_fract_y
_atom_site_fract_z
O1	O	1.061517	0.069433	0.066249
O2	O	1.561517	0.569433	0.566249
O3	O	0.829732	0.069433	0.118000
O4	O	1.329732	0.569433	0.618000
O5	O	0.950416	0.069430	-0.123222
O6	O	1.450416	0.569430	0.376778
O7	O	0.940832	0.069437	0.307470
O8	O	1.440832	0.569437	0.807470
O9	O	0.944333	-0.069430	-0.133582
O10	O	1.444333	0.430570	0.366418
O11	O	0.823649	-0.069426	0.107640
O12	O	1.323649	0.430574	0.607640
O13	O	1.055433	-0.069427	0.055889
O14	O	1.555433	0.430573	0.555889
Zn15	Zn	0.938575	-0.091473	0.080120
Zn16	Zn	1.438575	0.408527	0.580120
Zn17	Zn	0.946590	0.091480	0.093769
Zn18	Zn	1.446590	0.591480	0.593769
O19	O	0.934749	-0.069423	0.297110
O20	O	1.434749	0.430577	0.797110
C21	C	0.797002	0.000004	0.115470
C22	C	1.297002	0.500004	0.615470
C23	C	0.708538	0.000004	0.123348
C24	C	1.208538	0.500004	0.623348
N25	N	0.933111	-0.216334	0.070803
N26	N	1.433111	0.283666	0.570803
C27	C	0.675503	0.000000	-0.008381
C28	C	1.175503	0.500000	0.491619
C29	C	0.592381	0.000006	-0.000969
C30	C	1.092381	0.500006	0.499031
C31	C	0.542296	0.000010	0.138173
C32	C	1.042296	0.500010	0.638173
C33	C	0.575337	0.000016	0.269912
C34	C	1.075337	0.500016	0.769912
C35	C	0.658457	0.000016	0.262499
C36	C	1.158457	0.500016	0.762499
C37	C	0.292789	0.000016	0.174867
C38	C	0.792789	0.500016	0.674867
C39	C	0.209663	0.000014	0.182270
C40	C	0.709663	0.500014	0.682270
C41	C	0.226714	0.000006	-0.088612
C42	C	0.726714	0.500006	0.411388
C43	C	0.309835	0.000000	-0.096013
C44	C	0.809835	0.500000	0.403987
C45	C	0.342868	0.000011	0.035726
C46	C	0.842868	0.500011	0.535726
N47	N	0.457332	0.000014	0.145753
N48	N	0.957332	0.500014	0.645753
N49	N	0.427831	0.000013	0.028146
N50	N	0.927831	0.500013	0.528146
C51	C	0.980163	-0.260023	0.151105
C52	C	1.480163	0.239977	0.651105
C53	C	0.976351	-0.347430	0.144577
C54	C	1.476351	0.152570	0.644577
C55	C	0.925484	-0.391147	0.057753
C56	C	1.425484	0.108853	0.557753
C57	C	0.878431	-0.347452	-0.022559
C58	C	1.378431	0.152548	0.477441
C59	C	0.882247	-0.260046	-0.016038
C60	C	1.382247	0.239954	0.483962
C61	C	0.908824	-0.652558	0.029282
C62	C	1.408824	-0.152558	0.529282
C63	C	0.905009	-0.739970	0.022771
C64	C	1.405009	-0.239970	0.522771
C65	C	1.002931	-0.739943	0.189905
C66	C	1.502931	-0.239943	0.689905
C67	C	1.006740	-0.652535	0.196426
C68	C	1.506740	-0.152535	0.696426
C69	C	0.959690	-0.608848	0.116107
C70	C	1.459690	-0.108848	0.616107
N71	N	0.921584	-0.480491	0.051082
N72	N	1.421584	0.019509	0.551082
N73	N	0.963594	-0.519505	0.122771
N74	N	1.463594	-0.019505	0.622771
C75	C	1.088164	0.000005	0.058419
C76	C	1.588164	0.500005	0.558419
C77	C	1.176628	0.000010	0.050541
C78	C	1.676628	0.500010	0.550541
C79	C	0.946454	0.000001	-0.183253
C80	C	1.446454	0.500001	0.316747
C81	C	0.943702	0.000003	-0.346692
C82	C	1.443702	0.500003	0.153308
N83	N	0.952061	0.216341	0.103074
N84	N	1.452061	0.716341	0.603074
C85	C	0.938711	0.000008	0.357142
C86	C	1.438711	0.500008	0.857142
C87	C	0.941464	0.000011	0.520582
C88	C	1.441464	0.500011	1.020582
H89	H	0.716277	-0.000006	-0.121686
H90	H	1.216277	0.499994	0.378314
H91	H	0.870513	-0.616998	-0.036119
H92	H	1.370513	-0.116998	0.463881
Br93	Br	0.703291	0.000029	0.441282
Br94	Br	1.203291	0.500029	0.941282
Br95	Br	0.181879	-0.000006	-0.267391
Br96	Br	0.681879	0.499994	0.232609
H97	H	0.350609	-0.000006	-0.209318
H98	H	0.850609	0.499994	0.290682
H99	H	0.319674	0.000031	0.282139
H100	H	0.819674	0.500031	0.782139
H101	H	0.534551	0.000025	0.383205
H102	H	1.034551	0.500025	0.883205
H103	H	0.168884	0.000013	0.295582
H104	H	0.668884	0.500013	0.795582
Br105	Br	0.835969	-0.799300	-0.095067
Br106	Br	1.335969	-0.299300	0.404933
Br107	Br	1.049197	-0.200702	0.268949
Br108	Br	1.549197	0.299298	0.768949
H109	H	1.014667	-0.382998	0.209965
H110	H	1.514667	0.117002	0.709965
H111	H	0.837017	-0.383053	-0.093261
H112	H	1.337017	0.116947	0.406739
H113	H	0.843933	-0.224476	-0.081429
H114	H	1.343933	0.275524	0.418571
H115	H	1.048163	-0.616947	0.267122
H116	H	1.548163	-0.116947	0.767122
H117	H	1.041237	-0.775522	0.255295
H118	H	1.541237	-0.275522	0.755295
H119	H	0.565489	0.000004	-0.108236
H120	H	1.065489	0.500004	0.391764
