data_functionalizedCrystal
_audit_creation_method	'MofGen! by Chris Wilmer'
_symmetry_space_group_name_H-M	'P1'
_symmetry_Int_Tables_number	1
_symmetry_cell_setting	triclinic
loop_
_symmetry_equiv_pos_as_xyz
  x,y,z
_cell_length_a	16.704494
_cell_length_b	23.196402
_cell_length_c	23.196401
_cell_angle_alpha	59.999265
_cell_angle_beta	90.005634
_cell_angle_gamma	56.632774
loop_
_atom_site_label
_atom_site_type_symbol
_atom_site_fract_x
_atom_site_fract_y
_atom_site_fract_z
Zr1	Zr	0.815209	0.570735	-0.045492
O2	O	0.680070	0.701008	-0.142542
O3	O	0.856633	0.447402	-0.015744
O4	O	0.856605	0.567690	-0.136020
O5	O	0.680124	0.580702	0.072613
O6	O	0.995863	0.557393	-0.130871
O7	O	0.680098	0.580720	-0.022266
O8	O	0.995913	0.342220	0.084280
O9	O	0.680074	0.795875	-0.142538
O10	O	0.978230	0.487876	0.000790
O11	O	0.874323	0.495546	0.067755
O12	O	0.874290	0.637170	-0.073854
O13	O	0.770383	0.644841	-0.006889
Zr14	Zr	1.037350	0.554284	0.114042
Zr15	Zr	1.037309	0.554313	-0.037280
Zr16	Zr	0.815250	0.570706	0.105830
Zr17	Zr	0.815215	0.722037	-0.045485
Zr18	Zr	1.037344	0.402982	0.114036
O19	O	0.995926	0.677617	0.084295
O20	O	0.995868	0.677658	-0.130866
O21	O	0.680129	0.700967	0.072619
O22	O	1.172489	0.424011	0.211093
O23	O	1.172430	0.424052	-0.004068
O24	O	0.856691	0.447360	0.199416
O25	O	1.172435	0.544317	-0.004063
O26	O	0.995954	0.557329	0.204571
O27	O	0.856696	0.567625	0.199422
O28	O	1.172461	0.544299	0.090817
O29	O	0.856614	0.782822	-0.136011
O30	O	0.995945	0.342197	0.204561
O31	O	1.172485	0.329144	0.211088
O32	O	1.172452	0.329167	0.090807
O33	O	0.680107	0.795852	-0.022257
O34	O	0.856647	0.782799	-0.015730
O35	O	0.978269	0.487849	0.142405
O36	O	1.082176	0.480178	0.075440
O37	O	0.978236	0.629472	0.000796
O38	O	0.874329	0.637143	0.067761
C39	C	0.926272	0.373254	0.034267
C40	C	0.926269	0.309022	0.034264
C41	C	0.980501	0.274848	-0.000694
C42	C	0.980511	0.214486	-0.000688
C43	C	0.926269	0.188314	0.034266
C44	C	0.872035	0.222492	0.069232
C45	C	0.872035	0.282846	0.069231
C46	C	0.835400	0.133004	0.025631
C47	C	0.835397	0.072655	0.025627
C48	C	0.926270	0.002159	0.034273
C49	C	1.017146	-0.007973	0.042909
C50	C	1.017146	0.052381	0.042908
C51	C	0.926264	0.122870	0.034271
C52	C	0.980518	-0.097467	-0.000680
C53	C	0.980530	-0.157834	-0.000669
C54	C	0.872045	-0.149821	0.069246
C55	C	0.872042	-0.089462	0.069240
C56	C	0.926276	-0.063286	0.034273
C57	C	0.648467	0.583051	0.024003
C58	C	0.554179	0.590022	0.020517
C59	C	0.485525	0.447245	0.091912
C60	C	0.396937	0.453792	0.088638
C61	C	0.288413	0.609660	0.010701
C62	C	0.377002	0.603114	0.013974
C63	C	0.475557	0.521904	0.054581
C64	C	0.564146	0.515358	0.057850
C65	C	0.455621	0.671226	-0.020083
C66	C	0.367033	0.677772	-0.023357
C67	C	1.204093	0.541968	0.044547
C68	C	1.298380	0.534996	0.048033
C69	C	0.926228	0.562546	-0.155006
C70	C	0.926211	0.562558	-0.219246
C71	C	0.926287	0.751765	0.034284
C72	C	0.926290	0.815997	0.034287
C73	C	1.002931	0.556887	-0.246573
C74	C	1.002954	0.556869	-0.306918
C75	C	0.926241	0.562539	-0.339944
C76	C	0.849513	0.568206	-0.312608
C77	C	0.849498	0.568216	-0.252259
C78	C	0.832618	0.616956	-0.462785
C79	C	0.832632	0.616952	-0.523136
C80	C	0.926286	0.562507	-0.526079
C81	C	1.019933	0.508076	-0.468669
C82	C	1.019918	0.508085	-0.408320
C83	C	0.926249	0.562529	-0.405383
C84	C	1.003038	0.556814	-0.618838
C85	C	1.003062	0.556791	-0.679183
C86	C	0.849613	0.568138	-0.684876
C87	C	0.849597	0.568152	-0.624528
C88	C	0.926309	0.562494	-0.591515
C89	C	0.926331	0.562473	0.223556
C90	C	0.926348	0.562461	0.287797
C91	C	1.204085	0.352712	0.044539
C92	C	1.298370	0.281509	0.048022
C93	C	0.926323	0.373217	0.223548
C94	C	0.926338	0.308973	0.287785
C95	C	1.204136	0.352676	0.233820
C96	C	1.298438	0.281460	0.301543
C97	C	0.648423	0.772343	-0.165269
C98	C	0.554121	0.843558	-0.232993
C99	C	0.648474	0.772306	0.024012
C100	C	0.554190	0.843509	0.020529
C101	C	0.926236	0.751801	-0.154997
C102	C	0.926221	0.816045	-0.219235
C103	C	1.288388	0.252089	0.010685
C104	C	1.376970	0.185195	0.013943
C105	C	1.475532	0.147718	0.054543
C106	C	1.485512	0.177144	0.091882
C107	C	1.396931	0.244041	0.088619
C108	C	0.980604	0.274785	0.356925
C109	C	0.980614	0.214430	0.417288
C110	C	0.926364	0.188259	0.408511
C111	C	0.872091	0.222453	0.339364
C112	C	0.872076	0.282812	0.279002
C113	C	1.396971	0.244012	0.298392
C114	C	1.485587	0.177105	0.362020
C115	C	1.475667	0.147644	0.428799
C116	C	1.377123	0.185099	0.431948
C117	C	1.288510	0.252009	0.368321
C118	C	0.455588	0.881014	-0.229842
C119	C	0.366972	0.947939	-0.293470
C120	C	0.376892	0.977404	-0.360248
C121	C	0.475436	0.939945	-0.363397
C122	C	0.564049	0.873025	-0.299770
C123	C	0.564171	0.872935	0.057859
C124	C	0.475589	0.939846	0.054584
C125	C	0.377027	0.977325	0.013982
C126	C	0.367047	0.947897	-0.023353
C127	C	0.455628	0.880992	-0.020082
C128	C	0.980482	0.842196	-0.210434
C129	C	0.980488	0.902551	-0.270786
C130	C	0.926227	0.936758	-0.339937
C131	C	0.871965	0.910601	-0.348736
C132	C	0.871965	0.850243	-0.288385
H133	H	1.091147	-0.065379	0.049958
H134	H	1.065397	0.552277	-0.219693
H135	H	0.926385	0.139111	0.457668
Cl136	Cl	0.926233	1.012640	-0.415801
Cl137	Cl	1.048704	-0.064564	-0.044631
Cl138	Cl	0.164508	0.711744	-0.040330
Cl139	Cl	1.099524	0.549654	-0.713534
H140	H	1.091141	0.044127	0.049942
Cl141	Cl	1.048709	-0.200793	-0.044624
H142	H	1.208142	0.282603	-0.022385
H143	H	0.447510	0.732019	-0.050483
Cl144	Cl	0.753179	0.575257	-0.726385
H145	H	0.644277	0.842529	-0.302344
Cl146	Cl	0.487889	0.976993	-0.447354
H147	H	1.405068	0.267989	0.244024
Cl148	Cl	1.587078	0.063525	0.508782
H149	H	0.827922	0.201136	0.332228
H150	H	0.644418	0.842424	0.090927
Cl151	Cl	1.364670	0.148050	0.515904
H152	H	1.405073	0.267985	0.119028
Cl153	Cl	0.243102	0.995014	-0.289494
H154	H	0.286786	0.978423	-0.056411
H155	H	1.024781	0.296087	0.364085
H156	H	0.827775	0.828958	-0.295561
H157	H	1.024812	0.186595	0.473585
H158	H	0.761400	0.080914	0.018591
Cl159	Cl	0.803856	0.325779	0.192086
Cl160	Cl	0.609423	0.345156	0.142949
Cl161	Cl	0.409474	0.359931	0.135573
H162	H	1.565773	0.146620	0.124937
H163	H	1.565817	0.146616	0.359443
Cl164	Cl	0.803853	0.325810	0.113182
H165	H	1.208283	0.282491	0.370896
H166	H	0.447491	0.857028	-0.175474
Cl167	Cl	1.048706	0.799204	-0.123508
H168	H	0.483735	0.963795	0.084991
H169	H	1.368824	0.161246	-0.016463
H170	H	1.024664	0.296156	-0.029164
Cl171	Cl	0.753076	0.575330	-0.354122
H172	H	1.547652	0.093246	0.057195
H173	H	1.065432	0.552250	-0.329172
Cl174	Cl	1.048702	0.935426	-0.259708
H175	H	0.304730	1.031895	-0.412052
H176	H	0.304907	1.031803	0.011324
H177	H	0.447487	0.857036	-0.050480
H178	H	0.787022	0.572834	-0.230010
Cl179	Cl	0.803744	0.953621	-0.435675
Cl180	Cl	1.137637	0.439654	-0.336147
H181	H	1.024674	0.186657	-0.029156
H182	H	0.827877	-0.061634	0.097704
Cl183	Cl	0.803854	-0.182717	0.113188
H184	H	0.761389	0.190414	0.018576
Cl185	Cl	0.243132	0.779859	-0.074399
Cl186	Cl	1.137679	0.439630	-0.472361
H187	H	0.827873	0.201178	0.097692
H188	H	1.065505	0.552204	-0.591956
Cl189	Cl	0.688042	0.413267	0.108895
Cl190	Cl	0.753139	0.575289	-0.590175
H191	H	0.756381	0.661277	-0.569878
H192	H	0.756346	0.661285	-0.460394
