data_functionalizedCrystal
_audit_creation_method	'MofGen! by Chris Wilmer'
_symmetry_space_group_name_H-M	'P1'
_symmetry_Int_Tables_number	1
_symmetry_cell_setting	triclinic
loop_
_symmetry_equiv_pos_as_xyz
  x,y,z
_cell_length_a	19.121241
_cell_length_b	19.121063
_cell_length_c	18.215399
_cell_angle_alpha	92.409843
_cell_angle_beta	87.536725
_cell_angle_gamma	95.003121
loop_
_atom_site_label
_atom_site_type_symbol
_atom_site_fract_x
_atom_site_fract_y
_atom_site_fract_z
Zn1	Zn	1.063748	-0.234335	-0.474205
Zn2	Zn	1.397082	0.098998	-0.140872
Zn3	Zn	1.730415	0.432331	0.192462
Zn4	Zn	1.058635	-0.352008	-0.356162
Zn5	Zn	1.391968	-0.018675	-0.022828
Zn6	Zn	1.725302	0.314659	0.310505
Zn7	Zn	0.946079	-0.239367	-0.346108
Zn8	Zn	1.279412	0.093966	-0.012775
Zn9	Zn	1.612746	0.427300	0.320559
Zn10	Zn	0.941024	-0.356975	-0.474142
Zn11	Zn	1.274357	-0.023642	-0.140809
Zn12	Zn	1.607690	0.309692	0.192524
O13	O	1.002372	-0.295671	-0.412654
O14	O	1.335705	0.037662	-0.079321
O15	O	1.669038	0.370995	0.254012
O16	O	1.161536	-0.245761	-0.462780
O17	O	1.494869	0.087573	-0.129447
O18	O	1.828202	0.420906	0.203887
O19	O	1.043680	-0.337093	-0.251844
O20	O	1.377014	-0.003760	0.081489
O21	O	1.710347	0.329574	0.414823
O22	O	0.965944	-0.140234	-0.358919
O23	O	1.299277	0.193100	-0.025586
O24	O	1.632610	0.526433	0.307748
O25	O	1.157779	-0.332214	-0.376054
O26	O	1.491112	0.001119	-0.042721
O27	O	1.824446	0.334452	0.290613
O28	O	1.052395	-0.136537	-0.453031
O29	O	1.385728	0.196796	-0.119698
O30	O	1.719061	0.530130	0.213635
O31	O	0.960986	-0.254336	-0.244458
O32	O	1.294319	0.078997	0.088876
O33	O	1.627652	0.412331	0.422209
O34	O	0.846943	-0.259152	-0.358858
O35	O	1.180276	0.074181	-0.025525
O36	O	1.513609	0.407514	0.307808
O37	O	0.957327	-0.340680	-0.577135
O38	O	1.290661	-0.007346	-0.243801
O39	O	1.623994	0.325987	0.089532
O40	O	0.843228	-0.345558	-0.452925
O41	O	1.176562	-0.012225	-0.119591
O42	O	1.509895	0.321108	0.213742
O43	O	1.047493	-0.250577	-0.577181
O44	O	1.380826	0.082756	-0.243847
O45	O	1.714159	0.416090	0.089486
O46	O	1.038778	-0.451133	-0.375993
O47	O	1.372111	-0.117799	-0.042660
O48	O	1.705445	0.215534	0.290673
O49	O	0.952369	-0.454782	-0.462673
O50	O	1.285703	-0.121449	-0.129340
O51	O	1.619036	0.211885	0.203993
C52	C	0.819555	-0.303441	-0.404794
C53	C	1.152888	0.029893	-0.071461
C54	C	1.486221	0.363226	0.261872
C55	C	0.741344	-0.306782	-0.401450
C56	C	1.074677	0.026552	-0.068116
C57	C	1.408011	0.359885	0.265217
C58	C	0.706554	-0.263411	-0.445107
C59	C	1.039887	0.069923	-0.111774
C60	C	1.373220	0.403256	0.221560
C61	C	0.633067	-0.266546	-0.441958
C62	C	0.966400	0.066787	-0.108625
C63	C	1.299733	0.400120	0.224709
C64	C	0.594371	-0.313057	-0.395155
C65	C	0.927704	0.020277	-0.061822
C66	C	1.261038	0.353610	0.271511
C67	C	0.629166	-0.356429	-0.351493
C68	C	0.962499	-0.023096	-0.018160
C69	C	1.295833	0.310237	0.315173
C70	C	0.702652	-0.353290	-0.354639
C71	C	1.035985	-0.019956	-0.021306
C72	C	1.369319	0.313377	0.312028
C73	C	0.372393	-0.324782	-0.383392
C74	C	0.705727	0.008552	-0.050058
C75	C	1.039060	0.341885	0.283275
C76	C	0.298902	-0.327919	-0.380251
C77	C	0.632236	0.005414	-0.046918
C78	C	0.965569	0.338747	0.286416
C79	C	0.302808	-0.238035	-0.470715
C80	C	0.636142	0.095298	-0.137382
C81	C	0.969475	0.428632	0.195952
C82	C	0.376295	-0.234902	-0.473860
C83	C	0.709629	0.098431	-0.140526
C84	C	1.042962	0.431764	0.192807
C85	C	0.411084	-0.278272	-0.430195
C86	C	0.744417	0.055061	-0.096862
C87	C	1.077751	0.388394	0.236472
C88	C	0.519255	-0.316265	-0.391937
C89	C	0.852589	0.017069	-0.058604
C90	C	1.185922	0.350402	0.274729
C91	C	0.486199	-0.275061	-0.433410
C92	C	0.819532	0.058273	-0.100076
C93	C	1.152865	0.391606	0.233257
C94	C	0.994489	-0.478488	-0.420434
C95	C	1.327823	-0.145154	-0.087101
C96	C	1.661156	0.188179	0.246232
C97	C	0.991182	-0.556694	-0.423790
C98	C	1.324515	-0.223361	-0.090457
C99	C	1.657849	0.109972	0.242877
C100	C	1.034651	-0.591511	-0.380278
C101	C	1.367985	-0.258178	-0.046944
C102	C	1.701318	0.075155	0.286389
C103	C	1.031545	-0.664995	-0.383438
C104	C	1.364878	-0.331662	-0.050105
C105	C	1.698211	0.001672	0.283229
C106	C	0.984965	-0.703660	-0.430108
C107	C	1.318298	-0.370327	-0.096774
C108	C	1.651631	-0.036994	0.236559
C109	C	0.941493	-0.668838	-0.473625
C110	C	1.274827	-0.335505	-0.140292
C111	C	1.608160	-0.002172	0.193042
C112	C	0.944604	-0.595356	-0.470468
C113	C	1.277937	-0.262023	-0.137135
C114	C	1.611271	0.071311	0.196199
C115	C	0.973323	-0.925626	-0.441900
C116	C	1.306656	-0.592293	-0.108566
C117	C	1.639990	-0.258959	0.224767
C118	C	0.970214	-0.999113	-0.445052
C119	C	1.303548	-0.665780	-0.111719
C120	C	1.636881	-0.332447	0.221615
C121	C	1.060267	-0.995265	-0.354866
C122	C	1.393600	-0.661932	-0.021532
C123	C	1.726934	-0.328598	0.311801
C124	C	1.063370	-0.921782	-0.351709
C125	C	1.396704	-0.588448	-0.018376
C126	C	1.730037	-0.255115	0.314957
C127	C	1.019902	-0.886966	-0.395229
C128	C	1.353235	-0.553632	-0.061896
C129	C	1.686569	-0.220299	0.271437
C130	C	0.981786	-0.778773	-0.433338
C131	C	1.315120	-0.445439	-0.100004
C132	C	1.648453	-0.112106	0.233329
C133	C	1.023084	-0.811855	-0.392003
C134	C	1.356417	-0.478521	-0.058670
C135	C	1.689751	-0.145188	0.274664
C136	C	1.185902	-0.287872	-0.420545
C137	C	1.519236	0.045461	-0.087212
C138	C	1.852569	0.378795	0.246121
C139	C	1.264112	-0.284549	-0.423908
C140	C	1.597446	0.048785	-0.090575
C141	C	1.930779	0.382118	0.242758
C142	C	1.002416	-0.295621	-0.604607
C143	C	1.335750	0.037712	-0.271274
C144	C	1.669083	0.371046	0.062060
C145	C	1.002436	-0.295600	-0.686406
C146	C	1.335769	0.037734	-0.353073
C147	C	1.669102	0.371067	-0.019739
C148	C	1.010304	-0.112140	-0.404861
C149	C	1.343637	0.221193	-0.071527
C150	C	1.676970	0.554526	0.261806
C151	C	1.013684	-0.033930	-0.401540
C152	C	1.347017	0.299403	-0.068206
C153	C	1.680350	0.632736	0.265127
C154	C	1.049403	-0.248640	-0.874624
C155	C	1.382736	0.084693	-0.541291
C156	C	1.716069	0.418026	-0.207957
C157	C	1.049412	-0.248619	-0.951482
C158	C	1.382745	0.084714	-0.618149
C159	C	1.716079	0.418047	-0.284815
C160	C	0.955523	-0.342448	-0.951423
C161	C	1.288856	-0.009115	-0.618090
C162	C	1.622190	0.324219	-0.284757
C163	C	0.955511	-0.342465	-0.874566
C164	C	1.288844	-0.009132	-0.541233
C165	C	1.622178	0.324202	-0.207899
C166	C	1.002455	-0.295562	-0.836169
C167	C	1.335788	0.037771	-0.502835
C168	C	1.669121	0.371105	-0.169502
C169	C	1.002476	-0.295524	-0.989884
C170	C	1.335809	0.037809	-0.656551
C171	C	1.669143	0.371143	-0.323217
C172	C	1.002486	-0.295502	-1.073217
C173	C	1.335819	0.037831	-0.739884
C174	C	1.669152	0.371165	-0.406551
C175	C	1.002444	-0.295583	-0.752830
C176	C	1.335778	0.037750	-0.419497
C177	C	1.669111	0.371084	-0.086163
C178	C	1.002369	-0.295669	-0.221448
C179	C	1.335703	0.037664	0.111886
C180	C	1.669036	0.370998	0.445219
C181	C	1.002495	-0.295486	-0.139647
C182	C	1.335828	0.037847	0.193687
C183	C	1.669162	0.371180	0.527020
H184	H	0.407797	-0.197031	-0.511974
H185	H	0.741130	0.136302	-0.178641
H186	H	1.074463	0.469635	0.154692
H187	H	0.267398	-0.365797	-0.342138
H188	H	0.600731	-0.032464	-0.008805
H189	H	0.934065	0.300869	0.324528
H190	H	0.917305	-0.380636	-0.982696
H191	H	1.250638	-0.047303	-0.649363
H192	H	1.583971	0.286031	-0.316029
H193	H	1.101300	-0.890301	-0.313707
H194	H	1.434633	-0.556968	0.019626
H195	H	1.767966	-0.223635	0.352959
H196	H	0.932292	-1.030593	-0.483069
H197	H	1.265625	-0.697259	-0.149736
H198	H	1.598958	-0.363926	0.183597
H199	H	0.909208	-0.567009	-0.505901
H200	H	1.242541	-0.233675	-0.172568
H201	H	1.575874	0.099658	0.160765
H202	H	0.400709	-0.360097	-0.347837
H203	H	0.734043	-0.026764	-0.014504
H204	H	1.067376	0.306570	0.318829
H205	H	0.903570	-0.700326	-0.511628
H206	H	1.236903	-0.366992	-0.178295
H207	H	1.570237	-0.033659	0.155039
H208	H	0.917275	-0.380674	-0.843255
H209	H	1.250609	-0.047340	-0.509921
H210	H	1.583942	0.285993	-0.176588
H211	H	0.487741	-0.354134	-0.353830
H212	H	0.821074	-0.020800	-0.020497
H213	H	1.154408	0.312533	0.312836
H214	H	0.738055	-0.225539	-0.483221
H215	H	1.071388	0.107795	-0.149888
H216	H	1.404721	0.441128	0.183446
H217	H	0.517708	-0.237189	-0.471513
H218	H	0.851041	0.096144	-0.138180
H219	H	1.184375	0.429477	0.195154
H220	H	1.072579	-0.560035	-0.342271
H221	H	1.405912	-0.226702	-0.008937
H222	H	1.739245	0.106632	0.324396
H223	H	0.274475	-0.202725	-0.506264
H224	H	0.607808	0.130609	-0.172930
H225	H	0.941142	0.463942	0.160403
H226	H	1.066942	-0.693340	-0.348005
H227	H	1.400275	-0.360006	-0.014672
H228	H	1.733608	-0.026673	0.318662
H229	H	0.597654	-0.394296	-0.313382
H230	H	0.930987	-0.060963	0.019951
H231	H	1.264321	0.272371	0.353285
H232	H	0.604744	-0.231231	-0.477510
H233	H	0.938077	0.102103	-0.144177
H234	H	1.271411	0.435436	0.189157
H235	H	0.730977	-0.388607	-0.319088
H236	H	1.064310	-0.055273	0.014245
H237	H	1.397644	0.278060	0.347579
H238	H	1.095657	-1.023620	-0.319435
H239	H	1.428991	-0.690287	0.013898
H240	H	1.762324	-0.356953	0.347232
H241	H	0.937928	-0.897285	-0.477334
H242	H	1.271261	-0.563952	-0.144001
H243	H	1.604595	-0.230618	0.189332
H244	H	1.061012	-0.780371	-0.354007
H245	H	1.394346	-0.447038	-0.020674
H246	H	1.727679	-0.113704	0.312659
H247	H	0.943859	-0.810262	-0.471335
H248	H	1.277193	-0.476929	-0.138002
H249	H	1.610526	-0.143596	0.195332
H250	H	1.087625	-0.210447	-0.843363
H251	H	1.420959	0.122886	-0.510029
H252	H	1.754292	0.456220	-0.176696
H253	H	1.087641	-0.210410	-0.982789
H254	H	1.420974	0.122923	-0.649456
H255	H	1.754307	0.456257	-0.316122
