data_functionalizedCrystal
_audit_creation_method	'MofGen! by Chris Wilmer'
_symmetry_space_group_name_H-M	'P1'
_symmetry_Int_Tables_number	1
_symmetry_cell_setting	triclinic
loop_
_symmetry_equiv_pos_as_xyz
  x,y,z
_cell_length_a	17.077404
_cell_length_b	16.959454
_cell_length_c	17.077396
_cell_angle_alpha	89.975265
_cell_angle_beta	89.978556
_cell_angle_gamma	90.018322
loop_
_atom_site_label
_atom_site_type_symbol
_atom_site_fract_x
_atom_site_fract_y
_atom_site_fract_z
Zn1	Zn	1.200070	-0.314718	-0.443904
Zn2	Zn	1.199984	-0.446906	-0.312646
Zn3	Zn	1.068802	-0.314742	-0.312647
Zn4	Zn	1.068776	-0.446855	-0.443866
O5	O	1.134408	-0.380805	-0.378266
O6	O	1.309905	-0.332265	-0.426508
O7	O	1.182556	-0.429406	-0.202800
O8	O	1.086262	-0.204128	-0.330075
O9	O	1.309842	-0.429383	-0.330074
O10	O	1.182704	-0.204111	-0.426509
O11	O	1.086178	-0.332305	-0.202800
O12	O	0.958951	-0.332255	-0.330038
O13	O	1.086218	-0.429295	-0.553718
O14	O	0.958933	-0.429318	-0.426444
O15	O	1.182679	-0.332215	-0.553746
O16	O	1.182532	-0.557510	-0.330036
O17	O	1.086134	-0.557473	-0.426443
C18	C	0.930460	-0.380784	-0.378237
C19	C	0.843210	-0.380794	-0.378244
C20	C	1.134342	-0.586172	-0.378252
C21	C	1.134386	-0.674028	-0.378273
C22	C	0.467426	-0.330349	-0.428588
C23	C	0.549406	-0.330343	-0.428579
C24	C	0.590361	-0.380822	-0.378286
C25	C	0.549331	-0.431316	-0.328003
C26	C	0.467353	-0.431325	-0.328016
C27	C	0.720202	-0.431292	-0.327977
C28	C	0.802186	-0.431282	-0.327963
C29	C	0.802255	-0.330310	-0.428541
C30	C	0.720276	-0.330319	-0.428554
C31	C	0.679252	-0.380812	-0.378270
C32	C	1.084287	-1.045514	-0.428459
C33	C	1.184748	-1.045493	-0.328152
C34	C	1.184720	-0.962948	-0.328145
C35	C	1.134474	-0.921681	-0.378295
C36	C	1.084256	-0.962960	-0.428452
C37	C	1.234932	-0.921662	-0.277984
C38	C	1.234906	-0.839111	-0.277974
C39	C	1.184664	-0.797843	-0.328128
C40	C	1.134444	-0.839128	-0.378288
C41	C	1.084198	-0.797861	-0.428437
C42	C	1.033981	-0.839144	-0.478601
C43	C	1.034013	-0.921693	-0.478606
C44	C	1.184632	-0.715295	-0.328123
C45	C	1.084167	-0.715308	-0.428430
C46	C	1.339152	-0.380827	-0.378295
C47	C	1.426402	-0.380837	-0.378307
C48	C	1.134455	-0.380747	-0.583010
C49	C	1.134476	-0.380722	-0.670260
C50	C	1.134495	-0.174637	-0.378296
C51	C	1.134533	-0.086780	-0.378309
C52	C	1.184705	-0.330169	-0.711266
C53	C	1.184714	-0.330142	-0.793247
C54	C	1.134498	-0.380674	-0.834219
C55	C	1.084263	-0.431230	-0.793208
C56	C	1.084250	-0.431252	-0.711229
C57	C	1.084295	-0.431183	-0.964078
C58	C	1.084309	-0.431162	-1.046062
C59	C	1.184759	-0.330073	-1.046096
C60	C	1.184746	-0.330095	-0.964117
C61	C	1.134512	-0.380652	-0.923111
C62	C	1.134406	-0.380806	-0.174318
C63	C	1.134538	-0.380608	-0.087069
H64	H	0.434086	-0.289238	-0.469538
O65	O	0.842003	-0.480209	-0.279029
C66	C	0.934535	-0.490709	-0.173047
C67	C	0.889481	-0.435206	-0.228404
H68	H	0.972944	-0.454347	-0.132114
H69	H	0.891165	-0.526788	-0.137060
H70	H	0.972892	-0.532092	-0.209030
H71	H	0.851122	-0.393775	-0.192481
H72	H	0.932893	-0.399183	-0.264393
H73	H	1.043377	-0.472339	-0.930693
H74	H	1.043374	-0.472371	-0.826574
H75	H	0.686802	-0.472412	-0.287034
O76	O	1.233538	-0.281142	-0.833172
C77	C	1.339553	-0.270484	-0.925734
C78	C	1.284301	-0.326072	-0.880579
H79	H	1.380620	-0.306789	-0.964062
H80	H	1.303570	-0.229155	-0.964160
H81	H	1.375409	-0.234351	-0.882360
H82	H	1.248433	-0.362257	-0.923897
H83	H	1.320329	-0.367350	-0.842142
O84	O	1.035483	-1.085489	-0.477260
C85	C	0.935805	-1.076785	-0.576721
C86	C	0.991046	-1.031416	-0.521506
H87	H	0.899851	-1.033087	-0.612496
H88	H	0.971798	-1.115360	-0.617859
H89	H	0.894828	-1.115505	-0.540638
H90	H	1.032034	-0.992653	-0.557525
H91	H	0.955004	-0.992891	-0.480365
O92	O	1.035443	-0.480445	-0.671514
C93	C	0.935798	-0.580695	-0.680128
C94	C	0.991044	-0.525034	-0.725200
H95	H	0.899875	-0.616748	-0.723513
H96	H	0.971785	-0.622088	-0.641775
H97	H	0.894793	-0.544407	-0.641718
H98	H	1.032061	-0.561258	-0.763653
H99	H	0.955008	-0.483638	-0.763504
H100	H	1.225641	-0.288951	-0.930759
O101	O	1.233438	-0.280866	-1.085955
C102	C	1.244053	-0.174140	-1.178550
C103	C	1.188836	-0.229802	-1.133443
H104	H	1.208016	-0.132852	-1.216966
H105	H	1.279926	-0.137974	-1.135214
H106	H	1.285106	-0.210431	-1.216905
H107	H	1.147735	-0.193572	-1.095087
H108	H	1.153018	-0.265971	-1.176821
O109	O	0.589136	-0.281219	-0.477441
C110	C	0.580553	-0.181090	-0.577222
C111	C	0.535463	-0.236674	-0.521912
H112	H	0.537179	-0.145073	-0.613203
H113	H	0.618901	-0.139659	-0.541281
H114	H	0.618970	-0.217436	-0.618170
H115	H	0.497004	-0.200392	-0.480953
H116	H	0.497165	-0.278107	-0.557902
H117	H	0.582683	-0.472420	-0.287056
H118	H	1.043416	-0.472308	-1.079420
O119	O	1.283644	-0.961869	-0.229277
C120	C	1.328020	-1.089036	-0.184649
C121	C	1.272870	-1.043596	-0.239908
H122	H	1.319317	-1.155121	-0.193214
H123	H	1.391354	-1.072865	-0.198397
H124	H	1.314179	-1.072754	-0.121380
H125	H	1.286640	-1.059854	-0.303196
H126	H	1.209553	-1.059772	-0.226093
H127	H	1.225651	-1.079098	-0.287318
O128	O	1.283651	-0.799101	-0.229143
C129	C	1.321802	-0.773849	-0.095652
C130	C	1.266559	-0.819224	-0.150862
H131	H	1.307992	-0.790090	-0.032350
H132	H	1.385106	-0.790050	-0.109437
H133	H	1.313168	-0.707765	-0.104302
H134	H	1.275123	-0.885320	-0.142243
H135	H	1.203275	-0.802958	-0.137063
O136	O	0.842223	-0.281339	-0.477367
C137	C	0.968547	-0.236545	-0.521896
C138	C	0.923378	-0.292057	-0.466580
H139	H	1.034169	-0.245179	-0.513183
H140	H	0.952514	-0.250510	-0.585187
H141	H	0.952390	-0.172801	-0.508231
H142	H	0.939511	-0.355819	-0.480175
H143	H	0.939415	-0.278023	-0.403306
O144	O	0.427620	-0.480394	-0.279099
C145	C	0.436198	-0.580580	-0.179375
C146	C	0.481291	-0.525031	-0.234717
H147	H	0.479571	-0.616695	-0.143490
H148	H	0.397823	-0.544281	-0.138346
H149	H	0.397809	-0.621927	-0.215365
H150	H	0.519722	-0.483672	-0.198791
H151	H	0.519617	-0.561378	-0.275749
H152	H	1.043254	-0.681713	-0.469271
H153	H	0.993067	-0.805535	-0.519430
O154	O	0.985318	-0.961760	-0.527439
C155	C	0.947111	-0.986954	-0.660924
C156	C	1.002320	-0.941538	-0.605715
H157	H	0.960826	-0.970608	-0.724221
H158	H	0.955767	-1.053051	-0.652377
H159	H	0.883822	-0.970784	-0.647037
H160	H	1.065630	-0.957641	-0.619567
H161	H	0.993596	-0.875452	-0.614272
O162	O	1.233364	-0.675278	-0.279290
C163	C	1.271488	-0.650022	-0.145793
C164	C	1.216260	-0.695403	-0.201012
H165	H	1.257669	-0.666264	-0.082493
H166	H	1.334797	-0.666216	-0.159566
H167	H	1.262849	-0.583938	-0.154444
H168	H	1.224829	-0.761498	-0.192391
H169	H	1.152972	-0.679144	-0.187224
H170	H	1.225599	-0.289022	-0.677912
H171	H	0.686933	-0.289211	-0.469504
