data_functionalizedCrystal
_audit_creation_method	'MofGen! by Chris Wilmer'
_symmetry_space_group_name_H-M	'P1'
_symmetry_Int_Tables_number	1
_symmetry_cell_setting	triclinic
loop_
_symmetry_equiv_pos_as_xyz
  x,y,z
_cell_length_a	12.827893
_cell_length_b	16.959454
_cell_length_c	12.827885
_cell_angle_alpha	90.029644
_cell_angle_beta	90.019272
_cell_angle_gamma	90.020046
loop_
_atom_site_label
_atom_site_type_symbol
_atom_site_fract_x
_atom_site_fract_y
_atom_site_fract_z
Zn1	Zn	1.597636	-0.314644	0.590850
Zn2	Zn	1.597515	-0.446843	0.416110
Zn3	Zn	1.422877	-0.314682	0.416123
Zn4	Zn	1.422848	-0.446784	0.590810
O5	O	1.510219	-0.380738	0.503473
O6	O	1.743856	-0.332189	0.567681
O7	O	1.574311	-0.429352	0.269876
O8	O	1.446122	-0.204066	0.439323
O9	O	1.743767	-0.429315	0.439301
O10	O	1.574516	-0.204038	0.567694
O11	O	1.446005	-0.332254	0.269885
O12	O	1.276637	-0.332197	0.439285
O13	O	1.446072	-0.429215	0.737052
O14	O	1.276616	-0.429252	0.567627
O15	O	1.574488	-0.332132	0.737081
O16	O	1.574283	-0.557446	0.439263
O17	O	1.445956	-0.557403	0.567614
C18	C	1.238709	-0.380723	0.503454
C19	C	1.122556	-0.380736	0.503470
C20	C	1.510131	-0.586105	0.503456
C21	C	1.510190	-0.673961	0.503483
C22	C	1.070788	-0.428836	0.566880
C23	C	0.950738	-0.428850	0.566898
C24	C	1.443496	-1.045444	0.570299
C25	C	1.577233	-1.045429	0.436755
C26	C	1.577197	-0.962883	0.436745
C27	C	1.510308	-0.921614	0.503512
C28	C	1.443455	-0.962891	0.570289
C29	C	1.644041	-0.921601	0.369962
C30	C	1.644006	-0.839050	0.369949
C31	C	1.577121	-0.797779	0.436722
C32	C	1.510267	-0.839061	0.503502
C33	C	1.443378	-0.797791	0.570270
C34	C	1.376528	-0.839071	0.637056
C35	C	1.376571	-0.921620	0.637062
C36	C	1.577079	-0.715231	0.436716
C37	C	1.443337	-0.715238	0.570260
C38	C	1.782789	-0.380754	0.503494
C39	C	1.898942	-0.380761	0.503503
C40	C	1.510290	-0.380662	0.776044
C41	C	1.510320	-0.380630	0.892197
C42	C	1.510335	-0.174570	0.503514
C43	C	1.510385	-0.086714	0.503532
C44	C	1.510208	-0.380757	0.231964
C45	C	1.510380	-0.380567	0.115811
C46	C	1.573871	-0.332581	0.943996
C47	C	1.573904	-0.332546	1.064046
H48	H	1.115345	-0.470004	0.621157
H49	H	1.698490	-0.955208	0.315596
F50	F	0.892552	-0.482683	0.637853
H51	H	1.322144	-0.955238	0.691435
H52	H	1.628252	-0.291467	0.899466
H53	H	1.628316	-0.291412	1.108592
H54	H	1.455930	-0.421736	0.936727
F55	F	1.715159	-0.795124	0.298876
F56	F	0.957121	-0.326934	0.432534
H57	H	1.389071	-1.079058	0.624678
H58	H	1.077999	-0.339562	0.449200
H59	H	1.631685	-1.079036	0.382389
F60	F	1.372148	-0.671322	0.641330
F61	F	1.439264	-0.434344	1.057597
F62	F	1.305338	-0.795140	0.708108
F63	F	1.648210	-0.671301	0.365632
