data_functionalizedCrystal
_audit_creation_method	'MofGen! by Chris Wilmer'
_symmetry_space_group_name_H-M	'P1'
_symmetry_Int_Tables_number	1
_symmetry_cell_setting	triclinic
loop_
_symmetry_equiv_pos_as_xyz
  x,y,z
_cell_length_a	14.908783
_cell_length_b	12.759400
_cell_length_c	14.908308
_cell_angle_alpha	93.270344
_cell_angle_beta	89.788727
_cell_angle_gamma	93.304272
loop_
_atom_site_label
_atom_site_type_symbol
_atom_site_fract_x
_atom_site_fract_y
_atom_site_fract_z
Zn1	Zn	1.345353	-0.367466	-0.587851
Zn2	Zn	1.353951	-0.532490	-0.437501
Zn3	Zn	1.203666	-0.366329	-0.428823
Zn4	Zn	1.194979	-0.552608	-0.579124
O5	O	1.274488	-0.454723	-0.508325
O6	O	1.472321	-0.381413	-0.575191
O7	O	1.341250	-0.501553	-0.310526
O8	O	1.222499	-0.219457	-0.449938
O9	O	1.478638	-0.502656	-0.464730
O10	O	1.326596	-0.220293	-0.566776
O11	O	1.230836	-0.379475	-0.304150
O12	O	1.076687	-0.398983	-0.441476
O13	O	1.207692	-0.536944	-0.706105
O14	O	1.070304	-0.535842	-0.551902
O15	O	1.318172	-0.400920	-0.712517
O16	O	1.332826	-0.682181	-0.456267
O17	O	1.216029	-0.696962	-0.560317
C18	C	1.040870	-0.469473	-0.494801
C19	C	0.940927	-0.475809	-0.489036
C20	C	0.746532	-0.361662	-0.593404
C21	C	0.652626	-0.367613	-0.587991
C22	C	0.659206	-0.493654	-0.472793
C23	C	0.753113	-0.487704	-0.478206
C24	C	0.796772	-0.421707	-0.538514
C25	C	0.890680	-0.415763	-0.543932
C26	C	0.897259	-0.541798	-0.428730
C27	C	0.803353	-0.547748	-0.423316
C28	C	1.274441	-0.727693	-0.508308
C29	C	1.274502	-0.844467	-0.508335
C30	C	1.328674	-0.899689	-0.569218
C31	C	1.328714	-1.009412	-0.569243
C32	C	1.220409	-1.008680	-0.447493
C33	C	1.220365	-0.898960	-0.447474
C34	C	1.382811	-0.845196	-0.630080
C35	C	1.436988	-0.900419	-0.690967
C36	C	1.437028	-1.010142	-0.690991
C37	C	1.382892	-1.064642	-0.630128
C38	C	1.509017	-0.439917	-0.521902
C39	C	1.608959	-0.433608	-0.527688
C40	C	1.261004	-0.471303	-0.742848
C41	C	1.255258	-0.478368	-0.842788
C42	C	1.274557	-0.180688	-0.508363
C43	C	1.274587	-0.063910	-0.508379
C44	C	1.359501	-0.349979	-1.037264
C45	C	1.354105	-0.356614	-1.131167
C46	C	1.239066	-0.498267	-1.124498
C47	C	1.244462	-0.491632	-1.030595
C48	C	1.304682	-0.417487	-0.986982
C49	C	1.310082	-0.410858	-0.893078
C50	C	1.195040	-0.552505	-0.886410
C51	C	1.189644	-0.559140	-0.980313
C52	C	1.287970	-0.438129	-0.274717
C53	C	1.293890	-0.430756	-0.174787
H54	H	0.926225	-0.362026	-0.593039
H55	H	1.150405	-0.607477	-0.845460
H56	H	0.623643	-0.547373	-0.423683
H57	H	0.767792	-0.601477	-0.374212
H58	H	0.938174	-0.590699	-0.384041
C59	C	1.172807	-0.579795	-1.172487
N60	N	1.122894	-0.641196	-1.208634
C61	C	1.496532	-0.840467	-0.757914
N62	N	1.541383	-0.795312	-0.808339
H63	H	0.782080	-0.307930	-0.642513
C64	C	1.496624	-1.070883	-0.757966
N65	N	1.541519	-1.116631	-0.808410
H66	H	1.382918	-1.153987	-0.630163
H67	H	1.176335	-1.053063	-0.397941
C68	C	1.123399	-0.640688	-1.028298
N69	N	1.073501	-0.702111	-1.064439
H70	H	0.611724	-0.318716	-0.632685
C71	C	1.160782	-0.838211	-0.380492
N72	N	1.115903	-0.792454	-0.330038
C73	C	1.382768	-0.724499	-0.630061
N74	N	1.382734	-0.633591	-0.630047
H75	H	1.359118	-0.350486	-0.857569
C76	C	1.425746	-0.268425	-0.989288
N77	N	1.475643	-0.206995	-0.953154
C78	C	1.414412	-0.282353	-1.186475
N79	N	1.459838	-0.226416	-1.228133
