data_functionalizedCrystal
_audit_creation_method	'MofGen! by Chris Wilmer'
_symmetry_space_group_name_H-M	'P1'
_symmetry_Int_Tables_number	1
_symmetry_cell_setting	triclinic
loop_
_symmetry_equiv_pos_as_xyz
  x,y,z
_cell_length_a	12.827893
_cell_length_b	18.101397
_cell_length_c	12.827885
_cell_angle_alpha	90.036582
_cell_angle_beta	90.019272
_cell_angle_gamma	90.020436
loop_
_atom_site_label
_atom_site_type_symbol
_atom_site_fract_x
_atom_site_fract_y
_atom_site_fract_z
Zn1	Zn	1.597633	-0.294794	0.590799
Zn2	Zn	2.097633	0.205206	1.090799
Zn3	Zn	1.597511	-0.418654	0.416039
Zn4	Zn	2.097511	0.081346	0.916039
Zn5	Zn	1.422874	-0.294830	0.416073
Zn6	Zn	1.922874	0.205170	0.916073
Zn7	Zn	1.422844	-0.418598	0.590739
Zn8	Zn	1.922844	0.081402	1.090739
O9	O	1.510216	-0.356719	0.503412
O10	O	2.010216	0.143281	1.003412
O11	O	1.743853	-0.311232	0.567628
O12	O	2.243853	0.188768	1.067628
O13	O	1.574307	-0.402266	0.269807
O14	O	2.074307	0.097734	0.769807
O15	O	1.446120	-0.191193	0.439290
O16	O	1.946120	0.308807	0.939290
O17	O	1.743763	-0.402231	0.439232
O18	O	2.243763	0.097769	0.939232
O19	O	1.574514	-0.191166	0.567661
O20	O	2.074514	0.308834	1.067661
O21	O	1.446002	-0.311294	0.269832
O22	O	1.946002	0.188706	0.769832
O23	O	1.276634	-0.311240	0.439232
O24	O	1.776634	0.188760	0.939232
O25	O	1.446068	-0.402137	0.736983
O26	O	1.946068	0.097863	1.236983
O27	O	1.276612	-0.402172	0.567558
O28	O	1.776612	0.097828	1.067558
O29	O	1.574485	-0.311179	0.737027
O30	O	2.074485	0.188821	1.237027
O31	O	1.574278	-0.522279	0.439174
O32	O	2.074278	-0.022279	0.939174
O33	O	1.445951	-0.522239	0.567525
O34	O	1.945951	-0.022239	1.067525
C35	C	1.238706	-0.356705	0.503393
C36	C	1.738706	0.143295	1.003393
C37	C	1.122553	-0.356717	0.503409
C38	C	1.622553	0.143283	1.003409
C39	C	1.510126	-0.549130	0.503362
C40	C	2.010126	-0.049130	1.003362
C41	C	1.510183	-0.631444	0.503375
C42	C	2.010183	-0.131444	1.003375
C43	C	1.070784	-0.401783	0.566811
C44	C	1.570784	0.098217	1.066811
C45	C	0.950734	-0.401796	0.566829
C46	C	1.450734	0.098204	1.066829
C47	C	1.510317	-0.930535	0.503470
C48	C	2.010317	-0.430535	1.003470
C49	C	1.590832	-0.899204	0.422499
C50	C	2.090832	-0.399204	0.922499
C51	C	1.591111	-0.813586	0.422709
C52	C	2.091111	-0.313586	0.922709
C53	C	1.510251	-0.782152	0.503422
C54	C	2.010251	-0.282152	1.003422
C55	C	1.540108	-0.813151	0.613572
C56	C	2.040108	-0.313151	1.113572
C57	C	1.540731	-0.898796	0.613131
C58	C	2.040731	-0.398796	1.113131
C59	C	1.399730	-0.899046	0.475245
C60	C	1.899730	-0.399046	0.975245
C61	C	1.400276	-0.813396	0.472786
C62	C	1.900276	-0.313396	0.972786
C63	C	1.510212	-0.698293	0.503402
C64	C	2.010212	-0.198293	1.003402
C65	C	1.510359	-1.014394	0.503498
C66	C	2.010359	-0.514394	1.003498
C67	C	1.782786	-0.356734	0.503433
C68	C	2.282786	0.143266	1.003433
C69	C	1.898939	-0.356740	0.503442
C70	C	2.398939	0.143260	1.003442
C71	C	1.510287	-0.356648	0.775983
C72	C	2.010287	0.143352	1.275983
C73	C	1.510317	-0.356618	0.892136
C74	C	2.010317	0.143382	1.392136
C75	C	1.510334	-0.163557	0.503486
C76	C	2.010334	0.336443	1.003486
C77	C	1.510384	-0.081243	0.503518
C78	C	2.010384	0.418757	1.003518
C79	C	1.510205	-0.356737	0.231903
C80	C	2.010205	0.143263	0.731903
C81	C	1.510377	-0.356558	0.115750
C82	C	2.010377	0.143442	0.615750
C83	C	1.573868	-0.311600	0.943943
C84	C	2.073868	0.188400	1.443943
C85	C	1.573901	-0.311567	1.063993
C86	C	2.073901	0.188433	1.563993
H87	H	1.115341	-0.440353	0.621082
H88	H	1.615341	0.059647	1.121082
H89	H	0.906215	-0.440381	0.621107
H90	H	1.406215	0.059619	1.121107
N91	N	1.365643	-0.926204	0.376223
N92	N	1.865643	-0.426204	0.876223
N93	N	1.279055	-0.907030	0.340661
N94	N	1.779055	-0.407030	0.840661
H95	H	1.254990	-0.926209	0.270723
H96	H	1.754990	-0.426209	0.770723
H97	H	1.628249	-0.273080	0.899420
H98	H	2.128249	0.226920	1.399420
H99	H	1.628314	-0.273028	1.108546
H100	H	2.128314	0.226972	1.608546
H101	H	0.943451	-0.318158	0.449155
H102	H	1.443451	0.181842	0.949155
H103	H	1.484657	-0.919518	0.675540
H104	H	1.984657	-0.419518	1.175540
H105	H	1.455969	-0.395104	1.071204
H106	H	1.955969	0.104896	1.571204
H107	H	1.672301	-0.920671	0.440959
H108	H	2.172301	-0.420671	0.940959
N109	N	1.372044	-0.787991	0.371092
N110	N	1.872044	-0.287991	0.871092
N111	N	1.432636	-0.747025	0.321306
N112	N	1.932636	-0.247025	0.821306
H113	H	1.412702	-0.729079	0.249482
H114	H	1.912702	-0.229079	0.749482
N115	N	1.320977	-0.786559	0.541356
N116	N	1.820977	-0.286559	1.041356
N117	N	1.344329	-0.743780	0.614250
N118	N	1.844329	-0.243780	1.114250
H119	H	1.288326	-0.724827	0.662688
H120	H	1.788326	-0.224827	1.162688
H121	H	1.077996	-0.318141	0.449146
H122	H	1.577996	0.181859	0.949146
N123	N	1.567641	-0.787278	0.320266
N124	N	2.067641	-0.287278	0.820266
N125	N	1.563815	-0.719393	0.302900
N126	N	2.063815	-0.219393	0.802900
H127	H	1.547223	-0.700815	0.230549
H128	H	2.047223	-0.200815	0.730549
N129	N	1.567682	-0.925119	0.319736
N130	N	2.067682	-0.425119	0.819736
N131	N	1.491577	-0.966985	0.304971
N132	N	1.991577	-0.466985	0.804971
H133	H	1.475225	-0.985293	0.232392
H134	H	1.975225	-0.485293	0.732392
N135	N	1.693878	-0.787818	0.446134
N136	N	2.193878	-0.287818	0.946134
N137	N	1.765617	-0.833087	0.462386
N138	N	2.265617	-0.333087	0.962386
H139	H	1.838201	-0.814890	0.478933
H140	H	2.338201	-0.314890	0.978933
N141	N	1.642139	-0.923776	0.643127
N142	N	2.142139	-0.423776	1.143127
N143	N	1.711961	-0.877958	0.664239
N144	N	2.211961	-0.377958	1.164239
H145	H	1.783583	-0.895596	0.685423
H146	H	2.283583	-0.395596	1.185423
N147	N	1.468796	-0.787592	0.691286
N148	N	1.968796	-0.287592	1.191286
N149	N	1.458643	-0.719883	0.707544
N150	N	1.958643	-0.219883	1.207544
H151	H	1.408277	-0.701829	0.762427
H152	H	1.908277	-0.201829	1.262427
H153	H	1.620037	-0.791642	0.637886
H154	H	2.120037	-0.291642	1.137886
H155	H	1.339740	-0.919307	0.534220
H156	H	1.839740	-0.419307	1.034220
H157	H	1.455926	-0.395130	0.936659
H158	H	1.955926	0.104870	1.436659
