data_functionalizedCrystal
_audit_creation_method	'MofGen! by Chris Wilmer'
_symmetry_space_group_name_H-M	'P1'
_symmetry_Int_Tables_number	1
_symmetry_cell_setting	triclinic
loop_
_symmetry_equiv_pos_as_xyz
  x,y,z
_cell_length_a	21.395362
_cell_length_b	21.395355
_cell_length_c	21.395361
_cell_angle_alpha	89.978489
_cell_angle_beta	90.046585
_cell_angle_gamma	89.956060
loop_
_atom_site_label
_atom_site_type_symbol
_atom_site_fract_x
_atom_site_fract_y
_atom_site_fract_z
Zn1	Zn	0.957859	-0.354573	-0.249246
Zn2	Zn	1.291193	-0.021239	0.084088
Zn3	Zn	1.624526	0.312094	0.417421
Zn4	Zn	0.957762	-0.249790	-0.354005
Zn5	Zn	1.291095	0.083544	-0.020672
Zn6	Zn	1.624429	0.416877	0.312661
Zn7	Zn	0.853074	-0.249774	-0.249275
Zn8	Zn	1.186408	0.083559	0.084059
Zn9	Zn	1.519741	0.416893	0.417392
Zn10	Zn	0.853044	-0.354494	-0.354018
Zn11	Zn	1.186377	-0.021161	-0.020685
Zn12	Zn	1.519710	0.312172	0.312648
O13	O	0.905435	-0.302158	-0.301636
O14	O	1.238768	0.031176	0.031697
O15	O	1.572102	0.364509	0.365031
O16	O	1.045524	-0.340712	-0.263125
O17	O	1.378858	-0.007379	0.070209
O18	O	1.712191	0.325954	0.403542
O19	O	0.943847	-0.162110	-0.340119
O20	O	1.277180	0.171224	-0.006786
O21	O	1.610514	0.504557	0.326547
O22	O	0.867028	-0.263702	-0.161593
O23	O	1.200361	0.069632	0.171740
O24	O	1.533695	0.402965	0.505074
O25	O	1.045453	-0.263729	-0.340091
O26	O	1.378786	0.069605	-0.006758
O27	O	1.712119	0.402938	0.326575
O28	O	0.944013	-0.340697	-0.161572
O29	O	1.277347	-0.007364	0.171762
O30	O	1.610680	0.325970	0.505095
O31	O	0.866934	-0.162098	-0.263174
O32	O	1.200267	0.171235	0.070159
O33	O	1.533600	0.504569	0.403492
O34	O	0.765392	-0.263626	-0.263187
O35	O	1.098726	0.069707	0.070147
O36	O	1.432059	0.403041	0.403480
O37	O	0.866976	-0.442183	-0.340113
O38	O	1.200309	-0.108849	-0.006780
O39	O	1.533642	0.224484	0.326553
O40	O	0.765370	-0.340564	-0.340141
O41	O	1.098703	-0.007230	-0.006808
O42	O	1.432036	0.326103	0.326525
O43	O	0.943983	-0.442240	-0.263137
O44	O	1.277317	-0.108907	0.070196
O45	O	1.610650	0.224427	0.403530
O46	O	0.943817	-0.263653	-0.441685
O47	O	1.277150	0.069681	-0.108352
O48	O	1.610484	0.403014	0.224982
O49	O	0.866881	-0.340579	-0.441695
O50	O	1.200214	-0.007246	-0.108361
O51	O	1.533548	0.326088	0.224972
C52	C	0.742647	-0.302085	-0.301669
C53	C	1.075981	0.031248	0.031664
C54	C	1.409314	0.364582	0.364998
C55	C	0.673006	-0.302069	-0.301698
C56	C	1.006339	0.031265	0.031635
C57	C	1.339673	0.364598	0.364968
C58	C	0.905487	-0.465581	-0.301623
C59	C	1.238820	-0.132248	0.031710
C60	C	1.572154	0.201086	0.365043
C61	C	0.905509	-0.535222	-0.301618
C62	C	1.238842	-0.201889	0.031715
C63	C	1.572176	0.131444	0.365049
C64	C	0.905352	-0.302123	-0.464424
C65	C	1.238685	0.031211	-0.131090
C66	C	1.572019	0.364544	0.202243
C67	C	0.905374	-0.302129	-0.534065
C68	C	1.238707	0.031205	-0.200732
C69	C	1.572041	0.364538	0.132602
C70	C	0.640297	-0.342070	-0.341822
C71	C	0.973631	-0.008737	-0.008488
C72	C	1.306964	0.324597	0.324845
C73	C	0.574862	-0.342098	-0.341806
C74	C	0.908195	-0.008765	-0.008473
C75	C	1.241529	0.324569	0.324860
C76	C	0.542138	-0.302113	-0.301674
C77	C	0.875471	0.031220	0.031659
C78	C	1.208804	0.364553	0.364992
C79	C	0.574854	-0.262109	-0.261543
C80	C	0.908187	0.071224	0.071790
C81	C	1.241521	0.404558	0.405124
C82	C	0.640288	-0.262087	-0.261555
C83	C	0.973622	0.071247	0.071778
C84	C	1.306955	0.404580	0.405111
C85	C	0.438413	-0.245708	-0.296627
C86	C	0.771746	0.087625	0.036707
C87	C	1.105080	0.420958	0.370040
C88	C	0.372980	-0.245730	-0.296619
C89	C	0.706313	0.087604	0.036714
C90	C	1.039647	0.420937	0.370048
C91	C	0.340317	-0.302182	-0.301633
C92	C	0.673650	0.031151	0.031700
C93	C	1.006984	0.364484	0.365033
C94	C	0.373095	-0.358616	-0.306668
C95	C	0.706428	-0.025283	0.026665
C96	C	1.039762	0.308051	0.359998
C97	C	0.438529	-0.358594	-0.306681
C98	C	0.771862	-0.025260	0.026653
C99	C	1.105196	0.308073	0.359986
C100	C	0.471185	-0.302133	-0.301656
C101	C	0.804519	0.031200	0.031677
C102	C	1.137852	0.364533	0.365010
C103	C	0.236656	-0.342218	-0.341742
C104	C	0.569989	-0.008884	-0.008409
C105	C	0.903323	0.324449	0.324924
C106	C	0.171219	-0.342247	-0.341723
C107	C	0.504553	-0.008913	-0.008389
C108	C	0.837886	0.324420	0.324944
C109	C	0.171213	-0.262252	-0.261462
C110	C	0.504546	0.071081	0.071871
C111	C	0.837879	0.404415	0.405204
C112	C	0.236648	-0.262229	-0.261479
C113	C	0.569981	0.071105	0.071854
C114	C	0.903315	0.404438	0.405188
C115	C	0.269366	-0.302211	-0.301622
C116	C	0.602699	0.031123	0.031711
C117	C	0.936032	0.364456	0.365044
C118	C	1.068858	-0.302231	-0.301603
C119	C	1.402192	0.031102	0.031730
C120	C	1.735525	0.364436	0.365063
C121	C	1.138499	-0.302262	-0.301589
C122	C	1.471833	0.031071	0.031744
C123	C	1.805166	0.364405	0.365077
C124	C	0.945605	-0.567966	-0.261535
C125	C	1.278939	-0.234633	0.071799
C126	C	1.612272	0.098700	0.405132
C127	C	0.945604	-0.633402	-0.261508
C128	C	1.278938	-0.300068	0.071826
C129	C	1.612271	0.033265	0.405159
C130	C	0.905514	-0.666091	-0.301575
C131	C	1.238847	-0.332757	0.031758
C132	C	1.572181	0.000576	0.365091
C133	C	0.865410	-0.633339	-0.341661
C134	C	1.198743	-0.300005	-0.008328
C135	C	1.532077	0.033328	0.325006
C136	C	0.865407	-0.567904	-0.341682
C137	C	1.198741	-0.234571	-0.008349
C138	C	1.532074	0.098762	0.324984
C139	C	0.900538	-0.769752	-0.357992
C140	C	1.233871	-0.436418	-0.024659
C141	C	1.567205	-0.103085	0.308675
C142	C	0.900545	-0.835185	-0.357972
C143	C	1.233878	-0.501851	-0.024638
C144	C	1.567211	-0.168518	0.308695
C145	C	0.905518	-0.867911	-0.301509
C146	C	1.238851	-0.534578	0.031824
C147	C	1.572184	-0.201245	0.365158
C148	C	0.910497	-0.835197	-0.245065
C149	C	1.243830	-0.501864	0.088268
C150	C	1.577164	-0.168531	0.421602
C151	C	0.910495	-0.769763	-0.245086
C152	C	1.243828	-0.436430	0.088247
C153	C	1.577161	-0.103097	0.421580
C154	C	0.905512	-0.737043	-0.301556
C155	C	1.238845	-0.403710	0.031777
C156	C	1.572179	-0.070376	0.365110
C157	C	0.945615	-0.971608	-0.261393
C158	C	1.278949	-0.638275	0.071940
C159	C	1.612282	-0.304941	0.405273
C160	C	0.945610	-1.037045	-0.261365
C161	C	1.278943	-0.703711	0.071968
C162	C	1.612277	-0.370378	0.405301
C163	C	0.865419	-1.036980	-0.341524
C164	C	1.198752	-0.703647	-0.008191
C165	C	1.532085	-0.370314	0.325142
C166	C	0.865421	-0.971545	-0.341547
C167	C	1.198754	-0.638212	-0.008213
C168	C	1.532087	-0.304878	0.325120
C169	C	0.905522	-0.938863	-0.301482
C170	C	1.238856	-0.605529	0.031851
C171	C	1.572189	-0.272196	0.365185
C172	C	0.905419	-0.139370	-0.301603
C173	C	1.238752	0.193963	0.031730
C174	C	1.572086	0.527297	0.365063
C175	C	0.905518	-0.069729	-0.301432
C176	C	1.238852	0.263604	0.031901
C177	C	1.572185	0.596938	0.365234
C178	C	0.945470	-0.262114	-0.566752
C179	C	1.278804	0.071219	-0.233419
C180	C	1.612137	0.404552	0.099914
C181	C	0.945499	-0.262128	-0.632188
C182	C	1.278833	0.071205	-0.298854
C183	C	1.612166	0.404538	0.034479
C184	C	0.905421	-0.302150	-0.664933
C185	C	1.238755	0.031183	-0.331600
C186	C	1.572088	0.364516	0.001733
C187	C	0.865322	-0.342172	-0.632238
C188	C	1.198656	-0.008839	-0.298905
C189	C	1.531989	0.324494	0.034429
C190	C	0.865299	-0.342162	-0.566804
C191	C	1.198632	-0.008828	-0.233470
C192	C	1.531965	0.324505	0.099863
C193	C	0.849006	-0.307041	-0.768664
C194	C	1.182340	0.026292	-0.435331
C195	C	1.515673	0.359626	-0.101997
C196	C	0.849029	-0.307047	-0.834097
C197	C	1.182362	0.026286	-0.500764
C198	C	1.515696	0.359619	-0.167430
C199	C	0.905494	-0.302187	-0.866754
C200	C	1.238828	0.031146	-0.533421
C201	C	1.572161	0.364480	-0.200087
C202	C	0.961939	-0.297307	-0.833970
C203	C	1.295272	0.036026	-0.500637
C204	C	1.628605	0.369360	-0.167303
C205	C	0.961915	-0.297296	-0.768536
C206	C	1.295248	0.036037	-0.435202
C207	C	1.628582	0.369370	-0.101869
C208	C	0.905443	-0.302167	-0.735886
C209	C	1.238776	0.031167	-0.402552
C210	C	1.572109	0.364500	-0.069219
C211	C	0.945625	-0.262186	-0.970394
C212	C	1.278959	0.071148	-0.637060
C213	C	1.612292	0.404481	-0.303727
C214	C	0.945655	-0.262204	-1.035830
C215	C	1.278989	0.071129	-0.702497
C216	C	1.612322	0.404463	-0.369164
C217	C	0.865473	-0.342245	-1.035879
C218	C	1.198806	-0.008912	-0.702546
C219	C	1.532139	0.324422	-0.369213
C220	C	0.865448	-0.342230	-0.970444
C221	C	1.198782	-0.008896	-0.637111
C222	C	1.532115	0.324437	-0.303777
C223	C	0.905524	-0.302197	-0.937705
C224	C	1.238857	0.031137	-0.604372
C225	C	1.572190	0.364470	-0.271039
C226	C	0.905535	-0.302206	-0.138213
C227	C	1.238868	0.031127	0.195121
C228	C	1.572202	0.364460	0.528454
C229	C	0.905578	-0.302227	-0.068571
C230	C	1.238911	0.031106	0.264762
C231	C	1.572244	0.364440	0.598095
H232	H	0.666932	-0.374627	-0.374509
H233	H	1.000265	-0.041294	-0.041175
H234	H	1.333599	0.292039	0.292158
Cl235	Cl	0.479468	-0.174732	-0.290325
Cl236	Cl	0.812801	0.158602	0.043008
Cl237	Cl	1.146135	0.491935	0.376342
Cl238	Cl	0.995860	-0.211796	-0.525598
Cl239	Cl	1.329193	0.121537	-0.192265
Cl240	Cl	1.662527	0.454870	0.141068
Cl241	Cl	0.130099	-0.392543	-0.392165
Cl242	Cl	0.463433	-0.059209	-0.058831
Cl243	Cl	0.796766	0.274124	0.274502
H244	H	0.346502	-0.404585	-0.310751
H245	H	0.679836	-0.071252	0.022583
H246	H	1.013169	0.262081	0.355916
H247	H	0.263280	-0.229652	-0.228809
H248	H	0.596613	0.103681	0.104524
H249	H	0.929946	0.437015	0.437857
Cl250	Cl	0.277790	-0.392483	-0.392203
Cl251	Cl	0.611123	-0.059150	-0.058870
Cl252	Cl	0.944456	0.274183	0.274464
Cl253	Cl	0.130080	-0.211989	-0.211006
Cl254	Cl	0.463413	0.121345	0.122327
Cl255	Cl	0.796746	0.454678	0.455661
H256	H	0.832766	-0.659958	-0.374282
H257	H	1.166099	-0.326625	-0.040949
H258	H	1.499433	0.006709	0.292384
H259	H	0.548226	-0.374674	-0.374479
H260	H	0.881559	-0.041341	-0.041146
H261	H	1.214892	0.291992	0.292187
Cl262	Cl	1.032870	-0.291168	-0.727324
Cl263	Cl	1.366204	0.042165	-0.393990
Cl264	Cl	1.699537	0.375499	-0.060657
H265	H	0.978153	-0.229544	-0.658807
H266	H	1.311486	0.103789	-0.325474
H267	H	1.644819	0.437123	0.007860
H268	H	0.803068	-0.311015	-0.860785
H269	H	1.136402	0.022319	-0.527451
H270	H	1.469735	0.355652	-0.194118
Cl271	Cl	1.032928	-0.291190	-0.875017
Cl272	Cl	1.366261	0.042143	-0.541683
Cl273	Cl	1.699595	0.375477	-0.208350
Cl274	Cl	0.479734	-0.429535	-0.313006
Cl275	Cl	0.813067	-0.096201	0.020327
Cl276	Cl	1.146400	0.237132	0.353661
H277	H	0.978259	-0.229590	-0.943737
H278	H	1.311593	0.103743	-0.610403
H279	H	1.644926	0.437076	-0.277070
Cl280	Cl	0.916749	-0.728639	-0.174132
Cl281	Cl	1.250083	-0.395306	0.159202
Cl282	Cl	1.583416	-0.061972	0.492535
Cl283	Cl	0.331780	-0.174786	-0.290289
Cl284	Cl	0.665113	0.158547	0.043045
Cl285	Cl	0.998447	0.491881	0.376378
H286	H	0.548206	-0.229554	-0.228866
H287	H	0.881539	0.103779	0.104467
H288	H	1.214872	0.437112	0.437801
Cl289	Cl	0.681410	-0.211795	-0.211110
Cl290	Cl	1.014743	0.121539	0.122223
Cl291	Cl	1.348076	0.454872	0.455556
Cl292	Cl	0.996072	-0.211900	-1.076924
Cl293	Cl	1.329405	0.121433	-0.743590
Cl294	Cl	1.662738	0.454767	-0.410257
H295	H	0.978258	-0.541360	-0.228910
H296	H	1.311592	-0.208027	0.104423
H297	H	1.644925	0.125306	0.437756
Cl298	Cl	0.815014	-0.930379	-0.391943
Cl299	Cl	1.148347	-0.597045	-0.058609
Cl300	Cl	1.481680	-0.263712	0.274724
Cl301	Cl	0.996002	-0.674574	-0.211101
Cl302	Cl	1.329336	-0.341241	0.122232
Cl303	Cl	1.662669	-0.007908	0.455566
Cl304	Cl	0.996024	-0.930519	-0.211024
Cl305	Cl	1.329357	-0.597186	0.122309
Cl306	Cl	1.662691	-0.263852	0.455642
H307	H	0.914548	-0.861842	-0.199088
H308	H	1.247881	-0.528509	0.134246
H309	H	1.581214	-0.195176	0.467579
Cl310	Cl	0.996031	-1.078209	-0.210980
Cl311	Cl	1.329365	-0.744876	0.122353
Cl312	Cl	1.662698	-0.411543	0.455687
H313	H	0.896494	-0.861815	-0.403932
H314	H	1.229828	-0.528482	-0.070598
H315	H	1.563161	-0.195149	0.262735
Cl316	Cl	0.778015	-0.313152	-0.727616
Cl317	Cl	1.111348	0.020181	-0.394283
Cl318	Cl	1.444681	0.353515	-0.060950
Cl319	Cl	0.815013	-1.078069	-0.391890
Cl320	Cl	1.148346	-0.744736	-0.058556
Cl321	Cl	1.481680	-0.411402	0.274777
Cl322	Cl	0.815092	-0.392563	-1.077039
Cl323	Cl	1.148426	-0.059230	-0.743706
Cl324	Cl	1.481759	0.274104	-0.410372
Cl325	Cl	0.814997	-0.526738	-0.392078
Cl326	Cl	1.148330	-0.193405	-0.058744
Cl327	Cl	1.481664	0.139928	0.274589
H328	H	0.832795	-0.374811	-0.943828
H329	H	1.166129	-0.041477	-0.610495
H330	H	1.499462	0.291856	-0.277162
H331	H	0.896321	-0.743111	-0.403959
H332	H	1.229654	-0.409777	-0.070626
H333	H	1.562987	-0.076444	0.262708
H334	H	0.832691	-0.374760	-0.658904
H335	H	1.166025	-0.041426	-0.325570
H336	H	1.499358	0.291907	0.007763
Cl337	Cl	0.814887	-0.392469	-0.525709
Cl338	Cl	1.148221	-0.059136	-0.192376
Cl339	Cl	1.481554	0.274197	0.140958
