data_functionalizedCrystal
_audit_creation_method	'MofGen! by Chris Wilmer'
_symmetry_space_group_name_H-M	'P1'
_symmetry_Int_Tables_number	1
_symmetry_cell_setting	triclinic
loop_
_symmetry_equiv_pos_as_xyz
  x,y,z
_cell_length_a	15.298068
_cell_length_b	16.959454
_cell_length_c	15.296721
_cell_angle_alpha	99.648373
_cell_angle_beta	88.354701
_cell_angle_gamma	99.680351
loop_
_atom_site_label
_atom_site_type_symbol
_atom_site_fract_x
_atom_site_fract_y
_atom_site_fract_z
Zn1	Zn	1.253388	-0.235143	-0.727378
Zn2	Zn	1.278653	-0.341301	-0.580916
Zn3	Zn	1.132267	-0.227462	-0.555545
Zn4	Zn	1.106884	-0.385613	-0.701942
O5	O	1.192798	-0.297380	-0.641445
O6	O	1.379315	-0.233894	-0.729213
O7	O	1.280431	-0.304440	-0.454987
O8	O	1.148383	-0.117867	-0.578366
O9	O	1.397877	-0.311888	-0.621607
O10	O	1.237370	-0.123510	-0.704612
O11	O	1.172882	-0.220804	-0.436347
O12	O	1.006325	-0.263772	-0.553701
O13	O	1.105122	-0.387412	-0.827879
O14	O	0.987676	-0.379964	-0.661259
O15	O	1.212757	-0.276862	-0.846567
O16	O	1.255819	-0.457793	-0.596943
O17	O	1.129621	-0.490349	-0.685860
C18	C	0.965218	-0.325844	-0.601967
C19	C	0.867854	-0.338044	-0.585099
C20	C	0.554686	-0.210384	-0.762005
C21	C	0.646163	-0.198925	-0.777859
C22	C	0.701590	-0.233703	-0.729670
C23	C	0.665532	-0.279943	-0.665626
C24	C	0.574045	-0.291409	-0.649776
C25	C	0.720949	-0.314728	-0.617440
C26	C	0.684891	-0.360968	-0.553396
C27	C	0.593413	-0.372431	-0.537548
C28	C	0.537986	-0.337653	-0.585737
C29	C	0.812436	-0.303263	-0.633290
C30	C	0.831795	-0.384288	-0.521061
C31	C	0.740318	-0.395747	-0.505207
C32	C	1.192727	-0.502752	-0.641418
C33	C	1.192772	-0.590607	-0.641449
C34	C	1.127169	-0.979049	-0.687753
C35	C	1.258656	-0.945093	-0.595269
C36	C	1.258627	-0.862549	-0.595256
C37	C	1.192867	-0.838252	-0.641490
C38	C	1.127136	-0.896498	-0.687738
C39	C	1.324350	-0.804297	-0.549001
C40	C	1.324323	-0.721747	-0.548985
C41	C	1.258567	-0.697449	-0.595226
C42	C	1.192834	-0.755701	-0.641476
C43	C	1.127075	-0.731404	-0.687711
C44	C	1.061345	-0.789655	-0.733967
C45	C	1.061380	-0.872200	-0.733979
C46	C	1.258532	-0.614904	-0.595214
C47	C	1.127042	-0.648853	-0.687697
C48	C	1.421267	-0.268805	-0.681078
C49	C	1.518627	-0.256628	-0.697967
C50	C	1.153290	-0.337937	-0.869891
C51	C	1.136454	-0.355220	-0.967241
C52	C	1.192890	-0.091205	-0.641496
C53	C	1.192929	-0.003346	-0.641518
C54	C	1.072500	-0.420897	-1.003243
C55	C	1.056683	-0.437140	-1.094708
C56	C	1.104813	-0.387703	-1.150179
C57	C	1.168763	-0.322022	-1.114177
C58	C	1.184587	-0.305781	-1.022704
C59	C	1.216899	-0.272588	-1.169641
C60	C	1.280850	-0.206906	-1.133638
C61	C	1.296670	-0.190668	-1.042173
C62	C	1.248540	-0.240104	-0.986702
C63	C	1.201076	-0.288829	-1.261114
C64	C	1.313162	-0.173713	-1.280575
C65	C	1.328980	-0.157470	-1.189110
C66	C	1.232203	-0.256917	-0.413897
C67	C	1.249209	-0.239390	-0.316577
H68	H	0.675515	-0.161279	-0.830006
N69	N	1.329567	-0.971294	-0.545387
H70	H	1.319610	-1.032425	-0.552408
H71	H	1.389747	-0.951430	-0.569911
H72	H	1.073495	-0.629078	-0.725351
H73	H	1.149007	-0.342307	-1.290418
H74	H	1.377844	-0.674324	-0.511322
H75	H	1.377883	-0.824086	-0.511352
N76	N	0.990488	-0.935024	-0.783861
H77	H	1.000485	-0.991002	-0.776848
H78	H	0.930304	-0.926033	-0.759323
N79	N	1.329421	-0.552085	-0.545330
H80	H	1.363813	-0.519053	-0.587986
H81	H	1.300805	-0.515161	-0.498540
N82	N	1.397969	-0.086645	-1.150273
H83	H	1.368964	-0.047725	-1.106148
H84	H	1.445078	-0.107042	-1.119411
H85	H	0.776075	-0.224367	-0.742579
H86	H	0.876924	-0.412612	-0.481826
N87	N	0.851319	-0.253394	-0.702364
H88	H	0.917682	-0.251409	-0.705099
H89	H	0.824519	-0.278899	-0.762118
N90	N	1.365084	-0.120390	-1.340394
H91	H	1.345355	-0.140642	-1.403801
H92	H	1.354246	-0.062801	-1.322056
N93	N	1.087757	-0.405209	-1.248832
H94	H	1.100022	-0.461331	-1.273650
H95	H	1.023863	-0.402060	-1.260368
N96	N	0.494907	-0.172884	-0.813981
H97	H	0.431483	-0.187167	-0.794223
H98	H	0.513239	-0.112007	-0.803232
H99	H	1.004616	-0.490619	-1.124015
N100	N	1.365637	-0.119822	-1.003341
H101	H	1.368356	-0.117034	-0.936980
H102	H	1.425427	-0.127132	-1.030177
H103	H	1.073656	-1.026480	-0.725416
N104	N	1.020597	-0.474217	-0.943420
H105	H	1.062746	-0.499656	-0.911640
H106	H	0.986589	-0.440384	-0.898485
N107	N	0.439318	-0.349998	-0.568637
H108	H	0.406900	-0.378029	-0.624874
H109	H	0.424953	-0.384546	-0.520729
N110	N	0.554517	-0.422311	-0.468481
H111	H	0.603508	-0.442603	-0.440357
H112	H	0.523558	-0.387649	-0.421436
N113	N	0.701414	-0.445616	-0.436133
H114	H	0.657313	-0.493358	-0.465081
H115	H	0.750452	-0.465854	-0.408026
H116	H	1.261410	-0.226879	-0.912221
H117	H	1.007800	-0.769862	-0.771607
