data_functionalizedCrystal
_audit_creation_method	'MofGen! by Chris Wilmer'
_symmetry_space_group_name_H-M	'P1'
_symmetry_Int_Tables_number	1
_symmetry_cell_setting	triclinic
loop_
_symmetry_equiv_pos_as_xyz
  x,y,z
_cell_length_a	6.817900
_cell_length_b	11.102289
_cell_length_c	17.982968
_cell_angle_alpha	94.232897
_cell_angle_beta	102.451960
_cell_angle_gamma	108.605707
loop_
_atom_site_label
_atom_site_type_symbol
_atom_site_fract_x
_atom_site_fract_y
_atom_site_fract_z
V1	V	-4.041372	-0.177030	-0.237548
O2	O	-4.001741	0.007282	-0.233027
O3	O	-4.018629	-0.349842	-0.235924
O4	O	-3.987555	-0.174844	-0.341151
O5	O	-4.033030	-0.168927	-0.127070
V6	V	-4.522378	-0.154920	-0.224334
O7	O	-4.308154	-0.225528	-0.266534
O8	O	-4.705794	-0.106422	-0.195348
O9	O	-4.321914	0.017892	-0.225959
O10	O	-4.679407	-0.339232	-0.228856
O11	O	-4.648117	-0.163023	-0.334812
O12	O	-4.352988	-0.157106	-0.120731
C13	C	-3.870047	-0.391953	-0.232176
C14	C	-3.932702	-0.533232	-0.231538
C15	C	-4.145023	-0.606098	-0.235039
C16	C	-4.203886	-0.738847	-0.234446
C17	C	-3.838085	-0.725851	-0.226848
C18	C	-3.779228	-0.593106	-0.227447
C19	C	-4.356214	-0.613601	-0.239423
C20	C	-4.415077	-0.746350	-0.238830
C21	C	-3.830408	-0.168724	-0.366404
C22	C	-3.867860	-0.168081	-0.451100
C23	C	-4.068320	-0.174147	-0.494771
C24	C	-4.103498	-0.173542	-0.574352
C25	C	-3.938217	-0.166879	-0.610260
C26	C	-3.737738	-0.160808	-0.566583
C27	C	-3.702558	-0.161405	-0.487003
C28	C	-3.879608	-0.158402	-0.887520
C29	C	-3.914806	-0.157810	-0.967106
C30	C	-4.280548	-0.170538	-0.974869
C31	C	-4.245368	-0.171135	-0.895289
C32	C	-4.044890	-0.165057	-0.851618
C33	C	-4.006747	-0.165712	-0.765327
C34	C	-3.976361	-0.166234	-0.696550
C35	C	-4.133840	0.059996	-0.229704
C36	C	-4.050423	0.201275	-0.230347
C37	C	-4.173479	-0.163230	-0.095475
C38	C	-4.115265	-0.163867	-0.010778
H39	H	-4.451716	-0.594659	-0.294832
O40	O	-3.685078	-0.152817	-0.845090
C41	C	-3.487419	-0.257119	-0.761270
C42	C	-3.707856	-0.263504	-0.809246
H43	H	-3.505753	-0.346610	-0.732291
H44	H	-3.417767	-0.167791	-0.715383
H45	H	-3.375505	-0.252262	-0.800671
H46	H	-3.819930	-0.268409	-0.769908
H47	H	-3.777332	-0.352818	-0.855141
H48	H	-3.539309	-0.156434	-0.451443
O49	O	-4.375406	-0.549974	-0.175304
C50	C	-4.471446	-0.566370	-0.054148
C51	C	-4.449884	-0.638595	-0.126735
H52	H	-4.531619	-0.637985	-0.014853
H53	H	-4.589759	-0.514240	-0.071600
H54	H	-4.308753	-0.493389	-0.022228
H55	H	-4.612475	-0.711637	-0.158688
H56	H	-4.331467	-0.690638	-0.109233
H57	H	-3.713141	-0.774616	-0.223518
O58	O	-3.573088	-0.522301	-0.224186
C59	C	-3.331974	-0.382394	-0.286740
C60	C	-3.565520	-0.462555	-0.290540
H61	H	-3.325784	-0.334046	-0.340373
H62	H	-3.232314	-0.447940	-0.283758
H63	H	-3.264936	-0.305774	-0.233238
H64	H	-3.632751	-0.539182	-0.344037
H65	H	-3.665032	-0.396927	-0.293481
O66	O	-4.552503	-0.815537	-0.306200
C67	C	-4.750194	-0.809568	-0.433446
C68	C	-4.594606	-0.731055	-0.357185
H69	H	-4.784247	-0.741298	-0.474694
H70	H	-4.906159	-0.871437	-0.421681
H71	H	-4.675231	-0.874111	-0.460438
H72	H	-4.669375	-0.666440	-0.330153
H73	H	-4.438658	-0.669270	-0.368999
O74	O	-4.298225	-0.179602	-0.616866
C75	C	-4.604427	-0.297018	-0.721522
C76	C	-4.383895	-0.290299	-0.673452
H77	H	-4.673776	-0.386523	-0.767272
H78	H	-4.586413	-0.207718	-0.750676
H79	H	-4.716428	-0.301825	-0.682160
H80	H	-4.271777	-0.285534	-0.712760
H81	H	-4.402075	-0.379597	-0.644289
O82	O	-4.494707	-0.776064	-0.176788
C83	C	-4.643782	-0.943219	-0.105898
C84	C	-4.553739	-0.909754	-0.176205
H85	H	-4.691492	-1.051303	-0.105395
H86	H	-4.790040	-0.913053	-0.109385
H87	H	-4.516316	-0.890047	-0.050829
H88	H	-4.681050	-0.962910	-0.231309
H89	H	-4.407433	-0.939890	-0.172650
O90	O	-4.228924	-0.180846	-0.459880
C91	C	-4.455526	-0.299530	-0.384841
C92	C	-4.273658	-0.292121	-0.424334
H93	H	-4.491719	-0.389474	-0.356079
H94	H	-4.604947	-0.303845	-0.429703
H95	H	-4.404441	-0.210689	-0.339456
H96	H	-4.324539	-0.380940	-0.469715
H97	H	-4.124282	-0.287743	-0.379428
H98	H	-4.379964	-0.176566	-0.866057
H99	H	-4.443787	-0.175481	-1.010436
O100	O	-3.754318	-0.151158	-1.002058
C101	C	-3.527589	-0.032381	-1.077028
C102	C	-3.709373	-0.039770	-1.037494
H103	H	-3.491164	0.057683	-1.105674
H104	H	-3.578596	-0.121119	-1.122486
H105	H	-3.378313	-0.028199	-1.032138
H106	H	-3.858717	-0.043911	-1.082327
H107	H	-3.658189	0.048966	-0.992021
H108	H	-3.603162	-0.155376	-0.595825
