data_functionalizedCrystal
_audit_creation_method	'MofGen! by Chris Wilmer'
_symmetry_space_group_name_H-M	'P1'
_symmetry_Int_Tables_number	1
_symmetry_cell_setting	triclinic
loop_
_symmetry_equiv_pos_as_xyz
  x,y,z
_cell_length_a	12.759401
_cell_length_b	25.639240
_cell_length_c	25.639234
_cell_angle_alpha	90.016775
_cell_angle_beta	89.990808
_cell_angle_gamma	89.961053
loop_
_atom_site_label
_atom_site_type_symbol
_atom_site_fract_x
_atom_site_fract_y
_atom_site_fract_z
Zn1	Zn	1.605979	0.208181	-0.295611
Zn2	Zn	1.605836	0.295603	-0.208181
Zn3	Zn	1.430313	0.208186	-0.208191
Zn4	Zn	1.430200	0.295590	-0.295588
O5	O	1.518082	0.251890	-0.251893
O6	O	1.752981	0.219781	-0.284019
O7	O	1.582541	0.284015	-0.135017
O8	O	1.453723	0.135020	-0.219801
O9	O	1.752876	0.284010	-0.219785
O10	O	1.582784	0.135016	-0.284028
O11	O	1.453585	0.219790	-0.135024
O12	O	1.283277	0.219777	-0.219778
O13	O	1.453529	0.283987	-0.368756
O14	O	1.283194	0.283992	-0.283988
O15	O	1.582673	0.219768	-0.368773
O16	O	1.582430	0.368767	-0.219763
O17	O	1.453391	0.368757	-0.283979
C18	C	1.245115	0.251884	-0.251882
C19	C	1.128338	0.251893	-0.251890
C20	C	1.073460	0.285381	-0.285272
C21	C	0.963736	0.285383	-0.285282
C22	C	0.963777	0.218408	-0.218525
C23	C	1.073500	0.218404	-0.218517
C24	C	0.813799	0.304160	-0.346921
C25	C	0.758918	0.337655	-0.380298
C26	C	0.794472	0.388682	-0.388233
C27	C	0.884905	0.406223	-0.362784
C28	C	0.939781	0.372731	-0.329403
C29	C	0.904229	0.321697	-0.321478
C30	C	1.223438	0.199633	-0.156878
C31	C	1.278316	0.166142	-0.123494
C32	C	1.242764	0.115115	-0.115553
C33	C	1.152327	0.097575	-0.140993
C34	C	1.097449	0.131066	-0.174377
C35	C	1.133008	0.182093	-0.182319
C36	C	1.517911	0.387733	-0.251879
C37	C	1.517934	0.445847	-0.251891
C38	C	1.585194	0.696987	-0.285364
C39	C	1.585173	0.642383	-0.285361
O40	O	1.642284	0.614101	-0.313807
N41	N	1.518017	0.615120	-0.251895
C42	C	1.450887	0.642466	-0.218426
O43	O	1.393765	0.614263	-0.189960
C44	C	1.450914	0.697069	-0.218427
C45	C	1.518066	0.724328	-0.251899
C46	C	1.652341	0.724246	-0.318833
C47	C	1.652361	0.778847	-0.318837
C48	C	1.585233	0.806188	-0.285372
C49	C	1.518086	0.778929	-0.251903
C50	C	1.383789	0.724413	-0.184957
C51	C	1.383823	0.779020	-0.184960
C52	C	1.450975	0.806279	-0.218432
C53	C	1.450978	0.860870	-0.218442
N54	N	1.518133	0.888132	-0.251908
C55	C	1.585261	0.860791	-0.285373
C56	C	1.450836	0.527795	-0.218426
C57	C	1.450802	0.473193	-0.218427
C58	C	1.585090	0.473113	-0.285361
C59	C	1.585117	0.527717	-0.285362
C60	C	1.517991	0.555057	-0.251892
C61	C	1.585296	0.975456	-0.285379
C62	C	1.585307	1.030062	-0.285381
C63	C	1.451024	1.030136	-0.218446
C64	C	1.451009	0.975536	-0.218445
C65	C	1.518153	0.948197	-0.251913
O66	O	1.393899	0.889187	-0.190009
O67	O	1.642383	0.889000	-0.313830
C68	C	1.792115	0.251897	-0.251903
C69	C	1.908892	0.251900	-0.251908
C70	C	1.518104	0.251875	-0.388266
C71	C	1.518114	0.251869	-0.446380
C72	C	1.518235	1.115517	-0.251915
C73	C	1.518179	1.057403	-0.251916
C74	C	1.450939	0.285242	-0.697559
C75	C	1.450920	0.285254	-0.642954
O76	O	1.393705	0.313681	-0.614705
N77	N	1.518154	0.251827	-0.615654
C78	C	1.585403	0.218382	-0.642960
O79	O	1.642588	0.189951	-0.614725
C80	C	1.585415	0.218368	-0.697563
C81	C	1.518185	0.251801	-0.724861
C82	C	1.383713	0.318672	-0.724857
C83	C	1.383733	0.318660	-0.779457
C84	C	1.450979	0.285219	-0.806760
C85	C	1.518205	0.251790	-0.779462
C86	C	1.652658	0.184921	-0.724869
C87	C	1.652664	0.184910	-0.779476
C88	C	1.585434	0.218343	-0.806774
C89	C	1.585471	0.218338	-0.861365
N90	N	1.518237	0.251764	-0.888666
C91	C	1.450991	0.285205	-0.861363
C92	C	1.585371	0.218413	-0.528289
C93	C	1.585364	0.218430	-0.473687
C94	C	1.450880	0.285301	-0.473685
C95	C	1.450892	0.285287	-0.528288
C96	C	1.518137	0.251840	-0.555590
C97	C	1.451039	0.285180	-0.976028
C98	C	1.451068	0.285167	-1.030634
C99	C	1.585548	0.218294	-1.030631
C100	C	1.585523	0.218309	-0.976030
C101	C	1.518260	0.251753	-0.948730
O102	O	1.642654	0.189923	-0.889649
O103	O	1.393806	0.313627	-0.889605
C104	C	1.518120	0.251867	-0.116050
C105	C	1.518314	0.251726	-0.057936
H106	H	1.023815	0.116779	-0.195095
N107	N	1.654074	0.184244	-0.556167
N108	N	1.714093	0.154403	-0.531780
H109	H	1.762613	0.130270	-0.551466
N110	N	1.298833	0.080909	-0.081452
N111	N	1.392388	0.069809	-0.090774
H112	H	1.431984	0.045651	-0.066692
N113	N	1.382386	0.319324	-1.058509
N114	N	1.322349	0.349178	-1.034121
H115	H	1.273842	0.373300	-1.053806
N116	N	1.032160	0.390632	-0.303410
N117	N	1.081153	0.360720	-0.273613
H118	H	1.146402	0.373362	-0.255257
N119	N	0.907743	0.184205	-0.184441
N120	N	0.809778	0.184213	-0.184451
H121	H	0.770203	0.160057	-0.160378
N122	N	1.370686	0.184068	-0.097505
N123	N	1.402425	0.229629	-0.104599
H124	H	1.467661	0.242290	-0.086245
H125	H	1.252400	0.241182	-0.163345
H126	H	1.707419	0.157671	-0.801702
N127	N	1.654212	0.184160	-0.948151
N128	N	1.714251	0.154306	-0.972538
H129	H	1.762758	0.130185	-0.952852
N130	N	1.653704	0.555567	-0.319550
N131	N	1.616712	0.586044	-0.352851
H132	H	1.665154	0.605713	-0.376997
H133	H	1.640302	0.191069	-1.052871
N134	N	1.315069	0.352807	-0.807350
N135	N	1.351989	0.386118	-0.837818
H136	H	1.303492	0.410234	-0.857517
H137	H	1.396258	0.312409	-0.953807
N138	N	1.315174	0.696583	-0.150770
N139	N	1.218230	0.702736	-0.154196
H140	H	1.169762	0.683085	-0.130050
N141	N	1.129494	0.319585	-0.319356
N142	N	1.190668	0.352873	-0.300897
H143	H	1.230242	0.377030	-0.324971
N144	N	0.666556	0.319744	-0.406305
N145	N	0.617569	0.349655	-0.436106
H146	H	0.552337	0.337008	-0.454474
N147	N	1.720962	0.806679	-0.353032
N148	N	1.780888	0.782252	-0.382905
H149	H	1.829344	0.801904	-0.407057
H150	H	1.707405	0.157697	-0.702652
N151	N	1.382163	0.319450	-0.445791
N152	N	1.285225	0.315971	-0.451888
H153	H	1.236693	0.340087	-0.432187
H154	H	1.639988	1.052254	-0.312641
N155	N	0.921227	0.458347	-0.370893
N156	N	1.010469	0.466109	-0.389436
H157	H	1.036126	0.502922	-0.395164
N158	N	1.720940	0.696322	-0.353007
N159	N	1.787915	0.665837	-0.334638
H160	H	1.836372	0.646120	-0.358775
N161	N	1.116013	0.045451	-0.132875
N162	N	1.165019	0.015555	-0.103068
H163	H	1.139374	-0.021259	-0.097331
H164	H	0.784850	0.262608	-0.340468
N165	N	0.738397	0.422892	-0.422325
N166	N	0.657655	0.407228	-0.445039
H167	H	0.618048	0.431386	-0.469118
N168	N	1.653892	0.947544	-0.319567
N169	N	1.713836	0.971898	-0.349445
H170	H	1.762279	0.952185	-0.373592
H171	H	1.328947	0.345903	-0.702633
N172	N	1.382204	0.319436	-0.556162
N173	N	1.322169	0.349289	-0.531772
H174	H	1.273649	0.373407	-0.551454
H175	H	1.639751	0.450842	-0.312610
N176	N	1.382184	0.445360	-0.184241
N177	N	1.322253	0.469785	-0.154368
H178	H	1.273791	0.450130	-0.130222
N179	N	1.315265	0.806938	-0.150757
N180	N	1.255330	0.782589	-0.120872
H181	H	1.206914	0.802305	-0.096714
H182	H	1.396164	0.550052	-0.191172
N183	N	1.382394	0.947696	-0.184259
N184	N	1.322457	0.972117	-0.154386
H185	H	1.274001	0.952459	-0.130239
N186	N	1.654062	0.184284	-0.445814
N187	N	1.714098	0.154432	-0.470205
H188	H	1.762617	0.130313	-0.450522
N189	N	1.382484	1.058062	-0.184243
N190	N	1.322551	1.033722	-0.154350
H191	H	1.274157	1.053445	-0.130187
