data_functionalizedCrystal
_audit_creation_method	'MofGen! by Chris Wilmer'
_symmetry_space_group_name_H-M	'P1'
_symmetry_Int_Tables_number	1
_symmetry_cell_setting	triclinic
loop_
_symmetry_equiv_pos_as_xyz
  x,y,z
_cell_length_a	19.288864
_cell_length_b	17.699083
_cell_length_c	18.366186
_cell_angle_alpha	89.986732
_cell_angle_beta	90.022894
_cell_angle_gamma	96.790371
loop_
_atom_site_label
_atom_site_type_symbol
_atom_site_fract_x
_atom_site_fract_y
_atom_site_fract_z
O1	O	0.921465	-0.094417	0.060794
O2	O	1.421465	0.405583	0.560794
O3	O	0.719219	-0.107154	0.060746
O4	O	1.219219	0.392846	0.560746
O5	O	0.826056	0.009412	0.060754
O6	O	1.326056	0.509412	0.560754
O7	O	0.814628	-0.210983	0.060787
O8	O	1.314628	0.289017	0.560787
O9	O	0.826038	0.009417	-0.060346
O10	O	1.326038	0.509417	0.439654
O11	O	0.719201	-0.107148	-0.060353
O12	O	1.219201	0.392852	0.439647
O13	O	0.921446	-0.094412	-0.060305
O14	O	1.421446	0.405588	0.439695
Zn15	Zn	0.820321	-0.100779	-0.079556
Zn16	Zn	1.320321	0.399221	0.420444
Zn17	Zn	0.820345	-0.100786	0.079997
Zn18	Zn	1.320345	0.399214	0.579997
O19	O	0.814610	-0.210977	-0.060313
O20	O	1.314610	0.289023	0.439687
C21	C	0.693333	-0.106741	0.000190
C22	C	1.193333	0.393259	0.500190
C23	C	0.616228	-0.105511	0.000171
C24	C	1.116228	0.394489	0.500171
C25	C	0.825637	0.037611	0.000201
C26	C	1.325637	0.537611	0.500201
C27	C	0.824409	0.121627	0.000192
C28	C	1.324409	0.621627	0.500192
C29	C	0.571613	-0.173906	0.000192
C30	C	1.071613	0.326094	0.500192
C31	C	0.499164	-0.172751	0.000200
C32	C	0.999164	0.327249	0.500200
C33	C	0.471334	-0.103196	0.000201
C34	C	0.971334	0.396804	0.500201
C35	C	0.515959	-0.034791	0.000175
C36	C	1.015959	0.465209	0.500175
C37	C	0.588406	-0.035949	0.000160
C38	C	1.088406	0.464051	0.500160
C39	C	0.363014	-0.048520	0.042644
C40	C	0.863014	0.451480	0.542644
C41	C	0.290568	-0.047365	0.042663
C42	C	0.790568	0.452635	0.542663
C43	C	0.247884	-0.099622	0.000245
C44	C	0.747884	0.400378	0.500245
C45	C	0.277654	-0.153047	-0.042185
C46	C	0.777654	0.346953	0.457815
C47	C	0.350101	-0.154205	-0.042200
C48	C	0.850101	0.345795	0.457800
C49	C	0.392779	-0.101932	0.000217
C50	C	0.892779	0.398068	0.500217
C51	C	0.124712	-0.166769	0.000274
C52	C	0.624712	0.333231	0.500274
C53	C	0.052262	-0.165610	0.000277
C54	C	0.552262	0.334390	0.500277
C55	C	0.069059	-0.027649	0.000260
C56	C	0.569059	0.472351	0.500260
C57	C	0.141507	-0.028809	0.000249
C58	C	0.641507	0.471191	0.500249
C59	C	0.169329	-0.098371	0.000259
C60	C	0.669329	0.401629	0.500259
C61	C	0.887120	0.170336	0.000201
C62	C	1.387120	0.670336	0.500201
C63	C	0.885961	0.249278	0.000199
C64	C	1.385961	0.749278	0.500199
C65	C	0.822091	0.279509	0.000183
C66	C	1.322091	0.779509	0.500183
C67	C	0.759375	0.230794	0.000175
C68	C	1.259375	0.730794	0.500175
C69	C	0.760535	0.151854	0.000183
C70	C	1.260535	0.651854	0.500183
C71	C	0.754699	0.549150	0.000147
C72	C	1.254699	1.049150	0.500147
C73	C	0.753545	0.628097	0.000138
C74	C	1.253545	1.128097	0.500138
C75	C	0.880126	0.646575	0.000164
C76	C	1.380126	1.146575	0.500164
C77	C	0.881285	0.567635	0.000171
C78	C	1.381285	1.067635	0.500171
C79	C	0.818570	0.518926	0.000168
C80	C	1.318570	1.018926	0.500168
C81	C	0.819827	0.433329	0.000171
C82	C	1.319827	0.933329	0.500171
C83	C	0.820834	0.365105	0.000174
C84	C	1.320834	0.865105	0.500174
C85	C	0.947332	-0.094824	0.000253
C86	C	1.447332	0.405176	0.500253
C87	C	1.024437	-0.096054	0.000277
C88	C	1.524437	0.403946	0.500277
N89	N	0.820310	-0.100773	-0.188447
N90	N	1.320310	0.399227	0.311553
C91	C	0.815028	0.760824	0.000216
C92	C	1.315028	1.260824	0.500216
C93	C	0.816257	0.676807	0.000152
C94	C	1.316257	1.176807	0.500152
C95	C	0.867632	-0.049183	-0.226544
C96	C	1.367632	0.450817	0.273456
C97	C	0.867637	-0.049180	-0.302772
C98	C	1.367637	0.450820	0.197228
C99	C	0.820325	-0.100780	-0.340900
C100	C	1.320325	0.399220	0.159100
C101	C	0.772993	-0.152374	-0.302794
C102	C	1.272993	0.347626	0.197206
C103	C	0.772986	-0.152370	-0.226568
C104	C	1.272986	0.347630	0.273432
C105	C	0.811108	-0.169742	-0.461652
C106	C	1.311108	0.330258	0.038348
C107	C	0.811121	-0.169746	-0.537877
C108	C	1.311121	0.330254	-0.037877
C109	C	0.820345	-0.100789	-0.576008
C110	C	1.320345	0.399211	-0.076008
C111	C	0.829571	-0.031825	-0.537905
C112	C	1.329571	0.468175	-0.037905
C113	C	0.829563	-0.031822	-0.461678
C114	C	1.329563	0.468178	0.038322
C115	C	0.820328	-0.100788	-0.423555
C116	C	1.320328	0.399212	0.076445
C117	C	0.867675	-0.049191	-0.696760
C118	C	1.367675	0.450809	-0.196760
C119	C	0.867674	-0.049187	-0.772989
C120	C	1.367674	0.450813	-0.272989
C121	C	0.773034	-0.152387	-0.773009
C122	C	1.273034	0.347613	-0.273009
C123	C	0.773031	-0.152385	-0.696781
C124	C	1.273031	0.347615	-0.196781
C125	C	0.820355	-0.100788	-0.658661
C126	C	1.320355	0.399212	-0.158661
N127	N	0.820361	-0.100786	0.188888
N128	N	1.320361	0.399214	0.688888
H129	H	0.594260	-0.230549	0.000202
H130	H	1.094260	0.269451	0.500202
Cl131	Cl	0.644497	0.050041	0.000134
Cl132	Cl	1.144497	0.550041	0.500134
Cl133	Cl	0.841153	0.054871	-0.413779
Cl134	Cl	1.341153	0.554871	0.086221
Cl135	Cl	0.673245	0.666100	0.000119
Cl136	Cl	1.173245	1.166100	0.500119
H137	H	0.046401	0.028984	0.000305
H138	H	0.546401	0.528984	0.500305
H139	H	0.709469	0.112195	0.000175
H140	H	1.209469	0.612195	0.500175
H141	H	0.933295	0.543025	0.000181
H142	H	1.433295	1.043025	0.500181
Cl143	Cl	0.927134	0.015681	-0.350674
Cl144	Cl	1.427134	0.515681	0.149326
Cl145	Cl	0.679081	0.268799	0.000164
Cl146	Cl	1.179081	0.768799	0.500164
Cl147	Cl	0.967418	0.132340	0.000214
Cl148	Cl	1.467418	0.632340	0.500214
H149	H	0.931192	0.686243	0.000170
H150	H	1.431192	1.186243	0.500170
Cl151	Cl	0.964802	0.310510	0.000209
Cl152	Cl	1.464802	0.810510	0.500209
Cl153	Cl	0.224003	-0.218747	-0.095515
Cl154	Cl	0.724003	0.281253	0.404485
Cl155	Cl	0.387524	-0.221361	-0.095540
Cl156	Cl	0.887524	0.278639	0.404460
Cl157	Cl	0.841172	0.054869	-0.585832
Cl158	Cl	1.341172	0.554869	-0.085832
H159	H	0.906165	-0.007168	-0.195509
H160	H	1.406165	0.492832	0.304491
Cl161	Cl	0.799528	-0.256442	-0.585770
Cl162	Cl	1.299528	0.243558	-0.085770
Cl163	Cl	0.675857	0.487927	0.000145
Cl164	Cl	1.175857	0.987927	0.500145
H165	H	0.906207	-0.007175	-0.665721
H166	H	1.406207	0.492825	-0.165721
Cl167	Cl	0.927167	0.015679	-0.820885
Cl168	Cl	1.427167	0.515679	-0.320885
Cl169	Cl	0.713551	-0.217249	-0.820936
Cl170	Cl	1.213551	0.282751	-0.320936
H171	H	0.734500	-0.194397	-0.665761
H172	H	1.234500	0.305603	-0.165761
H173	H	0.803585	-0.225898	-0.430612
H174	H	1.303585	0.274102	0.069388
H175	H	0.734470	-0.194386	-0.333842
H176	H	1.234470	0.305614	0.166158
H177	H	0.462831	-0.228448	0.000216
H178	H	0.962831	0.271552	0.500216
Cl179	Cl	0.159691	-0.254216	0.000280
Cl180	Cl	0.659691	0.245784	0.500280
Cl181	Cl	0.713490	-0.217232	-0.178671
Cl182	Cl	1.213490	0.282768	0.321329
H183	H	0.177834	0.026886	0.000235
H184	H	0.677834	0.526886	0.500235
Cl185	Cl	-0.003827	-0.251601	0.000301
Cl186	Cl	0.496173	0.248399	0.500301
H187	H	0.493296	0.021841	0.000186
H188	H	0.993296	0.521841	0.500186
H189	H	0.266335	-0.003866	0.077215
H190	H	0.766335	0.496134	0.577215
Cl191	Cl	0.416666	0.017182	0.095976
Cl192	Cl	0.916666	0.517182	0.595976
