data_functionalizedCrystal
_audit_creation_method	'MofGen! by Chris Wilmer'
_symmetry_space_group_name_H-M	'P1'
_symmetry_Int_Tables_number	1
_symmetry_cell_setting	triclinic
loop_
_symmetry_equiv_pos_as_xyz
  x,y,z
_cell_length_a	12.759401
_cell_length_b	12.759400
_cell_length_c	12.759393
_cell_angle_alpha	89.974992
_cell_angle_beta	90.020937
_cell_angle_gamma	89.996293
loop_
_atom_site_label
_atom_site_type_symbol
_atom_site_fract_x
_atom_site_fract_y
_atom_site_fract_z
Zn1	Zn	-1.606337	-0.418196	-0.594099
Zn2	Zn	-1.606266	-0.593915	-0.418440
Zn3	Zn	-1.430639	-0.418252	-0.418431
Zn4	Zn	-1.430662	-0.593835	-0.594073
O5	O	-1.518476	-0.506050	-0.506261
O6	O	-1.753349	-0.441516	-0.570812
O7	O	-1.582930	-0.570670	-0.271417
O8	O	-1.453966	-0.271223	-0.441741
O9	O	-1.753297	-0.570616	-0.441756
O10	O	-1.583051	-0.271183	-0.570804
O11	O	-1.453897	-0.441611	-0.271411
O12	O	-1.283621	-0.441533	-0.441716
O13	O	-1.454005	-0.570479	-0.741098
O14	O	-1.283638	-0.570533	-0.570760
O15	O	-1.583073	-0.441438	-0.741117
O16	O	-1.582952	-0.740926	-0.441731
O17	O	-1.453936	-0.740866	-0.570768
C18	C	-1.518467	-0.779017	-0.506270
C19	C	-1.518560	-0.895794	-0.506310
C20	C	-1.245509	-0.506031	-0.506235
C21	C	-1.128732	-0.506048	-0.506248
C22	C	-1.518550	-0.505943	-0.780294
C23	C	-1.518581	-0.505898	-0.897071
C24	C	-1.792509	-0.506069	-0.506288
C25	C	-1.909286	-0.506078	-0.506299
C26	C	-1.073839	-0.573163	-0.438962
C27	C	-0.964115	-0.573181	-0.438990
C28	C	-0.964187	-0.438959	-0.573593
C29	C	-1.073909	-0.438948	-0.573569
C30	C	-0.814148	-0.697058	-0.401283
C31	C	-0.759252	-0.764164	-0.333981
C32	C	-0.794804	-0.780170	-0.231433
C33	C	-0.885252	-0.729054	-0.196166
C34	C	-0.940143	-0.661940	-0.263463
C35	C	-0.904592	-0.645955	-0.366026
C36	C	-1.223877	-0.315069	-0.611266
C37	C	-1.278771	-0.247949	-0.678558
C38	C	-1.243220	-0.231933	-0.781108
C39	C	-1.152769	-0.283030	-0.816370
C40	C	-1.097876	-0.350150	-0.749078
C41	C	-1.133434	-0.366168	-0.646529
C42	C	-1.518514	-0.232016	-0.506274
C43	C	-1.518530	-0.115240	-0.506280
C44	C	-1.451333	-0.060397	-0.439089
C45	C	-1.451345	0.049327	-0.439107
C46	C	-1.585759	0.049356	-0.573508
C47	C	-1.585741	-0.060366	-0.573495
C48	C	-1.327455	0.199277	-0.401571
C49	C	-1.260268	0.254123	-0.334364
C50	C	-1.244106	0.218481	-0.231844
C51	C	-1.295147	0.127995	-0.196510
C52	C	-1.362342	0.073154	-0.263711
C53	C	-1.378484	0.108795	-0.366246
C54	C	-1.709632	-0.210318	-0.611019
C55	C	-1.776833	-0.265161	-0.678216
C56	C	-1.793006	-0.229521	-0.780738
C57	C	-1.741984	-0.139031	-0.816069
C58	C	-1.674783	-0.084188	-0.748872
C59	C	-1.658609	-0.119836	-0.646351
C60	C	-1.451418	-0.438685	-0.951929
C61	C	-1.451442	-0.438652	-1.061653
C62	C	-1.585802	-0.573050	-1.061651
C63	C	-1.585771	-0.573087	-0.951929
C64	C	-1.327584	-0.401053	-1.211597
C65	C	-1.260431	-0.333823	-1.266459
C66	C	-1.244306	-0.231319	-1.230857
C67	C	-1.295351	-0.196024	-1.140395
C68	C	-1.362513	-0.263248	-1.085538
C69	C	-1.378617	-0.365767	-1.121139
C70	C	-1.709631	-0.610675	-0.801984
C71	C	-1.776798	-0.677895	-0.747126
C72	C	-1.792933	-0.780401	-0.782726
C73	C	-1.741907	-0.815692	-0.873191
C74	C	-1.674739	-0.748472	-0.928049
C75	C	-1.658603	-0.645968	-0.892442
C76	C	-1.518464	-0.506080	-0.233293
C77	C	-1.518636	-0.505829	-0.116517
H78	H	-1.118473	-0.627803	-0.384147
N79	N	-1.344950	-0.511619	-1.249994
H80	H	-1.375333	-0.509726	-1.323075
H81	H	-1.395206	-0.548801	-1.201446
H82	H	-1.189402	0.263146	-0.177123
N83	N	-1.277900	-0.085463	-1.102020
H84	H	-1.346891	-0.046666	-1.100890
H85	H	-1.227560	-0.048372	-1.150549
N86	N	-1.417560	-0.225194	-0.987972
H87	H	-1.462547	-0.283338	-0.958621
H88	H	-1.463153	-0.163041	-1.006017
N89	N	-1.037687	-0.606804	-0.225440
H90	H	-1.051880	-0.627120	-0.150259
H91	H	-1.099194	-0.627910	-0.270583
N92	N	-1.205203	0.351723	-0.372429
H93	H	-1.226255	0.413230	-0.327300
H94	H	-1.225626	0.365919	-0.447588
H95	H	-1.396707	-0.383976	-0.907267
H96	H	-1.252840	-0.328116	-0.527765
H97	H	-1.818383	-0.338839	-0.649439
N98	N	-1.692176	-0.248767	-0.500441
H99	H	-1.734702	-0.314409	-0.488254
H100	H	-1.714737	-0.192798	-0.449248
N101	N	-1.865366	-0.852908	-0.723546
H102	H	-1.867833	-0.923203	-0.759825
H103	H	-1.938060	-0.821649	-0.721568
H104	H	-1.123817	-0.269982	-0.899871
H105	H	-1.640507	-0.627751	-1.106330
N106	N	-1.831845	-0.639833	-0.649556
H107	H	-1.811428	-0.564697	-0.635320
H108	H	-1.810773	-0.685052	-0.588074
H109	H	-1.340596	0.228298	-0.485056
N110	N	-1.171876	-0.158805	-1.290024
H111	H	-1.141989	-0.196716	-1.352730
H112	H	-1.112911	-0.135900	-1.242435
H113	H	-1.218870	-0.362570	-1.340113
N114	N	-0.905052	-0.366576	-0.646183
H115	H	-0.956479	-0.324058	-0.688806
H116	H	-0.859554	-0.409401	-0.694744
H117	H	-1.633193	-0.777214	-1.001713
N118	N	-1.000315	-0.405264	-0.787105
H119	H	-0.986119	-0.384935	-0.862282
H120	H	-1.010781	-0.483584	-0.782418
H121	H	-1.696469	-0.527218	-0.772969
N122	N	-0.923583	-0.746294	-0.085548
H123	H	-0.875084	-0.796564	-0.048267
H124	H	-0.996678	-0.776605	-0.087433
N125	N	-0.735590	-0.852535	-0.158835
H126	H	-0.672897	-0.882481	-0.196733
H127	H	-0.783156	-0.911462	-0.135804
N128	N	-1.759309	-0.926250	-0.911602
H129	H	-1.809599	-0.963478	-0.863122
H130	H	-1.690249	-0.964916	-0.912742
H131	H	-1.287917	-0.177266	-0.835892
N132	N	-0.661695	-0.819287	-0.372008
H133	H	-0.647503	-0.798973	-0.447190
H134	H	-0.672155	-0.897607	-0.367303
H135	H	-0.785200	-0.684044	-0.484789
N136	N	-1.376325	-0.192826	-0.640527
H137	H	-1.390524	-0.213161	-0.565352
H138	H	-1.437827	-0.213921	-0.685681
N139	N	-1.658246	0.108542	-0.646003
H140	H	-1.648063	0.186373	-0.635816
H141	H	-1.733274	0.089351	-0.629663
N142	N	-1.277716	0.089557	-0.085928
H143	H	-1.320244	0.023916	-0.073744
H144	H	-1.300285	0.145529	-0.034743
N145	N	-1.378844	-0.119585	-0.366598
H146	H	-1.336277	-0.068189	-0.324038
H147	H	-1.330227	-0.165093	-0.409352
H148	H	-1.403900	-0.000517	-0.234942
N149	N	-1.619755	0.013414	-0.786983
H150	H	-1.574142	-0.004516	-0.849119
H151	H	-1.574789	0.042706	-0.728796
H152	H	-1.755156	-0.110008	-0.899549
H153	H	-1.847736	-0.274178	-0.835446
