data_functionalizedCrystal
_audit_creation_method	'MofGen! by Chris Wilmer'
_symmetry_space_group_name_H-M	'P1'
_symmetry_Int_Tables_number	1
_symmetry_cell_setting	triclinic
loop_
_symmetry_equiv_pos_as_xyz
  x,y,z
_cell_length_a	17.077404
_cell_length_b	21.395362
_cell_length_c	17.077396
_cell_angle_alpha	90.032289
_cell_angle_beta	90.019777
_cell_angle_gamma	90.025177
loop_
_atom_site_label
_atom_site_type_symbol
_atom_site_fract_x
_atom_site_fract_y
_atom_site_fract_z
Zn1	Zn	1.200017	-0.249516	0.443828
Zn2	Zn	1.199908	-0.354297	0.312553
Zn3	Zn	1.068749	-0.249529	0.312575
Zn4	Zn	1.068701	-0.354251	0.443776
O5	O	1.134344	-0.301898	0.378183
O6	O	1.309849	-0.263429	0.426426
O7	O	1.182484	-0.340424	0.202709
O8	O	1.086227	-0.161849	0.330017
O9	O	1.309770	-0.340411	0.329979
O10	O	1.182669	-0.161840	0.426448
O11	O	1.086122	-0.263451	0.202725
O12	O	0.958895	-0.263407	0.329967
O13	O	1.086146	-0.340333	0.553630
O14	O	0.958860	-0.340346	0.426359
O15	O	1.182623	-0.263384	0.553668
O16	O	1.182438	-0.441969	0.329929
O17	O	1.086040	-0.441935	0.426338
C18	C	0.930396	-0.301873	0.378160
C19	C	0.843146	-0.301877	0.378169
C20	C	0.467334	-0.342050	0.428318
C21	C	0.549314	-0.342042	0.428306
C22	C	0.590297	-0.301915	0.378195
C23	C	0.549295	-0.261798	0.328088
C24	C	0.467316	-0.261810	0.328096
C25	C	0.720165	-0.261775	0.328075
C26	C	0.802150	-0.261762	0.328067
C27	C	0.802163	-0.342007	0.428285
C28	C	0.720184	-0.342019	0.428293
C29	C	0.679188	-0.301901	0.378186
C30	C	1.134243	-0.464686	0.378143
C31	C	1.134272	-0.534327	0.378152
C32	C	1.184461	-0.566978	0.428399
C33	C	1.184488	-0.632414	0.428418
C34	C	1.134336	-0.665195	0.378176
C35	C	1.084137	-0.632536	0.327925
C36	C	1.084106	-0.567102	0.327913
C37	C	1.128232	-0.768907	0.307467
C38	C	1.128269	-0.834340	0.307478
C39	C	1.134429	-0.867016	0.378214
C40	C	1.140568	-0.834251	0.448941
C41	C	1.140536	-0.768817	0.448929
C42	C	1.134364	-0.736148	0.378184
C43	C	1.184650	-0.970620	0.428486
C44	C	1.184672	-1.036056	0.428507
C45	C	1.084325	-1.036178	0.328007
C46	C	1.084299	-0.970742	0.327993
C47	C	1.134466	-0.937967	0.378232
C48	C	1.339088	-0.301924	0.378206
C49	C	1.426338	-0.301935	0.378216
C50	C	1.134391	-0.301852	0.582927
C51	C	1.134411	-0.301832	0.670177
C52	C	1.134466	-0.138475	0.378240
C53	C	1.134518	-0.068834	0.378265
C54	C	1.134342	-0.301899	0.174235
C55	C	1.134473	-0.301742	0.086986
C56	C	1.184649	-0.261762	0.711188
C57	C	1.184658	-0.261741	0.793169
C58	C	1.134434	-0.301794	0.834137
C59	C	1.084191	-0.341866	0.793120
C60	C	1.084178	-0.341884	0.711141
C61	C	1.084222	-0.341829	0.963990
C62	C	1.084236	-0.341812	1.045974
C63	C	1.184703	-0.261686	1.046018
C64	C	1.184690	-0.261703	0.964039
C65	C	1.134448	-0.301776	0.923028
H66	H	0.686789	-0.229105	0.287274
H67	H	1.225592	-0.229092	0.930685
H68	H	1.145586	-0.860855	0.506542
H69	H	1.043294	-0.374476	0.826482
H70	H	0.433972	-0.374722	0.469129
H71	H	1.043261	-0.374507	0.677750
F72	F	1.121741	-0.869204	0.232204
F73	F	0.845795	-0.384695	0.481623
H74	H	0.686818	-0.374691	0.469101
H75	H	0.835516	-0.229081	0.287270
F76	F	1.030775	-0.384436	1.089574
F77	F	0.592914	-0.219094	0.274753
F78	F	0.592942	-0.384739	0.481630
H79	H	1.123212	-0.742307	0.249861
H80	H	1.043297	-0.374451	0.930601
F81	F	1.237849	-0.532100	0.481872
F82	F	0.423685	-0.219116	0.274767
F83	F	1.237912	-0.667170	0.481897
H84	H	1.043485	-1.062868	0.287104
F85	F	1.030881	-0.935991	0.274512
F86	F	1.147066	-0.733949	0.524200
F87	F	1.238038	-0.935736	0.481956
F88	F	1.238085	-1.070806	0.481998
H89	H	1.043301	-0.659231	0.287019
H90	H	1.043235	-0.540517	0.286995
F91	F	1.238110	-0.219134	0.667595
H92	H	1.225569	-0.229113	0.826557
H93	H	1.225611	-0.229056	1.079413
