data_functionalizedCrystal
_audit_creation_method	'MofGen! by Chris Wilmer'
_symmetry_space_group_name_H-M	'P1'
_symmetry_Int_Tables_number	1
_symmetry_cell_setting	triclinic
loop_
_symmetry_equiv_pos_as_xyz
  x,y,z
_cell_length_a	21.295417
_cell_length_b	17.077404
_cell_length_c	17.077396
_cell_angle_alpha	90.017244
_cell_angle_beta	89.965973
_cell_angle_gamma	89.969268
loop_
_atom_site_label
_atom_site_type_symbol
_atom_site_fract_x
_atom_site_fract_y
_atom_site_fract_z
Zn1	Zn	-0.250600	-1.199996	-0.443817
Zn2	Zn	-0.355875	-1.199890	-0.312540
Zn3	Zn	-0.250624	-1.068733	-0.312565
Zn4	Zn	-0.355836	-1.068678	-0.443764
O5	O	-0.303234	-1.134324	-0.378171
O6	O	-0.264572	-1.309829	-0.426415
O7	O	-0.341939	-1.182471	-0.202697
O8	O	-0.162531	-1.086212	-0.330008
O9	O	-0.341916	-1.309751	-0.329966
O10	O	-0.162514	-1.182650	-0.426439
O11	O	-0.264612	-1.086110	-0.202715
O12	O	-0.264574	-0.958878	-0.329957
O13	O	-0.341850	-1.086119	-0.553618
O14	O	-0.341873	-0.958838	-0.426348
O15	O	-0.264534	-1.182597	-0.553657
O16	O	-0.443959	-1.182418	-0.329915
O17	O	-0.443931	-1.086017	-0.426324
C18	C	-0.303222	-0.930376	-0.378150
C19	C	-0.303233	-0.843126	-0.378159
C20	C	-0.466785	-1.134221	-0.378128
C21	C	-0.536753	-1.134249	-0.378136
C22	C	-0.303185	-1.134364	-0.582916
C23	C	-0.303164	-1.134380	-0.670166
C24	C	-0.569614	-1.184490	-0.327987
C25	C	-0.635357	-1.184526	-0.328004
C26	C	-0.668236	-1.134309	-0.378163
C27	C	-0.635367	-1.084064	-0.428321
C28	C	-0.569626	-1.084035	-0.428308
N29	N	-0.771502	-1.065640	-0.384140
N30	N	-0.833953	-1.065670	-0.384148
C31	C	-0.866311	-1.134396	-0.378208
N32	N	-0.833857	-1.203093	-0.372244
N33	N	-0.771400	-1.203061	-0.372231
C34	C	-0.739521	-1.134336	-0.378183
C35	C	-0.970457	-1.184681	-0.328075
C36	C	-1.036200	-1.184719	-0.328098
C37	C	-1.036210	-1.084250	-0.428411
C38	C	-0.970468	-1.084219	-0.428392
C39	C	-0.937595	-1.134434	-0.378220
C40	C	-0.139043	-1.134449	-0.378232
C41	C	-0.069075	-1.134502	-0.378258
C42	C	-0.303246	-1.339068	-0.378194
C43	C	-0.303251	-1.426318	-0.378203
C44	C	-0.343543	-0.802136	-0.428270
C45	C	-0.343544	-0.720155	-0.428282
C46	C	-0.303238	-0.679167	-0.378180
C47	C	-0.262923	-0.720163	-0.328067
C48	C	-0.262919	-0.802142	-0.328059
C49	C	-0.262936	-0.549293	-0.328086
C50	C	-0.262940	-0.467309	-0.328093
C51	C	-0.343561	-0.467306	-0.428309
C52	C	-0.343557	-0.549285	-0.428301
C53	C	-0.303243	-0.590276	-0.378187
C54	C	-0.262895	-1.084220	-0.711165
C55	C	-0.262881	-1.084233	-0.793145
C56	C	-0.303133	-1.134411	-0.834125
C57	C	-0.343407	-1.184573	-0.793120
C58	C	-0.343424	-1.184555	-0.711141
C59	C	-0.343367	-1.184607	-0.963991
C60	C	-0.343350	-1.184625	-1.045975
C61	C	-0.262824	-1.084285	-1.045994
C62	C	-0.262841	-1.084267	-0.964015
C63	C	-0.303114	-1.134431	-0.923016
C64	C	-0.303237	-1.134330	-0.174224
C65	C	-0.303080	-1.134465	-0.086974
H66	H	-0.542851	-1.225379	-0.287136
H67	H	-0.230062	-1.043412	-0.930652
H68	H	-0.230102	-0.582665	-0.287285
N69	N	-0.670831	-1.029899	-0.482415
H70	H	-0.659436	-0.973816	-0.470170
H71	H	-0.659337	-1.042117	-0.538490
H72	H	-0.376126	-1.225484	-1.079339
N73	N	-0.670816	-1.238709	-0.273913
H74	H	-0.659333	-1.294787	-0.286143
H75	H	-0.659407	-1.226474	-0.217835
N76	N	-0.387024	-0.593502	-0.482339
H77	H	-0.416160	-0.627485	-0.450366
H78	H	-0.412522	-0.555051	-0.514081
H79	H	-0.230091	-0.835516	-0.287258
N80	N	-0.219380	-1.030186	-1.090209
H81	H	-0.225476	-1.037809	-1.148360
H82	H	-0.229168	-0.974111	-1.075871
N83	N	-0.219438	-1.030154	-0.837377
H84	H	-0.245003	-0.993760	-0.871381
H85	H	-0.193939	-0.998419	-0.798937
N86	N	-0.935025	-1.030018	-0.482474
H87	H	-0.907795	-0.993651	-0.450532
H88	H	-0.907739	-1.061936	-0.518866
H89	H	-1.062954	-1.225636	-0.287263
N90	N	-0.219462	-0.675953	-0.274016
H91	H	-0.190324	-0.641959	-0.305975
H92	H	-0.245069	-0.641966	-0.237601
N93	N	-1.071663	-1.030091	-0.482519
H94	H	-1.118297	-1.037734	-0.474920
H95	H	-1.060221	-0.974031	-0.470249
N96	N	-0.386807	-1.238708	-0.919771
H97	H	-0.412302	-1.270498	-0.958172
H98	H	-0.361193	-1.275048	-0.885771
N99	N	-0.386819	-1.238690	-0.837326
H100	H	-0.377050	-1.294781	-0.823068
H101	H	-0.431782	-1.226395	-0.823026
N102	N	-0.534179	-1.029843	-0.482398
H103	H	-0.564981	-0.998035	-0.514179
H104	H	-0.506951	-0.993523	-0.450403
N105	N	-0.386860	-1.238653	-0.666919
H106	H	-0.412356	-1.270443	-0.705320
H107	H	-0.361249	-1.274994	-0.632917
N108	N	-0.387045	-0.423101	-0.482360
H109	H	-0.380931	-0.364948	-0.474767
H110	H	-0.377307	-0.437462	-0.538443
H111	H	-0.943691	-1.225572	-0.287224
N112	N	-0.387022	-0.846338	-0.482306
H113	H	-0.377302	-0.832100	-0.538416
H114	H	-0.380886	-0.904478	-0.474631
N115	N	-0.387031	-0.675946	-0.482319
H116	H	-0.377322	-0.690242	-0.538429
H117	H	-0.431974	-0.690206	-0.469940
H118	H	-0.230112	-0.433938	-0.287304
H119	H	-0.230113	-1.043365	-0.677805
