data_functionalizedCrystal
_audit_creation_method	'MofGen! by Chris Wilmer'
_symmetry_space_group_name_H-M	'P1'
_symmetry_Int_Tables_number	1
_symmetry_cell_setting	triclinic
loop_
_symmetry_equiv_pos_as_xyz
  x,y,z
_cell_length_a	18.101395
_cell_length_b	13.032831
_cell_length_c	13.032268
_cell_angle_alpha	90.886977
_cell_angle_beta	82.853748
_cell_angle_gamma	97.164309
loop_
_atom_site_label
_atom_site_type_symbol
_atom_site_fract_x
_atom_site_fract_y
_atom_site_fract_z
Zn1	Zn	-0.500117	-1.498320	0.780796
Zn2	Zn	-0.610451	-1.520028	0.608808
Zn3	Zn	-0.469181	-1.348189	0.587040
Zn4	Zn	-0.606447	-1.326277	0.758934
O5	O	-0.546549	-1.423203	0.683894
O6	O	-0.529375	-1.645116	0.776242
O7	O	-0.580440	-1.515487	0.462005
O8	O	-0.369663	-1.368189	0.612782
O9	O	-0.610437	-1.661064	0.649882
O10	O	-0.392391	-1.478491	0.755134
O11	O	-0.476650	-1.389238	0.446012
O12	O	-0.472767	-1.201366	0.591582
O13	O	-0.603613	-1.330844	0.905750
O14	O	-0.573616	-1.185268	0.717872
O15	O	-0.525493	-1.457244	0.921812
O16	O	-0.713541	-1.494241	0.628683
O17	O	-0.710600	-1.351893	0.738979
C18	C	-0.738943	-1.423070	0.683847
C19	C	-0.821262	-1.423102	0.683873
C20	C	-0.519401	-1.156001	0.649993
C21	C	-0.507806	-1.041687	0.635514
C22	C	-0.567557	-1.389178	0.952140
C23	C	-0.576509	-1.374679	1.066450
C24	C	-1.120381	-1.423321	0.683957
C25	C	-1.087270	-1.333919	0.753573
C26	C	-1.001594	-1.333573	0.753276
C27	C	-0.971985	-1.423212	0.683916
C28	C	-0.991648	-1.407642	0.571811
C29	C	-1.077279	-1.407070	0.572223
C30	C	-1.101951	-1.528588	0.725513
C31	C	-1.016421	-1.527646	0.727809
C32	C	-0.888117	-1.423153	0.683886
C33	C	-1.204247	-1.423378	0.683979
C34	C	-0.353408	-1.423363	0.683968
C35	C	-0.271103	-1.423431	0.684000
C36	C	-0.573804	-1.691449	0.717929
C37	C	-0.585418	-1.805759	0.732432
C38	C	-0.552600	-0.982797	0.691451
C39	C	-0.540618	-0.864648	0.676488
C40	C	-0.525575	-1.457155	0.416700
C41	C	-0.516434	-1.471854	0.302416
C42	C	-0.541848	-1.430755	1.125361
C43	C	-0.551100	-1.415770	1.243507
H44	H	-0.988702	-1.341720	0.835969
C45	C	-0.600443	-1.335916	1.293524
N46	N	-0.637608	-1.275771	1.331199
C47	C	-0.444011	-0.991638	0.555851
N48	N	-0.395960	-0.953943	0.495845
C49	C	-0.649216	-0.855802	0.812102
N50	N	-0.697269	-0.893495	0.872107
H51	H	-1.087401	-1.330530	0.538622
C52	C	-0.492502	-1.510598	1.075338
N53	N	-0.455333	-1.570738	1.037663
H54	H	-0.613028	-1.315571	1.103481
C55	C	-0.467088	-1.551706	1.252400
N56	N	-0.429923	-1.611851	1.214728
H57	H	-1.115992	-1.341850	0.836504
H58	H	-1.099292	-1.256075	0.725253
H59	H	-0.493392	-0.827601	0.617521
C60	C	-0.960991	-1.227760	0.714693
N61	N	-0.930411	-1.148047	0.685655
H62	H	-1.098787	-1.470108	0.517844
C63	C	-1.142964	-1.551389	0.835050
N64	N	-1.173854	-1.568551	0.917557
H65	H	-0.972170	-1.471316	0.517925
C66	C	-0.949434	-1.305443	0.525995
N67	N	-0.917640	-1.228464	0.491491
H68	H	-0.997101	-1.596674	0.681897
C69	C	-1.000376	-1.543876	0.839340
N70	N	-0.988276	-1.556106	0.923339
H71	H	-1.123643	-1.595027	0.674977
H72	H	-0.599818	-1.019848	0.750422
