data_functionalizedCrystal
_audit_creation_method	'MofGen! by Chris Wilmer'
_symmetry_space_group_name_H-M	'P1'
_symmetry_Int_Tables_number	1
_symmetry_cell_setting	triclinic
loop_
_symmetry_equiv_pos_as_xyz
  x,y,z
_cell_length_a	10.654551
_cell_length_b	10.540539
_cell_length_c	9.730223
_cell_angle_alpha	90.000775
_cell_angle_beta	90.000351
_cell_angle_gamma	84.505381
loop_
_atom_site_label
_atom_site_type_symbol
_atom_site_fract_x
_atom_site_fract_y
_atom_site_fract_z
O1	O	1.667896	0.178300	-0.114265
O2	O	1.302424	0.195287	-0.114271
O3	O	1.493498	0.002084	-0.114266
O4	O	1.476822	0.371503	-0.114270
O5	O	1.493496	0.002089	0.114314
O6	O	1.302422	0.195291	0.114309
O7	O	1.667894	0.178305	0.114315
Zn8	Zn	1.485157	0.186799	0.150604
Zn9	Zn	1.485160	0.186793	-0.150560
O10	O	1.476820	0.371508	0.114310
C11	C	1.255624	0.194042	0.000018
C12	C	1.116180	0.190309	0.000015
C13	C	0.919645	0.185038	0.124616
C14	C	1.050666	0.188556	0.124616
C15	C	1.050663	0.188558	-0.124594
C16	C	0.919643	0.185049	-0.124593
C17	C	0.854140	0.183272	0.249225
C18	C	0.919647	0.185026	0.373835
C19	C	1.050669	0.188544	0.373835
C20	C	1.116183	0.190308	0.249226
C21	C	1.492246	-0.045216	0.000021
C22	C	1.488505	-0.186163	0.000014
C23	C	1.345133	-0.369539	-0.000502
C24	C	1.348926	-0.222922	0.000013
C25	C	1.555675	-0.247842	0.130545
C26	C	1.550911	-0.394384	0.130655
C27	C	1.553752	-0.394909	-0.129283
C28	C	1.555038	-0.247928	-0.131009
C29	C	1.714693	0.179550	0.000023
C30	C	1.854138	0.183282	0.000016
C31	C	1.478071	0.418808	0.000019
C32	C	1.481813	0.559755	0.000018
N33	N	1.485165	0.186803	0.356140
N34	N	1.485163	0.186779	-0.356097
C35	C	1.569794	0.101282	0.428068
C36	C	1.569791	0.101267	0.571951
C37	C	1.400524	0.272304	0.571965
C38	C	1.400522	0.272312	0.428085
C39	C	1.654436	0.015773	0.356124
C40	C	1.739074	-0.069754	0.428052
C41	C	1.739070	-0.069770	0.571935
C42	C	1.654430	0.015742	0.643889
H43	H	1.104000	0.189985	0.475299
N44	N	1.117561	0.190358	-0.251883
N45	N	1.092154	0.279287	-0.335318
H46	H	1.139398	0.280555	-0.425221
H47	H	1.656801	-0.223743	-0.138889
H48	H	0.866305	0.183623	-0.226053
H49	H	1.331614	0.341925	0.630560
N50	N	1.282633	-0.169450	-0.117374
N51	N	1.318345	-0.202301	-0.235585
H52	H	1.271518	-0.164543	-0.318492
H53	H	0.747456	0.180405	0.249239
H54	H	1.508579	-0.426448	-0.228217
N55	N	1.654413	0.015792	0.209153
N56	N	1.578837	0.092153	0.144945
H57	H	1.578817	0.092171	0.041146
H58	H	1.654425	0.015713	0.761049
N59	N	1.493520	-0.196564	-0.252185
N60	N	1.445110	-0.268641	-0.334673
H61	H	1.401676	-0.232355	-0.420259
H62	H	1.807979	-0.139382	0.369459
H63	H	1.807977	-0.139417	0.630497
H64	H	1.331608	0.341950	0.369520
N65	N	1.684266	-0.219863	0.136676
N66	N	1.771012	-0.308539	0.136260
H67	H	1.861830	-0.288778	0.140594
H68	H	0.866296	0.183600	0.475287
H69	H	1.222868	0.193187	0.249236
H70	H	1.651294	-0.442389	0.136578
N71	N	1.275978	-0.405390	-0.117942
N72	N	1.326612	-0.483477	-0.202629
H73	H	1.277772	-0.508803	-0.285579
H74	H	1.290220	-0.399724	0.092579
H75	H	1.295701	-0.181145	0.093737
H76	H	1.654569	-0.442171	-0.130159
H77	H	1.501268	-0.422564	0.228228
N78	N	1.497130	-0.194373	0.252394
N79	N	1.405953	-0.110860	0.243438
H80	H	1.364597	-0.073099	0.329490
