data_functionalizedCrystal
_audit_creation_method	'MofGen! by Chris Wilmer'
_symmetry_space_group_name_H-M	'P1'
_symmetry_Int_Tables_number	1
_symmetry_cell_setting	triclinic
loop_
_symmetry_equiv_pos_as_xyz
  x,y,z
_cell_length_a	19.077142
_cell_length_b	19.076919
_cell_length_c	19.076808
_cell_angle_alpha	89.878360
_cell_angle_beta	90.073311
_cell_angle_gamma	89.925643
loop_
_atom_site_label
_atom_site_type_symbol
_atom_site_fract_x
_atom_site_fract_y
_atom_site_fract_z
Zn1	Zn	-1.045197	-0.426273	-0.339436
Zn2	Zn	-0.545197	0.073727	0.160564
Zn3	Zn	-1.045492	-0.304054	-0.452243
Zn4	Zn	-0.545492	0.195946	0.047757
Zn5	Zn	-0.932777	-0.304455	-0.330036
Zn6	Zn	-0.432777	0.195545	0.169964
Zn7	Zn	-0.923330	-0.416820	-0.451818
Zn8	Zn	-0.423330	0.083180	0.048182
O9	O	-0.986699	-0.362901	-0.393383
O10	O	-0.486699	0.137099	0.106617
O11	O	-1.143409	-0.413848	-0.358512
O12	O	-0.643409	0.086152	0.141488
O13	O	-1.034617	-0.205933	-0.432276
O14	O	-0.534617	0.294067	0.067724
O15	O	-0.951519	-0.324739	-0.233106
O16	O	-0.451519	0.175261	0.266894
O17	O	-1.143626	-0.324055	-0.441391
O18	O	-0.643626	0.175945	0.058609
O19	O	-1.034114	-0.414238	-0.240013
O20	O	-0.534114	0.085762	0.259987
O21	O	-0.951806	-0.206228	-0.342491
O22	O	-0.451806	0.293772	0.157509
O23	O	-0.833350	-0.315573	-0.342078
O24	O	-0.333350	0.184427	0.157922
O25	O	-0.935419	-0.516248	-0.440667
O26	O	-0.435419	-0.016248	0.059333
O27	O	-0.826410	-0.398127	-0.431551
O28	O	-0.326410	0.101873	0.068449
O29	O	-1.024954	-0.523193	-0.358100
O30	O	-0.524954	-0.023193	0.141900
O31	O	-1.025458	-0.314889	-0.550363
O32	O	-0.525458	0.185111	-0.050363
O33	O	-0.935706	-0.397737	-0.550051
O34	O	-0.435706	0.102263	-0.050051
C35	C	-0.804425	-0.355868	-0.385749
C36	C	-0.304425	0.144132	0.114251
C37	C	-0.726446	-0.352875	-0.382501
C38	C	-0.226446	0.147125	0.117499
C39	C	-0.979100	-0.545888	-0.400385
C40	C	-0.479100	-0.045888	0.099615
C41	C	-0.975862	-0.623866	-0.403368
C42	C	-0.475862	-0.123866	0.096632
C43	C	-0.979607	-0.355260	-0.575665
C44	C	-0.479607	0.144740	-0.075665
C45	C	-0.976636	-0.352017	-0.653649
C46	C	-0.476636	0.147983	-0.153649
C47	C	-0.686217	-0.394377	-0.427624
C48	C	-0.186217	0.105623	0.072376
C49	C	-0.612947	-0.391569	-0.424562
C50	C	-0.112947	0.108431	0.075438
C51	C	-0.579909	-0.347255	-0.376381
C52	C	-0.079909	0.152745	0.123619
C53	C	-0.620144	-0.305751	-0.331254
C54	C	-0.120144	0.194249	0.168746
C55	C	-0.693411	-0.308563	-0.334312
C56	C	-0.193411	0.191437	0.165688
C57	C	-0.361167	-0.334246	-0.362229
C58	C	0.138833	0.165754	0.137771
C59	C	-0.287894	-0.331435	-0.359175
C60	C	0.212106	0.168565	0.140825
C61	C	-0.280703	-0.417255	-0.452483
C62	C	0.219297	0.082745	0.047517
C63	C	-0.353972	-0.420060	-0.455540
C64	C	0.146028	0.079940	0.044460
C65	C	-0.394200	-0.378559	-0.410410
C66	C	0.105800	0.121441	0.089590
N67	N	-0.505016	-0.344382	-0.373252
N68	N	-0.005016	0.155618	0.126748
N69	N	-0.469092	-0.381436	-0.413536
N70	N	0.030908	0.118564	0.086464
C71	C	-0.169685	-0.369953	-0.401044
C72	C	0.330315	0.130047	0.098956
C73	C	-0.247664	-0.372937	-0.404298
C74	C	0.252336	0.127063	0.095702
C75	C	-1.020954	-0.664118	-0.361784
C76	C	-0.520954	-0.164118	0.138216
C77	C	-1.017903	-0.737386	-0.364584
C78	C	-0.517903	-0.237386	0.135416
C79	C	-0.969762	-0.770402	-0.408973
C80	C	-0.469762	-0.270402	0.091027
C81	C	-0.924665	-0.730146	-0.450559
C82	C	-0.424665	-0.230146	0.049441
C83	C	-0.927714	-0.656879	-0.447754
C84	C	-0.427714	-0.156879	0.052246
C85	C	-0.955644	-0.989140	-0.421966
C86	C	-0.455644	-0.489140	0.078034
C87	C	-0.952601	-1.062413	-0.424769
C88	C	-0.452601	-0.562413	0.075231
C89	C	-1.045837	-1.069649	-0.338793
C90	C	-0.545837	-0.569649	0.161207
C91	C	-1.048884	-0.996379	-0.335996
C92	C	-0.548884	-0.496379	0.164004
C93	C	-1.003785	-0.956129	-0.377579
C94	C	-0.503785	-0.456129	0.122421
N95	N	-0.966644	-0.845295	-0.411838
N96	N	-0.466644	-0.345295	0.088162
N97	N	-1.006900	-0.881238	-0.374710
N98	N	-0.506900	-0.381238	0.125290
C99	C	-0.994311	-0.180629	-0.386360
C100	C	-0.494311	0.319371	0.113640
C101	C	-0.997693	-0.102664	-0.383185
C102	C	-0.497693	0.397336	0.116815
C103	C	-1.018208	-0.397126	-0.693821
C104	C	-0.518208	0.102874	-0.193821
C105	C	-1.015414	-0.394080	-0.767096
C106	C	-0.515414	0.105920	-0.267096
C107	C	-0.971051	-0.345921	-0.800197
C108	C	-0.471051	0.154079	-0.300197
C109	C	-0.929475	-0.300810	-0.760019
C110	C	-0.429475	0.199190	-0.260019
C111	C	-0.932266	-0.303860	-0.686746
C112	C	-0.432266	0.196140	-0.186746
C113	C	-0.958093	-0.331802	-1.018960
C114	C	-0.458093	0.168198	-0.518960
C115	C	-0.955307	-0.328754	-1.092239
C116	C	-0.455307	0.171246	-0.592239
C117	C	-1.041246	-0.422025	-1.099311
C118	C	-0.541246	0.077975	-0.599311
C119	C	-1.044036	-0.425068	-1.026036
C120	C	-0.544036	0.074932	-0.526036
C121	C	-1.002457	-0.379960	-0.985865
C122	C	-0.502457	0.120040	-0.485865
N123	N	-0.968196	-0.342805	-0.875095
N124	N	-0.468196	0.157195	-0.375095
N125	N	-1.005309	-0.383080	-0.910968
N126	N	-0.505309	0.116920	-0.410968
C127	C	-0.993837	-0.370587	-0.210392
C128	C	-0.493837	0.129413	0.289608
C129	C	-0.996879	-0.373863	-0.132411
C130	C	-0.496879	0.126137	0.367589
H131	H	-0.713111	-0.430461	-0.466860
H132	H	-0.213111	0.069539	0.033140
H133	H	-0.913397	-1.089292	-0.460918
H134	H	-0.413397	-0.589292	0.039082
N135	N	-0.909573	-0.948043	-0.464446
N136	N	-0.409573	-0.448043	0.035554
N137	N	-0.866597	-0.977533	-0.504077
N138	N	-0.366597	-0.477533	-0.004077
H139	H	-0.834057	-0.948506	-0.534081
H140	H	-0.334057	-0.448506	-0.034081
H141	H	-1.082554	-1.102428	-0.304938
H142	H	-0.582554	-0.602428	0.195062
N143	N	-0.387729	-0.465321	-0.504754
N144	N	0.112271	0.034679	-0.004754
N145	N	-0.453147	-0.467820	-0.507482
N146	N	0.046853	0.032180	-0.007482
H147	H	-0.476989	-0.499782	-0.542244
H148	H	0.023011	0.000218	-0.042244
H149	H	-1.080159	-0.464282	-0.999088
H150	H	-0.580159	0.035718	-0.499088
N151	N	-1.083711	-0.468093	-1.140356
N152	N	-0.583711	0.031907	-0.640356
N153	N	-1.081217	-0.465365	-1.205777
N154	N	-0.581217	0.034635	-0.705777
H155	H	-1.111209	-0.497904	-1.234767
H156	H	-0.611209	0.002096	-0.734767
H157	H	-1.054336	-0.436339	-0.666876
H158	H	-0.554336	0.063661	-0.166876
N159	N	-0.239600	-0.459639	-0.498575
N160	N	0.260400	0.040361	0.001425
N161	N	-0.174183	-0.457123	-0.495842
N162	N	0.325817	0.042877	0.004158
H163	H	-0.145153	-0.487059	-0.528395
H164	H	0.354847	0.012941	-0.028395
N165	N	-0.875489	-0.763880	-0.495892
N166	N	-0.375489	-0.263880	0.004108
N167	N	-0.872773	-0.829297	-0.498391
N168	N	-0.372773	-0.329297	0.001609
H169	H	-0.838042	-0.853121	-0.530409
H170	H	-0.338042	-0.353121	-0.030409
H171	H	-0.898413	-0.267129	-0.654037
H172	H	-0.398413	0.232871	-0.154037
N173	N	-0.910020	-0.279539	-1.126065
N174	N	-0.410020	0.220461	-0.626065
N175	N	-0.917748	-0.215331	-1.115623
N176	N	-0.417748	0.284669	-0.615623
H177	H	-0.885777	-0.180568	-1.139518
H178	H	-0.385777	0.319432	-0.639518
H179	H	-0.260996	-0.295354	-0.319932
H180	H	0.239004	0.204646	0.180068
N181	N	-0.881644	-0.615771	-0.490232
N182	N	-0.381644	-0.115771	0.009768
N183	N	-0.838662	-0.645256	-0.529860
N184	N	-0.338662	-0.145256	-0.029860
H185	H	-0.806120	-0.616225	-0.559859
H186	H	-0.306120	-0.116225	-0.059859
N187	N	-1.098054	-0.962641	-0.290659
N188	N	-0.598054	-0.462641	0.209341
N189	N	-1.143492	-0.922445	-0.315654
N190	N	-0.643492	-0.422445	0.184346
H191	H	-1.178219	-0.898614	-0.283636
H192	H	-0.678219	-0.398614	0.216364
N193	N	-0.571865	-0.433972	-0.470655
N194	N	-0.071865	0.066028	0.029345
N195	N	-0.601372	-0.473534	-0.513672
N196	N	-0.101372	0.026466	-0.013672
H197	H	-0.572358	-0.503485	-0.546226
H198	H	-0.072358	-0.003485	-0.046226
H199	H	-0.393912	-0.300447	-0.325486
H200	H	0.106088	0.199553	0.174514
N201	N	-1.057878	-0.440167	-0.808120
N202	N	-0.557878	0.059833	-0.308120
N203	N	-1.097485	-0.483162	-0.778558
N204	N	-0.597485	0.016838	-0.278558
H205	H	-1.127476	-0.515716	-0.807531
H206	H	-0.627476	-0.015716	-0.307531
H207	H	-0.924239	-0.295072	-0.986258
H208	H	-0.424239	0.204928	-0.486258
N209	N	-0.884174	-0.251616	-0.793847
N210	N	-0.384174	0.248384	-0.293847
N211	N	-0.909204	-0.206190	-0.834052
N212	N	-0.409204	0.293810	-0.334052
H213	H	-0.877214	-0.171444	-0.857946
H214	H	-0.377214	0.328556	-0.357946
N215	N	-0.586387	-0.260494	-0.282036
N216	N	-0.086387	0.239506	0.217964
N217	N	-0.520969	-0.257988	-0.279312
N218	N	-0.020969	0.242012	0.220688
H219	H	-0.497128	-0.226023	-0.244552
H220	H	0.002872	0.273977	0.255448
H221	H	-0.726166	-0.274772	-0.297565
H222	H	-0.226166	0.225228	0.202435
N223	N	-1.063974	-0.778504	-0.322120
N224	N	-0.563974	-0.278504	0.177880
N225	N	-1.106012	-0.820079	-0.350246
N226	N	-0.606012	-0.320079	0.149754
H227	H	-1.138552	-0.849119	-0.320255
H228	H	-0.638552	-0.349119	0.179745
H229	H	-1.060157	-0.637242	-0.325640
H230	H	-0.560157	-0.137242	0.174360
