data_functionalizedCrystal
_audit_creation_method	'MofGen! by Chris Wilmer'
_symmetry_space_group_name_H-M	'P1'
_symmetry_Int_Tables_number	1
_symmetry_cell_setting	triclinic
loop_
_symmetry_equiv_pos_as_xyz
  x,y,z
_cell_length_a	16.625548
_cell_length_b	12.594516
_cell_length_c	16.625539
_cell_angle_alpha	89.976673
_cell_angle_beta	89.979432
_cell_angle_gamma	90.017121
loop_
_atom_site_label
_atom_site_type_symbol
_atom_site_fract_x
_atom_site_fract_y
_atom_site_fract_z
Zn1	Zn	1.232716	-0.423710	-0.455937
Zn2	Zn	1.232635	-0.601711	-0.321116
Zn3	Zn	1.097878	-0.423750	-0.321118
Zn4	Zn	1.097864	-0.601650	-0.455906
O5	O	1.165273	-0.512705	-0.388519
O6	O	1.345538	-0.447331	-0.438065
O7	O	1.214731	-0.578147	-0.208284
O8	O	1.115805	-0.274799	-0.339016
O9	O	1.345478	-0.578108	-0.339013
O10	O	1.214870	-0.274769	-0.438067
O11	O	1.115726	-0.447400	-0.208285
O12	O	0.985044	-0.447341	-0.338985
O13	O	1.115780	-0.578003	-0.568743
O14	O	0.985033	-0.578043	-0.438014
O15	O	1.214856	-0.447271	-0.568766
O16	O	1.214717	-0.750649	-0.338983
O17	O	1.115701	-0.750604	-0.438012
C18	C	0.955782	-0.512690	-0.388497
C19	C	0.866161	-0.512709	-0.388506
C20	C	0.537986	-0.512716	-0.388541
C21	C	0.629294	-0.512711	-0.388529
C22	C	0.702071	-0.512713	-0.388523
C23	C	0.793385	-0.512707	-0.388512
C24	C	1.165220	-0.789246	-0.388511
C25	C	1.165272	-0.907552	-0.388535
C26	C	1.111412	-0.976819	-0.442359
C27	C	1.091767	-1.047680	-0.368785
C28	C	1.184990	-1.047490	-0.462122
C29	C	1.145588	-0.976855	-0.314921
C30	C	1.238845	-0.976658	-0.408308
C31	C	1.219228	-1.047487	-0.334683
C32	C	1.375582	-0.512721	-0.388542
C33	C	1.465203	-0.512728	-0.388552
C34	C	1.165326	-0.512626	-0.598828
C35	C	1.165348	-0.512592	-0.688449
C36	C	1.165348	-0.235085	-0.388545
C37	C	1.165380	-0.116779	-0.388556
C38	C	1.165385	-0.512473	-1.016625
C39	C	1.165373	-0.512510	-0.925317
C40	C	1.165367	-0.512534	-0.852540
C41	C	1.165354	-0.512568	-0.761226
C42	C	1.165267	-0.512708	-0.179028
C43	C	1.165401	-0.512442	-0.089408
H44	H	1.065783	-0.945789	-0.487811
C45	C	1.279917	-1.088554	-0.273809
C46	C	1.258956	-1.052593	-0.196934
C47	C	1.314834	-1.090416	-0.140834
H48	H	1.332017	-1.063185	-0.287295
H49	H	1.279927	-1.163984	-0.274407
H50	H	1.258954	-0.977179	-0.196338
H51	H	1.206865	-1.077959	-0.183423
H52	H	1.314844	-1.165846	-0.141431
H53	H	1.366931	-1.065045	-0.154327
H54	H	1.300616	-1.066031	-0.088666
H55	H	1.201624	-1.078517	-0.524346
C56	C	1.008811	-1.089223	-0.346642
C57	C	0.952606	-1.053447	-0.403182
C58	C	0.876180	-1.091701	-0.382822
H59	H	0.994362	-1.064022	-0.294770
H60	H	1.009540	-1.164650	-0.346364
H61	H	0.951874	-0.978036	-0.403452
H62	H	0.967029	-1.078645	-0.455059
H63	H	0.876910	-1.167128	-0.382544
H64	H	0.861739	-1.066498	-0.330949
H65	H	0.838037	-1.067441	-0.421185
C66	C	1.123282	-0.935456	-0.231996
C67	C	1.123432	-0.824294	-0.232967
C68	C	1.102875	-0.786119	-0.156596
H69	H	1.161308	-0.960104	-0.193669
H70	H	1.071199	-0.960307	-0.217863
H71	H	1.175508	-0.799454	-0.247089
H72	H	1.085406	-0.799618	-0.271277
H73	H	1.050791	-0.810970	-0.142464
H74	H	1.140902	-0.810775	-0.118276
H75	H	1.102966	-0.710693	-0.157247
C76	C	1.321693	-0.935080	-0.430795
C77	C	1.341972	-0.970782	-0.507923
C78	C	1.418280	-0.932489	-0.528678
H79	H	1.360209	-0.960303	-0.393180
H80	H	1.321180	-0.859654	-0.430185
H81	H	1.342491	-1.046193	-0.508527
H82	H	1.303477	-0.945562	-0.545555
H83	H	1.417767	-0.857062	-0.528068
H84	H	1.456789	-0.957714	-0.491058
H85	H	1.432046	-0.956699	-0.581013
