data_functionalizedCrystal
_audit_creation_method	'MofGen! by Chris Wilmer'
_symmetry_space_group_name_H-M	'P1'
_symmetry_Int_Tables_number	1
_symmetry_cell_setting	triclinic
loop_
_symmetry_equiv_pos_as_xyz
  x,y,z
_cell_length_a	14.519709
_cell_length_b	14.971486
_cell_length_c	13.448316
_cell_angle_alpha	90.001801
_cell_angle_beta	89.992453
_cell_angle_gamma	96.352863
loop_
_atom_site_label
_atom_site_type_symbol
_atom_site_fract_x
_atom_site_fract_y
_atom_site_fract_z
O1	O	0.120184	-1.187015	-0.082580
O2	O	0.134576	-0.926623	-0.082607
O3	O	-0.006863	-1.063723	-0.082584
O4	O	0.261623	-1.049915	-0.082603
O5	O	-0.006871	-1.063706	0.082800
O6	O	0.134567	-0.926606	0.082777
O7	O	0.120175	-1.186998	0.082804
Cu8	Cu	0.127371	-1.056800	0.097891
Cu9	Cu	0.127381	-1.056820	-0.097694
O10	O	0.261614	-1.049898	0.082781
C11	C	0.133928	-0.893289	0.000082
C12	C	0.131999	-0.793991	0.000071
C13	C	-0.041226	-1.063071	0.000108
C14	C	-0.143606	-1.061142	0.000109
C15	C	0.120823	-1.220331	0.000113
C16	C	0.122752	-1.319630	0.000117
C17	C	-0.518498	-1.054043	0.000082
C18	C	-0.414191	-1.056015	0.000090
C19	C	-0.331055	-1.057593	0.000096
C20	C	-0.226742	-1.059564	0.000102
C21	C	0.295978	-1.050550	0.000087
C22	C	0.398358	-1.052478	0.000080
N23	N	0.127363	-1.056792	0.235456
C24	C	0.215091	-0.736812	0.000067
C25	C	0.213273	-0.643512	0.000082
C26	C	0.128363	-0.607392	0.000094
C27	C	0.045265	-0.664578	0.000102
C28	C	0.047084	-0.757876	0.000094
C29	C	0.041480	-0.470113	0.000116
C30	C	0.039661	-0.376808	0.000122
C31	C	0.207669	-0.355749	0.000104
C32	C	0.209488	-0.449047	0.000096
C33	C	0.126390	-0.506227	0.000101
N34	N	0.127381	-1.056835	-0.235258
C35	C	0.064759	-1.117519	0.287506
C36	C	0.064759	-1.117525	0.391610
C37	C	0.127366	-1.056807	0.443660
C38	C	0.189973	-0.996074	0.391602
C39	C	0.189968	-0.996065	0.287501
C40	C	0.189979	-0.996099	0.608582
C41	C	0.189985	-0.996109	0.712691
C42	C	0.064769	-1.117559	0.712691
C43	C	0.064765	-1.117549	0.608590
C44	C	0.127373	-1.056817	0.556539
H45	H	0.284234	-0.766213	0.000056
Br46	Br	0.326045	-0.565915	0.000072
H47	H	0.240958	-0.946641	0.566206
Br48	Br	-0.071297	-0.547714	0.000128
Br49	Br	0.324724	-0.498067	0.000064
H50	H	-0.023871	-0.635162	0.000126
Br51	Br	-0.020194	-1.199959	0.537946
Br52	Br	-0.065688	-0.835478	0.000109
Br53	Br	-0.020207	-1.199937	0.462253
Br54	Br	-0.020207	-1.199933	0.216877
Br55	Br	0.274936	-0.913662	0.462238
H56	H	0.013792	-1.167009	0.755077
H57	H	0.240965	-0.946665	0.755065
Br58	Br	0.320446	-0.278149	0.000094
H59	H	-0.029481	-0.347403	0.000133
H60	H	0.240945	-0.946614	0.245122
