data_functionalizedCrystal
_audit_creation_method	'MofGen! by Chris Wilmer'
_symmetry_space_group_name_H-M	'P1'
_symmetry_Int_Tables_number	1
_symmetry_cell_setting	triclinic
loop_
_symmetry_equiv_pos_as_xyz
  x,y,z
_cell_length_a	15.995350
_cell_length_b	9.016244
_cell_length_c	10.540514
_cell_angle_alpha	90.000952
_cell_angle_beta	95.996233
_cell_angle_gamma	90.003692
loop_
_atom_site_label
_atom_site_type_symbol
_atom_site_fract_x
_atom_site_fract_y
_atom_site_fract_z
O1	O	-1.111958	-0.123204	0.163614
O2	O	-0.868302	-0.123233	0.183819
O3	O	-0.995700	-0.123220	-0.011068
O4	O	-0.984560	-0.123217	0.358502
O5	O	-0.995681	0.123461	-0.011064
O6	O	-0.868284	0.123447	0.183824
O7	O	-1.111939	0.123477	0.163619
Cu8	Cu	-0.990110	0.145986	0.173722
Cu9	Cu	-0.990132	-0.145743	0.173717
O10	O	-0.984541	0.123463	0.358507
C11	C	-0.837093	0.000103	0.182986
C12	C	-0.744128	0.000092	0.180482
C13	C	-0.994860	0.000117	-0.058358
C14	C	-0.992374	0.000105	-0.199273
C15	C	-1.143148	0.000137	0.164452
C16	C	-1.236113	0.000139	0.166956
N17	N	-0.990100	0.351172	0.173725
C18	C	-0.406327	0.000122	0.171489
C19	C	-0.452940	0.000672	0.032693
C20	C	-0.549645	0.000105	0.035198
C21	C	-0.573914	0.000108	0.175950
C22	C	-0.533243	-0.140752	0.244406
C23	C	-0.436587	-0.140860	0.240919
C24	C	-0.436243	0.139662	0.243792
C25	C	-0.533189	0.141513	0.243759
C26	C	-0.668627	0.000095	0.178478
C27	C	-0.311614	0.000126	0.168964
N28	N	-0.990148	-0.350929	0.173703
C29	C	-0.921742	0.586198	0.277633
C30	C	-0.921893	0.414306	0.278017
C31	C	-1.077639	0.413521	0.202656
C32	C	-1.077266	0.585466	0.203390
C33	C	-0.971789	0.585712	0.040537
C34	C	-0.969781	0.413758	0.041429
C35	C	-1.083487	0.000120	-0.271231
C36	C	-1.080932	0.000690	-0.417809
C37	C	-0.942811	0.140704	-0.390925
C38	C	-0.946013	0.140812	-0.244430
C39	C	-0.944686	-0.139720	-0.244018
C40	C	-0.943807	-0.141558	-0.390985
C41	C	-0.985382	0.000123	0.405796
C42	C	-0.987868	0.000125	0.546712
H43	H	-0.577747	0.101080	-0.018612
H44	H	-1.093323	0.625558	0.300508
H45	H	-0.933388	0.629393	0.375898
H46	H	-0.905383	0.373008	0.019473
Br47	Br	-0.559802	0.155700	0.414841
H48	H	-0.560201	0.245722	0.193786
Br49	Br	-0.595530	-0.168782	-0.054698
H50	H	-0.405088	0.140617	0.346125
H51	H	-1.016303	0.370786	-0.039532
Br52	Br	-0.941521	0.345716	0.442746
Br53	Br	-0.994300	0.315763	-0.462566
Br54	Br	-1.164635	0.654793	0.081884
Br55	Br	-0.812982	0.655131	0.249353
Br56	Br	-0.813466	0.344041	0.249375
H57	H	-1.094055	0.370447	0.298669
Br58	Br	-0.867627	0.658061	-0.005810
H59	H	-0.547981	-0.145988	0.347812
H60	H	-0.433027	-0.099789	-0.022533
Br61	Br	-1.164558	0.345370	0.079848
Br62	Br	-1.054918	0.653473	-0.088371
H63	H	-1.116370	-0.100059	-0.460964
H64	H	-0.875975	-0.150480	-0.414248
H65	H	-1.120451	-0.100690	-0.243221
H66	H	-0.975022	-0.246309	-0.212941
H67	H	-0.561344	-0.245585	0.196855
Br68	Br	-0.828882	0.148750	-0.426542
H69	H	-1.119925	0.100717	-0.241412
H70	H	-1.116202	0.102065	-0.460022
H71	H	-0.978904	0.246308	-0.216654
H72	H	-0.879083	0.146800	-0.195504
H73	H	-0.877476	-0.141073	-0.195854
H74	H	-0.434081	0.101688	-0.022785
Br75	Br	-0.405587	-0.316364	0.157709
Br76	Br	-0.998683	-0.314909	-0.460072
H77	H	-0.404942	-0.147251	0.342820
H78	H	-0.415431	0.246431	0.198418
