data_functionalizedCrystal
_audit_creation_method	'MofGen! by Chris Wilmer'
_symmetry_space_group_name_H-M	'P1'
_symmetry_Int_Tables_number	1
_symmetry_cell_setting	triclinic
loop_
_symmetry_equiv_pos_as_xyz
  x,y,z
_cell_length_a	33.592126
_cell_length_b	33.591377
_cell_length_c	33.588093
_cell_angle_alpha	60.004089
_cell_angle_beta	60.008299
_cell_angle_gamma	59.994549
loop_
_atom_site_label
_atom_site_type_symbol
_atom_site_fract_x
_atom_site_fract_y
_atom_site_fract_z
O1	O	0.055297	-0.581666	0.486338
O2	O	0.555297	-0.081666	0.986338
O3	O	0.020882	-0.452873	0.391864
O4	O	0.520882	0.047127	0.891864
O5	O	0.102445	-0.534352	0.391775
O6	O	0.602445	-0.034352	0.891775
O7	O	-0.026266	-0.500187	0.486427
O8	O	0.473734	-0.000187	0.986427
O9	O	0.129510	-0.507292	0.418747
O10	O	0.629510	-0.007292	0.918747
O11	O	0.047947	-0.425814	0.418835
O12	O	0.547947	0.074186	0.918835
O13	O	0.082362	-0.554606	0.513309
O14	O	0.582362	-0.054606	1.013309
Cu15	Cu	0.067626	-0.487739	0.468535
Cu16	Cu	0.567626	0.012261	0.968535
Cu17	Cu	0.035618	-0.519740	0.436638
Cu18	Cu	0.535618	-0.019740	0.936638
O19	O	0.000799	-0.473128	0.513398
O20	O	0.500799	0.026872	1.013398
N21	N	0.090139	-0.465235	0.490972
N22	N	0.590139	0.034765	0.990972
N23	N	0.013110	-0.542249	0.414202
N24	N	0.513110	-0.042249	0.914202
C25	C	0.124394	-0.431229	0.734914
C26	C	0.624394	0.068771	1.234914
C27	C	0.334265	-0.431145	0.524799
C28	C	0.834265	0.068855	1.024799
C29	C	0.124204	-0.431200	0.524965
C30	C	0.624204	0.068800	1.024965
C31	C	0.124184	-0.221175	0.524955
C32	C	0.624184	0.278825	1.024955
C33	C	0.158017	-0.322536	0.558710
C34	C	0.658017	0.177464	1.058710
C35	C	0.158027	-0.397406	0.558711
C36	C	0.658027	0.102594	1.058711
C37	C	0.176763	-0.378688	0.577408
C38	C	0.676763	0.121312	1.077408
C39	C	0.258412	-0.364594	0.534386
C40	C	0.758412	0.135406	1.034386
C41	C	0.309454	-0.381596	0.517340
C42	C	0.809454	0.118404	1.017340
C43	C	0.309485	-0.464188	0.548836
C44	C	0.809485	0.035812	1.048836
C45	C	0.258444	-0.447186	0.565883
C46	C	0.758444	0.052814	1.065883
C47	C	0.170304	-0.297002	0.508532
C48	C	0.670304	0.202998	1.008532
C49	C	0.153260	-0.245956	0.491537
C50	C	0.653260	0.254044	0.991537
C51	C	0.111648	-0.245983	0.574901
C52	C	0.611648	0.254017	1.074901
C53	C	0.128691	-0.297029	0.591896
C54	C	0.628691	0.202971	1.091896
C55	C	0.107841	-0.385091	0.571080
C56	C	0.607841	0.114909	1.071080
C57	C	0.090813	-0.402108	0.554078
C58	C	0.590813	0.097892	1.054078
C59	C	0.174153	-0.443755	0.512351
C60	C	0.674153	0.056245	1.012351
C61	C	0.191183	-0.426739	0.529347
C62	C	0.691183	0.073261	1.029347
C63	C	0.107923	-0.385106	0.659111
C64	C	0.607923	0.114894	1.159111
C65	C	0.090955	-0.402138	0.710156
C66	C	0.590955	0.097862	1.210156
C67	C	0.174335	-0.443795	0.710087
C68	C	0.674335	0.056205	1.210087
C69	C	0.191302	-0.426764	0.659041
C70	C	0.691302	0.073236	1.159041
C71	C	0.158095	-0.397418	0.633555
C72	C	0.658095	0.102582	1.133555
C73	C	0.232909	-0.397388	0.558656
C74	C	0.732909	0.102612	1.058656
C75	C	0.105069	-0.449619	0.791057
C76	C	0.605069	0.050381	1.291057
C77	C	0.390406	-0.449193	0.505789
C78	C	0.890406	0.050807	1.005789
C79	C	0.104813	-0.449599	0.506607
C80	C	0.604813	0.050401	1.006607
C81	C	0.105125	-0.165028	0.506915
C82	C	0.605125	0.334972	1.006915
C83	C	-0.020560	-0.576246	0.169890
C84	C	0.479440	-0.076246	0.669890
C85	C	-0.020889	-0.786183	0.379970
C86	C	0.479111	-0.286183	0.879970
C87	C	-0.020859	-0.576235	0.380063
C88	C	0.479141	-0.076235	0.880063
C89	C	-0.230772	-0.576015	0.379658
C90	C	0.269228	-0.076015	0.879658
C91	C	-0.129417	-0.609898	0.346025
C92	C	0.370583	-0.109898	0.846025
C93	C	-0.054587	-0.609979	0.346172
C94	C	0.445413	-0.109979	0.846172
C95	C	-0.073269	-0.628671	0.327396
C96	C	0.426731	-0.128671	0.827396
C97	C	-0.087401	-0.710299	0.370335
C98	C	0.412599	-0.210299	0.870335
C99	C	-0.070424	-0.761345	0.387369
C100	C	0.429576	-0.261345	0.887369
C101	C	0.012165	-0.761428	0.356003
C102	C	0.512165	-0.261428	0.856003
C103	C	-0.004813	-0.710383	0.338967
C104	C	0.495187	-0.210383	0.838967
C105	C	-0.155001	-0.622196	0.396191
C106	C	0.344999	-0.122196	0.896191
C107	C	-0.206043	-0.605128	0.413125
C108	C	0.293957	-0.105128	0.913125
C109	C	-0.205914	-0.563467	0.329724
C110	C	0.294086	-0.063467	0.829724
C111	C	-0.154872	-0.580535	0.312790
C112	C	0.345128	-0.080535	0.812790
C113	C	-0.066886	-0.559797	0.333828
C114	C	0.433114	-0.059797	0.833828
C115	C	-0.049903	-0.542809	0.350903
C116	C	0.450097	-0.042809	0.850903
C117	C	-0.008321	-0.626180	0.392654
C118	C	0.491679	-0.126180	0.892654
C119	C	-0.025304	-0.643170	0.375585
C120	C	0.474696	-0.143170	0.875585
C121	C	-0.066758	-0.559805	0.245702
C122	C	0.433242	-0.059805	0.745702
C123	C	-0.049671	-0.542819	0.194658
C124	C	0.450329	-0.042819	0.694658
C125	C	-0.008026	-0.626194	0.194706
C126	C	0.491974	-0.126194	0.694706
C127	C	-0.025111	-0.643179	0.245752
C128	C	0.474889	-0.143179	0.745752
C129	C	-0.054479	-0.609983	0.271248
C130	C	0.445521	-0.109983	0.771248
C131	C	-0.054597	-0.684821	0.346135
C132	C	0.445403	-0.184821	0.846135
C133	C	-0.002109	-0.556901	0.113746
C134	C	0.497891	-0.056901	0.613746
C135	C	-0.002869	-0.842328	0.398966
C136	C	0.497131	-0.342328	0.898966
C137	C	-0.002496	-0.556887	0.398501
C138	C	0.497504	-0.056887	0.898501
C139	C	-0.286914	-0.556929	0.397631
C140	C	0.213086	-0.056929	0.897631
N141	N	0.436349	-0.465146	0.490703
N142	N	0.936349	0.034854	0.990703
O143	O	0.592194	-0.469605	0.374236
O144	O	1.092194	0.030395	0.874236
O145	O	0.592389	-0.564393	0.502890
O146	O	1.092389	-0.064393	1.002890
O147	O	0.592305	-0.564176	0.421300
O148	O	1.092305	-0.064176	0.921300
O149	O	0.592277	-0.469822	0.455826
O150	O	1.092277	0.030178	0.955826
O151	O	0.511216	-0.537214	0.448415
O152	O	1.011216	-0.037214	0.948415
O153	O	0.511300	-0.537431	0.530004
O154	O	1.011300	-0.037431	1.030004
O155	O	0.511104	-0.442643	0.401350
O156	O	1.011104	0.057357	0.901350
Cu157	Cu	0.503798	-0.487575	0.468153
Cu158	Cu	1.003798	0.012425	0.968153
Cu159	Cu	0.599695	-0.519461	0.436087
Cu160	Cu	1.099695	-0.019461	0.936087
O161	O	0.511188	-0.442860	0.482940
O162	O	1.011188	0.057140	0.982940
N163	N	0.667145	-0.541890	0.413532
N164	N	1.167145	-0.041890	0.913532
N165	N	0.090108	-0.119085	0.490958
N166	N	0.590108	0.380915	0.990958
O167	O	-0.026275	0.036848	0.486394
O168	O	0.473725	0.536848	0.986394
O169	O	0.102381	0.036888	0.391584
O170	O	0.602381	0.536888	0.891584
O171	O	0.020751	0.036852	0.391854
O172	O	0.520751	0.536852	0.891854
O173	O	0.055356	0.036884	0.486124
O174	O	0.555356	0.536884	0.986124
O175	O	0.047821	-0.044242	0.418876
O176	O	0.547821	0.455758	0.918876
O177	O	0.129452	-0.044207	0.418606
O178	O	0.629452	0.455793	0.918606
O179	O	0.000796	-0.044246	0.513417
O180	O	0.500796	0.455754	1.013417
Cu181	Cu	0.067596	-0.051631	0.468479
Cu182	Cu	0.567596	0.448369	0.968479
Cu183	Cu	0.035582	0.044273	0.436522
Cu184	Cu	0.535582	0.544273	0.936522
O185	O	0.082426	-0.044211	0.513146
O186	O	0.582426	0.455789	1.013146
N187	N	0.013063	0.111726	0.414043
N188	N	0.513063	0.611726	0.914043
N189	N	0.090453	-0.465282	0.837001
N190	N	0.590453	0.034718	1.337001
O191	O	0.085913	-0.581648	0.992925
O192	O	0.585913	-0.081648	1.492925
O193	O	-0.008857	-0.452947	0.992970
O194	O	0.491143	0.047053	1.492970
O195	O	-0.008635	-0.534562	0.992946
O196	O	0.491365	-0.034562	1.492946
O197	O	0.085691	-0.500033	0.992949
O198	O	0.585691	-0.000033	1.492949
O199	O	0.018365	-0.507512	0.911855
O200	O	0.518365	-0.007512	1.411855
O201	O	0.018143	-0.425898	0.911878
O202	O	0.518143	0.074102	1.411878
O203	O	0.112912	-0.554598	0.911834
O204	O	0.612912	-0.054598	1.411834
Cu205	Cu	0.067993	-0.487778	0.904452
Cu206	Cu	0.567993	0.012222	1.404452
Cu207	Cu	0.036063	-0.519767	1.000352
Cu208	Cu	0.536063	-0.019767	1.500352
O209	O	0.112691	-0.472984	0.911857
O210	O	0.612691	0.027016	1.411857
N211	N	0.013602	-0.542269	1.067803
N212	N	0.513602	-0.042269	1.567803
C213	C	0.031188	-0.423114	0.392334
C214	C	0.531188	0.076886	0.892334
C215	C	0.132194	-0.524016	0.392223
C216	C	0.632194	-0.024016	0.892223
C217	C	0.072056	-0.584366	0.512840
C218	C	0.572056	-0.084366	1.012840
C219	C	-0.028950	-0.483464	0.512950
C220	C	0.471050	0.016536	1.012950
C221	C	0.551868	-0.563965	0.532655
C222	C	1.051868	-0.063965	1.032655
C223	C	0.551766	-0.563697	0.431617
C224	C	1.051766	-0.063697	0.931617
C225	C	0.551623	-0.443070	0.371586
C226	C	1.051623	0.056930	0.871586
C227	C	0.551728	-0.443339	0.472623
C228	C	1.051728	0.056661	0.972623
C229	C	0.132090	-0.003555	0.392006
C230	C	0.632090	0.496445	0.892006
C231	C	0.031035	-0.003698	0.392374
C232	C	0.531035	0.496302	0.892374
C233	C	-0.028947	-0.003703	0.512961
C234	C	0.471053	0.496297	1.012961
C235	C	0.072143	-0.003661	0.512626
C236	C	0.572143	0.496339	1.012626
C237	C	-0.008408	-0.423209	0.952430
C238	C	0.491592	0.076791	1.452430
C239	C	-0.008128	-0.524272	0.952385
C240	C	0.491872	-0.024272	1.452385
C241	C	0.112464	-0.584336	0.952374
C242	C	0.612464	-0.084336	1.452374
C243	C	0.112190	-0.483267	0.952401
C244	C	0.612190	0.016733	1.452401
H245	H	0.080878	-0.361206	0.638363
H246	H	0.580878	0.138794	1.138363
C247	C	0.193459	-0.627921	0.910663
C248	C	0.693459	-0.127921	1.410663
C249	C	0.152633	-0.634232	0.952354
C250	C	0.652633	-0.134232	1.452354
H251	H	0.218256	-0.658725	0.910650
H252	H	0.718256	-0.158725	1.410650
H253	H	0.205226	-0.607436	0.910673
H254	H	0.705226	-0.107436	1.410673
H255	H	0.184582	-0.613328	0.882391
H256	H	0.684582	-0.113328	1.382391
H257	H	0.161509	-0.648822	0.980626
H258	H	0.661509	-0.148822	1.480626
H259	H	0.140864	-0.654725	0.952349
H260	H	0.640864	-0.154725	1.452349
H261	H	0.023621	-0.003702	0.362756
H262	H	0.523621	0.496298	0.862756
C263	C	-0.087581	-0.434462	0.564314
C264	C	0.412419	0.065538	1.064314
C265	C	-0.078852	-0.473643	0.553078
C266	C	0.421148	0.026357	1.053078
H267	H	-0.118386	-0.428402	0.589090
H268	H	0.381614	0.071598	1.089090
H269	H	-0.087508	-0.406240	0.535985
H270	H	0.412492	0.093760	1.035985
H271	H	-0.062770	-0.442176	0.575494
H272	H	0.437230	0.057824	1.075494
H273	H	-0.103661	-0.465927	0.541894
H274	H	0.396339	0.034073	1.041894
H275	H	-0.078928	-0.501871	0.581413
H276	H	0.421072	-0.001871	1.081413
C277	C	-0.109043	-0.003716	0.535804
C278	C	0.390957	0.496284	1.035804
C279	C	-0.078828	-0.003705	0.553140
C280	C	0.421172	0.496295	1.053140
H281	H	-0.139839	-0.003711	0.560607
H282	H	0.360161	0.496289	1.060607
H283	H	-0.094463	-0.031999	0.526957
H284	H	0.405537	0.468001	1.026957
H285	H	-0.113324	0.024561	0.508094
H286	H	0.386676	0.524561	1.008094
H287	H	-0.074544	-0.031984	0.580848
H288	H	0.425456	0.468016	1.080848
H289	H	-0.093411	0.024580	0.561993
H290	H	0.406589	0.524580	1.061993
C291	C	0.182198	-0.492230	0.310338
C292	C	0.682198	0.007770	0.810338
C293	C	0.182096	-0.533839	0.352096
C294	C	0.682096	-0.033839	0.852096
H295	H	0.213005	-0.498297	0.285564
H296	H	0.713005	0.001703	0.785564
H297	H	0.176275	-0.465655	0.317965
H298	H	0.676275	0.034345	0.817965
H299	H	0.157389	-0.484524	0.299160
H300	H	0.657389	0.015476	0.799160
H301	H	0.206903	-0.541543	0.363275
H302	H	0.706903	-0.041543	0.863275
H303	H	0.188025	-0.560423	0.344468
H304	H	0.688025	-0.060423	0.844468
H305	H	0.168963	-0.003318	0.362168
H306	H	0.668963	0.496682	0.862168
C307	C	0.132515	-0.312765	0.668163
C308	C	0.632515	0.187235	1.168163
C309	C	0.115189	-0.325102	0.647055
C310	C	0.615189	0.174898	1.147055
H311	H	0.124181	-0.330098	0.702215
H312	H	0.624181	0.169902	1.202215
H313	H	0.118167	-0.278718	0.662792
H314	H	0.618167	0.221282	1.162792
H315	H	0.166952	-0.321119	0.653800
H316	H	0.666952	0.178881	1.153800
H317	H	0.080752	-0.316744	0.661415
H318	H	0.580752	0.183256	1.161415
H319	H	0.129536	-0.359156	0.652430
H320	H	0.629536	0.140844	1.152430
C321	C	0.129736	-0.003650	0.535025
C322	C	0.629736	0.496350	1.035025
C323	C	0.082148	-0.003662	0.552615
C324	C	0.582148	0.496338	1.052615
H325	H	0.135913	-0.003657	0.559714
H326	H	0.635913	0.496343	1.059714
H327	H	0.133345	0.024634	0.507304
H328	H	0.633345	0.524634	1.007304
H329	H	0.152223	-0.031925	0.526134
H330	H	0.652223	0.468075	1.026134
H331	H	0.059661	0.024615	0.561502
H332	H	0.559661	0.524615	1.061502
H333	H	0.078534	-0.031949	0.580345
H334	H	0.578534	0.468051	1.080345
H335	H	-0.038161	-0.386246	0.952443
H336	H	0.461839	0.113754	1.452443
H337	H	-0.037749	-0.531650	0.952352
H338	H	0.462251	-0.031650	1.452352
C339	C	0.093354	-0.670833	0.536350
C340	C	0.593354	-0.170833	1.036350
C341	C	0.081977	-0.634310	0.552899
C342	C	0.581977	-0.134310	1.052899
H343	H	0.099476	-0.701666	0.561083
H344	H	0.599476	-0.201666	1.061083
H345	H	0.121544	-0.670691	0.507994
H346	H	0.621544	-0.170691	1.007994
H347	H	0.066755	-0.664914	0.528758
H348	H	0.566755	-0.164914	1.028758
H349	H	0.108578	-0.640227	0.560488
H350	H	0.608578	-0.140227	1.060488
H351	H	0.053784	-0.634453	0.581264
H352	H	0.553784	-0.134453	1.081264
C353	C	0.010242	-0.359236	0.705089
C354	C	0.510242	0.140764	1.205089
C355	C	0.035801	-0.388592	0.738242
C356	C	0.535801	0.111408	1.238242
H357	H	-0.023807	-0.350872	0.722431
H358	H	0.476193	0.149128	1.222431
H359	H	0.018592	-0.376550	0.685183
H360	H	0.518592	0.123450	1.185183
H361	H	0.018601	-0.330372	0.685176
H362	H	0.518601	0.169628	1.185176
H363	H	0.027445	-0.417458	0.758153
H364	H	0.527445	0.082542	1.258153
H365	H	0.027448	-0.371278	0.758157
H366	H	0.527448	0.128722	1.258157
C367	C	0.258459	-0.483250	0.704884
C368	C	0.758459	0.016750	1.204884
C369	C	0.210839	-0.476044	0.738098
C370	C	0.710839	0.023956	1.238098
H371	H	0.280995	-0.503162	0.722178
H372	H	0.780995	-0.003162	1.222178
H373	H	0.263335	-0.452650	0.684977
H374	H	0.763335	0.047350	1.184977
H375	H	0.263344	-0.498833	0.684976
H376	H	0.763344	0.001167	1.184976
H377	H	0.205953	-0.460457	0.758003
H378	H	0.705953	0.039543	1.258003
H379	H	0.205960	-0.506649	0.758013
H380	H	0.705960	-0.006649	1.258013
C381	C	0.551961	-0.586774	0.612721
C382	C	1.051961	-0.086774	1.112721
C383	C	0.551942	-0.604140	0.582535
C384	C	1.051942	-0.104140	1.082535
H385	H	0.552010	-0.611578	0.643513
H386	H	1.052010	-0.111578	1.143513
H387	H	0.523668	-0.559085	0.617018
H388	H	1.023668	-0.059085	1.117018
H389	H	0.580223	-0.577889	0.598107
H390	H	1.080223	-0.077889	1.098107
H391	H	0.523678	-0.613021	0.597147
H392	H	1.023678	-0.113021	1.097147
H393	H	0.580238	-0.631837	0.578240
H394	H	1.080238	-0.131837	1.078240
C395	C	0.551716	-0.586140	0.374076
C396	C	1.051716	-0.086140	0.874076
C397	C	0.551779	-0.603713	0.421648
C398	C	1.051779	-0.103713	0.921648
H399	H	0.551721	-0.610844	0.367924
H400	H	1.051721	-0.110844	0.867924
H401	H	0.579968	-0.577237	0.351566
H402	H	1.079968	-0.077237	0.851566
H403	H	0.523412	-0.558426	0.370477
H404	H	1.023412	-0.058426	0.870477
H405	H	0.580085	-0.631425	0.425246
H406	H	1.080085	-0.131425	0.925246
H407	H	0.523524	-0.612623	0.444164
H408	H	1.023524	-0.112623	0.944164
C409	C	0.163355	-0.434085	0.910710
C410	C	0.663355	0.065915	1.410710
C411	C	0.152199	-0.473296	0.952392
C412	C	0.652199	0.026704	1.452392
H413	H	0.188057	-0.427932	0.910704
H414	H	0.688057	0.072068	1.410704
H415	H	0.134976	-0.405910	0.910727
H416	H	0.634976	0.094090	1.410727
H417	H	0.174606	-0.441827	0.882432
H418	H	0.674606	0.058173	1.382432
H419	H	0.140944	-0.465553	0.980670
H420	H	0.640944	0.034447	1.480670
H421	H	0.180583	-0.501477	0.952379
H422	H	0.680583	-0.001477	1.452379
C423	C	0.258755	-0.397743	0.601596
C424	C	0.758755	0.102257	1.101596
C425	C	0.246455	-0.440301	0.630950
C426	C	0.746455	0.059699	1.130950
H427	H	0.292803	-0.406101	0.584253
H428	H	0.792803	0.093899	1.084253
H429	H	0.250402	-0.380435	0.621509
H430	H	0.750402	0.119565	1.121509
H431	H	0.241405	-0.377834	0.579113
H432	H	0.741405	0.122166	1.079113
H433	H	0.263802	-0.460208	0.653435
H434	H	0.763802	0.039792	1.153435
H435	H	0.254812	-0.457616	0.611035
H436	H	0.754812	0.042384	1.111035
H437	H	0.080840	-0.361208	0.594989
H438	H	0.580840	0.138792	1.094989
H439	H	0.551560	-0.413310	0.334638
H440	H	1.051560	0.086690	0.834638
C441	C	0.551774	-0.420895	0.530165
C442	C	1.051774	0.079105	1.030165
C443	C	0.551713	-0.403323	0.482592
C444	C	1.051713	0.096677	0.982592
H445	H	0.551761	-0.396189	0.536320
H446	H	1.051761	0.103811	1.036320
H447	H	0.580075	-0.448604	0.533765
H448	H	1.080075	0.051396	1.033765
H449	H	0.523520	-0.429802	0.552676
H450	H	1.023520	0.070198	1.052676
H451	H	0.579969	-0.394419	0.460081
H452	H	1.079969	0.105581	0.960081
H453	H	0.523409	-0.375605	0.478989
H454	H	1.023409	0.124395	0.978989
H455	H	0.201155	-0.467643	0.488446
H456	H	0.701155	0.032357	0.988446
C457	C	0.014571	-0.405910	0.618442
C458	C	0.514571	0.094090	1.118442
C459	C	0.035649	-0.388580	0.567672
C460	C	0.535649	0.111420	1.067672
H461	H	-0.019484	-0.397562	0.626833
H462	H	0.480516	0.102438	1.126833
H463	H	0.019962	-0.391573	0.632765
H464	H	0.519962	0.108427	1.132765
H465	H	0.028936	-0.440350	0.630156
H466	H	0.528936	0.059650	1.130156
H467	H	0.021286	-0.354139	0.555958
H468	H	0.521286	0.145861	1.055958
H469	H	0.030254	-0.402914	0.553344
H470	H	0.530254	0.097086	1.053344
C471	C	0.271856	-0.469592	0.486370
C472	C	0.771856	0.030408	0.986370
C473	C	0.246348	-0.440259	0.515740
C474	C	0.746348	0.059741	1.015740
H475	H	0.305912	-0.477936	0.477968
H476	H	0.805912	0.022064	0.977968
H477	H	0.263445	-0.452270	0.457534
H478	H	0.763445	0.047730	0.957534
H479	H	0.263516	-0.498467	0.503693
H480	H	0.763516	0.001533	1.003693
H481	H	0.254686	-0.411381	0.498414
H482	H	0.754686	0.088619	0.998414
H483	H	0.254764	-0.457580	0.544580
H484	H	0.754764	0.042420	1.044580
H485	H	0.237680	-0.473893	0.585645
H486	H	0.737680	0.026107	1.085645
C487	C	-0.159867	-0.537647	0.232049
C488	C	0.340133	-0.037647	0.732049
C489	C	-0.126746	-0.567023	0.257644
C490	C	0.373254	-0.067023	0.757644
H491	H	-0.142503	-0.529309	0.198004
H492	H	0.357497	-0.029309	0.698004
H493	H	-0.179771	-0.508775	0.240395
H494	H	0.320229	-0.008775	0.740395
H495	H	-0.179785	-0.554941	0.240383
H496	H	0.320215	-0.054941	0.740383
H497	H	-0.106830	-0.549728	0.249312
H498	H	0.393170	-0.049728	0.749312
H499	H	-0.106834	-0.595900	0.249293
H500	H	0.393166	-0.095900	0.749293
C501	C	0.304393	-0.544123	0.581676
C502	C	0.804393	-0.044123	1.081676
C503	C	0.337557	-0.518927	0.556773
C504	C	0.837557	-0.018927	1.056773
H505	H	0.321724	-0.577916	0.586578
H506	H	0.821724	-0.077916	1.086578
H507	H	0.284463	-0.532152	0.562994
H508	H	0.784463	-0.032152	1.062994
H509	H	0.284506	-0.539393	0.612350
H510	H	0.784506	-0.039393	1.112350
H511	H	0.357442	-0.523654	0.526098
H512	H	0.857442	-0.023654	1.026098
H513	H	0.357496	-0.530902	0.575455
H514	H	0.857496	-0.030902	1.075455
C515	C	0.017507	-0.723877	0.418566
C516	C	0.517507	-0.223877	0.918566
C517	C	-0.011784	-0.698330	0.389146
C518	C	0.488216	-0.198330	0.889146
H519	H	0.025857	-0.757930	0.426934
H520	H	0.525857	-0.257930	0.926934
H521	H	0.000155	-0.715495	0.447419
H522	H	0.500155	-0.215495	0.947419
H523	H	0.046379	-0.715537	0.401292
H524	H	0.546379	-0.215537	0.901292
H525	H	-0.040657	-0.706667	0.406421
H526	H	0.459343	-0.206667	0.906421
H527	H	0.005568	-0.706716	0.360289
H528	H	0.505568	-0.206716	0.860289
C529	C	0.304297	-0.298248	0.487913
C530	C	0.804297	0.201752	0.987913
C531	C	0.337489	-0.345548	0.490659
C532	C	0.837489	0.154452	0.990659
H533	H	0.321606	-0.275994	0.471438
H534	H	0.821606	0.224006	0.971438
H535	H	0.284412	-0.296952	0.519892
H536	H	0.784412	0.203048	1.019892
H537	H	0.284367	-0.289718	0.470539
H538	H	0.784367	0.210282	0.970539
H539	H	0.357417	-0.354080	0.508037
H540	H	0.857417	0.145920	1.008037
H541	H	0.357382	-0.346846	0.458675
H542	H	0.857382	0.153154	0.958675
H543	H	0.194180	-0.317769	0.481510
H544	H	0.694180	0.182231	0.981510
C545	C	0.201027	-0.302893	0.571660
C546	C	0.701027	0.197107	1.071660
C547	C	0.230345	-0.309856	0.526443
C548	C	0.730345	0.190144	1.026443
H549	H	0.183697	-0.269100	0.566754
H550	H	0.683697	0.230900	1.066754
H551	H	0.220962	-0.314860	0.590336
H552	H	0.720962	0.185140	1.090336
H553	H	0.178533	-0.319992	0.588550
H554	H	0.678533	0.180008	1.088550
H555	H	0.252841	-0.292761	0.509554
H556	H	0.752841	0.207239	1.009554
H557	H	0.210408	-0.297883	0.507759
H558	H	0.710408	0.202117	1.007759
C559	C	0.149437	-0.230224	0.415272
C560	C	0.649437	0.269776	0.915272
C561	C	0.166763	-0.217885	0.436377
C562	C	0.666763	0.282115	0.936377
H563	H	0.157776	-0.212896	0.381219
H564	H	0.657776	0.287104	0.881219
H565	H	0.115005	-0.221869	0.429630
H566	H	0.615005	0.278131	0.929630
H567	H	0.163786	-0.264276	0.420647
H568	H	0.663786	0.235724	0.920647
H569	H	0.152411	-0.183833	0.431005
H570	H	0.652411	0.316167	0.931005
H571	H	0.201202	-0.226236	0.422015
H572	H	0.701202	0.273764	0.922015
C573	C	0.102383	-0.188573	0.604114
C574	C	0.602383	0.311427	1.104114
C575	C	0.079412	-0.217939	0.611374
C576	C	0.579412	0.282061	1.111374
H577	H	0.082481	-0.171261	0.626633
H578	H	0.582481	0.328739	1.126633
H579	H	0.107255	-0.166064	0.571799
H580	H	0.607255	0.333936	1.071799
H581	H	0.132990	-0.208479	0.608996
H582	H	0.632990	0.291521	1.108996
H583	H	0.048807	-0.198032	0.606488
H584	H	0.548807	0.301968	1.106488
H585	H	0.074534	-0.240449	0.643697
H586	H	0.574534	0.259551	1.143697
H587	H	-0.059677	-0.501957	0.173865
H588	H	0.440323	-0.001957	0.673865
H589	H	-0.090673	-0.532769	0.266460
H590	H	0.409327	-0.032769	0.766460
H591	H	-0.015108	-0.684041	0.266548
H592	H	0.484892	-0.184041	0.766548
C593	C	0.031413	-0.710314	0.199889
C594	C	0.531413	-0.210314	0.699889
C595	C	0.024247	-0.662685	0.166684
C596	C	0.524247	-0.162685	0.666684
H597	H	0.051341	-0.732842	0.182588
H598	H	0.551341	-0.232842	0.682588
H599	H	0.000805	-0.715177	0.219750
H600	H	0.500805	-0.215177	0.719750
H601	H	0.046962	-0.715227	0.219843
H602	H	0.546962	-0.215227	0.719843
H603	H	0.008695	-0.657770	0.146733
H604	H	0.508695	-0.157770	0.646733
H605	H	0.054861	-0.657820	0.146815
H606	H	0.554861	-0.157820	0.646815
H607	H	-0.059919	-0.501948	0.340854
H608	H	0.440081	-0.001948	0.840854
C609	C	0.036185	-0.637160	0.437358
C610	C	0.536185	-0.137160	0.937358
C611	C	0.023871	-0.662665	0.424979
C612	C	0.523871	-0.162665	0.924979
H613	H	0.056061	-0.659686	0.457313
H614	H	0.556061	-0.159686	0.957313
H615	H	0.007316	-0.617228	0.454643
H616	H	0.507316	-0.117228	0.954643
H617	H	0.053536	-0.617273	0.408513
H618	H	0.553536	-0.117273	0.908513
H619	H	0.006517	-0.682550	0.453824
H620	H	0.506517	-0.182550	0.953824
H621	H	0.052745	-0.682605	0.407695
H622	H	0.552745	-0.182605	0.907695
C623	C	0.065739	-0.694748	0.270584
C624	C	0.565739	-0.194748	0.770584
C625	C	0.031249	-0.682376	0.312367
C626	C	0.531249	-0.182376	0.812367
H627	H	0.088004	-0.677460	0.254164
H628	H	0.588004	-0.177460	0.754164
H629	H	0.049640	-0.686368	0.249542
H630	H	0.549640	-0.186368	0.749542
H631	H	0.082971	-0.728809	0.279712
H632	H	0.582971	-0.228809	0.779712
H633	H	0.014015	-0.648316	0.303239
H634	H	0.514015	-0.148316	0.803239
H635	H	0.047350	-0.690752	0.333413
H636	H	0.547350	-0.190752	0.833413
C637	C	0.084550	-0.818893	0.320563
C638	C	0.584550	-0.318893	0.820563
C639	C	0.066888	-0.789533	0.348130
C640	C	0.566888	-0.289533	0.848130
H641	H	0.118332	-0.836245	0.315705
H642	H	0.618332	-0.336245	0.815705
H643	H	0.079863	-0.798982	0.289875
H644	H	0.579863	-0.298982	0.789875
H645	H	0.067436	-0.841370	0.337418
H646	H	0.567436	-0.341370	0.837418
H647	H	0.083999	-0.767054	0.331273
H648	H	0.583999	-0.267054	0.831273
H649	H	0.071578	-0.809446	0.378823
H650	H	0.571578	-0.309446	0.878823
H651	H	-0.097137	-0.782089	0.407066
H652	H	0.402863	-0.282089	0.907066
C653	C	-0.167325	-0.715350	0.403023
C654	C	0.332675	-0.215350	0.903023
C655	C	-0.142120	-0.682203	0.378193
C656	C	0.357880	-0.182203	0.878193
H657	H	-0.201106	-0.698003	0.407866
H658	H	0.298894	-0.198003	0.907866
H659	H	-0.162652	-0.735247	0.433718
H660	H	0.337348	-0.235247	0.933718
H661	H	-0.155316	-0.735275	0.384319
H662	H	0.344684	-0.235275	0.884319
H663	H	-0.154127	-0.662280	0.396899
H664	H	0.345873	-0.162280	0.896899
H665	H	-0.146797	-0.662298	0.347494
H666	H	0.353203	-0.162298	0.847494
H667	H	-0.134277	-0.646110	0.423254
H668	H	0.365723	-0.146110	0.923254
C669	C	-0.221881	-0.669411	0.489407
C670	C	0.278119	-0.169411	0.989407
C671	C	-0.234173	-0.618647	0.468271
C672	C	0.265827	-0.118647	0.968271
H673	H	-0.239250	-0.677757	0.523451
H674	H	0.260750	-0.177757	1.023451
H675	H	-0.187845	-0.683772	0.484082
H676	H	0.312155	-0.183772	0.984082
H677	H	-0.230222	-0.681129	0.475027
H678	H	0.269778	-0.181129	0.975027
H679	H	-0.225829	-0.606929	0.482648
H680	H	0.274171	-0.106929	0.982648
H681	H	-0.268217	-0.604281	0.473600
H682	H	0.231783	-0.104281	0.973600
C683	C	-0.263255	-0.554133	0.300378
C684	C	0.236745	-0.054133	0.800378
C685	C	-0.233900	-0.531193	0.293196
C686	C	0.266100	-0.031193	0.793196
H687	H	-0.280529	-0.534207	0.277825
H688	H	0.219471	-0.034207	0.777825
H689	H	-0.285793	-0.559007	0.332676
H690	H	0.214207	-0.059007	0.832676
H691	H	-0.243348	-0.584738	0.295494
H692	H	0.256652	-0.084738	0.795494
H693	H	-0.253807	-0.500589	0.298083
H694	H	0.246193	-0.000589	0.798083
H695	H	-0.211359	-0.526313	0.260889
H696	H	0.288641	-0.026313	0.760889
H697	H	-0.090726	-0.532768	0.309877
H698	H	0.409274	-0.032768	0.809877
H699	H	0.023834	-0.386116	0.362662
H700	H	0.523834	0.113884	0.862662
