data_functionalizedCrystal
_audit_creation_method	'MofGen! by Chris Wilmer'
_symmetry_space_group_name_H-M	'P1'
_symmetry_Int_Tables_number	1
_symmetry_cell_setting	triclinic
loop_
_symmetry_equiv_pos_as_xyz
  x,y,z
_cell_length_a	12.759401
_cell_length_b	16.625546
_cell_length_c	12.759393
_cell_angle_alpha	89.964881
_cell_angle_beta	89.979062
_cell_angle_gamma	90.023993
loop_
_atom_site_label
_atom_site_type_symbol
_atom_site_fract_x
_atom_site_fract_y
_atom_site_fract_z
Zn1	Zn	1.606210	-0.320930	-0.593986
Zn2	Zn	1.606077	-0.455784	-0.418292
Zn3	Zn	1.430508	-0.320973	-0.418322
Zn4	Zn	1.430476	-0.455728	-0.593930
O5	O	1.518318	-0.388354	-0.506132
O6	O	1.753213	-0.338824	-0.570692
O7	O	1.582745	-0.437943	-0.271275
O8	O	1.453884	-0.208135	-0.441660
O9	O	1.753116	-0.437901	-0.441610
O10	O	1.582971	-0.208103	-0.570720
O11	O	1.453756	-0.338897	-0.271297
O12	O	1.283483	-0.338843	-0.441605
O13	O	1.453830	-0.437805	-0.740958
O14	O	1.283460	-0.437847	-0.570623
O15	O	1.582940	-0.338770	-0.741000
O16	O	1.582714	-0.568609	-0.441555
O17	O	1.453701	-0.568568	-0.570595
C18	C	1.245350	-0.388344	-0.506112
C19	C	1.128574	-0.388359	-0.506128
C20	C	1.073727	-0.439989	-0.573202
C21	C	0.964003	-0.439992	-0.573223
C22	C	0.963982	-0.336733	-0.439086
C23	C	1.073704	-0.336726	-0.439071
C24	C	0.814102	-0.468924	-0.697080
C25	C	0.759252	-0.520566	-0.764145
C26	C	0.794835	-0.599254	-0.780084
C27	C	0.885268	-0.626316	-0.728944
C28	C	0.940113	-0.574678	-0.661871
C29	C	0.904530	-0.495979	-0.645952
C30	C	1.223607	-0.307803	-0.315212
C31	C	1.278454	-0.256168	-0.248134
C32	C	1.242872	-0.177479	-0.232183
C33	C	1.152436	-0.150420	-0.283306
C34	C	1.097590	-0.202055	-0.350384
C35	C	1.133179	-0.280743	-0.366336
C36	C	1.518218	-0.597844	-0.506088
C37	C	1.518272	-0.687466	-0.506105
C38	C	1.518455	-1.015641	-0.506214
C39	C	1.518401	-0.924333	-0.506187
C40	C	1.518363	-0.851556	-0.506159
C41	C	1.518310	-0.760242	-0.506132
C42	C	1.792351	-0.388364	-0.506154
C43	C	1.909128	-0.388369	-0.506163
C44	C	1.518396	-0.388276	-0.780166
C45	C	1.518430	-0.388243	-0.896943
C46	C	1.518446	-0.178045	-0.506200
C47	C	1.518501	-0.088424	-0.506228
C48	C	1.585663	-0.336667	-0.951828
C49	C	1.585681	-0.336632	-1.061552
C50	C	1.451230	-0.439757	-1.061496
C51	C	1.451208	-0.439787	-0.951774
C52	C	1.623309	-0.241501	-1.211540
C53	C	1.690559	-0.189932	-1.266429
C54	C	1.793074	-0.177568	-1.230839
C55	C	1.828360	-0.216784	-1.140362
C56	C	1.761117	-0.268359	-1.085478
C57	C	1.658587	-0.280708	-1.121067
C58	C	1.413589	-0.534919	-0.801784
C59	C	1.346350	-0.586499	-0.746898
C60	C	1.243834	-0.598871	-0.782486
C61	C	1.208551	-0.559669	-0.872967
C62	C	1.275790	-0.508089	-0.927853
C63	C	1.378306	-0.495716	-0.892257
C64	C	1.518300	-0.388372	-0.233165
C65	C	1.518470	-0.388178	-0.116389
H66	H	1.013740	-0.596711	-0.620233
H67	H	1.247054	-0.476169	-1.001527
H68	H	1.911842	-0.206719	-1.111397
H69	H	1.252593	-0.371876	-0.328203
O70	O	0.779688	-0.392429	-0.681713
C71	C	0.857956	-0.337681	-0.713416
H72	H	0.912336	-0.368071	-0.772195
H73	H	0.905083	-0.317660	-0.642155
C74	C	0.739543	-0.226545	-0.692714
C75	C	0.806328	-0.263868	-0.764915
H76	H	0.707698	-0.181011	-0.724477
H77	H	0.686813	-0.263429	-0.671351
H78	H	0.778826	-0.209868	-0.633335
H79	H	0.767043	-0.280553	-0.824285
H80	H	0.859050	-0.226985	-0.786289
H81	H	1.640397	-0.294695	-0.907188
H82	H	1.847828	-0.135579	-1.275538
O83	O	1.118034	-0.073945	-0.267736
C84	C	1.185821	-0.034179	-0.197551
H85	H	1.265850	-0.064626	-0.198670
H86	H	1.151808	-0.037146	-0.115004
C87	C	1.099413	0.091791	-0.229508
C88	C	1.197709	0.054399	-0.230889
H89	H	1.106744	0.146431	-0.250068
H90	H	1.053741	0.065000	-0.276790
H91	H	1.071080	0.089310	-0.160716
H92	H	1.226035	0.056871	-0.299682
H93	H	1.243386	0.081193	-0.183619
O94	O	1.178639	-0.648980	-0.729024
C95	C	1.231769	-0.680956	-0.641553
H96	H	1.299167	-0.639364	-0.619114
H97	H	1.264030	-0.742934	-0.661970
C98	C	1.072405	-0.739429	-0.576295
C99	C	1.155178	-0.688342	-0.548730
H100	H	1.025161	-0.743989	-0.519039
H101	H	1.036611	-0.717889	-0.635228
H102	H	1.099303	-0.791073	-0.593310
H103	H	1.128282	-0.636697	-0.531729
H104	H	1.190967	-0.709873	-0.489792
O105	O	1.386037	-0.489801	-1.114923
C106	C	1.400455	-0.478703	-1.223537
H107	H	1.481555	-0.452298	-1.238545
H108	H	1.338172	-0.435753	-1.254679
C109	C	1.291176	-0.592702	-1.261407
C110	C	1.390789	-0.560276	-1.279840
H111	H	1.285209	-0.643019	-1.296139
H112	H	1.281459	-0.600178	-1.188232
H113	H	1.239285	-0.556902	-1.287359
H114	H	1.442677	-0.596071	-1.253877
H115	H	1.400514	-0.552809	-1.353012
H116	H	1.118399	-0.482029	-0.627806
H117	H	1.539831	-0.251557	-1.240521
H118	H	1.125075	-0.569746	-0.901947
H119	H	0.914226	-0.690395	-0.741919
H120	H	0.750169	-0.641302	-0.834692
H121	H	0.685622	-0.498525	-0.805785
H122	H	0.919294	-0.294697	-0.384490
H123	H	1.023957	-0.180014	-0.392018
H124	H	1.375091	-0.618427	-0.673231
O125	O	1.296297	-0.127415	-0.167016
C126	C	1.383726	-0.168175	-0.125278
H127	H	1.406194	-0.219931	-0.179360
H128	H	1.363241	-0.192889	-0.044459
C129	C	1.448953	-0.045835	-0.049377
C130	C	1.476555	-0.109399	-0.115806
H131	H	1.506213	-0.009579	-0.043529
H132	H	1.390048	-0.018374	-0.077493
H133	H	1.431881	-0.066440	0.017965
H134	H	1.493612	-0.088794	-0.183150
H135	H	1.535464	-0.136855	-0.087701
H136	H	1.497065	-0.524843	-0.772793
H137	H	1.661819	-0.158002	-1.340096
H138	H	1.352091	-0.278207	-0.206507
H139	H	1.789848	-0.300292	-1.011816
