data_functionalizedCrystal
_audit_creation_method	'MofGen! by Chris Wilmer'
_symmetry_space_group_name_H-M	'P1'
_symmetry_Int_Tables_number	1
_symmetry_cell_setting	triclinic
loop_
_symmetry_equiv_pos_as_xyz
  x,y,z
_cell_length_a	19.121063
_cell_length_b	19.121102
_cell_length_c	19.120904
_cell_angle_alpha	90.088173
_cell_angle_beta	85.258387
_cell_angle_gamma	89.873098
loop_
_atom_site_label
_atom_site_type_symbol
_atom_site_fract_x
_atom_site_fract_y
_atom_site_fract_z
Zn1	Zn	-0.343506	-1.039579	0.456040
Zn2	Zn	0.156494	-0.539579	0.956040
Zn3	Zn	-0.456149	-1.039493	0.343386
Zn4	Zn	0.043851	-0.539493	0.843386
Zn5	Zn	-0.333518	-0.927792	0.333417
Zn6	Zn	0.166482	-0.427792	0.833417
Zn7	Zn	-0.455677	-0.917325	0.455570
Zn8	Zn	0.044323	-0.417325	0.955570
O9	O	-0.397212	-0.981047	0.397103
O10	O	0.102788	-0.481047	0.897103
O11	O	-0.362826	-1.137479	0.445465
O12	O	0.137174	-0.637479	0.945465
O13	O	-0.435899	-1.029020	0.243797
O14	O	0.064101	-0.529020	0.743797
O15	O	-0.236577	-0.947038	0.345708
O16	O	0.263423	-0.447038	0.845708
O17	O	-0.445584	-1.137415	0.362699
O18	O	0.054416	-0.637415	0.862699
O19	O	-0.243915	-1.029167	0.435798
O20	O	0.256085	-0.529167	0.935798
O21	O	-0.345802	-0.946954	0.236473
O22	O	0.154198	-0.446954	0.736473
O23	O	-0.345345	-0.828493	0.345252
O24	O	0.154655	-0.328493	0.845252
O25	O	-0.444780	-0.929198	0.553899
O26	O	0.055220	-0.429198	1.053899
O27	O	-0.435094	-0.820803	0.434997
O28	O	0.064906	-0.320803	0.934997
O29	O	-0.362368	-1.019018	0.554244
O30	O	0.137632	-0.519018	1.054244
O31	O	-0.554352	-1.018870	0.362243
O32	O	-0.054352	-0.518870	0.862243
O33	O	-0.554005	-0.929114	0.444664
O34	O	-0.054005	-0.429114	0.944664
C35	C	-0.389085	-0.799261	0.388992
C36	C	0.110915	-0.299261	0.888992
C37	C	-0.385626	-0.721490	0.385539
C38	C	0.114374	-0.221490	0.885539
C39	C	-0.579659	-0.972865	0.404501
C40	C	-0.079659	-0.472865	0.904501
C41	C	-0.657714	-0.969428	0.407691
C42	C	-0.157714	-0.469428	0.907691
C43	C	-0.404635	-0.972950	0.580263
C44	C	0.095365	-0.472950	1.080263
C45	C	-0.407799	-0.969500	0.658315
C46	C	0.092201	-0.469500	1.158315
C47	C	-0.694545	-1.014577	0.366317
C48	C	-0.194545	-0.514577	0.866317
C49	C	-0.767887	-1.011348	0.369323
C50	C	-0.267887	-0.511348	0.869323
C51	C	-0.804396	-0.962966	0.413699
C52	C	-0.304396	-0.462966	0.913699
C53	C	-0.767560	-0.917815	0.455078
C54	C	-0.267560	-0.417815	0.955078
C55	C	-0.694220	-0.921048	0.452076
C56	C	-0.194220	-0.421048	0.952076
C57	C	-1.025828	-0.950869	0.424912
C58	C	-0.525828	-0.450869	0.924912
C59	C	-1.099173	-0.947638	0.427909
C60	C	-0.599173	-0.447638	0.927909
C61	C	-1.099494	-1.041173	0.342155
C62	C	-0.599494	-0.541173	0.842155
C63	C	-1.026153	-1.044399	0.339154
C64	C	-0.526153	-0.544399	0.839154
C65	C	-0.989323	-0.999250	0.380535
C66	C	-0.489323	-0.499250	0.880535
C67	C	-0.879363	-0.959663	0.416770
C68	C	-0.379363	-0.459663	0.916770
C69	C	-0.914358	-1.002557	0.377467
C70	C	-0.414358	-0.502557	0.877467
C71	C	-0.214054	-0.989280	0.389693
C72	C	0.285946	-0.489280	0.889693
C73	C	-0.136003	-0.992788	0.386535
C74	C	0.363997	-0.492788	0.886535
C75	C	-0.405372	-1.163544	0.405246
C76	C	0.094628	-0.663544	0.905246
C77	C	-0.408849	-1.241313	0.408717
C78	C	0.091151	-0.741313	0.908717
C79	C	-0.430793	-0.680968	0.430575
C80	C	0.069207	-0.180968	0.930575
C81	C	-0.427534	-0.607894	0.427334
C82	C	0.072466	-0.107894	0.927334
C83	C	-0.379110	-0.575344	0.379053
C84	C	0.120890	-0.075344	0.879053
C85	C	-0.333937	-0.615872	0.334016
C86	C	0.166063	-0.115872	0.834016
C87	C	-0.337194	-0.688944	0.337261
C88	C	0.162806	-0.188944	0.837261
C89	C	-0.366933	-0.354913	0.366924
C90	C	0.133067	0.145087	0.866924
C91	C	-0.363681	-0.281835	0.363681
C92	C	0.136319	0.218165	0.863681
C93	C	-0.457277	-0.273863	0.457000
C94	C	0.042723	0.226137	0.957000
C95	C	-0.460532	-0.346937	0.460238
C96	C	0.039468	0.153063	0.960238
C97	C	-0.415357	-0.387458	0.415203
C98	C	0.084643	0.112542	0.915203
C99	C	-0.375778	-0.500651	0.375738
C100	C	0.124222	-0.000651	0.875738
C101	C	-0.418686	-0.462149	0.418523
C102	C	0.081314	0.037851	0.918523
C103	C	-0.389769	-0.989156	0.214655
C104	C	0.110231	-0.489156	0.714655
C105	C	-0.386414	-0.992751	0.136602
C106	C	0.113586	-0.492751	0.636602
C107	C	-0.366379	-1.014640	0.695165
C108	C	0.133621	-0.514640	1.195165
C109	C	-0.369348	-1.011390	0.768503
C110	C	0.130652	-0.511390	1.268503
C111	C	-0.413741	-0.963001	0.804990
C112	C	0.086259	-0.463001	1.304990
C113	C	-0.455162	-0.917856	0.768135
C114	C	0.044838	-0.417856	1.268135
C115	C	-0.452188	-0.921103	0.694798
C116	C	0.047812	-0.421103	1.194798
C117	C	-0.424862	-0.950853	1.026410
C118	C	0.075138	-0.450853	1.526410
C119	C	-0.427833	-0.947610	1.099752
C120	C	0.072167	-0.447610	1.599752
C121	C	-0.342019	-1.041143	1.100115
C122	C	0.157981	-0.541143	1.600115
C123	C	-0.339052	-1.044390	1.026777
C124	C	0.160948	-0.544390	1.526777
C125	C	-0.380470	-0.999242	0.989928
C126	C	0.119530	-0.499242	1.489928
C127	C	-0.416779	-0.959679	0.879953
C128	C	0.083221	-0.459679	1.379953
C129	C	-0.377429	-1.002561	0.914966
C130	C	0.122571	-0.502561	1.414966
H131	H	-0.664824	-1.053972	0.330178
H132	H	-0.164824	-0.553972	0.830178
H133	H	-0.499966	-0.373433	0.499552
H134	H	0.000034	0.126567	0.999552
H135	H	-0.797292	-0.878424	0.491213
H136	H	-0.297292	-0.378424	0.991213
H137	H	-0.995847	-0.914106	0.458605
H138	H	-0.495847	-0.414106	0.958605
C139	C	-0.653702	-0.871381	0.497585
C140	C	-0.153702	-0.371381	0.997585
C141	C	-0.660065	-0.791653	0.488656
C142	C	-0.160065	-0.291653	0.988656
C143	C	-0.619547	-0.741987	0.534169
C144	C	-0.119547	-0.241987	1.034169
C145	C	-0.572667	-0.772048	0.588610
C146	C	-0.072667	-0.272048	1.088610
C147	C	-0.566303	-0.851780	0.597542
C148	C	-0.066303	-0.351780	1.097542
C149	C	-0.606820	-0.901446	0.552029
C150	C	-0.106820	-0.401446	1.052029
H151	H	-0.694770	-0.769397	0.448353
H152	H	-0.194770	-0.269397	0.948353
H153	H	-0.624259	-0.682965	0.527557
H154	H	-0.124259	-0.182965	1.027557
H155	H	-0.542674	-0.735283	0.622302
H156	H	-0.042674	-0.235283	1.122302
H157	H	-0.531597	-0.874037	0.637845
H158	H	-0.031597	-0.374037	1.137845
H159	H	-0.602108	-0.960469	0.558641
H160	H	-0.102108	-0.460469	1.058641
H161	H	-1.129489	-1.077932	0.308466
H162	H	-0.629489	-0.577932	0.808466
C163	C	-0.477223	-0.563317	0.476868
C164	C	0.022777	-0.063317	0.976868
C165	C	-0.446884	-0.512013	0.528592
C166	C	0.053116	-0.012013	1.028592
C167	C	-0.496575	-0.467434	0.578127
C168	C	0.003425	0.032566	1.078127
C169	C	-0.576604	-0.474159	0.575938
C170	C	-0.076604	0.025841	1.075938
C171	C	-0.606947	-0.525464	0.524211
C172	C	-0.106947	-0.025464	1.024211
C173	C	-0.557256	-0.570043	0.474676
C174	C	-0.057256	-0.070043	0.974676
H175	H	-0.387638	-0.507034	0.530215
H176	H	0.112362	-0.007034	1.030215
H177	H	-0.474113	-0.429455	0.616419
H178	H	0.025887	0.070545	1.116419
H179	H	-0.613388	-0.441159	0.612606
H180	H	-0.113388	0.058841	1.112606
H181	H	-0.666193	-0.530444	0.522588
H182	H	-0.166193	-0.030444	1.022588
H183	H	-0.579718	-0.608023	0.436384
H184	H	-0.079718	-0.108023	0.936384
H185	H	-0.341281	-1.041956	0.885255
H186	H	0.158719	-0.541956	1.385255
H187	H	-1.128897	-0.908248	0.464059
H188	H	-0.628897	-0.408248	0.964059
H189	H	-0.300410	-0.721937	0.300591
H190	H	0.199590	-0.221937	0.800591
C191	C	-0.874200	-1.055776	0.328654
C192	C	-0.374200	-0.555776	0.828654
C193	C	-0.820241	-1.030153	0.270091
C194	C	-0.320241	-0.530153	0.770091
C195	C	-0.780075	-1.083369	0.221276
C196	C	-0.280075	-0.583369	0.721276
C197	C	-0.793869	-1.162210	0.231024
C198	C	-0.293869	-0.662210	0.731024
C199	C	-0.847831	-1.187837	0.289589
C200	C	-0.347831	-0.687837	0.789589
C201	C	-0.887997	-1.134620	0.338404
C202	C	-0.387997	-0.634620	0.838404
H203	H	-0.810028	-0.971787	0.262873
H204	H	-0.310028	-0.471787	0.762873
H205	H	-0.740129	-1.064398	0.177922
H206	H	-0.240129	-0.564398	0.677922
H207	H	-0.764136	-1.201604	0.194888
H208	H	-0.264136	-0.701604	0.694888
H209	H	-0.858044	-1.246202	0.296807
H210	H	-0.358044	-0.746202	0.796807
H211	H	-0.927943	-1.153591	0.381758
H212	H	-0.427943	-0.653591	0.881758
H213	H	-0.308298	-1.077899	1.130125
H214	H	0.191702	-0.577899	1.630125
H215	H	-0.996429	-1.083795	0.303019
H216	H	-0.496429	-0.583795	0.803019
H217	H	-0.324240	-0.255336	0.324369
H218	H	0.175760	0.244664	0.824369
C219	C	-0.322517	-0.464839	0.322628
C220	C	0.177483	0.035161	0.822628
C221	C	-0.266438	-0.415726	0.348691
C222	C	0.233562	0.084274	0.848691
C223	C	-0.213176	-0.379909	0.295585
C224	C	0.286824	0.120091	0.795585
C225	C	-0.215993	-0.393204	0.216417
C226	C	0.284007	0.106796	0.716417
C227	C	-0.272074	-0.442319	0.190350
C228	C	0.227926	0.057681	0.690350
C229	C	-0.325336	-0.478136	0.243456
C230	C	0.174664	0.021864	0.743456
H231	H	-0.264351	-0.405882	0.407300
H232	H	0.235649	0.094118	0.907300
H233	H	-0.171661	-0.343551	0.314882
H234	H	0.328339	0.156449	0.814882
H235	H	-0.176565	-0.366690	0.177104
H236	H	0.323435	0.133310	0.677104
H237	H	-0.274161	-0.452163	0.131741
H238	H	0.225839	0.047837	0.631741
H239	H	-0.366851	-0.514495	0.224160
H240	H	0.133149	-0.014495	0.724160
H241	H	-0.470228	-0.707464	0.469888
H242	H	0.029772	-0.207464	0.969888
H243	H	-0.909097	-0.920269	0.452900
H244	H	-0.409097	-0.420269	0.952900
C245	C	-0.317546	-1.067869	0.655033
C246	C	0.182454	-0.567869	1.155033
C247	C	-0.237871	-1.065298	0.661632
C248	C	0.262129	-0.565298	1.161632
C249	C	-0.189034	-1.118526	0.621502
C250	C	0.310966	-0.618526	1.121502
C251	C	-0.219873	-1.174326	0.574772
C252	C	0.280127	-0.674326	1.074772
C253	C	-0.299552	-1.176898	0.568171
C254	C	0.200448	-0.676898	1.068171
C255	C	-0.348388	-1.123670	0.608301
C256	C	0.151612	-0.623670	1.108301
H257	H	-0.215039	-1.023990	0.696226
H258	H	0.284961	-0.523990	1.196226
H259	H	-0.130051	-1.116621	0.626389
H260	H	0.369949	-0.616621	1.126389
H261	H	-0.183721	-1.213728	0.545065
H262	H	0.316279	-0.713728	1.045065
H263	H	-0.322384	-1.218206	0.533577
H264	H	0.177616	-0.718206	1.033577
H265	H	-0.407372	-1.125575	0.603414
H266	H	0.092628	-0.625575	1.103414
H267	H	-0.494055	-0.240863	0.493666
H268	H	0.005945	0.259137	0.993666
H269	H	-0.452927	-0.920284	0.909669
H270	H	0.047073	-0.420284	1.409669
H271	H	-0.330153	-0.387897	0.330248
H272	H	0.169847	0.112103	0.830248
H273	H	-0.458598	-0.914100	0.996417
H274	H	0.041402	-0.414100	1.496417
H275	H	-0.294506	-0.589364	0.294708
H276	H	0.205494	-0.089364	0.794708
H277	H	-0.797871	-1.048113	0.335631
H278	H	-0.297871	-0.548113	0.835631
H279	H	-0.458110	-0.488655	0.457836
H280	H	0.041890	0.011345	0.957836
C281	C	-0.504005	-0.864633	0.808263
C282	C	-0.004005	-0.364633	1.308263
C283	C	-0.494321	-0.785795	0.794396
C284	C	0.005679	-0.285795	1.294396
C285	C	-0.543173	-0.732575	0.834520
C286	C	-0.043173	-0.232575	1.334520
C287	C	-0.601709	-0.758193	0.888510
C288	C	-0.101709	-0.258193	1.388510
C289	C	-0.611395	-0.837034	0.902379
C290	C	-0.111395	-0.337034	1.402379
C291	C	-0.562543	-0.890254	0.862256
C292	C	-0.062543	-0.390254	1.362256
H293	H	-0.450988	-0.766827	0.754427
H294	H	0.049012	-0.266827	1.254427
H295	H	-0.536002	-0.674211	0.824253
H296	H	-0.036002	-0.174211	1.324253
H297	H	-0.637871	-0.718796	0.918212
H298	H	-0.137871	-0.218796	1.418212
H299	H	-0.654729	-0.856002	0.942349
H300	H	-0.154729	-0.356002	1.442349
H301	H	-0.569714	-0.948618	0.872523
H302	H	-0.069714	-0.448618	1.372523
C303	C	-0.323785	-1.061047	0.809035
C304	C	0.176215	-0.561047	1.309035
C305	C	-0.332666	-1.140776	0.802739
C306	C	0.167334	-0.640776	1.302739
C307	C	-0.287098	-1.190434	0.843268
C308	C	0.212902	-0.690434	1.343268
C309	C	-0.232647	-1.160364	0.890093
C310	C	0.267353	-0.660364	1.390093
C311	C	-0.223763	-1.080632	0.896391
C312	C	0.276237	-0.580632	1.396391
C313	C	-0.269332	-1.030973	0.855862
C314	C	0.230668	-0.530973	1.355862
H315	H	-0.372976	-1.163039	0.768074
H316	H	0.127024	-0.663039	1.268074
H317	H	-0.293675	-1.249458	0.838606
H318	H	0.206325	-0.749458	1.338606
H319	H	-0.198915	-1.197125	0.920096
H320	H	0.301085	-0.697125	1.420096
H321	H	-0.183454	-1.058368	0.931056
H322	H	0.316546	-0.558368	1.431056
H323	H	-0.262755	-0.971949	0.860524
H324	H	0.237245	-0.471949	1.360524
H325	H	-0.302905	-1.083794	0.997075
H326	H	0.197095	-0.583794	1.497075
H327	H	-0.463985	-0.908204	1.129457
H328	H	0.036015	-0.408204	1.629457
H329	H	-0.485909	-0.884338	0.664795
H330	H	0.014091	-0.384338	1.164795
