data_functionalizedCrystal
_audit_creation_method	'MofGen! by Chris Wilmer'
_symmetry_space_group_name_H-M	'P1'
_symmetry_Int_Tables_number	1
_symmetry_cell_setting	triclinic
loop_
_symmetry_equiv_pos_as_xyz
  x,y,z
_cell_length_a	15.944551
_cell_length_b	9.065218
_cell_length_c	8.140239
_cell_angle_alpha	89.996101
_cell_angle_beta	89.995530
_cell_angle_gamma	84.257312
loop_
_atom_site_label
_atom_site_type_symbol
_atom_site_fract_x
_atom_site_fract_y
_atom_site_fract_z
O1	O	0.123161	1.957519	-0.136664
O2	O	0.133263	1.527998	-0.136657
O3	O	0.006026	1.754488	-0.136646
O4	O	0.250398	1.731029	-0.136675
O5	O	0.006024	1.754475	0.136581
O6	O	0.133261	1.527986	0.136570
O7	O	0.123159	1.957507	0.136563
Zn8	Zn	0.128210	1.742744	0.179947
Zn9	Zn	0.128212	1.742761	-0.180041
O10	O	0.250396	1.731017	0.136552
C11	C	-0.025276	1.753508	-0.000032
C12	C	-0.118544	1.750588	-0.000031
C13	C	0.124131	2.012477	-0.000055
C14	C	0.127034	2.176252	-0.000068
C15	C	0.132291	1.473028	-0.000043
C16	C	0.129388	1.309253	-0.000040
C17	C	-0.334518	1.603221	-0.000051
C18	C	-0.395017	1.671647	0.134665
C19	C	-0.289310	1.745306	-0.000044
C20	C	-0.394999	1.671693	-0.134715
C21	C	-0.454262	1.740194	-0.000063
C22	C	-0.348581	1.813772	0.134784
C23	C	-0.348557	1.813798	-0.134717
C24	C	-0.409038	1.882328	0.000032
C25	C	-0.194286	1.748247	-0.000031
C26	C	-0.549285	1.737264	-0.000063
C27	C	0.281698	1.731997	-0.000065
C28	C	0.374966	1.734917	-0.000077
N29	N	0.128208	1.742744	0.425630
N30	N	0.128207	1.742773	-0.425724
H31	H	-0.302103	1.485283	0.000085
H32	H	-0.328137	1.873813	0.248801
C33	C	-0.320965	1.893636	-0.286638
C34	C	-0.264968	1.797195	-0.378163
C35	C	-0.239521	1.870682	-0.518125
H36	H	-0.368890	1.924956	-0.351773
H37	H	-0.293746	1.977578	-0.254353
H38	H	-0.292187	1.713279	-0.410450
H39	H	-0.217030	1.765869	-0.313077
H40	H	-0.212302	1.954624	-0.485840
H41	H	-0.287451	1.902000	-0.583245
H42	H	-0.201519	1.805262	-0.580233
C43	C	-0.422551	1.591350	0.286327
C44	C	-0.463932	1.469260	0.238149
C45	C	-0.489313	1.395257	0.377807
H46	H	-0.374494	1.558285	0.350307
H47	H	-0.459770	1.657036	0.349755
H48	H	-0.426715	1.403585	0.174749
H49	H	-0.511999	1.502283	0.174189
H50	H	-0.526533	1.460943	0.441235
H51	H	-0.441252	1.362202	0.441777
H52	H	-0.517400	1.312419	0.345138
C53	C	-0.452024	2.039746	0.000462
C54	C	-0.428481	2.113424	0.141761
C55	C	-0.468073	2.258429	0.142233
H56	H	-0.435445	2.090777	-0.094218
H57	H	-0.511438	2.037096	-0.000356
H58	H	-0.369080	2.116082	0.142565
H59	H	-0.445061	2.062438	0.236465
H60	H	-0.527487	2.255779	0.141415
H61	H	-0.451491	2.309446	0.047547
H62	H	-0.452111	2.308434	0.238109
C63	C	-0.422258	1.591312	-0.286522
C64	C	-0.384171	1.445283	-0.285884
C65	C	-0.409249	1.371188	-0.425704
H66	H	-0.481793	1.590659	-0.286103
H67	H	-0.405552	1.640754	-0.382229
H68	H	-0.400882	1.395854	-0.190202
H69	H	-0.324636	1.445891	-0.286327
H70	H	-0.392543	1.420629	-0.521412
H71	H	-0.468784	1.370546	-0.425273
H72	H	-0.383405	1.272104	-0.425298
