data_functionalizedCrystal
_audit_creation_method	'MofGen! by Chris Wilmer'
_symmetry_space_group_name_H-M	'P1'
_symmetry_Int_Tables_number	1
_symmetry_cell_setting	triclinic
loop_
_symmetry_equiv_pos_as_xyz
  x,y,z
_cell_length_a	18.215407
_cell_length_b	16.959454
_cell_length_c	18.215399
_cell_angle_alpha	90.023696
_cell_angle_beta	90.019833
_cell_angle_gamma	90.020523
loop_
_atom_site_label
_atom_site_type_symbol
_atom_site_fract_x
_atom_site_fract_y
_atom_site_fract_z
Zn1	Zn	1.125097	-0.314680	0.416138
Zn2	Zn	1.458430	0.018653	0.749471
Zn3	Zn	1.791763	0.351986	1.082804
Zn4	Zn	1.125015	-0.446866	0.293080
Zn5	Zn	1.458349	-0.113532	0.626414
Zn6	Zn	1.791682	0.219801	0.959747
Zn7	Zn	1.002029	-0.314706	0.293085
Zn8	Zn	1.335362	0.018627	0.626418
Zn9	Zn	1.668696	0.351961	0.959752
Zn10	Zn	1.002005	-0.446822	0.416105
Zn11	Zn	1.335339	-0.113488	0.749439
Zn12	Zn	1.668672	0.219845	1.082772
O13	O	1.063537	-0.380768	0.354602
O14	O	1.396870	-0.047435	0.687935
O15	O	1.730203	0.285898	1.021269
O16	O	1.228070	-0.332222	0.399825
O17	O	1.561403	0.001111	0.733159
O18	O	1.894737	0.334444	1.066492
O19	O	1.108677	-0.429364	0.190097
O20	O	1.442010	-0.096030	0.523430
O21	O	1.775344	0.237303	0.856763
O22	O	1.018398	-0.204092	0.309424
O23	O	1.351732	0.129242	0.642757
O24	O	1.685065	0.462575	0.976090
O25	O	1.228010	-0.429339	0.309416
O26	O	1.561344	-0.096005	0.642749
O27	O	1.894677	0.237328	0.976083
O28	O	1.108815	-0.204073	0.399830
O29	O	1.442149	0.129261	0.733163
O30	O	1.775482	0.462594	1.066496
O31	O	1.018319	-0.332267	0.190100
O32	O	1.351653	0.001067	0.523433
O33	O	1.684986	0.334400	0.856767
O34	O	0.899042	-0.332224	0.309392
O35	O	1.232375	0.001109	0.642726
O36	O	1.565708	0.334443	0.976059
O37	O	1.018358	-0.429264	0.519094
O38	O	1.351691	-0.095930	0.852427
O39	O	1.685024	0.237403	1.185761
O40	O	0.899024	-0.429289	0.399775
O41	O	1.232358	-0.095955	0.733108
O42	O	1.565691	0.237378	1.066442
O43	O	1.108792	-0.332180	0.519118
O44	O	1.442126	0.001154	0.852451
O45	O	1.775459	0.334487	1.185784
O46	O	1.108654	-0.557471	0.309385
O47	O	1.441987	-0.224137	0.642718
O48	O	1.775320	0.109196	0.976051
O49	O	1.018279	-0.557438	0.399770
O50	O	1.351612	-0.224105	0.733104
O51	O	1.684946	0.109228	1.066437
C52	C	0.872330	-0.380755	0.354581
C53	C	1.205664	-0.047422	0.687914
C54	C	1.538997	0.285912	1.021248
C55	C	0.790531	-0.380768	0.354589
C56	C	1.123865	-0.047435	0.687923
C57	C	1.457198	0.285899	1.021256
C58	C	1.063475	-0.586135	0.354590
C59	C	1.396808	-0.252801	0.687923
C60	C	1.730142	0.080532	1.021256
C61	C	1.063516	-0.673991	0.354609
C62	C	1.396849	-0.340658	0.687942
C63	C	1.730183	-0.007325	1.021276
C64	C	0.602348	-0.431389	0.401593
C65	C	0.935681	-0.098056	0.734926
C66	C	1.269014	0.235277	1.068259
C67	C	0.525489	-0.431392	0.401602
C68	C	0.858822	-0.098058	0.734935
C69	C	1.192156	0.235275	1.068268
C70	C	0.525478	-0.330162	0.307628
C71	C	0.858811	0.003171	0.640961
C72	C	1.192144	0.336505	0.974294
C73	C	0.602335	-0.330156	0.307623
C74	C	0.935668	0.003177	0.640956
C75	C	1.269002	0.336511	0.974289
C76	C	0.640768	-0.380774	0.354604
C77	C	0.974101	-0.047441	0.687937
C78	C	1.307435	0.285893	1.021271
C79	C	0.487052	-0.380782	0.354618
C80	C	0.820385	-0.047449	0.687952
C81	C	1.153719	0.285884	1.021285
C82	C	0.403718	-0.380785	0.354628
C83	C	0.737052	-0.047451	0.687961
C84	C	1.070385	0.285882	1.021294
C85	C	0.724107	-0.380771	0.354596
C86	C	1.057440	-0.047438	0.687929
C87	C	1.390774	0.285896	1.021262
C88	C	1.016547	-1.045480	0.401661
C89	C	1.349880	-0.712147	0.734994
C90	C	1.683213	-0.378813	1.068328
C91	C	1.110731	-1.045454	0.307618
C92	C	1.444065	-0.712120	0.640952
C93	C	1.777398	-0.378787	0.974285
C94	C	1.110706	-0.962908	0.307611
C95	C	1.444039	-0.629574	0.640945
C96	C	1.777372	-0.296241	0.974278
C97	C	1.063599	-0.921644	0.354629
C98	C	1.396932	-0.588311	0.687963
C99	C	1.730266	-0.254977	1.021296
C100	C	1.016518	-0.962926	0.401654
C101	C	1.349851	-0.629593	0.734987
C102	C	1.683185	-0.296260	1.068321
C103	C	1.157781	-0.921619	0.260582
C104	C	1.491114	-0.588286	0.593916
C105	C	1.824447	-0.254953	0.927249
C106	C	1.157756	-0.839068	0.260573
C107	C	1.491090	-0.505735	0.593906
C108	C	1.824423	-0.172402	0.927240
C109	C	1.110653	-0.797803	0.307595
C110	C	1.443986	-0.464470	0.640929
C111	C	1.777319	-0.131137	0.974262
C112	C	1.063570	-0.839091	0.354622
C113	C	1.396904	-0.505757	0.687956
C114	C	1.730237	-0.172424	1.021289
C115	C	1.016464	-0.797827	0.401640
C116	C	1.349797	-0.464494	0.734974
C117	C	1.683130	-0.131160	1.068307
C118	C	0.969384	-0.839113	0.448672
C119	C	1.302718	-0.505779	0.782005
C120	C	1.636051	-0.172446	1.115339
C121	C	0.969414	-0.921661	0.448676
C122	C	1.302748	-0.588328	0.782010
C123	C	1.636081	-0.254995	1.115343
C124	C	1.110623	-0.715255	0.307591
C125	C	1.443956	-0.381922	0.640924
C126	C	1.777289	-0.048588	0.974258
C127	C	1.016435	-0.715273	0.401634
C128	C	1.349768	-0.381940	0.734967
C129	C	1.683101	-0.048607	1.068300
C130	C	1.255489	-0.380783	0.354624
C131	C	1.588823	-0.047449	0.687957
C132	C	1.922156	0.285884	1.021290
C133	C	1.337288	-0.380789	0.354633
C134	C	1.670622	-0.047455	0.687966
C135	C	2.003955	0.285878	1.021300
C136	C	1.063581	-0.380714	0.546555
C137	C	1.396915	-0.047381	0.879888
C138	C	1.730248	0.285953	1.213222
C139	C	1.063601	-0.380691	0.628354
C140	C	1.396934	-0.047357	0.961687
C141	C	1.730267	0.285976	1.295021
C142	C	1.063619	-0.174600	0.354631
C143	C	1.396952	0.158733	0.687964
C144	C	1.730285	0.492067	1.021297
C145	C	1.063653	-0.086744	0.354643
C146	C	1.396987	0.246590	0.687976
C147	C	1.730320	0.579923	1.021310
C148	C	1.063534	-0.380766	0.163396
C149	C	1.396868	-0.047432	0.496729
C150	C	1.730201	0.285901	0.830063
C151	C	1.063658	-0.380566	0.081597
C152	C	1.396991	-0.047233	0.414931
C153	C	1.730324	0.286101	0.748264
C154	C	1.110707	-0.330092	0.816562
C155	C	1.444040	0.003241	1.149895
C156	C	1.777373	0.336575	1.483228
C157	C	1.110716	-0.330069	0.893420
C158	C	1.444049	0.003265	1.226754
C159	C	1.777382	0.336598	1.560087
C160	C	1.016546	-0.431167	0.893384
C161	C	1.349880	-0.097834	1.226718
C162	C	1.683213	0.235499	1.560051
C163	C	1.016534	-0.431186	0.816527
C164	C	1.349868	-0.097852	1.149860
C165	C	1.683201	0.235481	1.483194
C166	C	1.063619	-0.380649	0.778118
C167	C	1.396952	-0.047316	1.111451
C168	C	1.730285	0.286018	1.444784
C169	C	1.063639	-0.380608	0.931834
C170	C	1.396973	-0.047274	1.265167
C171	C	1.730306	0.286059	1.598500
C172	C	1.063649	-0.380583	1.015168
C173	C	1.396982	-0.047250	1.348501
C174	C	1.730315	0.286084	1.681834
C175	C	1.063609	-0.380672	0.694779
C176	C	1.396942	-0.047339	1.028112
C177	C	1.730275	0.285994	1.361445
H178	H	0.633638	-0.472604	0.439850
H179	H	0.966971	-0.139270	0.773183
H180	H	1.300304	0.194063	1.106516
O181	O	1.156386	-0.280981	0.930878
O182	O	1.489719	0.052352	1.264212
O183	O	1.823053	0.385686	1.597545
C184	C	1.146313	-0.291808	1.006951
C185	C	1.479646	0.041525	1.340285
C186	C	1.812979	0.374859	1.673618
H187	H	1.089511	-0.317693	1.017433
H188	H	1.422845	0.015640	1.350766
H189	H	1.756178	0.348974	1.684099
H190	H	1.151326	-0.232591	1.036168
H191	H	1.484660	0.100742	1.369502
H192	H	1.817993	0.434075	1.702835
H193	H	1.189954	-0.333892	1.028768
H194	H	1.523287	-0.000559	1.362102
H195	H	1.856620	0.332774	1.695435
H196	H	0.931026	-0.805506	0.486951
H197	H	1.264360	-0.472173	0.820284
H198	H	1.597693	-0.138840	1.153618
H199	H	0.494211	-0.472606	0.439866
H200	H	0.827544	-0.139273	0.773199
H201	H	1.160877	0.194060	1.106532
H202	H	0.978214	-0.472314	0.924667
H203	H	1.311547	-0.138981	1.258000
H204	H	1.644880	0.194353	1.591333
O205	O	0.970894	-0.480340	0.779096
O206	O	1.304227	-0.147007	1.112430
O207	O	1.637560	0.186327	1.445763
C208	C	1.012769	-0.531415	0.734650
C209	C	1.346103	-0.198082	1.067984
C210	C	1.679436	0.135252	1.401317
H211	H	1.068550	-0.503542	0.723156
H212	H	1.401883	-0.170209	1.056489
H213	H	1.735216	0.163125	1.389822
H214	H	0.982783	-0.542016	0.680595
H215	H	1.316116	-0.208683	1.013928
H216	H	1.649449	0.124651	1.347261
H217	H	1.020837	-0.589987	0.764259
H218	H	1.354170	-0.256653	1.097592
H219	H	1.687503	0.076680	1.430925
O220	O	0.488028	-0.281070	0.262015
O221	O	0.821362	0.052264	0.595348
O222	O	1.154695	0.385597	0.928682
C223	C	0.411953	-0.291913	0.272107
C224	C	0.745286	0.041421	0.605440
C225	C	1.078620	0.374754	0.938774
H226	H	0.401448	-0.352948	0.296112
H227	H	0.734782	-0.019614	0.629445
H228	H	1.068115	0.313719	0.962778
H229	H	0.382721	-0.286475	0.216994
H230	H	0.716055	0.046859	0.550327
H231	H	1.049388	0.380192	0.883660
H232	H	0.390172	-0.245085	0.311375
H233	H	0.723506	0.088248	0.644708
H234	H	1.056839	0.421582	0.978041
H235	H	0.931084	-0.955284	0.486966
H236	H	1.264418	-0.621950	0.820299
H237	H	1.597751	-0.288617	1.153633
H238	H	0.633617	-0.288934	0.269359
H239	H	0.966951	0.044399	0.602692
H240	H	1.300284	0.377732	0.936026
H241	H	0.978077	-0.681682	0.439924
H242	H	1.311411	-0.348348	0.773258
H243	H	1.644744	-0.015015	1.106591
H244	H	0.978218	-1.079098	0.439955
H245	H	1.311551	-0.745765	0.773288
H246	H	1.644885	-0.412432	1.106622
H247	H	1.149079	-1.079055	0.269334
H248	H	1.482413	-0.745722	0.602667
H249	H	1.815746	-0.412389	0.936001
H250	H	1.196127	-0.955222	0.222297
H251	H	1.529460	-0.621889	0.555631
H252	H	1.862794	-0.288556	0.888964
H253	H	1.196091	-0.805459	0.222279
H254	H	1.529424	-0.472125	0.555612
H255	H	1.862758	-0.138792	0.888945
H256	H	1.148950	-0.681644	0.269295
H257	H	1.482284	-0.348310	0.602628
H258	H	1.815617	-0.014977	0.935962
H259	H	1.149044	-0.288940	0.785291
H260	H	1.482377	0.044394	1.118624
H261	H	1.815711	0.377727	1.451958
