data_functionalizedCrystal
_audit_creation_method	'MofGen! by Chris Wilmer'
_symmetry_space_group_name_H-M	'P1'
_symmetry_Int_Tables_number	1
_symmetry_cell_setting	triclinic
loop_
_symmetry_equiv_pos_as_xyz
  x,y,z
_cell_length_a	11.169417
_cell_length_b	18.050589
_cell_length_c	18.050582
_cell_angle_alpha	89.981795
_cell_angle_beta	89.988436
_cell_angle_gamma	90.029099
loop_
_atom_site_label
_atom_site_type_symbol
_atom_site_fract_x
_atom_site_fract_y
_atom_site_fract_z
Zn1	Zn	1.834715	-0.295689	-0.419869
Zn2	Zn	1.834571	-0.419873	-0.295688
Zn3	Zn	1.634030	-0.295703	-0.295700
Zn4	Zn	1.633946	-0.419844	-0.419844
O5	O	1.734316	-0.357777	-0.357775
O6	O	2.002646	-0.312169	-0.403401
O7	O	1.807944	-0.403419	-0.191765
O8	O	1.660747	-0.191776	-0.312187
O9	O	2.002540	-0.403406	-0.312166
O10	O	1.808190	-0.191766	-0.403413
O11	O	1.660607	-0.312192	-0.191774
O12	O	1.466069	-0.312164	-0.312163
O13	O	1.660604	-0.403357	-0.523772
O14	O	1.466008	-0.403370	-0.403370
O15	O	1.808108	-0.312141	-0.523790
O16	O	1.807862	-0.523793	-0.312142
O17	O	1.660464	-0.523772	-0.403359
C18	C	1.422491	-0.357766	-0.357766
C19	C	1.289091	-0.357779	-0.357779
C20	C	1.734171	-0.550729	-0.357763
C21	C	1.734219	-0.633275	-0.357782
C22	C	1.654142	-0.832741	-0.407369
C23	C	1.624895	-0.882175	-0.339602
C24	C	1.734336	-0.784405	-0.357792
C25	C	1.763643	-0.882053	-0.425566
C26	C	1.734448	-0.930390	-0.357807
C27	C	1.705031	-0.832752	-0.289990
C28	C	1.843831	-0.832625	-0.375999
C29	C	1.814625	-0.882037	-0.308186
C30	C	1.734269	-0.700307	-0.357784
C31	C	1.734516	-1.014487	-0.357808
C32	C	2.047358	-0.357789	-0.357785
C33	C	2.180758	-0.357794	-0.357789
C34	C	1.734363	-0.357744	-0.551481
C35	C	1.734383	-0.357730	-0.634027
C36	C	1.734494	-0.164071	-0.357804
C37	C	1.734570	-0.081526	-0.357816
C38	C	1.654231	-0.407266	-0.833467
C39	C	1.763729	-0.425418	-0.882856
C40	C	1.734442	-0.357673	-0.785157
C41	C	1.625005	-0.339500	-0.882850
C42	C	1.734489	-0.357620	-0.931142
C43	C	1.843997	-0.375861	-0.833459
C44	C	1.705199	-0.289912	-0.833448
C45	C	1.814772	-0.308039	-0.882814
C46	C	1.734413	-0.357706	-0.701059
C47	C	1.734531	-0.357587	-1.015239
C48	C	1.734338	-0.357756	-0.164823
C49	C	1.734550	-0.357561	-0.082278
H50	H	1.586225	-0.811095	-0.449235
Br51	Br	1.805007	-0.520889	-0.919029
Br52	Br	1.998330	-0.401560	-0.797455
H53	H	1.882490	-0.903546	-0.266219
H54	H	1.788386	-0.903708	-0.482876
Br55	Br	1.998044	-0.796323	-0.401696
Br56	Br	1.470719	-0.313918	-0.919015
H57	H	1.680404	-0.232647	-0.811729
H58	H	1.586463	-0.449259	-0.811801
Br59	Br	1.927987	-0.238100	-0.918706
Br60	Br	1.663619	-0.796814	-0.194441
Br61	Br	1.470643	-0.918448	-0.313934
