data_functionalizedCrystal
_audit_creation_method	'MofGen! by Chris Wilmer'
_symmetry_space_group_name_H-M	'P1'
_symmetry_Int_Tables_number	1
_symmetry_cell_setting	triclinic
loop_
_symmetry_equiv_pos_as_xyz
  x,y,z
_cell_length_a	23.196402
_cell_length_b	31.640172
_cell_length_c	23.196401
_cell_angle_alpha	90.009695
_cell_angle_beta	59.997774
_cell_angle_gamma	60.002544
loop_
_atom_site_label
_atom_site_type_symbol
_atom_site_fract_x
_atom_site_fract_y
_atom_site_fract_z
Zr1	Zr	0.630919	0.407218	-0.075563
O2	O	0.751208	0.339725	-0.167629
O3	O	0.510650	0.427903	-0.047343
O4	O	0.630932	0.427895	-0.167618
O5	O	0.630910	0.339745	0.047525
O6	O	0.630920	0.497452	-0.167605
O7	O	0.630926	0.339733	-0.047354
O8	O	0.415757	0.497465	0.047545
O9	O	0.846072	0.339732	-0.167626
O10	O	0.560102	0.488641	-0.035294
O11	O	0.560099	0.436741	0.035504
O12	O	0.701716	0.436732	-0.106105
O13	O	0.701712	0.384832	-0.035307
Zr14	Zr	0.630874	0.518174	0.075778
Zr15	Zr	0.630900	0.518154	-0.075543
Zr16	Zr	0.630893	0.407239	0.075758
Zr17	Zr	0.782217	0.407230	-0.075557
Zr18	Zr	0.479577	0.518163	0.075773
O19	O	0.751144	0.497490	0.047558
O20	O	0.751181	0.497461	-0.167601
O21	O	0.751171	0.339754	0.047529
O22	O	0.510586	0.585668	0.167845
O23	O	0.510623	0.585638	-0.047314
O24	O	0.510613	0.427932	0.167816
O25	O	0.630884	0.585647	-0.047309
O26	O	0.630862	0.497498	0.167833
O27	O	0.630874	0.427941	0.167821
O28	O	0.630867	0.585660	0.047569
O29	O	0.846057	0.427911	-0.167610
O30	O	0.415737	0.497482	0.167825
O31	O	0.415722	0.585661	0.167841
O32	O	0.415742	0.585644	0.047561
O33	O	0.846051	0.339748	-0.047346
O34	O	0.846036	0.427927	-0.047330
O35	O	0.560078	0.488660	0.106320
O36	O	0.560081	0.540560	0.035523
O37	O	0.701694	0.488652	-0.035288
O38	O	0.701691	0.436752	0.035509
C39	C	0.441647	0.462682	0.000101
C40	C	0.377417	0.462678	0.000098
C41	C	0.630921	0.323933	0.000082
C42	C	0.630929	0.276838	0.000074
C43	C	0.294973	0.501005	0.052370
C44	C	0.234613	0.501008	0.052376
C45	C	0.256701	0.462689	0.000100
C46	C	0.339160	0.424355	-0.052176
C47	C	0.399518	0.424349	-0.052177
C48	C	0.201127	0.450749	-0.063699
C49	C	0.140768	0.450757	-0.063698
C50	C	0.070540	0.462702	0.000103
C51	C	0.060668	0.474650	0.063908
C52	C	0.121026	0.474644	0.063907
C53	C	0.191259	0.462690	0.000096
C54	C	-0.077358	0.501036	0.052386
C55	C	-0.137717	0.501036	0.052393
C56	C	-0.033168	0.424384	-0.052165
C57	C	0.027189	0.424382	-0.052166
C58	C	0.005089	0.462710	0.000109
C59	C	0.556969	0.011928	0.037085
C60	C	0.556954	-0.165057	0.037099
O61	O	0.494087	-0.164899	0.068560
N62	N	0.630874	-0.214283	0.000135
C63	C	0.704803	-0.219261	-0.036831
O64	O	0.767676	-0.265192	-0.068265
C65	C	0.704817	-0.042277	-0.036840
C66	C	0.630892	0.006948	0.000120
C67	C	0.483050	0.061151	0.074042
C68	C	0.483054	0.105394	0.074035
C69	C	0.556977	0.100415	0.037071
C70	C	0.630896	0.051192	0.000113
C71	C	0.778744	-0.047256	-0.073802
C72	C	0.778741	-0.003004	-0.073799
C73	C	0.704816	0.046221	-0.036839
C74	C	0.704823	0.090456	-0.036859
N75	N	0.630903	0.139681	0.000105
C76	C	0.556980	0.144661	0.037069
C77	C	0.704791	-0.312179	-0.036825
C78	C	0.704788	-0.356425	-0.036823
C79	C	0.556939	-0.302218	0.037107
C80	C	0.556943	-0.257971	0.037102
C81	C	0.630871	-0.262953	0.000139
C82	C	0.556995	0.237573	0.037051
C83	C	0.557006	0.281818	0.037039
C84	C	0.704854	0.227607	-0.036889
C85	C	0.704844	0.183366	-0.036879
C86	C	0.630908	0.188352	0.000096
O87	O	0.767658	0.090337	-0.068297
O88	O	0.494116	0.190595	0.068511
C89	C	0.556964	-0.032315	0.037092
C90	C	0.630883	-0.081538	0.000134
C91	C	0.704806	-0.086518	-0.036831
C92	C	0.630880	-0.125784	0.000135
C93	C	0.556957	-0.120805	0.037100
C94	C	0.483037	-0.071579	0.074063
C95	C	0.483041	-0.027336	0.074056
C96	C	0.778726	-0.135743	-0.073795
C97	C	0.778716	-0.179985	-0.073785
C98	C	0.704793	-0.175005	-0.036820
C99	C	0.820147	0.462710	0.000115
C100	C	0.884376	0.462715	0.000117
C101	C	0.630929	0.462671	-0.189171
C102	C	0.630940	0.462662	-0.253411
C103	C	0.630873	0.601460	0.000133
C104	C	0.630865	0.648555	0.000141
C105	C	0.630935	0.500983	-0.283567
C106	C	0.630919	0.500994	-0.343914
C107	C	0.630924	0.462677	-0.374110
C108	C	0.630924	0.424353	-0.343944
C109	C	0.630933	0.424345	-0.283595
C110	C	0.678425	0.415916	-0.493499
C111	C	0.678422	0.415924	-0.553850
C112	C	0.630895	0.462700	-0.560247
C113	C	0.583382	0.509472	-0.506290
C114	C	0.583390	0.509465	-0.445941
C115	C	0.630915	0.462681	-0.439549
C116	C	0.630871	0.501036	-0.655837
C117	C	0.630849	0.501048	-0.716182
C118	C	0.630863	0.424402	-0.716215
C119	C	0.630877	0.424395	-0.655867
C120	C	0.630884	0.462711	-0.625684
C121	C	0.630864	0.462722	0.189387
C122	C	0.630853	0.462731	0.253627
C123	C	0.441623	0.601446	0.000126
C124	C	0.377385	0.648536	0.000132
C125	C	0.441614	0.462708	0.189380
C126	C	0.377374	0.462712	0.253617
C127	C	0.441591	0.601471	0.189405
C128	C	0.377342	0.648570	0.253651
C129	C	0.820203	0.323921	-0.189190
C130	C	0.884452	0.276822	-0.253435
C131	C	0.820170	0.323947	0.000090
C132	C	0.884408	0.276857	0.000083
C133	C	0.820179	0.462685	-0.189164
C134	C	0.884420	0.462681	-0.253402
C135	C	0.347230	0.643549	-0.036837
C136	C	0.286880	0.687791	-0.036845
C137	C	0.256683	0.737020	0.000120
C138	C	0.286844	0.742006	0.037090
C139	C	0.347197	0.697764	0.037094
C140	C	0.347195	0.489815	0.320755
C141	C	0.286842	0.489817	0.381119
C142	C	0.256666	0.462718	0.374342
C143	C	0.286851	0.435612	0.307197
C144	C	0.347206	0.435607	0.246835
C145	C	0.347172	0.697784	0.246866
C146	C	0.286811	0.742043	0.307226
C147	C	0.256618	0.737087	0.374370
C148	C	0.286795	0.687867	0.381154
C149	C	0.347158	0.643610	0.320794
C150	C	0.914629	0.227608	-0.246650
C151	C	0.975008	0.183350	-0.307010
C152	C	1.005204	0.188306	-0.374155
C153	C	0.975024	0.237525	-0.380938
C154	C	0.914651	0.281783	-0.320579
C155	C	0.914570	0.281844	0.037046
C156	C	0.974937	0.237602	0.037038
C157	C	1.005136	0.188373	0.000070
C158	C	0.974971	0.183387	-0.036897
C159	C	0.914610	0.227629	-0.036892
C160	C	0.914577	0.489785	-0.246603
C161	C	0.974930	0.489791	-0.306955
C162	C	1.005129	0.462690	-0.374105
C163	C	0.974966	0.435585	-0.380902
C164	C	0.914610	0.435582	-0.320551
H165	H	0.276971	0.532214	0.094937
H166	H	0.890054	0.223561	-0.066989
O167	O	1.004424	0.409266	-0.446187
C168	C	1.064150	0.415093	-0.497988
H169	H	1.090517	0.425085	-0.474446
H170	H	1.035280	0.447529	-0.516867
C171	C	1.100389	0.351875	-0.589788
C172	C	1.132779	0.364142	-0.560874
H173	H	1.142721	0.320447	-0.628581
H174	H	1.060148	0.347950	-0.554889
H175	H	1.076331	0.378908	-0.605515
H176	H	1.156827	0.337112	-0.545140
H177	H	1.173025	0.368061	-0.595772
H178	H	0.371770	0.413538	0.192170
H179	H	0.371715	0.603539	0.326329
H180	H	0.207539	0.773040	0.000112
H181	H	0.838925	-0.139806	-0.103898
O182	O	0.479635	0.387186	-0.102979
C183	C	0.517673	0.410632	-0.141232
H184	H	0.481331	0.452487	-0.107548
H185	H	0.520207	0.409746	-0.191614
C186	C	0.649528	0.329492	-0.201832
C187	C	0.604896	0.380898	-0.160459
H188	H	0.703332	0.311150	-0.213696
H189	H	0.623901	0.313696	-0.176063
H190	H	0.651631	0.328761	-0.243812
H191	H	0.602785	0.381629	-0.118476
H192	H	0.630524	0.396694	-0.186222
H193	H	0.999483	0.511862	-0.301406
H194	H	0.003488	0.484373	0.115861
H195	H	0.262249	0.782094	0.067185
O196	O	0.257405	0.409345	0.300746
C197	C	0.197670	0.415161	0.368425
H198	H	0.171294	0.451755	0.408431
H199	H	0.226534	0.380151	0.383795
C200	C	0.161453	0.374429	0.318415
C201	C	0.129052	0.419377	0.367550
H202	H	0.119127	0.377028	0.317875
H203	H	0.201699	0.370509	0.272818
H204	H	0.185506	0.345259	0.331230
H205	H	0.105009	0.448545	0.354730
H206	H	0.088800	0.423303	0.413145
H207	H	0.496804	0.321899	0.067138
O208	O	0.885115	0.329673	0.073047
C209	C	0.800535	0.356898	0.124917
H210	H	0.784017	0.328188	0.138654
H211	H	0.766019	0.383149	0.103765
C212	C	0.797372	0.425222	0.174722
C213	C	0.777085	0.389959	0.191599
H214	H	0.782906	0.445618	0.215854
H215	H	0.854355	0.406881	0.139775
H216	H	0.768607	0.447092	0.157094
H217	H	0.805858	0.368086	0.209218
H218	H	0.720107	0.408297	0.226551
O219	O	0.630832	0.387156	-0.745434
C220	C	0.630866	0.353320	-0.705885
H221	H	0.605198	0.373959	-0.650019
H222	H	0.695928	0.317689	-0.732015
C223	C	0.609214	0.311261	-0.771468
C224	C	0.577681	0.336613	-0.702851
H225	H	0.576410	0.300953	-0.769598
H226	H	0.609194	0.334056	-0.798115
H227	H	0.663432	0.281572	-0.793235
H228	H	0.523468	0.366305	-0.681088
H229	H	0.577690	0.313823	-0.676200
H230	H	0.999618	0.241555	-0.435614
H231	H	0.422844	0.012742	0.104155
O232	O	0.885440	0.409201	-0.327287
C233	C	0.925030	0.385294	-0.399499
H234	H	0.986197	0.379942	-0.431676
H235	H	0.885450	0.410680	-0.417281
C236	C	0.863988	0.338690	-0.371372
C237	C	0.939118	0.332112	-0.410892
H238	H	0.872675	0.305886	-0.378400
H239	H	0.837312	0.354798	-0.322721
H240	H	0.831012	0.359847	-0.386195
H241	H	0.972088	0.310961	-0.396063
H242	H	0.965799	0.315999	-0.459540
O243	O	0.850629	-0.095028	-0.109708
C244	C	0.915865	-0.089922	-0.142336
H245	H	0.894174	-0.050426	-0.113347
H246	H	0.938618	-0.093566	-0.199710
C247	C	1.012334	-0.181283	-0.175238
C248	C	0.985694	-0.132775	-0.139629
H249	H	1.055409	-0.207718	-0.173572
H250	H	0.968384	-0.184723	-0.153258
H251	H	1.031289	-0.184312	-0.223046
H252	H	0.966729	-0.129744	-0.091820
H253	H	1.029642	-0.129335	-0.161601
H254	H	0.371742	0.701832	0.067202
O255	O	0.376446	0.516142	0.327474
C256	C	0.336849	0.540067	0.399681
H257	H	0.311973	0.518818	0.431862
H258	H	0.284429	0.582127	0.417478
C259	C	0.428563	0.564189	0.371520
C260	C	0.398016	0.538087	0.411044
H261	H	0.466292	0.562971	0.378530
H262	H	0.455239	0.548072	0.322872
H263	H	0.384873	0.599237	0.386356
H264	H	0.441704	0.503039	0.396203
H265	H	0.371349	0.554198	0.459690
O266	O	0.269267	0.439231	-0.125687
C267	C	0.246962	0.475083	-0.159480
H268	H	0.184628	0.512212	-0.118634
H269	H	0.244118	0.457889	-0.200401
C270	C	0.387205	0.441713	-0.246459
C271	C	0.310648	0.487317	-0.196290
H272	H	0.426490	0.449258	-0.269168
H273	H	0.402233	0.417557	-0.223694
H274	H	0.384823	0.427389	-0.280553
H275	H	0.313028	0.501636	-0.162192
H276	H	0.295622	0.511475	-0.219050
O277	O	0.411287	0.065928	0.109849
C278	C	0.406855	0.041962	0.062398
H279	H	0.471039	0.011794	0.013751
H280	H	0.370393	0.072383	0.045857
C281	C	0.285736	0.052494	0.158372
C282	C	0.364568	0.015438	0.098626
H283	H	0.259648	0.036135	0.180719
H284	H	0.288719	0.068643	0.190341
H285	H	0.255361	0.077843	0.144579
H286	H	0.394945	-0.009905	0.112420
H287	H	0.361589	-0.000715	0.066659
H288	H	0.167474	0.532219	0.094944
O289	O	1.063742	0.145453	0.000171
C290	C	1.083895	0.160418	0.040713
H291	H	1.030945	0.201265	0.079795
H292	H	1.140604	0.159615	0.004325
C293	C	1.165864	0.072499	0.033358
C294	C	1.100827	0.122668	0.081363
H295	H	1.176313	0.049212	0.058430
H296	H	1.152290	0.062416	0.006042
H297	H	1.213114	0.071838	0.003038
H298	H	1.053576	0.123329	0.111675
H299	H	1.114394	0.132750	0.108685
H300	H	0.371816	0.603468	-0.066947
H301	H	0.357141	0.393154	-0.094739
O302	O	0.485101	0.242513	0.072978
C303	C	0.419868	0.295450	0.105606
H304	H	0.441558	0.319034	0.076606
H305	H	0.397129	0.308502	0.162975
C306	C	0.323389	0.274820	0.138542
C307	C	0.350027	0.303786	0.102921
H308	H	0.280306	0.279962	0.136889
H309	H	0.367337	0.239155	0.116562
H310	H	0.304446	0.285700	0.186346
H311	H	0.368980	0.292901	0.055116
H312	H	0.306081	0.339450	0.124893
O313	O	0.111331	0.486233	0.125942
C314	C	0.036397	0.496791	0.182260
H315	H	0.016773	0.477533	0.161723
H316	H	-0.011900	0.540410	0.206538
C317	C	0.070393	0.499071	0.263952
C318	C	0.046295	0.475414	0.238728
H319	H	0.076496	0.485887	0.298786
H320	H	0.120877	0.491960	0.226010
H321	H	0.030142	0.535419	0.284178
H322	H	0.086550	0.439068	0.218494
H323	H	-0.004182	0.482519	0.276669
O324	O	0.411248	-0.066773	0.110065
C325	C	0.406836	-0.090749	0.161925
H326	H	0.448779	-0.092782	0.175657
H327	H	0.426705	-0.131568	0.140766
C328	C	0.267001	-0.056555	0.211744
C329	C	0.318512	-0.059048	0.228613
H330	H	0.212519	-0.037003	0.252879
H331	H	0.269974	-0.040404	0.176803
H332	H	0.283569	-0.090573	0.194110
H333	H	0.301950	-0.025032	0.246238
H334	H	0.315534	-0.075194	0.263559
H335	H	0.207467	0.773128	0.423513
H336	H	0.422857	0.145472	0.104129
H337	H	1.054275	0.462697	-0.423241
O338	O	1.004111	0.242545	0.073017
C339	C	0.964514	0.295483	0.105637
H340	H	0.903342	0.319068	0.112949
H341	H	1.004085	0.308528	0.071008
C342	C	1.025571	0.274864	0.169188
C343	C	0.950436	0.303830	0.178175
H344	H	1.016890	0.280013	0.213932
H345	H	1.052251	0.239198	0.147210
H346	H	1.058540	0.285737	0.140329
H347	H	0.917473	0.292952	0.207026
H348	H	0.923750	0.339494	0.200160
H349	H	-0.204850	0.532246	0.094963
O350	O	-0.098960	0.538286	0.103239
C351	C	-0.184676	0.572120	0.149373
H352	H	-0.212378	0.551479	0.146883
H353	H	-0.207165	0.607750	0.132926
C354	C	-0.176482	0.614185	0.228408
C355	C	-0.210507	0.588831	0.225354
H356	H	-0.192417	0.624495	0.275277
H357	H	-0.118734	0.591392	0.197326
H358	H	-0.195227	0.643873	0.214699
H359	H	-0.191754	0.559140	0.239054
H360	H	-0.268253	0.611620	0.256441
H361	H	0.262203	0.683839	0.435831
O362	O	0.257647	0.682848	-0.072765
C363	C	0.297252	0.629910	-0.105393
H364	H	0.322112	0.606327	-0.076395
H365	H	0.349684	0.616859	-0.162763
C366	C	0.205571	0.650531	-0.138323
C367	C	0.236098	0.621568	-0.102704
H368	H	0.167851	0.645385	-0.136668
H369	H	0.178890	0.686197	-0.116343
H370	H	0.249271	0.639653	-0.186128
H371	H	0.192400	0.632451	-0.054898
H372	H	0.262771	0.585903	-0.124675
H373	H	0.262248	0.782116	0.301690
H374	H	1.054364	0.152265	-0.423297
O375	O	0.257600	0.516070	0.446353
C376	C	0.272337	0.481298	0.483485
H377	H	0.325241	0.440470	0.444319
H378	H	0.215368	0.482251	0.519310
C379	C	0.228948	0.547323	0.576661
C380	C	0.293931	0.497178	0.528557
H381	H	0.242264	0.557119	0.604467
H382	H	0.219016	0.570751	0.551647
H383	H	0.181480	0.548111	0.606509
H384	H	0.341394	0.496393	0.498705
H385	H	0.303871	0.473751	0.553568
H386	H	0.838919	-0.220065	-0.103890
O387	O	0.885193	0.222879	-0.181378
C388	C	0.825448	0.272490	-0.129548
H389	H	0.799044	0.301816	-0.153062
H390	H	0.854310	0.283773	-0.110666
C391	C	0.789292	0.235810	-0.037794
C392	C	0.756858	0.271828	-0.066672
H393	H	0.746984	0.235402	0.000993
H394	H	0.829545	0.202386	-0.072712
H395	H	0.813343	0.245217	-0.022064
H396	H	0.732817	0.262418	-0.082409
H397	H	0.716599	0.305251	-0.031755
O398	O	1.004231	0.135553	-0.072687
C399	C	0.989499	0.108346	-0.025229
H400	H	0.936585	0.137069	0.030455
H401	H	1.046464	0.082105	-0.026521
C402	C	1.032920	0.039997	-0.115256
C403	C	0.967927	0.075275	-0.046865
H404	H	1.019617	0.019595	-0.128603
H405	H	1.042849	0.058325	-0.147230
H406	H	1.080386	0.018134	-0.116324
H407	H	0.920466	0.097141	-0.045800
H408	H	0.957989	0.056949	-0.014891
O409	O	-0.011756	0.387104	-0.102830
C410	C	-0.043524	0.359074	-0.070787
H411	H	-0.097996	0.383808	-0.013717
H412	H	0.005511	0.322178	-0.071917
C413	C	-0.003978	0.314509	-0.181446
C414	C	-0.070885	0.344889	-0.111353
H415	H	-0.020852	0.305756	-0.206469
H416	H	0.017428	0.333391	-0.203035
H417	H	0.036879	0.283766	-0.182377
H418	H	-0.111736	0.375634	-0.110421
H419	H	-0.092299	0.326011	-0.089764
O420	O	0.885312	0.516159	-0.181430
C421	C	0.924893	0.540071	-0.188386
H422	H	0.949768	0.545429	-0.242247
H423	H	0.977312	0.514685	-0.183442
C424	C	0.833167	0.586665	-0.063751
C425	C	0.863712	0.593250	-0.129902
H426	H	0.795430	0.619467	-0.027673
H427	H	0.806502	0.570554	-0.059064
H428	H	0.876856	0.565508	-0.059641
H429	H	0.820025	0.614401	-0.134014
H430	H	0.890369	0.609366	-0.134588
H431	H	0.999571	0.143278	-0.301473
O432	O	0.724595	0.370444	-0.606180
C433	C	0.766551	0.329157	-0.587598
H434	H	0.732957	0.341520	-0.527773
H435	H	0.831001	0.318180	-0.613409
C436	C	0.811962	0.267000	-0.686724
C437	C	0.770697	0.282183	-0.613246
H438	H	0.814523	0.238024	-0.702548
H439	H	0.783698	0.294816	-0.699245
H440	H	0.865665	0.257856	-0.708224
H441	H	0.716992	0.291333	-0.591747
H442	H	0.798953	0.254368	-0.600722
H443	H	0.890081	0.321854	-0.326112
H444	H	0.496747	-0.217893	0.067204
H445	H	0.207520	0.462726	0.423499
H446	H	0.094321	0.393175	-0.094735
H447	H	0.148811	0.441032	-0.115651
H448	H	0.496748	-0.298170	0.067201
H449	H	0.764985	-0.396503	-0.066929
H450	H	0.838944	-0.007067	-0.103890
O451	O	0.776557	-0.316956	-0.072785
C452	C	0.781006	-0.293007	-0.124675
H453	H	0.716828	-0.262847	-0.109139
H454	H	0.817486	-0.323440	-0.177690
C455	C	0.902106	-0.303520	-0.149811
C456	C	0.823281	-0.266474	-0.130726
H457	H	0.928187	-0.287155	-0.153546
H458	H	0.899111	-0.319657	-0.114854
H459	H	0.932495	-0.328879	-0.193988
H460	H	0.792891	-0.241120	-0.086546
H461	H	0.826272	-0.250332	-0.165676
O462	O	0.776701	0.135572	-0.072895
C463	C	0.821665	0.129881	-0.145050
H464	H	0.800653	0.169709	-0.151100
H465	H	0.811409	0.108732	-0.174691
C466	C	0.938825	0.049515	-0.168223
C467	C	0.913022	0.098432	-0.175654
H468	H	0.995179	0.030114	-0.187103
H469	H	0.908532	0.053348	-0.119612
H470	H	0.930272	0.031898	-0.192924
H471	H	0.921566	0.116051	-0.150946
H472	H	0.943319	0.094601	-0.224262
H473	H	0.544701	0.547548	-0.402010
H474	H	0.765041	0.223561	-0.066987
H475	H	0.630939	0.532183	-0.258992
O476	O	0.376372	0.702699	0.181699
C477	C	0.336745	0.755631	0.188669
H478	H	0.311936	0.779235	0.242502
H479	H	0.284274	0.768663	0.183805
C480	C	0.428323	0.734972	0.064011
C481	C	0.397858	0.763962	0.130128
H482	H	0.466018	0.740112	0.027899
H483	H	0.455018	0.699311	0.059314
H484	H	0.384590	0.745835	0.059968
H485	H	0.441589	0.753095	0.134173
H486	H	0.371171	0.799623	0.134824
H487	H	0.544680	0.547562	-0.511495
H488	H	0.630914	0.532201	-0.368472
H489	H	0.630927	0.393155	-0.368532
H490	H	0.630873	0.532237	-0.631258
H491	H	0.630886	0.393189	-0.631315
O492	O	0.630737	0.538342	-0.745359
C493	C	0.560499	0.587398	-0.695479
H494	H	0.537091	0.585081	-0.639953
H495	H	0.511312	0.600123	-0.704845
C496	C	0.610589	0.629774	-0.771542
C497	C	0.581842	0.626929	-0.703345
H498	H	0.623752	0.654159	-0.776396
H499	H	0.657908	0.596724	-0.805150
H500	H	0.569595	0.640376	-0.779339
H501	H	0.622840	0.616321	-0.695552
H502	H	0.534530	0.659978	-0.669737
H503	H	0.717120	0.377822	-0.488294
H504	H	0.630937	0.393139	-0.259041
