data_functionalizedCrystal
_audit_creation_method	'MofGen! by Chris Wilmer'
_symmetry_space_group_name_H-M	'P1'
_symmetry_Int_Tables_number	1
_symmetry_cell_setting	triclinic
loop_
_symmetry_equiv_pos_as_xyz
  x,y,z
_cell_length_a	19.288859
_cell_length_b	16.053789
_cell_length_c	19.288865
_cell_angle_alpha	87.098675
_cell_angle_beta	96.865014
_cell_angle_gamma	92.897197
loop_
_atom_site_label
_atom_site_type_symbol
_atom_site_fract_x
_atom_site_fract_y
_atom_site_fract_z
O1	O	0.923956	0.069456	-0.089232
O2	O	1.423956	0.569456	0.410768
O3	O	0.721695	0.069455	-0.100925
O4	O	1.221695	0.569455	0.399075
O5	O	0.828669	0.069439	0.006053
O6	O	1.328669	0.569439	0.506053
O7	O	0.816982	0.069472	-0.196209
O8	O	1.316982	0.569472	0.303791
O9	O	0.823452	-0.069421	0.011263
O10	O	1.323452	0.430579	0.511263
O11	O	0.716477	-0.069405	-0.095715
O12	O	1.216477	0.430595	0.404285
O13	O	0.918739	-0.069404	-0.084021
O14	O	1.418739	0.430596	0.415979
Zn15	Zn	0.816780	-0.091452	-0.089041
Zn16	Zn	1.316780	0.408548	0.410959
Zn17	Zn	0.823654	0.091503	-0.095906
Zn18	Zn	1.323654	0.591503	0.404094
O19	O	0.811764	-0.069388	-0.190999
O20	O	1.311764	0.430612	0.309001
C21	C	0.693210	0.000025	-0.097944
C22	C	1.193210	0.500025	0.402056
C23	C	0.616106	0.000024	-0.096817
C24	C	1.116106	0.500024	0.403183
C25	C	0.052065	0.000034	-0.151961
C26	C	0.552065	0.500034	0.348039
C27	C	0.124512	0.000039	-0.153026
C28	C	0.624512	0.500039	0.346974
C29	C	0.169218	0.000027	-0.090256
C30	C	0.669218	0.500027	0.409744
C31	C	0.141474	0.000032	-0.026417
C32	C	0.641474	0.500032	0.473583
C33	C	0.069028	0.000036	-0.025354
C34	C	0.569028	0.500036	0.474646
C35	C	0.288660	-0.048633	-0.041618
C36	C	0.788660	0.451367	0.458382
C37	C	0.361104	-0.048642	-0.042683
C38	C	0.861104	0.451358	0.457317
C39	C	0.392664	0.000019	-0.093534
C40	C	0.892664	0.500019	0.406466
C41	C	0.351770	0.048678	-0.143329
C42	C	0.851770	0.548678	0.356671
C43	C	0.279325	0.048681	-0.142266
C44	C	0.779325	0.548681	0.357734
C45	C	0.247774	0.000023	-0.091402
C46	C	0.747774	0.500023	0.408598
C47	C	0.498956	0.000025	-0.158524
C48	C	0.998956	0.500025	0.341476
C49	C	0.571404	0.000034	-0.159587
C50	C	1.071404	0.500034	0.340413
C51	C	0.588364	0.000019	-0.032976
C52	C	1.088364	0.500019	0.467024
C53	C	0.515917	0.000018	-0.031915
C54	C	1.015917	0.500018	0.468085
C55	C	0.471217	0.000017	-0.094691
C56	C	0.971217	0.500017	0.405309
N57	N	0.812093	-0.216313	-0.084355
N58	N	1.312093	0.283687	0.415645
C59	C	0.852447	-0.259996	-0.124737
C60	C	1.352447	0.240004	0.375263
C61	C	0.849178	-0.347404	-0.121455
C62	C	1.349178	0.152596	0.378545
C63	C	0.805551	-0.391127	-0.077794
C64	C	1.305551	0.108873	0.422206
C65	C	0.765196	-0.347437	-0.037407
C66	C	1.265196	0.152563	0.462593
C67	C	0.768469	-0.260031	-0.040686
C68	C	1.268469	0.239969	0.459314
C69	C	0.791264	-0.652540	-0.063478
C70	C	1.291264	-0.152540	0.436522
C71	C	0.787992	-0.739952	-0.060204
C72	C	1.287992	-0.239952	0.439796
C73	C	0.871975	-0.739913	-0.144251
C74	C	1.371975	-0.239913	0.355749
C75	C	0.875241	-0.652505	-0.147529
C76	C	1.375241	-0.152505	0.352471
C77	C	0.834889	-0.608824	-0.107140
C78	C	1.334889	-0.108824	0.392860
N79	N	0.802208	-0.480471	-0.074440
N80	N	1.302208	0.019529	0.425560
N81	N	0.838237	-0.519481	-0.110491
N82	N	1.338237	-0.019481	0.389509
C83	C	0.947224	0.000028	-0.087002
C84	C	1.447224	0.500028	0.412998
C85	C	1.024328	0.000035	-0.088130
C86	C	1.524328	0.500035	0.411870
C87	C	0.825684	0.000007	0.034534
C88	C	1.325684	0.500007	0.534534
C89	C	0.824555	-0.000001	0.111638
C90	C	1.324555	0.499999	0.611638
N91	N	0.828346	0.216364	-0.100586
N92	N	1.328346	0.716364	0.399414
C93	C	0.814749	0.000046	-0.219481
C94	C	1.314749	0.500046	0.280519
C95	C	0.815879	0.000059	-0.296585
C96	C	1.315879	0.500059	0.203415
C97	C	0.887323	-0.000005	0.156336
C98	C	1.387323	0.499995	0.656336
C99	C	0.886263	0.000009	0.228783
C100	C	1.386263	0.500009	0.728783
C101	C	0.822430	0.000009	0.256529
C102	C	1.322430	0.500009	0.756529
C103	C	0.759654	0.000017	0.211821
C104	C	1.259654	0.500017	0.711821
C105	C	0.760717	0.000013	0.139376
C106	C	1.260717	0.500013	0.639376
C107	C	0.770423	-0.048631	0.366640
C108	C	1.270423	0.451369	0.866640
C109	C	0.769363	-0.048631	0.439085
C110	C	1.269363	0.451369	0.939085
C111	C	0.819151	0.000028	0.479974
C112	C	1.319151	0.500028	0.979974
C113	C	0.870011	0.048676	0.448411
C114	C	1.370011	0.548676	0.948411
C115	C	0.871073	0.048671	0.375966
C116	C	1.371073	0.548671	0.875966
C117	C	0.821271	0.000015	0.335083
C118	C	1.321271	0.500015	0.835083
C119	C	0.880774	0.000039	0.603227
C120	C	1.380774	0.500039	1.103227
C121	C	0.879712	0.000058	0.675674
C122	C	1.379712	0.500058	1.175674
C123	C	0.753101	0.000058	0.658711
C124	C	1.253101	0.500058	1.158711
C125	C	0.754166	0.000048	0.586265
C126	C	1.254166	0.500048	1.086265
C127	C	0.818004	0.000035	0.558528
C128	C	1.318004	0.500035	1.058528
H129	H	0.462559	0.000025	-0.209640
H130	H	0.962559	0.500025	0.290360
H131	H	0.882040	-0.382967	-0.154337
H132	H	1.382040	0.117033	0.345663
C133	C	0.950992	0.000034	0.572712
C134	C	1.450992	0.500034	1.072712
H135	H	0.988225	0.000046	0.609711
H136	H	1.488225	0.500046	1.109711
H137	H	0.952220	-0.048393	0.546630
H138	H	1.452220	0.451607	1.046630
H139	H	0.955856	0.048460	0.542977
H140	H	1.455856	0.548460	1.042977
C141	C	0.637532	0.000008	0.036069
C142	C	1.137532	0.500008	0.536069
H143	H	0.684651	0.000002	0.026295
H144	H	1.184651	0.500002	0.526295
H145	H	0.630964	0.048429	0.060435
H146	H	1.130964	0.548429	0.560435
H147	H	0.627324	-0.048424	0.064072
H148	H	1.127324	0.451576	0.564072
H149	H	0.593986	0.000041	-0.211568
H150	H	1.093986	0.500041	0.288432
C151	C	0.746832	-0.604497	-0.019099
C152	C	1.246832	-0.104497	0.480901
H153	H	0.755019	-0.546179	-0.027309
H154	H	1.255019	-0.046179	0.472691
H155	H	0.698743	-0.618854	-0.031625
H156	H	1.198743	-0.118854	0.468375
H157	H	0.759321	-0.618808	0.029009
H158	H	1.259321	-0.118808	0.529009
C159	C	0.689441	0.000015	0.242339
C160	C	1.189441	0.500015	0.742339
H161	H	0.697797	0.000008	0.291887
H162	H	1.197797	0.500008	0.791887
H163	H	0.665423	0.048438	0.225159
H164	H	1.165423	0.548438	0.725159
H165	H	0.661787	-0.048415	0.228805
H166	H	1.161787	0.451585	0.728805
H167	H	0.939305	-0.000013	0.133757
H168	H	1.439305	0.499987	0.633757
C169	C	0.740003	-0.788050	-0.012174
C170	C	1.240003	-0.288050	0.487826
H171	H	0.743829	-0.846362	-0.016014
H172	H	1.243829	-0.346362	0.483986
H173	H	0.753597	-0.773739	0.034849
H174	H	1.253597	-0.273739	0.534849
H175	H	0.692973	-0.773732	-0.025740
H176	H	1.192973	-0.273732	0.474260
C177	C	0.927009	0.102182	0.341245
C178	C	1.427009	0.602182	0.841245
H179	H	0.920512	0.095202	0.292245
H180	H	1.420512	0.595202	0.792245
H181	H	0.922878	0.159270	0.350147
H182	H	1.422878	0.659270	0.850147
H183	H	0.972150	0.085072	0.359917
H184	H	1.472150	0.585072	0.859917
C185	C	0.682885	0.000062	0.689220
C186	C	1.182885	0.500062	1.189220
H187	H	0.645654	0.000066	0.652219
H188	H	1.145654	0.500066	1.152219
H189	H	0.678017	-0.048357	0.718955
H190	H	1.178017	0.451643	1.218955
H191	H	0.681661	0.048496	0.715300
H192	H	1.181661	0.548496	1.215300
C193	C	0.406080	-0.102166	0.012086
C194	C	0.906080	0.397834	0.512086
H195	H	0.376911	-0.131135	0.042531
H196	H	0.876911	0.368865	0.542531
H197	H	0.429650	-0.141287	-0.010871
H198	H	0.929650	0.358713	0.489129
H199	H	0.439418	-0.067092	0.038400
H200	H	0.939418	0.432908	0.538400
C201	C	0.717207	-0.395530	0.010618
C202	C	1.217207	0.104470	0.510618
H203	H	0.721030	-0.453843	0.006782
H204	H	1.221030	0.046157	0.506782
H205	H	0.730797	-0.381215	0.057640
H206	H	1.230797	0.118785	0.557640
H207	H	0.670177	-0.381210	-0.002953
H208	H	1.170177	0.118790	0.497047
H209	H	0.735609	-0.224466	-0.007803
H210	H	1.235609	0.275534	0.492197
C211	C	0.955310	-0.000002	0.277959
C212	C	1.455310	0.499998	0.777959
H213	H	0.993480	-0.000015	0.251064
H214	H	1.493480	0.499985	0.751064
H215	H	0.959351	0.048421	0.304752
H216	H	1.459351	0.548421	0.804752
H217	H	0.955699	-0.048432	0.308393
H218	H	1.455699	0.451568	0.808393
H219	H	0.910553	0.088299	0.481702
H220	H	1.410553	0.588299	0.981702
C221	C	0.715652	-0.102159	0.321669
C222	C	1.215652	0.397841	0.821669
H223	H	0.685218	-0.131139	0.350841
H224	H	1.185218	0.368861	0.850841
H225	H	0.689338	-0.067089	0.288329
H226	H	1.189338	0.432911	0.788329
H227	H	0.738615	-0.141283	0.298101
H228	H	1.238615	0.358717	0.798101
H229	H	0.493334	0.000013	0.020063
H230	H	0.993334	0.500013	0.520063
C231	C	0.386473	0.102209	-0.199269
C232	C	0.886473	0.602209	0.300731
H233	H	0.351742	0.131182	-0.228773
H234	H	0.851742	0.631182	0.271227
H235	H	0.419420	0.141326	-0.177140
H236	H	0.919420	0.641326	0.322860
H237	H	0.409657	0.067134	-0.226414
H238	H	0.909657	0.567134	0.273586
H239	H	0.930827	0.000059	0.712067
H240	H	1.430827	0.500059	1.212067
H241	H	0.262971	-0.088260	-0.000205
H242	H	0.762971	0.411740	0.499795
H243	H	0.910769	-0.616912	-0.183080
H244	H	1.410769	-0.116912	0.316920
C245	C	0.038512	0.000035	0.044861
C246	C	0.538512	0.500035	0.544861
H247	H	-0.011035	0.000043	0.036504
H248	H	0.488965	0.500043	0.536504
H249	H	0.052049	-0.048389	0.072520
H250	H	0.552049	0.451611	0.572520
H251	H	0.055689	0.048464	0.068874
H252	H	0.555689	0.548464	0.568874
C253	C	0.190647	0.000016	0.042628
C254	C	0.690647	0.500016	0.542628
H255	H	0.237766	0.000005	0.032853
H256	H	0.737766	0.500005	0.532853
H257	H	0.184083	0.048437	0.066994
H258	H	0.684083	0.548437	0.566994
H259	H	0.180435	-0.048416	0.070629
H260	H	0.680435	0.451584	0.570629
C261	C	0.916365	-0.787964	-0.188668
C262	C	1.416365	-0.287964	0.311332
H263	H	0.908174	-0.846282	-0.180460
H264	H	1.408174	-0.346282	0.319540
H265	H	0.903849	-0.773633	-0.236765
H266	H	1.403849	-0.273633	0.263235
H267	H	0.964467	-0.773631	-0.176171
H268	H	1.464467	-0.273631	0.323829
C269	C	0.685120	0.000038	0.537096
C270	C	1.185120	0.500038	1.037096
H271	H	0.646950	0.000033	0.563994
H272	H	1.146950	0.500033	1.063994
H273	H	0.684719	0.048458	0.506655
H274	H	1.184719	0.548458	1.006655
H275	H	0.681086	-0.048396	0.510311
H276	H	1.181086	0.451604	1.010311
H277	H	0.887968	-0.224404	-0.160295
H278	H	1.387968	0.275596	0.339705
H279	H	0.709602	0.000016	0.102982
H280	H	1.209602	0.500016	0.602982
C281	C	0.002900	0.000043	-0.221011
C282	C	0.502900	0.500043	0.278989
H283	H	0.029800	0.000051	-0.259180
H284	H	0.529800	0.500051	0.240820
H285	H	-0.027538	-0.048377	-0.221411
H286	H	0.472462	0.451623	0.278589
H287	H	-0.023889	0.048477	-0.225048
H288	H	0.476111	0.548477	0.274952
C289	C	0.155031	0.000035	-0.223243
C290	C	0.655031	0.500035	0.276757
H291	H	0.118033	0.000030	-0.260476
H292	H	0.618033	0.500030	0.239524
H293	H	0.184763	0.048455	-0.228111
H294	H	0.684763	0.548455	0.271889
H295	H	0.181116	-0.048398	-0.224463
H296	H	0.681116	0.451602	0.275537
H297	H	0.727948	-0.088239	0.464776
H298	H	1.227948	0.411761	0.964776
H299	H	0.246032	0.088303	-0.182810
H300	H	0.746032	0.588303	0.317190
