data_functionalizedCrystal
_audit_creation_method	'MofGen! by Chris Wilmer'
_symmetry_space_group_name_H-M	'P1'
_symmetry_Int_Tables_number	1
_symmetry_cell_setting	triclinic
loop_
_symmetry_equiv_pos_as_xyz
  x,y,z
_cell_length_a	10.908937
_cell_length_b	9.482944
_cell_length_c	11.026607
_cell_angle_alpha	98.126951
_cell_angle_beta	84.335986
_cell_angle_gamma	102.166806
loop_
_atom_site_label
_atom_site_type_symbol
_atom_site_fract_x
_atom_site_fract_y
_atom_site_fract_z
O1	O	1.683331	0.120941	-0.166399
O2	O	1.330398	0.120934	-0.075863
O3	O	1.477613	0.120931	-0.291882
O4	O	1.536116	0.120943	0.049620
O5	O	1.435844	-0.120863	-0.317195
O6	O	1.288629	-0.120861	-0.101176
O7	O	1.641563	-0.120853	-0.191712
Cu8	Cu	1.461282	-0.142934	-0.148755
Cu9	Cu	1.510678	0.143015	-0.118819
O10	O	1.494348	-0.120851	0.024307
C11	C	1.263628	0.000035	-0.080059
C12	C	1.126901	0.000032	-0.054862
N13	N	1.426549	-0.344056	-0.169813
C14	C	0.915327	0.000056	-0.120770
C15	C	1.056638	0.000037	-0.146816
C16	C	1.500424	-0.416252	-0.125029
C17	C	1.471533	-0.583671	-0.142563
C18	C	1.708333	0.000049	-0.187516
C19	C	1.845062	0.000061	-0.212712
C20	C	1.445936	0.000036	-0.347571
C21	C	1.413764	0.000040	-0.475792
N22	N	1.545419	0.344137	-0.097773
C23	C	1.502599	0.000044	-0.567524
C24	C	1.469350	0.000049	-0.700048
C25	C	1.526025	0.000048	0.079997
C26	C	1.558198	0.000053	0.208219
H27	H	0.870868	0.000075	-0.022771
H28	H	1.630064	-0.593736	-0.046451
N29	N	1.115510	0.000034	-0.276637
H30	H	1.208112	0.000023	-0.276843
H31	H	1.073345	-0.089601	-0.329332
H32	H	1.082448	0.000046	0.043144
N33	N	1.635949	0.000031	-0.541607
H34	H	1.690665	0.000033	-0.621031
H35	H	1.668643	0.089665	-0.483790
H36	H	1.313095	0.000048	-0.495368
N37	N	1.691554	0.000048	-0.765864
H38	H	1.718317	-0.089585	-0.812070
H39	H	1.749200	0.089741	-0.793282
H40	H	0.889524	0.000060	-0.310709
N41	N	1.335988	0.000029	-0.725962
H42	H	1.281271	0.000022	-0.646538
H43	H	1.334260	0.089664	-0.765004
N44	N	1.612548	-0.333967	-0.057059
H45	H	1.617296	-0.226032	-0.054173
H46	H	1.603494	-0.360493	0.029370
H47	H	1.386893	-0.645800	-0.193891
H48	H	1.341914	-0.406190	-0.221138
