data_functionalizedCrystal
_audit_creation_method	'MofGen! by Chris Wilmer'
_symmetry_space_group_name_H-M	'P1'
_symmetry_Int_Tables_number	1
_symmetry_cell_setting	triclinic
loop_
_symmetry_equiv_pos_as_xyz
  x,y,z
_cell_length_a	18.101398
_cell_length_b	18.050589
_cell_length_c	18.050582
_cell_angle_alpha	89.981795
_cell_angle_beta	89.994346
_cell_angle_gamma	90.023777
loop_
_atom_site_label
_atom_site_type_symbol
_atom_site_fract_x
_atom_site_fract_y
_atom_site_fract_z
Zn1	Zn	1.132106	-0.295795	-0.419751
Zn2	Zn	1.632106	0.204205	0.080249
Zn3	Zn	1.132017	-0.419978	-0.295571
Zn4	Zn	1.632017	0.080022	0.204429
Zn5	Zn	1.008274	-0.295797	-0.295596
Zn6	Zn	1.508274	0.204203	0.204404
Zn7	Zn	1.008222	-0.419938	-0.419739
Zn8	Zn	1.508222	0.080062	0.080261
O9	O	1.070155	-0.357877	-0.357664
O10	O	1.570155	0.142123	0.142336
O11	O	1.235727	-0.312284	-0.403273
O12	O	1.735727	0.187716	0.096727
O13	O	1.115586	-0.403523	-0.191650
O14	O	1.615586	0.096477	0.308350
O15	O	1.024759	-0.191872	-0.312080
O16	O	1.524759	0.308128	0.187920
O17	O	1.235662	-0.403521	-0.312038
O18	O	1.735662	0.096479	0.187962
O19	O	1.115738	-0.191870	-0.403297
O20	O	1.615738	0.308130	0.096703
O21	O	1.024673	-0.312287	-0.191668
O22	O	1.524673	0.187713	0.308332
O23	O	0.904634	-0.312248	-0.312069
O24	O	1.404634	0.187752	0.187931
O25	O	1.024671	-0.403452	-0.523666
O26	O	1.524671	0.096548	-0.023666
O27	O	0.904596	-0.403454	-0.403277
O28	O	1.404596	0.096546	0.096723
O29	O	1.115688	-0.312245	-0.523674
O30	O	1.615688	0.187755	-0.023674
O31	O	1.115536	-0.523897	-0.312027
O32	O	1.615536	-0.023897	0.187973
O33	O	1.024584	-0.523868	-0.403253
O34	O	1.524584	-0.023868	0.096747
C35	C	0.877744	-0.357848	-0.357675
C36	C	1.377744	0.142152	0.142325
C37	C	0.795430	-0.357853	-0.357697
C38	C	1.295430	0.142147	0.142303
C39	C	0.496339	-0.357897	-0.357666
C40	C	0.996339	0.142103	0.142334
C41	C	0.527665	-0.415558	-0.414768
C42	C	1.027665	0.084442	0.085232
C43	C	0.613283	-0.415378	-0.415003
C44	C	1.113283	0.084622	0.084997
C45	C	0.644721	-0.357876	-0.357681
C46	C	1.144721	0.142124	0.142319
C47	C	0.613662	-0.279656	-0.379063
C48	C	1.113662	0.220344	0.120937
C49	C	0.528017	-0.280002	-0.379469
C50	C	1.028017	0.219998	0.120531
C51	C	0.527893	-0.377765	-0.279044
C52	C	1.027893	0.122235	0.220956
C53	C	0.613543	-0.379481	-0.279464
C54	C	1.113543	0.120519	0.220536
C55	C	0.728581	-0.357859	-0.357689
C56	C	1.228581	0.142141	0.142311
C57	C	0.412479	-0.357908	-0.357660
C58	C	0.912479	0.142092	0.142340
C59	C	1.070065	-0.550829	-0.357652
C60	C	1.570065	-0.050829	0.142348
C61	C	1.070095	-0.633375	-0.357672
C62	C	1.570095	-0.133375	0.142328
C63	C	1.020684	-0.832836	-0.407263
C64	C	1.520684	-0.332836	0.092737
C65	C	1.002637	-0.882269	-0.339499
C66	C	1.502637	-0.382269	0.160501
C67	C	1.070167	-0.784505	-0.357681
C68	C	1.570167	-0.284505	0.142319
C69	C	1.088251	-0.882154	-0.425453
C70	C	1.588251	-0.382154	0.074547
C71	C	1.070236	-0.930490	-0.357697
C72	C	1.570236	-0.430490	0.142303
C73	C	1.052085	-0.832850	-0.289881
C74	C	1.552085	-0.332850	0.210119
C75	C	1.137730	-0.832731	-0.375881
C76	C	1.637730	-0.332731	0.124119
C77	C	1.119709	-0.882142	-0.308070
C78	C	1.619709	-0.382142	0.191930
C79	C	1.070126	-0.700407	-0.357673
C80	C	1.570126	-0.200407	0.142327
C81	C	1.070278	-1.014587	-0.357697
C82	C	1.570278	-0.514587	0.142303
C83	C	1.263316	-0.357907	-0.357654
C84	C	1.763316	0.142093	0.142346
C85	C	1.345630	-0.357919	-0.357650
C86	C	1.845630	0.142081	0.142350
C87	C	1.070184	-0.357844	-0.551370
C88	C	1.570184	0.142156	-0.051370
C89	C	1.070196	-0.357830	-0.633916
C90	C	1.570196	0.142170	-0.133916
C91	C	1.070264	-0.164171	-0.357693
C92	C	1.570264	0.335829	0.142307
C93	C	1.070311	-0.081625	-0.357705
C94	C	1.570311	0.418375	0.142295
C95	C	1.020739	-0.407361	-0.833362
C96	C	1.520739	0.092639	-0.333362
C97	C	1.088304	-0.425519	-0.882744
C98	C	1.588304	0.074481	-0.382744
C99	C	1.070232	-0.357773	-0.785046
C100	C	1.570232	0.142227	-0.285046
C101	C	1.002704	-0.339594	-0.882746
C102	C	1.502704	0.160406	-0.382746
C103	C	1.070262	-0.357720	-0.931031
C104	C	1.570262	0.142280	-0.431031
C105	C	1.137833	-0.375967	-0.833341
C106	C	1.637833	0.124033	-0.333341
C107	C	1.052188	-0.290010	-0.833339
C108	C	1.552188	0.209990	-0.333339
C109	C	1.119800	-0.308143	-0.882699
C110	C	1.619800	0.191857	-0.382699
C111	C	1.070215	-0.357806	-0.700948
C112	C	1.570215	0.142194	-0.200948
C113	C	1.070287	-0.357687	-1.015128
C114	C	1.570287	0.142313	-0.515128
C115	C	1.070168	-0.357856	-0.164712
C116	C	1.570168	0.142144	0.335288
C117	C	1.070299	-0.357661	-0.082167
C118	C	1.570299	0.142339	0.417833
H119	H	0.506150	-0.402580	-0.472685
H120	H	1.006150	0.097420	0.027315
F121	F	0.927994	-0.910708	-0.319378
F122	F	1.427994	-0.410708	0.180622
H123	H	0.634026	-0.235530	-0.338769
H124	H	1.134026	0.264470	0.161231
F125	F	0.501414	-0.322870	-0.223432
F126	F	1.001414	0.177130	0.276568
F127	F	0.640079	-0.398196	-0.491145
F128	F	1.140079	0.101804	0.008855
H129	H	0.633851	-0.437040	-0.263338
H130	H	1.133851	0.062960	0.236662
F131	F	1.032044	-0.804663	-0.214953
F132	F	1.532044	-0.304663	0.285047
H133	H	0.634944	-0.340532	-0.234634
H134	H	1.134944	0.159468	0.265366
F135	F	0.965909	-0.804536	-0.461992
F136	F	1.465909	-0.304536	0.038008
H137	H	0.506284	-0.433827	-0.259612
H138	H	1.006284	0.066173	0.240388
F139	F	1.174446	-0.910261	-0.253213
F140	F	1.674446	-0.410261	0.246787
H141	H	1.103584	-0.482802	-0.904444
H142	H	1.603584	0.017198	-0.404444
F143	F	0.640733	-0.491200	-0.397512
F144	F	1.140733	0.008800	0.102488
F145	F	0.928046	-0.319524	-0.911113
F146	F	1.428046	0.180476	-0.411113
H147	H	1.194969	-0.391386	-0.811730
H148	H	1.694969	0.108614	-0.311730
F149	F	0.501917	-0.257976	-0.454594
F150	F	1.001917	0.242024	0.045406
H151	H	0.507053	-0.473752	-0.401518
H152	H	1.007053	0.026248	0.098482
H153	H	1.194821	-0.810958	-0.391294
H154	H	1.694821	-0.310958	0.108706
F155	F	0.500930	-0.221945	-0.327479
F156	F	1.000930	0.278055	0.172521
F157	F	1.174585	-0.253303	-0.910839
F158	F	1.674585	0.246697	-0.410839
H159	H	1.103518	-0.903811	-0.482761
H160	H	1.603518	-0.403811	0.017239
F161	F	0.966082	-0.462241	-0.805045
F162	F	1.466082	0.037759	-0.305045
H163	H	1.036889	-0.232744	-0.811622
H164	H	1.536889	0.267256	-0.311622
H165	H	0.635121	-0.262499	-0.435914
H166	H	1.135121	0.237501	0.064086
