data_functionalizedCrystal
_audit_creation_method	'MofGen! by Chris Wilmer'
_symmetry_space_group_name_H-M	'P1'
_symmetry_Int_Tables_number	1
_symmetry_cell_setting	triclinic
loop_
_symmetry_equiv_pos_as_xyz
  x,y,z
_cell_length_a	14.519709
_cell_length_b	19.288865
_cell_length_c	17.766277
_cell_angle_alpha	89.987037
_cell_angle_beta	89.993429
_cell_angle_gamma	96.591803
loop_
_atom_site_label
_atom_site_type_symbol
_atom_site_fract_x
_atom_site_fract_y
_atom_site_fract_z
O1	O	1.223282	-0.091054	0.062505
O2	O	0.954737	-0.101776	0.062529
O3	O	1.096769	0.004688	0.062502
O4	O	1.081250	-0.197517	0.062533
O5	O	1.096773	0.004698	-0.062687
O6	O	0.954741	-0.101765	-0.062659
O7	O	1.223286	-0.091043	-0.062683
Cu8	Cu	1.089013	-0.096403	-0.074102
Cu9	Cu	1.089009	-0.096416	0.073948
O10	O	1.081253	-0.197506	-0.062656
C11	C	0.920382	-0.101271	-0.000062
C12	C	0.818011	-0.099773	-0.000054
N13	N	1.089007	-0.096419	0.178078
C14	C	1.096272	0.030571	-0.000095
C15	C	1.094773	0.107680	-0.000101
C16	C	0.443150	-0.094261	-0.000089
C17	C	0.547448	-0.095792	-0.000079
C18	C	0.630577	-0.097017	-0.000070
C19	C	0.734882	-0.098548	-0.000062
C20	C	1.257640	-0.091548	-0.000090
C21	C	1.360012	-0.093045	-0.000094
C22	C	1.081751	-0.223390	-0.000058
C23	C	1.083250	-0.300499	-0.000046
C24	C	1.178111	0.152077	-0.000112
C25	C	1.176702	0.224529	-0.000100
C26	C	1.091951	0.252581	-0.000092
C27	C	1.008602	0.208175	-0.000077
C28	C	1.010013	0.135725	-0.000081
C29	C	1.025328	0.361112	-0.043937
C30	C	1.023921	0.433562	-0.043937
C31	C	1.087597	0.476043	-0.000075
C32	C	1.152695	0.446066	0.043778
C33	C	1.154106	0.373616	0.043773
C34	C	1.090412	0.331141	-0.000087
C35	C	1.169414	0.599000	-0.000072
C36	C	1.168002	0.671454	-0.000055
C37	C	0.999899	0.655098	-0.000040
C38	C	1.001314	0.582647	-0.000049
C39	C	1.086073	0.554602	-0.000069
N40	N	1.089023	-0.096394	-0.178232
C41	C	1.152010	-0.049370	0.217453
C42	C	1.152018	-0.049369	0.296255
C43	C	1.089007	-0.096410	0.335679
C44	C	1.025999	-0.143469	0.296295
C45	C	1.025999	-0.143473	0.217494
C46	C	1.004979	-0.105253	0.460532
C47	C	1.004978	-0.105244	0.539331
C48	C	1.089007	-0.096401	0.578725
C49	C	1.173042	-0.087552	0.539311
C50	C	1.173042	-0.087556	0.460511
C51	C	1.089001	-0.096411	0.421125
C52	C	1.152025	-0.049347	0.703546
C53	C	1.152034	-0.049351	0.782349
C54	C	1.026006	-0.143447	0.782387
C55	C	1.026005	-0.143447	0.703586
C56	C	1.089013	-0.096393	0.664170
H57	H	1.247128	0.129248	-0.000126
N58	N	0.958038	-0.194209	0.338811
H59	H	0.967595	-0.187066	0.394706
H60	H	0.892687	-0.185982	0.325038
H61	H	0.974698	-0.181756	0.671525
N62	N	0.956649	0.315308	-0.091264
H63	H	0.991112	0.288558	-0.128774
H64	H	0.917630	0.281423	-0.057627
N65	N	0.958034	-0.194185	0.824893
H66	H	0.968318	-0.243526	0.811192
H67	H	0.967624	-0.186986	0.880775
H68	H	0.933451	0.546498	-0.000044
N69	N	0.953715	0.465883	-0.091242
H70	H	0.889075	0.446960	-0.074858
H71	H	0.962564	0.518222	-0.084575
N72	N	1.219997	0.001393	0.824822
H73	H	1.259908	0.031199	0.787891
H74	H	1.184905	0.032215	0.857513
N75	N	1.257891	0.719344	-0.000073
H76	H	1.261060	0.749754	0.046338
H77	H	1.311744	0.690533	-0.000117
N78	N	1.266588	0.272430	-0.000125
H79	H	1.269755	0.302846	0.046281
H80	H	1.320447	0.243624	-0.000168
H81	H	0.974693	-0.181787	0.185435
N82	N	1.260827	0.568745	-0.000090
H83	H	1.313409	0.607868	-0.000089
H84	H	1.265071	0.539026	0.046314
H85	H	0.936553	-0.112441	0.571416
N86	N	0.914342	-0.114804	0.418046
H87	H	0.861110	-0.120405	0.454970
H88	H	0.909237	-0.072586	0.385335
H89	H	1.203333	-0.011035	0.671452
N90	N	0.917196	0.238434	-0.000074
H91	H	0.880698	0.222261	-0.046478
H92	H	0.880768	0.222235	0.046368
N93	N	0.920124	0.087834	-0.000069
H94	H	0.866218	0.116596	-0.000059
H95	H	0.917048	0.057432	-0.046481
H96	H	1.207110	0.349212	0.079481
H97	H	1.204546	0.480653	0.079495
H98	H	0.930893	0.677938	-0.000029
H99	H	1.203318	-0.011058	0.185363
H100	H	1.203325	-0.011054	0.328320
N101	N	1.263670	-0.078041	0.417998
H102	H	1.316907	-0.072446	0.454905
H103	H	1.268741	-0.120277	0.385328
H104	H	1.241467	-0.080356	0.571384
