data_functionalizedCrystal
_audit_creation_method	'MofGen! by Chris Wilmer'
_symmetry_space_group_name_H-M	'P1'
_symmetry_Int_Tables_number	1
_symmetry_cell_setting	triclinic
loop_
_symmetry_equiv_pos_as_xyz
  x,y,z
_cell_length_a	12.837943
_cell_length_b	12.837938
_cell_length_c	11.295483
_cell_angle_alpha	94.533028
_cell_angle_beta	94.538974
_cell_angle_gamma	85.171210
loop_
_atom_site_label
_atom_site_type_symbol
_atom_site_fract_x
_atom_site_fract_y
_atom_site_fract_z
O1	O	1.408688	-0.265789	0.098994
O2	O	1.105555	-0.252345	0.099001
O3	O	1.250400	-0.107500	0.098998
O4	O	1.263843	-0.410634	0.098997
O5	O	1.237676	-0.120201	-0.099052
O6	O	1.092831	-0.265046	-0.099050
O7	O	1.395964	-0.278489	-0.099056
Cu8	Cu	1.243235	-0.272927	-0.117137
Cu9	Cu	1.258283	-0.257908	0.117081
O10	O	1.251118	-0.423334	-0.099054
C11	C	1.060124	-0.254154	-0.000024
C12	C	0.943709	-0.240609	-0.000021
C13	C	1.239497	-0.074781	-0.000024
C14	C	1.225953	0.041634	-0.000016
C15	C	1.441395	-0.276680	-0.000029
C16	C	1.557810	-0.290225	-0.000024
C17	C	1.388786	0.266511	0.000018
C18	C	1.376065	0.375894	0.000026
C19	C	1.187793	0.369786	0.000017
C20	C	1.200514	0.260403	0.000009
C21	C	1.301013	0.208769	0.000007
C22	C	1.313732	0.099384	-0.000009
C23	C	1.125462	0.093278	-0.000010
C24	C	1.112741	0.202661	-0.000002
C25	C	1.782684	-0.127396	-0.000036
C26	C	1.892067	-0.140117	-0.000031
C27	C	1.885960	-0.328387	-0.000019
C28	C	1.776577	-0.315666	-0.000023
C29	C	1.724944	-0.215167	-0.000030
C30	C	1.615559	-0.202447	-0.000026
C31	C	1.609454	-0.390717	-0.000022
C32	C	1.718837	-0.403438	-0.000018
N33	N	1.232659	-0.283491	-0.281873
C34	C	1.262023	0.543947	-0.000016
C35	C	1.275572	0.427535	0.000023
C36	C	1.344995	-0.171231	-0.531164
C37	C	1.337011	-0.179223	-0.655828
C38	C	1.208701	-0.307460	-0.655866
C39	C	1.216685	-0.299468	-0.531202
C40	C	1.284836	-0.231353	-0.468856
C41	C	1.292825	-0.223368	-0.344190
C42	C	1.164510	-0.351598	-0.344230
C43	C	1.156526	-0.359590	-0.468894
N44	N	1.268867	-0.247336	0.281817
H45	H	1.470615	0.224469	0.000005
H46	H	1.400494	-0.115777	-0.480401
N47	N	1.774529	-0.511828	-0.000014
H48	H	1.852585	-0.506571	-0.000013
H49	H	1.758791	-0.545994	0.073411
H50	H	1.562430	-0.462186	-0.000017
H51	H	1.395563	0.057345	-0.000015
N52	N	1.954337	-0.045443	-0.000032
H53	H	2.004570	-0.041811	0.073387
H54	H	1.995077	-0.051292	-0.073497
N55	N	1.470738	0.438164	0.000026
H56	H	1.464942	0.478978	-0.073389
H57	H	1.474325	0.488330	0.073494
H58	H	1.101036	-0.415045	-0.519670
H59	H	1.105972	0.411846	0.000030
H60	H	1.030918	0.244717	0.000004
H61	H	1.053990	0.046253	-0.000028
N62	N	1.559864	-0.094057	-0.000028
H63	H	1.613045	-0.040386	-0.000035
H64	H	1.509899	-0.089392	-0.073450
H65	H	1.928019	-0.410210	-0.000024
H66	H	1.385997	-0.130265	-0.706556
N67	N	1.726986	-0.019008	-0.000025
H68	H	1.780164	0.034667	-0.000021
H69	H	1.677021	-0.014335	-0.073445
H70	H	1.348320	-0.167908	-0.293429
H71	H	1.153207	-0.362910	-0.706644
N72	N	1.099626	-0.416457	-0.277028
H73	H	1.115026	-0.401065	-0.188592
H74	H	1.022770	-0.398392	-0.298830
