data_functionalizedCrystal
_audit_creation_method	'MofGen! by Chris Wilmer'
_symmetry_space_group_name_H-M	'P1'
_symmetry_Int_Tables_number	1
_symmetry_cell_setting	triclinic
loop_
_symmetry_equiv_pos_as_xyz
  x,y,z
_cell_length_a	12.594516
_cell_length_b	16.120530
_cell_length_c	16.120256
_cell_angle_alpha	89.871735
_cell_angle_beta	92.879514
_cell_angle_gamma	92.888148
loop_
_atom_site_label
_atom_site_type_symbol
_atom_site_fract_x
_atom_site_fract_y
_atom_site_fract_z
Zn1	Zn	-0.539270	-1.247493	-0.534605
Zn2	Zn	-0.039270	-0.747493	-0.034605
Zn3	Zn	-0.708708	-1.254460	-0.395559
Zn4	Zn	-0.208708	-0.754460	0.104441
Zn5	Zn	-0.521278	-1.115482	-0.388521
Zn6	Zn	-0.021278	-0.615482	0.111479
Zn7	Zn	-0.707733	-1.108417	-0.527528
Zn8	Zn	-0.207733	-0.608417	-0.027528
O9	O	-0.619247	-1.181463	-0.461553
O10	O	-0.119247	-0.681463	0.038447
O11	O	-0.569684	-1.364784	-0.522067
O12	O	-0.069684	-0.864784	-0.022067
O13	O	-0.676723	-1.241897	-0.278259
O14	O	-0.176723	-0.741897	0.221741
O15	O	-0.374723	-1.133034	-0.407916
O16	O	0.125277	-0.633034	0.092084
O17	O	-0.694169	-1.369903	-0.419910
O18	O	-0.194169	-0.869903	0.080090
O19	O	-0.387941	-1.230022	-0.515243
O20	O	0.112059	-0.730022	-0.015243
O21	O	-0.539019	-1.139790	-0.273088
O22	O	-0.039019	-0.639790	0.226912
O23	O	-0.538074	-0.998177	-0.401054
O24	O	-0.038074	-0.498177	0.098946
O25	O	-0.692507	-1.120993	-0.644834
O26	O	-0.192507	-0.620993	-0.144834
O27	O	-0.675061	-0.992987	-0.503182
O28	O	-0.175061	-0.492987	-0.003182
O29	O	-0.568738	-1.223172	-0.650033
O30	O	-0.068738	-0.723172	-0.150033
O31	O	-0.857520	-1.235047	-0.413048
O32	O	-0.357520	-0.735047	0.086952
O33	O	-0.856804	-1.127749	-0.510006
O34	O	-0.356804	-0.627749	-0.010006
C35	C	-0.604510	-0.965409	-0.450587
C36	C	-0.104510	-0.465409	0.049413
C37	C	-0.598232	-0.872980	-0.445915
C38	C	-0.098232	-0.372980	0.054085
C39	C	-0.895784	-1.181409	-0.461542
C40	C	-0.395784	-0.681409	0.038458
C41	C	-1.014094	-1.181460	-0.461569
C42	C	-0.514094	-0.681460	0.038431
C43	C	-0.632521	-1.170517	-0.678449
C44	C	-0.132521	-0.670517	-0.178449
C45	C	-0.638178	-1.165852	-0.770877
C46	C	-0.138178	-0.665852	-0.270877
C47	C	-1.082994	-1.123098	-0.514265
C48	C	-0.582994	-0.623098	-0.014265
C49	C	-1.147804	-1.106685	-0.437361
C50	C	-0.647804	-0.606685	0.062639
C51	C	-1.160089	-1.197948	-0.538490
C52	C	-0.660089	-0.697948	-0.038490
C53	C	-1.077341	-1.165010	-0.384623
C54	C	-0.577341	-0.665010	0.115377
C55	C	-1.089625	-1.256305	-0.485805
C56	C	-0.589625	-0.756305	0.014195
C57	C	-1.154402	-1.239924	-0.408850
C58	C	-0.654402	-0.739924	0.091150
C59	C	-0.341633	-1.181539	-0.461584
C60	C	0.158367	-0.681539	0.038416
C61	C	-0.223331	-1.181571	-0.461596
C62	C	0.276669	-0.681571	0.038404
C63	C	-0.634042	-1.398360	-0.472563
C64	C	-0.134042	-0.898360	0.027437
C65	C	-0.640347	-1.490789	-0.477255
C66	C	-0.140347	-0.990789	0.022745
C67	C	-0.586747	-0.703749	-0.437393
C68	C	-0.086747	-0.203749	0.062607
C69	C	-0.651829	-0.660014	-0.485774
C70	C	-0.151829	-0.160014	0.014226
C71	C	-0.645439	-0.565848	-0.481033
C72	C	-0.145439	-0.065848	0.018967
C73	C	-0.593136	-0.797923	-0.442134
C74	C	-0.093136	-0.297923	0.057866
C75	C	-0.589721	-1.205786	-0.983858
C76	C	-0.089721	-0.705786	-0.483858
C77	C	-0.648459	-1.157308	-0.940098
C78	C	-0.148459	-0.657308	-0.440098
C79	C	-0.642737	-1.162064	-0.845935
C80	C	-0.142737	-0.662064	-0.345935
C81	C	-0.595442	-1.201032	-1.078030
C82	C	-0.095442	-0.701032	-0.578030
C83	C	-0.605951	-1.192414	-0.245503
C84	C	-0.105951	-0.692414	0.254497
C85	C	-0.600006	-1.197240	-0.153084
C86	C	-0.100006	-0.697240	0.346916
H87	H	-1.051642	-1.073662	-0.558756
H88	H	-0.551642	-0.573662	-0.058756
H89	H	-0.535142	-1.250858	-0.950605
H90	H	-0.035142	-0.750858	-0.450605
C91	C	-1.182613	-1.021243	-0.409678
C92	C	-0.682613	-0.521243	0.090322
N93	N	-1.208829	-0.956886	-0.388832
N94	N	-0.708829	-0.456886	0.111168
H95	H	-1.041317	-1.151036	-0.319561
H96	H	-0.541317	-0.651036	0.180439
C97	C	-0.504999	-0.658794	-0.376624
C98	C	-0.004999	-0.158794	0.123376
N99	N	-0.443430	-0.624924	-0.330851
N100	N	0.056570	-0.124924	0.169149
C101	C	-0.733595	-0.704970	-0.546538
C102	C	-0.233595	-0.204970	-0.046538
N103	N	-0.795183	-0.738835	-0.592299
N104	N	-0.295183	-0.238835	-0.092299
C105	C	-0.722213	-1.096422	-0.985023
C106	C	-0.222213	-0.596422	-0.485023
N107	N	-0.777767	-1.050568	-1.018864
N108	N	-0.277767	-0.550568	-0.518864
H109	H	-1.185548	-1.289330	-0.364244
H110	H	-0.685548	-0.789330	0.135756
H111	H	-1.196235	-1.211848	-0.603531
H112	H	-0.696235	-0.711848	-0.103531
C113	C	-1.054767	-1.341715	-0.513526
C114	C	-0.554767	-0.841715	-0.013526
N115	N	-1.028503	-1.406042	-0.534416
N116	N	-0.528503	-0.906042	-0.034416
