data_functionalizedCrystal
_audit_creation_method	'MofGen! by Chris Wilmer'
_symmetry_space_group_name_H-M	'P1'
_symmetry_Int_Tables_number	1
_symmetry_cell_setting	triclinic
loop_
_symmetry_equiv_pos_as_xyz
  x,y,z
_cell_length_a	14.560438
_cell_length_b	19.902436
_cell_length_c	14.560438
_cell_angle_alpha	90.000844
_cell_angle_beta	60.005799
_cell_angle_gamma	59.996399
loop_
_atom_site_label
_atom_site_type_symbol
_atom_site_fract_x
_atom_site_fract_y
_atom_site_fract_z
Zr1	Zr	1.005089	0.647350	-0.120307
O2	O	1.196694	0.540063	-0.266939
O3	O	0.813498	0.680235	-0.075376
O4	O	1.005086	0.680241	-0.266952
O5	O	1.005103	0.540058	0.075778
O6	O	1.005069	0.790819	-0.266940
O7	O	1.005106	0.540058	-0.075363
O8	O	0.662353	0.790810	0.075755
O9	O	1.347819	0.540068	-0.266917
O10	O	0.892284	0.776789	-0.056180
O11	O	0.892295	0.694265	0.056605
O12	O	1.117866	0.694271	-0.168951
O13	O	1.117877	0.611748	-0.056166
Zr14	Zr	1.005057	0.823710	0.120765
Zr15	Zr	1.005061	0.823710	-0.120287
Zr16	Zr	1.005085	0.647350	0.120745
Zr17	Zr	1.246117	0.647357	-0.120271
Zr18	Zr	0.764029	0.823703	0.120730
O19	O	1.196648	0.790825	0.075834
O20	O	1.196653	0.790825	-0.266911
O21	O	1.196688	0.540063	0.075806
O22	O	0.813452	0.930997	0.267397
O23	O	0.813458	0.930997	-0.075348
O24	O	0.813493	0.680235	0.267370
O25	O	1.005043	0.931002	-0.075320
O26	O	1.005060	0.790820	0.267410
O27	O	1.005077	0.680241	0.267398
O28	O	1.005040	0.931003	0.075821
O29	O	1.347797	0.680251	-0.266902
O30	O	0.662349	0.790810	0.267360
O31	O	0.662327	0.930993	0.267375
O32	O	0.662330	0.930993	0.075771
O33	O	1.347816	0.540068	-0.075313
O34	O	1.347793	0.680251	-0.075297
O35	O	0.892280	0.776789	0.169409
O36	O	0.892269	0.859312	0.056624
O37	O	1.117851	0.776795	-0.056147
O38	O	1.117862	0.694272	0.056638
C39	C	0.703584	0.735521	0.000185
C40	C	0.601262	0.735518	0.000170
C41	C	0.636399	0.674604	-0.083059
C42	C	0.540210	0.674618	-0.083002
C43	C	0.373747	0.796462	0.083521
C44	C	0.469935	0.796452	0.083459
C45	C	0.732505	0.604256	-0.179197
C46	C	0.636316	0.604269	-0.179141
C47	C	1.005109	0.514930	0.000205
C48	C	1.005121	0.440061	0.000196
C49	C	1.005057	0.168059	0.000240
C50	C	1.147358	0.144496	-0.070557
C51	C	1.147447	0.222333	-0.070950
C52	C	1.005089	0.303002	0.000218
C53	C	0.934421	0.300588	-0.051680
C54	C	0.935331	0.222361	-0.052203
C55	C	0.932405	0.223348	0.122967
C56	C	0.935080	0.300269	0.122778
C57	C	1.005100	0.379268	0.000207
C58	C	1.005042	0.091793	0.000247
C59	C	1.306562	0.735539	0.000273
C60	C	1.408884	0.735542	0.000288
C61	C	1.005078	0.735530	-0.301290
C62	C	1.005080	0.735530	-0.403623
C63	C	1.005037	0.956130	0.000254
C64	C	1.005025	1.031000	0.000262
C65	C	1.122829	0.692453	-0.510565
C66	C	1.122823	0.692456	-0.606714
C67	C	0.887308	0.778612	-0.488966
C68	C	0.887315	0.778614	-0.392819
C69	C	1.258802	0.642709	-0.578547
C70	C	1.258796	0.642711	-0.674695
C71	C	1.005068	0.735530	0.301749
C72	C	1.005066	0.735530	0.404082
C73	C	0.703549	0.956121	0.000209
C74	C	0.601214	1.030988	0.000203
C75	C	0.703579	0.735522	0.301704
C76	C	0.601255	0.735519	0.404022
C77	C	0.703543	0.956122	0.301729
C78	C	0.601207	1.030988	0.404055
C79	C	1.306602	0.514939	-0.301271
C80	C	1.408939	0.440072	-0.403597
C81	C	1.306597	0.514939	0.000249
C82	C	1.408932	0.440072	0.000255
C83	C	1.306567	0.735539	-0.301246
C84	C	1.408891	0.735542	-0.403564
C85	C	0.553165	1.023070	-0.058693
C86	C	0.457024	1.093408	-0.058722
C87	C	0.408927	1.171664	0.000152
C88	C	0.456986	1.179581	0.059050
C89	C	0.553132	1.109243	0.059071
C90	C	0.553143	1.109230	0.393236
C91	C	0.457001	1.179582	0.489373
C92	C	0.408917	1.171690	0.596328
C93	C	0.456991	1.093440	0.607146
C94	C	0.553138	1.023090	0.511009
C95	C	1.457015	0.361830	-0.392778
C96	C	1.553187	0.291478	-0.488915
C97	C	1.601275	0.299370	-0.595870
C98	C	1.553195	0.377620	-0.606687
C99	C	1.457031	0.447970	-0.510551
C100	C	1.456991	0.447991	0.059141
C101	C	1.553159	0.377652	0.059143
C102	C	1.601259	0.299396	0.000266
C103	C	1.553195	0.291479	-0.058627
C104	C	1.457036	0.361817	-0.058635
C105	C	0.553170	0.778595	0.510974
C106	C	0.457030	0.778586	0.607109
C107	C	0.457065	0.692422	0.489326
C108	C	0.553210	0.692427	0.393194
C109	C	0.553145	0.828344	0.578976
C110	C	0.457005	0.828334	0.675110
H111	H	0.441314	0.846060	0.151223
F112	F	1.327033	0.556621	-0.742921
F113	F	0.405889	1.084965	-0.121407
H114	H	0.795481	0.610311	-0.261328
F115	F	0.306598	1.246517	0.000120
F116	F	0.761991	0.824458	-0.279004
F117	F	0.405850	1.262854	0.477837
H118	H	0.792187	0.548308	-0.162407
H119	H	0.592278	1.115672	0.306156
F120	F	0.405804	1.085054	0.720985
F121	F	0.306587	1.246571	0.698637
F122	F	1.405850	0.353412	-0.278956
H123	H	1.592361	0.384036	-0.693782
H124	H	0.791428	0.813690	-0.480183
H125	H	0.647140	0.544194	-0.170838
H126	H	1.300979	0.675533	-0.725609
F127	F	1.604336	0.208206	-0.477379
H128	H	0.417812	1.243306	0.106983
H129	H	0.592260	0.959384	0.519835
H130	H	0.266812	0.846071	0.151333
F131	F	1.327037	0.678873	-0.578556
F132	F	0.797607	0.374842	0.012475
F133	F	0.636268	0.620330	-0.279073
H134	H	0.517004	0.892031	0.570249
H135	H	1.417889	0.511677	-0.519374
H136	H	0.977940	0.187037	0.166317
F137	F	0.670794	0.792186	0.579007
F138	F	0.604338	0.939790	-0.121363
F139	F	0.604253	1.117683	0.121767
H140	H	1.679578	0.242080	-0.674141
F141	F	0.798870	0.247642	0.010825
F142	F	0.405926	0.646563	0.477814
F143	F	1.405821	0.531270	0.121808
H144	H	0.986606	0.299894	0.161549
H145	H	1.592276	0.384114	0.107105
F146	F	1.703600	0.224543	0.000286
H147	H	1.592373	0.227754	-0.106563
H148	H	1.203175	0.221057	-0.036409
F149	F	1.220367	0.093301	-0.025292
F150	F	1.405890	0.353377	-0.121306
H151	H	1.301004	0.579021	-0.569820
F152	F	0.604399	0.646567	0.279368
H153	H	0.493138	0.795518	0.726035
F154	F	0.339345	0.914424	0.743351
H155	H	1.203229	0.220560	-0.161479
F156	F	1.220006	0.092333	-0.188177
H157	H	0.983502	0.302140	-0.141131
F158	F	0.799314	0.375358	0.197526
F159	F	0.795384	0.249390	0.192236
F160	F	1.000983	0.174593	-0.170246
