data_functionalizedCrystal
_audit_creation_method	'MofGen! by Chris Wilmer'
_symmetry_space_group_name_H-M	'P1'
_symmetry_Int_Tables_number	1
_symmetry_cell_setting	triclinic
loop_
_symmetry_equiv_pos_as_xyz
  x,y,z
_cell_length_a	12.759401
_cell_length_b	12.759400
_cell_length_c	12.759393
_cell_angle_alpha	89.968436
_cell_angle_beta	89.980316
_cell_angle_gamma	90.013799
loop_
_atom_site_label
_atom_site_type_symbol
_atom_site_fract_x
_atom_site_fract_y
_atom_site_fract_z
Zn1	Zn	1.606256	-0.418229	-0.594015
Zn2	Zn	2.106256	0.081771	-0.094015
Zn3	Zn	1.606150	-0.593948	-0.418335
Zn4	Zn	2.106150	-0.093948	0.081665
Zn5	Zn	1.430557	-0.418281	-0.418350
Zn6	Zn	1.930557	0.081719	0.081650
Zn7	Zn	1.430546	-0.593864	-0.593973
Zn8	Zn	1.930546	-0.093864	-0.093973
O9	O	1.518377	-0.506081	-0.506168
O10	O	2.018377	-0.006081	-0.006168
O11	O	1.753263	-0.441552	-0.570721
O12	O	2.253263	0.058448	-0.070721
O13	O	1.582818	-0.570702	-0.271316
O14	O	2.082818	-0.070702	0.228684
O15	O	1.453913	-0.271253	-0.441677
O16	O	1.953913	0.228747	0.058323
O17	O	1.753185	-0.570652	-0.441650
O18	O	2.253185	-0.070652	0.058350
O19	O	1.582998	-0.271215	-0.570737
O20	O	2.082998	0.228785	-0.070737
O21	O	1.453811	-0.441640	-0.271327
O22	O	1.953811	0.058360	0.228673
O23	O	1.283535	-0.441559	-0.441636
O24	O	1.783535	0.058441	0.058364
O25	O	1.453894	-0.570509	-0.740999
O26	O	1.953894	-0.070509	-0.240999
O27	O	1.283527	-0.570559	-0.570665
O28	O	1.783527	-0.070559	-0.070665
O29	O	1.582987	-0.441471	-0.741030
O30	O	2.082987	0.058529	-0.241030
O31	O	1.582807	-0.740958	-0.441609
O32	O	2.082807	-0.240958	0.058391
O33	O	1.453791	-0.740896	-0.570650
O34	O	1.953791	-0.240896	-0.070650
C35	C	1.245410	-0.506056	-0.506148
C36	C	1.745410	-0.006056	-0.006148
C37	C	1.128633	-0.506071	-0.506165
C38	C	1.628633	-0.006071	-0.006165
C39	C	1.518315	-0.779048	-0.506146
C40	C	2.018315	-0.279048	-0.006146
C41	C	1.518384	-0.895825	-0.506172
C42	C	2.018384	-0.395825	-0.006172
C43	C	1.073745	-0.438812	-0.439103
C44	C	1.573745	0.061188	0.060897
C45	C	0.964021	-0.438837	-0.439116
C46	C	1.464021	0.061163	0.060884
C47	C	0.964083	-0.573383	-0.573262
C48	C	1.464083	-0.073383	-0.073262
C49	C	1.073805	-0.573362	-0.573243
C50	C	1.573805	-0.073362	-0.073243
C51	C	1.128573	-0.371521	-0.372025
C52	C	1.628573	0.128479	0.127975
C53	C	1.073684	-0.304256	-0.304958
C54	C	1.573684	0.195744	0.195042
C55	C	0.963960	-0.304281	-0.304972
C56	C	1.463960	0.195719	0.195028
C57	C	0.909124	-0.371571	-0.372051
C58	C	1.409124	0.128429	0.127949
C59	C	1.585637	-0.950684	-0.439055
C60	C	2.085637	-0.450684	0.060945
C61	C	1.585702	-1.060408	-0.439087
C62	C	2.085702	-0.560408	0.060913
C63	C	1.451252	-1.060404	-0.573357
C64	C	1.951252	-0.560404	-0.073357
C65	C	1.451193	-0.950682	-0.573329
C66	C	1.951193	-0.450682	-0.073329
C67	C	1.652828	-0.895827	-0.371898
C68	C	2.152828	-0.395827	0.128102
C69	C	1.720086	-0.950686	-0.304775
C70	C	2.220086	-0.450686	0.195225
C71	C	1.720150	-1.060410	-0.304807
C72	C	2.220150	-0.560410	0.195193
C73	C	1.652957	-1.115275	-0.371963
C74	C	2.152957	-0.615275	0.128037
C75	C	1.792411	-0.506106	-0.506189
C76	C	2.292411	-0.006106	-0.006189
C77	C	1.909187	-0.506116	-0.506197
C78	C	2.409187	-0.006116	-0.006197
C79	C	1.518451	-0.505975	-0.780202
C80	C	2.018451	-0.005975	-0.280202
C81	C	1.518482	-0.505929	-0.896978
C82	C	2.018482	-0.005929	-0.396978
C83	C	1.518468	-0.232047	-0.506213
C84	C	2.018468	0.267953	-0.006213
C85	C	1.518507	-0.115271	-0.506232
C86	C	2.018507	0.384729	-0.006232
C87	C	1.585710	-0.438733	-0.951858
C88	C	2.085710	0.061267	-0.451858
C89	C	1.585735	-0.438695	-1.061582
C90	C	2.085735	0.061305	-0.561582
C91	C	1.451301	-0.573059	-1.061537
C92	C	1.951301	-0.073059	-0.561537
C93	C	1.451272	-0.573091	-0.951815
C94	C	1.951272	-0.073091	-0.451815
C95	C	1.652920	-0.371571	-0.897021
C96	C	2.152920	0.128429	-0.397021
C97	C	1.720155	-0.304370	-0.951901
C98	C	2.220155	0.195630	-0.451901
C99	C	1.720180	-0.304332	-1.061626
C100	C	2.220180	0.195668	-0.561626
C101	C	1.652970	-0.371495	-1.116470
C102	C	2.152970	0.128505	-0.616470
C103	C	1.518364	-0.506110	-0.233201
C104	C	2.018364	-0.006110	0.266799
C105	C	1.518537	-0.505859	-0.116425
C106	C	2.018537	-0.005859	0.383575
H107	H	1.217915	-0.371491	-0.372009
H108	H	1.717915	0.128509	0.127991
Cl109	Cl	1.366647	-0.881710	-0.657708
Cl110	Cl	1.866647	-0.381710	-0.157708
Cl111	Cl	1.652897	-0.371618	-0.759083
Cl112	Cl	2.152897	0.128382	-0.259083
H113	H	0.819780	-0.371591	-0.372052
H114	H	1.319780	0.128409	0.127948
Cl115	Cl	0.894960	-0.219728	-0.220655
Cl116	Cl	1.394960	0.280272	0.279345
H117	H	1.774867	-0.249682	-0.907240
H118	H	2.274867	0.250318	-0.407240
H119	H	1.396513	-0.627792	-0.907131
H120	H	1.896513	-0.127792	-0.407131
Cl121	Cl	0.895147	-0.657970	-0.657584
Cl122	Cl	1.395147	-0.157970	-0.157584
Cl123	Cl	1.804704	-0.219856	-1.130615
Cl124	Cl	2.304704	0.280144	-0.630615
Cl125	Cl	1.366820	-0.657491	-1.130485
Cl126	Cl	1.866820	-0.157491	-0.630485
Cl127	Cl	1.653046	-0.757889	-0.372147
Cl128	Cl	2.153046	-0.257889	0.127853
Cl129	Cl	1.142618	-0.219677	-0.220625
Cl130	Cl	1.642618	0.280323	0.279375
Cl131	Cl	1.652990	-0.371430	-1.254410
Cl132	Cl	2.152990	0.128570	-0.754410
H133	H	1.774798	-0.906010	-0.250105
H134	H	2.274798	-0.406010	0.249895
H135	H	1.774922	-1.105074	-0.250160
H136	H	2.274922	-0.605074	0.249840
Cl137	Cl	1.142813	-0.657920	-0.657548
Cl138	Cl	1.642813	-0.157920	-0.157548
H139	H	1.653024	-1.204620	-0.371992
H140	H	2.153024	-0.704620	0.128008
H141	H	1.396546	-1.105083	-0.628031
H142	H	1.896546	-0.605083	-0.128031
