data_functionalizedCrystal
_audit_creation_method	'MofGen! by Chris Wilmer'
_symmetry_space_group_name_H-M	'P1'
_symmetry_Int_Tables_number	1
_symmetry_cell_setting	triclinic
loop_
_symmetry_equiv_pos_as_xyz
  x,y,z
_cell_length_a	18.050582
_cell_length_b	14.908571
_cell_length_c	14.908520
_cell_angle_alpha	90.205961
_cell_angle_beta	86.725523
_cell_angle_gamma	93.307198
loop_
_atom_site_label
_atom_site_type_symbol
_atom_site_fract_x
_atom_site_fract_y
_atom_site_fract_z
Zn1	Zn	-0.504882	-1.353908	0.437476
Zn2	Zn	-0.387416	-1.345138	0.587824
Zn3	Zn	-0.373166	-1.203557	0.428799
Zn4	Zn	-0.504024	-1.194835	0.579100
O5	O	-0.442372	-1.274359	0.508300
O6	O	-0.495623	-1.478568	0.464702
O7	O	-0.281601	-1.326337	0.566750
O8	O	-0.385033	-1.230822	0.304128
O9	O	-0.409322	-1.472125	0.575163
O10	O	-0.481805	-1.341284	0.310502
O11	O	-0.271131	-1.222318	0.449915
O12	O	-0.384201	-1.076576	0.441455
O13	O	-0.608063	-1.215957	0.560292
O14	O	-0.480342	-1.070168	0.551880
O15	O	-0.608693	-1.332826	0.456242
O16	O	-0.408489	-1.317879	0.712489
O17	O	-0.494161	-1.207453	0.706079
C18	C	-0.430633	-1.040747	0.494780
C19	C	-0.425629	-0.940806	0.489017
C20	C	-0.452796	-1.260792	0.741910
C21	C	-0.457284	-1.255071	0.841855
C22	C	-0.636078	-1.274397	0.508262
C23	C	-0.718624	-1.274413	0.508246
C24	C	-0.917730	-1.210910	0.564749
C25	C	-0.972220	-1.291677	0.591470
C26	C	-0.869753	-1.274461	0.508180
C27	C	-0.962346	-1.193741	0.481436
C28	C	-1.015737	-1.274501	0.508117
C29	C	-0.923160	-1.355269	0.534946
C30	C	-0.913278	-1.257279	0.424871
C31	C	-0.967746	-1.338105	0.451564
C32	C	-0.785656	-1.274437	0.508218
C33	C	-1.099834	-1.274534	0.508079
C34	C	-0.249420	-1.274378	0.508275
C35	C	-0.166872	-1.274550	0.508048
C36	C	-0.454158	-1.508884	0.521873
C37	C	-0.459180	-1.608824	0.527658
C38	C	-0.516219	-0.746371	0.593353
C39	C	-0.511520	-0.652467	0.587942
C40	C	-0.411537	-0.659092	0.472779
C41	C	-0.416236	-0.752996	0.478190
C42	C	-0.468578	-0.796632	0.538480
C43	C	-0.473272	-0.890538	0.543896
C44	C	-0.373293	-0.897162	0.428729
C45	C	-0.368595	-0.803258	0.423318
C46	C	-0.431925	-1.288004	0.273778
C47	C	-0.427474	-1.293818	0.173839
C48	C	-0.376591	-1.359424	1.036281
C49	C	-0.380806	-1.354051	1.130188
C50	C	-0.469932	-1.238957	1.123577
C51	C	-0.465717	-1.244330	1.029670
C52	C	-0.419044	-1.304565	0.986026
C53	C	-0.414826	-1.309932	0.892117
C54	C	-0.503955	-1.194843	0.885508
C55	C	-0.508170	-1.189470	0.979415
H56	H	-0.997954	-1.306233	0.661896
C57	C	-0.888078	-1.138367	0.629459
H58	H	-0.855572	-1.096164	0.596919
H59	H	-0.861832	-1.165769	0.674475
H60	H	-0.928540	-1.108403	0.656894
C61	C	-0.334103	-1.414392	1.185466
H62	H	-0.305701	-1.451028	1.146020
H63	H	-0.366147	-1.451451	1.224312
H64	H	-0.301636	-1.377918	1.220160
H65	H	-0.507936	-1.189922	1.159129
H66	H	-0.338582	-1.408463	1.000745
H67	H	-0.546172	-1.140431	1.014963
H68	H	-0.887527	-1.242698	0.354464
C69	C	-0.550654	-1.134489	0.830229
H70	H	-0.579047	-1.097842	0.869674
H71	H	-0.583117	-1.170947	0.795525
H72	H	-0.518598	-1.097427	0.791393
C73	C	-0.573788	-0.794373	0.659670
H74	H	-0.601491	-0.750989	0.691574
H75	H	-0.548905	-0.828726	0.700908
H76	H	-0.606496	-0.833008	0.627434
C77	C	-0.899811	-1.447545	0.565536
H78	H	-0.847147	-1.446962	0.565387
H79	H	-0.917360	-1.492691	0.525575
H80	H	-0.920512	-1.459903	0.624518
H81	H	-0.979730	-1.125460	0.458844
H82	H	-0.550316	-0.611547	0.632623
H83	H	-0.989562	-1.391924	0.403702
H84	H	-0.376820	-1.358976	0.856582
H85	H	-0.368928	-0.623548	0.423688
H86	H	-0.515890	-0.926064	0.592988
C87	C	-0.311020	-0.755253	0.357010
H88	H	-0.315040	-0.692128	0.361649
H89	H	-0.320035	-0.774146	0.297499
H90	H	-0.262456	-0.769860	0.370988
C91	C	-0.320888	-0.952451	0.368364
H92	H	-0.331184	-1.014627	0.380216
H93	H	-0.270785	-0.936278	0.380552
H94	H	-0.328377	-0.940567	0.307079
