data_functionalizedCrystal
_audit_creation_method	'MofGen! by Chris Wilmer'
_symmetry_space_group_name_H-M	'P1'
_symmetry_Int_Tables_number	1
_symmetry_cell_setting	triclinic
loop_
_symmetry_equiv_pos_as_xyz
  x,y,z
_cell_length_a	19.188930
_cell_length_b	27.732048
_cell_length_c	18.266242
_cell_angle_alpha	89.988683
_cell_angle_beta	89.977082
_cell_angle_gamma	82.893716
loop_
_atom_site_label
_atom_site_type_symbol
_atom_site_fract_x
_atom_site_fract_y
_atom_site_fract_z
O1	O	0.925764	0.060348	-0.061124
O2	O	1.259098	0.393681	0.272209
O3	O	1.592431	0.727015	0.605543
O4	O	0.722401	0.068472	-0.061075
O5	O	1.055735	0.401805	0.272258
O6	O	1.389068	0.735138	0.605592
O7	O	0.830399	-0.005968	-0.061087
O8	O	1.163732	0.327366	0.272246
O9	O	1.497066	0.660699	0.605580
O10	O	0.817767	0.134787	-0.061112
O11	O	1.151100	0.468121	0.272221
O12	O	1.484433	0.801454	0.605555
O13	O	0.830381	-0.005971	0.060675
O14	O	1.163714	0.327362	0.394008
O15	O	1.497047	0.660695	0.727342
O16	O	0.722383	0.068468	0.060687
O17	O	1.055716	0.401801	0.394020
O18	O	1.389050	0.735135	0.727354
O19	O	0.925746	0.060344	0.060638
O20	O	1.259080	0.393677	0.393971
O21	O	1.592413	0.727011	0.727305
Zn22	Zn	0.824062	0.064405	0.079995
Zn23	Zn	1.157395	0.397739	0.413328
Zn24	Zn	1.490728	0.731072	0.746662
Zn25	Zn	0.824086	0.064410	-0.080432
Zn26	Zn	1.157419	0.397744	0.252902
Zn27	Zn	1.490752	0.731077	0.586235
O28	O	0.817749	0.134783	0.060650
O29	O	1.151082	0.468117	0.393983
O30	O	1.484415	0.801450	0.727317
C31	C	0.696383	0.068207	-0.000187
C32	C	1.029716	0.401540	0.333146
C33	C	1.363050	0.734873	0.666479
C34	C	0.618883	0.067417	-0.000168
C35	C	0.952217	0.400750	0.333165
C36	C	1.285550	0.734084	0.666499
C37	C	0.573681	0.111096	-0.000187
C38	C	0.907014	0.444429	0.333146
C39	C	1.240348	0.777762	0.666479
C40	C	0.500862	0.110354	-0.000195
C41	C	0.834195	0.443687	0.333138
C42	C	1.167528	0.777020	0.666471
C43	C	0.473249	0.065931	-0.000199
C44	C	0.806582	0.399264	0.333135
C45	C	1.139915	0.732597	0.666468
C46	C	0.518461	0.022246	-0.000175
C47	C	0.851794	0.355580	0.333158
C48	C	1.185128	0.688913	0.666491
C49	C	0.591278	0.022990	-0.000160
C50	C	0.924612	0.356323	0.333173
C51	C	1.257945	0.689656	0.666507
N52	N	0.365491	0.031976	-0.041663
N53	N	0.698824	0.365309	0.291670
N54	N	1.032158	0.698643	0.625004
N55	N	0.296317	0.031273	-0.041679
N56	N	0.629650	0.364607	0.291654
N57	N	0.962984	0.697940	0.624988
C58	C	0.253854	0.063689	-0.000243
C59	C	0.587188	0.397022	0.333090
C60	C	0.920521	0.730356	0.666424
N61	N	0.283177	0.096842	0.041201
N62	N	0.616511	0.430175	0.374534
N63	N	0.949844	0.763508	0.707867
N64	N	0.352358	0.097546	0.041213
N65	N	0.685691	0.430879	0.374547
N66	N	1.019024	0.764213	0.707880
C67	C	0.394291	0.065120	-0.000215
C68	C	0.727625	0.398453	0.333119
C69	C	1.060958	0.731787	0.666452
C70	C	0.129692	0.106566	-0.000270
C71	C	0.463026	0.439899	0.333064
C72	C	0.796359	0.773233	0.666397
C73	C	0.056872	0.105822	-0.000273
C74	C	0.390206	0.439156	0.333060
C75	C	0.723539	0.772489	0.666394
C76	C	0.074473	0.017714	-0.000261
C77	C	0.407806	0.351047	0.333073
C78	C	0.741140	0.684380	0.666406
C79	C	0.147292	0.018459	-0.000250
C80	C	0.480625	0.351792	0.333084
C81	C	0.813958	0.685125	0.666417
C82	C	0.174897	0.062886	-0.000258
C83	C	0.508230	0.396220	0.333075
C84	C	0.841563	0.729553	0.666409
C85	C	0.830125	-0.023977	-0.000204
C86	C	1.163458	0.309356	0.333129
C87	C	1.496791	0.642689	0.666463
C88	C	0.829326	-0.077635	-0.000198
C89	C	1.162660	0.255699	0.333136
C90	C	1.495993	0.589032	0.666469
C91	C	0.888119	-0.416270	-0.000250
C92	C	1.221452	-0.082937	0.333084
C93	C	1.554786	0.250397	0.666417
C94	C	0.885157	-0.617939	-0.000259
C95	C	1.218490	-0.284605	0.333074
C96	C	1.551823	0.048728	0.666408
O97	O	0.938918	-0.649030	-0.000304
O98	O	1.272252	-0.315696	0.333029
O99	O	1.605585	0.017637	0.666363
N100	N	0.821118	-0.637258	-0.000243
N101	N	1.154452	-0.303925	0.333090
N102	N	1.487785	0.029409	0.666424
C103	C	0.757816	-0.606157	-0.000229
C104	C	1.091150	-0.272824	0.333104
C105	C	1.424483	0.060510	0.666438
O106	O	0.703280	-0.627217	-0.000223
O107	O	1.036613	-0.293883	0.333110
O108	O	1.369947	0.039450	0.666443
C109	C	0.760780	-0.404489	-0.000225
C110	C	1.094113	-0.071156	0.333108
C111	C	1.427446	0.262177	0.666442
C112	C	0.824822	-0.385173	-0.000234
C113	C	1.158155	-0.051839	0.333100
C114	C	1.491489	0.281494	0.666433
C115	C	0.952156	-0.396953	-0.000259
C116	C	1.285489	-0.063619	0.333074
C117	C	1.618823	0.269714	0.666408
C118	C	0.952896	-0.346539	-0.000253
C119	C	1.286229	-0.013205	0.333081
C120	C	1.619563	0.320128	0.666414
C121	C	0.889599	-0.315441	-0.000237
C122	C	1.222932	0.017892	0.333096
C123	C	1.556266	0.351225	0.666430
C124	C	0.825562	-0.334759	-0.000227
C125	C	1.158895	-0.001425	0.333106
C126	C	1.492228	0.331908	0.666439
C127	C	0.697478	-0.373389	-0.000216
C128	C	1.030812	-0.040056	0.333117
C129	C	1.364145	0.293278	0.666450
C130	C	0.698225	-0.322969	-0.000217
C131	C	1.031558	0.010364	0.333116
C132	C	1.364892	0.343697	0.666449
C133	C	0.762267	-0.303653	-0.000226
C134	C	1.095600	0.029680	0.333107
C135	C	1.428934	0.363014	0.666441
C136	C	0.763005	-0.253247	-0.000205
C137	C	1.096338	0.080086	0.333128
C138	C	1.429671	0.413420	0.666462
N139	N	0.827043	-0.233928	-0.000221
N140	N	1.160376	0.099406	0.333112
N141	N	1.493709	0.432739	0.666445
C142	C	0.890340	-0.265025	-0.000237
C143	C	1.223673	0.068309	0.333096
C144	C	1.557007	0.401642	0.666430
C145	C	0.756265	-0.712036	-0.000230
C146	C	1.089599	-0.378702	0.333103
C147	C	1.422932	-0.045369	0.666437
C148	C	0.755524	-0.762452	-0.000230
C149	C	1.088858	-0.429119	0.333104
C150	C	1.422191	-0.095786	0.666437
C151	C	0.882865	-0.774231	-0.000261
C152	C	1.216198	-0.440897	0.333072
C153	C	1.549531	-0.107564	0.666406
C154	C	0.883605	-0.723813	-0.000256
C155	C	1.216938	-0.390480	0.333077
C156	C	1.550272	-0.057146	0.666411
C157	C	0.820303	-0.692716	-0.000246
C158	C	1.153637	-0.359383	0.333087
C159	C	1.486970	-0.026050	0.666421
C160	C	0.891889	-0.159151	-0.000223
C161	C	1.225222	0.174182	0.333110
C162	C	1.558556	0.507516	0.666444
C163	C	0.892623	-0.108732	-0.000214
C164	C	1.225957	0.224602	0.333120
C165	C	1.559290	0.557935	0.666453
C166	C	0.765283	-0.096958	-0.000186
C167	C	1.098617	0.236375	0.333147
C168	C	1.431950	0.569709	0.666480
C169	C	0.764549	-0.147373	-0.000192
C170	C	1.097882	0.185961	0.333142
C171	C	1.431215	0.519294	0.666475
C172	C	0.827857	-0.178468	-0.000213
C173	C	1.161190	0.154865	0.333121
C174	C	1.494524	0.488198	0.666454
O175	O	0.709272	-0.222127	-0.000168
O176	O	1.042605	0.111206	0.333165
O177	O	1.375938	0.444539	0.666498
O178	O	0.944868	-0.243956	-0.000259
O179	O	1.278202	0.089378	0.333074
O180	O	1.611535	0.422711	0.666407
C181	C	0.887379	-0.466684	-0.000256
C182	C	1.220712	-0.133351	0.333077
C183	C	1.554046	0.199983	0.666411
C184	C	0.823342	-0.486001	-0.000246
C185	C	1.156675	-0.152668	0.333087
C186	C	1.490009	0.180666	0.666420
C187	C	0.760045	-0.454904	-0.000230
C188	C	1.093378	-0.121571	0.333103
C189	C	1.426712	0.211763	0.666436
C190	C	0.822601	-0.536418	-0.000246
C191	C	1.155934	-0.203084	0.333087
C192	C	1.489268	0.130249	0.666421
C193	C	0.885898	-0.567515	-0.000262
C194	C	1.219231	-0.234182	0.333071
C195	C	1.552565	0.099152	0.666405
C196	C	0.949936	-0.548195	-0.000278
C197	C	1.283270	-0.214862	0.333055
C198	C	1.616603	0.118471	0.666388
C199	C	0.950676	-0.497781	-0.000272
C200	C	1.284010	-0.164448	0.333061
C201	C	1.617343	0.168885	0.666395
C202	C	0.696007	-0.474223	-0.000214
C203	C	1.029340	-0.140890	0.333119
C204	C	1.362673	0.192443	0.666452
C205	C	0.695272	-0.524638	-0.000220
C206	C	1.028605	-0.191305	0.333114
C207	C	1.361939	0.142028	0.666447
C208	C	0.758569	-0.555735	-0.000236
C209	C	1.091903	-0.222402	0.333098
C210	C	1.425236	0.110931	0.666431
C211	C	0.951765	0.060609	-0.000251
C212	C	1.285098	0.393942	0.333082
C213	C	1.618431	0.727276	0.666416
C214	C	1.029264	0.061399	-0.000275
C215	C	1.362597	0.394732	0.333058
C216	C	1.695931	0.728066	0.666391
C217	C	0.818023	0.152793	-0.000235
C218	C	1.151356	0.486126	0.333099
C219	C	1.484690	0.819460	0.666432
C220	C	0.818821	0.206450	-0.000246
C221	C	1.152155	0.539784	0.333088
C222	C	1.485488	0.873117	0.666421
N223	N	0.824051	0.064402	0.189482
N224	N	1.157384	0.397735	0.522815
N225	N	1.490717	0.731068	0.856148
N226	N	0.824103	0.064410	-0.189919
N227	N	1.157436	0.397744	0.143415
N228	N	1.490769	0.731077	0.476748
C229	C	0.871887	0.031456	0.227785
C230	C	1.205221	0.364789	0.561119
C231	C	1.538554	0.698123	0.894452
C232	C	0.871892	0.031454	0.304430
C233	C	1.205225	0.364787	0.637763
C234	C	1.538558	0.698120	0.971097
C235	C	0.824066	0.064406	0.342769
C236	C	1.157399	0.397739	0.676102
C237	C	1.490733	0.731072	1.009435
C238	C	0.776220	0.097354	0.304456
C239	C	1.109554	0.430687	0.637789
C240	C	1.442887	0.764020	0.971123
C241	C	0.776213	0.097352	0.227813
C242	C	1.109546	0.430685	0.561146
C243	C	1.442879	0.764018	0.894479
N244	N	0.814718	0.107196	0.463095
N245	N	1.148051	0.440529	0.796428
N246	N	1.481384	0.773862	1.129762
N247	N	0.814729	0.107196	0.535903
N248	N	1.148062	0.440529	0.869236
N249	N	1.481396	0.773863	1.202570
C250	C	0.824086	0.064413	0.573691
C251	C	1.157419	0.397746	0.907024
C252	C	1.490752	0.731079	1.240358
N253	N	0.833444	0.021627	0.535921
N254	N	1.166777	0.354961	0.869254
N255	N	1.500111	0.688294	1.202587
N256	N	0.833436	0.021628	0.463106
N257	N	1.166769	0.354961	0.796439
N258	N	1.500102	0.688294	1.129773
C259	C	0.824069	0.064411	0.425876
C260	C	1.157402	0.397744	0.759209
C261	C	1.490736	0.731078	1.092542
C262	C	0.871930	0.031462	0.695102
C263	C	1.205263	0.364795	1.028435
C264	C	1.538597	0.698128	1.361768
C265	C	0.871929	0.031459	0.771748
C266	C	1.205263	0.364792	1.105081
C267	C	1.538596	0.698125	1.438415
C268	C	0.776261	0.097363	0.771772
C269	C	1.109595	0.430696	1.105106
C270	C	1.442928	0.764030	1.438439
C271	C	0.776258	0.097362	0.695127
C272	C	1.109592	0.430695	1.028461
C273	C	1.442925	0.764028	1.361794
C274	C	0.824096	0.064412	0.656797
C275	C	1.157430	0.397745	0.990130
C276	C	1.490763	0.731078	1.323463
H277	H	0.051991	-0.018456	-0.000309
H278	H	0.385325	0.314877	0.333025
H279	H	0.718658	0.648210	0.666358
Cl280	Cl	1.033411	-0.322263	-0.000285
Cl281	Cl	1.366744	0.011070	0.333049
Cl282	Cl	1.700077	0.344404	0.666382
Cl283	Cl	0.962438	-0.813333	-0.000285
Cl284	Cl	1.295771	-0.480000	0.333049
Cl285	Cl	1.629104	-0.146667	0.666382
H286	H	0.910880	0.004630	0.663892
H287	H	1.244214	0.337964	0.997225
H288	H	1.577547	0.671297	1.330558
Cl289	Cl	0.676677	-0.672949	-0.000217
Cl290	Cl	1.010011	-0.339616	0.333117
Cl291	Cl	1.343344	-0.006282	0.666450
Cl292	Cl	0.716122	0.138783	0.646970
Cl293	Cl	1.049455	0.472117	0.980303
Cl294	Cl	1.382788	0.805450	1.313637
H295	H	0.703375	-0.778175	-0.000210
H296	H	1.036708	-0.444842	0.333123
H297	H	1.370041	-0.111508	0.666457
Cl298	Cl	0.932068	-0.009965	0.819904
Cl299	Cl	1.265401	0.323369	1.153237
Cl300	Cl	1.598735	0.656702	1.486571
Cl301	Cl	0.204121	-0.036455	-0.000230
Cl302	Cl	0.537454	0.296879	0.333103
Cl303	Cl	0.870787	0.630212	0.666437
H304	H	0.645328	-0.389107	-0.000214
H305	H	0.978662	-0.055774	0.333120
H306	H	1.311995	0.277559	0.666453
H307	H	0.737318	0.124191	0.802987
H308	H	1.070651	0.457524	1.136320
H309	H	1.403985	0.790858	1.469654
Cl310	Cl	0.444025	0.165268	-0.000218
Cl311	Cl	0.777359	0.498601	0.333116
Cl312	Cl	1.110692	0.831935	0.666449
H313	H	0.944776	-0.093007	-0.000219
H314	H	1.278110	0.240326	0.333114
H315	H	1.611443	0.573659	0.666448
Cl316	Cl	0.971478	-0.198235	-0.000248
Cl317	Cl	1.304811	0.135098	0.333085
Cl318	Cl	1.638145	0.468432	0.666419
H319	H	0.646676	-0.297652	-0.000210
H320	H	0.980009	0.035681	0.333123
H321	H	1.313342	0.369014	0.666456
Cl322	Cl	0.483748	-0.033600	-0.000175
Cl323	Cl	0.817082	0.299734	0.333158
Cl324	Cl	1.150415	0.633067	0.666491
Cl325	Cl	0.684038	-0.171657	-0.000167
Cl326	Cl	1.017371	0.161676	0.333166
Cl327	Cl	1.350704	0.495010	0.666500
Cl328	Cl	0.685714	-0.057855	-0.000168
Cl329	Cl	1.019048	0.275478	0.333165
Cl330	Cl	1.352381	0.608811	0.666499
H331	H	0.644461	-0.448908	-0.000203
H332	H	0.977795	-0.115575	0.333130
H333	H	1.311128	0.217758	0.666464
Cl334	Cl	1.031741	-0.436038	-0.000278
Cl335	Cl	1.365074	-0.102705	0.333055
Cl336	Cl	1.698408	0.230628	0.666389
Cl337	Cl	0.614753	-0.548915	-0.000205
Cl338	Cl	0.948087	-0.215581	0.333128
Cl339	Cl	1.281420	0.117752	0.666461
Cl340	Cl	0.608381	0.166947	-0.000194
Cl341	Cl	0.941714	0.500280	0.333139
Cl342	Cl	1.275047	0.833614	0.666473
H343	H	1.002826	-0.482059	-0.000279
H344	H	1.336159	-0.148725	0.333054
H345	H	1.669493	0.184608	0.666387
Cl346	Cl	0.164399	0.162416	-0.000273
Cl347	Cl	0.497733	0.495750	0.333061
Cl348	Cl	0.831066	0.829083	0.666394
H349	H	1.001475	-0.573524	-0.000288
H350	H	1.334808	-0.240190	0.333045
H351	H	1.668142	0.093143	0.666379
H352	H	0.910838	0.004625	0.196579
H353	H	1.244171	0.337958	0.529912
H354	H	1.577505	0.671292	0.863245
H355	H	0.020068	0.141392	-0.000285
H356	H	0.353402	0.474725	0.333049
H357	H	0.686735	0.808059	0.666382
Cl358	Cl	0.932036	-0.009967	0.352591
Cl359	Cl	1.265369	0.323366	0.685925
Cl360	Cl	1.598702	0.656700	1.019258
Cl361	Cl	0.716093	0.138777	0.352651
Cl362	Cl	1.049427	0.472110	0.685984
Cl363	Cl	1.382760	0.805444	1.019318
Cl364	Cl	0.964118	-0.699535	-0.000268
Cl365	Cl	1.297451	-0.366202	0.333065
Cl366	Cl	1.630784	-0.032868	0.666399
H367	H	0.628083	-0.012580	-0.000145
H368	H	0.961417	0.320753	0.333189
H369	H	1.294750	0.654087	0.666522
H370	H	0.737257	0.124181	0.196625
H371	H	1.070591	0.457514	0.529958
H372	H	1.403924	0.790847	0.863292
