data_functionalizedCrystal
_audit_creation_method	'MofGen! by Chris Wilmer'
_symmetry_space_group_name_H-M	'P1'
_symmetry_Int_Tables_number	1
_symmetry_cell_setting	triclinic
loop_
_symmetry_equiv_pos_as_xyz
  x,y,z
_cell_length_a	25.639242
_cell_length_b	25.639240
_cell_length_c	17.077396
_cell_angle_alpha	90.038257
_cell_angle_beta	90.020548
_cell_angle_gamma	90.025061
loop_
_atom_site_label
_atom_site_type_symbol
_atom_site_fract_x
_atom_site_fract_y
_atom_site_fract_z
Zn1	Zn	0.799279	-0.208258	0.443811
Zn2	Zn	1.299279	0.291742	0.943811
Zn3	Zn	0.799202	-0.295696	0.312523
Zn4	Zn	1.299202	0.204304	0.812523
Zn5	Zn	0.711845	-0.208264	0.312557
Zn6	Zn	1.211845	0.291736	0.812557
Zn7	Zn	0.711809	-0.295653	0.443744
Zn8	Zn	1.211809	0.204347	0.943744
O9	O	0.755534	-0.251968	0.378159
O10	O	1.255534	0.248032	0.878159
O11	O	0.872434	-0.219872	0.426409
O12	O	1.372434	0.280128	0.926409
O13	O	0.787597	-0.284118	0.202680
O14	O	1.287597	0.215882	0.702680
O15	O	0.723491	-0.135098	0.330010
O16	O	1.223491	0.364902	0.830010
O17	O	0.872377	-0.284112	0.329952
O18	O	1.372377	0.215888	0.829952
O19	O	0.787728	-0.135094	0.426442
O20	O	1.287728	0.364906	0.926442
O21	O	0.723416	-0.219883	0.202705
O22	O	1.223416	0.280117	0.702705
O23	O	0.638675	-0.219841	0.329945
O24	O	1.138675	0.280159	0.829945
O25	O	0.723429	-0.284039	0.553600
O26	O	1.223429	0.215961	1.053600
O27	O	0.638649	-0.284045	0.426328
O28	O	1.138649	0.215955	0.926328
O29	O	0.787693	-0.219831	0.553649
O30	O	1.287693	0.280169	1.053649
O31	O	0.787561	-0.368855	0.329887
O32	O	1.287561	0.131145	0.829887
O33	O	0.723354	-0.368824	0.426295
O34	O	1.223354	0.131176	0.926295
C35	C	0.619691	-0.251939	0.378133
C36	C	1.119691	0.248061	0.878133
C37	C	0.561577	-0.251940	0.378141
C38	C	1.061577	0.248060	0.878141
C39	C	0.310421	-0.218577	0.428475
C40	C	0.810421	0.281423	0.928475
C41	C	0.365025	-0.218572	0.428471
C42	C	0.865025	0.281428	0.928471
O43	O	0.393294	-0.190183	0.471262
O44	O	0.893294	0.309817	0.971262
N45	N	0.392303	-0.251962	0.378168
N46	N	0.892303	0.248038	0.878168
C47	C	0.364974	-0.285362	0.327871
C48	C	0.864974	0.214638	0.827871
O49	O	0.393190	-0.313763	0.285084
O50	O	0.893190	0.186237	0.785084
C51	C	0.310370	-0.285370	0.327880
C52	C	0.810370	0.214630	0.827880
C53	C	0.283096	-0.251974	0.378181
C54	C	0.783096	0.248026	0.878181
C55	C	0.283146	-0.185185	0.478773
C56	C	0.783146	0.314815	0.978773
C57	C	0.228546	-0.185190	0.478776
C58	C	0.728546	0.314810	0.978776
C59	C	0.201220	-0.218587	0.428482
C60	C	0.701220	0.281413	0.928482
C61	C	0.228495	-0.251979	0.378184
C62	C	0.728495	0.248021	0.878184
C63	C	0.283042	-0.318772	0.277588
C64	C	0.783042	0.181228	0.777588
C65	C	0.228435	-0.318777	0.277602
C66	C	0.728435	0.181223	0.777602
C67	C	0.201160	-0.285382	0.327903
C68	C	0.701160	0.214618	0.827903
C69	C	0.146569	-0.285380	0.327893
C70	C	0.646569	0.214620	0.827893
N71	N	0.119291	-0.251991	0.378197
N72	N	0.619291	0.248009	0.878197
C73	C	0.146617	-0.218594	0.428491
C74	C	0.646617	0.281406	0.928491
C75	C	0.479644	-0.285345	0.327857
C76	C	0.979644	0.214655	0.827857
C77	C	0.534247	-0.285335	0.327843
C78	C	1.034247	0.214665	0.827843
C79	C	0.534295	-0.218546	0.428445
C80	C	1.034295	0.281454	0.928445
C81	C	0.479691	-0.218553	0.428454
C82	C	0.979691	0.281447	0.928454
C83	C	0.452367	-0.251955	0.378160
C84	C	0.952367	0.248045	0.878160
C85	C	0.031952	-0.218606	0.428493
C86	C	0.531952	0.281394	0.928493
C87	C	-0.022654	-0.218612	0.428490
C88	C	0.477346	0.281388	0.928490
C89	C	-0.022697	-0.285403	0.327892
C90	C	0.477303	0.214597	0.827892
C91	C	0.031904	-0.285395	0.327892
C92	C	0.531904	0.214605	0.827892
C93	C	0.059227	-0.251995	0.378199
C94	C	0.559227	0.248005	0.878199
O95	O	0.118266	-0.313756	0.285127
O96	O	0.618266	0.186244	0.785127
O97	O	0.118394	-0.190203	0.471278
O98	O	0.618394	0.309797	0.971278
C99	C	0.755460	-0.387810	0.378097
C100	C	1.255460	0.112190	0.878097
C101	C	0.755476	-0.445924	0.378097
C102	C	1.255476	0.054076	0.878097
C103	C	0.788998	-0.806247	0.428461
C104	C	1.288998	-0.306247	0.928461
C105	C	0.789014	-0.860851	0.428477
C106	C	1.289014	-0.360851	0.928477
O107	O	0.817428	-0.889053	0.471236
O108	O	1.317428	-0.389053	0.971236
N109	N	0.755606	-0.888207	0.378235
N110	N	1.255606	-0.388207	0.878235
C111	C	0.722177	-0.860956	0.327978
C112	C	1.222177	-0.360956	0.827978
O113	O	0.693763	-0.889238	0.285245
O114	O	1.193763	-0.389238	0.785245
C115	C	0.722160	-0.806352	0.327967
C116	C	1.222160	-0.306352	0.827967
C117	C	0.755573	-0.778999	0.378207
C118	C	1.255573	-0.278999	0.878207
C119	C	0.822409	-0.778893	0.478698
C120	C	1.322409	-0.278893	0.978698
C121	C	0.822394	-0.724293	0.478681
C122	C	1.322394	-0.224293	0.978681
C123	C	0.788969	-0.697045	0.428427
C124	C	1.288969	-0.197045	0.928427
C125	C	0.755558	-0.724399	0.378190
C126	C	1.255558	-0.224399	0.878190
C127	C	0.688728	-0.779102	0.277715
C128	C	1.188728	-0.279102	0.777715
C129	C	0.688713	-0.724495	0.277708
C130	C	1.188713	-0.224495	0.777708
C131	C	0.722127	-0.697142	0.327949
C132	C	1.222127	-0.197142	0.827949
C133	C	0.722118	-0.642551	0.327919
C134	C	1.222118	-0.142551	0.827919
N135	N	0.755526	-0.615195	0.378161
N136	N	1.255526	-0.115195	0.878161
C137	C	0.788951	-0.642442	0.428416
C138	C	1.288951	-0.142442	0.928416
C139	C	0.722216	-0.975626	0.328007
C140	C	1.222216	-0.475626	0.828007
C141	C	0.722236	-1.030229	0.328014
C142	C	1.222236	-0.530229	0.828014
C143	C	0.789072	-1.030120	0.428514
C144	C	1.289072	-0.530120	0.928514
C145	C	0.789054	-0.975517	0.428503
C146	C	1.289054	-0.475517	0.928503
C147	C	0.755624	-0.948270	0.378250
C148	C	1.255624	-0.448270	0.878250
C149	C	0.788918	-0.527777	0.428375
C150	C	1.288918	-0.027777	0.928375
C151	C	0.788901	-0.473172	0.428351
C152	C	1.288901	0.026828	0.928351
C153	C	0.722064	-0.473285	0.327854
C154	C	1.222064	0.026715	0.827854
C155	C	0.722082	-0.527886	0.327875
C156	C	1.222082	-0.027886	0.827875
C157	C	0.755510	-0.555130	0.378142
C158	C	1.255510	-0.055130	0.878142
O159	O	0.693717	-0.614314	0.285184
O160	O	1.193717	-0.114314	0.785184
O161	O	0.817356	-0.614153	0.471149
O162	O	1.317356	-0.114153	0.971149
C163	C	0.891907	-0.251996	0.378185
C164	C	1.391907	0.248004	0.878185
C165	C	0.950021	-0.252009	0.378196
C166	C	1.450021	0.247991	0.878196
C167	C	0.755565	-0.251929	0.582903
C168	C	1.255565	0.248071	1.082903
C169	C	0.755579	-0.251913	0.670153
C170	C	1.255579	0.248087	1.170153
C171	C	0.755622	-0.115595	0.378238
C172	C	1.255622	0.384405	0.878238
C173	C	0.755660	-0.057481	0.378271
C174	C	1.255660	0.442519	0.878271
C175	C	0.755532	-0.251968	0.174211
C176	C	1.255532	0.248032	0.674211
C177	C	0.755620	-0.251838	0.086962
C178	C	1.255620	0.248162	0.586962
C179	C	0.789042	-0.218477	0.711170
C180	C	1.289042	0.281523	1.211170
C181	C	0.789048	-0.218459	0.793151
C182	C	1.289048	0.281541	1.293151
C183	C	0.755594	-0.251881	0.834112
C184	C	1.255594	0.248119	1.334112
C185	C	0.722127	-0.285319	0.793090
C186	C	1.222127	0.214681	1.293090
C187	C	0.722118	-0.285333	0.711111
C188	C	1.222118	0.214667	1.211111
C189	C	0.722148	-0.285287	0.963960
C190	C	1.222148	0.214713	1.463960
C191	C	0.722157	-0.285274	1.045944
C192	C	1.222157	0.214726	1.545944
C193	C	0.789078	-0.218414	1.046000
C194	C	1.289078	0.281586	1.546000
C195	C	0.789069	-0.218428	0.964021
C196	C	1.289069	0.281572	1.464021
C197	C	0.755603	-0.251866	0.923003
C198	C	1.255603	0.248134	1.423003
H199	H	0.457488	-0.191359	0.469412
H200	H	0.957488	0.308641	0.969412
H201	H	0.457400	-0.312544	0.286896
H202	H	0.957400	0.187456	0.786896
H203	H	0.816286	-0.191262	0.677825
H204	H	1.316286	0.308738	1.177825
F205	F	0.312220	-0.149637	0.532310
F206	F	0.812220	0.350363	1.032310
H207	H	0.816299	-0.191234	0.826543
H208	H	1.316299	0.308766	1.326543
F209	F	0.653131	-0.695501	0.224221
F210	F	1.153131	-0.195501	0.724221
H211	H	0.305240	-0.345967	0.236628
H212	H	0.805240	0.154033	0.736628
F213	F	0.060933	-0.320940	0.274359
F214	F	0.560933	0.179060	0.774359
H215	H	0.556553	-0.191352	0.469397
H216	H	1.056553	0.308648	0.969397
F217	F	0.686528	-0.320875	0.920308
F218	F	1.186528	0.179125	1.420308
F219	F	0.199357	-0.354333	0.224076
F220	F	0.699357	0.145667	0.724076
F221	F	-0.051788	-0.320943	0.274366
F222	F	0.448212	0.179057	0.774366
F223	F	0.824679	-0.182860	0.920428
F224	F	1.324679	0.317140	1.420428
F225	F	0.824467	-0.444064	0.481825
F226	F	1.324467	0.055936	0.981825
H227	H	0.816135	-0.549953	0.469313
H228	H	1.316135	-0.049953	0.969313
F229	F	0.857954	-0.695188	0.532159
F230	F	1.357954	-0.195188	1.032159
F231	F	0.824696	-0.182826	1.089654
F232	F	1.324696	0.317174	1.589654
H233	H	0.694914	-0.312487	1.079293
H234	H	1.194914	0.187513	1.579293
F235	F	0.686519	-0.320887	0.836686
F236	F	1.186519	0.179113	1.336686
F237	F	0.857986	-0.807884	0.532194
F238	F	1.357986	-0.307884	1.032194
H239	H	0.694864	-0.312555	0.677715
H240	H	1.194864	0.187445	1.177715
H241	H	0.816262	-0.953249	0.469413
H242	H	1.316262	-0.453249	0.969413
H243	H	-0.044859	-0.191415	0.469451
H244	H	0.455141	0.308585	0.969451
F245	F	0.563269	-0.320870	0.274293
F246	F	1.063269	0.179130	0.774293
H247	H	0.816288	-1.052315	0.469435
H248	H	1.316288	-0.552315	0.969435
H249	H	0.054191	-0.191408	0.469458
H250	H	0.554191	0.308592	0.969458
F251	F	0.686680	-1.059334	0.274531
F252	F	1.186680	-0.559334	0.774531
F253	F	0.686635	-0.946633	0.274512
F254	F	1.186635	-0.446633	0.774512
H255	H	0.661520	-0.801364	0.236803
H256	H	1.161520	-0.301364	0.736803
H257	H	0.694851	-0.451092	0.286935
H258	H	1.194851	0.048908	0.786935
F259	F	0.199524	-0.149649	0.532320
F260	F	0.699524	0.350351	1.032320
F261	F	0.686526	-0.556998	0.274394
F262	F	1.186526	-0.056998	0.774394
