data_functionalizedCrystal
_audit_creation_method	'MofGen! by Chris Wilmer'
_symmetry_space_group_name_H-M	'P1'
_symmetry_Int_Tables_number	1
_symmetry_cell_setting	triclinic
loop_
_symmetry_equiv_pos_as_xyz
  x,y,z
_cell_length_a	19.121215
_cell_length_b	19.120786
_cell_length_c	19.121243
_cell_angle_alpha	94.785083
_cell_angle_beta	94.784136
_cell_angle_gamma	94.789602
loop_
_atom_site_label
_atom_site_type_symbol
_atom_site_fract_x
_atom_site_fract_y
_atom_site_fract_z
Zn1	Zn	1.083005	-0.215140	0.434264
Zn2	Zn	1.072438	-0.338270	0.311103
Zn3	Zn	0.959878	-0.225621	0.311112
Zn4	Zn	0.959817	-0.338252	0.423698
O5	O	1.018785	-0.279321	0.370044
O6	O	1.180265	-0.227094	0.422344
O7	O	1.053110	-0.327721	0.212443
O8	O	0.980659	-0.125563	0.331874
O9	O	1.172502	-0.317558	0.331859
O10	O	1.071121	-0.117863	0.422353
O11	O	0.970413	-0.244958	0.212450
O12	O	0.861208	-0.244941	0.321629
O13	O	0.980555	-0.317527	0.523760
O14	O	0.861163	-0.327691	0.404345
O15	O	1.071061	-0.227077	0.531523
O16	O	1.053051	-0.436935	0.321613
O17	O	0.970308	-0.436922	0.404336
C18	C	0.835604	-0.287452	0.361842
C19	C	0.757239	-0.290946	0.358349
C20	C	0.313817	-0.313069	0.336249
C21	C	0.387450	-0.309782	0.339526
C22	C	0.428310	-0.261109	0.388346
C23	C	0.395534	-0.215716	0.433887
C24	C	0.321903	-0.219000	0.430606
C25	C	0.650832	-0.248837	0.400609
C26	C	0.724468	-0.245558	0.403888
C27	C	0.716378	-0.339623	0.309526
C28	C	0.642745	-0.342906	0.306252
C29	C	0.609976	-0.297510	0.351790
C30	C	0.503575	-0.257750	0.391698
C31	C	0.534713	-0.300867	0.348434
C32	C	1.010546	-0.462510	0.361843
C33	C	1.007087	-0.540876	0.358361
C34	C	1.052528	-0.573622	0.403868
C35	C	1.049275	-0.647255	0.400598
C36	C	1.000584	-0.688139	0.351816
C37	C	0.955138	-0.655388	0.306307
C38	C	0.958388	-0.581757	0.309582
C39	C	0.988413	-0.910662	0.339574
C40	C	0.985168	-0.984298	0.336302
C41	C	1.079304	-0.976159	0.430593
C42	C	1.082553	-0.902527	0.433861
C43	C	1.037104	-0.869782	0.388354
C44	C	0.997259	-0.763404	0.348471
C45	C	1.040426	-0.794519	0.391704
C46	C	1.202681	-0.271159	0.378279
C47	C	1.281046	-0.267681	0.381788
C48	C	1.026980	-0.271131	0.553939
C49	C	1.030472	-0.267641	0.632304
C50	C	1.027076	-0.095415	0.378293
C51	C	1.030609	-0.017045	0.381809
C52	C	0.984992	-0.313090	0.665079
C53	C	0.988279	-0.309811	0.738712
C54	C	1.037044	-0.261078	0.779567
C55	C	1.082528	-0.215626	0.746787
C56	C	1.079244	-0.218910	0.673156
C57	C	1.049321	-0.248811	1.002088
C58	C	1.052600	-0.245530	1.075724
C59	C	0.958351	-0.339716	1.067644
C60	C	0.955069	-0.342992	0.994011
C61	C	1.000556	-0.297543	0.961237
C62	C	1.040403	-0.257723	0.854831
C63	C	0.997199	-0.300902	0.885974
C64	C	1.010615	-0.287493	1.186864
C65	C	1.007120	-0.290979	1.108499
H66	H	0.414128	-0.346741	0.302442
H67	H	0.957616	-0.796701	0.308751
H68	H	0.951408	-0.884007	0.302520
F69	F	0.270336	-0.364878	0.284293
H70	H	0.945275	-0.352766	0.631820
H71	H	0.951245	-0.346822	0.765394
F72	F	0.767954	-0.193751	0.455850
H73	H	1.092180	-0.540338	0.443588
H74	H	1.086360	-0.211803	0.975412
H75	H	0.743067	-0.376581	0.272450
H76	H	1.092308	-0.205839	1.108987
H77	H	0.915489	-0.688683	0.266591
F78	F	1.092299	-0.205858	0.898319
H79	H	0.609481	-0.382540	0.266497
F80	F	0.615965	-0.200527	0.449080
F81	F	0.945304	-0.352767	0.842492
F82	F	0.439023	-0.163913	0.485843
H83	H	0.915370	-0.382686	0.960751
H84	H	0.921384	-0.555096	0.272526
H85	H	0.921319	-0.376718	1.094336
H86	H	1.122236	-0.175950	0.780057
F87	F	1.092242	-0.751005	0.443622
H88	H	1.116279	-0.181900	0.646471
F89	F	0.287026	-0.170689	0.479073
H90	H	1.086283	-0.673913	0.437649
F91	F	0.491225	-0.352663	0.296476
H92	H	0.536851	-0.218122	0.431449
H93	H	1.122201	-0.869240	0.473582
H94	H	1.116305	-1.002828	0.467643
H95	H	0.945514	-1.017585	0.296577
