data_functionalizedCrystal
_audit_creation_method	'MofGen! by Chris Wilmer'
_symmetry_space_group_name_H-M	'P1'
_symmetry_Int_Tables_number	1
_symmetry_cell_setting	triclinic
loop_
_symmetry_equiv_pos_as_xyz
  x,y,z
_cell_length_a	10.654550
_cell_length_b	12.837942
_cell_length_c	11.892095
_cell_angle_alpha	94.302569
_cell_angle_beta	93.940295
_cell_angle_gamma	90.343079
loop_
_atom_site_label
_atom_site_type_symbol
_atom_site_fract_x
_atom_site_fract_y
_atom_site_fract_z
O1	O	1.690993	-0.139141	0.094097
O2	O	1.327028	-0.153026	0.094079
O3	O	1.500940	0.004877	0.094081
O4	O	1.517082	-0.297044	0.094095
O5	O	1.486437	-0.008269	-0.093927
O6	O	1.312525	-0.166171	-0.093929
O7	O	1.676490	-0.152286	-0.093910
Zn8	Zn	1.492205	-0.161316	-0.123770
Zn9	Zn	1.511313	-0.143997	0.123938
O10	O	1.502579	-0.310189	-0.093912
C11	C	1.272868	-0.158579	0.000073
C12	C	1.133091	-0.155530	0.000066
N13	N	1.479174	-0.173135	-0.292824
C14	C	1.488236	0.036964	0.000077
C15	C	1.471973	0.152158	0.000078
C16	C	1.063752	-0.248499	0.000087
C17	C	0.932419	-0.245626	0.000106
C18	C	0.939776	-0.056806	0.000088
C19	C	1.071106	-0.059681	0.000061
C20	C	1.125737	-0.344348	0.000092
C21	C	1.056398	-0.437325	0.000114
C22	C	0.925065	-0.434452	0.000133
C23	C	0.863071	-0.338602	0.000131
C24	C	1.730651	-0.146733	0.000098
C25	C	1.870429	-0.149782	0.000113
C26	C	1.515283	-0.342276	0.000094
C27	C	1.531546	-0.457470	0.000100
C28	C	1.667480	0.391713	0.000112
C29	C	1.652206	0.499949	0.000113
C30	C	1.426153	0.476868	0.000090
C31	C	1.441427	0.368632	0.000089
C32	C	1.562094	0.326059	0.000098
C33	C	1.577367	0.217820	0.000089
C34	C	1.351315	0.194742	0.000074
C35	C	1.336041	0.302978	0.000075
C36	C	1.615027	-0.049865	-0.529471
C37	C	1.605928	-0.058134	-0.647813
C38	C	1.451871	-0.197937	-0.647852
C39	C	1.460970	-0.189668	-0.529510
C40	C	1.542552	-0.115630	-0.470324
C41	C	1.551657	-0.107367	-0.351979
C42	C	1.397593	-0.247165	-0.352021
C43	C	1.388494	-0.255434	-0.470363
N44	N	1.524354	-0.132169	0.292993
H45	H	1.232675	-0.346698	0.000081
H46	H	0.868612	-0.510158	0.000140
H47	H	1.664943	-0.004580	-0.695967
C48	C	1.730209	-0.076776	-0.218791
C49	C	1.641268	-0.025957	-0.286888
H50	H	1.785515	-0.026505	-0.178606
H51	H	1.688347	-0.114778	-0.166653
H52	H	1.777097	-0.123500	-0.264936
H53	H	1.594373	0.020762	-0.240742
H54	H	1.683133	0.012062	-0.339032
C55	C	1.273281	-0.228423	-0.780993
C56	C	1.362197	-0.279306	-0.712933
H57	H	1.217926	-0.278658	-0.821178
H58	H	1.226453	-0.181683	-0.734832
H59	H	1.315165	-0.190434	-0.833142
H60	H	1.320313	-0.317289	-0.660779
H61	H	1.409031	-0.326065	-0.759099
H62	H	1.675620	0.183159	0.000092
H63	H	1.765731	0.357049	0.000108
H64	H	1.327912	0.511551	0.000094
C65	C	1.190088	-0.303906	-0.315632
C66	C	1.317924	-0.319463	-0.287003
H67	H	1.140913	-0.348546	-0.275495
H68	H	1.169649	-0.233213	-0.296233
H69	H	1.173005	-0.319427	-0.394585
H70	H	1.335010	-0.303934	-0.208051
H71	H	1.338371	-0.390172	-0.306394
H72	H	1.738023	0.553402	0.000128
H73	H	1.106881	-0.515363	0.000107
H74	H	0.756130	-0.336271	0.000129
H75	H	0.889292	0.021232	0.000105
H76	H	1.681464	0.010413	-0.481280
H77	H	1.322068	-0.315712	-0.518566
C78	C	1.065199	0.127251	0.000072
C79	C	1.147334	0.042512	0.000052
H80	H	1.112263	0.190340	0.000072
H81	H	1.008750	0.119868	-0.065478
H82	H	1.018895	0.129020	0.065648
H83	H	1.193632	0.040738	-0.065528
H84	H	1.203805	0.049897	0.065608
H85	H	1.237797	0.337657	0.000072
H86	H	1.265501	0.141273	0.000054
