data_functionalizedCrystal
_audit_creation_method	'MofGen! by Chris Wilmer'
_symmetry_space_group_name_H-M	'P1'
_symmetry_Int_Tables_number	1
_symmetry_cell_setting	triclinic
loop_
_symmetry_equiv_pos_as_xyz
  x,y,z
_cell_length_a	10.654550
_cell_length_b	15.995350
_cell_length_c	9.130313
_cell_angle_alpha	90.000982
_cell_angle_beta	89.996220
_cell_angle_gamma	83.988639
loop_
_atom_site_label
_atom_site_type_symbol
_atom_site_fract_x
_atom_site_fract_y
_atom_site_fract_z
O1	O	1.666298	0.117599	-0.121912
O2	O	1.300673	0.128803	-0.121888
O3	O	1.493480	0.001371	-0.121899
O4	O	1.473491	0.245030	-0.121900
O5	O	1.493478	0.001375	0.121700
O6	O	1.300671	0.128807	0.121711
O7	O	1.666295	0.117602	0.121687
Cu8	Cu	1.483483	0.123205	0.143942
Cu9	Cu	1.483486	0.123201	-0.144142
O10	O	1.473488	0.245034	0.121698
C11	C	1.253885	0.127982	-0.000085
C12	C	1.114473	0.125521	-0.000076
C13	C	1.034008	0.200551	-0.000098
C14	C	0.903017	0.198233	-0.000123
C15	C	0.932971	0.045849	-0.000111
C16	C	1.063959	0.048168	-0.000075
C17	C	1.016713	0.288528	-0.000111
C18	C	0.885722	0.286211	-0.000137
C19	C	1.492652	-0.029827	-0.000102
C20	C	1.490175	-0.122791	-0.000110
C21	C	1.481278	-0.460591	-0.000105
C22	C	1.343964	-0.413954	-0.000642
C23	C	1.346442	-0.317249	-0.000093
C24	C	1.485691	-0.293004	-0.000108
C25	C	1.553417	-0.333687	0.138991
C26	C	1.549968	-0.430342	0.139108
C27	C	1.552807	-0.430688	-0.137910
C28	C	1.552775	-0.333743	-0.139748
C29	C	1.488192	-0.198292	-0.000106
C30	C	1.478780	-0.555303	-0.000098
C31	C	1.713084	0.118423	-0.000119
C32	C	1.852495	0.120884	-0.000137
C33	C	1.474316	0.276232	-0.000101
C34	C	1.476793	0.369197	-0.000103
N35	N	1.483490	0.123207	0.346564
N36	N	1.483488	0.123192	-0.346765
C37	C	1.568887	0.066800	0.423211
C38	C	1.568883	0.066789	0.576548
C39	C	1.398083	0.179602	0.576578
C40	C	1.398081	0.179607	0.423244
C41	C	1.667501	0.001671	0.423195
C42	C	1.667497	0.001661	0.576532
H43	H	0.843557	0.319358	-0.102090
H44	H	1.637779	-0.059156	0.624082
C45	C	1.639659	-0.085269	0.366964
N46	N	1.618686	-0.150750	0.324611
H47	H	1.758418	0.022063	0.375631
H48	H	1.293204	-0.289138	-0.099805
C49	C	1.064398	0.326356	-0.142204
N50	N	1.100317	0.354840	-0.249236
H51	H	0.839702	0.312800	0.105032
C52	C	1.797593	0.021105	0.632752
N53	N	1.895565	0.035775	0.675097
C54	C	0.877392	-0.039235	-0.000118
N55	N	0.835532	-0.103323	-0.000127
C56	C	1.152468	-0.034371	-0.000031
N57	N	1.219134	-0.096543	0.000003
C58	C	1.055736	0.335011	0.137619
N59	N	1.085128	0.370019	0.241358
H60	H	1.654048	-0.461861	-0.138855
H61	H	1.289082	-0.432806	-0.100393
C62	C	1.304234	0.241724	0.338937
N63	N	1.233583	0.288539	0.275438
C64	C	1.304136	0.241637	0.660939
N65	N	1.233373	0.288364	0.724479
H66	H	1.289324	-0.433864	0.098560
H67	H	1.292844	-0.289694	0.099796
H68	H	1.500580	-0.448929	0.243098
C69	C	1.689965	-0.312200	-0.151106
N70	N	1.793304	-0.295978	-0.159647
H71	H	1.650782	-0.462005	0.145409
H72	H	1.655720	-0.318967	0.144153
H73	H	1.506376	-0.305577	0.242515
H74	H	1.507914	-0.451490	-0.243339
H75	H	1.503258	-0.306783	-0.242650
