data_functionalizedCrystal
_audit_creation_method	'MofGen! by Chris Wilmer'
_symmetry_space_group_name_H-M	'P1'
_symmetry_Int_Tables_number	1
_symmetry_cell_setting	triclinic
loop_
_symmetry_equiv_pos_as_xyz
  x,y,z
_cell_length_a	9.065215
_cell_length_b	14.044220
_cell_length_c	7.540329
_cell_angle_alpha	89.995368
_cell_angle_beta	90.002218
_cell_angle_gamma	90.898179
loop_
_atom_site_label
_atom_site_type_symbol
_atom_site_fract_x
_atom_site_fract_y
_atom_site_fract_z
O1	O	-1.975819	0.139128	-0.147459
O2	O	-1.475819	0.639128	0.352541
O3	O	-1.547799	0.150544	-0.147469
O4	O	-1.047799	0.650544	0.352531
O5	O	-1.755385	0.006797	-0.147447
O6	O	-1.255385	0.506797	0.352553
O7	O	-1.768234	0.282876	-0.147482
O8	O	-1.268234	0.782876	0.352518
O9	O	-1.755371	0.006795	0.147518
O10	O	-1.255371	0.506795	0.647518
O11	O	-1.547785	0.150542	0.147496
O12	O	-1.047785	0.650542	0.647496
O13	O	-1.975805	0.139127	0.147506
O14	O	-1.475805	0.639127	0.647506
Cu15	Cu	-1.761794	0.144834	0.174434
Cu16	Cu	-1.261794	0.644834	0.674434
Cu17	Cu	-1.761810	0.144836	-0.174397
Cu18	Cu	-1.261810	0.644836	0.325603
O19	O	-1.768220	0.282874	0.147483
O20	O	-1.268220	0.782874	0.647483
C21	C	-1.492684	0.149447	0.000012
C22	C	-0.992684	0.649447	0.500012
C23	C	-1.328477	0.146168	0.000009
C24	C	-0.828477	0.646168	0.500009
C25	C	-1.749753	-0.028567	0.000036
C26	C	-1.249753	0.471433	0.500036
C27	C	-1.732976	-0.133937	0.000038
C28	C	-1.232976	0.366063	0.500038
C29	C	-1.702304	-0.326861	0.000012
C30	C	-1.202304	0.173139	0.500012
C31	C	-1.821294	-0.383474	0.000009
C32	C	-1.321294	0.116526	0.500009
C33	C	-1.804227	-0.490823	-0.000005
C34	C	-1.304227	0.009177	0.499995
C35	C	-1.719368	-0.219501	0.000026
C36	C	-1.219368	0.280499	0.500026
C37	C	-1.030921	0.140224	0.000020
C38	C	-0.530921	0.640224	0.500020
C39	C	-1.195127	0.143502	0.000008
C40	C	-0.695127	0.643502	0.500008
C41	C	-1.773851	0.318238	-0.000004
C42	C	-1.273851	0.818238	0.499996
C43	C	-1.790628	0.423608	-0.000017
C44	C	-1.290628	0.923608	0.499983
N45	N	-1.761793	0.144832	0.419782
N46	N	-1.261793	0.644832	0.919782
N47	N	-1.761822	0.144831	-0.419745
N48	N	-1.261822	0.644831	0.080255
H49	H	-1.935980	-0.351319	-0.000107
H50	H	-1.435980	0.148681	0.499893
F51	F	-1.552409	-0.368887	-0.000001
F52	F	-1.052409	0.131113	0.499999
