data_functionalizedCrystal
_audit_creation_method	'MofGen! by Chris Wilmer'
_symmetry_space_group_name_H-M	'P1'
_symmetry_Int_Tables_number	1
_symmetry_cell_setting	triclinic
loop_
_symmetry_equiv_pos_as_xyz
  x,y,z
_cell_length_a	18.101398
_cell_length_b	18.050589
_cell_length_c	18.101398
_cell_angle_alpha	90.004632
_cell_angle_beta	90.012704
_cell_angle_gamma	89.970035
loop_
_atom_site_label
_atom_site_type_symbol
_atom_site_fract_x
_atom_site_fract_y
_atom_site_fract_z
Zn1	Zn	1.132017	0.295966	0.418862
Zn2	Zn	1.382017	0.545966	0.668862
Zn3	Zn	1.632017	0.795966	0.918862
Zn4	Zn	1.882017	1.045966	1.168862
Zn5	Zn	1.131931	0.420101	0.295031
Zn6	Zn	1.381931	0.670101	0.545031
Zn7	Zn	1.631931	0.920101	0.795031
Zn8	Zn	1.881931	1.170101	1.045031
Zn9	Zn	1.008202	0.295919	0.295023
Zn10	Zn	1.258202	0.545919	0.545023
Zn11	Zn	1.508202	0.795919	0.795023
Zn12	Zn	1.758202	1.045919	1.045023
Zn13	Zn	1.008119	0.420109	0.418819
Zn14	Zn	1.258119	0.670109	0.668819
Zn15	Zn	1.508119	0.920109	0.918819
Zn16	Zn	1.758119	1.170109	1.168819
O17	O	1.070067	0.358024	0.356934
O18	O	1.320067	0.608024	0.606934
O19	O	1.570067	0.858024	0.856934
O20	O	1.820067	1.108024	1.106934
O21	O	1.235639	0.312450	0.402457
O22	O	1.485639	0.562450	0.652457
O23	O	1.735639	0.812450	0.902457
O24	O	1.985639	1.062450	1.152457
O25	O	1.115516	0.403604	0.191397
O26	O	1.365516	0.653604	0.441397
O27	O	1.615516	0.903604	0.691397
O28	O	1.865516	1.153604	0.941397
O29	O	1.024697	0.192000	0.311466
O30	O	1.274697	0.442000	0.561466
O31	O	1.524697	0.692000	0.811466
O32	O	1.774697	0.942000	1.061466
O33	O	1.235575	0.403650	0.311478
O34	O	1.485575	0.653650	0.561478
O35	O	1.735575	0.903650	0.811478
O36	O	1.985575	1.153650	1.061478
O37	O	1.115664	0.192035	0.402450
O38	O	1.365664	0.442035	0.652450
O39	O	1.615664	0.692035	0.902450
O40	O	1.865664	0.942035	1.152450
O41	O	1.024613	0.312368	0.191391
O42	O	1.274613	0.562368	0.441391
O43	O	1.524613	0.812368	0.691391
O44	O	1.774613	1.062368	0.941391
O45	O	0.904558	0.312376	0.311424
O46	O	1.154558	0.562376	0.561424
O47	O	1.404558	0.812376	0.811424
O48	O	1.654558	1.062376	1.061424
O49	O	1.024557	0.403664	0.522458
O50	O	1.274557	0.653664	0.772458
O51	O	1.524557	0.903664	1.022458
O52	O	1.774557	1.153664	1.272458
O53	O	0.904497	0.403618	0.402376
O54	O	1.154497	0.653618	0.652376
O55	O	1.404497	0.903618	0.902376
O56	O	1.654497	1.153618	1.152376
O57	O	1.115584	0.312458	0.522489
O58	O	1.365584	0.562458	0.772489
O59	O	1.615584	0.812458	1.022489
O60	O	1.865584	1.062458	1.272489
O61	O	1.115436	0.524026	0.311436
O62	O	1.365436	0.774026	0.561436
O63	O	1.615436	1.024026	0.811436
O64	O	1.865436	1.274026	1.061436
O65	O	1.024473	0.524032	0.402383
O66	O	1.274473	0.774032	0.652383
O67	O	1.524473	1.024032	0.902383
O68	O	1.774473	1.274032	1.152383
C69	C	0.877657	0.357993	0.356895
C70	C	1.127657	0.607993	0.606895
C71	C	1.377657	0.857993	0.856895
C72	C	1.627657	1.107993	1.106895
C73	C	0.795343	0.357998	0.356896
C74	C	1.045343	0.607998	0.606896
C75	C	1.295343	0.857998	0.856896
C76	C	1.545343	1.107998	1.106896
C77	C	1.069956	0.550976	0.356922
C78	C	1.319956	0.800976	0.606922
C79	C	1.569956	1.050976	0.856922
C80	C	1.819956	1.300976	1.106922
C81	C	1.069976	0.633522	0.356942
C82	C	1.319976	0.883522	0.606942
C83	C	1.569976	1.133522	0.856942
C84	C	1.819976	1.383522	1.106942
C85	C	0.496252	0.358045	0.356958
C86	C	0.746252	0.608045	0.606958
C87	C	0.996252	0.858045	0.856958
C88	C	1.246252	1.108045	1.106958
C89	C	0.527590	0.300351	0.300013
C90	C	0.777590	0.550351	0.550013
C91	C	1.027590	0.800351	0.800013
C92	C	1.277590	1.050351	1.050013
C93	C	0.613208	0.300506	0.299770
C94	C	0.863208	0.550506	0.549770
C95	C	1.113208	0.800506	0.799770
C96	C	1.363208	1.050506	1.049770
C97	C	0.644634	0.358021	0.356928
C98	C	0.894634	0.608021	0.606928
C99	C	1.144634	0.858021	0.856928
C100	C	1.394634	1.108021	1.106928
C101	C	0.613516	0.436242	0.335609
C102	C	0.863516	0.686242	0.585609
C103	C	1.113516	0.936242	0.835609
C104	C	1.363516	1.186242	1.085609
C105	C	0.527870	0.435921	0.335213
C106	C	0.777870	0.685921	0.585213
C107	C	1.027870	0.935921	0.835213
C108	C	1.277870	1.185921	1.085213
C109	C	0.527852	0.338198	0.435356
C110	C	0.777852	0.588198	0.685356
C111	C	1.027852	0.838198	0.935356
C112	C	1.277852	1.088198	1.185356
C113	C	0.613503	0.336456	0.434928
C114	C	0.863503	0.586456	0.684928
C115	C	1.113503	0.836456	0.934928
C116	C	1.363503	1.086456	1.184928
C117	C	0.728494	0.358013	0.356911
C118	C	0.978494	0.608013	0.606911
C119	C	1.228494	0.858013	0.856911
C120	C	1.478494	1.108013	1.106911
C121	C	0.412392	0.358059	0.356973
C122	C	0.662392	0.608059	0.606973
C123	C	0.912392	0.858059	0.856973
C124	C	1.162392	1.108059	1.106973
C125	C	1.020536	0.833002	0.406382
C126	C	1.270536	1.083002	0.656382
C127	C	1.520536	1.333002	0.906382
C128	C	1.770536	1.583002	1.156382
C129	C	1.002493	0.882408	0.338804
C130	C	1.252493	1.132408	0.588804
C131	C	1.502493	1.382408	0.838804
C132	C	1.752493	1.632408	1.088804
C133	C	1.070032	0.784652	0.356952
C134	C	1.320032	1.034652	0.606952
C135	C	1.570032	1.284652	0.856952
C136	C	1.820032	1.534652	1.106952
C137	C	1.088096	0.882328	0.424539
C138	C	1.338096	1.132328	0.674539
C139	C	1.588096	1.382328	0.924539
C140	C	1.838096	1.632328	1.174539
C141	C	1.070084	0.930637	0.356968
C142	C	1.320084	1.180637	0.606968
C143	C	1.570084	1.430637	0.856968
C144	C	1.820084	1.680637	1.106968
C145	C	1.051953	0.832970	0.289338
C146	C	1.301953	1.082970	0.539338
C147	C	1.551953	1.332970	0.789338
C148	C	1.801953	1.582970	1.039338
C149	C	1.137587	0.832886	0.375119
C150	C	1.387587	1.082886	0.625119
C151	C	1.637587	1.332886	0.875119
C152	C	1.887587	1.582886	1.125119
C153	C	1.119569	0.882269	0.307494
C154	C	1.369569	1.132269	0.557494
C155	C	1.619569	1.382269	0.807494
C156	C	1.869569	1.632269	1.057494
C157	C	1.070000	0.700554	0.356944
C158	C	1.320000	0.950554	0.606944
C159	C	1.570000	1.200554	0.856944
C160	C	1.820000	1.450554	1.106944
C161	C	1.070117	1.014734	0.356968
C162	C	1.320117	1.264734	0.606968
C163	C	1.570117	1.514734	0.856968
C164	C	1.820117	1.764734	1.106968
C165	C	1.263229	0.358054	0.356973
C166	C	1.513229	0.608054	0.606973
C167	C	1.763229	0.858054	0.856973
C168	C	2.013229	1.108054	1.106973
C169	C	1.345543	0.358068	0.356990
C170	C	1.595543	0.608068	0.606990
C171	C	1.845543	0.858068	0.856990
C172	C	2.095543	1.108068	1.106990
C173	C	1.070071	0.358067	0.550096
C174	C	1.320071	0.608067	0.800096
C175	C	1.570071	0.858067	1.050096
C176	C	1.820071	1.108067	1.300096
C177	C	1.070072	0.358086	0.632410
C178	C	1.320072	0.608086	0.882410
C179	C	1.570072	0.858086	1.132410
C180	C	1.820072	1.108086	1.382410
C181	C	1.070171	1.164318	0.356963
C182	C	1.320171	1.414318	0.606963
C183	C	1.570171	1.664318	0.856963
C184	C	1.820171	1.914318	1.106963
C185	C	1.070142	1.081772	0.356977
C186	C	1.320142	1.331772	0.606977
C187	C	1.570142	1.581772	0.856977
C188	C	1.820142	1.831772	1.106977
C189	C	1.070055	0.358043	0.931501
C190	C	1.320055	0.608043	1.181501
C191	C	1.570055	0.858043	1.431501
C192	C	1.820055	1.108043	1.681501
C193	C	1.012592	0.415235	0.900156
C194	C	1.262592	0.665235	1.150156
C195	C	1.512592	0.915235	1.400156
C196	C	1.762592	1.165235	1.650156
C197	C	1.012765	0.415473	0.814537
C198	C	1.262765	0.665473	1.064537
C199	C	1.512765	0.915473	1.314537
C200	C	1.762765	1.165473	1.564537
C201	C	1.070063	0.358064	0.783118
C202	C	1.320063	0.608064	1.033118
C203	C	1.570063	0.858064	1.283118
C204	C	1.820063	1.108064	1.533118
C205	C	1.148081	0.379325	0.814226
C206	C	1.398081	0.629325	1.064226
C207	C	1.648081	0.879325	1.314226
C208	C	1.898081	1.129325	1.564226
C209	C	1.147743	0.379728	0.899871
C210	C	1.397743	0.629728	1.149871
C211	C	1.647743	0.879728	1.399871
C212	C	1.897743	1.129728	1.649871
C213	C	1.050185	0.279453	0.899919
C214	C	1.300185	0.529453	1.149919
C215	C	1.550185	0.779453	1.399919
C216	C	1.800185	1.029453	1.649919
C217	C	1.048466	0.279879	0.814268
C218	C	1.298466	0.529879	1.064268
C219	C	1.548466	0.779879	1.314268
C220	C	1.798466	1.029879	1.564268
C221	C	1.070072	0.358075	0.699259
C222	C	1.320072	0.608075	0.949259
C223	C	1.570072	0.858075	1.199259
C224	C	1.820072	1.108075	1.449259
C225	C	1.070051	0.358034	1.015360
C226	C	1.320051	0.608034	1.265360
C227	C	1.570051	0.858034	1.515360
C228	C	1.820051	1.108034	1.765360
C229	C	1.070055	0.358008	1.164523
C230	C	1.320055	0.608008	1.414523
C231	C	1.570055	0.858008	1.664523
C232	C	1.820055	1.108008	1.914523
C233	C	1.070045	0.358022	1.082209
C234	C	1.320045	0.608022	1.332209
C235	C	1.570045	0.858022	1.582209
C236	C	1.820045	1.108022	1.832209
H237	H	0.507021	0.242169	0.313228
H238	H	0.757021	0.492169	0.563228
H239	H	1.007021	0.742169	0.813228
H240	H	1.257021	0.992169	1.063228
H241	H	0.634250	0.242501	0.313132
H242	H	0.884250	0.492501	0.563132
H243	H	1.134250	0.742501	0.813132
H244	H	1.384250	0.992501	1.063132
H245	H	1.036629	0.811380	0.232171
H246	H	1.286629	1.061380	0.482171
H247	H	1.536629	1.311380	0.732171
H248	H	1.786629	1.561380	0.982171
N249	N	1.108308	0.911053	0.500237
N250	N	1.358308	1.161053	0.750237
N251	N	1.608308	1.411053	1.000237
N252	N	1.858308	1.661053	1.250237
H253	H	1.070864	0.893133	0.537525
H254	H	1.320864	1.143133	0.787525
H255	H	1.570864	1.393133	1.037525
H256	H	1.820864	1.643133	1.287525
H257	H	1.158965	0.892261	0.514273
H258	H	1.408965	1.142261	0.764273
H259	H	1.658965	1.392261	1.014273
H260	H	1.908965	1.642261	1.264273
N261	N	0.926852	0.911232	0.318456
N262	N	1.176852	1.161232	0.568456
N263	N	1.426852	1.411232	0.818456
N264	N	1.676852	1.661232	1.068456
H265	H	0.930440	0.942018	0.272007
H266	H	1.180440	1.192018	0.522007
H267	H	1.430440	1.442018	0.772007
H268	H	1.680440	1.692018	1.022007
H269	H	0.892399	0.868118	0.309722
H270	H	1.142399	1.118118	0.559722
H271	H	1.392399	1.368118	0.809722
H272	H	1.642399	1.618118	1.059722
H273	H	0.978625	0.811369	0.448124
H274	H	1.228625	1.061369	0.698124
H275	H	1.478625	1.311369	0.948124
H276	H	1.728625	1.561369	1.198124
H277	H	0.633673	0.313623	0.241678
H278	H	0.883673	0.563623	0.491678
H279	H	1.133673	0.813623	0.741678
H280	H	1.383673	1.063623	0.991678
N281	N	0.498784	0.317486	0.223606
N282	N	0.748784	0.567486	0.473606
N283	N	0.998784	0.817486	0.723606
N284	N	1.248784	1.067486	0.973606
H285	H	0.514873	0.368902	0.208619
H286	H	0.764873	0.618902	0.458619
H287	H	1.014873	0.868902	0.708619
H288	H	1.264873	1.118902	0.958619
H289	H	0.519049	0.280144	0.187323
H290	H	0.769049	0.530144	0.437323
H291	H	1.019049	0.780144	0.687323
H292	H	1.269049	1.030144	0.937323
H293	H	1.161448	0.903766	0.265651
H294	H	1.411448	1.153766	0.515651
H295	H	1.661448	1.403766	0.765651
H296	H	1.911448	1.653766	1.015651
N297	N	0.499277	0.263965	0.461040
N298	N	0.749277	0.513965	0.711040
N299	N	0.999277	0.763965	0.961040
N300	N	1.249277	1.013965	1.211040
H301	H	0.465553	0.242448	0.422110
H302	H	0.715553	0.492448	0.672110
H303	H	0.965553	0.742448	0.922110
H304	H	1.215553	0.992448	1.172110
H305	H	0.542251	0.229295	0.469566
H306	H	0.792251	0.479295	0.719566
H307	H	1.042251	0.729295	0.969566
H308	H	1.292251	0.979295	1.219566
N309	N	1.213209	0.804048	0.395497
N310	N	1.463209	1.054048	0.645497
N311	N	1.713209	1.304048	0.895497
N312	N	1.963209	1.554048	1.145497
H313	H	1.212741	0.748100	0.394862
H314	H	1.462741	0.998100	0.644862
H315	H	1.712741	1.248100	0.894862
H316	H	1.962741	1.498100	1.144862
H317	H	1.250721	0.822803	0.358692
H318	H	1.500721	1.072803	0.608692
H319	H	1.750721	1.322803	0.858692
H320	H	2.000721	1.572803	1.108692
H321	H	0.954911	0.402168	0.793504
H322	H	1.204911	0.652168	1.043504
H323	H	1.454911	0.902168	1.293504
H324	H	1.704911	1.152168	1.543504
H325	H	0.507869	0.452757	0.277901
H326	H	0.757869	0.702757	0.527901
H327	H	1.007869	0.952757	0.777901
H328	H	1.257869	1.202757	1.027901
H329	H	0.994274	0.260101	0.921503
H330	H	1.244274	0.510101	1.171503
H331	H	1.494274	0.760101	1.421503
H332	H	1.744274	1.010101	1.671503
H333	H	1.165227	0.436150	0.792788
H334	H	1.415227	0.686150	1.042788
H335	H	1.665227	0.936150	1.292788
H336	H	1.915227	1.186150	1.542788
N337	N	0.640438	0.260206	0.456224
N338	N	0.890438	0.510206	0.706224
N339	N	1.140438	0.760206	0.956224
N340	N	1.390438	1.010206	1.206224
H341	H	0.672675	0.239712	0.415522
H342	H	0.922675	0.489712	0.665522
H343	H	1.172675	0.739712	0.915522
H344	H	1.422675	0.989712	1.165522
H345	H	0.669953	0.263512	0.503463
H346	H	0.919953	0.513512	0.753463
H347	H	1.169953	0.763512	1.003463
H348	H	1.419953	1.013512	1.253463
N349	N	0.641833	0.388064	0.494146
N350	N	0.891833	0.638064	0.744146
N351	N	1.141833	0.888064	0.994146
N352	N	1.391833	1.138064	1.244146
H353	H	0.675398	0.426327	0.471147
H354	H	0.925398	0.676327	0.721147
H355	H	1.175398	0.926327	0.971147
H356	H	1.425398	1.176327	1.221147
H357	H	0.598737	0.413664	0.518740
H358	H	0.848737	0.663664	0.768740
H359	H	1.098737	0.913664	1.018740
H360	H	1.348737	1.163664	1.268740
H361	H	1.164590	0.437177	0.919859
H362	H	1.414590	0.687177	1.169859
H363	H	1.664590	0.937177	1.419859
H364	H	1.914590	1.187177	1.669859
N365	N	0.935709	0.397803	0.927400
N366	N	1.185709	0.647803	1.177400
N367	N	1.435709	0.897803	1.427400
N368	N	1.685709	1.147803	1.677400
H369	H	0.937378	0.352665	0.960330
H370	H	1.187378	0.602665	1.210330
H371	H	1.437378	0.852665	1.460330
H372	H	1.687378	1.102665	1.710330
H373	H	0.915945	0.441402	0.956262
H374	H	1.165945	0.691402	1.206262
H375	H	1.415945	0.941402	1.456262
H376	H	1.665945	1.191402	1.706262
H377	H	1.025579	0.473133	0.921686
H378	H	1.275579	0.723133	1.171686
H379	H	1.525579	0.973133	1.421686
H380	H	1.775579	1.223133	1.671686
N381	N	1.030147	0.492616	0.787403
N382	N	1.280147	0.742616	1.037403
N383	N	1.530147	0.992616	1.287403
N384	N	1.780147	1.242616	1.537403
H385	H	1.037736	0.526597	0.831078
H386	H	1.287736	0.776597	1.081078
H387	H	1.537736	1.026597	1.331078
H388	H	1.787736	1.276597	1.581078
H389	H	1.076594	0.491338	0.756524
H390	H	1.326594	0.741338	1.006524
H391	H	1.576594	0.991338	1.256524
H392	H	1.826594	1.241338	1.506524
H393	H	1.192009	0.339880	0.920608
H394	H	1.442009	0.589880	1.170608
H395	H	1.692009	0.839880	1.420608
H396	H	1.942009	1.089880	1.670608
H397	H	0.634941	0.453370	0.278916
H398	H	0.884941	0.703370	0.528916
H399	H	1.134941	0.953370	0.778916
H400	H	1.384941	1.203370	1.028916
H401	H	0.507138	0.480361	0.374882
H402	H	0.757138	0.730361	0.624882
H403	H	1.007138	0.980361	0.874882
H404	H	1.257138	1.230361	1.124882
N405	N	0.640446	0.494706	0.388844
N406	N	0.890446	0.744706	0.638844
N407	N	1.140446	0.994706	0.888844
N408	N	1.390446	1.244706	1.138844
H409	H	0.673160	0.470993	0.427381
H410	H	0.923160	0.720993	0.677381
H411	H	1.173160	0.970993	0.927381
H412	H	1.423160	1.220993	1.177381
H413	H	0.669457	0.533440	0.360956
H414	H	0.919457	0.783440	0.610956
H415	H	1.169457	1.033440	0.860956
H416	H	1.419457	1.283440	1.110956
N417	N	1.206331	0.325860	0.787286
N418	N	1.456331	0.575860	1.037286
N419	N	1.706331	0.825860	1.287286
N420	N	1.956331	1.075860	1.537286
H421	H	1.182651	0.287252	0.754577
H422	H	1.432651	0.537252	1.004577
H423	H	1.682651	0.787252	1.254577
H424	H	1.932651	1.037252	1.504577
H425	H	1.244983	0.353778	0.758265
H426	H	1.494983	0.603778	1.008265
H427	H	1.744983	0.853778	1.258265
H428	H	1.994983	1.103778	1.508265
H429	H	0.507584	0.380220	0.477786
H430	H	0.757584	0.630220	0.727786
H431	H	1.007584	0.880220	0.977786
H432	H	1.257584	1.130220	1.227786
N433	N	0.972417	0.258634	0.787335
N434	N	1.222417	0.508634	1.037335
N435	N	1.472417	0.758634	1.287335
N436	N	1.722417	1.008634	1.537335
H437	H	0.952033	0.299479	0.755088
H438	H	1.202033	0.549479	1.005088
H439	H	1.452033	0.799479	1.255088
H440	H	1.702033	1.049479	1.505088
H441	H	0.975678	0.211256	0.757829
H442	H	1.225678	0.461256	1.007829
H443	H	1.475678	0.711256	1.257829
H444	H	1.725678	0.961256	1.507829
N445	N	1.099869	0.220413	0.785943
N446	N	1.349869	0.470413	1.035943
N447	N	1.599869	0.720413	1.285943
N448	N	1.849869	0.970413	1.535943
H449	H	1.138057	0.243416	0.752370
H450	H	1.388057	0.493416	1.002370
H451	H	1.638057	0.743416	1.252370
H452	H	1.888057	0.993416	1.502370
H453	H	1.125362	0.195712	0.829040
H454	H	1.375362	0.445712	1.079040
H455	H	1.625362	0.695712	1.329040
H456	H	1.875362	0.945712	1.579040
H457	H	1.092039	0.236841	0.920191
H458	H	1.342039	0.486841	1.170191
H459	H	1.592039	0.736841	1.420191
H460	H	1.842039	0.986841	1.670191
