data_functionalizedCrystal
_audit_creation_method	'MofGen! by Chris Wilmer'
_symmetry_space_group_name_H-M	'P1'
_symmetry_Int_Tables_number	1
_symmetry_cell_setting	triclinic
loop_
_symmetry_equiv_pos_as_xyz
  x,y,z
_cell_length_a	10.723023
_cell_length_b	11.026607
_cell_length_c	9.798715
_cell_angle_alpha	89.998891
_cell_angle_beta	89.996770
_cell_angle_gamma	96.526782
loop_
_atom_site_label
_atom_site_type_symbol
_atom_site_fract_x
_atom_site_fract_y
_atom_site_fract_z
O1	O	1.693992	0.170514	-0.113473
O2	O	2.193992	0.670514	0.386527
O3	O	1.334362	0.186836	-0.113478
O4	O	1.834362	0.686836	0.386522
O5	O	1.484371	0.001774	-0.113471
O6	O	1.984371	0.501774	0.386529
O7	O	1.543983	0.355576	-0.113480
O8	O	2.043983	0.855576	0.386520
O9	O	1.484357	0.001773	0.113511
O10	O	1.984357	0.501773	0.613511
O11	O	1.334348	0.186836	0.113504
O12	O	1.834348	0.686836	0.613504
O13	O	1.693977	0.170513	0.113509
O14	O	2.193977	0.670513	0.613509
Zn15	Zn	1.514160	0.178674	0.149545
Zn16	Zn	2.014160	0.678674	0.649545
Zn17	Zn	1.514179	0.178675	-0.149514
Zn18	Zn	2.014179	0.678675	0.350486
O19	O	1.543968	0.355576	0.113502
O20	O	2.043968	0.855576	0.613502
C21	C	1.287599	0.185649	0.000012
C22	C	1.787599	0.685649	0.500012
C23	C	1.148278	0.182095	0.000010
C24	C	1.648278	0.682095	0.500010
C25	C	1.086156	0.180511	0.117593
C26	C	1.586156	0.680511	0.617593
C27	C	0.942161	0.176838	0.117593
C28	C	1.442161	0.676838	0.617593
C29	C	1.473367	-0.043529	0.000018
C30	C	1.973367	0.456471	0.500018
C31	C	1.440583	-0.178516	0.000013
C32	C	1.940583	0.321484	0.500013
C33	C	1.531104	-0.251568	0.000012
C34	C	2.031104	0.248432	0.500012
C35	C	1.497223	-0.391084	0.000007
C36	C	1.997223	0.108916	0.500007
C37	C	1.740740	0.171701	0.000016
C38	C	2.240740	0.671701	0.500016
C39	C	1.880062	0.175254	0.000009
C40	C	2.380062	0.675254	0.500009
C41	C	1.554973	0.400878	0.000010
C42	C	2.054973	0.900878	0.500010
C43	C	1.587756	0.535865	0.000006
C44	C	2.087756	1.035865	0.500006
N45	N	1.514156	0.178673	0.353645
N46	N	2.014156	0.678673	0.853645
N47	N	1.514191	0.178667	-0.353613
N48	N	2.014191	0.678667	0.146387
C49	C	1.577067	0.100628	0.421425
C50	C	2.077067	0.600628	0.921425
C51	C	1.577086	0.100624	0.578587
C52	C	2.077086	0.600624	1.078587
H53	H	0.888738	0.175482	0.218260
H54	H	1.388738	0.675482	0.718260
H55	H	1.094858	0.180730	-0.100656
H56	H	1.594858	0.680730	0.399344
H57	H	1.338003	-0.219261	0.000003
H58	H	1.838003	0.280739	0.500003
O59	O	1.648444	0.012111	0.655775
O60	O	2.148444	0.512111	1.155775
H61	H	1.582360	-0.047243	0.720883
H62	H	2.082360	0.452757	1.220883
O63	O	1.723645	-0.410175	0.000005
O64	O	2.223645	0.089825	0.500005
H65	H	1.770830	-0.440937	-0.092518
H66	H	2.270830	0.059063	0.407482
O67	O	1.361331	-0.445035	-0.000000
O68	O	1.861331	0.054965	0.500000
H69	H	1.314139	-0.414258	0.092511
H70	H	1.814139	0.085742	0.592511
H71	H	1.460333	0.245492	0.588108
H72	H	1.960333	0.745492	1.088108
H73	H	1.460304	0.245483	0.411967
H74	H	1.960304	0.745483	0.911967
O75	O	1.156899	0.182323	0.250949
O76	O	1.656899	0.682323	0.750949
H77	H	1.258899	0.184935	0.230022
H78	H	1.758899	0.684935	0.730022
O79	O	0.950816	0.177052	-0.133344
O80	O	1.450816	0.677052	0.366656
H81	H	0.933236	0.259137	-0.192713
H82	H	1.433236	0.759137	0.307287
O83	O	1.666990	-0.197616	0.000016
O84	O	2.166990	0.302384	0.500016
H85	H	1.672277	-0.096501	0.000028
H86	H	2.172277	0.403499	0.500028
O87	O	1.648355	0.012082	0.344190
O88	O	2.148355	0.512082	0.844190
H89	H	1.637137	0.025968	0.232868
H90	H	2.137137	0.525968	0.732868
