data_functionalizedCrystal
_audit_creation_method	'MofGen! by Chris Wilmer'
_symmetry_space_group_name_H-M	'P1'
_symmetry_Int_Tables_number	1
_symmetry_cell_setting	triclinic
loop_
_symmetry_equiv_pos_as_xyz
  x,y,z
_cell_length_a	18.101398
_cell_length_b	25.639239
_cell_length_c	18.101390
_cell_angle_alpha	89.965145
_cell_angle_beta	89.977223
_cell_angle_gamma	90.033952
loop_
_atom_site_label
_atom_site_type_symbol
_atom_site_fract_x
_atom_site_fract_y
_atom_site_fract_z
Zn1	Zn	1.132071	-0.208197	-0.418828
Zn2	Zn	1.632071	0.291803	0.081172
Zn3	Zn	1.131954	-0.295641	-0.294982
Zn4	Zn	1.631954	0.204359	0.205018
Zn5	Zn	1.008233	-0.208214	-0.294989
Zn6	Zn	1.508233	0.291786	0.205011
Zn7	Zn	1.008164	-0.295596	-0.418771
Zn8	Zn	1.508164	0.204404	0.081229
O9	O	1.070105	-0.251912	-0.356893
O10	O	1.570105	0.248088	0.143107
O11	O	1.235688	-0.219808	-0.402421
O12	O	1.735688	0.280192	0.097579
O13	O	1.115522	-0.284069	-0.191350
O14	O	1.615522	0.215931	0.308650
O15	O	1.024738	-0.135046	-0.311444
O16	O	1.524738	0.364954	0.188556
O17	O	1.235602	-0.284053	-0.311432
O18	O	1.735602	0.215947	0.188568
O19	O	1.115721	-0.135034	-0.402428
O20	O	1.615721	0.364966	0.097572
O21	O	1.024625	-0.219837	-0.191356
O22	O	1.524625	0.280163	0.308644
O23	O	0.904591	-0.219794	-0.311388
O24	O	1.404591	0.280206	0.188612
O25	O	1.024621	-0.283977	-0.522411
O26	O	1.524621	0.216023	-0.022411
O27	O	0.904540	-0.283993	-0.402330
O28	O	1.404540	0.216007	0.097670
O29	O	1.115654	-0.219765	-0.522454
O30	O	1.615654	0.280235	-0.022454
O31	O	1.115455	-0.368800	-0.311376
O32	O	1.615455	0.131200	0.188624
O33	O	1.024507	-0.368767	-0.402323
O34	O	1.524507	0.131233	0.097677
C35	C	0.877695	-0.251891	-0.356854
C36	C	1.377695	0.248109	0.143146
C37	C	0.795381	-0.251894	-0.356855
C38	C	1.295381	0.248106	0.143145
C39	C	0.496290	-0.251927	-0.356917
C40	C	0.996290	0.248073	0.143083
C41	C	0.527622	-0.211332	-0.299978
C42	C	1.027622	0.288668	0.200022
C43	C	0.613240	-0.211441	-0.299735
C44	C	1.113240	0.288559	0.200265
C45	C	0.644672	-0.251910	-0.356886
C46	C	1.144672	0.248090	0.143114
C47	C	0.613544	-0.306988	-0.335559
C48	C	1.113544	0.193012	0.164441
C49	C	0.527899	-0.306762	-0.335163
C50	C	1.027899	0.193238	0.164837
C51	C	0.527905	-0.237923	-0.435317
C52	C	1.027905	0.262077	0.064683
C53	C	0.613556	-0.236696	-0.434890
C54	C	1.113556	0.263304	0.065110
C55	C	0.728532	-0.251904	-0.356870
C56	C	1.228532	0.248096	0.143130
C57	C	0.412430	-0.251937	-0.356932
C58	C	0.912430	0.248063	0.143068
C59	C	1.069981	-0.387755	-0.356859
C60	C	1.569981	0.112245	0.143141
C61	C	1.069995	-0.445869	-0.356869
C62	C	1.569995	0.054131	0.143131
C63	C	1.117585	-0.806236	-0.309617
C64	C	1.617585	-0.306236	0.190383
C65	C	1.117614	-0.860840	-0.309627
C66	C	1.617614	-0.360840	0.190373
O67	O	1.157948	-0.889081	-0.269415
O68	O	1.657948	-0.389081	0.230585
N69	N	1.070235	-0.888151	-0.356942
N70	N	1.570235	-0.388151	0.143058
C71	C	1.022830	-0.860855	-0.404255
C72	C	1.522830	-0.360855	0.095745
O73	O	0.982534	-0.889098	-0.444501
O74	O	1.482534	-0.389098	0.055499
C75	C	1.022806	-0.806251	-0.404248
C76	C	1.522806	-0.306251	0.095752
C77	C	1.070182	-0.778943	-0.356925
C78	C	1.570182	-0.278943	0.143075
C79	C	1.164958	-0.778928	-0.262299
C80	C	1.664958	-0.278928	0.237701
C81	C	1.164928	-0.724328	-0.262288
C82	C	1.664928	-0.224328	0.237712
C83	C	1.117526	-0.697035	-0.309596
C84	C	1.617526	-0.197035	0.190404
C85	C	1.070152	-0.724343	-0.356914
C86	C	1.570152	-0.224343	0.143086
C87	C	0.975405	-0.778956	-0.451564
C88	C	1.475405	-0.278956	0.048436
C89	C	0.975385	-0.724349	-0.451554
C90	C	1.475385	-0.224349	0.048446
C91	C	1.022762	-0.697041	-0.404231
C92	C	1.522762	-0.197041	0.095769
C93	C	1.022720	-0.642450	-0.404212
C94	C	1.522720	-0.142450	0.095788
N95	N	1.070098	-0.615139	-0.356897
N96	N	1.570098	-0.115139	0.143103
C97	C	1.117501	-0.642432	-0.309589
C98	C	1.617501	-0.142432	0.190411
C99	C	1.022886	-0.975525	-0.404266
C100	C	1.522886	-0.475525	0.095734
C101	C	1.022906	-1.030128	-0.404270
C102	C	1.522906	-0.530128	0.095730
C103	C	1.117691	-1.030110	-0.309643
C104	C	1.617691	-0.530110	0.190357
C105	C	1.117667	-0.975506	-0.309636
C106	C	1.617667	-0.475506	0.190364
C107	C	1.070265	-0.948215	-0.356952
C108	C	1.570265	-0.448215	0.143048
C109	C	1.117434	-0.527767	-0.309570
C110	C	1.617434	-0.027767	0.190430
C111	C	1.117398	-0.473161	-0.309561
C112	C	1.617398	0.026839	0.190439
C113	C	1.022616	-0.473184	-0.404190
C114	C	1.522616	0.026816	0.095810
C115	C	1.022650	-0.527785	-0.404197
C116	C	1.522650	-0.027785	0.095803
C117	C	1.070065	-0.555075	-0.356884
C118	C	1.570065	-0.055075	0.143116
O119	O	0.982409	-0.614175	-0.444406
O120	O	1.482409	-0.114175	0.055594
O121	O	1.157797	-0.614181	-0.269357
O122	O	1.657797	-0.114181	0.230643
C123	C	1.263267	-0.251934	-0.356932
C124	C	1.763267	0.248066	0.143068
C125	C	1.345581	-0.251943	-0.356949
C126	C	1.845581	0.248057	0.143051
C127	C	1.070143	-0.251865	-0.550055
C128	C	1.570143	0.248135	-0.050055
C129	C	1.070159	-0.251844	-0.632369
C130	C	1.570159	0.248156	-0.132369
C131	C	1.070250	-0.115539	-0.356943
C132	C	1.570250	0.384461	0.143057
C133	C	1.070312	-0.057425	-0.356964
C134	C	1.570312	0.442575	0.143036
C135	C	1.070185	-0.251828	-0.783077
C136	C	1.570185	0.248172	-0.283077
C137	C	1.127463	-0.211424	-0.814458
C138	C	1.627463	0.288576	-0.314458
C139	C	1.127703	-0.211533	-0.900076
C140	C	1.627703	0.288467	-0.400076
C141	C	1.070212	-0.251811	-0.931460
C142	C	1.570212	0.248189	-0.431460
C143	C	1.091077	-0.306959	-0.900349
C144	C	1.591077	0.193041	-0.400349
C145	C	1.091477	-0.306735	-0.814704
C146	C	1.591477	0.193265	-0.314704
C147	C	0.991903	-0.237562	-0.814628
C148	C	1.491903	0.262438	-0.314628
C149	C	0.992338	-0.236337	-0.900280
C150	C	1.492338	0.263663	-0.400280
C151	C	1.070225	-0.251805	-1.015320
C152	C	1.570225	0.248195	-0.515320
C153	C	1.070174	-0.251838	-0.699218
C154	C	1.570174	0.248162	-0.199218
C155	C	1.070110	-0.251922	-0.164482
C156	C	1.570110	0.248078	0.335518
C157	C	1.070238	-0.251795	-0.082169
C158	C	1.570238	0.248205	0.417831
H159	H	0.507059	-0.170365	-0.313200
H160	H	1.007059	0.329635	0.186800
H161	H	0.633907	-0.196165	-0.450971
H162	H	1.133907	0.303835	0.049029
F163	F	0.971761	-0.183290	-0.926862
F164	F	1.471761	0.316710	-0.426862
H165	H	0.947411	-0.263599	-0.921640
H166	H	1.447411	0.236401	-0.421640
H167	H	0.507642	-0.267490	-0.477742
H168	H	1.007642	0.232510	0.022258
H169	H	1.203508	-0.702097	-0.223756
H170	H	1.703508	-0.202097	0.276244
H171	H	0.507170	-0.338033	-0.374826
H172	H	1.007170	0.161967	0.125174
F173	F	1.167898	-0.556803	-0.259214
F174	F	1.667898	-0.056803	0.240786
H175	H	1.155978	-0.450929	-0.271023
H176	H	1.655978	0.049071	0.228977
H177	H	1.114586	-0.170413	-0.793886
H178	H	1.614586	0.329587	-0.293886
F179	F	1.166261	-0.322507	-0.788605
F180	F	1.666261	0.177493	-0.288605
H181	H	1.185141	-0.220767	-0.792948
H182	H	1.685141	0.279233	-0.292948
F183	F	1.203528	-0.223899	-0.926876
F184	F	1.703528	0.276101	-0.426876
H185	H	0.936786	-0.702131	-0.490086
H186	H	1.436786	-0.202131	0.009914
F187	F	1.110469	-0.158125	-0.927576
F188	F	1.610469	0.341875	-0.427576
H189	H	0.949231	-0.266988	-0.794330
H190	H	1.449231	0.233012	-0.294330
H191	H	0.506073	-0.220486	-0.242223
H192	H	1.006073	0.279514	0.257777
H193	H	0.634958	-0.319070	-0.278864
H194	H	1.134958	0.180930	0.221136
H195	H	0.633694	-0.220700	-0.241642
H196	H	1.133694	0.279300	0.258358
F197	F	0.641521	-0.272527	-0.493314
F198	F	1.141521	0.227473	0.006686
F199	F	0.972474	-1.059185	-0.454629
F200	F	1.472474	-0.559185	0.045371
H201	H	0.936823	-0.801181	-0.490096
H202	H	1.436823	-0.301181	0.009904
F203	F	0.640754	-0.158057	-0.317208
F204	F	1.140754	0.341943	0.182792
F205	F	1.215417	-0.807967	-0.211944
F206	F	1.715417	-0.307967	0.288056
F207	F	1.039300	-0.347437	-0.787564
F208	F	1.539300	0.152563	-0.287564
H209	H	0.984019	-0.450954	-0.442706
H210	H	1.484019	0.049046	0.057294
H211	H	1.050643	-0.337881	-0.920673
H212	H	1.550643	0.162119	-0.420673
F213	F	1.168091	-0.946448	-0.259270
F214	F	1.668091	-0.446448	0.240730
F215	F	1.168141	-1.059166	-0.259292
F216	F	1.668141	-0.559166	0.240708
F217	F	1.165048	-0.322999	-0.928396
F218	F	1.665048	0.177001	-0.428396
H219	H	0.984280	-0.953307	-0.442794
H220	H	1.484280	-0.453307	0.057206
F221	F	0.972213	-0.556849	-0.454549
F222	F	1.472213	-0.056849	0.045451
F223	F	0.501739	-0.322284	-0.260249
F224	F	1.001739	0.177716	0.239751
F225	F	0.640145	-0.347582	-0.388072
F226	F	1.140145	0.152418	0.111928
F227	F	0.499720	-0.186340	-0.460662
F228	F	0.999720	0.313660	0.039338
F229	F	0.966990	-0.185898	-0.786417
F230	F	1.466990	0.314102	-0.286417
