data_functionalizedCrystal
_audit_creation_method	'MofGen! by Chris Wilmer'
_symmetry_space_group_name_H-M	'P1'
_symmetry_Int_Tables_number	1
_symmetry_cell_setting	triclinic
loop_
_symmetry_equiv_pos_as_xyz
  x,y,z
_cell_length_a	23.532357
_cell_length_b	9.616153
_cell_length_c	10.540510
_cell_angle_alpha	89.992871
_cell_angle_beta	83.670801
_cell_angle_gamma	89.992198
loop_
_atom_site_label
_atom_site_type_symbol
_atom_site_fract_x
_atom_site_fract_y
_atom_site_fract_z
O1	O	0.080172	-0.115673	1.683251
O2	O	0.087752	-0.115676	1.313581
O3	O	0.001102	-0.115646	1.509597
O4	O	0.166822	-0.115703	1.487236
O5	O	0.001103	0.115646	1.509570
O6	O	0.087753	0.115616	1.313555
O7	O	0.080174	0.115618	1.683224
Zn8	Zn	0.083964	0.152339	1.498385
Zn9	Zn	0.083962	-0.152397	1.498420
O10	O	0.166824	0.115588	1.487209
C11	C	0.087188	-0.000030	1.266283
C12	C	0.085498	-0.000030	1.125389
C13	C	-0.020118	0.000004	1.509024
C14	C	-0.083347	0.000017	1.507342
N15	N	0.083965	0.360314	1.498371
C16	C	-0.475429	-0.126135	1.496800
C17	C	-0.534839	-0.126143	1.495202
O18	O	-0.565562	-0.233366	1.494344
N19	N	-0.564554	-0.000068	1.494394
C20	C	-0.534856	0.126024	1.495173
O21	O	-0.565586	0.233260	1.494338
C22	C	-0.475447	0.126030	1.496762
C23	C	-0.445735	-0.000053	1.497582
C24	C	-0.445717	-0.252208	1.497619
C25	C	-0.386311	-0.252200	1.499220
C26	C	-0.356617	-0.126118	1.500002
C27	C	-0.386329	-0.000045	1.499183
C28	C	-0.445749	0.252120	1.497531
C29	C	-0.386335	0.252116	1.499120
C30	C	-0.356624	0.126032	1.499940
C31	C	-0.297230	0.126045	1.501566
N32	N	-0.267514	-0.000030	1.502373
C33	C	-0.297208	-0.126111	1.501591
C34	C	-0.659619	0.126000	1.491833
C35	C	-0.719028	0.125996	1.490252
C36	C	-0.719007	-0.126172	1.490279
C37	C	-0.659597	-0.126165	1.491868
C38	C	-0.629904	-0.000075	1.492640
C39	C	-0.172452	-0.126084	1.504954
C40	C	-0.113041	-0.126064	1.506560
C41	C	-0.113067	0.126102	1.506527
C42	C	-0.172473	0.126083	1.504927
C43	C	-0.202164	-0.000021	1.504137
O44	O	-0.266469	0.233214	1.502419
O45	O	-0.266470	-0.233330	1.502409
C46	C	0.188044	-0.000065	1.487782
C47	C	0.251273	-0.000087	1.489463
N48	N	0.083956	-0.360372	1.498445
C49	C	0.130162	0.580668	1.393205
C50	C	0.130335	0.419500	1.393427
C51	C	0.097477	0.418759	1.630647
C52	C	0.097804	0.579977	1.630072
C53	C	0.024106	0.580246	1.472586
C54	C	0.024494	0.419019	1.469527
C55	C	0.145693	-0.000582	0.905935
C56	C	0.147496	-0.000053	1.052470
C57	C	0.053762	0.132057	1.081669
C58	C	0.052399	0.132159	0.934953
C59	C	0.051105	-0.130862	0.935220
C60	C	0.054046	-0.132600	1.081464
C61	C	0.080738	-0.000031	1.730523
C62	C	0.082428	-0.000040	1.871416
H63	H	-0.196619	-0.228770	1.504304
N64	N	-0.627533	-0.262127	1.492723
H65	H	-0.642159	-0.317272	1.571141
H66	H	-0.633573	-0.317131	1.413699
H67	H	0.011244	0.620988	1.378276
H68	H	-0.196666	0.228750	1.504271
N69	N	-0.006693	0.138602	1.146458
H70	H	-0.012047	0.227075	1.198024
H71	H	-0.034390	0.137251	1.079775
N72	N	-0.354269	-0.388190	1.500097
H73	H	-0.382102	-0.468052	1.499355
H74	H	-0.325317	-0.393686	1.422059
N75	N	-0.751073	0.261984	1.489395
H76	H	-0.723241	0.341850	1.490136
H77	H	-0.771417	0.267483	1.410035
N78	N	-0.010552	-0.132037	0.907928
H79	H	-0.036393	-0.128940	0.991007
H80	H	-0.018132	-0.048280	0.854471
H81	H	-0.743194	-0.228834	1.489638
N82	N	-0.477743	-0.388207	1.496862
H83	H	-0.449899	-0.468060	1.497652
H84	H	-0.506678	-0.393638	1.574934
H85	H	0.075803	0.230340	1.111779
N86	N	-0.021458	0.630746	1.574237
H87	H	-0.012221	0.598111	1.660711
H88	H	-0.022842	0.735703	1.572872
H89	H	-0.011542	0.378737	1.541252
H90	H	-0.635447	0.228685	1.492465
N91	N	-0.354312	0.388119	1.499973
H92	H	-0.312168	0.369004	1.501111
H93	H	-0.360396	0.443174	1.420989
H94	H	0.070656	-0.230976	0.892034
H95	H	0.169846	-0.095310	0.863190
N96	N	-0.477779	0.388121	1.496643
H97	H	-0.463131	0.443220	1.418212
H98	H	-0.519915	0.368904	1.495562
N99	N	-0.081035	0.262085	1.507382
H100	H	-0.038892	0.242947	1.508517
H101	H	-0.087116	0.317140	1.428397
H102	H	-0.088853	-0.228741	1.507231
H103	H	0.122206	0.379988	1.295079
H104	H	0.008783	-0.140560	1.132036
N105	N	0.054125	0.367973	1.736823
H106	H	0.033905	0.450232	1.781003
H107	H	0.025273	0.306420	1.700023
H108	H	0.172324	-0.094742	1.081002
N109	N	0.177509	0.124161	0.847248
H110	H	0.151119	0.181022	0.798399
H111	H	0.191382	0.183031	0.916959
N112	N	0.119567	0.632078	1.262511
H113	H	0.084713	0.694092	1.270248
H114	H	0.153909	0.686410	1.223787
H115	H	0.174314	0.621151	1.409406
N116	N	0.154660	0.365242	1.661743
H117	H	0.171892	0.303154	1.590340
H118	H	0.181056	0.446347	1.671796
N119	N	0.010943	0.368524	1.340600
H120	H	0.043186	0.307860	1.301037
H121	H	-0.025702	0.313004	1.351190
N122	N	0.189192	0.368360	1.414842
H123	H	0.215120	0.450546	1.424219
H124	H	0.186596	0.310092	1.494998
H125	H	0.077137	-0.230317	1.109326
N126	N	0.155640	0.629773	1.660400
H127	H	0.163006	0.594353	1.747306
H128	H	0.186201	0.593527	1.593811
H129	H	0.172476	0.094774	1.080033
N130	N	0.054956	0.631609	1.736871
H131	H	0.075176	0.689776	1.797858
H132	H	0.025047	0.689937	1.700117
H133	H	0.074089	0.230880	0.894005
H134	H	0.006028	0.138175	0.913497
