data_functionalizedCrystal
_audit_creation_method	'MofGen! by Chris Wilmer'
_symmetry_space_group_name_H-M	'P1'
_symmetry_Int_Tables_number	1
_symmetry_cell_setting	triclinic
loop_
_symmetry_equiv_pos_as_xyz
  x,y,z
_cell_length_a	14.560438
_cell_length_b	23.196402
_cell_length_c	23.196402
_cell_angle_alpha	90.003744
_cell_angle_beta	59.999244
_cell_angle_gamma	60.004327
loop_
_atom_site_label
_atom_site_type_symbol
_atom_site_fract_x
_atom_site_fract_y
_atom_site_fract_z
Zr1	Zr	1.005291	-0.075664	0.555354
O2	O	1.196888	-0.167709	0.463295
O3	O	0.813691	-0.047448	0.583575
O4	O	1.005290	-0.167715	0.583564
O5	O	1.005292	0.047428	0.463314
O6	O	1.005292	-0.167718	0.678434
O7	O	1.005290	-0.047442	0.463306
O8	O	0.662557	0.047417	0.678453
O9	O	1.348027	-0.167707	0.463295
O10	O	0.892502	-0.035415	0.666411
O11	O	0.892502	0.035387	0.595616
O12	O	1.118084	-0.106211	0.595604
O13	O	1.118084	-0.035408	0.524810
Zr14	Zr	1.005299	0.075638	0.706673
Zr15	Zr	1.005295	-0.075669	0.706660
Zr16	Zr	1.005295	0.075643	0.555367
Zr17	Zr	1.246340	-0.075661	0.555353
Zr18	Zr	0.764250	0.075636	0.706674
O19	O	1.196899	0.047422	0.678452
O20	O	1.196894	-0.167716	0.678434
O21	O	1.196894	0.047430	0.463314
O22	O	0.813702	0.167683	0.798731
O23	O	0.813696	-0.047455	0.798713
O24	O	0.813696	0.167691	0.583593
O25	O	1.005298	-0.047454	0.798713
O26	O	1.005300	0.167689	0.678463
O27	O	1.005298	0.167692	0.583593
O28	O	1.005300	0.047416	0.798721
O29	O	1.348030	-0.167712	0.583564
O30	O	0.662560	0.167686	0.678463
O31	O	0.662563	0.167682	0.798732
O32	O	0.662560	0.047413	0.798722
O33	O	1.348030	-0.047439	0.463305
O34	O	1.348033	-0.047443	0.583574
O35	O	0.892505	0.106185	0.666423
O36	O	0.892505	0.035383	0.737217
O37	O	1.118088	-0.035413	0.666410
O38	O	1.118088	0.035390	0.595616
C39	C	0.703780	-0.000016	0.631014
C40	C	0.601448	-0.000017	0.631014
C41	C	1.005290	-0.000006	0.441752
C42	C	1.005289	-0.000004	0.377518
C43	C	1.005300	0.189249	0.631029
C44	C	1.005301	0.253482	0.631035
C45	C	0.553374	-0.036976	0.667965
C46	C	0.457216	-0.036971	0.667967
C47	C	0.457220	0.036955	0.594060
C48	C	0.553369	0.036953	0.594063
C49	C	0.601453	-0.073946	0.704916
C50	C	0.553379	-0.110909	0.741870
C51	C	0.457222	-0.110903	0.741872
C52	C	0.409138	-0.073935	0.704920
C53	C	1.306810	-0.000010	0.631013
C54	C	1.409142	-0.000009	0.631013
C55	C	1.005290	-0.189274	0.630997
C56	C	1.005289	-0.253508	0.630992
C57	C	1.123049	0.246703	0.594078
C58	C	1.123051	0.307057	0.594067
C59	C	1.005298	0.374191	0.631028
C60	C	0.887534	0.380968	0.667987
C61	C	0.887536	0.320613	0.667990
C62	C	0.915084	0.498125	0.692930
C63	C	0.915087	0.558476	0.692928
C64	C	1.005288	0.560344	0.631016
C65	C	1.095508	0.501847	0.569106
C66	C	1.095509	0.441493	0.569109
C67	C	1.005283	0.439639	0.631028
C68	C	1.123046	0.619005	0.594044
C69	C	1.123043	0.679362	0.594032
C70	C	0.887523	0.753273	0.667958
C71	C	0.887529	0.692916	0.667964
C72	C	1.005295	0.625785	0.631008
C73	C	0.887540	0.036944	0.384304
C74	C	0.887539	0.036947	0.323949
C75	C	1.005292	-0.000012	0.256810
C76	C	1.123056	-0.036962	0.250027
C77	C	1.123054	-0.036958	0.310381
C78	C	1.095506	-0.061921	0.132876
C79	C	1.095503	-0.061927	0.072524
C80	C	1.005302	-0.000023	0.070656
C81	C	0.915082	0.061887	0.129154
C82	C	0.915080	0.061890	0.189508
C83	C	1.005307	-0.000020	0.191362
C84	C	0.887544	0.036931	0.012001
C85	C	0.887547	0.036936	-0.048356
C86	C	1.123067	-0.036979	-0.122278
C87	C	1.123061	-0.036977	-0.061921
C88	C	1.005295	-0.000023	0.005216
C89	C	1.005300	-0.000019	0.820275
C90	C	1.005301	-0.000022	0.884508
C91	C	0.703784	-0.000022	0.820275
C92	C	0.601454	-0.000025	0.884509
C93	C	0.703784	0.189246	0.631030
C94	C	0.601454	0.253479	0.631036
C95	C	0.703789	0.189239	0.820291
C96	C	0.601461	0.253470	0.884531
C97	C	1.306801	-0.189265	0.441735
C98	C	1.409129	-0.253495	0.377496
C99	C	1.306805	-0.000004	0.441751
C100	C	1.409135	-0.000000	0.377518
C101	C	1.306805	-0.189272	0.630997
C102	C	1.409135	-0.253504	0.630991
C103	C	0.553397	-0.036989	0.877714
C104	C	0.457261	-0.037006	0.938062
C105	C	0.409177	-0.000055	1.005206
C106	C	0.457243	0.036910	1.012000
C107	C	0.553385	0.036922	0.951652
C108	C	0.553401	0.320605	0.667998
C109	C	0.457265	0.380964	0.668001
C110	C	0.409177	0.374195	0.631044
C111	C	0.457240	0.307062	0.594077
C112	C	0.553381	0.246704	0.594071
C113	C	0.553406	0.246675	0.951658
C114	C	0.457271	0.307020	1.012024
C115	C	0.409186	0.374160	1.005260
C116	C	0.457250	0.380954	0.938125
C117	C	0.553390	0.320609	0.877761
C118	C	1.457195	-0.246700	0.310368
C119	C	1.553360	-0.307046	0.250003
C120	C	1.601450	-0.374186	0.256767
C121	C	1.553380	-0.380980	0.323902
C122	C	1.457224	-0.320635	0.384266
C123	C	1.457202	0.036957	0.384313
C124	C	1.553365	0.036957	0.323964
C125	C	1.601453	0.000004	0.256821
C126	C	1.553382	-0.036958	0.250027
C127	C	1.457227	-0.036962	0.310375
C128	C	1.457193	-0.246713	0.667955
C129	C	1.553330	-0.307061	0.667963
C130	C	1.601414	-0.374199	0.631004
C131	C	1.553347	-0.380989	0.594039
C132	C	1.457206	-0.320642	0.594035
H133	H	0.679752	-0.073956	0.704917
F134	F	0.306853	0.438441	0.631058
F135	F	0.604517	0.327852	0.806320
H136	H	0.418065	0.067051	0.563974
H137	H	0.791652	0.067036	0.066667
H138	H	0.592527	-0.141003	0.771960
F139	F	1.191518	0.503826	0.503210
F140	F	0.406127	0.452406	0.707350
F141	F	0.604514	0.076271	0.958895
H142	H	0.418079	0.066994	1.066676
F143	F	0.604571	0.175225	0.958873
H144	H	0.418072	-0.140994	0.771966
H145	H	1.592550	-0.067044	0.195351
F146	F	1.703741	-0.438420	0.631013
F147	F	1.248374	0.672142	0.554680
F148	F	0.604559	0.327825	0.707338
F149	F	0.762213	0.452417	0.707320
F150	F	1.604544	-0.452448	0.554701
F151	F	0.762200	0.824718	0.707290
F152	F	1.406074	-0.076295	0.303132
H153	H	0.418072	0.301561	0.563988
H154	H	1.218944	-0.067069	-0.067449
F155	F	0.306787	-0.073925	0.704931
F156	F	1.604572	-0.452441	0.331089
F157	F	1.248384	-0.076285	0.303157
H158	H	0.418147	0.301476	1.066682
F159	F	1.406034	-0.175265	0.707296
H160	H	1.592456	-0.301518	0.698064
H161	H	0.592493	0.192049	0.563974
F162	F	0.604558	-0.076322	0.806260
F163	F	0.819073	0.496146	0.758830
H164	H	0.330891	-0.000070	1.054339
H165	H	0.592519	0.067045	0.563970
F166	F	0.306863	0.438379	1.069511
H167	H	1.418088	-0.326182	0.563932
H168	H	0.418085	0.435627	0.932628
H169	H	0.791648	0.326139	0.698086
F170	F	1.604505	0.076301	0.331210
H171	H	1.679748	0.000013	0.207687
H172	H	1.418045	-0.192037	0.304848
H173	H	1.218943	0.192045	0.563984
H174	H	1.592482	-0.301501	0.195345
F175	F	0.762203	0.076277	0.455753
H176	H	1.218931	-0.067053	0.195358
H177	H	1.679747	-0.423317	0.207609
H178	H	1.218939	0.301536	0.563969
F179	F	1.406044	0.076288	0.455766
F180	F	1.191520	0.379240	0.503221
F181	F	1.248380	0.547557	0.554711
F182	F	1.406071	-0.327877	0.455706
F183	F	0.762216	0.076271	-0.041130
H184	H	0.791646	0.698440	0.698062
F185	F	0.819064	0.620729	0.758817
F186	F	1.191521	-0.127812	0.134853
F187	F	0.762210	0.076271	0.331168
F188	F	0.819070	0.127778	0.251761
H189	H	0.841611	0.112290	0.127644
H190	H	1.168961	-0.112338	0.024899
F191	F	1.248390	-0.076309	-0.193729
F192	F	0.406118	-0.076348	0.930817
