data_functionalizedCrystal
_audit_creation_method	'MofGen! by Chris Wilmer'
_symmetry_space_group_name_H-M	'P1'
_symmetry_Int_Tables_number	1
_symmetry_cell_setting	triclinic
loop_
_symmetry_equiv_pos_as_xyz
  x,y,z
_cell_length_a	13.897449
_cell_length_b	19.077396
_cell_length_c	19.076919
_cell_angle_alpha	89.931792
_cell_angle_beta	92.282068
_cell_angle_gamma	92.270830
loop_
_atom_site_label
_atom_site_type_symbol
_atom_site_fract_x
_atom_site_fract_y
_atom_site_fract_z
Zn1	Zn	1.469613	0.295698	-0.386072
Zn2	Zn	1.482434	0.408485	-0.263855
Zn3	Zn	1.314527	0.291000	-0.268581
Zn4	Zn	1.314987	0.413169	-0.381324
O5	O	1.395390	0.352088	-0.324958
O6	O	1.606296	0.310665	-0.369868
O7	O	1.465334	0.388974	-0.166150
O8	O	1.329542	0.193293	-0.288131
O9	O	1.615715	0.393529	-0.280076
O10	O	1.443483	0.196745	-0.374451
O11	O	1.341974	0.302658	-0.169623
O12	O	1.179607	0.307200	-0.283528
O13	O	1.330325	0.401513	-0.480286
O14	O	1.179944	0.396958	-0.366360
O15	O	1.443929	0.315207	-0.483774
O16	O	1.465780	0.507436	-0.275473
O17	O	1.342757	0.510878	-0.361777
C18	C	1.144776	0.352078	-0.324942
C19	C	1.037563	0.352091	-0.324952
C20	C	0.841267	0.352095	-0.324970
C21	C	0.950500	0.352091	-0.324958
C22	C	1.405735	0.534654	-0.317612
C23	C	1.410247	0.612757	-0.314493
C24	C	1.385748	0.359407	-0.508239
C25	C	1.381639	0.362525	-0.586342
C26	C	1.646983	0.352099	-0.324974
C27	C	1.754197	0.352103	-0.324981
C28	C	1.442548	1.052200	-0.292097
C29	C	1.438300	0.978813	-0.295030
C30	C	1.372083	0.943939	-0.341396
C31	C	1.310103	0.982454	-0.384827
C32	C	1.314347	1.055839	-0.381891
C33	C	1.352512	0.724657	-0.354988
C34	C	1.348274	0.651267	-0.357923
C35	C	1.476470	0.647631	-0.268124
C36	C	1.480713	0.721018	-0.265195
C37	C	1.418730	0.759526	-0.308624
N38	N	1.367741	0.868926	-0.344395
N39	N	1.423068	0.834537	-0.305620
C40	C	1.385021	1.168811	-0.332355
C41	C	1.380575	1.090710	-0.335527
C42	C	1.438853	0.319058	-0.624852
C43	C	1.434980	0.321986	-0.698239
C44	C	1.373898	0.368385	-0.733114
C45	C	1.316677	0.411854	-0.694599
C46	C	1.320546	0.408922	-0.621214
C47	C	1.355981	0.381968	-0.952397
C48	C	1.352119	0.384898	-1.025787
C49	C	1.470421	0.295028	-1.029422
C50	C	1.474288	0.292104	-0.956036
C51	C	1.417064	0.335570	-0.917527
N52	N	1.369940	0.371380	-0.808127
N53	N	1.421017	0.332571	-0.842516
C54	C	1.405048	0.344747	-0.142392
C55	C	1.409333	0.341431	-0.064297
H56	H	1.496475	1.080589	-0.254345
H57	H	1.488763	0.947459	-0.259665
Br58	Br	1.548075	0.236040	-1.081688
H59	H	1.302376	0.422684	-1.054180
Br60	Br	1.278318	0.440958	-0.900144
Br61	Br	1.233773	0.474821	-0.741928
Br62	Br	1.557192	0.229133	-0.908710
H63	H	1.273946	0.444311	-0.589860
Br64	Br	1.570589	0.768343	-0.202272
H65	H	1.526933	0.616271	-0.232765
Br66	Br	1.258404	0.603937	-0.420854
Br67	Br	1.268407	0.776910	-0.413940
Br68	Br	1.220233	0.935125	-0.447752
H69	H	1.263887	1.087193	-0.417260
Br70	Br	1.521762	0.256090	-0.577529
H71	H	1.481572	0.286592	-0.729591
