data_functionalizedCrystal
_audit_creation_method	'MofGen! by Chris Wilmer'
_symmetry_space_group_name_H-M	'P1'
_symmetry_Int_Tables_number	1
_symmetry_cell_setting	triclinic
loop_
_symmetry_equiv_pos_as_xyz
  x,y,z
_cell_length_a	12.837932
_cell_length_b	12.811415
_cell_length_c	11.892095
_cell_angle_alpha	88.492960
_cell_angle_beta	85.688545
_cell_angle_gamma	89.412215
loop_
_atom_site_label
_atom_site_type_symbol
_atom_site_fract_x
_atom_site_fract_y
_atom_site_fract_z
O1	O	1.385144	0.265188	-0.121187
O2	O	1.885144	0.765188	0.378813
O3	O	1.083184	0.251789	-0.119815
O4	O	1.583184	0.751789	0.380185
O5	O	1.240670	0.107452	-0.105013
O6	O	1.740670	0.607452	0.394987
O7	O	1.227658	0.409525	-0.135989
O8	O	1.727658	0.909525	0.364011
O9	O	1.227539	0.119466	0.081762
O10	O	1.727539	0.619466	0.581762
O11	O	1.070053	0.263803	0.066960
O12	O	1.570053	0.763803	0.566960
O13	O	1.372013	0.277202	0.065589
O14	O	1.872013	0.777202	0.565589
Zn15	Zn	1.218948	0.272410	0.095929
Zn16	Zn	1.718948	0.772410	0.595929
Zn17	Zn	1.236249	0.256581	-0.150156
Zn18	Zn	1.736249	0.756581	0.349844
O19	O	1.214527	0.421539	0.050786
O20	O	1.714527	0.921539	0.550786
C21	C	1.037946	0.253271	-0.025964
C22	C	1.537946	0.753271	0.474036
C23	C	0.922713	0.239773	-0.024581
C24	C	1.422713	0.739773	0.475419
C25	C	1.232973	0.074527	-0.007635
C26	C	1.732973	0.574527	0.492365
C27	C	1.229589	-0.041482	0.004254
C28	C	1.729589	0.458518	0.504254
C29	C	0.771567	0.126956	-0.013010
C30	C	1.271567	0.626956	0.486990
C31	C	0.879839	0.139632	-0.014310
C32	C	1.379839	0.639632	0.485690
C33	C	0.857304	0.327244	-0.033548
C34	C	1.357304	0.827244	0.466452
C35	C	0.749032	0.314569	-0.032248
C36	C	1.249032	0.814569	0.467752
C37	C	0.706167	0.214421	-0.021980
C38	C	1.206167	0.714421	0.478020
C39	C	0.597893	0.201746	-0.020688
C40	C	1.097893	0.701746	0.479312
C41	C	0.575360	0.389358	-0.039918
C42	C	1.075360	0.889358	0.460082
C43	C	0.683632	0.402034	-0.041219
C44	C	1.183632	0.902034	0.458781
C45	C	1.237529	-0.272563	-0.177052
C46	C	1.737529	0.227437	0.322948
C47	C	1.234349	-0.381563	-0.165887
C48	C	1.734349	0.118437	0.334113
C49	C	1.220044	-0.368484	0.037748
C50	C	1.720044	0.131516	0.537748
C51	C	1.223223	-0.259484	0.026583
C52	C	1.723223	0.240516	0.526583
C53	C	1.231967	-0.211527	-0.080821
C54	C	1.731967	0.288473	0.419179
C55	C	1.235154	-0.102525	-0.091985
C56	C	1.735154	0.397475	0.408015
C57	C	1.220841	-0.089448	0.111649
C58	C	1.720841	0.410552	0.611649
C59	C	1.217662	-0.198449	0.122814
C60	C	1.717662	0.301551	0.622814
C61	C	1.417252	0.275720	-0.028265
C62	C	1.917252	0.775720	0.471735
C63	C	1.532485	0.289218	-0.029656
C64	C	2.032485	0.789218	0.470344
C65	C	1.222224	0.454464	-0.046594
C66	C	1.722224	0.954464	0.453406
C67	C	1.225609	0.570472	-0.058490
C68	C	1.725609	1.070472	0.441510
N69	N	1.207148	0.283213	0.263875
N70	N	1.707148	0.783213	0.763875
N71	N	1.248057	0.245771	-0.318101
N72	N	1.748057	0.745771	0.181899
C73	C	1.330165	0.170539	0.512078
C74	C	1.830165	0.670539	1.012078
C75	C	1.321924	0.178098	0.629645
C76	C	1.821924	0.678098	1.129645
C77	C	1.182423	0.305885	0.616578
C78	C	1.682423	0.805885	1.116578
C79	C	1.190663	0.298326	0.499011
C80	C	1.690663	0.798326	0.999011
C81	C	1.264538	0.230652	0.446766
C82	C	1.764538	0.730652	0.946766
C83	C	1.272782	0.223098	0.329196
C84	C	1.772782	0.723098	0.829196
C85	C	1.133277	0.350879	0.316132
C86	C	1.633277	0.850879	0.816132
C87	C	1.125036	0.358439	0.433699
C88	C	1.625036	0.858439	0.933699
H89	H	0.736667	0.045412	-0.004661
H90	H	1.236667	0.545412	0.495339
H91	H	1.122269	0.360977	0.659133
H92	H	1.622269	0.860977	1.159133
H93	H	1.390323	0.115443	0.469538
H94	H	1.890323	0.615443	0.969538
O95	O	1.352440	0.150099	0.272830
O96	O	1.852440	0.650099	0.772830
H97	H	1.431921	0.172894	0.293182
H98	H	1.931921	0.672894	0.793182
O99	O	1.210631	-0.420232	0.153576
O100	O	1.710631	0.079768	0.653576
H101	H	1.138264	-0.467312	0.163302
H102	H	1.638264	0.032688	0.663302
H103	H	0.933085	0.068408	-0.007005
H104	H	1.433085	0.568408	0.492995
O105	O	1.392719	0.113266	0.700081
O106	O	1.892719	0.613266	1.200081
H107	H	1.344699	0.061639	0.759295
H108	H	1.844699	0.561639	1.259295
H109	H	0.892223	0.408781	-0.041898
H110	H	1.392223	0.908781	0.458102
H111	H	1.079842	0.399830	0.262940
H112	H	1.579842	0.899830	0.762940
H113	H	0.718548	0.483572	-0.049574
H114	H	1.218548	0.983572	0.450426
O115	O	1.244583	-0.050796	-0.207822
O116	O	1.744583	0.449204	0.292178
H117	H	1.175793	0.000836	-0.218000
H118	H	1.675793	0.500836	0.282000
H119	H	1.210539	-0.237510	0.210259
H120	H	1.710539	0.262490	0.710259
H121	H	1.064886	0.413535	0.476251
H122	H	1.564886	0.913535	0.976251
H123	H	0.562996	0.120201	-0.012332
H124	H	1.062996	0.620201	0.487668
H125	H	0.522099	0.460579	-0.047223
H126	H	1.022099	0.960579	0.452777
H127	H	1.216317	-0.039741	0.190008
H128	H	1.716317	0.460259	0.690008
H129	H	1.244657	-0.233516	-0.264504
H130	H	1.744657	0.266484	0.235496
H131	H	1.238874	-0.431254	-0.244248
H132	H	1.738874	0.068746	0.255752
