data_functionalizedCrystal
_audit_creation_method	'MofGen! by Chris Wilmer'
_symmetry_space_group_name_H-M	'P1'
_symmetry_Int_Tables_number	1
_symmetry_cell_setting	triclinic
loop_
_symmetry_equiv_pos_as_xyz
  x,y,z
_cell_length_a	8.559649
_cell_length_b	19.188930
_cell_length_c	7.088929
_cell_angle_alpha	83.792352
_cell_angle_beta	95.325015
_cell_angle_gamma	76.461723
loop_
_atom_site_label
_atom_site_type_symbol
_atom_site_fract_x
_atom_site_fract_y
_atom_site_fract_z
O1	O	2.103838	-0.015637	-0.158953
O2	O	1.638380	0.020435	-0.158972
O3	O	1.884545	-0.099961	-0.158924
O4	O	1.857673	0.104759	-0.159000
O5	O	1.917443	-0.116083	0.159057
O6	O	1.671278	0.004313	0.159009
O7	O	2.136736	-0.031759	0.159029
Cu8	Cu	1.907011	-0.015195	0.188053
Cu9	Cu	1.868105	0.003871	-0.187997
O10	O	1.890571	0.088637	0.158981
C11	C	1.595280	0.015108	0.000017
C12	C	1.417842	0.023245	0.000011
C13	C	1.900125	-0.133987	0.000072
C14	C	1.897515	-0.211356	0.000088
C15	C	2.041955	-0.263833	0.000103
C16	C	2.039498	-0.336527	0.000073
C17	C	1.892597	-0.356742	0.000065
C18	C	1.748137	-0.304254	0.000039
C19	C	1.750596	-0.231561	0.000050
N20	N	1.791505	-0.464363	0.108275
N21	N	1.789179	-0.533419	0.108268
C22	C	1.885180	-0.575761	0.000026
N23	N	1.983621	-0.546442	-0.108185
N24	N	1.985952	-0.477380	-0.108170
C25	C	1.889915	-0.435564	0.000051
C26	C	2.026966	-0.707062	0.000005
C27	C	2.024502	-0.779756	-0.000037
C28	C	1.733139	-0.747483	-0.000052
C29	C	1.735605	-0.674789	-0.000028
C30	C	1.882524	-0.654585	0.000009
C31	C	2.179836	-0.026431	0.000036
C32	C	2.357272	-0.034568	0.000029
C33	C	1.874991	0.122664	-0.000019
C34	C	1.877599	0.200034	-0.000048
N35	N	1.934386	-0.028606	0.452547
N36	N	1.840742	0.017276	-0.452490
H37	H	2.157122	-0.379261	0.000077
C38	C	2.147635	-0.133085	0.432866
C39	C	2.065419	-0.092799	0.562787
H40	H	2.228531	-0.172711	0.500928
H41	H	2.073161	-0.150679	0.354817
H42	H	2.196994	-0.103187	0.354764
H43	H	2.016049	-0.122695	0.640880
H44	H	2.139905	-0.075206	0.640869
C45	C	1.557466	0.076339	0.485557
C46	C	1.709716	0.081465	0.437280
H47	H	1.476578	0.115971	0.417504
H48	H	1.536935	0.032327	0.452855
H49	H	1.555625	0.077256	0.619056
H50	H	1.711560	0.080543	0.303782
H51	H	1.730252	0.125489	0.469969
C52	C	1.500948	-0.750651	0.163389
C53	C	1.571657	-0.769693	-0.000066
H54	H	1.401249	-0.764362	0.163364
H55	H	1.571867	-0.774828	0.274257
H56	H	1.481751	-0.699846	0.163380
H57	H	1.590866	-0.820499	-0.000049
H58	H	1.500723	-0.745518	-0.110963
H59	H	1.333944	0.078971	-0.000020
H60	H	1.441159	-0.090289	0.000040
H61	H	2.161587	-0.247388	0.000127
H62	H	1.617987	-0.632061	-0.000030
C63	C	1.615004	-0.401361	0.000045
C64	C	1.586661	-0.326472	0.000039
H65	H	1.515310	-0.415074	0.000050
H66	H	1.662976	-0.414270	-0.110832
H67	H	1.685931	-0.425525	0.110943
H68	H	1.515743	-0.302308	-0.110868
H69	H	1.538665	-0.313555	0.110927
H70	H	2.146595	-0.690611	0.000027
C71	C	1.462352	-0.206963	0.000036
C72	C	1.591817	-0.173874	0.000053
H73	H	1.364331	-0.171348	0.000053
H74	H	1.455978	-0.230353	-0.110854
H75	H	1.478935	-0.241623	0.110921
H76	H	1.575240	-0.139217	-0.110840
H77	H	1.598190	-0.150473	0.110954
C78	C	2.255196	-0.821336	-0.163460
C79	C	2.183288	-0.837441	-0.000023
H80	H	2.353231	-0.856947	-0.163440
H81	H	2.183479	-0.820995	-0.274340
H82	H	2.277670	-0.775148	-0.163419
H83	H	2.160804	-0.883627	-0.000071
H84	H	2.255021	-0.837790	0.110886
