data_functionalizedCrystal
_audit_creation_method	'MofGen! by Chris Wilmer'
_symmetry_space_group_name_H-M	'P1'
_symmetry_Int_Tables_number	1
_symmetry_cell_setting	triclinic
loop_
_symmetry_equiv_pos_as_xyz
  x,y,z
_cell_length_a	15.698487
_cell_length_b	21.606444
_cell_length_c	21.606444
_cell_angle_alpha	90.001146
_cell_angle_beta	60.003238
_cell_angle_gamma	59.998136
loop_
_atom_site_label
_atom_site_type_symbol
_atom_site_fract_x
_atom_site_fract_y
_atom_site_fract_z
Zr1	Zr	0.932358	0.596246	-0.081191
O2	O	1.110068	0.497419	-0.180013
O3	O	0.754647	0.626542	-0.050899
O4	O	0.932350	0.626542	-0.180013
O5	O	0.932371	0.497419	0.050951
O6	O	0.932344	0.728396	-0.180011
O7	O	0.932365	0.497419	-0.050899
O8	O	0.614466	0.728396	0.050951
O9	O	1.250250	0.497419	-0.180011
O10	O	0.827738	0.715475	-0.037976
O11	O	0.827747	0.639462	0.038032
O12	O	1.036969	0.639462	-0.113983
O13	O	1.036978	0.563450	-0.037975
Zr14	Zr	0.932358	0.758691	0.081251
Zr15	Zr	0.932348	0.758692	-0.081188
Zr16	Zr	0.932367	0.596246	0.081247
Zr17	Zr	1.155931	0.596246	-0.081187
Zr18	Zr	0.708785	0.758692	0.081247
O19	O	1.110068	0.728396	0.050959
O20	O	1.110055	0.728396	-0.180008
O21	O	1.110082	0.497419	0.050954
O22	O	0.754647	0.857518	0.180073
O23	O	0.754633	0.857519	-0.050894
O24	O	0.754661	0.626542	0.180068
O25	O	0.932344	0.857518	-0.050891
O26	O	0.932365	0.728395	0.180073
O27	O	0.932371	0.626541	0.180071
O28	O	0.932350	0.857518	0.050959
O29	O	1.250242	0.626542	-0.180008
O30	O	0.614473	0.728396	0.180068
O31	O	0.614466	0.857518	0.180070
O32	O	0.614458	0.857519	0.050953
O33	O	1.250257	0.497419	-0.050894
O34	O	1.250250	0.626541	-0.050891
O35	O	0.827747	0.715475	0.114043
O36	O	0.827738	0.791488	0.038035
O37	O	1.036969	0.715475	-0.037972
O38	O	1.036978	0.639462	0.038035
C39	C	0.652702	0.677469	0.000025
C40	C	0.557789	0.677469	0.000024
C41	C	0.932370	0.677468	0.203216
C42	C	0.932374	0.677468	0.272175
C43	C	0.932346	0.880663	0.000034
C44	C	0.932342	0.949626	0.000036
C45	C	0.384007	0.677467	0.000037
C46	C	0.480712	0.677467	0.000032
C47	C	1.212013	0.677468	0.000035
C48	C	1.306926	0.677468	0.000036
C49	C	0.932370	0.474274	0.000026
C50	C	0.932374	0.405312	0.000024
C51	C	0.823126	1.021702	0.039712
C52	C	0.823129	1.086497	0.039708
C53	C	0.932350	1.079214	0.000031
C54	C	1.041574	1.007130	-0.039650
C55	C	1.041569	0.942336	-0.039650
C56	C	1.041595	1.268433	-0.039653
C57	C	1.041591	1.333234	-0.039649
C58	C	0.823155	1.412593	0.039705
C59	C	0.823150	1.347800	0.039705
C60	C	0.932374	1.275722	0.000021
C61	C	0.932369	1.205464	0.000025
C62	C	0.932356	1.149470	0.000031
C63	C	0.932346	0.677469	-0.203156
C64	C	0.932342	0.677469	-0.272115
C65	C	1.041590	0.637792	0.264899
C66	C	1.041586	0.637788	0.329697
C67	C	0.932366	0.677466	0.401769
C68	C	0.823142	0.717144	0.409043
C69	C	0.823146	0.717143	0.344247
C70	C	0.823121	0.717150	0.670362
C71	C	0.823125	0.717150	0.735160
C72	C	1.041561	0.637796	0.655811
C73	C	1.041565	0.637794	0.591015
C74	C	0.932342	0.677469	0.598295
C75	C	0.932347	0.677471	0.528034
C76	C	0.932360	0.677469	0.472029
C77	C	0.652690	0.880664	0.000030
C78	C	0.557773	0.949626	0.000030
C79	C	0.652714	0.677469	0.203211
C80	C	0.557806	0.677469	0.272169
C81	C	0.652702	0.880663	0.203216
C82	C	0.557789	0.949626	0.272175
C83	C	1.212013	0.474274	-0.203156
C84	C	1.306926	0.405312	-0.272115
C85	C	1.212026	0.474274	0.000030
C86	C	1.306942	0.405311	0.000030
C87	C	1.212001	0.677469	-0.203151
C88	C	1.306910	0.677469	-0.272109
C89	C	0.513200	0.942334	-0.039654
C90	C	0.424028	1.007125	-0.039669
C91	C	0.379425	1.079208	0.000004
C92	C	0.424008	1.086499	0.039689
C93	C	0.513184	1.021708	0.039699
C94	C	0.513236	0.717146	0.344236
C95	C	0.424071	0.717143	0.409036
C96	C	0.379473	0.677467	0.401766
C97	C	0.424052	0.637784	0.329692
C98	C	0.513220	0.637783	0.264894
C99	C	0.513213	1.021696	0.264884
C100	C	0.424045	1.086499	0.329672
C101	C	0.379449	1.079231	0.401751
C102	C	0.424034	1.007154	0.409041
C103	C	0.513207	0.942352	0.344253
C104	C	1.351514	0.333242	-0.264824
C105	C	1.440709	0.268438	-0.329612
C106	C	1.485310	0.275706	-0.401691
C107	C	1.440719	0.347784	-0.408981
C108	C	1.351531	0.412586	-0.344193
C109	C	1.351525	0.412604	0.039707
C110	C	1.440722	0.347812	0.039705
C111	C	1.485328	0.275729	0.000029
C112	C	1.440741	0.268439	-0.039653
C113	C	1.351552	0.333229	-0.039654
C114	C	1.351480	0.717153	-0.264816
C115	C	1.440645	0.717168	-0.329603
C116	C	1.485244	0.677493	-0.401682
C117	C	1.440665	0.637808	-0.408975
C118	C	1.351496	0.637798	-0.344188
H119	H	0.734186	1.027642	0.072025
C120	C	1.161736	1.325223	-0.083200
H121	H	1.146090	1.374136	-0.077478
H122	H	1.206730	1.298297	-0.135414
H123	H	1.206496	1.298305	-0.063531
H124	H	1.130496	0.605488	0.649890
C125	C	0.281323	1.150471	-0.000006
H126	H	0.261161	1.135797	-0.029317
H127	H	0.310535	1.179791	-0.021247
H128	H	0.211732	1.179781	0.050546
C129	C	1.489733	0.189163	-0.321580
H130	H	1.450376	0.194121	-0.269373
H131	H	1.573925	0.162231	-0.345193
H132	H	1.475115	0.162234	-0.345210
C133	C	1.161706	0.863052	-0.083289
H134	H	1.226756	0.867993	-0.106913
H135	H	1.166246	0.836126	-0.120835
H136	H	1.166244	0.836129	-0.049036
H137	H	1.315216	0.605479	-0.350137
H138	H	0.734195	1.145183	0.072005
H139	H	0.734213	0.749447	0.467731
H140	H	0.549510	1.027628	0.206199
C141	C	0.562230	0.594141	0.185624
H142	H	0.522884	0.570520	0.190582
H143	H	0.646426	0.556590	0.158688
H144	H	0.547590	0.628394	0.158702
H145	H	0.549514	0.883646	-0.071970
C146	C	0.562227	0.863077	0.352279
H147	H	0.621728	0.825518	0.303375
H148	H	0.498194	0.857406	0.379206
H149	H	0.597023	0.857396	0.379202
C150	C	0.703008	1.355815	0.083347
H151	H	0.637962	1.408022	0.106971
H152	H	0.698464	1.332187	0.120893
H153	H	0.698471	1.332189	0.049092
C154	C	1.583337	0.677504	-0.472941
H155	H	1.603497	0.706816	-0.458267
H156	H	1.554118	0.698747	-0.502259
H157	H	1.652930	0.626949	-0.502250
C158	C	0.562209	1.029735	0.083354
H159	H	0.621716	0.980829	0.077678
H160	H	0.498181	1.056665	0.135549
H161	H	0.597000	1.056658	0.063751
H162	H	1.315205	0.327309	-0.206139
H163	H	1.130521	0.605481	0.323766
H164	H	0.734220	1.471289	0.072015
H165	H	0.387711	1.001247	0.467736
H166	H	1.476932	0.749483	-0.323650
C167	C	1.161735	1.189157	-0.083298
H168	H	1.226780	1.194102	-0.106920
H169	H	1.166278	1.162230	-0.120846
H170	H	1.166277	1.162230	-0.049048
C171	C	0.281352	1.150518	0.473011
H172	H	0.261188	1.194479	0.458338
H173	H	0.310570	1.150533	0.502330
H174	H	0.211762	1.150528	0.502319
C175	C	0.562293	0.760783	0.352247
H176	H	0.522981	0.784400	0.404453
H177	H	0.547678	0.798336	0.328627
H178	H	0.646494	0.726521	0.328618
C179	C	1.583398	0.204419	-0.472951
H180	H	1.603547	0.160458	-0.458278
H181	H	1.652988	0.204401	-0.502271
H182	H	1.554152	0.204413	-0.502258
C183	C	1.489778	0.355769	-0.488269
H184	H	1.549268	0.306849	-0.525804
H185	H	1.524570	0.382692	-0.493967
H186	H	1.425752	0.382681	-0.493958
H187	H	1.315214	0.471291	0.072021
H188	H	1.130503	1.001204	-0.071960
C189	C	1.161734	0.594143	0.185625
H190	H	1.226778	0.570506	0.190575
H191	H	1.166281	0.628386	0.158696
H192	H	1.166274	0.556591	0.158701
H193	H	0.306866	0.677474	0.454535
C194	C	1.161704	0.594147	0.511737
H195	H	1.146064	0.599833	0.474189
H196	H	1.206579	0.541946	0.506055
H197	H	1.206581	0.613744	0.506054
C198	C	0.374972	0.594154	0.321705
H199	H	0.315473	0.599851	0.370622
H200	H	0.438975	0.541949	0.294784
H201	H	0.340158	0.613762	0.294793
C202	C	1.489740	0.355845	0.083365
H203	H	1.450380	0.408056	0.107003
H204	H	1.573931	0.332230	0.049128
H205	H	1.475122	0.332217	0.120913
C206	C	1.489742	0.594163	-0.488264
H207	H	1.549241	0.599849	-0.525798
H208	H	1.425737	0.613745	-0.493965
H209	H	1.524555	0.541956	-0.493951
C210	C	0.375005	1.165775	0.321640
H211	H	0.414325	1.160816	0.269432
H212	H	0.389626	1.192709	0.345255
H213	H	0.290805	1.192701	0.345267
H214	H	0.734179	0.749461	0.793846
C215	C	1.302479	0.491859	-0.352223
H216	H	1.341812	0.486899	-0.404431
H217	H	1.317079	0.518802	-0.328598
H218	H	1.218283	0.518777	-0.328606
C219	C	1.583430	0.204466	0.000039
H220	H	1.603579	0.219140	0.029359
H221	H	1.653016	0.175149	-0.050508
H222	H	1.554200	0.175153	0.021290
C223	C	1.489807	0.189146	-0.083286
H224	H	1.549297	0.151609	-0.077590
H225	H	1.524600	0.183447	-0.135487
H226	H	1.425784	0.183458	-0.063683
C227	C	0.702980	0.760813	0.678375
H228	H	0.637936	0.784454	0.730580
H229	H	0.698416	0.726579	0.654750
H230	H	0.698459	0.798362	0.654749
C231	C	1.302505	0.325199	-0.083291
H232	H	1.341840	0.272988	-0.106910
H233	H	1.317103	0.348822	-0.120840
H234	H	1.218308	0.348818	-0.049036
H235	H	0.734211	0.749449	0.350176
H236	H	0.387739	1.001174	-0.071986
C237	C	0.374927	1.165792	0.083333
H238	H	0.315423	1.203328	0.077646
H239	H	0.438929	1.171492	0.063752
H240	H	0.340119	1.171479	0.135537
C241	C	0.375040	0.760804	0.488308
H242	H	0.414362	0.784442	0.483350
H243	H	0.389666	0.726564	0.515239
H244	H	0.290839	0.798354	0.515233
C245	C	1.302430	0.760800	-0.185535
H246	H	1.242944	0.755112	-0.147987
H247	H	1.267632	0.813001	-0.179852
H248	H	1.366458	0.741205	-0.179851
