data_functionalizedCrystal
_audit_creation_method	'MofGen! by Chris Wilmer'
_symmetry_space_group_name_H-M	'P1'
_symmetry_Int_Tables_number	1
_symmetry_cell_setting	triclinic
loop_
_symmetry_equiv_pos_as_xyz
  x,y,z
_cell_length_a	12.759401
_cell_length_b	13.897447
_cell_length_c	12.759393
_cell_angle_alpha	90.031000
_cell_angle_beta	90.019676
_cell_angle_gamma	90.019956
loop_
_atom_site_label
_atom_site_type_symbol
_atom_site_fract_x
_atom_site_fract_y
_atom_site_fract_z
Zn1	Zn	1.606231	-0.383957	0.593981
Zn2	Zn	1.606107	-0.545284	0.418300
Zn3	Zn	1.430530	-0.384005	0.418320
Zn4	Zn	1.430507	-0.545213	0.593941
O5	O	1.518344	-0.464615	0.506135
O6	O	1.753236	-0.405367	0.570685
O7	O	1.582774	-0.523939	0.271281
O8	O	1.453898	-0.249017	0.441647
O9	O	1.753145	-0.523893	0.441612
O10	O	1.582985	-0.248982	0.570705
O11	O	1.453778	-0.405449	0.271296
O12	O	1.283506	-0.405381	0.441608
O13	O	1.453859	-0.523773	0.740967
O14	O	1.283489	-0.523819	0.570636
O15	O	1.582963	-0.405299	0.740997
O16	O	1.582752	-0.680256	0.441573
O17	O	1.453739	-0.680204	0.570616
C18	C	1.245376	-0.464598	0.506121
C19	C	1.128600	-0.464614	0.506139
C20	C	1.073786	-0.403010	0.573451
C21	C	0.964062	-0.403019	0.573458
C22	C	0.963975	-0.526247	0.438838
C23	C	1.073697	-0.526232	0.438827
C24	C	0.814153	-0.289323	0.611227
C25	C	0.759335	-0.227726	0.678555
C26	C	0.794995	-0.213025	0.781094
C27	C	0.885471	-0.259934	0.816325
C28	C	0.940283	-0.321538	0.749003
C29	C	0.904624	-0.336221	0.646450
C30	C	1.223608	-0.639930	0.401068
C31	C	1.278423	-0.701539	0.333750
C32	C	1.242765	-0.716250	0.231210
C33	C	1.152285	-0.669358	0.195982
C34	C	1.097471	-0.607749	0.263300
C35	C	1.133137	-0.593036	0.365839
C36	C	1.518258	-0.715229	0.506111
C37	C	1.518318	-0.822443	0.506136
C38	C	1.518369	-0.909513	0.506160
C39	C	1.518442	-1.018745	0.506187
C40	C	1.792377	-0.464632	0.506151
C41	C	1.909154	-0.464640	0.506157
C42	C	1.518422	-0.464522	0.780169
C43	C	1.518456	-0.464483	0.896946
C44	C	1.518458	-0.213022	0.506183
C45	C	1.518507	-0.105808	0.506203
C46	C	1.518326	-0.464638	0.233168
C47	C	1.518496	-0.464405	0.116392
C48	C	1.585685	-0.402784	0.951825
C49	C	1.585703	-0.402742	1.061549
C50	C	1.451259	-0.526107	1.061505
C51	C	1.451237	-0.526143	0.951783
C52	C	1.623326	-0.288937	1.211527
C53	C	1.690571	-0.227246	1.266410
C54	C	1.793085	-0.212456	1.230816
C55	C	1.828375	-0.259372	1.140342
C56	C	1.761135	-0.321070	1.085465
C57	C	1.658606	-0.335841	1.121057
C58	C	1.413625	-0.639950	0.801803
C59	C	1.346390	-0.701653	0.746923
C60	C	1.243874	-0.716453	0.782515
C61	C	1.208588	-0.669554	0.872993
C62	C	1.275824	-0.607851	0.927872
C63	C	1.378339	-0.593050	0.892273
H64	H	1.352106	-0.739708	0.362436
H65	H	1.252656	-0.627949	0.484563
C66	C	1.867051	-0.144589	1.291187
N67	N	1.922755	-0.093465	1.336659
H68	H	1.661829	-0.189047	1.340075
H69	H	1.640416	-0.352573	0.907179
H70	H	1.497100	-0.627898	0.772810
H71	H	1.013950	-0.359726	0.777686
H72	H	0.914491	-0.247967	0.899827
H73	H	0.785117	-0.301277	0.527728
C74	C	0.659823	-0.176117	0.639791
N75	N	0.584872	-0.137243	0.610598
C76	C	1.169917	-0.784334	0.722144
N77	N	1.114211	-0.835459	0.676675
C78	C	1.385211	-0.753247	0.647398
N79	N	1.414450	-0.792106	0.572435
H80	H	1.539848	-0.300965	1.240511
C81	C	1.095814	-0.685832	0.912146
N82	N	1.010871	-0.698096	0.941634
H83	H	1.118484	-0.352834	0.628257
H84	H	0.750355	-0.162871	0.835913
H85	H	1.789868	-0.359271	1.011805
C86	C	1.237003	-0.556256	1.027398
N87	N	1.207763	-0.517394	1.102359
C88	C	0.903573	-0.594029	0.364806
N89	N	0.858078	-0.645086	0.309046
H90	H	1.123248	-0.681341	0.112487
C91	C	0.997944	-0.556162	0.224543
N92	N	0.922981	-0.517306	0.195352
H93	H	1.287385	-0.766445	0.176412
H94	H	1.911856	-0.247332	1.111374
C95	C	1.377320	-0.593928	1.121836
N96	N	1.321628	-0.645012	1.167277
