data_functionalizedCrystal
_audit_creation_method	'MofGen! by Chris Wilmer'
_symmetry_space_group_name_H-M	'P1'
_symmetry_Int_Tables_number	1
_symmetry_cell_setting	triclinic
loop_
_symmetry_equiv_pos_as_xyz
  x,y,z
_cell_length_a	17.699083
_cell_length_b	10.654550
_cell_length_c	9.130313
_cell_angle_alpha	90.000276
_cell_angle_beta	89.994594
_cell_angle_gamma	96.116027
loop_
_atom_site_label
_atom_site_type_symbol
_atom_site_fract_x
_atom_site_fract_y
_atom_site_fract_z
O1	O	0.106303	-1.665979	-0.121693
O2	O	0.116430	-1.300323	-0.121721
O3	O	0.001243	-1.493481	-0.121693
O4	O	0.221490	-1.472820	-0.121721
O5	O	0.001240	-1.493468	0.121906
O6	O	0.116427	-1.300310	0.121878
O7	O	0.106299	-1.665966	0.121906
Cu8	Cu	0.111363	-1.483136	0.144134
Cu9	Cu	0.111367	-1.483152	-0.143949
O10	O	0.221487	-1.472807	0.121878
C11	C	0.115685	-1.253531	0.000076
C12	C	0.113460	-1.114127	0.000066
C13	C	-0.026960	-1.492735	0.000106
C14	C	-0.110993	-1.490514	0.000107
N15	N	0.111360	-1.483135	0.346757
C16	C	-0.158893	-1.603894	0.000117
C17	C	-0.237849	-1.601799	0.000104
C18	C	-0.268904	-1.486323	0.000091
C19	C	-0.220998	-1.372935	0.000076
C20	C	-0.142043	-1.375030	0.000079
C21	C	-0.539415	-1.364481	0.000064
C22	C	-0.618376	-1.362394	0.000065
C23	C	-0.635221	-1.591249	0.000089
C24	C	-0.556266	-1.593345	0.000092
C25	C	-0.508367	-1.479957	0.000069
C26	C	-0.422753	-1.482229	0.000080
C27	C	-0.354516	-1.484050	0.000090
C28	C	0.249690	-1.473554	0.000075
C29	C	0.333722	-1.475775	0.000065
C30	C	0.107045	-1.712757	0.000106
C31	C	0.109269	-1.852161	0.000107
C32	C	0.181281	-1.033454	0.000061
C33	C	0.179186	-0.902470	0.000087
C34	C	0.041444	-0.932844	0.000115
C35	C	0.043539	-1.063826	0.000100
N36	N	0.111364	-1.483164	-0.346572
C37	C	0.060376	-1.568694	0.423421
C38	C	0.060376	-1.568706	0.576758
C39	C	0.162350	-1.397596	0.576753
C40	C	0.162345	-1.397579	0.423419
H41	H	-0.133614	-1.697927	0.000137
Cl42	Cl	0.226440	-1.290004	0.327032
H43	H	0.238215	-1.074405	0.000044
Cl44	Cl	-0.003723	-1.676245	0.327052
Cl45	Cl	-0.081825	-1.232489	0.000060
H46	H	0.234412	-0.836791	0.000087
Cl47	Cl	-0.003721	-1.676268	0.673131
Cl48	Cl	0.226447	-1.290049	0.673135
Cl49	Cl	-0.298064	-1.744341	0.000122
H50	H	-0.246289	-1.278912	0.000056
Cl51	Cl	-0.046452	-0.869599	0.000149
H52	H	-0.530986	-1.687377	0.000109
H53	H	-0.674231	-1.683575	0.000100
H54	H	-0.011692	-1.129514	0.000108
Cl55	Cl	-0.657415	-1.217213	0.000046
H56	H	-0.500424	-1.272153	0.000046
