data_functionalizedCrystal
_audit_creation_method	'MofGen! by Chris Wilmer'
_symmetry_space_group_name_H-M	'P1'
_symmetry_Int_Tables_number	1
_symmetry_cell_setting	triclinic
loop_
_symmetry_equiv_pos_as_xyz
  x,y,z
_cell_length_a	9.730223
_cell_length_b	19.288864
_cell_length_c	19.288865
_cell_angle_alpha	83.136245
_cell_angle_beta	89.993453
_cell_angle_gamma	89.985960
loop_
_atom_site_label
_atom_site_type_symbol
_atom_site_fract_x
_atom_site_fract_y
_atom_site_fract_z
O1	O	0.114746	-0.921344	-0.086645
O2	O	0.114654	-0.719084	-0.098333
O3	O	0.114676	-0.826058	0.008641
O4	O	0.114725	-0.814370	-0.193619
O5	O	-0.113904	-0.826057	0.008639
O6	O	-0.113926	-0.719082	-0.098336
O7	O	-0.113834	-0.921343	-0.086647
Zn8	Zn	-0.150172	-0.820213	-0.092492
Zn9	Zn	0.150992	-0.820214	-0.092489
O10	O	-0.113855	-0.814368	-0.193622
C11	C	0.000352	-0.693207	-0.097959
C12	C	0.000316	-0.616103	-0.096830
N13	N	-0.355708	-0.820216	-0.092494
C14	C	0.000382	-0.825682	0.034516
C15	C	0.000369	-0.824553	0.111620
C16	C	-0.427625	-0.867597	-0.045142
C17	C	-0.571508	-0.867595	-0.045133
C18	C	-0.571545	-0.772830	-0.139836
C19	C	-0.427664	-0.772829	-0.139841
C20	C	-0.355668	-0.914984	0.002205
C21	C	-0.427585	-0.962369	0.049561
C22	C	-0.571468	-0.962367	0.049569
C23	C	-0.643434	-0.914980	0.002222
N24	N	0.356529	-0.820216	-0.092481
C25	C	0.000471	-0.947220	-0.087022
C26	C	0.000517	-1.024324	-0.088151
C27	C	0.000353	-0.571407	-0.159598
C28	C	0.000368	-0.498960	-0.158537
C29	C	0.000373	-0.471212	-0.094705
C30	C	0.000329	-0.515918	-0.031929
C31	C	0.000300	-0.588364	-0.032991
C32	C	0.080489	-0.362951	-0.044525
C33	C	0.080526	-0.290506	-0.043465
C34	C	0.000456	-0.247767	-0.091425
C35	C	-0.079634	-0.277479	-0.140457
C36	C	-0.079663	-0.349924	-0.141520
C37	C	0.000404	-0.392658	-0.093546
C38	C	0.000507	-0.124514	-0.153047
C39	C	0.000513	-0.052066	-0.151984
C40	C	0.000488	-0.069026	-0.025374
C41	C	0.000468	-0.141473	-0.026439
C42	C	0.000484	-0.169212	-0.090278
C43	C	0.000442	-0.814745	-0.219497
C44	C	0.000464	-0.815874	-0.296601
C45	C	0.000391	-0.887321	0.156316
C46	C	0.000412	-0.886260	0.228763
C47	C	0.000384	-0.822428	0.256511
C48	C	0.000370	-0.759652	0.211805
C49	C	0.000362	-0.760714	0.139359
C50	C	-0.079706	-0.772248	0.364797
C51	C	-0.079707	-0.771188	0.437242
C52	C	0.000413	-0.819148	0.479956
C53	C	0.080516	-0.868180	0.450219
C54	C	0.080509	-0.869242	0.377774
C55	C	0.000393	-0.821269	0.335065
C56	C	0.000460	-0.880770	0.603209
C57	C	0.000490	-0.879707	0.675657
C58	C	0.000434	-0.753097	0.658697
C59	C	0.000418	-0.754162	0.586250
C60	C	0.000424	-0.818000	0.558511
H61	H	-0.238512	-0.914991	0.002201
H62	H	-0.368983	-1.000946	0.088113
H63	H	0.145746	-0.266320	-0.003543
Cl64	Cl	0.000430	-0.197666	0.052474
Cl65	Cl	0.181159	-0.416673	0.015775
H66	H	0.000352	-0.493322	0.020044
Cl67	Cl	-0.337253	-0.713261	-0.199370
Cl68	Cl	0.000460	-0.961023	0.568333
Cl69	Cl	-0.661876	-1.021929	0.109106
Cl70	Cl	0.000255	-0.644557	0.045924
H71	H	-0.760593	-0.914978	0.002237
H72	H	0.000368	-0.593987	-0.211580
H73	H	0.000401	-0.939303	0.133736
H74	H	0.000392	-0.703049	0.549857
Cl75	Cl	-0.662016	-0.713265	-0.199357
Cl76	Cl	0.000441	-0.965174	0.284963
Cl77	Cl	-0.180301	-0.223757	-0.200755
Cl78	Cl	0.000526	-0.958623	0.731848
Cl79	Cl	0.181214	-0.930875	0.340391
Cl80	Cl	0.000346	-0.679405	0.246686
H81	H	0.145758	-0.907233	0.484997
H82	H	0.000394	-0.462561	-0.209652
Cl83	Cl	0.000479	-0.034151	0.054873
Cl84	Cl	0.000406	-0.672850	0.693572
H85	H	-0.144923	-0.731260	0.461447
Cl86	Cl	-0.180442	-0.711950	0.311106
H87	H	-0.144879	-0.374113	-0.181441
Cl88	Cl	0.000513	-0.159390	-0.233300
H89	H	0.000535	-0.015674	-0.203099
H90	H	0.000344	-0.709599	0.102967
