data_functionalizedCrystal
_audit_creation_method	'MofGen! by Chris Wilmer'
_symmetry_space_group_name_H-M	'P1'
_symmetry_Int_Tables_number	1
_symmetry_cell_setting	triclinic
loop_
_symmetry_equiv_pos_as_xyz
  x,y,z
_cell_length_a	19.121274
_cell_length_b	12.759399
_cell_length_c	12.759393
_cell_angle_alpha	90.026169
_cell_angle_beta	87.583430
_cell_angle_gamma	87.573446
loop_
_atom_site_label
_atom_site_type_symbol
_atom_site_fract_x
_atom_site_fract_y
_atom_site_fract_z
Zn1	Zn	-1.073761	0.486782	-0.525593
Zn2	Zn	-0.573761	0.986782	-0.025593
Zn3	Zn	-1.073690	0.662491	-0.349929
Zn4	Zn	-0.573690	1.162491	0.150071
Zn5	Zn	-0.956309	0.479332	-0.357416
Zn6	Zn	-0.456309	0.979332	0.142584
Zn7	Zn	-0.956303	0.654920	-0.533050
Zn8	Zn	-0.456303	1.154920	-0.033050
O9	O	-1.015016	0.570881	-0.441497
O10	O	-0.515016	1.070881	0.058503
O11	O	-1.172033	0.516376	-0.496037
O12	O	-0.672033	1.016376	0.003963
O13	O	-1.058092	0.638245	-0.203903
O14	O	-0.558092	1.138245	0.296097
O15	O	-0.971921	0.333301	-0.379738
O16	O	-0.471921	0.833301	0.120262
O17	O	-1.171980	0.645469	-0.366978
O18	O	-0.671980	1.145469	0.133022
O19	O	-1.058213	0.338774	-0.503297
O20	O	-0.558213	0.838774	-0.003297
O21	O	-0.971852	0.503679	-0.209404
O22	O	-0.471852	1.003679	0.290596
O23	O	-0.858027	0.496337	-0.386968
O24	O	-0.358027	0.996337	0.113032
O25	O	-0.971911	0.632565	-0.679080
O26	O	-0.471911	1.132565	-0.179080
O27	O	-0.858023	0.625341	-0.516006
O28	O	-0.358023	1.125341	-0.016006
O29	O	-1.058207	0.509035	-0.673602
O30	O	-0.558207	1.009035	-0.173602
O31	O	-1.058086	0.808505	-0.374208
O32	O	-0.558086	1.308505	0.125792
O33	O	-0.971843	0.802943	-0.508746
O34	O	-0.471843	1.302943	-0.008746
C35	C	-0.832542	0.559210	-0.453109
C36	C	-0.332542	1.059210	0.046891
C37	C	-0.754478	0.554242	-0.458102
C38	C	-0.254478	1.054242	0.041898
C39	C	-1.014975	0.843846	-0.441495
C40	C	-0.514975	1.343846	0.058505
C41	C	-1.015022	0.960625	-0.441526
C42	C	-0.515022	1.460625	0.058474
C43	C	-0.717774	0.619011	-0.393153
C44	C	-0.217774	1.119011	0.106847
C45	C	-0.644425	0.614343	-0.397858
C46	C	-0.144425	1.114343	0.102142
C47	C	-0.607782	0.544902	-0.467507
C48	C	-0.107782	1.044902	0.032493
C49	C	-0.644492	0.480130	-0.532463
C50	C	-0.144492	0.980130	-0.032463
C51	C	-0.717839	0.484804	-0.527763
C52	C	-0.217839	0.984804	-0.027763
C53	C	-0.386322	0.527439	-0.485071
C54	C	0.113678	1.027439	0.014929
C55	C	-0.312970	0.522768	-0.489764
C56	C	0.187030	1.022768	0.010236
C57	C	-0.312908	0.656983	-0.355160
C58	C	0.187092	1.156983	0.144840
C59	C	-0.386257	0.661646	-0.350461
C60	C	0.113743	1.161646	0.149539
C61	C	-0.422960	0.596879	-0.415421
C62	C	0.077040	1.096879	0.084579
C63	C	-0.532808	0.540127	-0.472316
C64	C	-0.032808	1.040127	0.027684
C65	C	-0.497933	0.601659	-0.410617
C66	C	0.002067	1.101659	0.089383
C67	C	-1.015067	0.570786	-0.715527
C68	C	-0.515067	1.070786	-0.215527
C69	C	-1.015088	0.570746	-0.832303
C70	C	-0.515088	1.070746	-0.332303
C71	C	-0.198202	0.582585	-0.429826
C72	C	0.301798	1.082585	0.070174
C73	C	-0.276265	0.587537	-0.424816
C74	C	0.223735	1.087537	0.075184
C75	C	-1.059981	1.018352	-0.371549
C76	C	-0.559981	1.518352	0.128451
C77	C	-1.060027	1.128079	-0.371589
C78	C	-0.560027	1.628079	0.128411
C79	C	-0.970150	1.122342	-0.511586
C80	C	-0.470150	1.622342	-0.011586
C81	C	-0.970108	1.012618	-0.511550
C82	C	-0.470108	1.512618	-0.011550
C83	C	-1.015078	1.296852	-0.441539
C84	C	-0.515078	1.796852	0.058461
C85	C	-1.015111	1.180077	-0.441602
C86	C	-0.515111	1.680077	0.058398
C87	C	-1.060012	0.640738	-0.994035
C88	C	-0.560012	1.140738	-0.494035
C89	C	-1.059995	0.640786	-0.884312
C90	C	-0.559995	1.140786	-0.384312
C91	C	-0.970191	0.500660	-0.890023
C92	C	-0.470191	1.000660	-0.390023
C93	C	-0.970205	0.500617	-0.999744
C94	C	-0.470205	1.000617	-0.499744
C95	C	-1.015005	0.570902	-0.168531
C96	C	-0.515005	1.070902	0.331469
C97	C	-1.015120	0.570655	-0.051747
C98	C	-0.515120	1.070655	0.448253
H99	H	-0.747603	0.675554	-0.336433
H100	H	-0.247603	1.175554	0.163567
H101	H	-0.614544	0.667085	-0.344970
H102	H	-0.114544	1.167085	0.155030
H103	H	-0.416087	0.718192	-0.293744
H104	H	0.083913	1.218192	0.206256
H105	H	-1.096638	1.175076	-0.314608
H106	H	-0.596638	1.675076	0.185392
C107	C	-0.426686	0.456179	-0.556516
C108	C	0.073314	0.956179	-0.056516
N109	N	-0.457091	0.402498	-0.610328
N110	N	0.042909	0.902498	-0.110328
C111	C	-0.920661	0.949115	-0.588555
C112	C	-0.420661	1.449115	-0.088555
N113	N	-0.883426	0.901286	-0.646562
N114	N	-0.383426	1.401286	-0.146562
C115	C	-0.920739	1.179544	-0.588598
C116	C	-0.420739	1.679544	-0.088598
N117	N	-0.883518	1.222627	-0.646601
N118	N	-0.383518	1.722627	-0.146601
C119	C	-1.109413	0.717790	-1.051235
C120	C	-0.609413	1.217790	-0.551235
N121	N	-1.146621	0.775831	-1.094314
N122	N	-0.646621	1.275831	-0.594314
H123	H	-0.283017	0.709715	-0.302275
H124	H	0.216983	1.209715	0.197725
C125	C	-0.604182	0.403729	-0.609065
C126	C	-0.104182	0.903729	-0.109065
N127	N	-0.573821	0.346174	-0.666754
N128	N	-0.073821	0.846174	-0.166754
H129	H	-0.747723	0.432061	-0.580651
H130	H	-0.247723	0.932061	-0.080651
H131	H	-1.096551	0.697855	-0.837327
H132	H	-0.596551	1.197855	-0.337327
H133	H	-0.933624	0.443636	-0.847669
H134	H	-0.433624	0.943636	-0.347669
H135	H	-0.283137	0.466211	-0.546478
H136	H	0.216863	0.966211	-0.046478
C137	C	-0.538243	0.678039	-0.334001
C138	C	-0.038243	1.178039	0.165999
N139	N	-0.568610	0.735564	-0.276289
N140	N	-0.068610	1.235564	0.223711
H141	H	-1.096555	0.976023	-0.314532
H142	H	-0.596555	1.476023	0.185468
H143	H	-0.502965	0.483586	-0.529023
H144	H	-0.002965	0.983586	-0.029023
C145	C	-0.920820	0.423513	-1.063231
C146	C	-0.420820	0.923513	-0.563231
N147	N	-0.883624	0.365441	-1.111050
N148	N	-0.383624	0.865441	-0.611050
