data_functionalizedCrystal
_audit_creation_method	'MofGen! by Chris Wilmer'
_symmetry_space_group_name_H-M	'P1'
_symmetry_Int_Tables_number	1
_symmetry_cell_setting	triclinic
loop_
_symmetry_equiv_pos_as_xyz
  x,y,z
_cell_length_a	6.817900
_cell_length_b	11.102289
_cell_length_c	12.200737
_cell_angle_alpha	92.494649
_cell_angle_beta	107.141108
_cell_angle_gamma	108.605707
loop_
_atom_site_label
_atom_site_type_symbol
_atom_site_fract_x
_atom_site_fract_y
_atom_site_fract_z
V1	V	-4.094445	-0.176136	-0.357661
O2	O	-4.053803	0.008159	-0.350853
O3	O	-4.071339	-0.348954	-0.355215
O4	O	-4.063775	-0.173560	-0.513650
O5	O	-4.061419	-0.168449	-0.191321
V6	V	-4.572498	-0.154076	-0.337766
O7	O	-4.367702	-0.224525	-0.401304
O8	O	-4.749438	-0.105687	-0.294123
O9	O	-4.372398	0.018742	-0.340212
O10	O	-4.730537	-0.338371	-0.344574
O11	O	-4.722921	-0.161763	-0.504105
O12	O	-4.379962	-0.156652	-0.181777
C13	C	-3.921919	-0.391079	-0.349572
C14	C	-3.984432	-0.532361	-0.348612
C15	C	-4.197535	-0.605214	-0.353883
C16	C	-4.256266	-0.737964	-0.352991
C17	C	-3.888767	-0.724997	-0.341551
C18	C	-3.830044	-0.592250	-0.342452
C19	C	-4.409705	-0.612701	-0.360483
C20	C	-4.468436	-0.745451	-0.359591
C21	C	-3.912269	-0.167346	-0.551670
C22	C	-3.968643	-0.166383	-0.679192
C23	C	-4.014423	-0.165601	-0.782753
C24	C	-4.071870	-0.164613	-0.912675
C25	C	-4.185160	0.060861	-0.345851
C26	C	-4.101886	0.202141	-0.346819
C27	C	-4.194810	-0.162870	-0.143750
C28	C	-4.117673	-0.163826	-0.016228
H29	H	-4.596185	-0.803389	-0.444574
C30	C	-4.407226	-0.836657	-0.183123
C31	C	-4.542691	-0.779067	-0.253792
H32	H	-4.453060	-0.857410	-0.117808
H33	H	-4.260238	-0.778739	-0.157570
H34	H	-4.416539	-0.912895	-0.226062
H35	H	-4.533365	-0.702824	-0.210855
H36	H	-4.689716	-0.836988	-0.279344
C37	C	-4.702346	-0.703921	-0.540523
C38	C	-4.555306	-0.586833	-0.473109
H39	H	-4.792217	-0.687948	-0.610054
H40	H	-4.791424	-0.749366	-0.498194
H41	H	-4.623107	-0.753847	-0.559055
H42	H	-4.634545	-0.536911	-0.454569
H43	H	-4.466218	-0.541368	-0.515446
C44	C	-4.354842	-0.408968	-0.257719
C45	C	-4.415009	-0.540741	-0.251303
H46	H	-4.358100	-0.364544	-0.190310
H47	H	-4.454442	-0.395080	-0.324617
H48	H	-4.211157	-0.377911	-0.262561
H49	H	-4.558701	-0.571801	-0.246469
H50	H	-4.315405	-0.554638	-0.184387
H51	H	-3.656527	-0.532940	-0.338173
H52	H	-3.763079	-0.773775	-0.336536
