data_functionalizedCrystal
_audit_creation_method	'MofGen! by Chris Wilmer'
_symmetry_space_group_name_H-M	'P1'
_symmetry_Int_Tables_number	1
_symmetry_cell_setting	triclinic
loop_
_symmetry_equiv_pos_as_xyz
  x,y,z
_cell_length_a	17.699083
_cell_length_b	17.699083
_cell_length_c	7.681481
_cell_angle_alpha	84.268690
_cell_angle_beta	95.718198
_cell_angle_gamma	83.283015
loop_
_atom_site_label
_atom_site_type_symbol
_atom_site_fract_x
_atom_site_fract_y
_atom_site_fract_z
O1	O	-0.996919	-0.102877	0.146171
O2	O	-0.776538	-0.115333	0.146233
O3	O	-0.892955	0.001085	0.146185
O4	O	-0.880501	-0.219295	0.146219
O5	O	-0.907285	0.015446	-0.146679
O6	O	-0.790867	-0.100971	-0.146631
O7	O	-1.011248	-0.088516	-0.146693
Zn8	Zn	-0.903333	-0.092463	-0.193160
Zn9	Zn	-0.884453	-0.111385	0.192700
O10	O	-0.894830	-0.204934	-0.146645
C11	C	-0.755505	-0.107706	-0.000191
C12	C	-0.671486	-0.106369	-0.000168
C13	C	-0.622864	-0.174703	-0.000157
C14	C	-0.543922	-0.173439	-0.000179
C15	C	-0.513602	-0.103842	-0.000199
C16	C	-0.562230	-0.035503	-0.000215
C17	C	-0.641171	-0.036766	-0.000206
C18	C	-0.243869	-0.030405	-0.000254
C19	C	-0.164921	-0.029147	-0.000257
C20	C	-0.146619	-0.167079	-0.000226
C21	C	-0.225561	-0.168342	-0.000217
C22	C	-0.274182	-0.100003	-0.000243
C23	C	-0.359780	-0.101373	-0.000223
C24	C	-0.428005	-0.102471	-0.000206
N25	N	-0.916223	-0.079549	-0.456500
C26	C	-0.899674	0.036463	-0.000247
C27	C	-0.898335	0.120481	-0.000248
C28	C	-0.032281	-0.096143	-0.000261
C29	C	-0.116299	-0.097482	-0.000259
C30	C	-0.888112	-0.240312	-0.000209
C31	C	-0.889450	-0.324330	-0.000197
C32	C	-0.966670	0.169103	-0.000269
C33	C	-0.965407	0.248045	-0.000254
C34	C	-0.895809	0.278365	-0.000229
C35	C	-0.827469	0.229736	-0.000202
C36	C	-0.828732	0.150795	-0.000205
C37	C	-0.822373	0.548099	-0.000186
C38	C	-0.821115	0.627047	-0.000188
C39	C	-0.959047	0.645349	-0.000235
C40	C	-0.960311	0.566408	-0.000238
C41	C	-0.891971	0.517786	-0.000202
C42	C	-0.893341	0.432187	-0.000215
C43	C	-0.894439	0.363962	-0.000227
N44	N	-0.871569	-0.124293	0.456040
H45	H	-0.647544	-0.231377	-0.000140
H46	H	-0.107022	-0.222724	-0.000215
Cl47	Cl	-0.801191	-0.194807	-0.427835
H48	H	-0.961813	-0.033881	-0.531725
H49	H	-0.504337	-0.229084	-0.000168
H50	H	-1.021052	0.287631	-0.000275
Cl51	Cl	-0.742822	0.089669	-0.000171
Cl52	Cl	-0.263672	-0.255840	-0.000182
Cl53	Cl	-0.126806	0.058353	-0.000284
H54	H	-0.283448	0.025241	-0.000276
H55	H	-0.537539	0.021166	-0.000256
H56	H	-0.680759	0.018879	-0.000214
H57	H	-1.014693	0.684947	-0.000255
Cl58	Cl	-1.054170	0.130996	-0.000319
H59	H	-0.764437	0.651729	-0.000171
Cl60	Cl	-0.736459	0.486984	-0.000136
Cl61	Cl	-1.047808	0.528296	-0.000263
H62	H	-0.770801	0.254428	-0.000170
