data_functionalizedCrystal
_audit_creation_method	'MofGen! by Chris Wilmer'
_symmetry_space_group_name_H-M	'P1'
_symmetry_Int_Tables_number	1
_symmetry_cell_setting	triclinic
loop_
_symmetry_equiv_pos_as_xyz
  x,y,z
_cell_length_a	10.654562
_cell_length_b	10.654551
_cell_length_c	9.730223
_cell_angle_alpha	90.001469
_cell_angle_beta	89.996961
_cell_angle_gamma	84.487733
loop_
_atom_site_label
_atom_site_type_symbol
_atom_site_fract_x
_atom_site_fract_y
_atom_site_fract_z
O1	O	1.667825	0.176469	-0.114371
O2	O	1.302349	0.193259	-0.114353
O3	O	1.493489	0.002125	-0.114363
O4	O	1.476685	0.367603	-0.114361
O5	O	1.493487	0.002130	0.114217
O6	O	1.302347	0.193263	0.114227
O7	O	1.667823	0.176474	0.114209
Zn8	Zn	1.485085	0.184869	0.150510
Zn9	Zn	1.485088	0.184863	-0.150654
O10	O	1.476683	0.367607	0.114219
C11	C	1.255550	0.192025	-0.000061
C12	C	1.116108	0.188327	-0.000054
C13	C	1.050576	0.186604	0.124534
C14	C	0.919554	0.183139	0.124511
C15	C	0.919606	0.183125	-0.124700
C16	C	1.050627	0.186581	-0.124675
C17	C	1.050544	0.186618	0.268414
C18	C	0.919521	0.183153	0.268391
C19	C	1.492254	-0.044670	-0.000076
C20	C	1.488562	-0.184114	-0.000085
C21	C	1.714622	0.177708	-0.000086
C22	C	1.854064	0.181406	-0.000102
C23	C	1.486831	-0.249629	-0.124682
C24	C	1.483351	-0.380649	-0.124675
C25	C	1.483338	-0.380629	0.124535
C26	C	1.486809	-0.249610	0.124527
C27	C	1.486844	-0.249642	-0.268562
C28	C	1.483363	-0.380662	-0.268555
C29	C	1.477918	0.414403	-0.000071
C30	C	1.481610	0.553846	-0.000071
N31	N	1.485092	0.184873	0.356046
N32	N	1.485090	0.184850	-0.356190
C33	C	1.569751	0.100268	0.427968
C34	C	1.569747	0.100253	0.571851
C35	C	1.400422	0.269459	0.571878
C36	C	1.400420	0.269467	0.427998
C37	C	1.667513	0.002582	0.427953
C38	C	1.667510	0.002567	0.571836
H39	H	1.103980	0.187964	-0.226127
F40	F	1.627619	-0.116662	0.630161
F41	F	1.793656	0.030688	0.622879
F42	F	0.880827	0.063534	0.326977
H43	H	0.866276	0.181703	-0.226161
H44	H	1.096803	0.099825	0.323666
H45	H	1.080118	0.278215	0.313058
F46	F	0.859016	0.296601	0.340586
H47	H	1.578443	-0.220072	-0.313208
H48	H	1.488212	-0.196272	0.225986
F49	F	1.481469	-0.450346	0.257149
F50	F	1.373408	-0.189150	-0.340770
F51	F	1.363642	-0.419323	-0.326912
F52	F	1.596807	-0.441171	-0.340756
F53	F	1.310302	0.359498	0.351454
H54	H	1.758697	0.033175	0.383323
F55	F	1.310313	0.359484	0.648465
H56	H	1.646070	-0.093951	0.388900
