data_functionalizedCrystal
_audit_creation_method	'MofGen! by Chris Wilmer'
_symmetry_space_group_name_H-M	'P1'
_symmetry_Int_Tables_number	1
_symmetry_cell_setting	triclinic
loop_
_symmetry_equiv_pos_as_xyz
  x,y,z
_cell_length_a	18.101395
_cell_length_b	13.032831
_cell_length_c	18.101390
_cell_angle_alpha	97.189192
_cell_angle_beta	89.968753
_cell_angle_gamma	97.164309
loop_
_atom_site_label
_atom_site_type_symbol
_atom_site_fract_x
_atom_site_fract_y
_atom_site_fract_z
Zn1	Zn	-0.438785	-1.597513	-0.562261
Zn2	Zn	-0.562629	-1.597371	-0.438410
Zn3	Zn	-0.423069	-1.422766	-0.422734
Zn4	Zn	-0.546833	-1.422692	-0.546517
O5	O	-0.492829	-1.510085	-0.492480
O6	O	-0.468401	-1.743730	-0.558981
O7	O	-0.544150	-1.574181	-0.332695
O8	O	-0.321529	-1.446037	-0.441271
O9	O	-0.559389	-1.743625	-0.467988
O10	O	-0.333075	-1.574423	-0.543781
O11	O	-0.441615	-1.445899	-0.321178
O12	O	-0.426298	-1.276521	-0.426005
O13	O	-0.532466	-1.445911	-0.652241
O14	O	-0.517227	-1.276466	-0.516948
O15	O	-0.453084	-1.574351	-0.663808
O16	O	-0.664158	-1.574109	-0.452722
O17	O	-0.652553	-1.445773	-0.532148
C18	C	-0.685227	-1.509946	-0.492446
C19	C	-0.767544	-1.509981	-0.492465
C20	C	-0.468344	-1.238576	-0.468067
C21	C	-0.457887	-1.122423	-0.457641
C22	C	-0.492766	-1.510138	-0.685647
C23	C	-0.492740	-1.510161	-0.767963
C24	C	-1.066656	-1.510211	-0.492525
C25	C	-1.028076	-1.429653	-0.542657
C26	C	-0.942424	-1.429270	-0.542443
C27	C	-0.918263	-1.510097	-0.492496
C28	C	-0.946733	-1.480285	-0.411768
C29	C	-1.032331	-1.479765	-0.412065
C30	C	-1.044962	-1.620757	-0.522450
C31	C	-0.959252	-1.620107	-0.524104
C32	C	-0.834398	-1.510034	-0.492475
C33	C	-1.150521	-1.510271	-0.492541
C34	C	-0.299682	-1.510254	-0.492534
C35	C	-0.217374	-1.510326	-0.492556
C36	C	-0.517410	-1.782655	-0.516989
C37	C	-0.527885	-1.898808	-0.527433
C38	C	-0.498287	-1.070639	-0.497922
C39	C	-0.487480	-0.950589	-0.487147
C40	C	-0.492720	-1.510198	-0.918675
C41	C	-0.442770	-1.591012	-0.957307
C42	C	-0.442955	-1.591350	-1.042955
C43	C	-0.492699	-1.510235	-1.067061
C44	C	-0.573466	-1.539693	-1.038599
C45	C	-0.573199	-1.540258	-0.953005
C46	C	-0.462563	-1.399731	-0.940308
C47	C	-0.460883	-1.400345	-1.026014
C48	C	-0.492692	-1.510254	-1.150922
C49	C	-0.492732	-1.510182	-0.834814
C50	C	-0.492843	-1.510093	-0.300071
C51	C	-0.492679	-1.510273	-0.217773
H52	H	-0.923037	-1.447921	-0.601991
C53	C	-0.362482	-1.566524	-1.069149
C54	C	-0.297599	-1.546251	-1.012095
C55	C	-0.217121	-1.521433	-1.038285
C56	C	-0.201526	-1.516889	-1.121528
C57	C	-0.266411	-1.537163	-1.178587
C58	C	-0.346889	-1.561981	-1.152397
H59	H	-0.309141	-1.549614	-0.950469
H60	H	-0.169089	-1.506425	-0.996046
H61	H	-0.141952	-1.498517	-1.140915
H62	H	-0.254869	-1.533800	-1.240213
H63	H	-0.394921	-1.576989	-1.194636
H64	H	-0.918143	-1.400332	-0.387345
H65	H	-0.940911	-1.642589	-0.583563
H66	H	-0.914616	-1.347330	-0.521838
C67	C	-0.555824	-1.130799	-0.555289
C68	C	-0.548555	-1.115946	-0.638165
C69	C	-0.606095	-1.176102	-0.695534
C70	C	-0.670903	-1.251112	-0.670027
C71	C	-0.678175	-1.265968	-0.587148
C72	C	-0.620635	-1.205812	-0.529779
H73	H	-0.500578	-1.060416	-0.657050
H74	H	-0.600712	-1.165103	-0.756887
H75	H	-0.713497	-1.295643	-0.712495
H76	H	-0.726152	-1.321498	-0.568263
H77	H	-0.626019	-1.216811	-0.468426
H78	H	-0.943538	-1.683302	-0.491042
C79	C	-0.511535	-1.318388	-0.905586
C80	C	-0.476936	-1.224751	-0.850825
C81	C	-0.525910	-1.143418	-0.816100
C82	C	-0.609485	-1.155723	-0.836137
C83	C	-0.644089	-1.249364	-0.890902
C84	C	-0.595114	-1.330697	-0.925626
H85	H	-0.415065	-1.215639	-0.835990
H86	H	-0.500294	-1.074098	-0.775560
H87	H	-0.645739	-1.095515	-0.810432
H88	H	-0.705959	-1.258476	-0.905737
H89	H	-0.620731	-1.400017	-0.966167
H90	H	-1.070624	-1.680776	-0.486059
C91	C	-1.077370	-1.657481	-0.601327
C92	C	-1.123958	-1.587550	-0.639574
C93	C	-1.156367	-1.624260	-0.718452
C94	C	-1.142188	-1.730902	-0.759083
C95	C	-1.095598	-1.800840	-0.720836
C96	C	-1.063189	-1.764130	-0.641958
H97	H	-1.134456	-1.508601	-0.609496
H98	H	-1.190856	-1.572487	-0.746764
H99	H	-1.166179	-1.758077	-0.817473
H100	H	-1.085100	-1.879788	-0.750914
H101	H	-1.028700	-1.815903	-0.613646
H102	H	-0.570473	-0.943345	-0.569904
C103	C	-0.400350	-1.062261	-0.400274
C104	C	-0.407619	-1.077113	-0.317398
C105	C	-0.350081	-1.016954	-0.260029
C106	C	-0.285273	-0.941943	-0.285536
C107	C	-0.278001	-0.927088	-0.368416
C108	C	-0.335540	-0.987247	-0.425785
H109	H	-0.455596	-1.132643	-0.298513
H110	H	-0.355464	-1.027951	-0.198676
H111	H	-0.242680	-0.897410	-0.243068
H112	H	-0.230024	-0.871557	-0.387301
H113	H	-0.330156	-0.976250	-0.487138
C114	C	-1.058080	-1.454595	-0.623335
C115	C	-1.096663	-1.373544	-0.658853
C116	C	-1.126674	-1.398491	-0.739532
C117	C	-1.118103	-1.504488	-0.784694
C118	C	-1.079519	-1.585545	-0.749176
C119	C	-1.049508	-1.560598	-0.668496
H120	H	-1.103009	-1.295073	-0.625421
H121	H	-1.155237	-1.338487	-0.765824
H122	H	-1.140320	-1.522955	-0.844418
H123	H	-1.073173	-1.664016	-0.782608
H124	H	-1.020945	-1.620603	-0.642204
C125	C	-1.047321	-1.319627	-0.515113
C126	C	-1.097870	-1.302683	-0.447363
C127	C	-1.117118	-1.192659	-0.419819
C128	C	-1.085817	-1.099579	-0.460025
C129	C	-1.035265	-1.116520	-0.527780
C130	C	-1.016017	-1.226544	-0.555324
H131	H	-1.121043	-1.371589	-0.417596
H132	H	-1.154540	-1.180119	-0.369662
H133	H	-1.100066	-1.018133	-0.439636
H134	H	-1.012092	-1.047614	-0.557546
H135	H	-0.978595	-1.239084	-0.605480
H136	H	-0.401396	-1.378123	-1.044353
C137	C	-0.470552	-1.700972	-0.938134
C138	C	-0.538332	-1.717630	-0.887596
C139	C	-0.566118	-1.827589	-0.868424
C140	C	-0.526123	-1.920889	-0.899791
C141	C	-0.458339	-1.904234	-0.950332
C142	C	-0.430553	-1.794275	-0.969504
H143	H	-0.567942	-1.648561	-0.864373
H144	H	-0.616296	-1.839918	-0.831010
H145	H	-0.546692	-2.002287	-0.885599
H146	H	-0.428729	-1.973303	-0.973555
H147	H	-0.380375	-1.781946	-1.006918
H148	H	-0.444885	-0.906051	-0.444684
C149	C	-1.049576	-1.370598	-0.379382
C150	C	-1.097197	-1.357418	-0.309116
C151	C	-1.114437	-1.248247	-0.276435
C152	C	-1.084056	-1.152257	-0.314019
C153	C	-1.036432	-1.165433	-0.384290
C154	C	-1.019192	-1.274604	-0.416971
H155	H	-1.119690	-1.428479	-0.281290
H156	H	-1.149692	-1.238494	-0.224416
H157	H	-1.096818	-1.071442	-0.289827
H158	H	-1.013939	-1.094373	-0.412116
H159	H	-0.983937	-1.284358	-0.468990
H160	H	-0.493789	-1.336955	-1.041686
H161	H	-0.383044	-1.572830	-0.935099
H162	H	-0.463718	-1.673216	-1.070807
H163	H	-0.597562	-1.620997	-0.940289
H164	H	-0.612217	-1.483911	-0.927187
C165	C	-0.625701	-1.462635	-1.059143
C166	C	-0.595552	-1.371846	-1.102104
C167	C	-0.647786	-1.294788	-1.122649
C168	C	-0.730168	-1.308518	-1.100233
C169	C	-0.760321	-1.399310	-1.057269
C170	C	-0.708087	-1.476369	-1.036724
H171	H	-0.534564	-1.361679	-1.118700
H172	H	-0.625464	-1.227577	-1.154453
H173	H	-0.768834	-1.251474	-1.115442
H174	H	-0.821309	-1.409477	-1.040674
H175	H	-0.730408	-1.543579	-1.004920
H176	H	-0.598048	-1.619540	-1.067246
H177	H	-0.931487	-1.537114	-0.372964
C178	C	-1.067162	-1.555566	-0.359148
C179	C	-1.017068	-1.616374	-0.316753
C180	C	-1.051894	-1.692159	-0.263829
C181	C	-1.136812	-1.707137	-0.253299
C182	C	-1.186910	-1.646327	-0.295694
C183	C	-1.152085	-1.570542	-0.348619
H184	H	-0.954202	-1.605288	-0.324547
H185	H	-1.014807	-1.737175	-0.232444
H186	H	-1.162592	-1.763238	-0.214121
H187	H	-1.249776	-1.657413	-0.287901
H188	H	-1.189171	-1.525526	-0.380003
C189	C	-0.383650	-1.363385	-0.907895
C190	C	-0.345584	-1.433558	-0.861360
C191	C	-0.266669	-1.397228	-0.828950
C192	C	-0.225820	-1.290725	-0.843075
C193	C	-0.263886	-1.220546	-0.889612
C194	C	-0.342801	-1.256876	-0.922022
H195	H	-0.375823	-1.512404	-0.850902
H196	H	-0.238490	-1.449180	-0.794500
H197	H	-0.167402	-1.263831	-0.819083
H198	H	-0.233647	-1.141700	-0.900071
H199	H	-0.370980	-1.204924	-0.956473
