data_functionalizedCrystal
_audit_creation_method	'MofGen! by Chris Wilmer'
_symmetry_space_group_name_H-M	'P1'
_symmetry_Int_Tables_number	1
_symmetry_cell_setting	triclinic
loop_
_symmetry_equiv_pos_as_xyz
  x,y,z
_cell_length_a	21.295420
_cell_length_b	16.120484
_cell_length_c	16.120297
_cell_angle_alpha	84.385569
_cell_angle_beta	92.878199
_cell_angle_gamma	87.076179
loop_
_atom_site_label
_atom_site_type_symbol
_atom_site_fract_x
_atom_site_fract_y
_atom_site_fract_z
Zn1	Zn	0.929947	0.356786	-0.489461
Zn2	Zn	0.929867	0.489476	-0.356771
Zn3	Zn	0.830300	0.349718	-0.349706
Zn4	Zn	0.819030	0.496512	-0.496493
O5	O	0.877286	0.423123	-0.423108
O6	O	1.018024	0.374401	-0.471873
O7	O	0.921343	0.465034	-0.238872
O8	O	0.848269	0.233690	-0.362345
O9	O	1.017966	0.471887	-0.374387
O10	O	0.921478	0.238883	-0.465022
O11	O	0.848192	0.362354	-0.233682
O12	O	0.740717	0.369177	-0.369164
O13	O	0.829059	0.483880	-0.612522
O14	O	0.732436	0.477027	-0.477008
O15	O	0.910550	0.381224	-0.607356
O16	O	0.910414	0.607374	-0.381206
O17	O	0.828982	0.612544	-0.483858
C18	C	0.713736	0.423099	-0.423083
C19	C	0.643767	0.423110	-0.423093
C20	C	0.140011	0.479376	-0.479215
C21	C	0.205754	0.479376	-0.479206
C22	C	0.242925	0.423143	-0.423135
C23	C	0.214348	0.366921	-0.367054
C24	C	0.148606	0.366929	-0.367059
N25	N	0.349358	0.349640	-0.413138
N26	N	0.411810	0.349635	-0.413139
C27	C	0.441001	0.423119	-0.423116
N28	N	0.405381	0.496609	-0.433110
N29	N	0.342924	0.496613	-0.433113
C30	C	0.314211	0.423129	-0.423123
C31	C	0.540857	0.479341	-0.479180
C32	C	0.606601	0.479342	-0.479166
C33	C	0.615194	0.366880	-0.367017
C34	C	0.549451	0.366887	-0.367028
C35	C	0.512286	0.423116	-0.423114
C36	C	0.868483	0.640288	-0.434080
C37	C	0.864774	0.733193	-0.438802
C38	C	0.868556	0.434125	-0.641114
C39	C	0.864836	0.438814	-0.734015
C40	C	1.041474	0.423148	-0.423134
C41	C	1.111442	0.423158	-0.423145
C42	C	0.886140	0.205111	-0.412111
C43	C	0.889912	0.112208	-0.407425
C44	C	0.858004	0.903293	-0.447440
C45	C	0.896680	0.942113	-0.398790
C46	C	0.892913	1.036763	-0.403596
C47	C	0.861770	0.808635	-0.442635
C48	C	0.858022	0.447355	-0.904105
C49	C	0.896684	0.398640	-0.942950
C50	C	0.892893	0.403393	-1.037594
C51	C	0.861812	0.442604	-0.809452
C52	C	0.886020	0.412103	-0.205947
C53	C	0.889872	0.407179	-0.113035
H54	H	0.244617	0.321138	-0.321399
H55	H	0.510596	0.525127	-0.524848
O56	O	0.521613	0.312254	-0.312671
C57	C	0.452401	0.198839	-0.295875
C58	C	0.483879	0.260663	-0.357539
H59	H	0.421896	0.157100	-0.332127
H60	H	0.421784	0.234927	-0.254076
H61	H	0.490260	0.158683	-0.255765
H62	H	0.446063	0.300835	-0.397704
H63	H	0.514510	0.224524	-0.399280
H64	H	0.822077	0.492628	-0.941926
H65	H	0.932632	0.353363	-0.905127
H66	H	0.645458	0.321098	-0.321360
O67	O	0.120952	0.312232	-0.312562
C68	C	0.136412	0.200723	-0.201292
C69	C	0.167813	0.262610	-0.262976
H70	H	0.174285	0.160599	-0.161173
H71	H	0.105889	0.158960	-0.237491
H72	H	0.105808	0.236842	-0.159505
H73	H	0.198448	0.226559	-0.304778
H74	H	0.198299	0.304372	-0.226725
H75	H	0.629861	0.525127	-0.524823
O76	O	0.939498	0.896839	-0.344807
C77	C	0.982373	0.759854	-0.290792
C78	C	0.933849	0.811028	-0.351951
H79	H	0.977831	0.690467	-0.296560
H80	H	0.973386	0.773539	-0.224218
H81	H	1.031862	0.777681	-0.306364
H82	H	0.884341	0.793230	-0.336456
H83	H	0.942891	0.797337	-0.418507
H84	H	0.822067	0.941139	-0.492696
H85	H	0.109755	0.525165	-0.524882
H86	H	0.229020	0.525155	-0.524869
