data_functionalizedCrystal
_audit_creation_method	'MofGen! by Chris Wilmer'
_symmetry_space_group_name_H-M	'P1'
_symmetry_Int_Tables_number	1
_symmetry_cell_setting	triclinic
loop_
_symmetry_equiv_pos_as_xyz
  x,y,z
_cell_length_a	8.559649
_cell_length_b	14.044220
_cell_length_c	7.681481
_cell_angle_alpha	83.732834
_cell_angle_beta	94.913240
_cell_angle_gamma	81.483771
loop_
_atom_site_label
_atom_site_type_symbol
_atom_site_fract_x
_atom_site_fract_y
_atom_site_fract_z
O1	O	2.101908	-0.021858	-0.146399
O2	O	2.601908	0.478142	0.353601
O3	O	1.643608	0.026593	-0.146411
O4	O	2.143608	0.526593	0.353589
O5	O	1.865881	-0.135117	-0.146388
O6	O	2.365881	0.364883	0.353612
O7	O	1.879635	0.139853	-0.146422
O8	O	2.379635	0.639853	0.353578
O9	O	1.893233	-0.155061	0.146473
O10	O	2.393233	0.344939	0.646473
O11	O	1.670961	0.006649	0.146449
O12	O	2.170961	0.506649	0.646449
O13	O	2.129260	-0.041802	0.146461
O14	O	2.629260	0.458198	0.646461
Zn15	Zn	1.904453	-0.020743	0.192953
Zn16	Zn	2.404453	0.479257	0.692953
Zn17	Zn	1.868415	0.005534	-0.192903
Zn18	Zn	2.368415	0.505534	0.307097
O19	O	1.906988	0.119909	0.146438
O20	O	2.406988	0.619909	0.646438
C21	C	1.598278	0.020293	0.000018
C22	C	2.098278	0.520293	0.500018
C23	C	1.422455	0.031222	0.000014
C24	C	1.922455	0.531222	0.500014
C25	C	1.873534	-0.179966	0.000043
C26	C	2.373534	0.320034	0.500043
C27	C	1.855571	-0.283884	0.000045
C28	C	2.355571	0.216116	0.500045
C29	C	1.822727	-0.474153	0.000018
C30	C	2.322727	0.025847	0.500018
C31	C	1.950133	-0.541060	0.000016
C32	C	2.450133	-0.041060	0.500016
C33	C	1.931858	-0.646933	0.000002
C34	C	2.431858	-0.146933	0.500002
C35	C	1.840999	-0.368270	0.000033
C36	C	2.340999	0.131730	0.500033
C37	C	2.174590	-0.035501	0.000029
C38	C	2.674590	0.464499	0.500029
C39	C	2.350412	-0.046430	0.000021
C40	C	2.850412	0.453570	0.500021
C41	C	1.899334	0.164757	0.000003
C42	C	2.399334	0.664757	0.500003
C43	C	1.917296	0.268676	-0.000010
C44	C	2.417296	0.768676	0.499990
N45	N	1.929059	-0.038678	0.456290
N46	N	2.429059	0.461322	0.956290
N47	N	1.843820	0.023461	-0.456240
N48	N	2.343820	0.523461	0.043760
H49	H	1.349615	0.106070	-0.000005
H50	H	1.849615	0.606070	0.499995
O51	O	1.740188	0.099238	0.454132
O52	O	2.240188	0.599238	0.954132
C53	C	1.783484	0.187160	0.499072
C54	C	2.283484	0.687160	0.999072
H55	H	1.914880	0.174910	0.549846
H56	H	2.414880	0.674910	1.049846
H57	H	1.760855	0.243757	0.377746
H58	H	2.260855	0.743757	0.877746
H59	H	1.709730	0.213910	0.605958
H60	H	2.209730	0.713910	1.105958
H61	H	2.072922	-0.518821	-0.000099
H62	H	2.572922	-0.018821	0.499901
O63	O	2.032998	-0.114378	0.545734
O64	O	2.532998	0.385622	1.045734
C65	C	2.108528	-0.169483	0.425019
C66	C	2.608528	0.330517	0.925019
H67	H	2.103691	-0.122282	0.293550
H68	H	2.603691	0.377718	0.793550
H69	H	2.237706	-0.196659	0.478402
H70	H	2.737706	0.303341	0.978402
H71	H	2.045265	-0.234067	0.405493
H72	H	2.545265	0.265933	0.905493
O73	O	1.437531	-0.135655	0.000110
O74	O	1.937531	0.364345	0.500110
C75	C	1.599571	-0.127070	0.000065
C76	C	2.099571	0.372930	0.500065
H77	H	1.621424	-0.057592	0.055501
H78	H	2.121424	0.442408	0.555501
H79	H	1.674670	-0.192181	0.085096
H80	H	2.174670	0.307819	0.585096
H81	H	1.633649	-0.124496	-0.140435
H82	H	2.133649	0.375504	0.359565
O83	O	1.676110	-0.500495	-0.000060
O84	O	2.176110	-0.000495	0.499940
C85	C	1.561234	-0.417442	-0.000002
C86	C	2.061234	0.082558	0.499998
H87	H	1.609664	-0.350343	-0.055443
H88	H	2.109664	0.149657	0.444557
H89	H	1.448827	-0.424811	-0.085023
H90	H	1.948827	0.075189	0.414977
H91	H	1.532317	-0.410012	0.140502
H92	H	2.032317	0.089988	0.640502
