data_functionalizedCrystal
_audit_creation_method	'MofGen! by Chris Wilmer'
_symmetry_space_group_name_H-M	'P1'
_symmetry_Int_Tables_number	1
_symmetry_cell_setting	triclinic
loop_
_symmetry_equiv_pos_as_xyz
  x,y,z
_cell_length_a	31.640172
_cell_length_b	14.628931
_cell_length_c	31.640172
_cell_angle_alpha	59.999398
_cell_angle_beta	90.009241
_cell_angle_gamma	59.998250
loop_
_atom_site_label
_atom_site_type_symbol
_atom_site_fract_x
_atom_site_fract_y
_atom_site_fract_z
Zr1	Zr	0.407175	1.000480	-0.055414
Zr2	Zr	0.907175	1.500480	0.444586
O3	O	0.339675	1.191220	-0.122912
O4	O	0.839675	1.691220	0.377088
O5	O	0.427867	0.809764	-0.034722
O6	O	0.927867	1.309764	0.465278
O7	O	0.427854	1.000490	-0.122900
O8	O	0.927854	1.500490	0.377100
O9	O	0.339698	1.000478	0.034823
O10	O	0.839698	1.500478	0.534823
O11	O	0.497411	1.000471	-0.122891
O12	O	0.997411	1.500471	0.377109
O13	O	0.339688	1.000494	-0.034734
O14	O	0.839688	1.500494	0.465266
O15	O	0.497434	0.659297	0.034844
O16	O	0.997434	1.159297	0.534844
O17	O	0.339675	1.341652	-0.122912
O18	O	0.839675	1.841652	0.377088
O19	O	0.488601	0.888186	-0.025890
O20	O	0.988601	1.388186	0.474110
O21	O	0.436699	0.888188	0.026012
O22	O	0.936699	1.388188	0.526012
O23	O	0.436684	1.112743	-0.077806
O24	O	0.936684	1.612743	0.422194
O25	O	0.384782	1.112745	-0.025904
O26	O	0.884782	1.612745	0.474096
Zr27	Zr	0.518126	1.000424	0.055536
Zr28	Zr	1.018126	1.500424	0.555536
Zr29	Zr	0.518110	1.000450	-0.055399
Zr30	Zr	1.018110	1.500450	0.444601
Zr31	Zr	0.407191	1.000455	0.055521
Zr32	Zr	0.907191	1.500455	0.555521
Zr33	Zr	0.407175	1.240402	-0.055414
Zr34	Zr	0.907175	1.740402	0.444586
Zr35	Zr	0.518126	0.760503	0.055536
Zr36	Zr	1.018126	1.260503	0.555536
O37	O	0.497434	1.191140	0.034844
O38	O	0.997434	1.691140	0.534844
O39	O	0.497411	1.191177	-0.122891
O40	O	0.997411	1.691177	0.377109
O41	O	0.339698	1.191183	0.034823
O42	O	0.839698	1.691183	0.534823
O43	O	0.585625	0.809685	0.123034
O44	O	1.085625	1.309685	0.623034
O45	O	0.585603	0.809721	-0.034701
O46	O	1.085603	1.309721	0.465299
O47	O	0.427889	0.809728	0.123013
O48	O	0.927889	1.309728	0.623013
O49	O	0.585603	1.000427	-0.034701
O50	O	1.085603	1.500427	0.465299
O51	O	0.497447	1.000415	0.123022
O52	O	0.997447	1.500415	0.623022
O53	O	0.427890	1.000434	0.123013
O54	O	0.927890	1.500434	0.623013
O55	O	0.585613	1.000411	0.034856
O56	O	1.085613	1.500411	0.534856
O57	O	0.427854	1.341628	-0.122900
O58	O	0.927854	1.841628	0.377100
O59	O	0.497446	0.659277	0.123022
O60	O	0.997446	1.159277	0.623022
O61	O	0.585625	0.659253	0.123034
O62	O	1.085625	1.159253	0.623034
O63	O	0.585613	0.659273	0.034856
O64	O	1.085613	1.159273	0.534856
O65	O	0.339688	1.341631	-0.034734
O66	O	0.839688	1.841631	0.465266
O67	O	0.427867	1.341607	-0.034722
O68	O	0.927867	1.841607	0.465278
O69	O	0.488616	0.888162	0.077928
O70	O	0.988616	1.388162	0.577928
O71	O	0.540518	0.888160	0.026026
O72	O	1.040518	1.388160	0.526026
O73	O	0.488602	1.112717	-0.025890
O74	O	0.988602	1.612717	0.474110
O75	O	0.436699	1.112719	0.026012
O76	O	0.936699	1.612719	0.526012
C77	C	0.462650	0.700347	0.000061
C78	C	0.962650	1.200347	0.500061
C79	C	0.462650	0.598494	0.000061
C80	C	0.962650	1.098494	0.500061
C81	C	0.488397	0.553084	-0.025686
C82	C	0.988397	1.053084	0.474314
C83	C	0.488398	0.447813	-0.025686
C84	C	0.988398	0.947813	0.474314
C85	C	0.323887	1.000490	0.000042
C86	C	0.823887	1.500490	0.500042
C87	C	0.276792	1.000503	0.000036
C88	C	0.776792	1.500503	0.500036
C89	C	0.011886	0.883224	0.027171
C90	C	0.511886	1.383224	0.527171
C91	C	-0.165099	0.883201	0.027181
C92	C	0.334901	1.383201	0.527181
O93	O	-0.164937	0.783512	0.050248
O94	O	0.335063	1.283512	0.550248
N95	N	-0.214329	1.000417	0.000081
N96	N	0.285671	1.500417	0.500081
C97	C	-0.219312	1.117647	-0.027021
C98	C	0.280688	1.617647	0.472979
O99	O	-0.265246	1.217345	-0.050067
O100	O	0.234754	1.717345	0.449933
C101	C	-0.042327	1.117668	-0.027028
C102	C	0.457673	1.617668	0.472972
C103	C	0.006902	1.000444	0.000070
C104	C	0.506902	1.500444	0.500070
C105	C	0.061113	0.766010	0.054267
C106	C	0.561113	1.266010	0.554267
C107	C	0.105357	0.766016	0.054262
C108	C	0.605357	1.266016	0.554262
C109	C	0.100373	0.883237	0.027161
C110	C	0.600373	1.383237	0.527161
C111	C	0.051146	1.000451	0.000065
C112	C	0.551146	1.500451	0.500065
C113	C	-0.047310	1.234896	-0.054127
C114	C	0.452690	1.734896	0.445873
C115	C	-0.003059	1.234891	-0.054125
C116	C	0.496941	1.734891	0.445875
C117	C	0.046170	1.117667	-0.027027
C118	C	0.546170	1.617667	0.472973
C119	C	0.090405	1.117678	-0.027042
C120	C	0.590405	1.617678	0.472958
N121	N	0.139635	1.000463	0.000059
N122	N	0.639635	1.500463	0.500059
C123	C	0.144619	0.883242	0.027160
C124	C	0.644619	1.383242	0.527160
C125	C	-0.312229	1.117627	-0.027016
C126	C	0.187771	1.617627	0.472984
C127	C	-0.356475	1.117622	-0.027016
C128	C	0.143525	1.617622	0.472984
C129	C	-0.302259	0.883176	0.027188
C130	C	0.197741	1.383176	0.527188
C131	C	-0.258013	0.883183	0.027184
C132	C	0.241987	1.383183	0.527184
C133	C	-0.262999	1.000411	0.000084
C134	C	0.237001	1.500411	0.500084
C135	C	0.237531	0.883265	0.027147
C136	C	0.737531	1.383265	0.527147
C137	C	0.281776	0.883282	0.027137
C138	C	0.781776	1.383282	0.527137
C139	C	0.227556	1.117727	-0.027063
C140	C	0.727556	1.617727	0.472937
C141	C	0.183315	1.117711	-0.027057
C142	C	0.683315	1.617711	0.472943
C143	C	0.188306	1.000469	0.000052
C144	C	0.688306	1.500469	0.500052
O145	O	0.090283	1.217315	-0.050091
O146	O	0.590283	1.717315	0.449909
O147	O	0.190557	0.783558	0.050212
O148	O	0.690557	1.283558	0.550212
C149	C	-0.032357	0.883217	0.027176
C150	C	0.467643	1.383217	0.527176
C151	C	-0.081584	1.000431	0.000080
C152	C	0.418416	1.500431	0.500080
C153	C	-0.086568	1.117651	-0.027021
C154	C	0.413432	1.617651	0.472979
C155	C	-0.125830	1.000426	0.000081
C156	C	0.374170	1.500426	0.500081
C157	C	-0.120847	0.883205	0.027182
C158	C	0.379153	1.383205	0.527182
C159	C	-0.071617	0.765989	0.054283
C160	C	0.428383	1.265989	0.554283
C161	C	-0.027373	0.765996	0.054278
C162	C	0.472627	1.265996	0.554278
C163	C	-0.135798	1.234867	-0.054122
C164	C	0.364202	1.734867	0.445878
C165	C	-0.180039	1.234851	-0.054115
C166	C	0.319961	1.734851	0.445885
C167	C	-0.175055	1.117630	-0.027013
C168	C	0.324945	1.617630	0.472987
C169	C	0.601414	1.000415	0.000079
C170	C	1.101414	1.500415	0.500079
C171	C	0.648509	1.000402	0.000086
C172	C	1.148509	1.500402	0.500086
C173	C	0.462630	1.000484	-0.138701
C174	C	0.962630	1.500484	0.361299
C175	C	0.462624	1.000495	-0.185796
C176	C	0.962624	1.500495	0.314204
C177	C	0.462651	1.300558	0.000061
C178	C	0.962651	1.800558	0.500061
C179	C	0.462651	1.402411	0.000061
C180	C	0.962651	1.902411	0.500061
C181	C	0.500980	1.000419	-0.477796
C182	C	1.000980	1.500419	0.022204
C183	C	0.500991	1.000402	-0.654782
C184	C	1.000991	1.500402	-0.154782
O185	O	0.533594	1.000335	-0.677650
O186	O	1.033594	1.500335	-0.177650
N187	N	0.462671	1.000415	-0.676918
N188	N	0.962671	1.500415	-0.176918
C189	C	0.424347	1.000423	-0.654802
C190	C	0.924347	1.500423	-0.154802
O191	O	0.391757	1.000421	-0.677688
O192	O	0.891757	1.500421	-0.177688
C193	C	0.424338	1.000431	-0.477814
C194	C	0.924338	1.500431	0.022186
C195	C	0.462658	1.000431	-0.455684
C196	C	0.962658	1.500431	0.044316
C197	C	0.539297	1.000417	-0.455665
C198	C	1.039297	1.500417	0.044335
C199	C	0.539292	1.000429	-0.411423
C200	C	1.039292	1.500429	0.088577
C201	C	0.500970	1.000441	-0.389311
C202	C	1.000970	1.500441	0.110689
C203	C	0.462653	1.000443	-0.411442
C204	C	0.962653	1.500443	0.088558
C205	C	0.386017	1.000431	-0.455698
C206	C	0.886017	1.500431	0.044302
C207	C	0.386019	1.000429	-0.411447
C208	C	0.886019	1.500429	0.088553
C209	C	0.424339	1.000429	-0.389317
C210	C	0.924339	1.500429	0.110683
C211	C	0.424326	1.000467	-0.345088
C212	C	0.924326	1.500467	0.154912
N213	N	0.462647	1.000454	-0.322952
N214	N	0.962647	1.500454	0.177048
C215	C	0.500968	1.000441	-0.345064
C216	C	1.000968	1.500441	0.154936
C217	C	0.424354	1.000422	-0.747724
C218	C	0.924354	1.500422	-0.247724
C219	C	0.424355	1.000422	-0.791971
C220	C	0.924355	1.500422	-0.291971
C221	C	0.501000	1.000398	-0.791947
C222	C	1.001000	1.500398	-0.291947
C223	C	0.500996	1.000407	-0.747701
C224	C	1.000996	1.500407	-0.247701
C225	C	0.462674	1.000409	-0.725588
C226	C	0.962674	1.500409	-0.225588
C227	C	0.500955	1.000466	-0.252152
C228	C	1.000955	1.500466	0.247848
C229	C	0.500945	1.000482	-0.207907
C230	C	1.000945	1.500482	0.292093
C231	C	0.424302	1.000500	-0.207933
C232	C	0.924302	1.500500	0.292067
C233	C	0.424310	1.000490	-0.252176
C234	C	0.924310	1.500490	0.247824
C235	C	0.462641	1.000469	-0.274283
C236	C	0.962641	1.500469	0.225717
O237	O	0.391743	1.000518	-0.322189
O238	O	0.891743	1.500518	0.177811
O239	O	0.533560	1.000415	-0.322164
O240	O	1.033560	1.500415	0.177836
C241	C	0.500985	1.000407	-0.522038
C242	C	1.000985	1.500407	-0.022038
C243	C	0.462668	1.000409	-0.544169
C244	C	0.962668	1.500409	-0.044169
C245	C	0.424346	1.000421	-0.522057
C246	C	0.924346	1.500421	-0.022057
C247	C	0.462669	1.000409	-0.588416
C248	C	0.962669	1.500409	-0.088416
C249	C	0.500991	1.000396	-0.610527
C250	C	1.000991	1.500396	-0.110527
C251	C	0.539311	1.000383	-0.588392
C252	C	1.039311	1.500383	-0.088392
C253	C	0.539306	1.000395	-0.544149
C254	C	1.039306	1.500395	-0.044149
C255	C	0.386026	1.000434	-0.544193
C256	C	0.886026	1.500434	-0.044193
C257	C	0.386033	1.000424	-0.588436
C258	C	0.886033	1.500424	-0.088436
C259	C	0.424355	1.000412	-0.610547
C260	C	0.924355	1.500412	-0.110547
C261	C	0.462670	1.000420	0.138823
C262	C	0.962670	1.500420	0.638823
C263	C	0.462677	1.000410	0.185917
C264	C	0.962677	1.500410	0.685917
C265	C	0.601413	0.700309	0.000080
C266	C	1.101413	1.200309	0.500080
C267	C	0.648508	0.598443	0.000086
C268	C	1.148508	1.098443	0.500086
C269	C	0.462670	0.700315	0.138823
C270	C	0.962670	1.200315	0.638823
C271	C	0.462677	0.598451	0.185918
C272	C	0.962677	1.098451	0.685918
C273	C	0.601434	0.700277	0.138842
C274	C	1.101434	1.200277	0.638842
C275	C	0.648535	0.598401	0.185943
C276	C	1.148535	1.098401	0.685943
C277	C	0.323867	1.300627	-0.138720
C278	C	0.823867	1.800627	0.361280
C279	C	0.276766	1.402504	-0.185821
C280	C	0.776766	1.902504	0.314179
C281	C	0.323887	1.300595	0.000042
C282	C	0.823887	1.800595	0.500042
C283	C	0.276792	1.402461	0.000036
C284	C	0.776792	1.902461	0.500036
C285	C	0.462631	1.300590	-0.138701
C286	C	0.962631	1.800590	0.361299
C287	C	0.462624	1.402453	-0.185796
C288	C	0.962624	1.902453	0.314204
C289	C	0.643525	0.550620	-0.027015
C290	C	1.143525	1.050620	0.472985
C291	C	0.687771	0.454919	-0.027020
C292	C	1.187771	0.954919	0.472980
C293	C	0.737001	0.407038	0.000081
C294	C	1.237001	0.907038	0.500081
C295	C	0.741984	0.454871	0.027183
C296	C	1.241984	0.954871	0.527183
C297	C	0.697738	0.550576	0.027184
C298	C	1.197738	1.050576	0.527184
C299	C	0.489780	0.550601	0.235138
C300	C	0.989780	1.050601	0.735138
C301	C	0.489785	0.454903	0.279393
C302	C	0.989785	0.954903	0.779393
C303	C	0.462688	0.407050	0.274426
C304	C	0.962688	0.907050	0.774426
C305	C	0.435582	0.454909	0.225200
C306	C	0.935582	0.954909	0.725200
C307	C	0.435575	0.550612	0.180947
C308	C	0.935575	1.050612	0.680947
C309	C	0.697752	0.550557	0.180969
C310	C	1.197752	1.050557	0.680969
C311	C	0.742013	0.454847	0.225221
C312	C	1.242013	0.954847	0.725221
C313	C	0.737057	0.406975	0.274446
C314	C	1.237057	0.906975	0.774446
C315	C	0.687835	0.454828	0.279418
C316	C	1.187835	0.954828	0.779418
C317	C	0.643575	0.550543	0.235167
C318	C	1.143575	1.050543	0.735167
C319	C	0.227549	1.450359	-0.180847
C320	C	0.727549	1.950359	0.319153
C321	C	0.183288	1.546099	-0.225099
C322	C	0.683288	2.046099	0.274901
C323	C	0.188244	1.593976	-0.274324
C324	C	0.688244	2.093976	0.225676
C325	C	0.237466	1.546117	-0.279296
C326	C	0.737466	2.046117	0.220704
C327	C	0.281726	1.450385	-0.235045
C328	C	0.781726	1.950385	0.264955
C329	C	0.281776	1.450295	0.027133
C330	C	0.781776	1.950295	0.527133
C331	C	0.237530	1.546022	0.027125
C332	C	0.737530	2.046022	0.527125
C333	C	0.188300	1.593907	0.000023
C334	C	0.688300	2.093907	0.500023
C335	C	0.183317	1.546069	-0.027077
C336	C	0.683317	2.046069	0.472923
C337	C	0.227563	1.450351	-0.027072
C338	C	0.727563	1.950351	0.472928
C339	C	0.489725	1.450276	-0.180812
C340	C	0.989725	1.950276	0.319188
C341	C	0.489729	1.545975	-0.225058
C342	C	0.989729	2.045975	0.274942
C343	C	0.462628	1.593856	-0.274288
C344	C	0.962628	2.093856	0.225712
C345	C	0.435526	1.546024	-0.279270
C346	C	0.935526	2.046024	0.220730
C347	C	0.435525	1.450320	-0.235024
C348	C	0.935525	1.950320	0.264976
H349	H	0.440609	0.559434	0.022105
H350	H	0.940609	1.059434	0.522105
F351	F	0.406728	0.601522	0.128564
F352	F	0.906728	1.101522	0.628564
H353	H	0.143228	1.585072	-0.049143
H354	H	0.643228	2.085072	0.450857
F355	F	0.682568	0.403865	0.331811
F356	F	1.182568	0.903865	0.831811
F357	F	0.462632	1.695717	-0.321374
F358	F	0.962632	2.195717	0.178626
H359	H	0.413521	0.415933	0.221164
H360	H	0.913521	0.915933	0.721164
H361	H	0.603502	0.589485	0.239224
H362	H	1.103502	1.089485	0.739224
H363	H	0.511860	0.415947	0.319470
H364	H	1.011860	0.915947	0.819470
H365	H	-0.298208	0.787731	0.049252
H366	H	0.201792	1.287731	0.549252
F367	F	0.517207	0.396780	-0.054502
F368	F	1.017207	0.896780	0.445498
H369	H	0.462698	0.329122	0.310464
H370	H	0.962698	0.829122	0.810464
H371	H	0.773100	0.329037	0.310474
H372	H	1.273100	0.829037	0.810474
F373	F	0.784087	0.305177	0.000075
F374	F	1.284087	0.805177	0.500075
H375	H	0.510442	0.592134	-0.047726
H376	H	1.010442	1.092134	0.452274
F377	F	0.242844	1.596913	0.055971
F378	F	0.742844	2.096913	0.555971
H379	H	0.782087	0.415894	0.221163
H380	H	1.282087	0.915894	0.721163
H381	H	0.532203	1.000391	-0.809958
H382	H	1.032203	1.500391	-0.309958
H383	H	0.321861	0.787821	0.049205
H384	H	0.821861	1.287821	0.549205
F385	F	0.682457	0.404025	-0.055865
F386	F	1.182457	0.904025	0.444135
F387	F	0.703038	0.601495	0.128584
F388	F	1.203038	1.101495	0.628584
F389	F	0.334166	1.399352	0.055979
F390	F	0.834166	1.899352	0.555979
H391	H	0.511794	1.411306	-0.140731
H392	H	1.011794	1.911306	0.359269
F393	F	0.383518	1.000517	-0.184395
F394	F	0.883518	1.500517	0.315605
H395	H	0.782073	0.415872	0.049247
H396	H	1.282073	0.915872	0.549247
F397	F	0.222251	1.399445	-0.055911
F398	F	0.722251	1.899445	0.444089
H399	H	0.223504	1.411383	-0.140770
H400	H	0.723504	1.911383	0.359230
H401	H	0.701803	0.589502	0.049256
H402	H	1.201803	1.089502	0.549256
H403	H	0.440604	0.441462	0.022102
H404	H	0.940604	0.941462	0.522102
H405	H	0.065180	0.670549	0.076339
H406	H	0.565180	1.170549	0.576339
H407	H	0.241602	0.787796	0.049222
H408	H	0.741602	1.287796	0.549222
H409	H	0.152200	1.671927	-0.310352
H410	H	0.652200	2.171927	0.189648
H411	H	0.511798	1.584911	-0.220991
H412	H	1.011798	2.084911	0.279009
H413	H	0.143214	1.585050	-0.221041
H414	H	0.643214	2.085050	0.278959
H415	H	0.413461	1.585023	-0.319358
H416	H	0.913461	2.085023	0.180642
F417	F	0.406674	1.399443	-0.240336
F418	F	0.906674	1.899443	0.259664
F419	F	0.157747	0.641250	0.083107
F420	F	0.657747	1.141250	0.583107
F421	F	-0.205622	0.758419	0.056025
F422	F	0.294378	1.258419	0.556025
H423	H	-0.316298	1.213094	-0.049088
H424	H	0.183702	1.713094	0.450912
F425	F	-0.408866	1.242387	-0.055864
F426	F	0.091134	1.742387	0.444136
H427	H	0.511845	0.589553	0.239192
H428	H	1.011845	1.089553	0.739192
F429	F	0.242733	1.597082	-0.331690
F430	F	0.742733	2.097082	0.168310
H431	H	0.393146	1.000424	-0.729722
H432	H	0.893146	1.500424	-0.229722
F433	F	0.141213	1.695779	0.000023
F434	F	0.641213	2.195779	0.500023
F435	F	-0.099697	1.359664	-0.082965
F436	F	0.400303	1.859664	0.417035
F437	F	-0.008371	1.359666	-0.082968
F438	F	0.491629	1.859666	0.417032
H439	H	0.321799	1.411422	-0.239100
H440	H	0.821799	1.911422	0.260900
H441	H	0.223507	1.213166	-0.049131
H442	H	0.723507	1.713166	0.450869
F443	F	0.130920	1.242472	-0.055907
F444	F	0.630920	1.742472	0.444093
H445	H	0.012708	0.670541	0.076345
H446	H	0.512708	1.170541	0.576345
H447	H	-0.067566	0.670544	0.076346
H448	H	0.432434	1.170544	0.576346
H449	H	-0.139864	1.330324	-0.076192
H450	H	0.360136	1.830324	0.423808
F451	F	-0.232432	1.359625	-0.082960
F452	F	0.267568	1.859625	0.417040
H453	H	0.532150	1.000486	-0.189891
H454	H	1.032150	1.500486	0.310109
F455	F	0.345233	1.000428	-0.479242
F456	F	0.845233	1.500428	0.020758
F457	F	0.541751	1.000443	-0.275674
F458	F	1.041751	1.500443	0.224326
H459	H	0.570496	1.000423	-0.393405
H460	H	1.070496	1.500423	0.106595
H461	H	0.570505	1.000403	-0.473663
H462	H	1.070505	1.500403	0.026337
H463	H	0.532199	1.000406	-0.729685
H464	H	1.032199	1.500406	-0.229685
H465	H	0.354820	1.000442	-0.526193
H466	H	0.854820	1.500442	-0.026193
H467	H	0.354813	1.000427	-0.393444
H468	H	0.854813	1.500427	0.106556
F469	F	0.383521	1.000510	-0.275733
F470	F	0.883521	1.500510	0.224267
F471	F	0.383565	1.000446	-0.815525
F472	F	0.883565	1.500446	-0.315525
F473	F	0.580092	1.000394	-0.520601
F474	F	1.080092	1.500394	-0.020601
H475	H	0.570513	1.000380	-0.606404
H476	H	1.070513	1.500380	-0.106404
H477	H	0.354824	1.000435	-0.606454
H478	H	0.854824	1.500435	-0.106454
F479	F	0.591134	0.601565	-0.055863
F480	F	1.091134	1.101565	0.444137
