data_functionalizedCrystal
_audit_creation_method	'MofGen! by Chris Wilmer'
_symmetry_space_group_name_H-M	'P1'
_symmetry_Int_Tables_number	1
_symmetry_cell_setting	triclinic
loop_
_symmetry_equiv_pos_as_xyz
  x,y,z
_cell_length_a	19.077105
_cell_length_b	12.759399
_cell_length_c	19.076919
_cell_angle_alpha	87.725577
_cell_angle_beta	89.923776
_cell_angle_gamma	87.711582
loop_
_atom_site_label
_atom_site_type_symbol
_atom_site_fract_x
_atom_site_fract_y
_atom_site_fract_z
Zn1	Zn	1.058325	-0.508276	0.440434
Zn2	Zn	1.062983	-0.677203	0.322932
Zn3	Zn	0.945542	-0.494201	0.318226
Zn4	Zn	0.940805	-0.676569	0.435685
O5	O	1.001914	-0.589062	0.379319
O6	O	1.157276	-0.536839	0.428803
O7	O	1.051336	-0.647302	0.223976
O8	O	0.960535	-0.349050	0.334456
O9	O	1.160698	-0.660949	0.342476
O10	O	1.043397	-0.359391	0.424241
O11	O	0.965052	-0.512852	0.220519
O12	O	0.846581	-0.512237	0.329851
O13	O	0.952463	-0.659869	0.534646
O14	O	0.843101	-0.646222	0.416147
O15	O	1.038804	-0.536225	0.538135
O16	O	1.046743	-0.824136	0.337871
O17	O	0.956979	-0.823671	0.420709
C18	C	0.819344	-0.577635	0.371973
C19	C	0.741240	-0.572772	0.368847
C20	C	0.702755	-0.640344	0.412238
C21	C	0.629367	-0.635761	0.409304
C22	C	0.594465	-0.563611	0.362976
C23	C	0.632955	-0.496033	0.319583
C24	C	0.706341	-0.500611	0.322521
C25	C	0.375176	-0.542424	0.349382
C26	C	0.301784	-0.537853	0.346446
C27	C	0.298202	-0.677580	0.436168
C28	C	0.371590	-0.682156	0.439099
C29	C	0.410073	-0.614574	0.395709
N30	N	0.519451	-0.558928	0.359974
N31	N	0.485085	-0.619253	0.398715
C32	C	1.001871	-0.862026	0.379301
C33	C	1.001917	-0.978806	0.379320
C34	C	1.048706	-1.033882	0.336239
C35	C	1.048750	-1.143610	0.336264
C36	C	0.955209	-1.143177	0.422453
C37	C	0.955169	-1.033451	0.422431
C38	C	1.132698	-1.297227	0.314590
C39	C	1.179482	-1.352305	0.271497
C40	C	1.193053	-1.313482	0.203371
C41	C	1.159831	-1.219581	0.178322
C42	C	1.113042	-1.164508	0.221411
C43	C	1.099484	-1.203331	0.289547
C44	C	0.871220	-0.879832	0.444098
C45	C	0.824428	-0.824756	0.487184
C46	C	0.810849	-0.863577	0.555311
C47	C	0.844059	-0.957481	0.580357
C48	C	0.890852	-1.012557	0.537271
C49	C	0.904431	-0.973728	0.469145
C50	C	1.185196	-0.600535	0.386694
C51	C	1.263300	-0.605424	0.389837
C52	C	0.994585	-0.599547	0.562600
C53	C	0.991463	-0.604014	0.640703
C54	C	1.001975	-0.315035	0.379353
C55	C	1.002001	-0.198260	0.379367
C56	C	1.009254	-0.578545	0.196753
C57	C	1.012513	-0.573790	0.118656
C58	C	1.034947	-0.541741	0.679214
C59	C	1.032004	-0.545935	0.752599
C60	C	0.985580	-0.612408	0.787473
C61	C	0.942091	-0.674683	0.748957
C62	C	0.945031	-0.670483	0.675573
C63	C	0.971964	-0.631866	1.006755
C64	C	0.969029	-0.636063	1.080145
C65	C	1.058941	-0.507313	1.083782
C66	C	1.061880	-0.503124	1.010396
C67	C	1.018388	-0.565395	0.971886
N68	N	0.982572	-0.616698	0.862486
N69	N	1.021393	-0.561098	0.896875
H70	H	0.266861	-0.732600	0.471495
H71	H	0.731167	-0.699099	0.449961
F72	F	0.588413	-0.707680	0.455487
F73	F	0.829608	-0.998801	0.652866
F74	F	0.264641	-0.461064	0.297131
H75	H	1.085995	-1.088054	0.201017
H76	H	0.406500	-0.487401	0.314046
H77	H	1.206531	-1.428760	0.291899
H78	H	0.604532	-0.437283	0.281865
F79	F	1.098459	-0.975728	0.290357
F80	F	0.408730	-0.758950	0.488406
H81	H	0.909615	-0.721182	0.644218
H82	H	0.772745	-0.818725	0.590389
H83	H	0.917148	-1.187682	0.457552
F84	F	1.174271	-1.178275	0.105808
F85	F	0.789064	-0.724833	0.460517
H86	H	1.231146	-1.358334	0.168285
H87	H	1.094348	-0.456614	1.115144
F88	F	1.118267	-1.338545	0.387103
F89	F	0.747299	-0.428690	0.276341
F90	F	0.926197	-1.112499	0.563929
F91	F	0.885673	-0.838505	0.371589
H92	H	1.072752	-0.487615	0.650825
F93	F	1.078310	-0.479692	0.793583
H94	H	1.099685	-0.448997	0.982007
H95	H	0.931223	-0.690195	1.108537
H96	H	0.936561	-0.682587	0.975410
F97	F	0.892680	-0.745424	0.786075
