data_functionalizedCrystal
_audit_creation_method	'MofGen! by Chris Wilmer'
_symmetry_space_group_name_H-M	'P1'
_symmetry_Int_Tables_number	1
_symmetry_cell_setting	triclinic
loop_
_symmetry_equiv_pos_as_xyz
  x,y,z
_cell_length_a	19.288864
_cell_length_b	23.532407
_cell_length_c	18.366186
_cell_angle_alpha	89.989089
_cell_angle_beta	89.977106
_cell_angle_gamma	82.992461
loop_
_atom_site_label
_atom_site_type_symbol
_atom_site_fract_x
_atom_site_fract_y
_atom_site_fract_z
O1	O	0.921134	0.071045	-0.060790
O2	O	0.718843	0.080629	-0.060742
O3	O	0.826089	-0.007082	-0.060754
O4	O	0.813889	0.158756	-0.060778
O5	O	0.826071	-0.007086	0.060345
O6	O	0.718825	0.080625	0.060358
O7	O	0.921116	0.071041	0.060309
Zn8	Zn	0.819968	0.075832	0.079560
Zn9	Zn	0.819991	0.075838	-0.079993
O10	O	0.813870	0.158752	0.060321
C11	C	0.692959	0.080319	-0.000186
C12	C	0.615858	0.079393	-0.000166
C13	C	0.571003	0.130858	-0.000185
C14	C	0.498559	0.129988	-0.000193
C15	C	0.470973	0.077651	-0.000197
C16	C	0.515838	0.026179	-0.000174
C17	C	0.588280	0.027050	-0.000159
C18	C	0.362844	0.036509	-0.042642
C19	C	0.290402	0.035640	-0.042662
C20	C	0.247535	0.074961	-0.000240
C21	C	0.277118	0.115162	0.042191
C22	C	0.349561	0.116033	0.042206
C23	C	0.392422	0.076700	-0.000213
C24	C	0.124127	0.125487	-0.000267
C25	C	0.051682	0.124615	-0.000270
C26	C	0.068962	0.020805	-0.000258
C27	C	0.141406	0.021678	-0.000248
C28	C	0.168984	0.074021	-0.000255
C29	C	0.825769	-0.028301	-0.000203
C30	C	0.824835	-0.091520	-0.000197
C31	C	0.882442	-0.490503	-0.000251
C32	C	0.881574	-0.549905	-0.000256
O33	O	0.934976	-0.586539	-0.000296
N34	N	0.817817	-0.572664	-0.000240
C35	C	0.754923	-0.536017	-0.000226
O36	O	0.700613	-0.560829	-0.000214
C37	C	0.755792	-0.476616	-0.000226
C38	C	0.819553	-0.453861	-0.000235
C39	C	0.946198	-0.467748	-0.000260
C40	C	0.947065	-0.408350	-0.000253
C41	C	0.884177	-0.371707	-0.000237
C42	C	0.820420	-0.394463	-0.000228
C43	C	0.692899	-0.439970	-0.000217
C44	C	0.693773	-0.380565	-0.000218
C45	C	0.757534	-0.357810	-0.000226
C46	C	0.758399	-0.298422	-0.000205
N47	N	0.822156	-0.275664	-0.000221
C48	C	0.885045	-0.312307	-0.000237
C49	C	0.753104	-0.660763	-0.000228
C50	C	0.752235	-0.720163	-0.000223
C51	C	0.878886	-0.734047	-0.000254
C52	C	0.879755	-0.674647	-0.000254
C53	C	0.816861	-0.638005	-0.000244
C54	C	0.886862	-0.187566	-0.000222
C55	C	0.887724	-0.128162	-0.000213
C56	C	0.761073	-0.114283	-0.000185
C57	C	0.760211	-0.173681	-0.000191
C58	C	0.823111	-0.210322	-0.000212
O59	O	0.705025	-0.261754	-0.000168
O60	O	0.939346	-0.287486	-0.000259
C61	C	0.947000	0.071351	-0.000249
C62	C	1.024101	0.072277	-0.000273
C63	C	0.814190	0.179971	-0.000232
C64	C	0.815124	0.243190	-0.000242
N65	N	0.819956	0.075828	0.188452
N66	N	0.820008	0.075837	-0.188884
C67	C	0.867460	0.037009	0.226546
C68	C	0.867464	0.037006	0.302774
C69	C	0.819972	0.075833	0.340904
C70	C	0.772459	0.114655	0.302800
C71	C	0.772452	0.114653	0.226574
C72	C	0.810514	0.127724	0.461659
C73	C	0.810526	0.127727	0.537884
C74	C	0.819991	0.075840	0.576012
C75	C	0.829459	0.023947	0.537906
C76	C	0.829451	0.023945	0.461679
C77	C	0.819975	0.075839	0.423559
C78	C	0.867502	0.037014	0.696762
C79	C	0.867502	0.037011	0.772991
C80	C	0.772500	0.114665	0.773015
C81	C	0.772497	0.114663	0.696788
C82	C	0.820002	0.075839	0.658665
H83	H	0.177928	-0.020230	-0.000236
H84	H	0.593452	0.173479	-0.000193
H85	H	0.709871	-0.084438	-0.000170
O86	O	0.801420	0.178095	0.424541
C87	C	0.849963	0.239695	0.338463
C88	C	0.860344	0.182630	0.380441
H89	H	0.897601	0.243385	0.302809
H90	H	0.801445	0.241194	0.302750
H91	H	0.843173	0.276775	0.378799
H92	H	0.867164	0.145518	0.340157
H93	H	0.908848	0.181181	0.416164
O94	O	0.261785	-0.003463	-0.083893
C95	C	0.282606	-0.082231	-0.168075
C96	C	0.315105	-0.037985	-0.121401
H97	H	0.325698	-0.110146	-0.198424
H98	H	0.253287	-0.110273	-0.131395
H99	H	0.244761	-0.059000	-0.209000
H100	H	0.352980	-0.061170	-0.080470
H101	H	0.344380	-0.009946	-0.158126
H102	H	0.397741	0.004488	-0.077191
O103	O	0.940042	-0.769567	-0.000244
C104	C	1.065755	-0.777087	-0.000326
C105	C	0.996553	-0.736795	-0.000321
H106	H	1.111462	-0.750607	-0.000404
H107	H	1.068555	-0.805244	0.050362
H108	H	1.068475	-0.805245	-0.050998
H109	H	0.993787	-0.708601	0.050317
H110	H	0.993783	-0.708677	-0.051042
O111	O	0.455004	0.179998	-0.000346
C112	C	0.418131	0.268464	-0.063098
C113	C	0.467482	0.211844	-0.063021
H114	H	0.428213	0.294233	-0.113756
H115	H	0.361604	0.258881	-0.063157
H116	H	0.428074	0.294212	-0.012399
H117	H	0.457602	0.186068	-0.113710
H118	H	0.523993	0.221468	-0.062923
H119	H	0.906182	0.005399	0.665721
H120	H	0.146582	0.168107	-0.000262
H121	H	0.493372	-0.016435	-0.000187
H122	H	0.624802	-0.014860	-0.000144
O123	O	0.801450	0.178119	0.574932
C124	C	0.849945	0.239707	0.660990
C125	C	0.860324	0.182626	0.619065
H126	H	0.897529	0.243365	0.696693
H127	H	0.843206	0.276818	0.620684
H128	H	0.801382	0.241179	0.696669
H129	H	0.908889	0.181099	0.583385
H130	H	0.867022	0.145542	0.659411
H131	H	0.046503	-0.021810	-0.000307
O132	O	0.948026	-0.223072	-0.000208
C133	C	1.073736	-0.230559	-0.000272
C134	C	1.004522	-0.190284	-0.000278
H135	H	1.119431	-0.204066	-0.000344
H136	H	1.076540	-0.258715	0.050417
H137	H	1.076474	-0.258719	-0.050943
H138	H	1.001737	-0.162088	0.050359
H139	H	1.001747	-0.162167	-0.051000
H140	H	0.373644	0.148763	0.076758
O141	O	0.631003	-0.462130	-0.000314
C142	C	0.556501	-0.521075	-0.063082
C143	C	0.626635	-0.496031	-0.063051
H144	H	0.552941	-0.548480	-0.113808
H145	H	0.552891	-0.548584	-0.012441
H146	H	0.511724	-0.484663	-0.063042
H147	H	0.671453	-0.532407	-0.063118
H148	H	0.630185	-0.468507	-0.113688
O149	O	0.235561	0.153484	0.083309
C150	C	0.197020	0.252938	0.107709
C151	C	0.244069	0.209571	0.061090
H152	H	0.203893	0.298294	0.089773
H153	H	0.140116	0.245530	0.100456
H154	H	0.212255	0.247092	0.167453
H155	H	0.228896	0.215391	0.001329
H156	H	0.300961	0.216990	0.068405
O157	O	1.009065	-0.386345	-0.000300
C158	C	1.134592	-0.406408	-0.000291
C159	C	1.064423	-0.431399	-0.000253
H160	H	1.179367	-0.442822	-0.000238
H161	H	1.138224	-0.378960	-0.050983
H162	H	1.138127	-0.378935	0.050377
H163	H	1.060841	-0.458898	-0.050886
H164	H	1.060821	-0.458815	0.050473
O165	O	1.007276	-0.503360	-0.000403
C166	C	1.079814	-0.578491	-0.063127
C167	C	1.010620	-0.538189	-0.063071
H168	H	1.082534	-0.606669	-0.113781
H169	H	1.125551	-0.552040	-0.063182
H170	H	1.082562	-0.606627	-0.012423
H171	H	1.007804	-0.510045	-0.113766
H172	H	0.964916	-0.564674	-0.062978
H173	H	0.733768	0.146265	0.195556
H174	H	0.733789	0.146267	0.333850
H175	H	0.015161	0.166526	-0.000281
H176	H	0.733828	0.146276	0.804060
O177	O	0.692051	-0.625113	-0.000111
C178	C	0.619490	-0.550029	0.062672
C179	C	0.688664	-0.590356	0.062624
H180	H	0.616723	-0.521926	0.113395
H181	H	0.616721	-0.521824	0.012029
H182	H	0.573789	-0.576515	0.062649
H183	H	0.734404	-0.563915	0.062673
H184	H	0.691372	-0.618563	0.113263
O185	O	0.941648	-0.652477	-0.000365
C186	C	1.016166	-0.593502	-0.063148
C187	C	0.946038	-0.618555	-0.063101
H188	H	1.019745	-0.566080	-0.113872
H189	H	1.019747	-0.566007	-0.012505
H190	H	1.060950	-0.629909	-0.063123
H191	H	0.901215	-0.582184	-0.063152
H192	H	0.942519	-0.646065	-0.113739
O193	O	0.690236	-0.742168	-0.000238
C194	C	0.564709	-0.722111	-0.000164
C195	C	0.634875	-0.697117	-0.000158
H196	H	0.519931	-0.685699	-0.000084
H197	H	0.561091	-0.749542	-0.050858
H198	H	0.561163	-0.749603	0.050502
H199	H	0.638468	-0.669599	-0.050789
H200	H	0.638462	-0.669718	0.050570
O201	O	0.632612	-0.345053	-0.000176
C202	C	0.506901	-0.337556	-0.000202
C203	C	0.576111	-0.377836	-0.000234
H204	H	0.461202	-0.364045	-0.000264
H205	H	0.504078	-0.309418	0.050493
H206	H	0.504189	-0.309378	-0.050867
H207	H	0.578870	-0.406050	0.050398
H208	H	0.578905	-0.405935	-0.050961
H209	H	0.837158	-0.018308	0.430657
H210	H	0.837166	-0.018304	0.568948
H211	H	0.906139	0.005394	0.195509
O212	O	0.913643	-0.000627	0.339867
C213	C	1.008623	-0.012937	0.425845
C214	C	0.956354	0.029744	0.383901
H215	H	1.043179	0.011601	0.461445
H216	H	0.978880	-0.041320	0.461607
H217	H	1.042539	-0.040696	0.385486
H218	H	0.922425	0.057541	0.424208
H219	H	0.986140	0.058087	0.348128
H220	H	0.708291	-0.192209	-0.000164
O221	O	0.726331	0.152433	0.659891
C222	C	0.632077	0.229431	0.667962
C223	C	0.684338	0.186697	0.709837
H224	H	0.598103	0.257137	0.708326
H225	H	0.661827	0.257858	0.632271
H226	H	0.597579	0.204903	0.632280
H227	H	0.718850	0.211179	0.745559
H228	H	0.654545	0.158270	0.745483
H229	H	0.906183	0.005397	0.804008
H230	H	0.939648	-0.109639	-0.000218
