data_functionalizedCrystal
_audit_creation_method	'MofGen! by Chris Wilmer'
_symmetry_space_group_name_H-M	'P1'
_symmetry_Int_Tables_number	1
_symmetry_cell_setting	triclinic
loop_
_symmetry_equiv_pos_as_xyz
  x,y,z
_cell_length_a	16.959454
_cell_length_b	12.759401
_cell_length_c	16.959447
_cell_angle_alpha	89.984564
_cell_angle_beta	90.026818
_cell_angle_gamma	89.981391
loop_
_atom_site_label
_atom_site_type_symbol
_atom_site_fract_x
_atom_site_fract_y
_atom_site_fract_z
Zn1	Zn	-0.314696	-1.606179	0.446897
Zn2	Zn	-0.446889	-1.606068	0.314726
Zn3	Zn	-0.314725	-1.430492	0.314738
Zn4	Zn	-0.446833	-1.430453	0.446868
O5	O	-0.380786	-1.518298	0.380807
O6	O	-0.332243	-1.753185	0.429371
O7	O	-0.429392	-1.582747	0.204117
O8	O	-0.204110	-1.453860	0.332285
O9	O	-0.429365	-1.753103	0.332266
O10	O	-0.204089	-1.582936	0.429382
O11	O	-0.332292	-1.453752	0.204125
O12	O	-0.332238	-1.283466	0.332258
O13	O	-0.429270	-1.453793	0.557483
O14	O	-0.429297	-1.283437	0.429334
O15	O	-0.332189	-1.582898	0.557504
O16	O	-0.557492	-1.582709	0.332239
O17	O	-0.557452	-1.453686	0.429323
C18	C	-0.380765	-1.245330	0.380794
C19	C	-0.380776	-1.128554	0.380808
C20	C	-0.586152	-1.518210	0.380794
C21	C	-0.674009	-1.518268	0.380814
C22	C	-0.431400	-0.963973	0.431280
C23	C	-0.431393	-1.073697	0.431273
C24	C	-0.330167	-1.073680	0.330342
C25	C	-0.330178	-0.963958	0.330346
C26	C	-1.045493	-1.451213	0.431354
C27	C	-1.045476	-1.585675	0.330341
C28	C	-0.962930	-1.585639	0.330334
C29	C	-0.921662	-1.518387	0.380836
C30	C	-0.962939	-1.451172	0.431346
C31	C	-0.921646	-1.652845	0.279820
C32	C	-0.839095	-1.652810	0.279810
C33	C	-0.797825	-1.585563	0.330317
C34	C	-0.839108	-1.518346	0.380829
C35	C	-0.797840	-1.451094	0.431331
C36	C	-0.839121	-1.383881	0.481848
C37	C	-0.921670	-1.383924	0.481853
C38	C	-0.715277	-1.585520	0.330312
C39	C	-0.715286	-1.451053	0.431324
C40	C	-0.174618	-1.518415	0.380838
C41	C	-0.086761	-1.518464	0.380851
C42	C	-0.380720	-1.518354	0.586976
C43	C	-0.380692	-1.518378	0.674832
C44	C	-0.380801	-0.792331	0.380819
C45	C	-0.380793	-0.909108	0.380819
C46	C	-0.380794	-1.518302	0.175441
C47	C	-0.380600	-1.518482	0.087585
C48	C	-0.330053	-1.451309	1.046319
C49	C	-0.431165	-1.585632	1.046297
C50	C	-0.431183	-1.585614	0.963752
C51	C	-0.380637	-1.518441	0.922485
C52	C	-0.330072	-1.451286	0.963765
C53	C	-0.481753	-1.652760	0.922466
C54	C	-0.481774	-1.652743	0.839915
C55	C	-0.431223	-1.585575	0.798647
C56	C	-0.380655	-1.518419	0.839932
C57	C	-0.330109	-1.451246	0.798665
C58	C	-0.279536	-1.384094	0.839949
C59	C	-0.279521	-1.384118	0.922497
C60	C	-0.431239	-1.585551	0.716098
C61	C	-0.330127	-1.451223	0.716112
H62	H	-0.472614	-0.919317	0.472379
H63	H	-0.955288	-1.329202	0.522980
H64	H	-0.472323	-1.640313	1.079901
H65	H	-0.238349	-1.329445	0.956117
H66	H	-0.288876	-1.396638	1.079935
Cl67	Cl	-0.215994	-1.299653	0.788062
Cl68	Cl	-0.545300	-1.737189	0.974346
H69	H	-0.681691	-1.396292	0.472453
Cl70	Cl	-0.545345	-1.737167	0.788023
Cl71	Cl	-0.495018	-1.142667	0.494710
H72	H	-0.472408	-1.640232	0.682489
Cl73	Cl	-0.266535	-1.142643	0.266897
H74	H	-0.681669	-1.640238	0.289178
H75	H	-0.288966	-0.919285	0.289251
H76	H	-0.805511	-1.329120	0.522964
H77	H	-1.079108	-1.396493	0.472485
H78	H	-0.288962	-1.396527	0.682519
Cl79	Cl	-1.097356	-1.670216	0.266857
Cl80	Cl	-0.973528	-1.737391	0.216340
Cl81	Cl	-0.787206	-1.737313	0.216311
