data_functionalizedCrystal
_audit_creation_method	'MofGen! by Chris Wilmer'
_symmetry_space_group_name_H-M	'P1'
_symmetry_Int_Tables_number	1
_symmetry_cell_setting	triclinic
loop_
_symmetry_equiv_pos_as_xyz
  x,y,z
_cell_length_a	18.050591
_cell_length_b	13.897448
_cell_length_c	13.897441
_cell_angle_alpha	90.030599
_cell_angle_beta	90.027901
_cell_angle_gamma	90.013698
loop_
_atom_site_label
_atom_site_type_symbol
_atom_site_fract_x
_atom_site_fract_y
_atom_site_fract_z
Zn1	Zn	1.135398	-0.384087	0.545566
Zn2	Zn	1.468731	-0.050754	0.878899
Zn3	Zn	1.802065	0.282580	1.212232
Zn4	Zn	1.135316	-0.545409	0.384267
Zn5	Zn	1.468650	-0.212075	0.717600
Zn6	Zn	1.801983	0.121258	1.050934
Zn7	Zn	1.011202	-0.384118	0.384264
Zn8	Zn	1.344535	-0.050785	0.717597
Zn9	Zn	1.677869	0.282549	1.050930
Zn10	Zn	1.011188	-0.545330	0.545499
Zn11	Zn	1.344521	-0.211997	0.878833
Zn12	Zn	1.677855	0.121336	1.212166
O13	O	1.073276	-0.464736	0.464899
O14	O	1.406609	-0.131403	0.798232
O15	O	1.739943	0.201931	1.131566
O16	O	1.239312	-0.405506	0.524198
O17	O	1.572645	-0.072173	0.857531
O18	O	1.905978	0.261160	1.190865
O19	O	1.118824	-0.524059	0.249285
O20	O	1.452157	-0.190725	0.582618
O21	O	1.785491	0.142608	0.915951
O22	O	1.027717	-0.249132	0.405687
O23	O	1.361050	0.084201	0.739021
O24	O	1.694384	0.417535	1.072354
O25	O	1.239252	-0.524029	0.405693
O26	O	1.572585	-0.190695	0.739026
O27	O	1.905919	0.142638	1.072359
O28	O	1.118963	-0.249109	0.524195
O29	O	1.452297	0.084224	0.857528
O30	O	1.785630	0.417557	1.190862
O31	O	1.027638	-0.405559	0.249282
O32	O	1.360971	-0.072226	0.582616
O33	O	1.694305	0.261107	0.915949
O34	O	0.907276	-0.405483	0.405623
O35	O	1.240609	-0.072150	0.738956
O36	O	1.573942	0.261183	1.072290
O37	O	1.027693	-0.523895	0.680490
O38	O	1.361026	-0.190562	1.013823
O39	O	1.694360	0.142771	1.347157
O40	O	0.907265	-0.523925	0.524082
O41	O	1.240599	-0.190592	0.857415
O42	O	1.573932	0.142741	1.190749
O43	O	1.118950	-0.405430	0.680539
O44	O	1.452283	-0.072097	1.013872
O45	O	1.785616	0.261236	1.347205
O46	O	1.118810	-0.680380	0.405628
O47	O	1.452144	-0.347046	0.738962
O48	O	1.785477	-0.013713	1.072295
O49	O	1.027614	-0.680322	0.524085
O50	O	1.360947	-0.346989	0.857419
O51	O	1.694281	-0.013656	1.190752
C52	C	0.880324	-0.464700	0.464846
C53	C	1.213657	-0.131367	0.798179
C54	C	1.546991	0.201967	1.131512
C55	C	0.797778	-0.464708	0.464846
C56	C	1.131112	-0.131375	0.798179
C57	C	1.464445	0.201959	1.131512
C58	C	1.073222	-0.715350	0.464871
C59	C	1.406555	-0.382017	0.798204
C60	C	1.739889	-0.048684	1.131538
C61	C	1.073267	-0.822564	0.464891
C62	C	1.406600	-0.489231	0.798225
C63	C	1.739933	-0.155897	1.131558
C64	C	1.073345	-1.018859	0.464952
C65	C	1.406678	-0.685526	0.798285
C66	C	1.740011	-0.352193	1.131619
C67	C	1.073299	-0.909627	0.464921
C68	C	1.406633	-0.576293	0.798254
C69	C	1.739966	-0.242960	1.131588
C70	C	0.598312	-0.400224	0.400576
C71	C	0.931645	-0.066891	0.733909
C72	C	1.264978	0.266442	1.067243
C73	C	0.548902	-0.488207	0.376841
C74	C	0.882236	-0.154873	0.710174
C75	C	1.215569	0.178460	1.043507
C76	C	0.646648	-0.464737	0.464889
C77	C	0.979981	-0.131404	0.798223
C78	C	1.313315	0.201930	1.131556
C79	C	0.548976	-0.376785	0.488622
C80	C	0.882309	-0.043452	0.821955
C81	C	1.215642	0.289881	1.155289
C82	C	0.500663	-0.464758	0.464930
C83	C	0.833996	-0.131424	0.798263
C84	C	1.167329	0.201909	1.131596
C85	C	0.598326	-0.552766	0.441108
C86	C	0.931659	-0.219432	0.774441
C87	C	1.264992	0.113901	1.107775
C88	C	0.598403	-0.441285	0.552930
C89	C	0.931737	-0.107952	0.886264
C90	C	1.265070	0.225382	1.219597
C91	C	0.549016	-0.529328	0.529228
C92	C	0.882350	-0.195995	0.862562
C93	C	1.215683	0.137339	1.195895
C94	C	0.730746	-0.464724	0.464864
C95	C	1.064080	-0.131391	0.798197
C96	C	1.397413	0.201943	1.131530
C97	C	0.416566	-0.464781	0.464955
C98	C	0.749900	-0.131447	0.798289
C99	C	1.083233	0.201886	1.131622
C100	C	1.266982	-0.464773	0.464953
C101	C	1.600315	-0.131439	0.798286
C102	C	1.933648	0.201894	1.131620
C103	C	1.349528	-0.464788	0.464976
C104	C	1.682861	-0.131455	0.798309
C105	C	2.016194	0.201878	1.131643
C106	C	1.073329	-0.464651	0.716492
C107	C	1.406662	-0.131317	1.049825
C108	C	1.739996	0.202016	1.383159
C109	C	1.073351	-0.464614	0.823706
C110	C	1.406685	-0.131281	1.157039
C111	C	1.740018	0.202052	1.490373
C112	C	1.073351	-0.213143	0.464948
C113	C	1.406684	0.120190	0.798281
C114	C	1.740017	0.453524	1.131615
C115	C	1.073383	-0.105929	0.464969
C116	C	1.406716	0.227404	0.798302
C117	C	1.740049	0.560738	1.131636
C118	C	1.073266	-0.464751	0.214285
C119	C	1.406600	-0.131418	0.547618
C120	C	1.739933	0.201915	0.880951
C121	C	1.073388	-0.464516	0.107071
C122	C	1.406721	-0.131183	0.440405
C123	C	1.740055	0.202151	0.773738
C124	C	1.073371	-0.464549	1.020001
C125	C	1.406705	-0.131216	1.353335
C126	C	1.740038	0.202118	1.686668
C127	C	1.073358	-0.464588	0.910769
C128	C	1.406691	-0.131255	1.244102
C129	C	1.740025	0.202079	1.577435
H130	H	0.527160	-0.508058	0.302403
H131	H	0.860494	-0.174725	0.635737
H132	H	1.193827	0.158609	0.969070
H133	H	0.619957	-0.345727	0.346129
H134	H	0.953290	-0.012393	0.679463
H135	H	1.286623	0.320940	1.012796
C136	C	0.627572	-0.414845	0.652097
C137	C	0.960905	-0.081512	0.985431
C138	C	1.294238	0.251822	1.318764
C139	C	0.705127	-0.416075	0.650946
C140	C	1.038460	-0.082742	0.984279
C141	C	1.371794	0.250592	1.317612
C142	C	0.732025	-0.391722	0.742282
C143	C	1.065359	-0.058389	1.075616
C144	C	1.398692	0.274945	1.408949
H145	H	0.610786	-0.352295	0.668948
H146	H	0.944119	-0.018961	1.002282
H147	H	1.277452	0.314372	1.335615
H148	H	0.610004	-0.460057	0.697986
H149	H	0.943337	-0.126724	1.031320
H150	H	1.276670	0.206610	1.364653
H151	H	0.722688	-0.370865	0.605071
H152	H	1.056021	-0.037531	0.938405
H153	H	1.389355	0.295802	1.271738
H154	H	0.721933	-0.478617	0.634112
H155	H	1.055266	-0.145283	0.967445
H156	H	1.388600	0.188050	1.300779
H157	H	0.714457	-0.436934	0.788172
H158	H	1.047790	-0.103601	1.121505
H159	H	1.381124	0.229733	1.454838
H160	H	0.715234	-0.329173	0.759126
H161	H	1.048567	0.004161	1.092459
H162	H	1.381901	0.337494	1.425792
H163	H	0.784648	-0.392562	0.741516
H164	H	1.117982	-0.059229	1.074849
H165	H	1.451315	0.274105	1.408182
H166	H	0.527508	-0.583956	0.583633
H167	H	0.860841	-0.250623	0.916967
H168	H	1.194174	0.082711	1.250300
H169	H	0.527259	-0.302407	0.508645
H170	H	0.860593	0.030926	0.841978
H171	H	1.193926	0.364260	1.175312
H172	H	0.619913	-0.627176	0.420969
H173	H	0.953246	-0.293843	0.754303
H174	H	1.286579	0.039491	1.087636
