data_functionalizedCrystal
_audit_creation_method	'MofGen! by Chris Wilmer'
_symmetry_space_group_name_H-M	'P1'
_symmetry_Int_Tables_number	1
_symmetry_cell_setting	triclinic
loop_
_symmetry_equiv_pos_as_xyz
  x,y,z
_cell_length_a	18.215407
_cell_length_b	18.215405
_cell_length_c	15.297908
_cell_angle_alpha	99.652545
_cell_angle_beta	80.302712
_cell_angle_gamma	90.022653
loop_
_atom_site_label
_atom_site_type_symbol
_atom_site_fract_x
_atom_site_fract_y
_atom_site_fract_z
Zn1	Zn	-1.197066	0.364997	0.510105
Zn2	Zn	-0.697066	0.864997	1.010105
Zn3	Zn	-1.175691	0.466774	0.359249
Zn4	Zn	-0.675691	0.966774	0.859249
Zn5	Zn	-1.052713	0.343728	0.359262
Zn6	Zn	-0.552713	0.843728	0.859262
Zn7	Zn	-1.073962	0.488018	0.510053
Zn8	Zn	-0.573962	0.988018	1.010053
O9	O	-1.124858	0.415879	0.434667
O10	O	-0.624858	0.915879	0.934667
O11	O	-1.297217	0.378508	0.490109
O12	O	-0.797217	0.878508	0.990109
O13	O	-1.141539	0.432659	0.233010
O14	O	-0.641539	0.932659	0.733010
O15	O	-1.071914	0.243568	0.379299
O16	O	-0.571914	0.743568	0.879299
O17	O	-1.281513	0.453283	0.379276
O18	O	-0.781513	0.953283	0.879276
O19	O	-1.177970	0.259195	0.490123
O20	O	-0.677970	0.759195	0.990123
O21	O	-1.051188	0.342258	0.233020
O22	O	-0.551188	0.842258	0.733020
O23	O	-0.952545	0.362858	0.379249
O24	O	-0.452545	0.862858	0.879249
O25	O	-1.108131	0.489491	0.636301
O26	O	-0.608131	0.989491	1.136301
O27	O	-0.968157	0.468868	0.490035
O28	O	-0.468157	0.968868	0.990035
O29	O	-1.198575	0.399108	0.636339
O30	O	-0.698575	0.899108	1.136339
O31	O	-1.162144	0.572572	0.379226
O32	O	-0.662144	1.072572	0.879226
O33	O	-1.087404	0.588181	0.490021
O34	O	-0.587404	1.088181	0.990021
C35	C	-0.933648	0.415861	0.434638
C36	C	-0.433648	0.915861	0.934638
C37	C	-0.851850	0.415874	0.434647
C38	C	-0.351850	0.915874	0.934647
C39	C	-1.124783	0.607081	0.434636
C40	C	-0.624783	1.107081	0.934636
C41	C	-1.124823	0.688882	0.434653
C42	C	-0.624823	1.188882	0.934653
C43	C	-1.158107	0.449042	0.669968
C44	C	-0.658107	0.949042	1.169968
C45	C	-1.172276	0.463174	0.770239
C46	C	-0.672276	0.963174	1.270239
C47	C	-0.671794	0.471134	0.492258
C48	C	-0.171794	0.971134	0.992258
C49	C	-0.594937	0.471137	0.492268
C50	C	-0.094937	0.971137	0.992268
C51	C	-0.578675	0.360628	0.377080
C52	C	-0.078675	0.860628	0.877080
C53	C	-0.655532	0.360623	0.377075
C54	C	-0.155532	0.860623	0.877075
C55	C	-0.702089	0.415880	0.434663
C56	C	-0.202089	0.915880	0.934663
C57	C	-0.548375	0.415888	0.434678
C58	C	-0.048375	0.915888	0.934678
C59	C	-0.465043	0.415891	0.434688
C60	C	0.034957	0.915891	0.934688
C61	C	-0.785427	0.415877	0.434654
C62	C	-0.285427	0.915877	0.934654
C63	C	-0.316815	0.415895	0.434693
C64	C	0.183185	0.915895	0.934693
C65	C	-0.398614	0.415895	0.434693
C66	C	0.101386	0.915895	0.934693
C67	C	-1.124956	0.223933	0.434718
C68	C	-0.624956	0.723933	0.934718
C69	C	-1.124998	0.142137	0.434740
C70	C	-0.624998	0.642137	0.934740
C71	C	-1.180079	0.885163	0.492437
C72	C	-0.680079	1.385163	0.992437
C73	C	-1.180109	0.962024	0.492454
C74	C	-0.680109	1.462024	0.992454
C75	C	-1.069736	0.945851	0.376954
C76	C	-0.569736	1.445851	0.876954
C77	C	-1.069704	0.868992	0.376942
C78	C	-0.569704	1.368992	0.876942
C79	C	-1.124880	0.838650	0.434682
C80	C	-0.624880	1.338650	0.934682
C81	C	-1.124941	0.992370	0.434711
C82	C	-0.624941	1.492370	0.934711
C83	C	-1.124972	1.075706	0.434729
C84	C	-0.624972	1.575706	0.934729
C85	C	-1.124848	0.755309	0.434666
C86	C	-0.624848	1.255309	0.934666
C87	C	-1.091781	0.382792	0.200282
C88	C	-0.591781	0.882792	0.700282
C89	C	-1.077754	0.368453	0.100012
C90	C	-0.577754	0.868453	0.600012
C91	C	-1.024057	0.314743	1.052915
C92	C	-0.524057	0.814743	1.552915
C93	C	-1.010746	0.301458	0.958705
C94	C	-0.510746	0.801458	1.458705
C95	C	-1.051127	0.341886	0.911584
C96	C	-0.551127	0.841886	1.411584
C97	C	-1.104822	0.395601	0.958681
C98	C	-0.604822	0.895601	1.458681
C99	C	-1.118139	0.408883	1.052900
C100	C	-0.618139	0.908883	1.552900
C101	C	-1.145209	0.436026	0.911569
C102	C	-0.645209	0.936026	1.411569
C103	C	-1.198904	0.489741	0.958667
C104	C	-0.698904	0.989741	1.458667
C105	C	-1.212217	0.503021	1.052876
C106	C	-0.712217	1.003021	1.552876
C107	C	-1.171836	0.462593	1.099998
C108	C	-0.671836	0.962593	1.599998
C109	C	-1.131892	0.422744	0.817351
C110	C	-0.631892	0.922744	1.317351
C111	C	-1.225974	0.516884	0.817336
C112	C	-0.725974	1.016884	1.317336
C113	C	-1.239285	0.530169	0.911546
C114	C	-0.739285	1.030169	1.411546
H115	H	-0.709699	0.516127	0.539152
H116	H	-0.209699	1.016127	1.039152
Cl117	Cl	-1.249502	1.020495	0.565068
Cl118	Cl	-0.749502	1.520495	1.065068
H119	H	-1.258857	0.549802	0.778970
H120	H	-0.758857	1.049802	1.278970
H121	H	-0.680198	0.315623	0.330175
H122	H	-0.180198	0.815623	0.830175
H123	H	-1.225006	0.860460	0.539454
H124	H	-0.725006	1.360460	1.039454
Cl125	Cl	-1.064391	0.355220	0.758154
Cl126	Cl	-0.564391	0.855220	1.258154
Cl127	Cl	-1.000375	0.984002	0.304371
Cl128	Cl	-0.500375	1.484002	0.804371
Cl129	Cl	-1.000300	0.810515	0.304337
Cl130	Cl	-0.500300	1.310515	0.804337
H131	H	-0.570275	0.516130	0.539169
H132	H	-0.070275	1.016130	1.039169
H133	H	-1.040286	0.331066	0.834874
H134	H	-0.540286	0.831066	1.334874
H135	H	-0.967027	0.257724	0.920365
H136	H	-0.467027	0.757724	1.420365
H137	H	-0.991188	0.281829	1.091289
H138	H	-0.491188	0.781829	1.591289
Cl139	Cl	-1.188557	0.479302	1.218438
Cl140	Cl	-0.688557	0.979302	1.718438
H141	H	-1.255945	0.546754	1.091221
H142	H	-0.755945	1.046754	1.591221
Cl143	Cl	-0.520141	0.291168	0.304686
Cl144	Cl	-0.020141	0.791168	0.804686
Cl145	Cl	-1.306785	0.597694	0.970765
Cl146	Cl	-0.806785	1.097694	1.470765
