data_functionalizedCrystal
_audit_creation_method	'MofGen! by Chris Wilmer'
_symmetry_space_group_name_H-M	'P1'
_symmetry_Int_Tables_number	1
_symmetry_cell_setting	triclinic
loop_
_symmetry_equiv_pos_as_xyz
  x,y,z
_cell_length_a	10.489741
_cell_length_b	14.044220
_cell_length_c	12.503572
_cell_angle_alpha	86.164750
_cell_angle_beta	86.440506
_cell_angle_gamma	91.135974
loop_
_atom_site_label
_atom_site_type_symbol
_atom_site_fract_x
_atom_site_fract_y
_atom_site_fract_z
O1	O	0.300990	-1.265220	0.089205
O2	O	0.289883	-0.989177	0.089232
O3	O	0.110477	-1.133479	0.089211
O4	O	0.480397	-1.120918	0.089225
O5	O	0.123993	-1.122627	-0.089429
O6	O	0.303400	-0.978325	-0.089408
O7	O	0.314507	-1.254368	-0.089436
Cu8	Cu	0.310188	-1.115355	-0.105733
Cu9	Cu	0.294203	-1.128189	0.105530
O10	O	0.493914	-1.110065	-0.089415
C11	C	0.069607	-1.127104	-0.000108
C12	C	-0.072311	-1.124266	-0.000106
C13	C	0.291780	-0.948403	-0.000085
C14	C	0.277280	-0.843079	-0.000074
N15	N	0.321431	-1.106335	-0.254324
C16	C	-0.149764	-1.032451	-0.000089
C17	C	-0.230823	-1.070473	-0.088172
C18	C	-0.244122	-1.081194	0.087953
C19	C	-0.151494	-1.162321	-0.088262
C20	C	-0.164791	-1.173035	0.087943
C21	C	-0.245814	-1.211122	-0.000162
C22	C	0.534783	-1.116440	-0.000093
C23	C	0.676700	-1.119279	-0.000088
C24	C	0.312610	-1.295142	-0.000116
C25	C	0.327110	-1.400466	-0.000120
C26	C	0.250773	-0.650235	-0.000097
C27	C	0.353611	-0.593304	-0.000097
C28	C	0.338862	-0.485999	-0.000110
C29	C	0.265520	-0.757550	-0.000084
C30	C	0.337981	-1.093067	-0.473438
C31	C	0.266404	-1.150482	-0.526773
C32	C	0.275613	-1.143099	-0.648695
C33	C	0.328774	-1.100449	-0.351504
N34	N	0.282950	-1.137217	0.254121
H35	H	-0.260141	-1.027100	-0.162633
H36	H	0.198210	-1.205182	-0.480868
C37	C	0.116877	-0.607223	-0.000097
H38	H	0.054288	-0.657052	-0.000098
H39	H	0.102161	-0.572816	0.062196
H40	H	0.111574	-0.565266	-0.062403
H41	H	0.452730	-0.625152	-0.000088
C42	C	0.430112	-1.019186	-0.535443
H43	H	0.424301	-1.023863	-0.610441
H44	H	0.407793	-0.956845	-0.517087
H45	H	0.515094	-1.031287	-0.517074
H46	H	-0.111084	-1.196608	-0.162813
C47	C	-0.093014	-0.930469	-0.000196
H48	H	-0.115384	-0.894195	-0.062854
H49	H	-0.126004	-0.901283	0.061743
H50	H	-0.002629	-0.933017	0.000434
C51	C	-0.302238	-1.313184	-0.000237
H52	H	-0.270254	-1.341836	-0.062865
H53	H	-0.278555	-1.349810	0.061734
H54	H	-0.392727	-1.310865	0.000350
H55	H	-0.135444	-1.216375	0.162407
H56	H	-0.284662	-1.046857	0.162428
