data_functionalizedCrystal
_audit_creation_method	'MofGen! by Chris Wilmer'
_symmetry_space_group_name_H-M	'P1'
_symmetry_Int_Tables_number	1
_symmetry_cell_setting	triclinic
loop_
_symmetry_equiv_pos_as_xyz
  x,y,z
_cell_length_a	14.519709
_cell_length_b	10.489741
_cell_length_c	12.996460
_cell_angle_alpha	89.994152
_cell_angle_beta	90.000034
_cell_angle_gamma	84.109659
loop_
_atom_site_label
_atom_site_type_symbol
_atom_site_fract_x
_atom_site_fract_y
_atom_site_fract_z
O1	O	1.224780	0.167204	-0.085432
O2	O	0.956410	0.186894	-0.085464
O3	O	1.096702	-0.008613	-0.085441
O4	O	1.084488	0.362710	-0.085455
O5	O	1.096687	-0.008624	0.085693
O6	O	0.956395	0.186883	0.085670
O7	O	1.224765	0.167193	0.085702
Cu8	Cu	1.090579	0.177037	0.101312
Cu9	Cu	1.090596	0.177050	-0.101074
O10	O	1.084474	0.362699	0.085679
C11	C	0.922038	0.185971	0.000099
C12	C	0.819642	0.183221	0.000088
C13	C	0.444691	0.173098	0.000135
C14	C	0.549014	0.175909	0.000121
C15	C	0.632163	0.178159	0.000110
C16	C	0.736493	0.180971	0.000099
C17	C	1.095772	-0.056140	0.000125
C18	C	1.093012	-0.197741	0.000123
C19	C	1.003749	-0.264951	0.000105
C20	C	1.045909	-0.357518	0.084488
C21	C	1.045944	-0.357482	-0.084237
C22	C	1.135209	-0.288443	0.084575
C23	C	1.135232	-0.288398	-0.084225
C24	C	1.177457	-0.380938	0.000178
C25	C	1.259137	0.168116	0.000136
C26	C	1.361533	0.170866	0.000142
C27	C	1.085403	0.410227	0.000111
C28	C	1.088163	0.551828	0.000106
N29	N	1.090573	0.177027	0.243659
N30	N	1.090609	0.177049	-0.243421
C31	C	1.090595	0.177051	0.663473
C32	C	1.090586	0.177049	0.546668
C33	C	1.090585	0.177040	0.453570
C34	C	1.090575	0.177036	0.336757
H35	H	0.930357	-0.214534	0.000181
C36	C	0.995371	-0.398259	0.179511
C37	C	0.904460	-0.339008	0.179103
C38	C	0.857869	-0.376514	0.266611
H39	H	1.026374	-0.373477	0.239508
H40	H	0.994418	-0.488683	0.179139
H41	H	0.905417	-0.248604	0.179485
H42	H	0.873431	-0.363782	0.119126
H43	H	0.856915	-0.466938	0.266239
H44	H	0.888879	-0.351731	0.326602
H45	H	0.796178	-0.336328	0.266341
C46	C	1.185585	-0.248138	0.179847
C47	C	1.214297	-0.356576	0.238958
C48	C	1.260713	-0.319495	0.326722
H49	H	1.145103	-0.190512	0.219402
H50	H	1.238091	-0.207068	0.159724
H51	H	1.161798	-0.397626	0.259082
H52	H	1.254790	-0.414213	0.199434
H53	H	1.313219	-0.278425	0.306599
H54	H	1.220225	-0.261868	0.366268
H55	H	1.280207	-0.393064	0.366834
C56	C	1.185402	-0.247549	-0.179462
C57	C	1.138363	-0.282103	-0.267582
C58	C	1.184536	-0.244474	-0.355342
H59	H	1.246765	-0.288834	-0.180206
H60	H	1.187253	-0.157286	-0.178481
H61	H	1.136521	-0.372349	-0.268563
H62	H	1.077002	-0.240822	-0.266872
H63	H	1.186388	-0.154211	-0.354361
H64	H	1.245898	-0.285761	-0.356075
H65	H	1.152623	-0.267902	-0.415141
H66	H	1.250914	-0.431128	0.000234
H67	H	1.008170	-0.388048	-0.155583
