data_functionalizedCrystal
_audit_creation_method	'MofGen! by Chris Wilmer'
_symmetry_space_group_name_H-M	'P1'
_symmetry_Int_Tables_number	1
_symmetry_cell_setting	triclinic
loop_
_symmetry_equiv_pos_as_xyz
  x,y,z
_cell_length_a	14.519709
_cell_length_b	17.019294
_cell_length_c	12.996460
_cell_angle_alpha	86.114884
_cell_angle_beta	90.000034
_cell_angle_gamma	83.537243
loop_
_atom_site_label
_atom_site_type_symbol
_atom_site_fract_x
_atom_site_fract_y
_atom_site_fract_z
O1	O	1.223534	0.103407	-0.094594
O2	O	1.723534	0.603407	0.405406
O3	O	0.955017	0.115585	-0.095704
O4	O	1.455017	0.615585	0.404296
O5	O	1.096766	-0.005327	-0.084969
O6	O	1.596766	0.494673	0.415031
O7	O	1.081785	0.224318	-0.105328
O8	O	1.581785	0.724318	0.394672
O9	O	1.096751	-0.005333	0.086165
O10	O	1.596751	0.494667	0.586165
O11	O	0.955002	0.115578	0.075431
O12	O	1.455002	0.615578	0.575431
O13	O	1.223519	0.103400	0.076541
O14	O	1.723519	0.603400	0.576541
Cu15	Cu	1.089259	0.109489	0.091612
Cu16	Cu	1.589259	0.609489	0.591612
Cu17	Cu	1.089277	0.109496	-0.110775
Cu18	Cu	1.589277	0.609496	0.389225
O19	O	1.081770	0.224312	0.065806
O20	O	1.581770	0.724312	0.565806
C21	C	0.920652	0.115014	-0.010090
C22	C	1.420652	0.615014	0.489910
C23	C	0.818276	0.113313	-0.009952
C24	C	1.318276	0.613313	0.490048
C25	C	1.096190	-0.034720	0.003201
C26	C	1.596190	0.465280	0.503201
C27	C	1.094486	-0.122293	0.010958
C28	C	1.594486	0.377707	0.510958
C29	C	0.443401	0.107052	-0.009350
C30	C	0.943401	0.607052	0.490650
C31	C	0.547703	0.108791	-0.009517
C32	C	1.047703	0.608791	0.490483
C33	C	0.630835	0.110182	-0.009652
C34	C	1.130835	0.610182	0.490348
C35	C	0.735144	0.111921	-0.009817
C36	C	1.235144	0.611921	0.490183
C37	C	1.093695	-0.163427	-0.078683
C38	C	1.593695	0.336573	0.421317
C39	C	1.092088	-0.245710	-0.071392
C40	C	1.592088	0.254290	0.428608
C41	C	1.091278	-0.286859	0.025541
C42	C	1.591278	0.213141	0.525541
C43	C	1.092066	-0.245719	0.115188
C44	C	1.592066	0.254281	0.615188
C45	C	1.093666	-0.163437	0.107896
C46	C	1.593666	0.336563	0.607896
C47	C	1.086439	-0.535299	0.052226
C48	C	1.586439	-0.035299	0.552226
C49	C	1.084841	-0.617588	0.059511
C50	C	1.584841	-0.117588	0.559511
C51	C	1.084861	-0.617573	-0.127070
C52	C	1.584861	-0.117573	0.372930
C53	C	1.086467	-0.535290	-0.134354
C54	C	1.586467	-0.035290	0.365646
C55	C	1.087250	-0.494156	-0.044706
C56	C	1.587250	0.005844	0.455294
C57	C	1.089638	-0.370966	0.032996
C58	C	1.589638	0.129034	0.532996
C59	C	1.088884	-0.410050	-0.052163
C60	C	1.588884	0.089950	0.447837
C61	C	1.257884	0.103971	-0.009075
C62	C	1.757884	0.603971	0.490925
C63	C	1.360260	0.105672	-0.009221
C64	C	1.860260	0.605672	0.490779
C65	C	1.082346	0.253705	-0.022366
C66	C	1.582346	0.753705	0.477634
C67	C	1.084050	0.341278	-0.030130
C68	C	1.584050	0.841278	0.469870
N69	N	1.089254	0.109482	0.233959
N70	N	1.589254	0.609482	0.733959
N71	N	1.089290	0.109496	-0.253122
N72	N	1.589290	0.609496	0.246878
C73	C	1.089275	0.109497	0.653772
C74	C	1.589275	0.609497	1.153772
C75	C	1.089267	0.109496	0.536967
C76	C	1.589267	0.609496	1.036967
C77	C	1.089265	0.109490	0.443869
C78	C	1.589265	0.609490	0.943869
C79	C	1.089255	0.109488	0.327057
C80	C	1.589255	0.609488	0.827057
H81	H	1.091448	-0.279198	-0.144387
H82	H	1.591448	0.220802	0.355613
H83	H	1.087128	-0.501792	-0.213287
H84	H	1.587128	-0.001792	0.286713
H85	H	1.084222	-0.651073	-0.200056
H86	H	1.584222	-0.151073	0.299944
N87	N	1.094554	-0.119019	-0.183215
N88	N	1.594554	0.380981	0.316785
H89	H	1.151414	-0.139630	-0.222189
H90	H	1.651414	0.360370	0.277811
H91	H	1.037093	-0.127026	-0.223208
H92	H	1.537093	0.372974	0.276792
N93	N	1.083975	-0.661977	0.164063
N94	N	1.583975	-0.161977	0.664063
H95	H	1.027107	-0.641360	0.203018
H96	H	1.527107	-0.141360	0.703018
H97	H	1.082885	-0.720333	0.154979
H98	H	1.582885	-0.220333	0.654979
N99	N	1.088781	-0.415351	0.137544
N100	N	1.588781	0.084649	0.637544
H101	H	1.146202	-0.407346	0.177616
H102	H	1.646202	0.092654	0.677616
H103	H	1.031882	-0.394701	0.176419
H104	H	1.531882	0.105299	0.676419
H105	H	1.087094	-0.501821	0.125223
H106	H	1.587094	-0.001821	0.625223
H107	H	1.089537	-0.376542	-0.131085
H108	H	1.589537	0.123458	0.368915
H109	H	1.091401	-0.279229	0.194113
H110	H	1.591401	0.220771	0.694113
N111	N	1.094515	-0.119066	0.204579
N112	N	1.594515	0.380934	0.704579
H113	H	1.093760	-0.157618	0.267093
H114	H	1.593760	0.342382	0.767093
H115	H	1.152320	-0.091238	0.206186
H116	H	1.652320	0.408762	0.706186
