data_functionalizedCrystal
_audit_creation_method	'MofGen! by Chris Wilmer'
_symmetry_space_group_name_H-M	'P1'
_symmetry_Int_Tables_number	1
_symmetry_cell_setting	triclinic
loop_
_symmetry_equiv_pos_as_xyz
  x,y,z
_cell_length_a	21.295419
_cell_length_b	21.295417
_cell_length_c	16.625539
_cell_angle_alpha	89.966627
_cell_angle_beta	89.979418
_cell_angle_gamma	90.045308
loop_
_atom_site_label
_atom_site_type_symbol
_atom_site_fract_x
_atom_site_fract_y
_atom_site_fract_z
Zn1	Zn	0.962331	-0.250359	-0.455881
Zn2	Zn	0.962241	-0.355633	-0.321037
Zn3	Zn	0.857061	-0.250409	-0.321062
Zn4	Zn	0.857024	-0.355622	-0.455827
O5	O	0.909664	-0.303006	-0.388452
O6	O	1.050408	-0.264308	-0.438006
O7	O	0.948266	-0.341700	-0.208208
O8	O	0.871079	-0.162313	-0.338979
O9	O	1.050342	-0.341652	-0.338937
O10	O	0.948420	-0.162277	-0.438031
O11	O	0.870992	-0.264392	-0.208226
O12	O	0.768967	-0.264381	-0.338926
O13	O	0.871015	-0.341634	-0.568666
O14	O	0.768939	-0.341681	-0.437937
O15	O	0.948384	-0.264298	-0.568707
O16	O	0.948230	-0.443721	-0.338883
O17	O	0.870927	-0.443713	-0.437913
C18	C	0.746113	-0.303036	-0.388429
C19	C	0.676144	-0.303064	-0.388438
C20	C	0.643335	-0.262857	-0.440104
C21	C	0.577592	-0.262840	-0.440107
C22	C	0.544662	-0.303041	-0.388453
C23	C	0.577479	-0.343251	-0.336778
C24	C	0.643221	-0.343263	-0.336770
N25	N	0.441387	-0.358120	-0.382152
N26	N	0.378935	-0.358107	-0.382163
C27	C	0.346587	-0.303009	-0.388471
N28	N	0.379050	-0.247922	-0.394782
N29	N	0.441507	-0.247936	-0.394775
C30	C	0.473377	-0.303033	-0.388455
C31	C	0.242492	-0.262780	-0.440142
C32	C	0.176748	-0.262762	-0.440140
C33	C	0.176637	-0.343179	-0.336815
C34	C	0.242379	-0.343191	-0.336813
C35	C	0.275303	-0.302993	-0.388481
C36	C	0.909582	-0.466557	-0.388407
C37	C	0.909604	-0.536526	-0.388415
C38	C	0.949891	-0.569375	-0.336903
C39	C	0.949921	-0.635118	-0.336921
C40	C	0.909652	-0.668008	-0.388443
C41	C	0.869362	-0.635150	-0.439964
C42	C	0.869338	-0.569409	-0.439951
N43	N	0.854584	-0.771288	-0.394582
N44	N	0.854609	-0.833739	-0.394590
C45	C	0.909722	-0.866083	-0.388489
N46	N	0.964811	-0.833615	-0.382363
N47	N	0.964786	-0.771158	-0.382350
C48	C	0.909673	-0.739293	-0.388464
C49	C	0.950045	-0.970218	-0.336994
C50	C	0.950075	-1.035962	-0.337018
C51	C	0.869511	-1.035993	-0.440057
C52	C	0.869486	-0.970250	-0.440037
C53	C	0.909752	-0.937367	-0.388502
C54	C	1.073854	-0.302976	-0.388475
C55	C	1.143823	-0.302963	-0.388485
C56	C	0.909705	-0.302959	-0.598761
C57	C	0.909723	-0.302939	-0.688382
C58	C	0.909764	-0.138815	-0.388514
C59	C	0.909807	-0.068847	-0.388541
C60	C	0.909752	-0.302868	-1.016558
C61	C	0.909742	-0.302890	-0.925249
C62	C	0.909737	-0.302904	-0.852473
C63	C	0.909727	-0.302925	-0.761158
C64	C	0.909660	-0.303007	-0.178961
C65	C	0.909764	-0.302850	-0.089340
H66	H	0.150036	-0.230017	-0.482211
O67	O	0.141129	-0.386535	-0.281093
H68	H	0.153706	-0.435957	-0.294795
H69	H	0.550663	-0.375983	-0.294720
O70	O	0.278008	-0.219415	-0.495854
H71	H	0.265397	-0.230263	-0.559113
O72	O	0.993328	-0.533913	-0.281326
H73	H	0.965163	-0.504021	-0.240257
O74	O	0.993536	-1.071398	-0.281464
H75	H	0.965391	-1.101415	-0.240424
H76	H	0.836576	-0.661933	-0.481915
H77	H	0.836726	-1.062771	-0.482010
O78	O	0.277770	-0.386564	-0.281093
H79	H	0.307730	-0.358352	-0.240131
H80	H	0.836531	-0.542662	-0.481899
O81	O	0.678847	-0.219490	-0.495814
H82	H	0.644983	-0.191522	-0.531733
O83	O	0.542192	-0.219477	-0.495839
H84	H	0.576131	-0.191530	-0.531769
O85	O	0.993369	-0.670562	-0.281354
H86	H	1.021361	-0.636651	-0.245512
H87	H	0.982834	-0.943443	-0.295033
O88	O	0.826015	-0.934820	-0.495581
H89	H	0.836777	-0.947391	-0.558881
O90	O	0.678615	-0.386632	-0.281045
H91	H	0.644674	-0.414586	-0.245127
