data_functionalizedCrystal
_audit_creation_method	'MofGen! by Chris Wilmer'
_symmetry_space_group_name_H-M	'P1'
_symmetry_Int_Tables_number	1
_symmetry_cell_setting	triclinic
loop_
_symmetry_equiv_pos_as_xyz
  x,y,z
_cell_length_a	16.625546
_cell_length_b	12.827893
_cell_length_c	12.827885
_cell_angle_alpha	89.978811
_cell_angle_beta	90.035124
_cell_angle_gamma	89.979513
loop_
_atom_site_label
_atom_site_type_symbol
_atom_site_fract_x
_atom_site_fract_y
_atom_site_fract_z
Zn1	Zn	-0.321005	-1.597618	0.590863
Zn2	Zn	0.178995	-1.097618	1.090863
Zn3	Zn	-0.455859	-1.597491	0.416107
Zn4	Zn	0.044141	-1.097491	0.916107
Zn5	Zn	-0.321040	-1.422860	0.416131
Zn6	Zn	0.178960	-0.922860	0.916131
Zn7	Zn	-0.455795	-1.422823	0.590801
Zn8	Zn	0.044205	-0.922823	1.090801
O9	O	-0.388425	-1.510198	0.503476
O10	O	0.111575	-1.010198	1.003476
O11	O	-0.338906	-1.743837	0.567697
O12	O	0.161094	-1.243837	1.067697
O13	O	-0.438017	-1.574287	0.269874
O14	O	0.061983	-1.074287	0.769874
O15	O	-0.208203	-1.446110	0.439346
O16	O	0.291797	-0.946110	0.939346
O17	O	-0.437983	-1.743744	0.439305
O18	O	0.062017	-1.243744	0.939305
O19	O	-0.208177	-1.574505	0.567721
O20	O	0.291823	-1.074505	1.067721
O21	O	-0.338965	-1.445987	0.269892
O22	O	0.161035	-0.945987	0.769892
O23	O	-0.338903	-1.276619	0.439286
O24	O	0.161097	-0.776619	0.939286
O25	O	-0.437873	-1.446048	0.737046
O26	O	0.062127	-0.946048	1.237046
O27	O	-0.437907	-1.276592	0.567615
O28	O	0.062093	-0.776592	1.067615
O29	O	-0.338844	-1.574469	0.737091
O30	O	0.161156	-1.074469	1.237091
O31	O	-0.568683	-1.574252	0.439245
O32	O	-0.068683	-1.074252	0.939245
O33	O	-0.568636	-1.445925	0.567592
O34	O	-0.068636	-0.945925	1.067592
C35	C	-0.388402	-1.238688	0.503447
C36	C	0.111598	-0.738688	1.003447
C37	C	-0.388412	-1.122535	0.503459
C38	C	0.111588	-0.622535	1.003459
C39	C	-0.437477	-1.070765	0.566861
C40	C	0.062523	-0.570765	1.066861
C41	C	-0.437488	-0.950714	0.566875
C42	C	0.062512	-0.450714	1.066875
C43	C	-0.597916	-1.510099	0.503432
C44	C	-0.097916	-1.010099	1.003432
C45	C	-0.687537	-1.510152	0.503448
C46	C	-0.187537	-1.010152	1.003448
C47	C	-1.015712	-1.510335	0.503557
C48	C	-0.515712	-1.010335	1.003557
C49	C	-0.924404	-1.510281	0.503530
C50	C	-0.424404	-1.010281	1.003530
C51	C	-0.851627	-1.510243	0.503502
C52	C	-0.351627	-1.010243	1.003502
C53	C	-0.760313	-1.510190	0.503476
C54	C	-0.260313	-1.010190	1.003476
C55	C	-0.178116	-1.510326	0.503543
C56	C	0.321884	-1.010326	1.003543
C57	C	-0.088495	-1.510380	0.503571
C58	C	0.411505	-1.010380	1.003571
C59	C	-0.388347	-1.510269	0.776046
C60	C	0.111653	-1.010269	1.276046
C61	C	-0.388314	-1.510299	0.892199
C62	C	0.111686	-1.010299	1.392199
C63	C	-0.388442	-0.782768	0.503497
C64	C	0.111558	-0.282768	1.003497
C65	C	-0.388432	-0.898921	0.503485
C66	C	0.111568	-0.398921	1.003485
C67	C	-0.388444	-1.510187	0.231966
C68	C	0.111556	-1.010187	0.731966
C69	C	-0.388250	-1.510359	0.115813
C70	C	0.111750	-1.010359	0.615813
C71	C	-0.339302	-1.573853	0.944007
C72	C	0.160698	-1.073853	1.444007
C73	C	-0.339267	-1.573886	1.064057
C74	C	0.160733	-1.073886	1.564057
H75	H	-0.479498	-0.906193	0.621153
H76	H	0.020502	-0.406193	1.121153
C77	C	-0.202752	-1.624852	1.097900
C78	C	0.297248	-1.124852	1.597900
C79	C	-0.282614	-1.647345	1.124188
C80	C	0.217386	-1.147345	1.624188
H81	H	-0.167777	-1.670209	1.135020
H82	H	0.332223	-1.170209	1.635020
H83	H	-0.190960	-1.554644	1.115741
H84	H	0.309040	-1.054644	1.615741
H85	H	-0.195355	-1.634467	1.025111
H86	H	0.304645	-1.134467	1.525111
H87	H	-0.290013	-1.637722	1.196976
H88	H	0.209987	-1.137722	1.696976
H89	H	-0.294411	-1.717570	1.106354
H90	H	0.205589	-1.217570	1.606354
C91	C	-0.377192	-0.999613	0.363029
C92	C	0.122808	-0.499613	0.863029
C93	C	-0.331718	-1.062409	0.430176
C94	C	0.168282	-0.562409	0.930176
H95	H	-0.342190	-0.962504	0.317779
H96	H	0.157810	-0.462504	0.817779
H97	H	-0.407962	-0.951576	0.402810
H98	H	0.092038	-0.451576	0.902810
H99	H	-0.412255	-1.042179	0.322948
H100	H	0.087745	-0.542179	0.822948
H101	H	-0.296658	-1.019842	0.470264
H102	H	0.203342	-0.519842	0.970264
H103	H	-0.300934	-1.110451	0.390392
H104	H	0.199066	-0.610451	0.890392
C105	C	-0.300073	-1.750790	0.910234
C106	C	0.199927	-1.250790	1.410234
C107	C	-0.282685	-1.647280	0.883919
C108	C	0.217315	-1.147280	1.383919
H109	H	-0.265115	-1.796121	0.873145
H110	H	0.234885	-1.296121	1.373145
H111	H	-0.354260	-1.766022	0.892374
H112	H	0.145740	-1.266022	1.392374
H113	H	-0.292623	-1.760430	0.983029
H114	H	0.207377	-1.260430	1.483029
H115	H	-0.290142	-1.637639	0.811125
H116	H	0.209858	-1.137639	1.311125
H117	H	-0.228486	-1.632044	0.901772
H118	H	0.271514	-1.132044	1.401772
C119	C	-0.496654	-1.495859	0.992910
C120	C	0.003346	-0.995859	1.492910
C121	C	-0.444901	-1.436903	1.055678
C122	C	0.055099	-0.936903	1.555678
H123	H	-0.531624	-1.450509	0.955775
H124	H	-0.031624	-0.950509	1.455775
H125	H	-0.527516	-1.541331	1.035489
H126	H	-0.027516	-1.041331	1.535489
H127	H	-0.465917	-1.535708	0.944885
H128	H	0.034083	-1.035708	1.444885
H129	H	-0.475638	-1.397059	1.103708
H130	H	0.024362	-0.897059	1.603708
H131	H	-0.414036	-1.391413	1.013096
H132	H	0.085964	-0.891413	1.513096
C133	C	-0.448709	-1.193710	0.707271
C134	C	0.051291	-0.693710	1.207271
C135	C	-0.494177	-1.130904	0.640127
C136	C	0.005823	-0.630904	1.140127
H137	H	-0.483716	-1.230840	0.752498
H138	H	0.016284	-0.730840	1.252498
H139	H	-0.413659	-1.151159	0.747368
H140	H	0.086341	-0.651159	1.247368
H141	H	-0.417926	-1.241740	0.667479
H142	H	0.082074	-0.741740	1.167479
H143	H	-0.524955	-1.082869	0.679918
H144	H	-0.024955	-0.582869	1.179918
H145	H	-0.529241	-1.173459	0.600025
H146	H	-0.029241	-0.673459	1.100025
H147	H	-0.346426	-0.943436	0.449198
H148	H	0.153574	-0.443436	0.949198
H149	H	-0.430244	-1.455906	0.936722
H150	H	0.069756	-0.955906	1.436722
