data_functionalizedCrystal
_audit_creation_method	'MofGen! by Chris Wilmer'
_symmetry_space_group_name_H-M	'P1'
_symmetry_Int_Tables_number	1
_symmetry_cell_setting	triclinic
loop_
_symmetry_equiv_pos_as_xyz
  x,y,z
_cell_length_a	18.101398
_cell_length_b	25.639239
_cell_length_c	18.101390
_cell_angle_alpha	89.965056
_cell_angle_beta	89.975319
_cell_angle_gamma	90.033952
loop_
_atom_site_label
_atom_site_type_symbol
_atom_site_fract_x
_atom_site_fract_y
_atom_site_fract_z
Zn1	Zn	1.132085	-0.208197	-0.418828
Zn2	Zn	1.465418	0.125137	-0.085495
Zn3	Zn	1.798751	0.458470	0.247838
Zn4	Zn	1.131963	-0.295640	-0.294982
Zn5	Zn	1.465297	0.037693	0.038351
Zn6	Zn	1.798630	0.371026	0.371684
Zn7	Zn	1.008243	-0.208214	-0.294989
Zn8	Zn	1.341576	0.125120	0.038344
Zn9	Zn	1.674909	0.458453	0.371677
Zn10	Zn	1.008178	-0.295596	-0.418771
Zn11	Zn	1.341511	0.037737	-0.085438
Zn12	Zn	1.674845	0.371071	0.247896
O13	O	1.070117	-0.251912	-0.356893
O14	O	1.403450	0.081422	-0.023559
O15	O	1.736784	0.414755	0.309774
O16	O	1.235701	-0.219808	-0.402421
O17	O	1.569035	0.113525	-0.069088
O18	O	1.902368	0.446859	0.264246
O19	O	1.115528	-0.284069	-0.191350
O20	O	1.448861	0.049265	0.141983
O21	O	1.782195	0.382598	0.475316
O22	O	1.024749	-0.135046	-0.311444
O23	O	1.358082	0.198287	0.021889
O24	O	1.691415	0.531621	0.355223
O25	O	1.235612	-0.284052	-0.311432
O26	O	1.568946	0.049281	0.021902
O27	O	1.902279	0.382614	0.355235
O28	O	1.115735	-0.135034	-0.402428
O29	O	1.449068	0.198300	-0.069094
O30	O	1.782401	0.531633	0.264239
O31	O	1.024631	-0.219836	-0.191356
O32	O	1.357964	0.113497	0.141978
O33	O	1.691298	0.446830	0.475311
O34	O	0.904601	-0.219793	-0.311388
O35	O	1.237935	0.113540	0.021945
O36	O	1.571268	0.446873	0.355278
O37	O	1.024638	-0.283977	-0.522411
O38	O	1.357971	0.049357	-0.189078
O39	O	1.691305	0.382690	0.144255
O40	O	0.904554	-0.283993	-0.402330
O41	O	1.237887	0.049341	-0.068997
O42	O	1.571220	0.382674	0.264337
O43	O	1.115672	-0.219765	-0.522454
O44	O	1.449005	0.113568	-0.189120
O45	O	1.782338	0.446902	0.144213
O46	O	1.115465	-0.368800	-0.311376
O47	O	1.448798	-0.035466	0.021957
O48	O	1.782132	0.297867	0.355290
O49	O	1.024520	-0.368767	-0.402323
O50	O	1.357854	-0.035434	-0.068990
O51	O	1.691187	0.297900	0.264344
C52	C	0.877707	-0.251890	-0.356854
C53	C	1.211040	0.081443	-0.023521
C54	C	1.544373	0.414776	0.309813
C55	C	0.795393	-0.251894	-0.356855
C56	C	1.128726	0.081439	-0.023522
C57	C	1.462059	0.414773	0.309812
C58	C	0.496302	-0.251927	-0.356917
C59	C	0.829635	0.081407	-0.023584
C60	C	1.162968	0.414740	0.309749
C61	C	0.527632	-0.211332	-0.299978
C62	C	0.860965	0.122001	0.033355
C63	C	1.194299	0.455335	0.366688
C64	C	0.613250	-0.211441	-0.299735
C65	C	0.946583	0.121892	0.033598
C66	C	1.279917	0.455226	0.366931
C67	C	0.644684	-0.251910	-0.356886
C68	C	0.978017	0.081423	-0.023553
C69	C	1.311351	0.414757	0.309780
C70	C	0.613555	-0.306988	-0.335559
C71	C	0.946889	0.026346	-0.002226
C72	C	1.280222	0.359679	0.331107
C73	C	0.527910	-0.306762	-0.335163
C74	C	0.861244	0.026571	-0.001830
C75	C	1.194577	0.359905	0.331503
C76	C	0.527919	-0.237922	-0.435317
C77	C	0.861253	0.095411	-0.101984
C78	C	1.194586	0.428745	0.231349
C79	C	0.613570	-0.236696	-0.434890
C80	C	0.946904	0.096638	-0.101556
C81	C	1.280237	0.429971	0.231777
C82	C	0.728544	-0.251904	-0.356870
C83	C	1.061877	0.081429	-0.023537
C84	C	1.395210	0.414763	0.309796
C85	C	0.412442	-0.251936	-0.356932
C86	C	0.745775	0.081397	-0.023598
C87	C	1.079109	0.414730	0.309735
C88	C	1.069993	-0.387754	-0.356859
C89	C	1.403326	-0.054421	-0.023525
C90	C	1.736659	0.278912	0.309808
C91	C	1.070007	-0.445868	-0.356869
C92	C	1.403340	-0.112535	-0.023536
C93	C	1.736674	0.220798	0.309798
C94	C	1.117596	-0.806236	-0.309617
C95	C	1.450929	-0.472902	0.023716
C96	C	1.784262	-0.139569	0.357049
C97	C	1.117624	-0.860840	-0.309627
C98	C	1.450958	-0.527507	0.023706
C99	C	1.784291	-0.194173	0.357039
O100	O	1.157957	-0.889081	-0.269415
O101	O	1.491290	-0.555747	0.063918
O102	O	1.824623	-0.222414	0.397252
N103	N	1.070247	-0.888151	-0.356942
N104	N	1.403581	-0.554817	-0.023608
N105	N	1.736914	-0.221484	0.309725
C106	C	1.022844	-0.860854	-0.404255
C107	C	1.356177	-0.527521	-0.070922
C108	C	1.689510	-0.194187	0.262412
O109	O	0.982549	-0.889098	-0.444501
O110	O	1.315882	-0.555765	-0.111168
O111	O	1.649216	-0.222431	0.222166
C112	C	1.022819	-0.806251	-0.404248
C113	C	1.356153	-0.472918	-0.070915
C114	C	1.689486	-0.139584	0.262419
C115	C	1.070194	-0.778943	-0.356925
C116	C	1.403528	-0.445610	-0.023592
C117	C	1.736861	-0.112276	0.309741
C118	C	1.164967	-0.778928	-0.262299
C119	C	1.498300	-0.445594	0.071034
C120	C	1.831634	-0.112261	0.404368
C121	C	1.164937	-0.724327	-0.262288
C122	C	1.498271	-0.390994	0.071045
C123	C	1.831604	-0.057661	0.404378
C124	C	1.117536	-0.697035	-0.309596
C125	C	1.450869	-0.363701	0.023737
C126	C	1.784202	-0.030368	0.357071
C127	C	1.070164	-0.724343	-0.356914
C128	C	1.403498	-0.391009	-0.023581
C129	C	1.736831	-0.057676	0.309752
C130	C	0.975420	-0.778955	-0.451564
C131	C	1.308754	-0.445622	-0.118231
C132	C	1.642087	-0.112289	0.215102
C133	C	0.975400	-0.724348	-0.451554
C134	C	1.308734	-0.391015	-0.118221
C135	C	1.642067	-0.057682	0.215113
C136	C	1.022775	-0.697041	-0.404231
C137	C	1.356108	-0.363707	-0.070898
C138	C	1.689442	-0.030374	0.262436
C139	C	1.022733	-0.642449	-0.404212
C140	C	1.356066	-0.309116	-0.070878
C141	C	1.689400	0.024217	0.262455
N142	N	1.070110	-0.615139	-0.356897
N143	N	1.403443	-0.281805	-0.023564
N144	N	1.736777	0.051528	0.309770
C145	C	1.117511	-0.642431	-0.309589
C146	C	1.450845	-0.309098	0.023744
C147	C	1.784178	0.024235	0.357077
C148	C	1.022900	-0.975525	-0.404266
C149	C	1.356233	-0.642191	-0.070933
C150	C	1.689566	-0.308858	0.262400
C151	C	1.022920	-1.030127	-0.404270
C152	C	1.356253	-0.696794	-0.070936
C153	C	1.689586	-0.363460	0.262397
C154	C	1.117701	-1.030109	-0.309643
C155	C	1.451035	-0.696776	0.023690
C156	C	1.784368	-0.363442	0.357024
C157	C	1.117677	-0.975506	-0.309636
C158	C	1.451010	-0.642173	0.023697
C159	C	1.784344	-0.308839	0.357030
C160	C	1.070277	-0.948214	-0.356952
C161	C	1.403610	-0.614881	-0.023618
C162	C	1.736943	-0.281547	0.309715
C163	C	1.117445	-0.527766	-0.309570
C164	C	1.450778	-0.194433	0.023763
C165	C	1.784111	0.138900	0.357097
C166	C	1.117408	-0.473161	-0.309561
C167	C	1.450742	-0.139828	0.023772
C168	C	1.784075	0.193506	0.357105
C169	C	1.022630	-0.473184	-0.404190
C170	C	1.355963	-0.139850	-0.070857
C171	C	1.689297	0.193483	0.262476
C172	C	1.022663	-0.527784	-0.404197
C173	C	1.355996	-0.194451	-0.070863
C174	C	1.689330	0.138882	0.262470
C175	C	1.070076	-0.555074	-0.356884
C176	C	1.403410	-0.221741	-0.023551
C177	C	1.736743	0.111592	0.309783
O178	O	0.982424	-0.614174	-0.444406
O179	O	1.315757	-0.280841	-0.111072
O180	O	1.649090	0.052493	0.222261
O181	O	1.157806	-0.614181	-0.269357
O182	O	1.491140	-0.280848	0.063977
O183	O	1.824473	0.052486	0.397310
C184	C	1.263279	-0.251933	-0.356932
C185	C	1.596612	0.081400	-0.023599
C186	C	1.929946	0.414733	0.309735
C187	C	1.345593	-0.251943	-0.356949
C188	C	1.678926	0.081391	-0.023615
C189	C	2.012260	0.414724	0.309718
C190	C	1.070161	-0.251864	-0.550055
C191	C	1.403494	0.081469	-0.216721
C192	C	1.736828	0.414803	0.116612
C193	C	1.070180	-0.251844	-0.632369
C194	C	1.403513	0.081490	-0.299036
C195	C	1.736847	0.414823	0.034298
C196	C	1.070262	-0.115539	-0.356943
C197	C	1.403596	0.217795	-0.023610
C198	C	1.736929	0.551128	0.309724
C199	C	1.070324	-0.057425	-0.356964
C200	C	1.403658	0.275909	-0.023631
C201	C	1.736991	0.609242	0.309702
C202	C	1.070220	-0.251811	-0.931460
C203	C	1.403553	0.081522	-0.598127
C204	C	1.736887	0.414856	-0.264793
C205	C	1.127684	-0.211553	-0.900161
C206	C	1.461018	0.121780	-0.566828
C207	C	1.794351	0.455114	-0.233495
C208	C	1.127505	-0.211403	-0.814543
C209	C	1.460839	0.121930	-0.481210
C210	C	1.794172	0.455263	-0.147876
C211	C	1.070201	-0.251827	-0.783077
C212	C	1.403534	0.081506	-0.449744
C213	C	1.736867	0.414840	-0.116411
C214	C	0.992187	-0.236853	-0.814145
C215	C	1.325520	0.096480	-0.480811
C216	C	1.658853	0.429814	-0.147478
C217	C	0.992531	-0.236551	-0.899790
C218	C	1.325864	0.096782	-0.566457
C219	C	1.659197	0.430115	-0.233123
C220	C	1.090082	-0.307147	-0.899871
C221	C	1.423416	0.026187	-0.566538
C222	C	1.756749	0.359520	-0.233205
C223	C	1.091794	-0.306865	-0.814221
C224	C	1.425128	0.026469	-0.480888
C225	C	1.758461	0.359802	-0.147555
C226	C	1.070185	-0.251837	-0.699218
C227	C	1.403518	0.081496	-0.365885
C228	C	1.736852	0.414830	-0.032551
C229	C	1.070230	-0.251800	-1.015320
C230	C	1.403564	0.081534	-0.681986
C231	C	1.736897	0.414867	-0.348653
C232	C	1.070116	-0.251921	-0.164482
C233	C	1.403449	0.081412	0.168851
C234	C	1.736783	0.414745	0.502184
C235	C	1.070241	-0.251794	-0.082169
C236	C	1.403574	0.081539	0.251165
C237	C	1.736907	0.414872	0.584498
H238	H	0.506355	-0.198458	-0.454708
H239	H	0.839688	0.134875	-0.121374
H240	H	1.173022	0.468208	0.211959
F241	F	1.167833	-0.444101	-0.259191
F242	F	1.501166	-0.110768	0.074142
F243	F	1.834500	0.222566	0.407475
F244	F	1.110321	-0.157822	-0.787781
F245	F	1.443655	0.175512	-0.454448
F246	F	1.776988	0.508845	-0.121115
F247	F	0.641540	-0.322781	-0.261453
F248	F	0.974873	0.010553	0.071880
F249	F	1.308206	0.343886	0.405213
H250	H	0.507069	-0.170365	-0.313200
H251	H	0.840403	0.162968	0.020133
H252	H	1.173736	0.496302	0.353467
H253	H	1.048231	-0.337143	-0.920116
H254	H	1.381565	-0.003810	-0.586783
H255	H	1.714898	0.329523	-0.253449
H256	H	1.156055	-0.549979	-0.271045
H257	H	1.489388	-0.216646	0.062288
H258	H	1.822721	0.116687	0.395622
H259	H	0.506081	-0.220486	-0.242223
H260	H	0.839414	0.112847	0.091111
H261	H	1.172747	0.446181	0.424444
H262	H	1.203516	-0.702096	-0.223756
H263	H	1.536849	-0.368763	0.109577
H264	H	1.870183	-0.035430	0.442911
H265	H	0.507896	-0.318638	-0.277849
H266	H	0.841229	0.014695	0.055484
H267	H	1.174563	0.348029	0.388818
H268	H	0.984335	-1.052357	-0.442798
H269	H	1.317669	-0.719023	-0.109465
H270	H	1.651002	-0.385690	0.223869
F271	F	0.500815	-0.347636	-0.387001
F272	F	0.834149	-0.014303	-0.053668
F273	F	1.167482	0.319031	0.279665
H274	H	0.633922	-0.196165	-0.450971
H275	H	0.967255	0.137169	-0.117638
H276	H	1.300589	0.470502	0.215696
H277	H	0.634971	-0.264108	-0.479587
H278	H	0.968304	0.069226	-0.146254
H279	H	1.301637	0.402559	0.187080
F280	F	1.041061	-0.348179	-0.786227
F281	F	1.374395	-0.014845	-0.452894
F282	F	1.707728	0.318488	-0.119561
H283	H	0.975041	-0.196852	-0.792707
H284	H	1.308374	0.136481	-0.459374
H285	H	1.641707	0.469814	-0.126040
H286	H	0.633914	-0.338044	-0.375733
H287	H	0.967248	-0.004711	-0.042399
H288	H	1.300581	0.328623	0.290934
F289	F	0.640764	-0.158057	-0.317208
F290	F	0.974097	0.175276	0.016125
F291	F	1.307431	0.508610	0.349459
H292	H	0.507657	-0.267490	-0.477742
H293	H	0.840991	0.065844	-0.144409
H294	H	1.174324	0.399177	0.188924
H295	H	0.948210	-0.265272	-0.793760
H296	H	1.281543	0.068061	-0.460427
H297	H	1.614876	0.401395	-0.127094
H298	H	0.984034	-0.450953	-0.442706
H299	H	1.317367	-0.117620	-0.109372
H300	H	1.650701	0.215713	0.223961
F301	F	0.970493	-0.183686	-0.925923
F302	F	1.303827	0.149647	-0.592589
F303	F	1.637160	0.482981	-0.259256
H304	H	0.948260	-0.264597	-0.920492
H305	H	1.281593	0.068736	-0.587159
H306	H	1.614926	0.402069	-0.253826
H307	H	1.145972	-0.320781	-0.921520
H308	H	1.479305	0.012553	-0.588187
H309	H	1.812638	0.345886	-0.254853
H310	H	1.203571	-0.801144	-0.223775
H311	H	1.536904	-0.467810	0.109558
H312	H	1.870238	-0.134477	0.442892
H313	H	1.156254	-0.953275	-0.271102
H314	H	1.489587	-0.619942	0.062231
H315	H	1.822921	-0.286608	0.395564
F316	F	0.972441	-0.946483	-0.454624
F317	F	1.305775	-0.613150	-0.121291
F318	F	1.639108	-0.279817	0.212042
F319	F	0.639985	-0.223540	-0.223802
F320	F	0.973319	0.109793	0.109531
F321	F	1.306652	0.443127	0.442865
H322	H	1.149206	-0.318156	-0.793916
H323	H	1.482539	0.015177	-0.460583
H324	H	1.815872	0.348511	-0.127249
H325	H	1.156301	-1.052341	-0.271125
H326	H	1.489634	-0.719007	0.062208
H327	H	1.822967	-0.385674	0.395542
H328	H	1.114704	-0.170788	-0.921700
H329	H	1.448038	0.162545	-0.588367
H330	H	1.781371	0.495879	-0.255033
F331	F	0.925003	-0.808007	-0.501939
F332	F	1.258336	-0.474673	-0.168606
F333	F	1.591670	-0.141340	0.164727
F334	F	1.203547	-0.223656	-0.927098
F335	F	1.536880	0.109677	-0.593765
F336	F	1.870213	0.443011	-0.260432
H337	H	0.936802	-0.702130	-0.490086
H338	H	1.270135	-0.368797	-0.156753
H339	H	1.603469	-0.035463	0.176580
H340	H	0.984089	-0.550019	-0.442733
H341	H	1.317422	-0.216686	-0.109400
H342	H	1.650756	0.116647	0.223933
H343	H	1.185355	-0.220781	-0.793540
H344	H	1.518688	0.112552	-0.460206
H345	H	1.852021	0.445885	-0.126873
