data_functionalizedCrystal
_audit_creation_method	'MofGen! by Chris Wilmer'
_symmetry_space_group_name_H-M	'P1'
_symmetry_Int_Tables_number	1
_symmetry_cell_setting	triclinic
loop_
_symmetry_equiv_pos_as_xyz
  x,y,z
_cell_length_a	12.996460
_cell_length_b	10.654558
_cell_length_c	10.654550
_cell_angle_alpha	95.513438
_cell_angle_beta	89.999098
_cell_angle_gamma	89.992599
loop_
_atom_site_label
_atom_site_type_symbol
_atom_site_fract_x
_atom_site_fract_y
_atom_site_fract_z
O1	O	0.085592	-1.667839	0.176439
O2	O	0.085588	-1.302362	0.193234
O3	O	0.085586	-1.493504	0.002097
O4	O	0.085594	-1.476698	0.367575
O5	O	-0.085548	-1.493479	0.002108
O6	O	-0.085546	-1.302337	0.193245
O7	O	-0.085542	-1.667815	0.176450
Cu8	Cu	-0.101170	-1.485074	0.184848
Cu9	Cu	0.101216	-1.485103	0.184835
O10	O	-0.085540	-1.476673	0.367586
C11	C	0.000020	-1.255552	0.192004
C12	C	0.000019	-1.116109	0.188308
N13	N	-0.243517	-1.485062	0.184857
C14	C	0.000021	-1.492257	-0.044695
C15	C	0.000024	-1.488566	-0.184138
C16	C	-0.336623	-1.485068	0.184860
C17	C	-0.453428	-1.485079	0.184852
C18	C	-0.546526	-1.485095	0.184838
C19	C	-0.663339	-1.485109	0.184831
N20	N	0.243563	-1.485124	0.184817
C21	C	0.000029	-0.933548	0.068820
C22	C	0.000019	-1.064569	0.072292
C23	C	0.000018	-1.036620	0.300861
C24	C	0.000020	-0.905601	0.297387
C25	C	0.000034	-0.949685	-0.063143
C26	C	0.000024	-1.080706	-0.059671
C27	C	0.000027	-0.714625	0.177676
C28	C	0.000031	-0.854069	0.181363
C29	C	0.000022	-1.601107	-0.263621
C30	C	0.000030	-1.597630	-0.394642
C31	C	0.000036	-1.369061	-0.366685
C32	C	0.000036	-1.372539	-0.235667
C33	C	0.000014	-1.733069	-0.279763
C34	C	0.000021	-1.729593	-0.410784
C35	C	0.000028	-1.477919	0.414379
C36	C	0.000031	-1.481611	0.553822
H37	H	0.000010	-0.840893	0.389032
Br38	Br	-0.123150	-1.803061	-0.220356
Br39	Br	0.000070	-1.219799	-0.127799
H40	H	0.000046	-1.274597	-0.408656
H41	H	-0.071596	-1.779304	-0.452538
H42	H	0.000008	-1.078594	0.395324
H43	H	0.071644	-1.122474	-0.109391
Br44	Br	-0.119325	-0.900714	-0.149157
H45	H	0.071629	-1.784695	-0.250408
H46	H	0.073913	-1.769484	-0.456430
H47	H	0.073926	-0.914067	-0.105169
H48	H	-0.073871	-1.126334	-0.099542
