data_functionalizedCrystal
_audit_creation_method	'MofGen! by Chris Wilmer'
_symmetry_space_group_name_H-M	'P1'
_symmetry_Int_Tables_number	1
_symmetry_cell_setting	triclinic
loop_
_symmetry_equiv_pos_as_xyz
  x,y,z
_cell_length_a	6.394989
_cell_length_b	16.109302
_cell_length_c	15.186229
_cell_angle_alpha	89.994701
_cell_angle_beta	90.000778
_cell_angle_gamma	95.020254
loop_
_atom_site_label
_atom_site_type_symbol
_atom_site_fract_x
_atom_site_fract_y
_atom_site_fract_z
O1	O	-0.268487	1.105972	-0.073263
O2	O	-0.301898	0.864264	-0.073255
O3	O	0.018874	0.988549	-0.073259
O4	O	-0.589259	0.981687	-0.073258
O5	O	0.018879	0.988541	0.073198
O6	O	-0.301893	0.864256	0.073202
O7	O	-0.268483	1.105964	0.073195
Zn8	Zn	-0.285187	0.985108	0.096452
Zn9	Zn	-0.285193	0.985120	-0.096512
O10	O	-0.589254	0.981679	0.073199
C11	C	-0.300542	0.833271	-0.000025
C12	C	-0.296483	0.740932	-0.000023
C13	C	-0.287097	0.528488	0.079802
C14	C	-0.283262	0.441727	0.079799
C15	C	-0.283277	0.441747	-0.079876
C16	C	-0.287098	0.528507	-0.079872
C17	C	-0.289018	0.571874	-0.000030
C18	C	-0.281362	0.398354	-0.000037
C19	C	-0.277203	0.304284	-0.000041
C20	C	-0.293173	0.665950	-0.000026
C21	C	0.096697	0.987188	-0.000034
C22	C	0.332929	0.983042	-0.000035
C23	C	-0.269839	1.136957	-0.000037
C24	C	-0.273897	1.229296	-0.000045
N25	N	-0.285182	0.985107	0.228144
N26	N	-0.285182	0.985128	-0.228205
C27	C	-0.143192	1.040160	0.453865
C28	C	-0.143187	1.040162	0.546055
C29	C	-0.427179	0.930069	0.546068
C30	C	-0.427172	0.930063	0.453880
C31	C	-0.285181	0.985113	0.407781
C32	C	-0.285183	0.985122	0.592159
C33	C	-0.285179	0.985124	0.692115
C34	C	-0.285182	0.985110	0.307819
H35	H	-0.288661	0.563795	0.144815
H36	H	-0.027571	1.084984	0.416334
O37	O	-0.005342	1.093558	0.590957
C38	C	-0.035816	1.081775	0.682211
H39	H	-0.113830	1.016494	0.694812
H40	H	-0.140616	1.129928	0.708364
C41	C	0.273668	1.172217	0.714062
C42	C	0.177866	1.092036	0.729540
H43	H	0.405474	1.178550	0.743258
H44	H	0.294196	1.180158	0.652583
H45	H	0.186313	1.212336	0.735857
H46	H	0.265208	1.051920	0.707735
H47	H	0.157357	1.084088	0.791017
O48	O	-0.565036	0.876681	0.590987
C49	C	-0.534569	0.888476	0.682237
H50	H	-0.456545	0.953756	0.694818
H51	H	-0.429779	0.840323	0.708411
C52	C	-0.844069	0.798045	0.714111
C53	C	-0.748255	0.878226	0.729563
H54	H	-0.975877	0.791720	0.743305
H55	H	-0.864592	0.790096	0.652634
H56	H	-0.756723	0.757927	0.735923
H57	H	-0.835588	0.918342	0.707741
H58	H	-0.727751	0.886183	0.791037
H59	H	-0.542797	0.885233	0.416356
H60	H	-0.281716	0.406426	-0.144881
O61	O	-0.281501	0.399706	0.157428
C62	C	-0.283958	0.456594	0.227894
H63	H	-0.352778	0.515690	0.204490
H64	H	-0.116894	0.472790	0.252441
C65	C	-0.334832	0.344444	0.332067
C66	C	-0.419374	0.417024	0.303324
H67	H	-0.418353	0.320035	0.378597
H68	H	-0.333168	0.306117	0.284593
H69	H	-0.195613	0.357951	0.352517
H70	H	-0.558579	0.403514	0.282864
H71	H	-0.421064	0.455348	0.350796
H72	H	-0.288657	0.563833	-0.144886
