data_functionalizedCrystal
_audit_creation_method	'MofGen! by Chris Wilmer'
_symmetry_space_group_name_H-M	'P1'
_symmetry_Int_Tables_number	1
_symmetry_cell_setting	triclinic
loop_
_symmetry_equiv_pos_as_xyz
  x,y,z
_cell_length_a	12.759401
_cell_length_b	14.908520
_cell_length_c	12.759393
_cell_angle_alpha	93.262420
_cell_angle_beta	89.980163
_cell_angle_gamma	93.322137
loop_
_atom_site_label
_atom_site_type_symbol
_atom_site_fract_x
_atom_site_fract_y
_atom_site_fract_z
Zn1	Zn	1.582069	-0.359067	-0.618119
Zn2	Zn	1.571800	-0.509954	-0.452565
Zn3	Zn	1.406368	-0.359118	-0.442457
Zn4	Zn	1.396201	-0.509888	-0.628198
O5	O	1.489109	-0.434507	-0.535335
O6	O	1.727727	-0.379089	-0.596170
O7	O	1.549813	-0.489994	-0.304207
O8	O	1.438227	-0.232867	-0.457310
O9	O	1.720183	-0.489945	-0.474538
O10	O	1.567314	-0.232830	-0.586368
O11	O	1.428270	-0.379176	-0.296780
O12	O	1.257999	-0.379112	-0.467084
O13	O	1.420899	-0.489832	-0.773879
O14	O	1.250529	-0.489882	-0.603547
O15	O	1.557456	-0.379025	-0.766474
O16	O	1.539954	-0.636190	-0.484312
O17	O	1.410942	-0.636141	-0.613349
C18	C	1.216143	-0.434496	-0.535313
C19	C	1.099365	-0.434513	-0.535330
C20	C	1.040635	-0.492279	-0.606287
C21	C	0.930911	-0.492282	-0.606308
C22	C	0.938656	-0.376752	-0.464407
C23	C	1.048379	-0.376744	-0.464392
C24	C	1.473259	-0.668899	-0.551044
C25	C	1.466574	-0.769173	-0.557799
C26	C	1.588491	-0.957588	-0.436236
C27	C	1.582214	-1.051804	-0.442580
C28	C	1.447748	-1.051824	-0.576836
C29	C	1.454025	-0.957607	-0.570492
C30	C	1.524398	-0.910493	-0.500189
C31	C	1.530670	-0.816275	-0.493840
C32	C	1.396210	-0.816296	-0.628100
C33	C	1.389932	-0.910512	-0.634445
C34	C	1.763142	-0.434519	-0.535357
C35	C	1.879918	-0.434524	-0.535367
C36	C	1.489189	-0.434416	-0.809362
C37	C	1.489223	-0.434377	-0.926136
C38	C	1.505050	-0.199200	-0.519587
C39	C	1.511844	-0.098926	-0.512877
C40	C	1.425961	-0.376663	-0.977130
C41	C	1.425987	-0.376635	-1.086852
C42	C	1.552547	-0.492038	-1.094577
C43	C	1.552514	-0.492069	-0.984857
C44	C	1.489095	-0.434533	-0.262369
C45	C	1.489282	-0.434317	-0.145579
H46	H	1.082145	-0.539315	-0.664052
H47	H	1.332640	-0.948886	-0.691686
H48	H	1.374425	-0.329687	-0.929322
H49	H	1.604077	-0.539008	-1.142401
Cl50	Cl	1.346439	-0.304090	-1.150955
Cl51	Cl	0.857084	-0.564904	-0.695517
H52	H	1.645784	-0.919227	-0.378985
H53	H	0.897129	-0.329720	-0.406650
Cl54	Cl	1.122217	-0.304113	-0.375188
Cl55	Cl	1.619133	-0.757046	-0.405456
Cl56	Cl	1.632046	-0.564634	-0.920746
Cl57	Cl	1.662794	-1.111007	-0.362182
H58	H	1.390461	-1.090201	-0.634080
H59	H	1.344018	-0.777941	-0.680172
