data_functionalizedCrystal
_audit_creation_method	'MofGen! by Chris Wilmer'
_symmetry_space_group_name_H-M	'P1'
_symmetry_Int_Tables_number	1
_symmetry_cell_setting	triclinic
loop_
_symmetry_equiv_pos_as_xyz
  x,y,z
_cell_length_a	19.805407
_cell_length_b	21.395361
_cell_length_c	21.395364
_cell_angle_alpha	90.006881
_cell_angle_beta	90.016178
_cell_angle_gamma	90.028024
loop_
_atom_site_label
_atom_site_type_symbol
_atom_site_fract_x
_atom_site_fract_y
_atom_site_fract_z
Zn1	Zn	1.034704	-0.249646	0.354234
Zn2	Zn	1.034614	-0.354380	0.249451
Zn3	Zn	0.921522	-0.249615	0.249473
Zn4	Zn	0.921474	-0.354385	0.354193
O5	O	0.978079	-0.302007	0.301838
O6	O	1.129409	-0.263550	0.340343
O7	O	1.019595	-0.340467	0.161776
O8	O	0.936594	-0.161941	0.263396
O9	O	1.129343	-0.340497	0.263359
O10	O	1.019749	-0.161964	0.340364
O11	O	0.936507	-0.263497	0.161792
O12	O	0.826799	-0.263502	0.263356
O13	O	0.936512	-0.340507	0.441876
O14	O	0.826764	-0.340476	0.340293
O15	O	1.019702	-0.263556	0.441907
O16	O	1.019548	-0.442058	0.263319
O17	O	0.936424	-0.442062	0.340273
C18	C	0.977989	-0.464794	0.301803
C19	C	0.978013	-0.534435	0.301809
C20	C	0.802223	-0.301987	0.301823
C21	C	0.726991	-0.301994	0.301831
C22	C	1.021334	-0.567126	0.261780
C23	C	1.021365	-0.632561	0.261794
C24	C	0.978064	-0.665304	0.301830
C25	C	0.934740	-0.632606	0.341867
C26	C	0.934715	-0.567172	0.341856
C27	C	0.917120	-0.769017	0.306741
C28	C	0.917144	-0.834450	0.306748
C29	C	0.978143	-0.867124	0.301867
C30	C	1.039119	-0.834357	0.296967
C31	C	1.039094	-0.768923	0.296957
C32	C	0.978087	-0.736256	0.301847
C33	C	1.021501	-0.970767	0.261852
C34	C	1.021534	-1.036204	0.261870
C35	C	0.934903	-1.036247	0.341939
C36	C	0.934876	-0.970812	0.341924
C37	C	0.978175	-0.938076	0.301877
C38	C	0.691682	-0.261998	0.341977
C39	C	0.620993	-0.262002	0.341980
C40	C	0.585615	-0.302004	0.301838
C41	C	0.620929	-0.342001	0.261688
C42	C	0.691616	-0.341994	0.261683
C43	C	0.335856	-0.342029	0.261707
C44	C	0.265164	-0.342034	0.261717
C45	C	0.265233	-0.262037	0.342004
C46	C	0.335920	-0.262030	0.341999
C47	C	0.371228	-0.302024	0.301846
C48	C	0.447876	-0.302019	0.301843
C49	C	0.508968	-0.302012	0.301844
C50	C	1.154621	-0.302027	0.301853
C51	C	1.229853	-0.302035	0.301860
C52	C	0.978112	-0.302036	0.465261
C53	C	0.978126	-0.302048	0.534902
C54	C	0.978187	-0.138583	0.301887
C55	C	0.978233	-0.068942	0.301907
C56	C	1.021436	-0.261986	0.567632
C57	C	1.021426	-0.261976	0.633068
C58	C	0.978112	-0.302039	0.665771
C59	C	0.934794	-0.342103	0.633033
C60	C	0.934800	-0.342108	0.567599
C61	C	0.972722	-0.358480	0.769433
C62	C	0.972720	-0.358477	0.834866
C63	C	0.978088	-0.302024	0.867591
C64	C	0.983472	-0.245573	0.834876
C65	C	0.983478	-0.245578	0.769441
C66	C	0.978100	-0.302038	0.736723
C67	C	1.021389	-0.261948	0.971274
C68	C	1.021374	-0.261936	1.036710
C69	C	0.934746	-0.342069	1.036674
C70	C	0.934757	-0.342075	0.971239
C71	C	0.978083	-0.302015	0.938543
C72	C	0.978049	-0.301997	1.139050
C73	C	0.978060	-0.301999	1.069409
H74	H	1.056591	-0.540474	0.229173
Br75	Br	0.383930	-0.207743	0.396482
H76	H	1.088742	-0.742246	0.292969
H77	H	0.867443	-0.742421	0.310718
Br78	Br	0.875979	-0.677040	0.396207
H79	H	0.236477	-0.229469	0.374696
Br80	Br	0.573076	-0.207720	0.396467
H81	H	0.592119	-0.374568	0.229001
H82	H	0.720482	-0.229425	0.374667
H83	H	0.720364	-0.374562	0.228991
Br84	Br	0.217150	-0.396327	0.207235
Br85	Br	1.080232	-0.207617	0.523261
Br86	Br	1.080192	-0.207587	0.677497
H87	H	1.056642	-0.229310	1.063358
Br88	Br	0.875919	-0.522803	0.396186
H89	H	1.056645	-0.659182	0.229199
H90	H	0.364595	-0.374596	0.229013
Br91	Br	0.876006	-0.396470	0.677414
H92	H	0.899493	-0.374702	0.944590
Br93	Br	0.990781	-0.168970	0.725043
H94	H	0.987843	-0.199604	0.861519
H95	H	1.056664	-0.229325	0.944651
Br96	Br	0.965423	-0.435088	0.879260
Br97	Br	0.875953	-0.396434	1.081050
Br98	Br	0.965457	-0.435103	0.725027
Br99	Br	0.834392	-0.878913	0.313394
Br100	Br	1.121909	-0.878692	0.290334
Br101	Br	1.080259	-0.926336	0.207502
Br102	Br	0.876016	-0.396481	0.523176
H103	H	1.056815	-1.062819	0.229275
Br104	Br	0.876079	-0.926443	0.396250
Br105	Br	0.876142	-1.080677	0.396281
