data_functionalizedCrystal
_audit_creation_method	'MofGen! by Chris Wilmer'
_symmetry_space_group_name_H-M	'P1'
_symmetry_Int_Tables_number	1
_symmetry_cell_setting	triclinic
loop_
_symmetry_equiv_pos_as_xyz
  x,y,z
_cell_length_a	15.944499
_cell_length_b	15.944493
_cell_length_c	15.021413
_cell_angle_alpha	90.009890
_cell_angle_beta	89.990095
_cell_angle_gamma	83.476327
loop_
_atom_site_label
_atom_site_type_symbol
_atom_site_fract_x
_atom_site_fract_y
_atom_site_fract_z
O1	O	1.114533	0.108117	-0.074074
O2	O	1.614533	0.608117	0.425926
O3	O	0.869975	0.121519	-0.074062
O4	O	1.369975	0.621519	0.425938
O5	O	0.998958	-0.007461	-0.074076
O6	O	1.498958	0.492539	0.425924
O7	O	0.985551	0.237097	-0.074060
O8	O	1.485551	0.737097	0.425940
O9	O	0.998937	-0.007443	0.073989
O10	O	1.498937	0.492557	0.573989
O11	O	0.869955	0.121537	0.074002
O12	O	1.369955	0.621537	0.574002
O13	O	1.114513	0.108135	0.073991
O14	O	1.614513	0.608135	0.573991
Zn15	Zn	0.992230	0.114839	0.097505
Zn16	Zn	1.492230	0.614839	0.597505
Zn17	Zn	0.992257	0.114815	-0.097576
Zn18	Zn	1.492257	0.614815	0.402424
O19	O	0.985530	0.237116	0.074004
O20	O	1.485530	0.737116	0.574004
C21	C	0.838670	0.120979	-0.000029
C22	C	1.338670	0.620979	0.499971
C23	C	0.745422	0.119334	-0.000025
C24	C	1.245422	0.619334	0.499975
C25	C	0.453871	0.194269	-0.000034
C26	C	0.953871	0.694269	0.499966
C27	C	0.514918	0.155307	-0.073041
C28	C	1.014918	0.655307	0.426959
C29	C	0.409787	0.113358	-0.000046
C30	C	0.909787	0.613358	0.499954
C31	C	0.514884	0.155303	0.072939
C32	C	1.014884	0.655303	0.572939
C33	C	0.574695	0.116299	-0.000034
C34	C	1.074695	0.616299	0.499966
C35	C	0.469606	0.074374	-0.073114
C36	C	0.969606	0.574374	0.426886
C37	C	0.469565	0.074382	0.072931
C38	C	0.969565	0.574382	0.572931
C39	C	0.530595	0.035361	-0.000094
C40	C	1.030595	0.535361	0.499906
C41	C	0.314787	0.111666	-0.000054
C42	C	0.814787	0.611666	0.499946
C43	C	0.669694	0.117984	-0.000033
C44	C	1.169694	0.617984	0.499967
C45	C	0.998400	-0.038747	-0.000047
C46	C	1.498400	0.461253	0.499953
C47	C	0.996757	-0.131995	-0.000059
C48	C	1.496757	0.368005	0.499941
C49	C	1.145818	0.108675	-0.000045
C50	C	1.645818	0.608675	0.499955
C51	C	1.239066	0.110320	-0.000054
C52	C	1.739066	0.610320	0.499946
C53	C	1.072679	-0.367769	-0.000045
C54	C	1.572679	0.132231	0.499955
C55	C	1.031747	-0.418339	-0.073046
C56	C	1.531747	0.081661	0.426954
C57	C	0.993713	-0.302716	-0.000048
C58	C	1.493713	0.197284	0.499952
C59	C	1.031709	-0.418297	0.072933
C60	C	1.531709	0.081703	0.572933
C61	C	0.990778	-0.467625	-0.000033
C62	C	1.490778	0.032375	0.499967
C63	C	0.952802	-0.352057	-0.073109
C64	C	1.452802	0.147943	0.426891
C65	C	0.952775	-0.352012	0.072936
C66	C	1.452775	0.147988	0.572936
C67	C	0.911785	-0.402548	-0.000082
C68	C	1.411785	0.097452	0.499918
C69	C	0.995405	-0.207716	-0.000057
C70	C	1.495405	0.292284	0.499943
C71	C	0.989079	-0.562622	-0.000030
C72	C	1.489079	-0.062622	0.499970
N73	N	0.992218	0.114855	0.230642
N74	N	1.492218	0.614855	0.730642
C75	C	0.986088	0.268401	-0.000026
C76	C	1.486088	0.768401	0.499974
C77	C	0.987731	0.361650	-0.000021
C78	C	1.487731	0.861650	0.499979
N79	N	0.992276	0.114792	-0.230714
N80	N	1.492276	0.614792	0.269286
C81	C	0.932567	0.174468	0.470332
C82	C	1.432567	0.674468	0.970332
C83	C	1.008466	0.190761	0.529664
C84	C	1.508466	0.690761	1.029664
C85	C	0.992240	0.114834	0.412249
C86	C	1.492240	0.614834	0.912249
C87	C	0.916361	0.098560	0.529659
C88	C	1.416361	0.598560	1.029659
C89	C	0.992254	0.114816	0.587673
C90	C	1.492254	0.614816	1.087673
C91	C	1.068177	0.131165	0.470275
C92	C	1.568177	0.631165	0.970275
C93	C	0.976022	0.038931	0.470264
C94	C	1.476022	0.538931	0.970264
C95	C	1.051976	0.055192	0.529570
C96	C	1.551976	0.555192	1.029570
C97	C	0.992230	0.114847	0.311192
C98	C	1.492230	0.614847	0.811192
C99	C	0.992272	0.114803	0.688728
C100	C	1.492272	0.614803	1.188728
H101	H	0.535018	0.189524	-0.134755
H102	H	1.035018	0.689524	0.365245
Br103	Br	0.436031	0.017400	0.175803
Br104	Br	0.936031	0.517400	0.675803
Br105	Br	1.087341	-0.466608	-0.175919
Br106	Br	1.587341	0.033392	0.324081
Br107	Br	0.809402	0.075629	0.573140
Br108	Br	1.309402	0.575629	1.073140
H109	H	0.882155	0.224939	0.444321
H110	H	1.382155	0.724939	0.944321
H111	H	1.140699	-0.352153	-0.000122
H112	H	1.640699	0.147847	0.499878
Br113	Br	0.897266	-0.304032	-0.176087
Br114	Br	1.397266	0.195968	0.323913
H115	H	1.065065	-0.447226	0.134646
H116	H	1.565065	0.052774	0.634646
H117	H	0.563787	-0.031847	-0.000137
H118	H	1.063787	0.468153	0.499863
Br119	Br	0.548324	0.212377	0.175806
Br120	Br	1.048324	0.712377	0.675806
Br121	Br	0.953100	-0.068011	0.426741
Br122	Br	1.453100	0.431989	0.926741
H123	H	0.449643	0.040176	-0.134905
H124	H	0.949643	0.540176	0.365095
H125	H	0.843713	-0.418002	-0.000119
H126	H	1.343713	0.081998	0.499881
Br127	Br	0.398292	0.306183	-0.000138
Br128	Br	0.898292	0.806183	0.499862
H129	H	1.102500	0.004751	0.555417
H130	H	1.602500	0.504751	1.055417
Br131	Br	0.897243	-0.303694	0.175814
Br132	Br	1.397243	0.196306	0.675814
Br133	Br	1.031354	0.297733	0.573150
Br134	Br	1.531354	0.797733	1.073150
H135	H	1.132365	0.144999	0.444300
H136	H	1.632365	0.644999	0.944300
