data_functionalizedCrystal
_audit_creation_method	'MofGen! by Chris Wilmer'
_symmetry_space_group_name_H-M	'P1'
_symmetry_Int_Tables_number	1
_symmetry_cell_setting	triclinic
loop_
_symmetry_equiv_pos_as_xyz
  x,y,z
_cell_length_a	18.426585
_cell_length_b	14.560438
_cell_length_c	14.560438
_cell_angle_alpha	90.001148
_cell_angle_beta	60.002944
_cell_angle_gamma	59.998786
loop_
_atom_site_label
_atom_site_type_symbol
_atom_site_fract_x
_atom_site_fract_y
_atom_site_fract_z
Zr1	Zr	0.794337	0.884762	-0.120473
O2	O	0.945736	0.738112	-0.267115
O3	O	0.642937	0.929719	-0.075525
O4	O	0.794334	0.929717	-0.267119
O5	O	0.794341	0.738114	0.075618
O6	O	0.794332	1.080858	-0.267117
O7	O	0.794339	0.738113	-0.075521
O8	O	0.523511	1.080861	0.075610
O9	O	1.065162	0.738111	-0.267109
O10	O	0.705208	1.061686	-0.056347
O11	O	0.705211	0.948892	0.056444
O12	O	0.883462	0.948890	-0.169133
O13	O	0.883465	0.836096	-0.056342
Zr14	Zr	0.794337	1.125815	0.120578
Zr15	Zr	0.794333	1.125814	-0.120470
Zr16	Zr	0.794340	0.884763	0.120575
Zr17	Zr	0.984808	0.884761	-0.120464
Zr18	Zr	0.603865	1.125817	0.120569
O19	O	0.945736	1.080858	0.075630
O20	O	0.945731	1.080857	-0.267110
O21	O	0.945741	0.738113	0.075625
O22	O	0.642937	1.272466	0.267219
O23	O	0.642933	1.272464	-0.075520
O24	O	0.642942	0.929721	0.267214
O25	O	0.794332	1.272463	-0.075513
O26	O	0.794339	1.080860	0.267224
O27	O	0.794341	0.929720	0.267221
O28	O	0.794334	1.272464	0.075625
O29	O	1.065160	0.929715	-0.267106
O30	O	0.523513	1.080862	0.267211
O31	O	0.523511	1.272466	0.267214
O32	O	0.523508	1.272465	0.075613
O33	O	1.065165	0.738112	-0.075508
O34	O	1.065162	0.929716	-0.075505
O35	O	0.705211	1.061687	0.169238
O36	O	0.705208	1.174481	0.056447
O37	O	0.883462	1.061685	-0.056339
O38	O	0.883465	0.948891	0.056452
C39	C	0.556086	1.005290	0.000041
C40	C	0.475226	1.005291	0.000037
C41	C	0.794341	1.005290	0.301567
C42	C	0.794342	1.005291	0.403898
C43	C	0.794333	1.306808	0.000057
C44	C	0.794331	1.409141	0.000058
C45	C	0.179116	1.005284	0.000070
C46	C	0.261503	1.005283	0.000063
C47	C	0.327169	1.005287	0.000053
C48	C	0.409560	1.005287	0.000048
C49	C	1.032587	1.005287	0.000064
C50	C	1.113447	1.005287	0.000067
C51	C	0.794341	0.703769	0.000048
C52	C	0.794342	0.601436	0.000046
C53	C	0.701287	1.516096	0.058932
C54	C	0.701291	1.612245	0.058924
C55	C	0.887394	1.494470	-0.058835
C56	C	0.887388	1.398324	-0.058832
C57	C	0.794333	1.005287	-0.301462
C58	C	0.794331	1.005286	-0.403793
C59	C	0.887387	0.946414	0.393103
C60	C	0.887382	0.946408	0.489258
C61	C	0.701279	1.064165	0.606999
C62	C	0.701285	1.064164	0.510845
C63	C	0.556082	1.306810	0.000046
C64	C	0.475220	1.409143	0.000043
C65	C	0.556090	1.005292	0.301555
C66	C	0.475231	1.005293	0.403883
C67	C	0.556086	1.306811	0.301560
C68	C	0.475226	1.409145	0.403889
C69	C	1.032587	0.703766	-0.301455
C70	C	1.113447	0.601432	-0.403784
C71	C	1.032591	0.703768	0.000059
C72	C	1.113453	0.601434	0.000061
C73	C	1.032583	1.005285	-0.301451
C74	C	1.113442	1.005284	-0.403778
C75	C	0.437247	1.398322	-0.058845
C76	C	0.361279	1.494466	-0.058870
C77	C	0.323282	1.601430	0.000001
C78	C	0.361263	1.612249	0.058892
C79	C	0.437234	1.516106	0.058909
C80	C	0.437259	1.064171	0.510825
C81	C	0.361294	1.064168	0.606981
C82	C	0.323298	1.005292	0.596194
C83	C	0.361277	0.946406	0.489241
C84	C	0.437246	0.946404	0.393087
C85	C	0.437251	1.516090	0.393068
C86	C	0.361285	1.612253	0.489207
C87	C	0.323290	1.601468	0.596167
C88	C	0.361272	1.494513	0.606986
C89	C	0.437241	1.398352	0.510847
C90	C	1.151431	0.494487	-0.392963
C91	C	1.227421	0.398325	-0.489103
C92	C	1.265420	0.409109	-0.596062
C93	C	1.227434	0.516065	-0.606881
C94	C	1.151450	0.612225	-0.510743
C95	C	1.151434	0.612255	0.058940
C96	C	1.227423	0.516111	0.058938
C97	C	1.265423	0.409147	0.000064
C98	C	1.227439	0.398328	-0.058822
C99	C	1.151457	0.494471	-0.058826
C100	C	1.151414	1.064172	-0.392955
C101	C	1.227380	1.064193	-0.489093
C102	C	1.265377	1.005319	-0.596054
C103	C	1.227397	0.946430	-0.606875
C104	C	1.151428	0.946416	-0.510738
H105	H	0.625514	1.524910	0.106882
C106	C	0.319457	1.482669	0.724653
N107	N	0.287954	1.473751	0.813282
H108	H	1.258295	1.112145	-0.480260
C109	C	1.269235	0.527908	-0.724548
N110	N	1.300715	0.536826	-0.813177
H111	H	0.963161	1.311230	-0.106780
C112	C	1.269190	0.280684	-0.477177
N113	N	1.300649	0.192080	-0.468191
C114	C	1.348947	1.005343	-0.701797
N115	N	1.411894	1.005363	-0.781439
C116	C	0.479047	1.128937	0.522718
N117	N	0.510522	1.177715	0.531686
H118	H	1.258390	0.311226	-0.106756
H119	H	0.625525	1.699329	0.106865
H120	H	1.120519	0.898458	-0.519566
H121	H	1.327292	0.330871	0.000076
C122	C	0.478996	0.881643	0.275453
N123	N	0.510437	0.832863	0.186852
C124	C	1.348996	0.303318	-0.701808
N125	N	1.411941	0.223631	-0.781451
H126	H	0.963148	0.898463	0.480459
C127	C	1.109665	0.729862	-0.522665
N128	N	1.078194	0.818465	-0.531653
H129	H	0.468150	1.311277	0.519674
C130	C	1.109674	0.482549	-0.123587
N131	N	1.078205	0.473561	-0.172366
C132	C	0.319510	1.729893	0.477281
N133	N	0.288044	1.818497	0.468296
H134	H	1.120496	0.485685	-0.305880
C135	C	0.239704	1.707180	-0.000021
N136	N	0.176749	1.786827	-0.000036
C137	C	0.479038	1.527980	0.275421
N138	N	0.510512	1.536945	0.186811
C139	C	0.598923	1.129102	0.724647
N140	N	0.521825	1.178079	0.813259
C141	C	1.109653	0.729907	0.123706
N142	N	1.078193	0.818520	0.172484
C143	C	0.319446	1.729920	0.123655
N144	N	0.287942	1.818553	0.172442
H145	H	1.120489	1.112114	-0.305871
C146	C	0.319521	1.128962	0.724619
N147	N	0.288057	1.177769	0.813220
H148	H	0.625513	1.112108	0.519643
H149	H	0.261430	1.679778	0.674440
C150	C	0.239720	1.005318	0.701978
N151	N	0.176764	1.005348	0.781659
H152	H	0.330329	0.898471	0.480474
H153	H	0.963157	1.485677	-0.106780
H154	H	0.963159	0.898473	0.306026
H155	H	0.468184	1.311235	-0.106799
H156	H	1.258345	0.898497	-0.693975
H157	H	1.258337	0.524942	0.106894
H158	H	0.330365	1.485635	-0.106826
H159	H	0.468142	1.524932	0.106870
