data_functionalizedCrystal
_audit_creation_method	'MofGen! by Chris Wilmer'
_symmetry_space_group_name_H-M	'P1'
_symmetry_Int_Tables_number	1
_symmetry_cell_setting	triclinic
loop_
_symmetry_equiv_pos_as_xyz
  x,y,z
_cell_length_a	25.639243
_cell_length_b	25.639240
_cell_length_c	13.897449
_cell_angle_alpha	90.021162
_cell_angle_beta	90.009699
_cell_angle_gamma	90.035481
loop_
_atom_site_label
_atom_site_type_symbol
_atom_site_fract_x
_atom_site_fract_y
_atom_site_fract_z
Zn1	Zn	0.799214	-0.208201	0.545403
Zn2	Zn	1.132548	0.125132	0.878737
Zn3	Zn	1.465881	0.458466	1.212070
Zn4	Zn	0.799156	-0.295613	0.384074
Zn5	Zn	1.132490	0.037721	0.717408
Zn6	Zn	1.465823	0.371054	1.050741
Zn7	Zn	0.711800	-0.208197	0.384111
Zn8	Zn	1.045133	0.125136	0.717445
Zn9	Zn	1.378467	0.458470	1.050778
Zn10	Zn	0.711745	-0.295611	0.545316
Zn11	Zn	1.045078	0.037722	0.878650
Zn12	Zn	1.378411	0.371055	1.211983
O13	O	0.755479	-0.251906	0.464726
O14	O	1.088812	0.081428	0.798060
O15	O	1.422146	0.414761	1.131393
O16	O	0.872372	-0.219798	0.524024
O17	O	1.205705	0.113535	0.857357
O18	O	1.539038	0.446868	1.190690
O19	O	0.787567	-0.284016	0.249098
O20	O	1.120901	0.049318	0.582431
O21	O	1.454234	0.382651	0.915764
O22	O	0.723443	-0.135032	0.405559
O23	O	1.056777	0.198301	0.738893
O24	O	1.390110	0.531634	1.072226
O25	O	0.872329	-0.284019	0.405496
O26	O	1.205663	0.049314	0.738829
O27	O	1.538996	0.382647	1.072163
O28	O	0.787666	-0.135035	0.524060
O29	O	1.120999	0.198298	0.857393
O30	O	1.454333	0.531631	1.190726
O31	O	0.723387	-0.219792	0.249125
O32	O	1.056720	0.113542	0.582458
O33	O	1.390054	0.446875	0.915792
O34	O	0.638628	-0.219791	0.405475
O35	O	0.971961	0.113543	0.738808
O36	O	1.305294	0.446876	1.072141
O37	O	0.723349	-0.284017	0.680309
O38	O	1.056682	0.049316	1.013643
O39	O	1.390015	0.382649	1.346976
O40	O	0.638587	-0.284014	0.523911
O41	O	0.971920	0.049320	0.857245
O42	O	1.305254	0.382653	1.190578
O43	O	0.787612	-0.219797	0.680373
O44	O	1.120946	0.113536	1.013707
O45	O	1.454279	0.446869	1.347040
O46	O	0.787514	-0.368778	0.405411
O47	O	1.120847	-0.035444	0.738745
O48	O	1.454180	0.297889	1.072078
O49	O	0.723293	-0.368777	0.523875
O50	O	1.056626	-0.035443	0.857208
O51	O	1.389959	0.297890	1.190542
C52	C	0.619636	-0.251902	0.464688
C53	C	0.952970	0.081431	0.798021
C54	C	1.286303	0.414765	1.131355
C55	C	0.561522	-0.251913	0.464695
C56	C	0.894856	0.081420	0.798028
C57	C	1.228189	0.414754	1.131361
C58	C	0.755405	-0.387748	0.464651
C59	C	1.088738	-0.054415	0.797984
C60	C	1.422072	0.278919	1.131317
C61	C	0.755421	-0.445862	0.464651
C62	C	1.088755	-0.112529	0.797984
C63	C	1.422088	0.220805	1.131317
C64	C	0.201176	-0.218518	0.526547
C65	C	0.534509	0.114815	0.859880
C66	C	0.867842	0.448148	1.193213
C67	C	0.146571	-0.218518	0.526553
C68	C	0.479905	0.114816	0.859886
C69	C	0.813238	0.448149	1.193219
O70	O	0.118349	-0.190115	0.579094
O71	O	0.451682	0.143219	0.912427
O72	O	0.785015	0.476552	1.245761
N73	N	0.119240	-0.251904	0.464753
N74	N	0.452573	0.081429	0.798086
N75	N	0.785906	0.414763	1.131420
C76	C	0.146515	-0.285289	0.402936
C77	C	0.479849	0.048044	0.736269
C78	C	0.813182	0.381378	1.069603
O79	O	0.118254	-0.313686	0.350371
O80	O	0.451587	0.019647	0.683704
O81	O	0.784920	0.352981	1.017037
C82	C	0.201119	-0.285286	0.402926
C83	C	0.534452	0.048047	0.736259
C84	C	0.867785	0.381380	1.069593
C85	C	0.228447	-0.251902	0.464737
C86	C	0.561781	0.081432	0.798070
C87	C	0.895114	0.414765	1.131403
C88	C	0.228505	-0.185136	0.588352
C89	C	0.561838	0.148197	0.921685
C90	C	0.895171	0.481531	1.255018
C91	C	0.283105	-0.185137	0.588347
C92	C	0.616439	0.148196	0.921680
C93	C	0.949772	0.481529	1.255013
C94	C	0.310377	-0.218521	0.526537
C95	C	0.643710	0.114813	0.859870
C96	C	0.977044	0.448146	1.193203
C97	C	0.283048	-0.251903	0.464732
C98	C	0.616381	0.081430	0.798065
C99	C	0.949715	0.414764	1.131398
C100	C	0.228393	-0.318668	0.341105
C101	C	0.561726	0.014665	0.674439
C102	C	0.895060	0.347998	1.007772
C103	C	0.283000	-0.318663	0.341100
C104	C	0.616333	0.014671	0.674433
C105	C	0.949667	0.348004	1.007767
C106	C	0.310329	-0.285278	0.402911
C107	C	0.643662	0.048055	0.736244
C108	C	0.976996	0.381389	1.069577
C109	C	0.364920	-0.285288	0.402917
C110	C	0.698254	0.048045	0.736250
C111	C	1.031587	0.381379	1.069584
N112	N	0.392252	-0.251902	0.464717
N113	N	0.725585	0.081432	0.798050
N114	N	1.058919	0.414765	1.131383
C115	C	0.364980	-0.218518	0.526527
C116	C	0.698314	0.114815	0.859860
C117	C	1.031647	0.448148	1.193193
C118	C	0.031845	-0.285291	0.402961
C119	C	0.365178	0.048042	0.736294
C120	C	0.698511	0.381375	1.069628
C121	C	-0.022758	-0.285297	0.402975
C122	C	0.310576	0.048036	0.736308
C123	C	0.643909	0.381370	1.069642
C124	C	-0.022698	-0.218525	0.526591
C125	C	0.310636	0.114808	0.859924
C126	C	0.643969	0.448142	1.193257
C127	C	0.031906	-0.218522	0.526581
C128	C	0.365239	0.114811	0.859914
C129	C	0.698572	0.448144	1.193247
C130	C	0.059176	-0.251905	0.464761
C131	C	0.392510	0.081428	0.798094
C132	C	0.725843	0.414762	1.131427
C133	C	0.479645	-0.218524	0.526512
C134	C	0.812979	0.114810	0.859845
C135	C	1.146312	0.448143	1.193179
C136	C	0.534251	-0.218529	0.526505
C137	C	0.867584	0.114804	0.859838
C138	C	1.200917	0.448137	1.193171
C139	C	0.534186	-0.285299	0.402886
C140	C	0.867519	0.048034	0.736219
C141	C	1.200853	0.381367	1.069553
C142	C	0.479585	-0.285296	0.402897
C143	C	0.812919	0.048038	0.736230
C144	C	1.146252	0.381371	1.069563
C145	C	0.452316	-0.251904	0.464713
C146	C	0.785650	0.081430	0.798046
C147	C	1.118983	0.414763	1.131380
O148	O	0.393178	-0.313675	0.350400
O149	O	0.726511	0.019658	0.683733
O150	O	1.059844	0.352992	1.017066
O151	O	0.393249	-0.190121	0.579075
O152	O	0.726582	0.143212	0.912408
O153	O	1.059915	0.476546	1.245741
C154	C	0.788936	-0.806188	0.526541
C155	C	1.122270	-0.472855	0.859874
C156	C	1.455603	-0.139522	1.193208
C157	C	0.788952	-0.860793	0.526560
C158	C	1.122285	-0.527459	0.859894
C159	C	1.455618	-0.194126	1.193227
O160	O	0.817360	-0.888998	0.579104
O161	O	1.150693	-0.555665	0.912437
O162	O	1.484026	-0.222331	1.245771
N163	N	0.755551	-0.888145	0.464820
N164	N	1.088885	-0.554811	0.798153
N165	N	1.422218	-0.221478	1.131486
C166	C	0.722130	-0.860889	0.403062
C167	C	1.055463	-0.527556	0.736395
C168	C	1.388796	-0.194223	1.069729
O169	O	0.693721	-0.889168	0.350549
O170	O	1.027055	-0.555835	0.683882
O171	O	1.360388	-0.222502	1.017216
C172	C	0.722112	-0.806286	0.403048
C173	C	1.055445	-0.472953	0.736381
C174	C	1.388779	-0.139619	1.069715
C175	C	0.755518	-0.778937	0.464786
C176	C	1.088852	-0.445604	0.798119
C177	C	1.422185	-0.112270	1.131453
C178	C	0.822339	-0.778839	0.588275
C179	C	1.155673	-0.445506	0.921608
C180	C	1.489006	-0.112172	1.254941
C181	C	0.822325	-0.724238	0.588254
C182	C	1.155658	-0.390905	0.921587
C183	C	1.488991	-0.057572	1.254920
C184	C	0.788907	-0.696987	0.526499
C185	C	1.122240	-0.363654	0.859832
C186	C	1.455573	-0.030320	1.193165
C187	C	0.755503	-0.724336	0.464765
C188	C	1.088837	-0.391003	0.798098
C189	C	1.422170	-0.057670	1.131432
C190	C	0.688688	-0.779032	0.341296
C191	C	1.022022	-0.445699	0.674629
C192	C	1.355355	-0.112365	1.007963
C193	C	0.688673	-0.724425	0.341288
C194	C	1.022007	-0.391092	0.674621
C195	C	1.355340	-0.057758	1.007954
C196	C	0.722079	-0.697076	0.403026
C197	C	1.055413	-0.363742	0.736359
C198	C	1.388746	-0.030409	1.069692
C199	C	0.722071	-0.642485	0.402989
C200	C	1.055404	-0.309151	0.736322
C201	C	1.388737	0.024182	1.069656
N202	N	0.755471	-0.615133	0.464730
N203	N	1.088804	-0.281799	0.798063
N204	N	1.422138	0.051534	1.131396
C205	C	0.788889	-0.642384	0.526485
C206	C	1.122222	-0.309050	0.859818
C207	C	1.455556	0.024283	1.193151
C208	C	0.722169	-0.975560	0.403097
C209	C	1.055502	-0.642227	0.736431
C210	C	1.388835	-0.308893	1.069764
C211	C	0.722189	-1.030162	0.403106
C212	C	1.055522	-0.696829	0.736439
C213	C	1.388855	-0.363496	1.069772
C214	C	0.789010	-1.030062	0.526606
C215	C	1.122343	-0.696728	0.859939
C216	C	1.455677	-0.363395	1.193272
C217	C	0.788992	-0.975458	0.526592
C218	C	1.122326	-0.642125	0.859925
C219	C	1.455659	-0.308792	1.193258
C220	C	0.755569	-0.948208	0.464838
C221	C	1.088902	-0.614875	0.798172
C222	C	1.422236	-0.281541	1.131505
C223	C	0.788855	-0.527719	0.526435
C224	C	1.122189	-0.194385	0.859768
C225	C	1.455522	0.138948	1.193102
C226	C	0.788839	-0.473113	0.526406
C227	C	1.122173	-0.139780	0.859739
C228	C	1.455506	0.193553	1.193072
C229	C	0.722016	-0.473219	0.402910
C230	C	1.055349	-0.139886	0.736243
C231	C	1.388683	0.193448	1.069576
C232	C	0.722034	-0.527819	0.402935
C233	C	1.055367	-0.194486	0.736268
C234	C	1.388701	0.138847	1.069602
C235	C	0.755456	-0.555068	0.464706
C236	C	1.088789	-0.221735	0.798039
C237	C	1.422122	0.111599	1.131372
O238	O	0.693676	-0.614245	0.350475
O239	O	1.027009	-0.280911	0.683808
O240	O	1.360343	0.052422	1.017142
O241	O	0.817288	-0.614098	0.578998
O242	O	1.150621	-0.280765	0.912331
O243	O	1.483954	0.052569	1.245664
C244	C	0.891852	-0.251909	0.464765
C245	C	1.225185	0.081424	0.798099
C246	C	1.558519	0.414757	1.131432
C247	C	0.949966	-0.251911	0.464782
C248	C	1.283299	0.081422	0.798115
C249	C	1.616633	0.414756	1.131449
C250	C	0.755481	-0.251908	0.716319
C251	C	1.088814	0.081426	1.049653
C252	C	1.422148	0.414759	1.382986
C253	C	0.755482	-0.251909	0.823533
C254	C	1.088815	0.081425	1.156867
C255	C	1.422148	0.414758	1.490200
C256	C	0.755567	-0.115532	0.464823
C257	C	1.088901	0.217801	0.798157
C258	C	1.422234	0.551134	1.131490
C259	C	0.755605	-0.057418	0.464865
C260	C	1.088938	0.275915	0.798198
C261	C	1.422272	0.609248	1.131531
C262	C	0.755468	-0.251911	1.019828
C263	C	1.088802	0.081422	1.353162
C264	C	1.422135	0.414756	1.686495
C265	C	0.755474	-0.251911	0.910596
C266	C	1.088808	0.081422	1.243929
C267	C	1.422141	0.414756	1.577263
C268	C	0.755472	-0.251914	1.214112
C269	C	1.088805	0.081419	1.547445
C270	C	1.422139	0.414753	1.880779
C271	C	0.755468	-0.251910	1.106898
C272	C	1.088801	0.081424	1.440231
C273	C	1.422135	0.414757	1.773565
H274	H	0.556499	-0.191343	0.576842
H275	H	0.889833	0.141990	0.910175
H276	H	1.223166	0.475324	1.243508
H277	H	0.054045	-0.312480	0.352622
H278	H	0.387378	0.020853	0.685956
H279	H	0.720712	0.354186	1.019289
H280	H	0.457333	-0.312486	0.352576
H281	H	0.790666	0.020847	0.685910
H282	H	1.124000	0.354180	1.019243
Cl283	Cl	0.317280	-0.360634	0.263381
Cl284	Cl	0.650613	-0.027300	0.596714
Cl285	Cl	0.983947	0.306033	0.930047
Cl286	Cl	0.194050	-0.360630	0.263375
Cl287	Cl	0.527384	-0.027297	0.596709
Cl288	Cl	0.860717	0.306037	0.930042
Cl289	Cl	0.864355	-0.813088	0.665923
Cl290	Cl	1.197688	-0.479754	0.999257
Cl291	Cl	1.531022	-0.146421	1.332590
Cl292	Cl	0.445373	-0.176545	0.604226
Cl293	Cl	0.778706	0.156788	0.937560
Cl294	Cl	1.112039	0.490122	1.270893
Cl295	Cl	0.646687	-0.813401	0.263681
Cl296	Cl	0.980020	-0.480067	0.597014
Cl297	Cl	1.313353	-0.146734	0.930348
H298	H	0.054153	-0.191336	0.576910
H299	H	0.387486	0.141997	0.910244
H300	H	0.720820	0.475330	1.243577
H301	H	0.694953	-0.953376	0.352802
H302	H	1.028286	-0.620042	0.686136
H303	H	1.361620	-0.286709	1.019469
Cl304	Cl	0.680044	-0.562202	0.325308
Cl305	Cl	1.013377	-0.228869	0.658642
Cl306	Cl	1.346711	0.104464	0.991975
Cl307	Cl	0.680007	-0.438950	0.325279
Cl308	Cl	1.013340	-0.105617	0.658613
Cl309	Cl	1.346674	0.227717	0.991946
Cl310	Cl	0.646653	-0.690171	0.263649
Cl311	Cl	0.979986	-0.356838	0.596982
Cl312	Cl	1.313319	-0.023504	0.930316
H313	H	0.305352	-0.157951	0.638678
H314	H	0.638685	0.175382	0.972011
H315	H	0.972018	0.508715	1.305345
H316	H	0.206306	-0.157948	0.638685
H317	H	0.539639	0.175385	0.972018
H318	H	0.872973	0.508718	1.305352
Cl319	Cl	-0.056992	-0.176554	0.604291
Cl320	Cl	0.276341	0.156779	0.937624
Cl321	Cl	0.609674	0.490112	1.270958
Cl322	Cl	0.830989	-0.941082	0.604210
Cl323	Cl	1.164322	-0.607749	0.937543
Cl324	Cl	1.497656	-0.274416	1.270877
Cl325	Cl	0.830839	-0.438735	0.604024
Cl326	Cl	1.164173	-0.105402	0.937357
Cl327	Cl	1.497506	0.227932	1.270690
Cl328	Cl	-0.057107	-0.327273	0.325276
Cl329	Cl	0.276226	0.006060	0.658609
Cl330	Cl	0.609559	0.339394	0.991943
Cl331	Cl	0.830873	-0.561966	0.604087
Cl332	Cl	1.164207	-0.228632	0.937421
Cl333	Cl	1.497540	0.104701	1.270754
Cl334	Cl	0.568480	-0.327265	0.325186
Cl335	Cl	0.901814	0.006068	0.658520
Cl336	Cl	1.235147	0.339402	0.991853
H337	H	0.849525	-0.701974	0.638529
H338	H	1.182858	-0.368640	0.971862
H339	H	1.516192	-0.035307	1.305195
Cl340	Cl	0.831021	-1.064331	0.604243
Cl341	Cl	1.164354	-0.730997	0.937576
Cl342	Cl	1.497687	-0.397664	1.270910
H343	H	0.694992	-1.052426	0.352822
H344	H	1.028325	-0.719092	0.686155
H345	H	1.361658	-0.385759	1.019489
