data_functionalizedCrystal
_audit_creation_method	'MofGen! by Chris Wilmer'
_symmetry_space_group_name_H-M	'P1'
_symmetry_Int_Tables_number	1
_symmetry_cell_setting	triclinic
loop_
_symmetry_equiv_pos_as_xyz
  x,y,z
_cell_length_a	12.645331
_cell_length_b	12.645330
_cell_length_c	19.805383
_cell_angle_alpha	89.904540
_cell_angle_beta	89.941631
_cell_angle_gamma	90.016927
loop_
_atom_site_label
_atom_site_type_symbol
_atom_site_fract_x
_atom_site_fract_y
_atom_site_fract_z
Zn1	Zn	1.621177	-0.421314	-0.382609
Zn2	Zn	2.121177	0.078686	0.117391
Zn3	Zn	1.620927	-0.598821	-0.269432
Zn4	Zn	2.120927	-0.098821	0.230568
Zn5	Zn	1.443760	-0.421569	-0.269449
Zn6	Zn	1.943760	0.078431	0.230551
Zn7	Zn	1.443874	-0.598534	-0.382595
Zn8	Zn	1.943874	-0.098534	0.117405
O9	O	1.532434	-0.510060	-0.326021
O10	O	2.032434	-0.010060	0.173979
O11	O	1.769491	-0.444874	-0.367595
O12	O	2.269491	0.055126	0.132405
O13	O	1.597273	-0.575535	-0.174718
O14	O	2.097273	-0.075535	0.325282
O15	O	1.467352	-0.273188	-0.284473
O16	O	1.967352	0.226812	0.215527
O17	O	1.769307	-0.575287	-0.284445
O18	O	2.269307	-0.075287	0.215555
O19	O	1.597700	-0.273001	-0.367611
O20	O	2.097700	0.226999	0.132389
O21	O	1.467109	-0.445309	-0.174730
O22	O	1.967109	0.054691	0.325270
O23	O	1.295428	-0.445031	-0.284459
O24	O	1.795428	0.054969	0.215541
O25	O	1.467546	-0.574798	-0.477313
O26	O	1.967546	-0.074798	0.022687
O27	O	1.295511	-0.575046	-0.367586
O28	O	1.795511	-0.075046	0.132414
O29	O	1.597810	-0.444596	-0.477324
O30	O	2.097810	0.055404	0.022676
O31	O	1.597383	-0.747130	-0.284431
O32	O	2.097383	-0.247130	0.215569
O33	O	1.467303	-0.746919	-0.367570
O34	O	1.967303	-0.246919	0.132430
C35	C	1.257005	-0.510036	-0.326023
C36	C	1.757005	-0.010036	0.173977
C37	C	1.139175	-0.510051	-0.326040
C38	C	1.639175	-0.010051	0.173960
C39	C	0.971698	-0.592293	-0.378063
C40	C	1.471698	-0.092293	0.121937
C41	C	1.094259	-0.592027	-0.378280
C42	C	1.594259	-0.092027	0.121720
C43	C	1.094719	-0.398358	-0.345527
C44	C	1.594719	0.101642	0.154473
C45	C	0.972122	-0.398860	-0.345893
C46	C	1.472122	0.101140	0.154107
C47	C	0.971846	-0.538602	-0.254364
C48	C	1.471846	-0.038602	0.245636
C49	C	1.094452	-0.541043	-0.254751
C50	C	1.594452	-0.041043	0.245249
C51	C	1.532357	-0.785489	-0.326012
C52	C	2.032357	-0.285489	0.173988
C53	C	1.532421	-0.903319	-0.326030
C54	C	2.032421	-0.403319	0.173970
C55	C	1.450925	-1.070794	-0.378495
C56	C	1.950925	-0.570794	0.121505
C57	C	1.450508	-0.948235	-0.378326
C58	C	1.950508	-0.448235	0.121674
C59	C	1.502093	-0.948051	-0.254700
C60	C	2.002093	-0.448051	0.245300
C61	C	1.501595	-1.070648	-0.255019
C62	C	2.001595	-0.570648	0.244981
C63	C	1.644743	-1.070375	-0.344317
C64	C	2.144743	-0.570375	0.155683
C65	C	1.644057	-0.947765	-0.345877
C66	C	2.144057	-0.447765	0.154123
C67	C	1.808940	-0.510084	-0.326020
C68	C	2.308940	-0.010084	0.173980
C69	C	1.926770	-0.510095	-0.326019
C70	C	2.426770	-0.010095	0.173981
C71	C	1.532718	-0.509637	-0.502564
C72	C	2.032718	-0.009637	-0.002564
C73	C	1.532839	-0.509457	-0.577797
C74	C	2.032839	-0.009457	-0.077797
C75	C	1.532541	-0.233554	-0.326046
C76	C	2.032541	0.266446	0.173954
C77	C	1.532586	-0.115724	-0.326056
C78	C	2.032586	0.384276	0.173944
C79	C	1.532213	-0.510404	-0.150165
C80	C	2.032213	-0.010404	0.349835
C81	C	1.532297	-0.510286	-0.074933
C82	C	2.032297	-0.010286	0.425067
C83	C	1.465011	-0.578508	-0.039399
C84	C	1.965011	-0.078508	0.460601
C85	C	1.465083	-0.578387	0.031289
C86	C	1.965083	-0.078387	0.531289
C87	C	1.532448	-0.510049	0.066442
C88	C	2.032448	-0.010049	0.566442
C89	C	1.599738	-0.441818	0.030904
C90	C	2.099738	0.058182	0.530904
C91	C	1.599659	-0.441935	-0.039783
C92	C	2.099659	0.058065	0.460217
C93	C	1.600056	-0.441347	0.315976
C94	C	2.100056	0.058653	0.815976
C95	C	1.600132	-0.441239	0.386668
C96	C	2.100132	0.058761	0.886668
C97	C	1.465480	-0.577800	0.387049
C98	C	1.965480	-0.077800	0.887049
C99	C	1.465401	-0.577916	0.316362
C100	C	1.965401	-0.077916	0.816362
C101	C	1.532686	-0.509683	0.280829
C102	C	2.032686	-0.009683	0.780829
C103	C	1.532605	-0.509813	0.204181
C104	C	2.032605	-0.009813	0.704181
C105	C	1.532536	-0.509923	0.143089
C106	C	2.032536	-0.009923	0.643089
H107	H	1.124317	-0.674849	-0.366067
H108	H	1.624317	-0.174849	0.133933
Cl109	Cl	1.376822	-0.900844	-0.230382
Cl110	Cl	1.876822	-0.400844	0.269618
H111	H	1.654447	-0.386377	-0.068714
H112	H	2.154447	0.113623	0.431286
H113	H	1.368299	-1.101717	-0.366552
H114	H	1.868299	-0.601717	0.133448
H115	H	1.367362	-0.919023	-0.366229
H116	H	1.867362	-0.419023	0.133771
Cl117	Cl	1.479961	-1.116050	-0.460425
Cl118	Cl	1.979961	-0.616050	0.039575
H119	H	1.672393	-1.101120	-0.395446
H120	H	2.172393	-0.601120	0.104554
Cl121	Cl	1.141638	-0.455327	-0.191669
Cl122	Cl	1.641638	0.044673	0.308331
H123	H	1.558488	-1.100384	-0.214616
H124	H	2.058488	-0.600384	0.285384
H125	H	1.123809	-0.335445	-0.308805
H126	H	1.623809	0.164555	0.191195
Cl127	Cl	0.924057	-0.662206	-0.227011
Cl128	Cl	1.424057	-0.162206	0.272989
Cl129	Cl	1.375009	-1.114995	-0.231134
Cl130	Cl	1.875009	-0.614995	0.268866
Cl131	Cl	1.479814	-0.901518	-0.459986
Cl132	Cl	1.979814	-0.401518	0.040014
H133	H	1.654990	-0.385584	0.415288
H134	H	2.154990	0.114416	0.915288
Cl135	Cl	1.591001	-0.903156	-0.192726
Cl136	Cl	2.091001	-0.403156	0.307274
H137	H	1.410158	-0.634162	-0.068016
H138	H	1.910158	-0.134162	0.431984
H139	H	1.125505	-0.373757	-0.397342
H140	H	1.625505	0.126243	0.102658
Cl141	Cl	1.684401	-0.355881	0.075096
Cl142	Cl	2.184401	0.144119	0.575096
Cl143	Cl	1.742956	-0.900544	-0.291207
Cl144	Cl	2.242956	-0.400544	0.208793
H145	H	1.654849	-0.385793	0.287054
H146	H	2.154849	0.114207	0.787054
Cl147	Cl	1.738682	-1.115267	-0.285361
Cl148	Cl	2.238682	-0.615267	0.214639
Cl149	Cl	1.380486	-0.664153	0.075957
Cl150	Cl	1.880486	-0.164153	0.575957
H151	H	1.666927	-0.918513	-0.398372
H152	H	2.166927	-0.418513	0.101628
H153	H	1.410690	-0.633356	0.415988
H154	H	1.910690	-0.133356	0.915988
Cl155	Cl	0.926136	-0.720590	-0.359422
Cl156	Cl	1.426136	-0.220590	0.140578
Cl157	Cl	0.928094	-0.361558	-0.426769
Cl158	Cl	1.428094	0.138442	0.073231
Cl159	Cl	0.926226	-0.301089	-0.289925
Cl160	Cl	1.426226	0.198911	0.210075
Cl161	Cl	0.926973	-0.446171	-0.194495
Cl162	Cl	1.426973	0.053829	0.305505
Cl163	Cl	0.924233	-0.563548	-0.459557
Cl164	Cl	1.424233	-0.063548	0.040443
Cl165	Cl	1.139308	-0.667948	-0.232062
Cl166	Cl	1.639308	-0.167948	0.267938
Cl167	Cl	1.139675	-0.562880	-0.460253
Cl168	Cl	1.639675	-0.062880	0.039747
Cl169	Cl	1.380716	-0.663837	0.272173
Cl170	Cl	1.880716	-0.163837	0.772173
