data_functionalizedCrystal
_audit_creation_method	'MofGen! by Chris Wilmer'
_symmetry_space_group_name_H-M	'P1'
_symmetry_Int_Tables_number	1
_symmetry_cell_setting	triclinic
loop_
_symmetry_equiv_pos_as_xyz
  x,y,z
_cell_length_a	25.993458
_cell_length_b	25.993459
_cell_length_c	25.993511
_cell_angle_alpha	59.998162
_cell_angle_beta	89.999156
_cell_angle_gamma	60.000225
loop_
_atom_site_label
_atom_site_type_symbol
_atom_site_fract_x
_atom_site_fract_y
_atom_site_fract_z
O1	O	-0.438486	-0.368218	0.015293
O2	O	-0.363675	-0.262871	-0.015241
O3	O	-0.363672	-0.368217	0.090105
O4	O	-0.438489	-0.262872	-0.090053
O5	O	-0.278107	-0.453782	0.090105
O6	O	-0.278110	-0.348435	-0.015242
O7	O	-0.352922	-0.453782	0.015293
Zn8	Zn	-0.301931	-0.414694	0.000025
Zn9	Zn	-0.414666	-0.301959	0.000026
O10	O	-0.352925	-0.348436	-0.090054
C11	C	-0.277316	-0.161982	-0.022175
C12	C	-0.309062	-0.098492	-0.017804
C13	C	-0.215401	-0.192794	-0.022608
C14	C	-0.277319	-0.255138	-0.022182
C15	C	-0.309067	-0.291250	-0.017818
C16	C	-0.215403	-0.285808	-0.022615
C17	C	-0.184156	-0.255142	-0.022175
C18	C	-0.116294	-0.291259	-0.017803
C19	C	-0.308422	-0.192790	-0.022615
C20	C	-0.621955	-0.565869	0.037072
C21	C	-0.590709	-0.628219	0.037508
C22	C	-0.528796	-0.565867	0.037069
C23	C	-0.497692	-0.628217	0.037505
C24	C	-0.528795	-0.659029	0.037072
C25	C	-0.590710	-0.535199	0.037505
C26	C	-0.722642	-0.464940	0.029513
C27	C	-0.786264	-0.430643	0.024742
C28	C	-0.818173	-0.460083	0.022351
C29	C	-0.887157	-0.422897	0.017175
C30	C	-0.786465	-0.523827	0.024735
C31	C	-0.722845	-0.558124	0.029508
C32	C	-0.690936	-0.528678	0.031894
C33	C	-0.529037	-0.752158	0.029515
C34	C	-0.499712	-0.811010	0.024744
C35	C	-0.438364	-0.840525	0.022349
C36	C	-0.406566	-0.904333	0.017173
C37	C	-0.406330	-0.811198	0.024730
C38	C	-0.435652	-0.752352	0.029503
C39	C	-0.497006	-0.722832	0.031893
C40	C	-0.529039	-0.464935	0.029505
C41	C	-0.499717	-0.430630	0.024723
C42	C	-0.438369	-0.460069	0.022328
C43	C	-0.406571	-0.422880	0.017149
C44	C	-0.406337	-0.523807	0.024709
C45	C	-0.435656	-0.558111	0.029489
C46	C	-0.497007	-0.528673	0.031887
C47	C	-0.528800	-0.150795	-0.471170
C48	C	-0.590715	-0.088445	-0.502276
C49	C	-0.528801	-0.150794	-0.378010
C50	C	-0.590716	-0.088444	-0.409257
C51	C	-0.621962	-0.057634	-0.471172
C52	C	-0.497696	-0.181464	-0.409255
C53	C	-0.435430	-0.251726	-0.470926
C54	C	-0.405903	-0.286024	-0.500250
C55	C	-0.437736	-0.256585	-0.561599
C56	C	-0.405725	-0.293773	-0.593395
C57	C	-0.499096	-0.192842	-0.593635
C58	C	-0.528620	-0.158544	-0.564313
C59	C	-0.496787	-0.187988	-0.502959
C60	C	-0.722649	0.035493	-0.564543
C61	C	-0.786272	0.094345	-0.594071
C62	C	-0.818182	0.123861	-0.562238
C63	C	-0.887167	0.187669	-0.594249
C64	C	-0.786474	0.094536	-0.500878
C65	C	-0.722854	0.035690	-0.471354
C66	C	-0.690944	0.006168	-0.503186
C67	C	-0.435431	-0.251724	-0.277321
C68	C	-0.405908	-0.286027	-0.213695
C69	C	-0.437741	-0.256588	-0.181786
C70	C	-0.405731	-0.293774	-0.112801
C71	C	-0.499099	-0.192850	-0.213493
C72	C	-0.528625	-0.158547	-0.277116
C73	C	-0.496788	-0.187987	-0.309028
O74	O	0.090091	-0.453793	0.015309
O75	O	-0.090066	-0.348444	-0.015226
O76	O	0.015273	-0.453795	0.090120
O77	O	-0.015248	-0.348442	-0.090038
O78	O	0.015276	-0.368235	0.090127
O79	O	-0.090063	-0.262884	-0.015220
O80	O	0.090094	-0.368232	0.015315
Zn81	Zn	0.000016	-0.301973	0.000049
Zn82	Zn	0.000012	-0.414703	0.000040
O83	O	-0.015245	-0.262881	-0.090031
O84	O	-0.352917	0.074778	0.015314
O85	O	-0.278103	-0.074844	-0.015220
O86	O	-0.278107	-0.074853	0.090126
O87	O	-0.352914	0.074787	-0.090033
O88	O	-0.363674	-0.074850	0.090119
O89	O	-0.363670	-0.074840	-0.015227
O90	O	-0.438484	0.074782	0.015307
Zn91	Zn	-0.414663	-0.000029	0.000039
Zn92	Zn	-0.301925	-0.000034	0.000048
O93	O	-0.438481	0.074791	-0.090039
O94	O	-1.090075	0.358185	-0.636308
O95	O	-0.909918	0.208556	-0.561490
O96	O	-1.015259	0.208553	-0.561488
O97	O	-0.984734	0.358188	-0.636310
O98	O	-1.015257	0.208552	-0.647052
O99	O	-0.909916	0.208554	-0.647054
O100	O	-1.090073	0.358183	-0.721872
Zn101	Zn	-0.999994	0.283368	-0.698048
Zn102	Zn	-0.999997	0.283371	-0.585314
O103	O	-0.984732	0.358186	-0.721874
O104	O	-0.363672	-0.368217	-0.721856
O105	O	-0.438486	-0.262875	-0.647043
O106	O	-0.438485	-0.368220	-0.647039
O107	O	-0.363673	-0.262872	-0.721860
O108	O	-0.352919	-0.453785	-0.561473
O109	O	-0.352920	-0.348441	-0.561477
O110	O	-0.278106	-0.453783	-0.636290
Zn111	Zn	-0.301928	-0.414697	-0.585298
Zn112	Zn	-0.414664	-0.301961	-0.698035
O113	O	-0.278107	-0.348438	-0.636294
C114	C	-0.184157	-0.554680	0.277358
C115	C	-0.116295	-0.618172	0.309104
C116	C	-0.215402	-0.523869	0.308461
C117	C	-0.277317	-0.461519	0.184196
C118	C	-0.309064	-0.425404	0.116335
C119	C	-0.308422	-0.430850	0.215442
C120	C	-0.277317	-0.461519	0.277356
C121	C	-0.309064	-0.425404	0.309102
C122	C	-0.215403	-0.523869	0.215443
C123	C	0.022216	-0.461546	0.277378
C124	C	0.017847	-0.425434	0.309127
C125	C	0.022649	-0.523895	0.308480
C126	C	0.022218	-0.461539	0.184215
C127	C	0.017852	-0.425421	0.116353
C128	C	0.022651	-0.523888	0.215458
C129	C	0.022213	-0.554702	0.277373
C130	C	0.017842	-0.618193	0.309116
C131	C	0.022654	-0.430874	0.215464
C132	C	-0.277320	-0.255179	0.277365
C133	C	-0.309067	-0.291295	0.309105
C134	C	-0.215404	-0.285854	0.308471
C135	C	-0.277318	-0.162008	0.184211
C136	C	-0.309065	-0.098506	0.116351
C137	C	-0.215403	-0.192825	0.215459
C138	C	-0.184157	-0.255183	0.277372
C139	C	-0.116295	-0.291304	0.309120
C140	C	-0.308424	-0.192820	0.215452
C141	C	-0.036996	-0.057627	-0.471149
C142	C	-0.037431	-0.088434	-0.502256
C143	C	-0.037001	-0.150789	-0.377991
C144	C	-0.037436	-0.181455	-0.409239
C145	C	-0.036998	-0.150783	-0.471154
C146	C	-0.037433	-0.088440	-0.409234
C147	C	-0.029433	0.035497	-0.470902
C148	C	-0.024659	0.094348	-0.500225
C149	C	-0.022263	0.123866	-0.561574
C150	C	-0.017083	0.187673	-0.593369
C151	C	-0.024646	0.094544	-0.593611
C152	C	-0.029422	0.035698	-0.564291
C153	C	-0.031813	0.006175	-0.502936
C154	C	-0.029436	-0.158096	-0.564526
C155	C	-0.024665	-0.192189	-0.594055
C156	C	-0.022273	-0.255931	-0.562224
C157	C	-0.017096	-0.292903	-0.594236
C158	C	-0.024659	-0.285585	-0.500864
C159	C	-0.029433	-0.251492	-0.471338
C160	C	-0.031819	-0.187750	-0.503169
C161	C	-0.029443	-0.158113	-0.277301
C162	C	-0.024666	-0.192218	-0.213674
C163	C	-0.022275	-0.255960	-0.181767
C164	C	-0.017101	-0.292938	-0.112782
C165	C	-0.024655	-0.285608	-0.213475
C166	C	-0.029430	-0.251509	-0.277098
C167	C	-0.031824	-0.187761	-0.309009
O168	O	-0.015283	-0.348468	0.438547
O169	O	0.015263	-0.453813	0.363734
O170	O	-0.090086	-0.348466	0.363721
O171	O	0.090067	-0.453815	0.438560
O172	O	-0.090076	-0.262903	0.278160
O173	O	0.015274	-0.368250	0.278173
O174	O	-0.015273	-0.262904	0.352986
Zn175	Zn	0.000002	-0.301992	0.301995
Zn176	Zn	-0.000011	-0.414726	0.414725
O177	O	0.090077	-0.368251	0.352999
C178	C	-0.621954	0.434195	-0.471145
C179	C	-0.590708	0.464866	-0.502245
C180	C	-0.528793	0.341020	-0.377984
C181	C	-0.497688	0.371833	-0.409225
C182	C	-0.528792	0.434191	-0.471138
C183	C	-0.590709	0.371836	-0.409233
C184	C	-0.722643	0.441515	-0.470910
C185	C	-0.786267	0.475617	-0.500237
C186	C	-0.818176	0.539368	-0.561584
C187	C	-0.887162	0.576348	-0.593384
C188	C	-0.786467	0.569022	-0.593614
C189	C	-0.722846	0.534920	-0.564289
C190	C	-0.690937	0.471170	-0.502938
C191	C	-0.529033	0.535130	-0.564499
C192	C	-0.499707	0.569430	-0.594020
C193	C	-0.438357	0.539984	-0.562184
C194	C	-0.406558	0.577173	-0.594188
C195	C	-0.406323	0.476234	-0.500827
C196	C	-0.435646	0.441934	-0.471308
C197	C	-0.497001	0.471385	-0.503145
C198	C	-0.529036	0.247880	-0.277303
C199	C	-0.499713	0.189024	-0.213679
C200	C	-0.438364	0.159502	-0.181766
C201	C	-0.406566	0.095685	-0.112783
C202	C	-0.406331	0.188830	-0.213467
C203	C	-0.435651	0.247685	-0.277089
C204	C	-0.497003	0.277207	-0.309004
H205	H	-0.615797	-0.654004	0.038210
C206	C	-0.181504	-0.157999	0.181581
C207	C	-0.157375	-0.130305	0.208772
C208	C	-0.123472	-0.095487	0.174897
C209	C	-0.113699	-0.088361	0.113832
C210	C	-0.137828	-0.116056	0.086638
C211	C	-0.171731	-0.150874	0.120513
H212	H	-0.164609	-0.135579	0.253979
H213	H	-0.105610	-0.074985	0.195028
H214	H	-0.088603	-0.062586	0.088756
H215	H	-0.130594	-0.110782	0.041431
H216	H	-0.189593	-0.171376	0.100382
C217	C	-0.377149	-0.157948	-0.023571
C218	C	-0.428972	-0.130229	-0.078470
C219	C	-0.497697	-0.095386	-0.079430
C220	C	-0.514598	-0.088262	-0.025491
C221	C	-0.462773	-0.115981	0.029412
C222	C	-0.394048	-0.150824	0.030372
H223	H	-0.416463	-0.135502	-0.118403
H224	H	-0.536061	-0.074866	-0.120073
H225	H	-0.565472	-0.062469	-0.026201
H226	H	-0.475283	-0.110708	0.069345
H227	H	-0.355684	-0.171344	0.071015
H228	H	-0.359295	-0.167034	0.190366
H229	H	-0.446816	0.346041	-0.384134
C230	C	-0.428970	-0.249235	-0.375352
C231	C	-0.377161	-0.246146	-0.351237
C232	C	-0.308435	-0.313911	-0.317328
C233	C	-0.291519	-0.384764	-0.307535
C234	C	-0.343329	-0.387856	-0.331650
C235	C	-0.412054	-0.320091	-0.365559
H236	H	-0.389682	-0.193694	-0.358486
H237	H	-0.270082	-0.311622	-0.299476
H238	H	-0.240644	-0.434928	-0.282434
H239	H	-0.330807	-0.440308	-0.324401
H240	H	-0.450407	-0.322379	-0.383411
H241	H	-0.356363	0.452259	-0.474909
H242	H	-0.356374	-0.835235	0.022774
C243	C	-0.377144	-0.363070	0.181557
C244	C	-0.428972	-0.366131	0.208740
C245	C	-0.497691	-0.298353	0.174860
C246	C	-0.514583	-0.227514	0.113796
C247	C	-0.462754	-0.224451	0.086610
C248	C	-0.394035	-0.292229	0.120490
H249	H	-0.416469	-0.418572	0.253946
H250	H	-0.536058	-0.300621	0.194985
H251	H	-0.565453	-0.177341	0.088716
H252	H	-0.475258	-0.172010	0.041404
H253	H	-0.355668	-0.289961	0.100365
H254	H	-0.190315	-0.549659	0.359334
C255	C	-0.624614	-0.053606	-0.375375
C256	C	-0.634390	-0.097779	-0.314313
C257	C	-0.668291	-0.062941	-0.280434
C258	C	-0.692417	0.016071	-0.307617
C259	C	-0.682643	0.060249	-0.368682
C260	C	-0.648741	0.025411	-0.402561
H261	H	-0.616529	-0.156273	-0.294187
H262	H	-0.675527	-0.095645	-0.235229
H263	H	-0.717513	0.041860	-0.282538
H264	H	-0.700503	0.118743	-0.388808
H265	H	-0.641506	0.058115	-0.447766
H266	H	0.023338	-0.549675	0.359349
H267	H	-0.356374	0.164792	-0.187477
C268	C	-0.038385	-0.249231	-0.375359
C269	C	0.015556	-0.320074	-0.314295
C270	C	0.014607	-0.387847	-0.280420
C271	C	-0.040283	-0.384779	-0.307608
C272	C	-0.094228	-0.313934	-0.368675
C273	C	-0.093279	-0.246160	-0.402551
H274	H	0.056193	-0.322347	-0.294166
H275	H	0.054541	-0.440291	-0.235214
H276	H	-0.040985	-0.434949	-0.282532
H277	H	-0.134865	-0.311660	-0.388805
H278	H	-0.133213	-0.193716	-0.447757
C279	C	-0.400422	-0.720090	0.032124
C280	C	-0.337924	-0.768155	0.085738
C281	C	-0.302696	-0.735892	0.088359
C282	C	-0.329965	-0.655563	0.037367
C283	C	-0.392466	-0.607492	-0.016251
C284	C	-0.427695	-0.639756	-0.018872
H285	H	-0.317735	-0.827624	0.123489
H286	H	-0.256428	-0.771477	0.128051
H287	H	-0.303887	-0.631679	0.039307
H288	H	-0.412656	-0.548024	-0.054002
H289	H	-0.473963	-0.604171	-0.058564
H290	H	-0.812075	-0.378744	0.022800
C291	C	-0.181519	-0.558693	0.181545
C292	C	-0.120460	-0.565803	0.171768
C293	C	-0.086580	-0.600620	0.137868
C294	C	-0.113759	-0.628326	0.113744
C295	C	-0.174822	-0.621216	0.123521
C296	C	-0.208702	-0.586400	0.157422
H297	H	-0.100337	-0.545293	0.189626
H298	H	-0.041377	-0.605883	0.130630
H299	H	-0.088679	-0.654099	0.088649
H300	H	-0.194945	-0.641727	0.105663
H301	H	-0.253904	-0.581137	0.164659
C302	C	-0.400416	0.279946	-0.311962
C303	C	-0.387789	0.280493	-0.370056
C304	C	-0.352553	0.312754	-0.404928
C305	C	-0.329944	0.344468	-0.381706
C306	C	-0.342570	0.343922	-0.323610
C307	C	-0.377806	0.311661	-0.288737
H308	H	-0.404526	0.257016	-0.387248
H309	H	-0.343207	0.313158	-0.447935
H310	H	-0.303860	0.368349	-0.407521
H311	H	-0.325833	0.367400	-0.306417
H312	H	-0.387152	0.311257	-0.245730
C313	C	-0.181509	-0.353641	0.377193
C314	C	-0.171736	-0.424475	0.394078
C315	C	-0.137840	-0.492258	0.462796
C316	C	-0.113716	-0.489208	0.514630
C317	C	-0.123489	-0.418371	0.497747
C318	C	-0.157385	-0.350588	0.429028
H319	H	-0.189594	-0.426735	0.355706
H320	H	-0.130606	-0.544696	0.475294
H321	H	-0.088624	-0.539386	0.565499
H322	H	-0.105631	-0.416111	0.536118
H323	H	-0.164619	-0.298149	0.416530
C324	C	0.023575	-0.363078	0.181552
C325	C	-0.030389	-0.292247	0.171771
C326	C	-0.029481	-0.224445	0.137848
C327	C	0.025390	-0.227474	0.113705
C328	C	0.079357	-0.298309	0.123485
C329	C	0.078450	-0.366111	0.157408
H330	H	-0.071011	-0.290001	0.189643
H331	H	-0.069432	-0.172008	0.130608
H332	H	0.026061	-0.177283	0.088593
H333	H	0.119980	-0.300554	0.105613
H334	H	0.118401	-0.418547	0.164648
C335	C	-0.038374	-0.053604	-0.570979
C336	C	-0.093253	0.025409	-0.622814
C337	C	-0.094196	0.060234	-0.691535
C338	C	-0.040259	0.016046	-0.708421
C339	C	0.014625	-0.062972	-0.656584
C340	C	0.015567	-0.097797	-0.587864
H341	H	-0.133185	0.058124	-0.610316
H342	H	-0.134825	0.118728	-0.729907
H343	H	-0.040956	0.041826	-0.759292
H344	H	0.054556	-0.095686	-0.669083
H345	H	0.056196	-0.156291	-0.549492
C346	C	-0.596520	0.567519	-0.599522
C347	C	-0.649467	0.591080	-0.572092
C348	C	-0.716957	0.623472	-0.607114
C349	C	-0.731499	0.632304	-0.669566
C350	C	-0.678550	0.608743	-0.697000
C351	C	-0.611061	0.576351	-0.661978
H352	H	-0.638704	0.584542	-0.525859
H353	H	-0.756153	0.640913	-0.586805
H354	H	-0.781458	0.656282	-0.695491
H355	H	-0.689314	0.615280	-0.743233
H356	H	-0.571865	0.558909	-0.682286
H357	H	-0.038084	-0.062687	-0.384132
H358	H	-0.190320	-0.335979	-0.023316
H359	H	-0.022725	-0.168036	-0.644015
C360	C	-0.181506	-0.157966	-0.023552
C361	C	-0.120431	-0.202154	0.030385
C362	C	-0.086535	-0.167330	0.029440
C363	C	-0.113713	-0.088318	-0.025443
C364	C	-0.174791	-0.044125	-0.079385
C365	C	-0.208687	-0.078949	-0.078439
H366	H	-0.100310	-0.260648	0.071017
H367	H	-0.041321	-0.200045	0.069371
H368	H	-0.088621	-0.062539	-0.026143
H369	H	-0.194913	0.014369	-0.120016
H370	H	-0.253901	-0.046234	-0.118370
H371	H	-0.525795	0.621334	-0.643978
H372	H	0.023361	-0.549675	0.190371
C373	C	-0.624591	-0.467424	0.038455
C374	C	-0.648714	-0.470482	0.093342
C375	C	-0.682590	-0.402712	0.094293
C376	C	-0.692342	-0.331883	0.040358
C377	C	-0.668218	-0.328822	-0.014533
C378	C	-0.634342	-0.396592	-0.015485
H379	H	-0.641495	-0.522916	0.133271
H380	H	-0.700448	-0.404978	0.134927
H381	H	-0.717419	-0.281715	0.041062
H382	H	-0.675437	-0.276388	-0.054463
H383	H	-0.616484	-0.394326	-0.056119
C384	C	-0.022026	-0.355709	-0.465847
C385	C	0.035534	-0.426324	-0.453373
C386	C	0.038165	-0.496445	-0.418354
C387	C	-0.016764	-0.495951	-0.395809
C388	C	-0.074329	-0.425334	-0.408283
C389	C	-0.076960	-0.355213	-0.443302
H390	H	0.076200	-0.426691	-0.470062
H391	H	0.080778	-0.548720	-0.409120
H392	H	-0.014817	-0.547859	-0.369886
H393	H	-0.114995	-0.424967	-0.391594
H394	H	-0.119573	-0.302938	-0.452536
H395	H	-0.356381	-0.547775	0.022754
H396	H	-0.446821	-0.653998	0.038201
C397	C	-0.821570	-0.556211	0.022100
C398	C	-0.850960	-0.579770	0.073088
C399	C	-0.886061	-0.612158	0.070454
C400	C	-0.891771	-0.620986	0.016832
C401	C	-0.862379	-0.597425	-0.034161
C402	C	-0.827279	-0.565038	-0.031527
H403	H	-0.846734	-0.573236	0.112786
H404	H	-0.907818	-0.629599	0.108202
H405	H	-0.917754	-0.644961	0.014882
H406	H	-0.866605	-0.603960	-0.073859
H407	H	-0.805522	-0.547597	-0.069275
H408	H	-0.615794	-0.062654	-0.553151
H409	H	-0.022734	-0.168068	-0.187865
H410	H	-0.031396	-0.106204	-0.303280
H411	H	-0.031386	0.011466	-0.420946
C412	C	-0.022033	0.126597	-0.464986
C413	C	0.031586	0.078527	-0.402491
C414	C	0.034209	0.110782	-0.367255
C415	C	-0.016786	0.191105	-0.394513
C416	C	-0.070409	0.239179	-0.457012
C417	C	-0.073033	0.206925	-0.492248
H418	H	0.069339	0.019063	-0.382309
H419	H	0.073905	0.075194	-0.320989
H420	H	-0.014844	0.214982	-0.368429
H421	H	-0.108162	0.298644	-0.477194
H422	H	-0.112728	0.242513	-0.538514
C423	C	-0.534952	-0.360523	0.022107
C424	C	-0.557546	-0.361133	0.077050
C425	C	-0.592783	-0.291020	0.074429
C426	C	-0.605427	-0.220296	0.016865
C427	C	-0.582833	-0.219683	-0.038081
C428	C	-0.547596	-0.289796	-0.035461
H429	H	-0.548186	-0.413490	0.119665
H430	H	-0.609508	-0.291474	0.115104
H431	H	-0.631511	-0.168394	0.014925
H432	H	-0.592193	-0.167327	-0.080697
H433	H	-0.530871	-0.289342	-0.076136
H434	H	-0.812080	0.118217	-0.644031
H435	H	-0.697029	0.559063	-0.590371
C436	C	-0.022006	0.127014	-0.661099
C437	C	-0.072990	0.207395	-0.714049
C438	C	-0.070351	0.239863	-0.781536
C439	C	-0.016727	0.191949	-0.796073
C440	C	0.034260	0.111563	-0.743121
C441	C	0.031621	0.079096	-0.675634
H442	H	-0.112688	0.242868	-0.703290
H443	H	-0.108095	0.299370	-0.820735
H444	H	-0.014774	0.215983	-0.846031
H445	H	0.073959	0.076090	-0.753881
H446	H	0.069366	0.019589	-0.636435
H447	H	-0.812465	0.118579	-0.474963
H448	H	-0.031353	0.011819	-0.590373
H449	H	-0.031381	-0.106192	-0.590450
C450	C	-0.022024	-0.355731	-0.178378
C451	C	0.035531	-0.426347	-0.120232
C452	C	0.038160	-0.496467	-0.085134
C453	C	-0.016768	-0.495970	-0.108181
C454	C	-0.074328	-0.425351	-0.166330
C455	C	-0.076956	-0.355231	-0.201428
H456	H	0.076196	-0.426718	-0.103169
H457	H	0.080770	-0.548744	-0.042089
H458	H	-0.014822	-0.547876	-0.082199
H459	H	-0.114992	-0.424980	-0.183393
H460	H	-0.119566	-0.302954	-0.244473
C461	C	-0.624593	0.336996	-0.375341
C462	C	-0.597416	0.257989	-0.351225
C463	C	-0.631297	0.223148	-0.317330
C464	C	-0.692355	0.267315	-0.307550
C465	C	-0.719536	0.346327	-0.331665
C466	C	-0.685655	0.381167	-0.365561
H467	H	-0.552214	0.225289	-0.358465
H468	H	-0.611175	0.164658	-0.299478
H469	H	-0.717436	0.241524	-0.282458
H470	H	-0.764738	0.379026	-0.324426
H471	H	-0.705777	0.439657	-0.383413
C472	C	-0.687956	-0.628240	0.032135
C473	C	-0.711150	-0.627649	-0.022798
C474	C	-0.676256	-0.697767	-0.020169
C475	C	-0.618168	-0.768476	0.037392
C476	C	-0.594971	-0.769070	0.092328
C477	C	-0.629865	-0.698952	0.089700
H478	H	-0.754153	-0.575303	-0.065412
H479	H	-0.693429	-0.697327	-0.060837
H480	H	-0.592337	-0.820382	0.039337
H481	H	-0.551968	-0.821416	0.134942
H482	H	-0.612692	-0.699392	0.130368
C483	C	-0.534115	-0.160460	-0.661123
C484	C	-0.596566	-0.151633	-0.675659
C485	C	-0.631588	-0.119247	-0.743146
C486	C	-0.604160	-0.095689	-0.796097
C487	C	-0.541706	-0.104515	-0.781562
C488	C	-0.506684	-0.136901	-0.714075
H489	H	-0.616873	-0.169073	-0.636460
H490	H	-0.677821	-0.112714	-0.753905
H491	H	-0.630085	-0.071715	-0.846055
H492	H	-0.521399	-0.087075	-0.820761
H493	H	-0.460451	-0.143434	-0.703316
H494	H	-0.525799	0.165148	-0.187874
H495	H	-0.615794	0.515041	-0.553117
H496	H	-0.409504	-0.275698	-0.303301
C497	C	-0.821145	0.443002	-0.465007
C498	C	-0.850471	0.419274	-0.492278
C499	C	-0.885352	0.386658	-0.457050
C500	C	-0.890907	0.377770	-0.394552
C501	C	-0.861579	0.401498	-0.367278
C502	C	-0.826699	0.434114	-0.402506
H503	H	-0.846360	0.425853	-0.538546
H504	H	-0.907062	0.369092	-0.477241
H505	H	-0.916727	0.353625	-0.368474
H506	H	-0.865690	0.394919	-0.321010
H507	H	-0.804989	0.451680	-0.382315
H508	H	-0.578992	-0.440963	0.031461
C509	C	-0.534950	-0.843264	0.022125
C510	C	-0.557560	-0.874987	0.077058
C511	C	-0.592794	-0.907246	0.074439
C512	C	-0.605417	-0.907783	0.016885
C513	C	-0.582807	-0.876059	-0.038053
C514	C	-0.547573	-0.843800	-0.035433
H515	H	-0.548216	-0.874590	0.119667
H516	H	-0.609531	-0.930730	0.115108
H517	H	-0.631499	-0.931663	0.014946
H518	H	-0.592151	-0.876455	-0.080661
H519	H	-0.530835	-0.820316	-0.076102
H520	H	-0.696663	-0.440962	0.031460
H521	H	-0.525022	-0.168881	-0.187507
C522	C	-0.821573	0.639156	-0.661099
C523	C	-0.879710	0.709765	-0.674142
C524	C	-0.914811	0.779898	-0.741627
C525	C	-0.891774	0.779421	-0.796068
C526	C	-0.833634	0.708809	-0.783027
C527	C	-0.798533	0.638676	-0.715542
H528	H	-0.896765	0.710121	-0.633840
H529	H	-0.957850	0.832169	-0.751281
H530	H	-0.917758	0.831337	-0.846024
H531	H	-0.816578	0.708453	-0.823329
H532	H	-0.755494	0.586405	-0.705888
H533	H	-0.031366	-0.275654	-0.302914
C534	C	-0.338420	-0.356142	-0.178824
C535	C	-0.284082	-0.355546	-0.202026
C536	C	-0.216596	-0.425670	-0.167152
C537	C	-0.203446	-0.496390	-0.109077
C538	C	-0.257785	-0.496988	-0.085872
C539	C	-0.325272	-0.426864	-0.120746
H540	H	-0.293815	-0.303193	-0.245020
H541	H	-0.176371	-0.425227	-0.184330
H542	H	-0.153489	-0.548300	-0.083261
H543	H	-0.248052	-0.549341	-0.042878
H544	H	-0.365497	-0.427308	-0.103567
H545	H	-0.578993	-0.728129	0.031465
H546	H	-0.031379	-0.275635	-0.421380
H547	H	-0.578991	0.271911	-0.303287
H548	H	-0.409573	-0.610008	0.031424
H549	H	-0.409504	-0.275702	-0.420969
H550	H	-0.355944	-0.337920	-0.474163
H551	H	-0.578576	-0.106639	-0.590401
H552	H	-0.696669	0.011463	-0.590469
H553	H	-0.697037	0.011820	-0.421397
H554	H	-0.696664	0.389604	-0.420956
H555	H	-0.578585	-0.106649	-0.302931
H556	H	-0.409562	0.390028	-0.421351
