data_functionalizedCrystal
_audit_creation_method	'MofGen! by Chris Wilmer'
_symmetry_space_group_name_H-M	'P1'
_symmetry_Int_Tables_number	1
_symmetry_cell_setting	triclinic
loop_
_symmetry_equiv_pos_as_xyz
  x,y,z
_cell_length_a	12.594517
_cell_length_b	19.805405
_cell_length_c	19.805399
_cell_angle_alpha	90.029462
_cell_angle_beta	89.982860
_cell_angle_gamma	89.967394
loop_
_atom_site_label
_atom_site_type_symbol
_atom_site_fract_x
_atom_site_fract_y
_atom_site_fract_z
Zn1	Zn	1.627087	0.269480	-0.382722
Zn2	Zn	1.626940	0.382671	-0.269533
Zn3	Zn	1.449107	0.269500	-0.269546
Zn4	Zn	1.449020	0.382631	-0.382679
O5	O	1.538039	0.326070	-0.326120
O6	O	1.776013	0.284503	-0.367720
O7	O	1.603325	0.367684	-0.174818
O8	O	1.472814	0.174781	-0.284583
O9	O	1.775906	0.367664	-0.284560
O10	O	1.603575	0.174766	-0.367732
O11	O	1.472672	0.284538	-0.174828
O12	O	1.300149	0.284499	-0.284541
O13	O	1.472666	0.367596	-0.477401
O14	O	1.300086	0.367616	-0.367659
O15	O	1.603491	0.284464	-0.477433
O16	O	1.603241	0.477382	-0.284518
O17	O	1.472524	0.477353	-0.367646
C18	C	1.261498	0.326056	-0.326097
C19	C	1.143192	0.326066	-0.326104
C20	C	1.003179	0.280809	-0.280999
C21	C	1.074037	0.264322	-0.342764
C22	C	1.073906	0.342522	-0.264345
C23	C	1.003264	0.309573	-0.387951
C24	C	1.003127	0.387803	-0.309490
C25	C	1.073953	0.371339	-0.371298
C26	C	1.537886	0.501926	-0.326091
C27	C	1.537918	0.577158	-0.326101
C28	C	1.815659	0.326086	-0.326143
C29	C	1.933965	0.326092	-0.326153
C30	C	1.605959	0.612437	-0.369430
C31	C	1.605985	0.683125	-0.369441
C32	C	1.537975	0.718534	-0.326119
C33	C	1.469926	0.683251	-0.282788
C34	C	1.469896	0.612564	-0.282781
C35	C	1.470047	0.968324	-0.282815
C36	C	1.470085	1.039016	-0.282824
C37	C	1.606136	1.038885	-0.369476
C38	C	1.606106	0.968198	-0.369469
C39	C	1.538054	0.932921	-0.326141
C40	C	1.538025	0.856273	-0.326130
C41	C	1.538008	0.795181	-0.326125
C42	C	1.538085	0.326023	-0.502663
C43	C	1.538105	0.326003	-0.577895
C44	C	1.538176	1.149528	-0.326157
C45	C	1.538121	1.074296	-0.326157
C46	C	1.470093	0.282705	-0.613244
C47	C	1.470108	0.282692	-0.683932
C48	C	1.538141	0.325974	-0.719270
C49	C	1.606156	0.369277	-0.683917
C50	C	1.606135	0.369293	-0.613230
C51	C	1.606240	0.369214	-0.968990
C52	C	1.606258	0.369193	-1.039682
C53	C	1.470213	0.282613	-1.039693
C54	C	1.470192	0.282629	-0.969005
C55	C	1.538203	0.325934	-0.933658
C56	C	1.538185	0.325949	-0.857009
C57	C	1.538165	0.325957	-0.795918
C58	C	1.538053	0.326068	-0.150264
C59	C	1.538240	0.325898	-0.075032
H60	H	0.972362	0.295605	-0.440216
O61	O	1.403856	1.073383	-0.240814
C62	C	1.222845	1.095105	-0.207840
C63	C	1.297721	1.056156	-0.255465
H64	H	1.137021	1.081182	-0.219658
H65	H	1.234468	1.151695	-0.215289
H66	H	1.241629	1.081239	-0.153275
H67	H	1.278984	1.069966	-0.310048
H68	H	1.286084	0.999576	-0.247957
O69	O	0.965889	0.450077	-0.292799
C70	C	0.862162	0.546301	-0.327376
C71	C	0.904283	0.475787	-0.346381
H72	H	0.812327	0.567103	-0.370680
H73	H	0.931845	0.581618	-0.317331
H74	H	0.811070	0.542363	-0.280019
H75	H	0.955359	0.479660	-0.393748
H76	H	0.834552	0.440498	-0.356382
O77	O	1.672384	1.073122	-0.411505
C78	C	1.853406	1.094594	-0.444510
C79	C	1.778506	1.055796	-0.396861
H80	H	1.939220	1.080590	-0.432697
H81	H	1.841841	1.151207	-0.437081
H82	H	1.834592	1.080672	-0.499067
H83	H	1.797273	1.069662	-0.342285
H84	H	1.790084	0.999193	-0.404349
O85	O	1.403903	0.240639	-0.579023
C86	C	1.268998	0.154736	-0.586503
C87	C	1.343892	0.202350	-0.625338
H88	H	1.220476	0.123757	-0.623931
H89	H	1.213231	0.185785	-0.553415
H90	H	1.317904	0.119382	-0.553403
H91	H	1.295072	0.237714	-0.658474
H92	H	1.399662	0.171260	-0.658383
O93	O	1.403911	0.717570	-0.240610
C94	C	1.352411	0.739323	-0.125446
C95	C	1.427222	0.700406	-0.173139
H96	H	1.371246	0.725472	-0.070884
H97	H	1.266551	0.725451	-0.137224
H98	H	1.364102	0.795902	-0.132925
H99	H	1.415625	0.643818	-0.165686
H100	H	1.513055	0.714334	-0.161348
O101	O	1.404050	0.240680	-0.934605
C102	C	1.260288	0.231594	-0.854821
C103	C	1.335149	0.279174	-0.893724
H104	H	1.204547	0.262698	-0.821770
H105	H	1.309120	0.196222	-0.821694
H106	H	1.211726	0.200630	-0.892242
H107	H	1.383726	0.310182	-0.856351
H108	H	1.286256	0.314501	-0.926861
O109	O	1.672278	0.411385	-0.718138
C110	C	1.807269	0.497235	-0.710661
C111	C	1.732417	0.449594	-0.671824
H112	H	1.855926	0.528129	-0.673234
H113	H	1.758429	0.532661	-0.743725
H114	H	1.862920	0.466142	-0.743784
H115	H	1.676750	0.480632	-0.638664
H116	H	1.781322	0.414166	-0.638803
O117	O	0.966043	0.235199	-0.235451
C118	C	0.862291	0.216981	-0.134859
C119	C	0.904301	0.268708	-0.186378
H120	H	0.812346	0.244051	-0.095178
H121	H	0.932030	0.190661	-0.109289
H122	H	0.811334	0.177924	-0.162004
H123	H	0.955242	0.307807	-0.159284
H124	H	0.834514	0.294977	-0.211946
H125	H	1.414832	0.247353	-1.068481
H126	H	1.661490	0.939370	-0.404743
H127	H	1.104940	0.356430	-0.212096
H128	H	1.661661	0.404441	-1.068453
O129	O	1.672057	0.578148	-0.411580
C130	C	1.807043	0.585487	-0.497509
C131	C	1.732227	0.624400	-0.449816
H132	H	1.855726	0.622865	-0.528426
H133	H	1.758173	0.552418	-0.532913
H134	H	1.862672	0.552363	-0.466457
H135	H	1.676583	0.657561	-0.480814
H136	H	1.781163	0.657427	-0.414411
H137	H	1.104831	0.409623	-0.409506
H138	H	1.105164	0.212121	-0.356849
O139	O	1.671938	0.717419	-0.411601
C140	C	1.686236	0.797182	-0.502981
C141	C	1.611417	0.758379	-0.455285
H142	H	1.637336	0.830319	-0.538302
H143	H	1.734822	0.759757	-0.533985
H144	H	1.741957	0.830235	-0.471927
H145	H	1.555632	0.725325	-0.486287
H146	H	1.562906	0.795841	-0.424279
O147	O	1.672208	0.411254	-0.934555
C148	C	1.732525	0.449631	-0.825656
C149	C	1.657740	0.401996	-0.864572
H150	H	1.720870	0.442153	-0.769068
H151	H	1.713779	0.504218	-0.839491
H152	H	1.818354	0.437753	-0.839605
H153	H	1.571886	0.413814	-0.850644
H154	H	1.676577	0.347423	-0.850734
O155	O	1.403836	0.934035	-0.240819
C156	C	1.260135	0.854291	-0.231606
C157	C	1.335039	0.893095	-0.279248
H158	H	1.204509	0.821171	-0.262656
H159	H	1.211464	0.891716	-0.200656
H160	H	1.309042	0.821222	-0.196225
H161	H	1.286214	0.926165	-0.314670
H162	H	1.383714	0.855634	-0.310150
O163	O	1.672256	0.411259	-0.578816
C164	C	1.815968	0.420398	-0.499047
C165	C	1.741139	0.372791	-0.537964
H166	H	1.871694	0.389315	-0.466020
H167	H	1.767110	0.455783	-0.465896
H168	H	1.864547	0.451344	-0.536460
H169	H	1.692544	0.341801	-0.500600
H170	H	1.790058	0.337450	-0.571125
O171	O	1.403653	0.578366	-0.240725
C172	C	1.222618	0.556823	-0.207795
C173	C	1.297525	0.595605	-0.255452
H174	H	1.136797	0.570736	-0.219695
H175	H	1.241277	0.570754	-0.153218
H176	H	1.234331	0.500223	-0.215224
H177	H	1.285854	0.652214	-0.248084
H178	H	1.278848	0.581618	-0.310012
H179	H	1.414722	0.247437	-0.712710
