data_functionalizedCrystal
_audit_creation_method	'MofGen! by Chris Wilmer'
_symmetry_space_group_name_H-M	'P1'
_symmetry_Int_Tables_number	1
_symmetry_cell_setting	triclinic
loop_
_symmetry_equiv_pos_as_xyz
  x,y,z
_cell_length_a	13.635800
_cell_length_b	23.538080
_cell_length_c	10.943624
_cell_angle_alpha	79.494290
_cell_angle_beta	108.838799
_cell_angle_gamma	96.493122
loop_
_atom_site_label
_atom_site_type_symbol
_atom_site_fract_x
_atom_site_fract_y
_atom_site_fract_z
V1	V	1.996211	-0.079146	0.403280
O2	O	2.039571	0.003819	0.394853
O3	O	1.924694	-0.156948	0.401244
O4	O	1.986144	-0.077922	0.578836
O5	O	1.977696	-0.075755	0.216032
V6	V	2.242325	-0.069223	0.380796
O7	O	2.117293	-0.100912	0.452601
O8	O	2.346341	-0.047457	0.331476
O9	O	2.202238	0.008579	0.382833
O10	O	2.257663	-0.152188	0.389224
O11	O	2.319538	-0.072615	0.568045
O12	O	2.140788	-0.070447	0.205241
V13	V	2.496211	-0.079146	0.403280
O14	O	2.539571	0.003819	0.394853
O15	O	2.424694	-0.156948	0.401244
O16	O	2.486144	-0.077922	0.578836
O17	O	2.477696	-0.075755	0.216032
V18	V	2.742325	-0.069223	0.380796
O19	O	2.617293	-0.100912	0.452601
O20	O	2.846341	-0.047457	0.331476
O21	O	2.702238	0.008579	0.382833
O22	O	2.757663	-0.152188	0.389224
O23	O	2.819538	-0.072615	0.568045
O24	O	2.640788	-0.070447	0.205241
C25	C	2.335226	-0.175915	0.395069
C26	C	2.317491	-0.239519	0.394574
C27	C	2.216559	-0.506268	0.274169
C28	C	2.233233	-0.446505	0.274622
O29	O	2.221241	-0.408648	0.174240
N30	N	2.265781	-0.424784	0.393162
C31	C	2.281646	-0.462830	0.511255
O32	O	2.310860	-0.438867	0.612123
C33	C	2.264964	-0.522592	0.510799
C34	C	2.232426	-0.544309	0.392253
C35	C	2.184022	-0.527987	0.155632
C36	C	2.167351	-0.587746	0.155179
C37	C	2.183217	-0.625787	0.273263
C38	C	2.215755	-0.604068	0.391800
C39	C	2.280822	-0.560636	0.628890
C40	C	2.264137	-0.620401	0.628424
C41	C	2.231598	-0.642119	0.509878
C42	C	2.214951	-0.701869	0.509431
N43	N	2.182403	-0.723589	0.390892
C44	C	2.166536	-0.685549	0.272808
C45	C	2.316673	-0.337325	0.512202
C46	C	2.333361	-0.277565	0.512659
C47	C	2.284946	-0.261244	0.276026
C48	C	2.268265	-0.321006	0.275571
C49	C	2.284125	-0.359046	0.393662
C50	C	2.131529	-0.811048	0.271866
C51	C	2.114863	-0.870813	0.271424
C52	C	2.163274	-0.887128	0.508055
C53	C	2.179944	-0.827369	0.508499
C54	C	2.164066	-0.789329	0.390393
O55	O	2.226918	-0.739760	0.609761
O56	O	2.137310	-0.709520	0.171955
C57	C	1.835226	-0.175915	0.395069
C58	C	1.817491	-0.239519	0.394574
C59	C	1.913612	-0.075108	0.621602
C60	C	1.945709	-0.074622	0.765124
C61	C	2.123375	0.027542	0.389005
C62	C	2.130730	0.091146	0.389508
C63	C	2.044990	-0.073263	0.162468
C64	C	2.002513	-0.073746	0.018944
C65	C	2.413612	-0.075108	0.621602
C66	C	2.445709	-0.074622	0.765124
C67	C	1.870670	-0.071348	0.842242
C68	C	1.927570	-0.119938	0.948680
C69	C	1.946011	-0.025172	0.914419
C70	C	2.002180	-0.123257	0.869686
C71	C	2.020614	-0.028448	0.835402
C72	C	2.077572	-0.077051	0.941810
C73	C	2.623375	0.027542	0.389005
C74	C	2.630730	0.091146	0.389508
C75	C	2.544990	-0.073263	0.162468
C76	C	2.502513	-0.073746	0.018944
C77	C	1.898955	-0.272305	0.400819
C78	C	1.882309	-0.332069	0.400374
C79	C	1.784195	-0.359046	0.393675
C80	C	1.702725	-0.326255	0.387433
C81	C	1.719374	-0.266493	0.387887
C82	C	2.721759	0.123932	0.383266
C83	C	2.728677	0.183696	0.383717
C84	C	2.644569	0.210672	0.390420
C85	C	2.553531	0.177882	0.396658
C86	C	2.546611	0.118120	0.396197
C87	C	2.370670	-0.071348	0.842242
C88	C	2.427570	-0.119938	0.948680
C89	C	2.446011	-0.025172	0.914419
C90	C	2.502180	-0.123257	0.869686
C91	C	2.520614	-0.028448	0.835402
C92	C	2.577572	-0.077051	0.941810
H93	H	2.088369	-0.888492	0.174885
H94	H	1.622841	-0.348229	0.381978
H95	H	2.059577	0.010232	0.786062
C96	C	2.374380	0.199048	0.296273
C97	C	2.461088	0.207542	0.404034
H98	H	2.317315	0.217363	0.300832
H99	H	2.357220	0.158769	0.296898
H100	H	2.389797	0.215261	0.218007
H101	H	2.445673	0.191325	0.482301
H102	H	2.478249	0.247829	0.403421
H103	H	2.140854	-0.605422	0.058647
C104	C	2.405202	0.055244	0.291634
C105	C	2.446546	0.082085	0.403073
H106	H	2.343419	0.033004	0.295878
H107	H	2.454291	0.030622	0.287586
H108	H	2.389840	0.083906	0.215863
H109	H	2.461915	0.053423	0.478844
H110	H	2.397447	0.106709	0.407135
H111	H	1.948656	-0.358759	0.405454
C112	C	2.142103	-0.766881	0.640188
C113	C	2.215717	-0.803493	0.638805
H114	H	2.164184	-0.752143	0.720633
H115	H	2.077169	-0.787993	0.630954
H116	H	2.135046	-0.735672	0.569924
H117	H	2.222768	-0.834705	0.709063
H118	H	2.280669	-0.782381	0.648053
H119	H	2.307307	-0.542964	0.725423
C120	C	2.134505	-0.517874	-0.078303
C121	C	2.166585	-0.486178	0.025819
H122	H	2.123751	-0.492065	-0.158447
H123	H	2.071571	-0.539649	-0.077695
H124	H	2.186450	-0.543398	-0.069389
H125	H	2.114636	-0.460657	0.016910
H126	H	2.229528	-0.464393	0.025210
H127	H	1.653030	-0.239802	0.382794
H128	H	1.978850	-0.250348	0.406267
C129	C	2.238505	-0.083266	0.901027
C130	C	2.196062	-0.080321	1.000231
H131	H	2.311654	-0.085290	0.937101
H132	H	2.222917	-0.049746	0.836687
H133	H	2.209739	-0.116765	0.862031
H134	H	2.224822	-0.046819	1.039221
H135	H	2.211659	-0.113844	1.064594
H136	H	2.790255	0.101976	0.377809
H137	H	2.802813	0.210385	0.378639
H138	H	2.650217	0.259335	0.390793
H139	H	1.770652	-0.407709	0.393306
C140	C	2.266997	-0.169091	0.964724
C141	C	2.374924	-0.172150	1.015257
H142	H	2.234494	-0.201321	1.005829
H143	H	2.245576	-0.169588	0.873254
H144	H	2.247727	-0.134291	0.980841
H145	H	2.394195	-0.206948	0.999131
H146	H	2.396353	-0.171658	1.106748
H147	H	2.282893	-0.069002	0.798772
H148	H	2.525605	-0.164756	0.849524
C149	C	2.725544	-0.131686	0.978181
C150	C	2.696062	-0.080320	1.000235
H151	H	2.798693	-0.133706	1.014262
H152	H	2.705587	-0.132331	0.886853
H153	H	2.692358	-0.163856	1.018493
H154	H	2.729242	-0.048149	0.959915
H155	H	2.716030	-0.079669	1.091581
H156	H	2.559577	0.010232	0.786062
H157	H	2.241769	-0.338684	0.179040
H158	H	2.422559	0.016272	0.934800
C159	C	2.410687	-0.416755	0.655084
C160	C	2.334128	-0.379139	0.642020
H161	H	2.421456	-0.442568	0.735224
H162	H	2.473611	-0.394969	0.654473
H163	H	2.388903	-0.438244	0.584422
H164	H	2.355915	-0.357646	0.712677
H165	H	2.271190	-0.400928	0.642642
C166	C	2.082021	-0.800936	0.037920
C167	C	2.114092	-0.769241	0.142045
H168	H	2.071271	-0.775126	-0.042222
H169	H	2.019086	-0.822712	0.038520
H170	H	2.133969	-0.826458	0.046837
H171	H	2.062141	-0.743722	0.133133
H172	H	2.177036	-0.747455	0.141443
H173	H	2.272026	-0.230260	0.179875
C174	C	1.729191	-0.018270	0.690198
C175	C	1.752177	-0.068179	0.783539
H176	H	1.656040	-0.016315	0.653964
H177	H	1.758286	-0.019570	0.622808
H178	H	1.757646	0.014924	0.730528
H179	H	1.723730	-0.101373	0.743207
H180	H	1.723070	-0.066884	0.850941
H181	H	2.025605	-0.164756	0.849524
H182	H	2.359873	-0.259889	0.609193
H183	H	2.176195	-0.918112	0.604197
C184	C	2.313669	-0.630526	0.862374
C185	C	2.281583	-0.662214	0.758239
H186	H	2.324448	-0.656340	0.942514
H187	H	2.261728	-0.605013	0.853489
H188	H	2.376603	-0.608741	0.861753
H189	H	2.218644	-0.683996	0.758855
H190	H	2.333528	-0.687738	0.767127
H191	H	1.888566	-0.158616	0.997985
H192	H	1.922559	0.016272	0.934800
