data_functionalizedCrystal
_audit_creation_method	'MofGen! by Chris Wilmer'
_symmetry_space_group_name_H-M	'P1'
_symmetry_Int_Tables_number	1
_symmetry_cell_setting	triclinic
loop_
_symmetry_equiv_pos_as_xyz
  x,y,z
_cell_length_a	10.489716
_cell_length_b	17.038272
_cell_length_c	8.965430
_cell_angle_alpha	90.000179
_cell_angle_beta	89.996523
_cell_angle_gamma	87.820346
loop_
_atom_site_label
_atom_site_type_symbol
_atom_site_fract_x
_atom_site_fract_y
_atom_site_fract_z
O1	O	1.704386	0.110277	-0.124029
O2	O	2.204386	0.610277	0.375971
O3	O	1.334158	0.120658	-0.124035
O4	O	1.834158	0.620658	0.375965
O5	O	1.517072	0.001640	-0.124020
O6	O	2.017072	0.501640	0.375980
O7	O	1.521472	0.229296	-0.124044
O8	O	2.021472	0.729296	0.375956
O9	O	1.517056	0.001648	0.124059
O10	O	2.017056	0.501648	0.624059
O11	O	1.334142	0.120666	0.124044
O12	O	1.834142	0.620666	0.624044
O13	O	1.704371	0.110285	0.124050
O14	O	2.204371	0.610285	0.624050
Cu15	Cu	1.519255	0.115476	0.146698
Cu16	Cu	2.019255	0.615476	0.646698
Cu17	Cu	1.519273	0.115467	-0.146684
Cu18	Cu	2.019273	0.615467	0.353316
O19	O	1.521457	0.229304	0.124035
O20	O	2.021457	0.729304	0.624035
C21	C	1.286545	0.119882	0.000004
C22	C	1.786545	0.619882	0.500004
C23	C	1.144695	0.117548	0.000002
C24	C	1.644695	0.617548	0.500002
C25	C	1.053848	0.190534	-0.000009
C26	C	1.553848	0.690534	0.499991
C27	C	0.972887	0.151971	0.122317
C28	C	1.472887	0.651971	0.622317
C29	C	0.972908	0.151946	-0.122269
C30	C	1.472908	0.651946	0.377731
C31	C	1.065603	0.079016	0.122429
C32	C	1.565603	0.579016	0.622429
C33	C	1.065629	0.079001	-0.122267
C34	C	1.565629	0.579001	0.377733
C35	C	0.984712	0.040385	0.000090
C36	C	1.484712	0.540385	0.500090
C37	C	1.513061	-0.027508	0.000019
C38	C	2.013061	0.472492	0.500019
C39	C	1.501119	-0.114369	0.000018
C40	C	2.001119	0.385631	0.500018
C41	C	1.610758	-0.163854	0.000022
C42	C	2.110758	0.336146	0.500022
C43	C	1.599530	-0.245469	0.000007
C44	C	2.099530	0.254531	0.500007
C45	C	1.478662	-0.277597	0.000000
C46	C	1.978662	0.222403	0.500000
C47	C	1.369015	-0.228106	-0.000007
C48	C	1.869015	0.271894	0.499993
C49	C	1.380244	-0.146492	-0.000004
C50	C	1.880244	0.353508	0.499996
C51	C	1.438991	-0.523583	-0.000021
C52	C	1.938991	-0.023583	0.499979
C53	C	1.427770	-0.605203	-0.000020
C54	C	1.927770	-0.105203	0.499980
C55	C	1.658286	-0.622560	-0.000008
C56	C	2.158286	-0.122560	0.499992
C57	C	1.669505	-0.540945	0.000005
C58	C	2.169505	-0.040945	0.500005
C59	C	1.559858	-0.491460	-0.000011
C60	C	2.059858	0.008540	0.499989
C61	C	1.467182	-0.361021	-0.000010
C62	C	1.967182	0.138979	0.499990
C63	C	1.571339	-0.408038	-0.000012
C64	C	2.071339	0.091962	0.499988
C65	C	1.751984	0.111061	0.000008
C66	C	2.251984	0.611061	0.500008
C67	C	1.893833	0.113395	-0.000000
C68	C	2.393833	0.613395	0.500000
C69	C	1.525467	0.258451	-0.000007
C70	C	2.025467	0.758451	0.499993
C71	C	1.537409	0.345312	-0.000017
C72	C	2.037409	0.845312	0.499983
N73	N	1.519251	0.115482	0.353047
N74	N	2.019251	0.615482	0.853047
N75	N	1.519287	0.115455	-0.353033
N76	N	2.019287	0.615455	0.146967
C77	C	1.434630	0.170506	0.450347
C78	C	1.934630	0.670506	0.950347
C79	C	1.551608	0.186330	0.549760
C80	C	2.051608	0.686330	1.049760
C81	C	1.402323	0.099666	0.549761
C82	C	1.902323	0.599666	1.049761
C83	C	1.636291	0.131341	0.450272
C84	C	2.136291	0.631341	0.950272
C85	C	1.486927	0.044647	0.450264
C86	C	1.986927	0.544647	0.950264
C87	C	1.603985	0.060440	0.549633
C88	C	2.103985	0.560440	1.049633
H89	H	1.084456	0.254021	0.000099
H90	H	1.584456	0.754021	0.500099
H91	H	1.675645	0.013894	0.592954
H92	H	2.175645	0.513894	1.092954
Br93	Br	1.441263	-0.055149	0.377360
Br94	Br	1.941263	0.444851	0.877360
H95	H	1.303424	0.086300	0.593466
H96	H	1.803424	0.586300	1.093466
H97	H	1.106252	0.048211	-0.225682
H98	H	1.606252	0.548211	0.274318
Br99	Br	0.905205	0.203326	0.294675
Br100	Br	1.405205	0.703326	0.794675
H101	H	0.932314	0.182768	-0.225671
H102	H	1.432314	0.682768	0.274329
H103	H	1.735219	0.144779	0.406755
H104	H	2.235219	0.644779	0.906755
H105	H	1.106032	0.048227	0.225949
H106	H	1.606032	0.548227	0.725949
Br107	Br	1.748333	-0.312626	0.000011
Br108	Br	2.248333	0.187374	0.500011
Br109	Br	0.934075	-0.065505	0.000214
Br110	Br	1.434075	0.434495	0.500214
Br111	Br	1.263724	-0.648804	-0.000014
Br112	Br	1.763724	-0.148804	0.499986
Br113	Br	1.774801	-0.120260	0.000053
Br114	Br	2.274801	0.379740	0.500053
H115	H	1.767928	-0.514792	0.000010
H116	H	2.267928	-0.014792	0.500010
H117	H	1.747554	-0.662859	0.000002
H118	H	2.247554	-0.162859	0.500002
Br119	Br	1.290183	-0.456436	-0.000051
Br120	Br	1.790183	0.043564	0.499949
H121	H	1.270602	-0.254271	-0.000022
H122	H	1.770602	0.245729	0.499978
Br123	Br	1.231443	-0.079332	-0.000020
Br124	Br	1.731443	0.420668	0.499980
H125	H	1.669749	-0.381876	-0.000039
H126	H	2.169749	0.118124	0.499961
H127	H	1.368771	-0.387189	-0.000012
H128	H	1.868771	0.112811	0.499988
H129	H	1.363143	0.217081	0.406752
H130	H	1.863143	0.717081	0.906752
H131	H	1.578972	0.246222	0.593463
H132	H	2.078972	0.746222	1.093463
