data_functionalizedCrystal
_audit_creation_method	'MofGen! by Chris Wilmer'
_symmetry_space_group_name_H-M	'P1'
_symmetry_Int_Tables_number	1
_symmetry_cell_setting	triclinic
loop_
_symmetry_equiv_pos_as_xyz
  x,y,z
_cell_length_a	11.792254
_cell_length_b	11.792241
_cell_length_c	14.586319
_cell_angle_alpha	90.000319
_cell_angle_beta	90.005826
_cell_angle_gamma	84.196007
loop_
_atom_site_label
_atom_site_type_symbol
_atom_site_fract_x
_atom_site_fract_y
_atom_site_fract_z
O1	O	1.506903	0.155628	0.076240
O2	O	2.006903	0.655628	0.576240
O3	O	1.176564	0.171646	0.076242
O4	O	1.676564	0.671646	0.576242
O5	O	1.349750	-0.001533	0.076235
O6	O	1.849750	0.498467	0.576235
O7	O	1.333717	0.328808	0.076247
O8	O	1.833717	0.828808	0.576247
O9	O	1.349729	-0.001523	-0.076246
O10	O	1.849729	0.498477	0.423754
O11	O	1.176543	0.171657	-0.076239
O12	O	1.676543	0.671657	0.423761
O13	O	1.506882	0.155639	-0.076241
O14	O	2.006882	0.655639	0.423759
Cu15	Cu	1.341711	0.163649	-0.090163
Cu16	Cu	1.841711	0.663649	0.409837
Cu17	Cu	1.341736	0.163636	0.090164
Cu18	Cu	1.841736	0.663636	0.590164
O19	O	1.333696	0.328818	-0.076233
O20	O	1.833696	0.828818	0.423767
C21	C	1.134263	0.170642	0.000002
C22	C	1.634263	0.670642	0.500002
C23	C	1.008250	0.167622	0.000002
C24	C	1.508250	0.667622	0.500002
C25	C	0.905913	0.165168	0.000006
C26	C	1.405913	0.665168	0.500006
C27	C	0.777527	0.162100	0.000007
C28	C	1.277527	0.662100	0.500007
C29	C	1.348732	-0.043819	-0.000006
C30	C	1.848732	0.456181	0.499994
C31	C	1.345718	-0.169832	-0.000005
C32	C	1.845718	0.330168	0.499995
C33	C	1.340175	-0.400545	0.000011
C34	C	1.840175	0.099455	0.500011
C35	C	1.343255	-0.272160	0.000002
C36	C	1.843255	0.227840	0.500002
C37	C	1.549183	0.156643	0.000001
C38	C	2.049183	0.656643	0.500001
C39	C	1.675196	0.159663	0.000007
C40	C	2.175196	0.659663	0.500007
C41	C	1.334714	0.371104	0.000009
C42	C	1.834714	0.871104	0.500009
C43	C	1.337728	0.497118	0.000014
C44	C	1.837728	0.997118	0.500014
N45	N	1.341701	0.163656	-0.216994
N46	N	1.841701	0.663656	0.283006
C47	C	1.410979	0.232946	-0.451998
C48	C	1.910979	0.732946	0.048002
C49	C	1.410991	0.232938	-0.547979
C50	C	1.910991	0.732938	-0.047979
C51	C	1.272473	0.094322	-0.547994
C52	C	1.772473	0.594322	-0.047994
C53	C	1.272468	0.094325	-0.452014
C54	C	1.772468	0.594325	0.047986
C55	C	1.341719	0.163643	-0.404019
C56	C	1.841719	0.663643	0.095981
C57	C	1.341736	0.163633	-0.595980
C58	C	1.841736	0.663633	-0.095980
C59	C	1.341748	0.163624	-0.700047
C60	C	1.841748	0.663624	-0.200047
C61	C	1.341709	0.163651	-0.299945
C62	C	1.841709	0.663651	0.200055
N63	N	1.341754	0.163620	0.216995
N64	N	1.841754	0.663620	0.716995
H65	H	1.467368	0.289389	-0.412923
H66	H	1.967368	0.789389	0.087077
C67	C	1.196275	0.018104	-0.600787
C68	C	1.696275	0.518104	-0.100787
H69	H	1.155027	-0.023172	-0.558463
H70	H	1.655027	0.476828	-0.058463
H71	H	1.144334	0.064278	-0.638228
H72	H	1.644334	0.564278	-0.138228
H73	H	1.242455	-0.033830	-0.638230
H74	H	1.742455	0.466170	-0.138230
C75	C	1.487169	0.309175	-0.600757
C76	C	1.987169	0.809175	-0.100757
H77	H	1.477265	0.299240	-0.664793
H78	H	1.977265	0.799240	-0.164793
H79	H	1.466553	0.386692	-0.585031
H80	H	1.966553	0.886692	-0.085031
H81	H	1.564699	0.288607	-0.585016
H82	H	2.064699	0.788607	-0.085016
H83	H	1.216067	0.037885	-0.412949
H84	H	1.716067	0.537885	0.087051
