data_functionalizedCrystal
_audit_creation_method	'MofGen! by Chris Wilmer'
_symmetry_space_group_name_H-M	'P1'
_symmetry_Int_Tables_number	1
_symmetry_cell_setting	triclinic
loop_
_symmetry_equiv_pos_as_xyz
  x,y,z
_cell_length_a	17.077404
_cell_length_b	16.625546
_cell_length_c	17.077396
_cell_angle_alpha	90.031819
_cell_angle_beta	90.017060
_cell_angle_gamma	90.022693
loop_
_atom_site_label
_atom_site_type_symbol
_atom_site_fract_x
_atom_site_fract_y
_atom_site_fract_z
Zn1	Zn	1.200038	-0.320984	0.443833
Zn2	Zn	1.199952	-0.455830	0.312563
Zn3	Zn	1.068775	-0.321016	0.312581
Zn4	Zn	1.068739	-0.455779	0.443787
O5	O	1.134376	-0.388402	0.378191
O6	O	1.309873	-0.338880	0.426432
O7	O	1.182530	-0.437982	0.202719
O8	O	1.086239	-0.208179	0.330019
O9	O	1.309810	-0.437951	0.329988
O10	O	1.182677	-0.208156	0.426449
O11	O	1.086155	-0.338935	0.202732
O12	O	0.958924	-0.338884	0.329974
O13	O	1.086177	-0.437863	0.553640
O14	O	0.958897	-0.437894	0.426370
O15	O	1.182642	-0.338830	0.553674
O16	O	1.182494	-0.568656	0.329943
O17	O	1.086093	-0.568618	0.426353
C18	C	0.930428	-0.388388	0.378169
C19	C	0.843178	-0.388401	0.378179
C20	C	0.802195	-0.440033	0.428292
C21	C	0.720214	-0.440035	0.428304
C22	C	0.679219	-0.388408	0.378199
C23	C	0.720208	-0.336770	0.328084
C24	C	0.802187	-0.336765	0.328076
C25	C	0.549338	-0.336786	0.328103
C26	C	0.467354	-0.336792	0.328110
C27	C	0.467365	-0.440056	0.428331
C28	C	0.549344	-0.440051	0.428323
C29	C	0.590328	-0.388414	0.378207
C30	C	1.134302	-0.597893	0.378158
C31	C	1.134342	-0.687514	0.378170
C32	C	1.134479	-1.015690	0.378252
C33	C	1.134438	-0.924381	0.378232
C34	C	1.134410	-0.851605	0.378211
C35	C	1.134370	-0.760291	0.378191
C36	C	1.339120	-0.388418	0.378213
C37	C	1.426370	-0.388424	0.378223
C38	C	1.134415	-0.388337	0.582936
C39	C	1.134431	-0.388309	0.670185
C40	C	1.134472	-0.178093	0.378241
C41	C	1.134513	-0.088472	0.378263
C42	C	1.134382	-0.388409	0.174243
C43	C	1.134518	-0.388210	0.086994
C44	C	1.184685	-0.439789	1.045996
C45	C	1.184665	-0.439813	0.964015
C46	C	1.134482	-0.388252	0.923034
C47	C	1.084310	-0.336671	0.964039
C48	C	1.084326	-0.336652	1.046018
C49	C	1.084280	-0.336712	0.793168
C50	C	1.084264	-0.336730	0.711184
C51	C	1.184619	-0.439873	0.711166
C52	C	1.184636	-0.439855	0.793145
C53	C	1.134464	-0.388272	0.834143
H54	H	0.686823	-0.294731	0.287291
H55	H	0.582705	-0.294730	0.287300
H56	H	1.225506	-0.481824	0.930638
C57	C	0.847269	-0.279968	0.272953
H58	H	0.811114	-0.249226	0.243109
H59	H	0.879271	-0.244875	0.303043
H60	H	0.879227	-0.310767	0.238690
H61	H	0.686849	-0.482080	0.469111
C62	C	1.029098	-0.279963	0.918966
H63	H	0.999215	-0.249249	0.955127
H64	H	1.059128	-0.244839	0.886996
H65	H	0.994875	-0.310824	0.886978
H66	H	1.043476	-0.294650	1.079397
C67	C	0.847286	-0.496827	0.483402
H68	H	0.901980	-0.489438	0.476215
H69	H	0.833878	-0.485100	0.536167
H70	H	0.833825	-0.550990	0.471810
H71	H	1.225554	-0.481772	1.079356
C72	C	0.594438	-0.496838	0.483438
H73	H	0.558290	-0.527586	0.513292
H74	H	0.626397	-0.531927	0.453346
H75	H	0.626439	-0.466027	0.517692
C76	C	0.422287	-0.496851	0.483463
H77	H	0.367592	-0.489454	0.476300
H78	H	0.435698	-0.551010	0.471878
H79	H	0.435750	-0.485113	0.536226
C80	C	1.239834	-0.496572	0.838222
H81	H	1.269706	-0.527302	0.802066
H82	H	1.274056	-0.465727	0.870219
H83	H	1.209785	-0.531693	0.870185
C84	C	1.239800	-0.496620	0.666071
H85	H	1.232598	-0.489256	0.611378
H86	H	1.292552	-0.484824	0.679512
H87	H	1.228282	-0.550793	0.679492
H88	H	0.433977	-0.294743	0.287319
H89	H	1.043403	-0.294742	0.677820
H90	H	1.043425	-0.294708	0.826547
