data_functionalizedCrystal
_audit_creation_method	'MofGen! by Chris Wilmer'
_symmetry_space_group_name_H-M	'P1'
_symmetry_Int_Tables_number	1
_symmetry_cell_setting	triclinic
loop_
_symmetry_equiv_pos_as_xyz
  x,y,z
_cell_length_a	11.792241
_cell_length_b	15.625950
_cell_length_c	14.185569
_cell_angle_alpha	120.545593
_cell_angle_beta	103.241863
_cell_angle_gamma	95.781309
loop_
_atom_site_label
_atom_site_type_symbol
_atom_site_fract_x
_atom_site_fract_y
_atom_site_fract_z
O1	O	-0.029368	1.290821	0.385975
O2	O	-0.079247	1.002963	0.281301
O3	O	0.111683	1.153876	0.336171
O4	O	-0.220297	1.139908	0.331104
O5	O	0.168079	1.198457	0.519215
O6	O	-0.022850	1.047544	0.464344
O7	O	0.027029	1.335402	0.569019
Cu8	Cu	0.007239	1.195544	0.533395
Cu9	Cu	-0.059457	1.142822	0.316924
O10	O	-0.163901	1.184489	0.514148
C11	C	-0.054374	0.988401	0.359422
C12	C	-0.064271	0.878593	0.319492
C13	C	0.056785	0.638828	0.686917
C14	C	0.047447	0.535631	0.649345
C15	C	-0.014030	0.487082	0.449816
C16	C	-0.004703	0.590276	0.487372
C17	C	0.030707	0.666141	0.605923
C18	C	-0.030781	0.617589	0.406378
C19	C	-0.021448	0.720775	0.443931
C20	C	0.013962	0.796646	0.562478
C21	C	0.040039	0.769327	0.643476
C22	C	-0.066182	0.541723	0.287827
C23	C	-0.092260	0.569037	0.206834
C24	C	-0.082936	0.672223	0.244386
C25	C	-0.047525	0.748094	0.362932
C26	C	-0.109013	0.699542	0.163387
C27	C	-0.099680	0.802727	0.200940
C28	C	-0.038193	0.851279	0.400485
C29	C	-0.234286	1.163077	0.422947
C30	C	-0.359989	1.165705	0.423907
C31	C	-0.590142	1.170528	0.425636
C32	C	-0.462068	1.167848	0.424675
C33	C	0.182067	1.175288	0.427370
C34	C	0.307769	1.172658	0.426403
C35	C	0.002156	1.349964	0.490895
C36	C	0.012050	1.459770	0.530818
N37	N	0.054150	1.232633	0.685651
N38	N	-0.106358	1.105740	0.164671
C39	C	-0.244135	0.996772	0.967544
C40	C	-0.208607	1.024873	1.082783
C41	C	-0.039594	1.158534	1.131342
C42	C	-0.075104	1.130441	1.016104
C43	C	-0.177377	1.049560	0.934213
C44	C	-0.008346	1.183229	0.982773
C45	C	-0.043857	1.155140	0.867546
C46	C	-0.146128	1.074264	0.785650
C47	C	-0.212888	1.021471	0.818986
C48	C	0.093921	1.264114	1.064667
C49	C	0.160680	1.316902	1.031336
C50	C	0.125174	1.288809	0.916106
C51	C	0.022903	1.207933	0.834209
C52	C	0.191934	1.341602	0.882769
C53	C	0.156423	1.313514	0.767542
C54	C	-0.012608	1.179845	0.718982
H55	H	0.021561	0.880665	0.593051
H56	H	0.275199	1.407463	0.949461
O57	O	-0.122904	1.092600	0.630626
H58	H	-0.203147	1.111049	0.657472
O59	O	-0.354418	0.909512	0.879187
H60	H	-0.421159	0.938620	0.841904
H61	H	0.122828	1.286983	1.158492
H62	H	0.210784	1.356501	0.740406
H63	H	-0.175043	1.051399	0.691826
H64	H	0.043675	1.224391	1.198031
H65	H	0.068855	0.831100	0.740012
H66	H	-0.073785	0.457704	0.257255
H67	H	-0.121085	0.507254	0.110308
H68	H	0.085601	0.700601	0.783453
O69	O	-0.000014	0.933119	0.528352
H70	H	0.091174	0.933355	0.572041
O71	O	-0.323196	0.934233	0.730646
H72	H	-0.363660	0.902243	0.773178
H73	H	0.243949	1.382759	1.098025
H74	H	0.068659	0.513398	0.715308
O75	O	-0.147190	0.617720	0.035524
H76	H	-0.231149	0.561157	0.010583
H77	H	-0.042854	0.425300	0.353291
H78	H	-0.120921	0.824965	0.134986
H79	H	-0.262981	0.981881	1.109911
