data_functionalizedCrystal
_audit_creation_method	'MofGen! by Chris Wilmer'
_symmetry_space_group_name_H-M	'P1'
_symmetry_Int_Tables_number	1
_symmetry_cell_setting	triclinic
loop_
_symmetry_equiv_pos_as_xyz
  x,y,z
_cell_length_a	14.446369
_cell_length_b	21.606444
_cell_length_c	21.606444
_cell_angle_alpha	60.000398
_cell_angle_beta	89.999503
_cell_angle_gamma	59.997435
loop_
_atom_site_label
_atom_site_type_symbol
_atom_site_fract_x
_atom_site_fract_y
_atom_site_fract_z
Zr1	Zr	0.891761	0.677417	-0.081178
O2	O	0.743950	0.806543	-0.180003
O3	O	0.937074	0.548296	-0.050886
O4	O	0.937073	0.677417	-0.180003
O5	O	0.743950	0.677419	0.050967
O6	O	1.089410	0.677412	-0.179999
O7	O	0.743951	0.677421	-0.050886
O8	O	1.089412	0.446437	0.050968
O9	O	0.743949	0.908394	-0.180000
O10	O	1.070085	0.601399	-0.037960
O11	O	0.956397	0.601401	0.038049
O12	O	0.956396	0.753425	-0.113970
O13	O	0.842708	0.753428	-0.037961
Zr14	Zr	1.134719	0.677404	0.081272
Zr15	Zr	1.134721	0.677408	-0.081172
Zr16	Zr	0.891759	0.677413	0.081266
Zr17	Zr	0.891758	0.839857	-0.081173
Zr18	Zr	1.134722	0.514964	0.081267
O19	O	1.089406	0.806525	0.050980
O20	O	1.089408	0.806530	-0.179995
O21	O	0.743948	0.806537	0.050971
O22	O	1.282530	0.548278	0.180097
O23	O	1.282532	0.548283	-0.050877
O24	O	0.937072	0.548291	0.180089
O25	O	1.282530	0.677402	-0.050873
O26	O	1.089407	0.677403	0.180097
O27	O	0.937070	0.677409	0.180093
O28	O	1.282529	0.677399	0.050980
O29	O	0.937070	0.908387	-0.179995
O30	O	1.089411	0.446434	0.180089
O31	O	1.282532	0.446427	0.180094
O32	O	1.282533	0.446430	0.050973
O33	O	0.743948	0.908391	-0.050879
O34	O	0.937068	0.908384	-0.050874
O35	O	1.070084	0.601395	0.114064
O36	O	1.183772	0.601393	0.038055
O37	O	1.070083	0.753419	-0.037955
O38	O	0.956395	0.753422	0.038054
C39	C	1.013243	0.474222	0.000040
C40	C	1.013244	0.405262	0.000038
C41	C	1.072586	0.372863	-0.039639
C42	C	1.072590	0.308063	-0.039634
C43	C	1.013245	0.275668	0.000044
C44	C	0.953902	0.308069	0.039726
C45	C	0.953905	0.372864	0.039725
C46	C	0.953889	0.046760	0.039733
C47	C	0.953887	-0.018037	0.039729
C48	C	1.072573	-0.018040	-0.039626
C49	C	1.072577	0.046754	-0.039628
C50	C	1.013239	0.079147	0.000057
C51	C	1.013237	0.149409	0.000053
C52	C	1.013240	0.205411	0.000045
C53	C	0.709334	0.677422	0.000039
C54	C	0.606191	0.677425	0.000037
C55	C	0.387821	0.773298	-0.047661
C56	C	0.495053	0.773363	-0.047929
C57	C	0.602869	0.629801	-0.034933
C58	C	0.495100	0.630410	-0.035283
C59	C	0.496462	0.628432	0.082766
C60	C	0.602431	0.630239	0.082635
C61	C	1.317146	0.677399	0.000054
C62	C	1.420289	0.677395	0.000057
C63	C	1.013242	0.677415	-0.203146
C64	C	1.013243	0.677417	-0.272107
C65	C	1.013237	0.880598	0.000053
C66	C	1.013236	0.949559	0.000056
C67	C	1.097166	0.677415	-0.304504
C68	C	1.097170	0.677409	-0.369297
C69	C	1.013244	0.677411	-0.401695
C70	C	0.929316	0.677410	-0.369293
C71	C	0.929318	0.677410	-0.304498
C72	C	0.929306	0.677409	-0.630604
C73	C	0.929308	0.677412	-0.695404
C74	C	1.097158	0.677409	-0.695402
C75	C	1.097160	0.677409	-0.630607
C76	C	1.013236	0.677403	-0.598208
C77	C	1.013234	0.677408	-0.527951
C78	C	1.013240	0.677412	-0.471954
C79	C	1.013238	0.677406	0.203240
C80	C	1.013238	0.677404	0.272201
C81	C	1.317149	0.474211	0.000048
C82	C	1.420293	0.405247	0.000048
C83	C	1.013241	0.474218	0.203233
C84	C	1.013242	0.405256	0.272192
C85	C	1.317148	0.474206	0.203240
C86	C	1.420291	0.405241	0.272202
C87	C	0.709333	0.880614	-0.203147
C88	C	0.606189	0.949580	-0.272109
C89	C	0.709331	0.880610	0.000046
C90	C	0.606187	0.949573	0.000046
C91	C	1.013239	0.880603	-0.203139
C92	C	1.013238	0.949565	-0.272099
C93	C	1.409388	0.372864	-0.039637
C94	C	1.506293	0.308074	-0.039652
C95	C	1.614103	0.275664	0.000023
C96	C	1.625007	0.308054	0.039710
C97	C	1.528102	0.372847	0.039720
C98	C	1.072585	0.372867	0.344262
C99	C	1.072582	0.308080	0.409063
C100	C	1.013240	0.275677	0.401793
C101	C	0.953889	0.308071	0.329715
C102	C	0.953887	0.372863	0.264916
C103	C	1.528082	0.372853	0.264912
C104	C	1.625006	0.308061	0.329703
C105	C	1.614135	0.275655	0.401784
C106	C	1.506333	0.308049	0.409073
C107	C	1.409412	0.372844	0.344283
C108	C	0.498398	0.981976	-0.264818
C109	C	0.401474	1.046788	-0.329609
C110	C	0.412345	1.079198	-0.401690
C111	C	0.520148	1.046799	-0.408979
C112	C	0.617069	0.981993	-0.344189
C113	C	0.617093	0.981963	0.039724
C114	C	0.520187	1.046771	0.039721
C115	C	0.412377	1.079184	0.000044
C116	C	0.401473	1.046791	-0.039640
C117	C	0.498378	0.981989	-0.039641
C118	C	1.072591	0.981947	-0.264804
C119	C	1.072613	1.046736	-0.329592
C120	C	1.013274	1.079145	-0.401675
C121	C	0.953920	1.046756	-0.408968
C122	C	0.953905	0.981965	-0.344181
H123	H	1.120896	0.073132	-0.071940
H124	H	0.529087	1.073134	0.072040
C125	C	1.189476	0.677423	-0.268873
H126	H	1.177453	0.677434	-0.225648
H127	H	1.261930	0.626658	-0.254108
H128	H	1.185979	0.728199	-0.304883
H129	H	0.605004	0.662882	-0.095218
C130	C	0.837004	0.677390	-0.731030
H131	H	0.787031	0.677373	-0.702449
H132	H	0.795537	0.728152	-0.781691
H133	H	0.871509	0.626611	-0.730914
H134	H	0.905575	0.281679	0.323807
C135	C	0.888614	0.408477	0.185643
H136	H	0.853286	0.379890	0.190601
H137	H	0.832451	0.469653	0.158706
H138	H	0.939846	0.397842	0.158721
H139	H	0.860971	0.677406	-0.604231
H140	H	1.497498	0.281654	0.467770
H141	H	1.712799	0.281656	0.072012
C142	C	1.013259	0.204403	0.473076
H143	H	1.057113	0.189752	0.517037
H144	H	0.937656	0.225634	0.473089
H145	H	1.045047	0.153838	0.473087
H146	H	1.536955	0.399228	0.206226
C147	C	0.486424	0.946337	-0.185536
H148	H	0.559578	0.903095	-0.147986
H149	H	0.446163	0.992855	-0.179852
H150	H	0.446150	0.921063	-0.179856
C151	C	1.290847	0.408454	0.352312
H152	H	1.298265	0.379863	0.404521
H153	H	1.250552	0.469630	0.328689
H154	H	1.250585	0.397819	0.328691
H155	H	1.712775	0.281692	0.323754
C156	C	1.540113	0.408451	0.083387
H157	H	1.618201	0.379858	0.107019
H158	H	1.504779	0.469627	0.049154
H159	H	1.504787	0.397814	0.120943
C160	C	1.137861	-0.053684	-0.083269
H161	H	1.129375	-0.096921	-0.077580
H162	H	1.108557	-0.007170	-0.135470
H163	H	1.215940	-0.078968	-0.063668
H164	H	1.165496	0.677409	-0.721786
H165	H	1.120906	0.399239	-0.071953
H166	H	1.120909	0.399243	0.350197
H167	H	0.446438	0.659116	0.111979
C168	C	1.137857	0.272433	-0.083284
H169	H	1.173187	0.301016	-0.106924
H170	H	1.194018	0.211258	-0.049041
H171	H	1.086620	0.283062	-0.120833
C172	C	1.720755	0.204375	0.473046
H173	H	1.786505	0.189725	0.458374
H174	H	1.720777	0.225602	0.502366
H175	H	1.720770	0.153811	0.502355
C176	C	0.735636	0.946330	-0.352214
H177	H	0.791811	0.903087	-0.303308
H178	H	0.744085	0.921066	-0.379143
H179	H	0.744164	0.992835	-0.379136
H180	H	1.497393	0.281711	-0.071970
C181	C	1.137873	0.946306	-0.185522
H182	H	1.173230	0.974871	-0.190467
H183	H	1.086656	0.956928	-0.158593
H184	H	1.194034	0.885126	-0.158599
H185	H	1.120945	1.073100	-0.323639
C186	C	0.735671	0.946320	0.083374
H187	H	0.728271	0.974906	0.106996
H188	H	0.775944	0.885146	0.120924
H189	H	0.775945	0.956941	0.049124
C190	C	0.282879	1.082445	-0.083276
H191	H	0.226738	1.125669	-0.077580
H192	H	0.274356	1.107728	-0.135478
H193	H	0.274373	1.035927	-0.063672
C194	C	0.486367	0.946356	-0.083279
H195	H	0.408279	0.974938	-0.106900
H196	H	0.521700	0.956965	-0.120830
H197	H	0.521694	0.885179	-0.049024
C198	C	1.720688	0.204386	0.000014
H199	H	1.698742	0.189739	-0.029299
H200	H	1.764541	0.225611	-0.021227
H201	H	1.764526	0.153820	0.050568
C202	C	0.282906	1.082407	-0.321577
H203	H	0.290322	1.053808	-0.269368
H204	H	0.242625	1.143580	-0.345191
H205	H	0.242631	1.071788	-0.345208
C206	C	1.013293	1.150416	-0.472937
H207	H	0.969460	1.165080	-0.516915
H208	H	0.981528	1.200966	-0.472933
H209	H	1.088912	1.129160	-0.472930
H210	H	0.601912	0.664964	0.108760
H211	H	1.321612	0.399252	-0.071955
C212	C	0.888642	1.082420	-0.488261
H213	H	0.897146	1.125652	-0.525796
H214	H	0.917931	1.035916	-0.493962
H215	H	0.810559	1.107715	-0.493949
H216	H	1.165507	0.677407	-0.395673
H217	H	0.333480	1.131950	0.000051
H218	H	0.492607	0.810959	-0.108941
H219	H	0.905576	0.073123	0.072050
C220	C	0.888597	0.946361	-0.352214
H221	H	0.853253	0.974954	-0.404424
H222	H	0.939800	0.885185	-0.328591
H223	H	0.832425	0.957000	-0.328596
H224	H	0.905559	-0.044412	0.072042
H225	H	0.905589	0.281683	0.072037
C226	C	0.305725	1.150471	-0.472952
H227	H	0.239975	1.165110	-0.458280
H228	H	0.305698	1.201034	-0.502273
H229	H	0.305716	1.129224	-0.502260
C230	C	0.888625	0.408509	0.083364
H231	H	0.897134	0.451733	0.077687
H232	H	0.810550	0.433792	0.063771
H233	H	0.917939	0.361989	0.135569
C234	C	0.709390	0.535699	0.134723
H235	H	0.704824	0.508812	0.184218
H236	H	0.714811	0.503590	0.115239
H237	H	0.774536	0.536376	0.136856
C238	C	0.427079	0.676140	-0.117501
H239	H	0.465436	0.694176	-0.150374
H240	H	0.420018	0.636616	-0.121242
H241	H	0.353818	0.725860	-0.131617
H242	H	0.493292	0.810919	-0.024654
C243	C	0.532097	1.082444	-0.488268
H244	H	0.610174	1.053875	-0.483339
H245	H	0.496742	1.071826	-0.515187
H246	H	0.496757	1.143623	-0.515192
C247	C	0.531092	0.535363	0.008622
H248	H	0.465534	0.535091	0.008708
H249	H	0.572995	0.508896	-0.015080
H250	H	0.576943	0.503469	0.059329
C251	C	0.708598	0.534509	0.009749
H252	H	0.704853	0.506935	-0.012350
H253	H	0.774727	0.533936	0.008271
H254	H	0.711430	0.503861	0.060894
C255	C	0.533546	0.532993	0.131025
H256	H	0.579558	0.503741	0.180937
H257	H	0.468405	0.532229	0.132919
H258	H	0.575571	0.504125	0.108991
C259	C	1.189480	0.677403	-0.594970
H260	H	1.239471	0.677392	-0.623540
H261	H	1.155010	0.728168	-0.595073
H262	H	1.230936	0.626627	-0.544308
H263	H	0.860985	0.677405	-0.395673
H264	H	0.332836	0.810755	-0.108304
C265	C	0.837003	0.677414	-0.268861
H266	H	0.849030	0.677405	-0.225628
H267	H	0.764551	0.728181	-0.304861
H268	H	0.840493	0.626640	-0.254094
C269	C	1.137875	0.272450	0.488340
H270	H	1.129372	0.229229	0.525896
H271	H	1.215948	0.247168	0.494020
H272	H	1.108565	0.318978	0.494014
H273	H	0.333864	0.810936	-0.024322
