data_functionalizedCrystal
_audit_creation_method	'MofGen! by Chris Wilmer'
_symmetry_space_group_name_H-M	'P1'
_symmetry_Int_Tables_number	1
_symmetry_cell_setting	triclinic
loop_
_symmetry_equiv_pos_as_xyz
  x,y,z
_cell_length_a	14.519731
_cell_length_b	17.699083
_cell_length_c	16.776229
_cell_angle_alpha	90.001114
_cell_angle_beta	90.012005
_cell_angle_gamma	83.485935
loop_
_atom_site_label
_atom_site_type_symbol
_atom_site_fract_x
_atom_site_fract_y
_atom_site_fract_z
O1	O	-0.116623	-1.004420	-0.066186
O2	O	0.383377	-0.504420	0.433814
O3	O	-0.131796	-0.784086	-0.066213
O4	O	0.368204	-0.284086	0.433787
O5	O	0.010052	-0.900086	-0.066183
O6	O	0.510052	-0.400086	0.433817
O7	O	-0.258471	-0.888419	-0.066216
O8	O	0.241529	-0.388419	0.433784
O9	O	0.010061	-0.900071	0.066394
O10	O	0.510061	-0.400071	0.566394
O11	O	-0.131787	-0.784070	0.066363
O12	O	0.368213	-0.284070	0.566363
O13	O	-0.116614	-1.004404	0.066391
O14	O	0.383386	-0.504404	0.566391
Zn15	Zn	-0.124200	-0.894235	0.087426
Zn16	Zn	0.375800	-0.394235	0.587426
Zn17	Zn	-0.124211	-0.894255	-0.087249
Zn18	Zn	0.375789	-0.394255	0.412751
O19	O	-0.258463	-0.888404	0.066360
O20	O	0.241537	-0.388404	0.566360
C21	C	0.044414	-0.899532	0.000108
C22	C	0.544414	-0.399532	0.500108
C23	C	0.146787	-0.897894	0.000115
C24	C	0.646787	-0.397894	0.500115
C25	C	-0.131248	-0.755879	0.000072
C26	C	0.368752	-0.255879	0.500072
C27	C	-0.129617	-0.671857	0.000062
C28	C	0.370383	-0.171857	0.500062
C29	C	-0.117162	-1.032611	0.000104
C30	C	0.382838	-0.532611	0.500104
C31	C	-0.118793	-1.116633	0.000108
C32	C	0.381207	-0.616633	0.500108
C33	C	0.229926	-0.896563	0.000118
C34	C	0.729926	-0.396563	0.500118
C35	C	0.334227	-0.894899	0.000119
C36	C	0.834227	-0.394899	0.500119
C37	C	0.417361	-0.893579	0.000119
C38	C	0.917361	-0.393579	0.500119
C39	C	0.521669	-0.891916	0.000121
C40	C	1.021669	-0.391916	0.500121
C41	C	0.707176	-0.888958	0.000084
C42	C	1.207176	-0.388958	0.500084
C43	C	0.604802	-0.890596	0.000122
C44	C	1.104802	-0.390596	0.500122
N45	N	-0.124191	-0.894226	0.206638
N46	N	0.375809	-0.394226	0.706638
C47	C	-0.212879	-0.623479	0.000052
C48	C	0.287121	-0.123479	0.500052
C49	C	-0.211341	-0.544531	0.000062
C50	C	0.288659	-0.044531	0.500062
C51	C	-0.126540	-0.513962	0.000077
C52	C	0.373460	-0.013962	0.500077
C53	C	-0.043272	-0.562346	0.000090
C54	C	0.456728	-0.062346	0.500090
C55	C	-0.044811	-0.641292	0.000085
C56	C	0.455189	-0.141292	0.500085
C57	C	-0.037063	-0.243965	0.000110
C58	C	0.462937	0.256035	0.500110
C59	C	-0.035531	-0.165012	0.000113
C60	C	0.464469	0.334988	0.500113
C61	C	-0.203594	-0.147204	0.000088
C62	C	0.296406	0.352796	0.500088
C63	C	-0.205133	-0.226150	0.000083
C64	C	0.294867	0.273850	0.500083
C65	C	-0.121865	-0.274527	0.000100
C66	C	0.378135	0.225473	0.500100
C67	C	-0.123533	-0.360131	0.000090
C68	C	0.376467	0.139869	0.500090
C69	C	-0.124870	-0.428360	0.000082
C70	C	0.375130	0.071640	0.500082
N71	N	-0.124212	-0.894269	-0.206460
N72	N	0.375788	-0.394269	0.293540
C73	C	-0.061406	-0.945607	0.248368
C74	C	0.438594	-0.445607	0.748368
C75	C	-0.061406	-0.945611	0.331820
C76	C	0.438594	-0.445611	0.831820
C77	C	-0.124195	-0.894238	0.373540
C78	C	0.375805	-0.394238	0.873540
C79	C	-0.186982	-0.842852	0.331804
C80	C	0.313018	-0.342852	0.831804
C81	C	-0.186978	-0.842844	0.248353
C82	C	0.313022	-0.342844	0.748353
C83	C	-0.187001	-0.842879	0.668351
C84	C	0.312999	-0.342879	1.168351
C85	C	-0.187002	-0.842892	0.751808
C86	C	0.312998	-0.342892	1.251808
C87	C	-0.061428	-0.945646	0.751818
C88	C	0.438572	-0.445646	1.251818
C89	C	-0.061424	-0.945639	0.668368
C90	C	0.438576	-0.445639	1.168368
C91	C	-0.124208	-0.894250	0.626638
C92	C	0.375792	-0.394250	1.126638
C93	C	-0.124207	-0.894245	0.536150
C94	C	0.375793	-0.394245	1.036150
C95	C	-0.124201	-0.894246	0.464027
C96	C	0.375799	-0.394246	0.964027
H97	H	-0.279141	-0.505145	0.000053
H98	H	0.220859	-0.005145	0.500053
H99	H	-0.274186	-0.251035	0.000067
H100	H	0.225814	0.248965	0.500067
N101	N	0.006297	-1.001068	0.796829
N102	N	0.506297	-0.501068	1.296829
H103	H	0.046068	-1.033615	0.757735
H104	H	0.546068	-0.533615	1.257735
H105	H	-0.028966	-1.034575	0.831440
H106	H	0.471034	-0.534575	1.331440
N107	N	-0.293408	-0.095026	0.000072
N108	N	0.206592	0.404974	0.500072
H109	H	-0.279571	-0.040375	0.000080
H110	H	0.220429	0.459625	0.500080
H111	H	-0.330373	-0.104940	0.049211
H112	H	0.169627	0.395060	0.549211
H113	H	-0.238134	-0.801054	0.785775
H114	H	0.261866	-0.301054	1.285775
H115	H	-0.010281	-0.987449	0.365797
H116	H	0.489719	-0.487449	0.865797
H117	H	-0.010298	-0.987474	0.634402
H118	H	0.489702	-0.487474	1.134402
N119	N	-0.254709	-0.787452	0.623349
N120	N	0.245291	-0.287452	1.123349
H121	H	-0.294485	-0.754911	0.662444
H122	H	0.205515	-0.254911	1.162444
H123	H	-0.295438	-0.816471	0.588707
H124	H	0.204562	-0.316471	1.088707
H125	H	-0.281934	-0.648362	0.000039
H126	H	0.218066	-0.148362	0.500039
N127	N	-0.254700	-0.787435	0.376797
N128	N	0.245300	-0.287435	0.876797
H129	H	-0.245179	-0.795236	0.435996
H130	H	0.254821	-0.295236	0.935996
H131	H	-0.320111	-0.796264	0.362194
H132	H	0.179889	-0.296264	0.862194
H133	H	0.033529	-0.140127	0.000126
H134	H	0.533529	0.359873	0.500126
H135	H	0.030739	-0.283344	0.000125
H136	H	0.530739	0.216656	0.500125
H137	H	0.022990	-0.680681	0.000093
H138	H	0.522990	-0.180681	0.500093
N139	N	0.048195	-0.529380	0.000119
N140	N	0.548195	-0.029380	0.500119
H141	H	0.036537	-0.472027	0.000120
H142	H	0.536537	0.027973	0.500120
H143	H	0.084625	-0.547067	-0.049022
H144	H	0.584625	-0.047067	0.450978
N145	N	0.006311	-1.001022	0.203373
N146	N	0.506311	-0.501022	0.703373
H147	H	0.046086	-1.033571	0.242475
H148	H	0.546086	-0.533571	0.742475
H149	H	0.047040	-0.971990	0.168761
H150	H	0.547040	-0.471990	0.668761
N151	N	-0.254691	-0.787423	0.203340
N152	N	0.245309	-0.287423	0.703340
H153	H	-0.294469	-0.754879	0.242430
H154	H	0.205531	-0.254879	0.742430
H155	H	-0.295417	-0.816446	0.168700
H156	H	0.204583	-0.316446	0.668700
