data_functionalizedCrystal
_audit_creation_method	'MofGen! by Chris Wilmer'
_symmetry_space_group_name_H-M	'P1'
_symmetry_Int_Tables_number	1
_symmetry_cell_setting	triclinic
loop_
_symmetry_equiv_pos_as_xyz
  x,y,z
_cell_length_a	6.817900
_cell_length_b	17.982959
_cell_length_c	16.305550
_cell_angle_alpha	95.663793
_cell_angle_beta	103.455250
_cell_angle_gamma	102.451857
loop_
_atom_site_label
_atom_site_type_symbol
_atom_site_fract_x
_atom_site_fract_y
_atom_site_fract_z
V1	V	-4.021185	-0.106056	-0.263386
O2	O	-4.014053	0.004435	-0.258009
O3	O	-3.967692	-0.209656	-0.261933
O4	O	-3.972655	-0.104715	-0.378098
O5	O	-4.009056	-0.101232	-0.141040
V6	V	-4.505489	-0.092806	-0.248710
O7	O	-4.280728	-0.135122	-0.295579
O8	O	-4.696143	-0.063740	-0.216517
O9	O	-4.335776	0.010793	-0.250163
O10	O	-4.630018	-0.203297	-0.254086
O11	O	-4.635015	-0.097630	-0.371056
O12	O	-4.330813	-0.094147	-0.133997
C13	C	-3.811458	-0.234902	-0.257868
C14	C	-3.849007	-0.319597	-0.257445
C15	C	-4.048560	-0.363278	-0.261467
C16	C	-4.083832	-0.442859	-0.261074
C17	C	-3.919546	-0.478757	-0.256654
C18	C	-3.719978	-0.435071	-0.252634
C19	C	-3.684711	-0.355492	-0.253032
C20	C	-3.862200	-0.756002	-0.251027
C21	C	-3.897482	-0.835586	-0.250626
C22	C	-4.261321	-0.843370	-0.259069
C23	C	-4.226054	-0.763791	-0.259467
C24	C	-4.026493	-0.720112	-0.255452
C25	C	-3.988250	-0.633822	-0.255879
C26	C	-3.957783	-0.565045	-0.256220
C27	C	-3.817788	-0.101039	-0.406047
C28	C	-3.859359	-0.100628	-0.499828
C29	C	-4.010522	-0.099036	-0.840568
C30	C	-3.774699	-0.094308	-0.799624
C31	C	-3.731470	-0.095051	-0.702131
C32	C	-3.935526	-0.099825	-0.671523
C33	C	-4.098969	-0.175070	-0.722401
C34	C	-4.140853	-0.174645	-0.819949
C35	C	-4.068613	-0.029120	-0.794491
C36	C	-4.020712	-0.028524	-0.696646
C37	C	-3.893155	-0.100274	-0.575986
C38	C	-4.052902	-0.098592	-0.936105
C39	C	-4.155351	0.036035	-0.254225
C40	C	-4.097040	0.120730	-0.254654
C41	C	-4.149022	-0.097826	-0.106044
C42	C	-4.086689	-0.098233	-0.012263
H43	H	-4.182342	-0.334056	-0.265059
C44	C	-4.305475	-0.183475	-0.696880
C45	C	-4.507729	-0.186528	-0.764631
C46	C	-4.714232	-0.194930	-0.739108
C47	C	-4.718481	-0.200281	-0.645834
C48	C	-4.516219	-0.197228	-0.578076
C49	C	-4.309716	-0.188825	-0.603599
H50	H	-4.504591	-0.182567	-0.833684
H51	H	-4.863960	-0.197190	-0.789267
H52	H	-4.871347	-0.206501	-0.626940
H53	H	-4.519358	-0.201188	-0.509023
H54	H	-4.159989	-0.186566	-0.553440
C55	C	-4.020683	-0.246597	-0.699936
C56	C	-3.987640	-0.302535	-0.770361
C57	C	-3.909342	-0.374059	-0.747898
C58	C	-3.864085	-0.389646	-0.655009
C59	C	-3.897127	-0.333707	-0.584578
C60	C	-3.975426	-0.262183	-0.607041
H61	H	-4.021142	-0.290998	-0.839128
H62	H	-3.884882	-0.415469	-0.800036
H63	H	-3.806124	-0.442593	-0.638380
H64	H	-3.863626	-0.345244	-0.515811
H65	H	-3.999886	-0.220773	-0.554903
C66	C	-3.564329	-0.021900	-0.654559
C67	C	-3.469333	0.037598	-0.705224
C68	C	-3.302313	0.110784	-0.657654
C69	C	-3.230290	0.124470	-0.559419
C70	C	-3.325287	0.064969	-0.508749
C71	C	-3.492307	-0.008216	-0.556319
H72	H	-3.522648	0.027469	-0.777948
H73	H	-3.231990	0.154830	-0.695163
H74	H	-3.106652	0.178646	-0.524205
H75	H	-3.271972	0.075099	-0.436025
H76	H	-3.562630	-0.052262	-0.518810
C77	C	-3.634797	-0.020879	-0.816081
C78	C	-3.732962	0.035690	-0.866902
C79	C	-3.593060	0.109122	-0.883365
C80	C	-3.354991	0.125984	-0.849008
C81	C	-3.256813	0.069413	-0.798184
C82	C	-3.396716	-0.004019	-0.781721
H83	H	-3.909206	0.023209	-0.892338
H84	H	-3.665739	0.150999	-0.920989
H85	H	-3.251427	0.180342	-0.861195
H86	H	-3.080569	0.081894	-0.772748
H87	H	-3.324037	-0.045896	-0.744097
C88	C	-4.088604	-0.246145	-0.861235
C89	C	-4.205014	-0.327462	-0.853187
C90	C	-4.152757	-0.398963	-0.894466
C91	C	-3.984090	-0.389147	-0.943793
C92	C	-3.867668	-0.307826	-0.951843
C93	C	-3.919926	-0.236325	-0.910564
H94	H	-4.329882	-0.334732	-0.816670
H95	H	-4.238941	-0.459163	-0.888507
H96	H	-3.945406	-0.442077	-0.974351
H97	H	-3.742801	-0.300557	-0.988360
H98	H	-3.833742	-0.176126	-0.916523
C99	C	-3.860771	0.046665	-0.649959
C100	C	-3.768064	0.105780	-0.701548
C101	C	-3.608112	0.180966	-0.654855
C102	C	-3.540866	0.197038	-0.556573
C103	C	-3.633574	0.137921	-0.504978
C104	C	-3.793526	0.062735	-0.551671
H105	H	-3.817842	0.093885	-0.774307
H106	H	-3.539484	0.224728	-0.693049
H107	H	-3.422460	0.252695	-0.522008
H108	H	-3.583796	0.149816	-0.432219
H109	H	-3.862154	0.018973	-0.513477
H110	H	-4.246325	-0.478422	-0.264351
H111	H	-4.359834	-0.734567	-0.263063
H112	H	-4.314374	-0.181244	-0.847962
H113	H	-3.699708	-0.720448	-0.247752
H114	H	-3.979933	0.027893	-0.807668
H115	H	-4.423817	-0.878943	-0.262340
H116	H	-3.763691	-0.864812	-0.247031
H117	H	-4.168045	-0.027588	-0.675295
H118	H	-3.586218	-0.464305	-0.249039
H119	H	-3.522219	-0.319928	-0.249761
H120	H	-3.727212	-0.144540	-0.831303
H121	H	-3.662619	-0.145862	-0.686007
H122	H	-4.240545	-0.031914	-0.821316
