data_functionalizedCrystal
_audit_creation_method	'MofGen! by Chris Wilmer'
_symmetry_space_group_name_H-M	'P1'
_symmetry_Int_Tables_number	1
_symmetry_cell_setting	triclinic
loop_
_symmetry_equiv_pos_as_xyz
  x,y,z
_cell_length_a	14.519731
_cell_length_b	14.519709
_cell_length_c	9.130313
_cell_angle_alpha	89.997798
_cell_angle_beta	89.999669
_cell_angle_gamma	83.684499
loop_
_atom_site_label
_atom_site_type_symbol
_atom_site_fract_x
_atom_site_fract_y
_atom_site_fract_z
O1	O	1.223850	0.120981	-0.121806
O2	O	0.955376	0.135197	-0.121808
O3	O	1.096731	-0.006149	-0.121794
O4	O	1.082495	0.262327	-0.121820
O5	O	1.096729	-0.006145	0.121805
O6	O	0.955374	0.135201	0.121791
O7	O	1.223848	0.120984	0.121793
Cu8	Cu	1.089611	0.128093	0.144034
Cu9	Cu	1.089613	0.128088	-0.144050
O10	O	1.082493	0.262330	0.121779
C11	C	0.921016	0.134532	-0.000009
C12	C	0.818635	0.132536	-0.000010
C13	C	0.735491	0.130915	-0.000015
C14	C	0.631182	0.128888	-0.000016
C15	C	0.548043	0.127280	-0.000016
C16	C	0.443728	0.125253	-0.000019
C17	C	1.096067	-0.040507	0.000006
C18	C	1.094079	-0.142889	0.000007
C19	C	1.086759	-0.517785	-0.000031
C20	C	1.088792	-0.413477	-0.000020
C21	C	1.090419	-0.330340	-0.000011
C22	C	1.092452	-0.226025	-0.000003
C23	C	1.258209	0.121649	-0.000009
C24	C	1.360589	0.123645	-0.000018
C25	C	1.083157	0.296688	-0.000024
C26	C	1.085146	0.399070	-0.000035
N27	N	1.089616	0.128095	0.346657
N28	N	1.089615	0.128078	-0.346672
C29	C	1.152224	0.065529	0.423315
C30	C	1.152222	0.065518	0.576652
C31	C	1.027000	0.190648	0.576659
C32	C	1.026999	0.190654	0.423325
C33	C	1.214842	0.002970	0.346648
C34	C	1.277456	-0.059601	0.423306
C35	C	1.277453	-0.059612	0.576643
C36	C	1.214837	0.002948	0.653321
H37	H	1.214851	0.002975	0.221793
N38	N	1.341397	-0.123505	0.344967
N39	N	1.341391	-0.123490	0.208063
H40	H	1.386549	-0.168625	0.152735
N41	N	1.341404	-0.123539	0.654927
N42	N	1.397300	-0.179390	0.586450
H43	H	1.442470	-0.224539	0.641734
H44	H	1.214834	0.002927	0.778179
H45	H	0.976022	0.241583	0.639100
H46	H	0.976017	0.241601	0.360909
