data_functionalizedCrystal
_audit_creation_method	'MofGen! by Chris Wilmer'
_symmetry_space_group_name_H-M	'P1'
_symmetry_Int_Tables_number	1
_symmetry_cell_setting	triclinic
loop_
_symmetry_equiv_pos_as_xyz
  x,y,z
_cell_length_a	6.817900
_cell_length_b	8.749629
_cell_length_c	12.908943
_cell_angle_alpha	94.675185
_cell_angle_beta	100.860631
_cell_angle_gamma	105.181975
loop_
_atom_site_label
_atom_site_type_symbol
_atom_site_fract_x
_atom_site_fract_y
_atom_site_fract_z
V1	V	-4.003949	-0.216839	-0.327326
O2	O	-3.983866	0.012451	-0.322503
O3	O	-3.963346	-0.431909	-0.323733
O4	O	-3.942075	-0.212612	-0.470702
O5	O	-4.005284	-0.208363	-0.174517
V6	V	-4.488313	-0.189518	-0.309213
O7	O	-4.263364	-0.276768	-0.367058
O8	O	-4.679095	-0.129589	-0.269482
O9	O	-4.305709	0.025551	-0.312806
O10	O	-4.625793	-0.418809	-0.314037
O11	O	-4.604375	-0.197994	-0.462023
O12	O	-4.326980	-0.193745	-0.165837
C13	C	-3.810680	-0.484366	-0.318220
C14	C	-3.858679	-0.660183	-0.316239
C15	C	-3.783545	-0.204629	-0.505692
C16	C	-3.814292	-0.202597	-0.622894
C17	C	-4.235887	-0.214471	-0.853766
C18	C	-4.264786	-0.212562	-0.963888
C19	C	-3.900987	-0.196858	-0.953260
C20	C	-3.872088	-0.198767	-0.843138
C21	C	-4.039547	-0.207576	-0.793396
C22	C	-4.010650	-0.209497	-0.683273
C23	C	-3.646849	-0.193781	-0.672646
C24	C	-3.675748	-0.191872	-0.782768
C25	C	-4.121718	0.078000	-0.318316
C26	C	-4.052956	0.253815	-0.320305
C27	C	-4.148852	-0.201733	-0.130842
C28	C	-4.097344	-0.203758	-0.013639
H29	H	-4.147007	-0.216677	-0.642775
Cl30	Cl	-4.511621	-0.221226	-1.039779
H31	H	-4.372245	-0.221661	-0.813267
Cl32	Cl	-3.400010	-0.185125	-0.596746
Cl33	Cl	-3.690498	-0.185793	-1.015813
Cl34	Cl	-4.253087	-0.652201	-0.328035
Cl35	Cl	-3.658562	-0.754164	-0.308525
H36	H	-3.539413	-0.184694	-0.823283
