data_functionalizedCrystal
_audit_creation_method	'MofGen! by Chris Wilmer'
_symmetry_space_group_name_H-M	'P1'
_symmetry_Int_Tables_number	1
_symmetry_cell_setting	triclinic
loop_
_symmetry_equiv_pos_as_xyz
  x,y,z
_cell_length_a	6.817900
_cell_length_b	12.850286
_cell_length_c	11.631413
_cell_angle_alpha	128.931066
_cell_angle_beta	90.576887
_cell_angle_gamma	91.778050
loop_
_atom_site_label
_atom_site_type_symbol
_atom_site_fract_x
_atom_site_fract_y
_atom_site_fract_z
V1	V	3.843236	0.362287	0.451273
O2	O	3.893061	0.211089	0.449445
O3	O	3.739439	0.498592	0.441683
O4	O	3.740602	0.456975	0.651056
O5	O	3.891890	0.252994	0.238623
V6	V	4.341070	0.332355	0.426629
O7	O	4.073103	0.427944	0.505333
O8	O	4.561400	0.266698	0.372569
O9	O	4.221660	0.196049	0.436219
O10	O	4.408642	0.483553	0.428457
O11	O	4.409812	0.441647	0.639279
O12	O	4.220497	0.237666	0.226846
C13	C	3.574201	0.475599	0.699960
C14	C	3.571204	0.553919	0.863241
C15	C	3.568715	0.642884	0.426279
C16	C	3.572715	0.528685	0.432885
C17	C	4.051735	0.165957	0.445013
C18	C	4.034597	0.051792	0.451676
V19	V	3.826652	0.835123	0.428897
O20	O	3.865738	0.990651	0.434230
O21	O	3.732742	0.689165	0.430653
O22	O	3.730900	0.730707	0.221218
O23	O	3.867593	0.948822	0.645114
V24	V	4.320710	0.913571	0.492995
O25	O	4.060304	0.792136	0.393283
O26	O	4.535725	1.000523	0.564365
O27	O	4.192174	1.037731	0.473511
O28	O	4.398622	0.769507	0.496986
O29	O	4.396767	0.811336	0.286102
O30	O	4.194016	0.996189	0.682946
C31	C	4.050240	0.219042	0.177934
C32	C	4.032479	0.140716	0.014652
C33	C	3.566346	0.695889	0.159147
C34	C	3.568763	0.617518	-0.004160
C35	C	4.023059	0.998126	0.718286
C36	C	3.999956	1.074460	0.879944
