data_functionalizedCrystal
_audit_creation_method	'MofGen! by Chris Wilmer'
_symmetry_space_group_name_H-M	'P1'
_symmetry_Int_Tables_number	1
_symmetry_cell_setting	triclinic
loop_
_symmetry_equiv_pos_as_xyz
  x,y,z
_cell_length_a	10.723024
_cell_length_b	12.837942
_cell_length_c	9.798715
_cell_angle_alpha	89.997407
_cell_angle_beta	89.996609
_cell_angle_gamma	89.648405
loop_
_atom_site_label
_atom_site_type_symbol
_atom_site_fract_x
_atom_site_fract_y
_atom_site_fract_z
O1	O	1.672991	0.145513	-0.113481
O2	O	1.311352	0.159441	-0.113486
O3	O	1.484153	0.001517	-0.113475
O4	O	1.500190	0.303437	-0.113492
O5	O	1.484138	0.001517	0.113507
O6	O	1.311337	0.159441	0.113496
O7	O	1.672977	0.145512	0.113501
Zn8	Zn	1.492155	0.152477	0.149537
Zn9	Zn	1.492174	0.152477	-0.149522
O10	O	1.500176	0.303436	0.113490
C11	C	1.264735	0.158427	0.000004
C12	C	1.125851	0.155395	0.000003
C13	C	1.060466	0.243761	-0.000003
C14	C	0.916922	0.240629	-0.000004
C15	C	1.478728	-0.037142	0.000015
C16	C	1.462569	-0.152334	0.000012
C17	C	1.656825	-0.391911	-0.000014
C18	C	1.641648	-0.500145	-0.000016
C19	C	1.417040	-0.477037	-0.000005
C20	C	1.432217	-0.368804	-0.000002
C21	C	1.552113	-0.326245	-0.000005
C22	C	1.567289	-0.218009	0.000008
C23	C	1.342681	-0.194904	0.000009
C24	C	1.327505	-0.303137	0.000007
C25	C	1.719594	0.146526	0.000007
C26	C	1.858478	0.149559	-0.000000
C27	C	1.505601	0.342096	-0.000003
C28	C	1.521760	0.457288	-0.000010
N29	N	1.492151	0.152476	0.353636
N30	N	1.492187	0.152470	-0.353622
C31	C	1.564674	0.085875	0.421418
C32	C	1.564693	0.085872	0.578581
H33	H	0.860706	0.316277	-0.000015
H34	H	1.754449	-0.357259	-0.000002
O35	O	1.683662	-0.176492	0.000061
C36	C	1.806592	-0.019996	-0.000032
C37	C	1.674727	-0.066871	-0.000053
H38	H	1.799412	0.068638	-0.000153
H39	H	1.859020	-0.046905	0.094975
H40	H	1.858973	-0.047032	-0.095009
H41	H	1.622241	-0.039856	0.094859
H42	H	1.622393	-0.039967	-0.095123
H43	H	1.726916	-0.553607	-0.000028
H44	H	1.319426	-0.511708	-0.000018
H45	H	1.110757	0.321733	0.000001
H46	H	1.229888	-0.337804	0.000003
O47	O	1.638697	0.017701	0.647960
C48	C	1.689746	-0.162236	0.692008
C49	C	1.605873	-0.085144	0.613323
H50	H	1.663222	-0.245402	0.664055
H51	H	1.791468	-0.148305	0.663948
H52	H	1.676586	-0.150064	0.806363
H53	H	1.618925	-0.097269	0.498950
H54	H	1.504183	-0.099094	0.641496
O55	O	1.417974	0.220536	0.422990
C56	C	1.266639	0.359613	0.408254
C57	C	1.350566	0.282573	0.329547
H58	H	1.212138	0.409805	0.332740
H59	H	1.198755	0.314505	0.475126
H60	H	1.326971	0.411615	0.475179
H61	H	1.290334	0.230552	0.262548
H62	H	1.418458	0.327746	0.262761
O63	O	0.925660	0.059371	-0.000178
C64	C	1.077333	-0.046866	-0.117809
C65	C	1.001335	0.055320	-0.117761
H66	H	1.138515	-0.050184	-0.212879
H67	H	1.138695	-0.050202	-0.022883
H68	H	1.010971	-0.115904	-0.117739
H69	H	1.067605	0.124415	-0.117879
H70	H	0.939958	0.058564	-0.212679
O71	O	1.240919	-0.131155	0.000259
C72	C	1.053555	-0.078341	0.117830
C73	C	1.168755	-0.150579	0.117725
H74	H	0.995165	-0.094035	0.212776
H75	H	1.084924	0.006347	0.117924
H76	H	0.995243	-0.093907	0.022798
H77	H	1.227116	-0.135106	0.212741
H78	H	1.137300	-0.235244	0.117560
O79	O	1.638933	0.017896	0.352033
C80	C	1.848663	-0.041635	0.308032
C81	C	1.764690	0.035397	0.386694
H82	H	1.950356	-0.027497	0.336005
H83	H	1.822375	-0.124838	0.336095
H84	H	1.835419	-0.029548	0.193674
H85	H	1.777890	0.023406	0.501071
H86	H	1.790998	0.118572	0.358518
H87	H	1.075561	0.077423	-0.000028
H88	H	1.430099	0.209496	0.588098
