data_functionalizedCrystal
_audit_creation_method	'MofGen! by Chris Wilmer'
_symmetry_space_group_name_H-M	'P1'
_symmetry_Int_Tables_number	1
_symmetry_cell_setting	triclinic
loop_
_symmetry_equiv_pos_as_xyz
  x,y,z
_cell_length_a	16.109301
_cell_length_b	17.699083
_cell_length_c	14.586319
_cell_angle_alpha	89.995320
_cell_angle_beta	89.999213
_cell_angle_gamma	83.372248
loop_
_atom_site_label
_atom_site_type_symbol
_atom_site_fract_x
_atom_site_fract_y
_atom_site_fract_z
O1	O	1.102963	0.097285	-0.076184
O2	O	1.436297	0.430618	0.257149
O3	O	1.769630	0.763951	0.590482
O4	O	0.860880	0.109391	-0.076199
O5	O	1.194214	0.442725	0.257134
O6	O	1.527547	0.776058	0.590468
O7	O	0.988761	-0.006841	-0.076183
O8	O	1.322095	0.326492	0.257150
O9	O	1.655428	0.659825	0.590484
O10	O	0.975082	0.213517	-0.076200
O11	O	1.308416	0.546851	0.257133
O12	O	1.641749	0.880184	0.590467
O13	O	0.988752	-0.006843	0.076298
O14	O	1.322086	0.326490	0.409631
O15	O	1.655419	0.659824	0.742964
O16	O	0.860872	0.109390	0.076282
O17	O	1.194205	0.442723	0.409615
O18	O	1.527538	0.776056	0.742948
O19	O	1.102954	0.097283	0.076297
O20	O	1.436288	0.430616	0.409630
O21	O	1.769621	0.763950	0.742963
Cu22	Cu	0.981912	0.103336	0.090212
Cu23	Cu	1.315245	0.436669	0.423545
Cu24	Cu	1.648579	0.770003	0.756879
Cu25	Cu	0.981923	0.103338	-0.090114
Cu26	Cu	1.315256	0.436672	0.243219
Cu27	Cu	1.648589	0.770005	0.576552
O28	O	0.975074	0.213516	0.076281
O29	O	1.308407	0.546849	0.409614
O30	O	1.641740	0.880182	0.742947
C31	C	0.829902	0.108900	0.000040
C32	C	1.163235	0.442234	0.333373
C33	C	1.496569	0.775567	0.666706
C34	C	0.737609	0.107430	0.000034
C35	C	1.070943	0.440763	0.333368
C36	C	1.404276	0.774097	0.666701
C37	C	0.515224	0.172981	0.000040
C38	C	0.848557	0.506315	0.333373
C39	C	1.181891	0.839648	0.666706
C40	C	0.428506	0.171594	0.000046
C41	C	0.761839	0.504927	0.333379
C42	C	1.095173	0.838261	0.666712
C43	C	0.448618	0.033688	0.000053
C44	C	0.781951	0.367021	0.333386
C45	C	1.115284	0.700354	0.666719
C46	C	0.535334	0.035076	0.000053
C47	C	0.868667	0.368409	0.333386
C48	C	1.202001	0.701743	0.666720
C49	C	0.568635	0.104725	0.000042
C50	C	0.901968	0.438058	0.333375
C51	C	1.235301	0.771392	0.666709
C52	C	0.395200	0.101949	0.000047
C53	C	0.728534	0.435283	0.333381
C54	C	1.061867	0.768616	0.666714
C55	C	0.301177	0.100445	0.000054
C56	C	0.634510	0.433778	0.333387
C57	C	0.967843	0.767111	0.666721
C58	C	0.662664	0.106230	0.000037
C59	C	0.995997	0.439564	0.333371
C60	C	1.329331	0.772897	0.666704
C61	C	0.988267	-0.035040	0.000057
C62	C	1.321600	0.298293	0.333391
C63	C	1.654933	0.631627	0.666724
C64	C	0.986796	-0.119060	0.000058
C65	C	1.320130	0.214273	0.333391
C66	C	1.653463	0.547607	0.666724
C67	C	1.061860	-0.167574	0.000064
C68	C	1.395193	0.165759	0.333397
C69	C	1.728526	0.499093	0.666730
C70	C	1.060473	-0.246519	0.000055
C71	C	1.393806	0.086814	0.333389
C72	C	1.727140	0.420147	0.666722
C73	C	0.984022	-0.276949	0.000048
C74	C	1.317356	0.056384	0.333381
C75	C	1.650689	0.389717	0.666715
C76	C	0.908953	-0.228429	0.000039
C77	C	1.242286	0.104904	0.333373
C78	C	1.575620	0.438238	0.666706
C79	C	0.910341	-0.149485	0.000041
C80	C	1.243674	0.183848	0.333374
C81	C	1.577007	0.517181	0.666708
C82	C	0.903356	-0.546800	0.000031
C83	C	1.236689	-0.213467	0.333365
C84	C	1.570023	0.119866	0.666698
C85	C	0.901974	-0.625750	0.000033
C86	C	1.235308	-0.292417	0.333366
C87	C	1.568641	0.040917	0.666699
C88	C	1.053488	-0.643834	0.000046
C89	C	1.386822	-0.310501	0.333379
C90	C	1.720155	0.022833	0.666713
C91	C	1.054876	-0.564890	0.000048
C92	C	1.388209	-0.231557	0.333381
C93	C	1.721543	0.101776	0.666714
C94	C	0.979807	-0.516377	0.000034
C95	C	1.313141	-0.183044	0.333367
C96	C	1.646474	0.150289	0.666701
C97	C	0.981312	-0.430776	0.000041
C98	C	1.314645	-0.097443	0.333375
C99	C	1.647978	0.235891	0.666708
C100	C	0.982517	-0.362549	0.000047
C101	C	1.315850	-0.029216	0.333381
C102	C	1.649184	0.304118	0.666714
C103	C	1.133933	0.097774	0.000056
C104	C	1.467266	0.431107	0.333389
C105	C	1.800600	0.764441	0.666723
C106	C	1.226226	0.099244	0.000055
C107	C	1.559559	0.432578	0.333389
C108	C	1.892892	0.765911	0.666722
C109	C	0.975568	0.241714	0.000038
C110	C	1.308901	0.575048	0.333372
C111	C	1.642235	0.908381	0.666705
C112	C	0.977039	0.325734	0.000032
C113	C	1.310372	0.659068	0.333365
C114	C	1.643705	0.992401	0.666699
N115	N	0.981911	0.103334	0.217044
N116	N	1.315244	0.436668	0.550377
N117	N	1.648578	0.770001	0.883710
N118	N	0.981931	0.103334	-0.216946
N119	N	1.315264	0.436667	0.116387
N120	N	1.648597	0.770001	0.449721
C121	C	1.038555	0.051884	0.452057
C122	C	1.371888	0.385217	0.785390
C123	C	1.705222	0.718550	1.118724
C124	C	1.038558	0.051882	0.548038
C125	C	1.371891	0.385215	0.881372
C126	C	1.705224	0.718548	1.214705
C127	C	0.925280	0.154787	0.548034
C128	C	1.258614	0.488121	0.881367
C129	C	1.591947	0.821454	1.214700
C130	C	0.925274	0.154785	0.452054
C131	C	1.258608	0.488118	0.785388
C132	C	1.591941	0.821451	1.118721
C133	C	0.981917	0.103334	0.404068
C134	C	1.315250	0.436667	0.737402
C135	C	1.648583	0.770001	1.070735
C136	C	0.981925	0.103334	0.596029
C137	C	1.315258	0.436668	0.929363
C138	C	1.648591	0.770001	1.262696
C139	C	0.981927	0.103333	0.700096
C140	C	1.315260	0.436666	1.033430
C141	C	1.648594	0.770000	1.366763
C142	C	0.981914	0.103334	0.299995
C143	C	1.315247	0.436668	0.633328
C144	C	1.648580	0.770001	0.966661
H145	H	0.421494	-0.023018	0.000067
H146	H	0.754827	0.310315	0.333400
H147	H	1.088160	0.643648	0.666734
H148	H	1.117130	-0.540119	0.000058
H149	H	1.450463	-0.206786	0.333392
H150	H	1.783797	0.126548	0.666725
F151	F	0.592182	-0.037576	0.000062
F152	F	0.925515	0.295757	0.333395
F153	F	1.258848	0.629091	0.666728
F154	F	1.143230	-0.135196	0.000080
F155	F	1.476564	0.198137	0.333414
F156	F	1.809897	0.531471	0.666747
F157	F	0.864986	0.209545	0.400977
F158	F	1.198319	0.542878	0.734310
F159	F	1.531653	0.876212	1.067644
H160	H	0.385022	0.227175	0.000046
H161	H	0.718355	0.560509	0.333379
H162	H	1.051688	0.893842	0.666712
F163	F	1.140366	-0.298148	0.000063
F164	F	1.473699	0.035185	0.333397
F165	F	1.807033	0.368518	0.666730
H166	H	1.114613	-0.683343	0.000052
H167	H	1.447946	-0.350010	0.333386
H168	H	1.781280	-0.016677	0.666719
H169	H	0.839715	-0.650523	0.000028
H170	H	1.173049	-0.317189	0.333362
H171	H	1.506382	0.016144	0.666695
H172	H	1.084677	0.009985	0.587108
H173	H	1.418010	0.343319	0.920442
H174	H	1.751343	0.676652	1.253775
H175	H	0.842230	-0.507310	0.000021
H176	H	1.175564	-0.173976	0.333354
H177	H	1.508897	0.159357	0.666687
H178	H	0.846705	-0.253211	0.000027
H179	H	1.180039	0.080122	0.333361
H180	H	1.513372	0.413455	0.666694
H181	H	0.849216	-0.109986	0.000036
H182	H	1.182549	0.223348	0.333369
H183	H	1.515883	0.556681	0.666703
F184	F	1.098837	-0.002877	0.400991
F185	F	1.432170	0.330456	0.734324
F186	F	1.765503	0.663790	1.067657
F187	F	0.865002	0.209544	0.599110
F188	F	1.198336	0.542878	0.932443
F189	F	1.531669	0.876211	1.265777
H190	H	0.542334	0.229694	0.000038
H191	H	0.875667	0.563028	0.333371
H192	H	1.209001	0.896361	0.666704
