data_functionalizedCrystal
_audit_creation_method	'MofGen! by Chris Wilmer'
_symmetry_space_group_name_H-M	'P1'
_symmetry_Int_Tables_number	1
_symmetry_cell_setting	triclinic
loop_
_symmetry_equiv_pos_as_xyz
  x,y,z
_cell_length_a	29.839131
_cell_length_b	29.839134
_cell_length_c	29.839125
_cell_angle_alpha	89.987811
_cell_angle_beta	89.982291
_cell_angle_gamma	90.021992
loop_
_atom_site_label
_atom_site_type_symbol
_atom_site_fract_x
_atom_site_fract_y
_atom_site_fract_z
Zn1	Zn	-0.179149	0.686719	-0.254008
Zn2	Zn	-0.254261	0.686652	-0.178878
Zn3	Zn	-0.179121	0.611602	-0.178890
Zn4	Zn	-0.254227	0.611550	-0.253979
O5	O	-0.216690	0.649131	-0.216439
O6	O	-0.189139	0.749578	-0.244048
O7	O	-0.244296	0.676690	-0.116012
O8	O	-0.116257	0.621617	-0.188872
O9	O	-0.244324	0.749528	-0.188851
O10	O	-0.116278	0.676805	-0.244060
O11	O	-0.189090	0.621551	-0.116021
O12	O	-0.189058	0.548728	-0.188844
O13	O	-0.244266	0.621528	-0.316850
O14	O	-0.244238	0.548690	-0.244011
O15	O	-0.189106	0.676755	-0.316871
O16	O	-0.317124	0.676639	-0.188823
O17	O	-0.317099	0.621462	-0.243999
C18	C	-0.216641	0.532408	-0.216426
C19	C	-0.216632	0.482474	-0.216431
C20	C	-0.188015	0.125909	-0.245237
C21	C	-0.187979	0.313582	-0.245226
O22	O	-0.163591	0.337865	-0.269715
N23	N	-0.216661	0.337029	-0.216442
C24	C	-0.245357	0.313555	-0.187660
O25	O	-0.269755	0.337804	-0.163181
C26	C	-0.245395	0.125883	-0.187673
C27	C	-0.216707	0.102438	-0.216456
C28	C	-0.159330	0.102464	-0.274017
C29	C	-0.159338	0.055548	-0.274018
C30	C	-0.188030	0.032078	-0.245238
C31	C	-0.216715	0.055522	-0.216457
C32	C	-0.274092	0.102409	-0.158894
C33	C	-0.274100	0.055488	-0.158901
C34	C	-0.245412	0.032044	-0.187684
C35	C	-0.245415	-0.014864	-0.187677
N36	N	-0.216732	-0.038311	-0.216461
C37	C	-0.188040	-0.014840	-0.245242
C38	C	-0.245334	0.412085	-0.187655
C39	C	-0.245324	0.459003	-0.187651
C40	C	-0.187947	0.459027	-0.245218
C41	C	-0.187955	0.412108	-0.245219
C42	C	-0.216652	0.388638	-0.216439
C43	C	-0.188058	-0.113366	-0.245240
C44	C	-0.188067	-0.160286	-0.245237
C45	C	-0.245445	-0.160305	-0.187672
C46	C	-0.245435	-0.113390	-0.187674
C47	C	-0.216740	-0.089921	-0.216461
O48	O	-0.269794	-0.039176	-0.163204
O49	O	-0.163652	-0.039098	-0.269725
C50	C	-0.188007	0.172824	-0.245236
C51	C	-0.216692	0.196269	-0.216455
C52	C	-0.245384	0.172798	-0.187675
C53	C	-0.216682	0.243187	-0.216451
C54	C	-0.187990	0.266657	-0.245231
C55	C	-0.159308	0.243210	-0.274016
C56	C	-0.159315	0.196295	-0.274016
C57	C	-0.274067	0.196245	-0.158891
C58	C	-0.274056	0.243161	-0.158892
C59	C	-0.245364	0.266631	-0.187672
C60	C	-0.333412	0.649050	-0.216416
C61	C	-0.383347	0.649056	-0.216422
C62	C	-0.692990	0.677914	-0.187750
C63	C	-0.880663	0.677969	-0.187767
O64	O	-0.904928	0.702440	-0.163373
N65	N	-0.904132	0.649224	-0.216472
C66	C	-0.880679	0.620465	-0.245177
O67	O	-0.904946	0.596020	-0.269596
C68	C	-0.693007	0.620412	-0.245162
C69	C	-0.669541	0.649156	-0.216452
C70	C	-0.669524	0.706655	-0.159043
C71	C	-0.622609	0.706640	-0.159037
C72	C	-0.599159	0.677882	-0.187738
C73	C	-0.622625	0.649140	-0.216446
C74	C	-0.669555	0.591656	-0.273868
C75	C	-0.622634	0.591646	-0.273863
C76	C	-0.599168	0.620390	-0.245153
C77	C	-0.552260	0.620367	-0.245141
N78	N	-0.528792	0.649112	-0.216437
C79	C	-0.552242	0.677869	-0.187735
C80	C	-0.979209	0.620494	-0.245183
C81	C	-1.026127	0.620507	-0.245186
C82	C	-1.026109	0.678012	-0.187777
C83	C	-0.979190	0.677996	-0.187772
C84	C	-0.955741	0.649239	-0.216478
C85	C	-0.453716	0.677834	-0.187725
C86	C	-0.406796	0.677814	-0.187720
C87	C	-0.406819	0.620311	-0.245131
C88	C	-0.453734	0.620329	-0.245134
C89	C	-0.477182	0.649094	-0.216429
O90	O	-0.527966	0.595912	-0.269527
O91	O	-0.527966	0.702318	-0.163327
C92	C	-0.739906	0.677930	-0.187756
C93	C	-0.763372	0.649188	-0.216463
C94	C	-0.739922	0.620430	-0.245165
C95	C	-0.810289	0.649200	-0.216467
C96	C	-0.833739	0.677958	-0.187765
C97	C	-0.810271	0.706703	-0.159060
C98	C	-0.763355	0.706687	-0.159054
C99	C	-0.763390	0.591685	-0.273870
C100	C	-0.810306	0.591703	-0.273873
C101	C	-0.833755	0.620461	-0.245171
C102	C	-0.099511	0.649225	-0.216471
C103	C	-0.049577	0.649264	-0.216484
C104	C	-0.216686	0.649143	-0.333617
C105	C	-0.216684	0.649148	-0.383551
C106	C	-0.216738	0.766309	-0.216451
C107	C	-0.216759	0.816244	-0.216457
C108	C	-0.187887	0.677935	-0.693209
C109	C	-0.187849	0.677957	-0.880882
O110	O	-0.163407	0.702399	-0.905159
N111	N	-0.216564	0.649208	-0.904337
C112	C	-0.245288	0.620449	-0.880870
O113	O	-0.269708	0.595993	-0.905126
C114	C	-0.245324	0.620424	-0.693198
C115	C	-0.216610	0.649179	-0.669746
C116	C	-0.159175	0.706687	-0.669757
C117	C	-0.159187	0.706683	-0.622841
C118	C	-0.187910	0.677927	-0.599378
C119	C	-0.216622	0.649175	-0.622830
C120	C	-0.274045	0.591663	-0.669732
C121	C	-0.274051	0.591659	-0.622811
C122	C	-0.245337	0.620414	-0.599359
C123	C	-0.245356	0.620415	-0.552451
N124	N	-0.216642	0.649164	-0.528997
C125	C	-0.187918	0.677920	-0.552460
C126	C	-0.245268	0.620464	-0.979401
C127	C	-0.245260	0.620471	-1.026319
C128	C	-0.187820	0.677979	-1.026327
C129	C	-0.187830	0.677974	-0.979409
C130	C	-0.216553	0.649213	-0.955946
C131	C	-0.187945	0.677910	-0.453934
C132	C	-0.187961	0.677904	-0.407015
C133	C	-0.245399	0.620395	-0.407010
C134	C	-0.245385	0.620401	-0.453926
C135	C	-0.216655	0.649160	-0.477386
O136	O	-0.269782	0.595982	-0.528146
O137	O	-0.163495	0.702365	-0.528196
C138	C	-0.187875	0.677939	-0.740124
C139	C	-0.216587	0.649187	-0.763577
C140	C	-0.245310	0.620431	-0.740113
C141	C	-0.216579	0.649194	-0.810494
C142	C	-0.187856	0.677950	-0.833958
C143	C	-0.159141	0.706699	-0.810503
C144	C	-0.159152	0.706695	-0.763588
C145	C	-0.274025	0.591682	-0.763568
C146	C	-0.274011	0.591689	-0.810483
C147	C	-0.245288	0.620445	-0.833947
C148	C	-0.216661	0.649145	-0.099716
C149	C	-0.216536	0.649227	-0.049782
H150	H	-0.164704	-0.179372	-0.268675
C151	C	-0.276418	0.386549	-0.156379
C152	C	-0.250946	0.359601	-0.127637
C153	C	-0.279564	0.336068	-0.098823
H154	H	-0.293507	0.407184	-0.139194
H155	H	-0.296017	0.368222	-0.173516
H156	H	-0.231355	0.377926	-0.110502
H157	H	-0.233859	0.338957	-0.144810
H158	H	-0.299164	0.317741	-0.115960
H159	H	-0.296652	0.356706	-0.081641
H160	H	-0.262287	0.317777	-0.079321
C161	C	-0.156726	0.709244	-0.953923
C162	C	-0.182175	0.738024	-0.926992
C163	C	-0.153535	0.766838	-0.903516
H164	H	-0.137138	0.692122	-0.935588
H165	H	-0.139627	0.726396	-0.974606
H166	H	-0.199267	0.720873	-0.906312
H167	H	-0.201762	0.755155	-0.945317
H168	H	-0.136436	0.783991	-0.924198
H169	H	-0.133949	0.749713	-0.885182
H170	H	-0.170798	0.786372	-0.885243
C171	C	-0.953836	0.589216	-0.276364
C172	C	-0.984436	0.564039	-0.301490
C173	C	-0.961080	0.535215	-0.330213
H174	H	-0.935512	0.606327	-0.295997
H175	H	-0.935564	0.569624	-0.259169
H176	H	-1.002700	0.583629	-0.318685
H177	H	-1.002761	0.546919	-0.281869
H178	H	-0.942808	0.515623	-0.313017
H179	H	-0.942757	0.552329	-0.349842
H180	H	-0.981839	0.518126	-0.347261
H181	H	-0.387719	0.596895	-0.268498
H182	H	-0.268804	-0.179424	-0.164238
H183	H	-0.164594	0.393023	-0.268656
C184	C	-0.835699	0.560475	-0.305095
C185	C	-0.805115	0.535299	-0.330236
C186	C	-0.828489	0.506536	-0.359009
H187	H	-0.854027	0.540877	-0.287949
H188	H	-0.853969	0.577645	-0.324713
H189	H	-0.786853	0.518131	-0.310622
H190	H	-0.786786	0.554886	-0.347392
H191	H	-0.846759	0.523705	-0.378627
H192	H	-0.846815	0.486940	-0.341860
H193	H	-0.807741	0.489453	-0.376074
C194	C	-0.127926	0.737842	-0.597413
C195	C	-0.083476	0.728077	-0.608835
C196	C	-0.054660	0.756768	-0.585421
H197	H	-0.134449	0.768039	-0.605089
H198	H	-0.132005	0.733725	-0.566103
H199	H	-0.079400	0.732199	-0.640138
H200	H	-0.076939	0.697886	-0.601158
H201	H	-0.058739	0.752651	-0.554112
H202	H	-0.061187	0.786963	-0.593099
H203	H	-0.024498	0.750144	-0.593165
C204	C	-0.694943	0.560432	-0.305091
C205	C	-0.664355	0.535260	-0.330232
C206	C	-0.687725	0.506495	-0.359006
H207	H	-0.713268	0.540831	-0.287946
H208	H	-0.713214	0.577600	-0.324709
H209	H	-0.646091	0.518093	-0.310617
H210	H	-0.646029	0.554849	-0.347387
H211	H	-0.705997	0.523662	-0.378624
H212	H	-0.706050	0.486897	-0.341857
H213	H	-0.666976	0.489415	-0.376071
C214	C	-0.305281	0.560519	-0.695206
C215	C	-0.334095	0.585931	-0.722129
C216	C	-0.362884	0.557256	-0.745595
H217	H	-0.288142	0.540947	-0.713546
H218	H	-0.322410	0.543404	-0.674517
H219	H	-0.316968	0.603038	-0.742816
H220	H	-0.351244	0.605502	-0.703800
H221	H	-0.380012	0.540141	-0.724906
H222	H	-0.345741	0.537685	-0.763932
H223	H	-0.382440	0.574494	-0.763862
H224	H	-0.135755	0.730115	-0.829615
C225	C	-0.695053	0.737824	-0.127882
C226	C	-0.722044	0.712439	-0.099069
C227	C	-0.745576	0.741144	-0.070370
H228	H	-0.674418	0.754964	-0.110743
H229	H	-0.713352	0.757372	-0.145100
H230	H	-0.703747	0.692899	-0.081852
H231	H	-0.742687	0.695301	-0.116195
H232	H	-0.763874	0.760692	-0.087589
H233	H	-0.724937	0.758282	-0.053235
H234	H	-0.763894	0.723925	-0.050820
H235	H	-0.960087	0.701402	-0.164394
C236	C	-0.479134	0.589104	-0.276352
C237	C	-0.448553	0.563923	-0.301493
C238	C	-0.471930	0.535162	-0.330265
H239	H	-0.497463	0.569508	-0.259205
H240	H	-0.497402	0.606274	-0.295970
H241	H	-0.430292	0.546754	-0.281878
H242	H	-0.430222	0.583507	-0.318649
H243	H	-0.490199	0.552332	-0.349882
H244	H	-0.490259	0.515569	-0.313114
H245	H	-0.451185	0.518076	-0.347329
C246	C	-0.156748	0.484434	-0.276485
C247	C	-0.131622	0.453864	-0.301692
C248	C	-0.102877	0.477254	-0.330497
H249	H	-0.173914	0.502740	-0.296063
H250	H	-0.137120	0.502726	-0.259345
H251	H	-0.151248	0.435579	-0.318831
H252	H	-0.114447	0.435557	-0.282126
H253	H	-0.083249	0.495547	-0.313356
H254	H	-0.120047	0.495560	-0.350072
H255	H	-0.085823	0.456517	-0.347600
C256	C	-0.128154	0.170925	-0.305319
C257	C	-0.103037	0.201530	-0.330528
C258	C	-0.074330	0.178180	-0.359375
H259	H	-0.108515	0.152620	-0.288223
H260	H	-0.145360	0.152635	-0.324890
H261	H	-0.085831	0.219813	-0.310960
H262	H	-0.122664	0.219836	-0.347633
H263	H	-0.091536	0.159890	-0.378946
H264	H	-0.054694	0.159875	-0.342276
H265	H	-0.057287	0.198941	-0.376486
H266	H	-0.297416	0.568265	-0.744469
H267	H	-0.135980	0.036464	-0.297458
H268	H	-0.268679	0.478088	-0.164208
C269	C	-0.156853	-0.087972	-0.276511
C270	C	-0.131729	-0.118553	-0.301705
C271	C	-0.102973	-0.095177	-0.330510
H272	H	-0.174011	-0.069666	-0.296097
H273	H	-0.137224	-0.069679	-0.259372
H274	H	-0.151356	-0.136838	-0.318843
H275	H	-0.114562	-0.136860	-0.282131
H276	H	-0.083344	-0.076884	-0.313370
H277	H	-0.120135	-0.076872	-0.350093
H278	H	-0.085920	-0.115923	-0.347604
C279	C	-0.156734	0.709141	-0.381634
C280	C	-0.131569	0.734315	-0.412228
C281	C	-0.102794	0.763088	-0.388866
H282	H	-0.173880	0.728741	-0.363331
H283	H	-0.137132	0.691980	-0.363340
H284	H	-0.151168	0.751474	-0.430514
H285	H	-0.114413	0.714726	-0.430532
H286	H	-0.083192	0.745927	-0.370572
H287	H	-0.119944	0.782685	-0.370563
H288	H	-0.085713	0.780169	-0.409620
H289	H	-1.045209	0.701427	-0.164407
H290	H	-1.045229	0.597097	-0.268560
C291	C	-0.597151	0.560497	-0.305085
C292	C	-0.570194	0.585907	-0.333907
C293	C	-0.546718	0.557229	-0.362678
H294	H	-0.578832	0.540919	-0.287934
H295	H	-0.617834	0.543390	-0.322209
H296	H	-0.549514	0.603007	-0.316785
H297	H	-0.588502	0.605485	-0.351068
H298	H	-0.567401	0.540122	-0.379802
H299	H	-0.528402	0.537652	-0.345523
H300	H	-0.528429	0.574466	-0.382240
H301	H	-0.135965	0.121569	-0.297456
C302	C	-0.305276	0.170744	-0.127714
C303	C	-0.334125	0.143817	-0.153095
C304	C	-0.362885	0.120327	-0.124388
H305	H	-0.288118	0.152405	-0.108160
H306	H	-0.322380	0.191419	-0.110582
H307	H	-0.317022	0.123145	-0.170220
H308	H	-0.351292	0.162145	-0.172649
H309	H	-0.379990	0.141001	-0.107256
H310	H	-0.345724	0.101990	-0.104835
H311	H	-0.382465	0.102057	-0.141605
C312	C	-0.127930	0.737836	-0.695248
C313	C	-0.099107	0.712432	-0.722176
C314	C	-0.070313	0.741115	-0.745656
H315	H	-0.145065	0.757412	-0.713586
H316	H	-0.110809	0.754947	-0.674568
H317	H	-0.116227	0.695329	-0.742854
H318	H	-0.081962	0.692858	-0.703850
H319	H	-0.053192	0.758226	-0.724976
H320	H	-0.087452	0.760689	-0.763992
H321	H	-0.050750	0.723883	-0.763927
H322	H	-0.135943	0.262328	-0.297448
C323	C	-0.305263	0.560492	-0.835883
C324	C	-0.349719	0.570229	-0.824457
C325	C	-0.378516	0.541494	-0.847839
H326	H	-0.301208	0.564579	-0.867194
H327	H	-0.298701	0.530306	-0.828176
H328	H	-0.356279	0.600408	-0.832167
H329	H	-0.353788	0.566139	-0.793150
H330	H	-0.371954	0.511308	-0.840132
H331	H	-0.374457	0.545583	-0.879149
H332	H	-0.408682	0.548094	-0.840087
C333	C	-0.835817	0.737923	-0.127961
C334	C	-0.881927	0.731793	-0.134129
C335	C	-0.905476	0.760555	-0.105501
H336	H	-0.828210	0.731411	-0.097744
H337	H	-0.828125	0.768106	-0.134580
H338	H	-0.889615	0.701617	-0.127506
H339	H	-0.889547	0.738308	-0.164339
H340	H	-0.897784	0.790739	-0.112121
H341	H	-0.897865	0.754041	-0.075287
H342	H	-0.936764	0.756403	-0.109685
C343	C	-0.305254	0.268531	-0.127622
C344	C	-0.330390	0.237928	-0.102429
C345	C	-0.359141	0.261281	-0.073627
H346	H	-0.288092	0.286836	-0.108035
H347	H	-0.324876	0.286821	-0.144764
H348	H	-0.310771	0.219645	-0.085289
H349	H	-0.347562	0.219622	-0.122004
H350	H	-0.378762	0.279571	-0.090769
H351	H	-0.341975	0.279585	-0.054044
H352	H	-0.376202	0.240520	-0.056533
C353	C	-0.305166	0.560378	-0.597318
C354	C	-0.279727	0.531590	-0.570389
C355	C	-0.308376	0.502765	-0.546905
H356	H	-0.324763	0.577492	-0.578980
H357	H	-0.322254	0.543231	-0.617996
H358	H	-0.262646	0.548735	-0.549713
H359	H	-0.260131	0.514466	-0.588715
H360	H	-0.325464	0.485619	-0.567583
H361	H	-0.327972	0.519883	-0.528570
H362	H	-0.291119	0.483227	-0.528634
H363	H	-0.297452	0.121490	-0.135456
C364	C	-0.305330	0.030065	-0.127678
C365	C	-0.349790	0.041481	-0.137376
C366	C	-0.378570	0.018075	-0.108619
H367	H	-0.301290	-0.001243	-0.131770
H368	H	-0.298737	0.037759	-0.097497
H369	H	-0.356380	0.033784	-0.167550
H370	H	-0.353844	0.072784	-0.133281
H371	H	-0.371977	0.025769	-0.078438
H372	H	-0.374526	-0.013232	-0.112714
H373	H	-0.408739	0.025820	-0.115192
C374	C	-0.156646	0.709146	-1.051888
C375	C	-0.162778	0.702984	-1.097995
C376	C	-0.134063	0.731678	-1.121557
H377	H	-0.163198	0.739346	-1.044260
H378	H	-0.126451	0.702583	-1.044228
H379	H	-0.192966	0.709550	-1.105652
H380	H	-0.156223	0.672790	-1.105637
H381	H	-0.103868	0.725115	-1.113897
H382	H	-0.140617	0.761876	-1.113926
H383	H	-0.138217	0.727498	-1.152843
C384	C	-0.381377	0.708998	-0.156476
C385	C	-0.392827	0.699259	-0.112020
C386	C	-0.369426	0.727980	-0.083227
H387	H	-0.350069	0.704901	-0.160519
H388	H	-0.389053	0.739188	-0.163054
H389	H	-0.385148	0.669076	-0.105444
H390	H	-0.424131	0.703359	-0.107962
H391	H	-0.377102	0.758170	-0.089805
H392	H	-0.338119	0.723880	-0.087274
H393	H	-0.377194	0.721379	-0.053061
H394	H	-0.268770	0.596991	-0.473021
H395	H	-0.268791	-0.094300	-0.164232
C396	C	-0.276455	0.589205	-1.051697
C397	C	-0.301601	0.564014	-1.021101
C398	C	-0.330337	0.535201	-1.044461
H399	H	-0.296075	0.606325	-1.070001
H400	H	-0.259269	0.569622	-1.069990
H401	H	-0.318786	0.583595	-1.002816
H402	H	-0.281993	0.546885	-1.002796
H403	H	-0.313151	0.515617	-1.062754
H404	H	-0.349954	0.552324	-1.062764
H405	H	-0.347399	0.518102	-1.023705
H406	H	-0.472801	0.701258	-0.164352
H407	H	-0.603506	0.730046	-0.135660
C408	C	-0.276532	0.589191	-0.381449
C409	C	-0.270383	0.595335	-0.335342
C410	C	-0.299048	0.566590	-0.311780
H411	H	-0.306739	0.595709	-0.389078
H412	H	-0.269936	0.559002	-0.389108
H413	H	-0.276983	0.625516	-0.327685
H414	H	-0.240183	0.588813	-0.327699
H415	H	-0.292452	0.536402	-0.319440
H416	H	-0.329253	0.573111	-0.319413
H417	H	-0.294877	0.570752	-0.280494
H418	H	-0.744253	0.730093	-0.135676
H419	H	-0.744302	0.568268	-0.297242
H420	H	-0.164549	0.701326	-0.473031
H421	H	-0.268660	0.597044	-0.960302
H422	H	-0.135771	0.730110	-0.744497
