data_functionalizedCrystal
_audit_creation_method	'MofGen! by Chris Wilmer'
_symmetry_space_group_name_H-M	'P1'
_symmetry_Int_Tables_number	1
_symmetry_cell_setting	triclinic
loop_
_symmetry_equiv_pos_as_xyz
  x,y,z
_cell_length_a	15.538191
_cell_length_b	17.019294
_cell_length_c	14.185569
_cell_angle_alpha	73.120776
_cell_angle_beta	97.875798
_cell_angle_gamma	65.378207
loop_
_atom_site_label
_atom_site_type_symbol
_atom_site_fract_x
_atom_site_fract_y
_atom_site_fract_z
O1	O	1.234131	-0.238210	-0.062856
O2	O	0.957679	-0.144768	-0.070926
O3	O	1.106220	-0.311499	-0.056520
O4	O	1.085590	-0.071479	-0.077262
O5	O	1.150100	-0.360748	0.114570
O6	O	1.001559	-0.194018	0.100164
O7	O	1.278011	-0.287460	0.108234
Cu8	Cu	1.143792	-0.245235	0.119821
Cu9	Cu	1.091898	-0.186992	-0.082513
O10	O	1.129470	-0.120729	0.093828
C11	C	0.944294	-0.159616	0.013775
C12	C	0.839037	-0.130495	0.011260
C13	C	1.128243	-0.366091	0.031613
C14	C	1.128480	-0.455383	0.039323
C15	C	0.558036	-0.419805	0.036246
C16	C	0.459127	-0.392420	0.033879
C17	C	0.433067	-0.238389	0.020568
C18	C	0.531977	-0.265762	0.022939
C19	C	0.594454	-0.356471	0.030777
C20	C	0.568396	-0.202428	0.017470
C21	C	0.667296	-0.229798	0.019836
C22	C	0.729777	-0.320502	0.027671
C23	C	0.693354	-0.383841	0.033143
C24	C	0.505915	-0.111718	0.009625
C25	C	0.542333	-0.048384	0.004156
C26	C	0.641237	-0.075756	0.006529
C27	C	0.703719	-0.166459	0.014363
C28	C	0.677660	-0.012417	0.001056
C29	C	0.776561	-0.039787	0.003422
C30	C	0.802619	-0.193829	0.016729
C31	C	1.104674	-0.470482	-0.050315
C32	C	1.104891	-0.554379	-0.043067
C33	C	1.128921	-0.623178	0.053819
C34	C	1.152725	-0.608074	0.143464
C35	C	1.152501	-0.524175	0.136215
C36	C	1.130788	-0.877839	0.080372
C37	C	1.131013	-0.961743	0.087614
C38	C	1.083177	-0.908041	-0.098919
C39	C	1.082961	-0.824146	-0.106159
C40	C	1.106760	-0.809046	-0.016514
C41	C	1.129146	-0.708937	0.061230
C42	C	1.106528	-0.723287	-0.023926
C43	C	1.291395	-0.272610	0.023531
C44	C	1.396650	-0.301730	0.026039
C45	C	1.107446	-0.066135	0.005693
C46	C	1.107208	0.023158	-0.002024
N47	N	1.180297	-0.286203	0.262132
N48	N	1.055400	-0.146033	-0.224823
C49	C	0.948146	-0.025704	0.607274
C50	C	0.975806	-0.056733	0.714976
C51	C	1.107364	-0.204340	0.727691
C52	C	1.079712	-0.173325	0.619987
C53	C	1.000104	-0.084006	0.559787
C54	C	1.131670	-0.231627	0.572501
C55	C	1.104024	-0.200612	0.464806
C56	C	1.024420	-0.111295	0.404599
C57	C	0.972458	-0.052991	0.452093
C58	C	1.211282	-0.320943	0.632703
C59	C	1.263240	-0.379245	0.585216
C60	C	1.235590	-0.348233	0.477520
C61	C	1.155986	-0.258916	0.417313
C62	C	1.287552	-0.406537	0.430026
C63	C	1.259906	-0.375522	0.322332
C64	C	1.128340	-0.227902	0.309618
H65	H	0.810304	-0.342781	0.029583
H66	H	1.085112	-0.414471	-0.129211
H67	H	1.086956	-0.667264	-0.102811
H68	H	1.148715	-0.764963	0.140116
H69	H	1.352376	-0.479258	0.479055
H70	H	1.063508	-0.155173	0.260601
H71	H	0.382185	-0.164533	0.014182
C72	C	0.994004	-0.077172	0.286137
H73	H	0.939157	-0.015625	0.257087
H74	H	0.975986	-0.118098	0.265913
H75	H	1.048107	-0.076724	0.262326
H76	H	0.853493	-0.267695	0.023118
H77	H	1.171873	-0.511880	0.209208
H78	H	0.425384	-0.089436	0.007696
C79	C	0.419071	-0.462094	0.039897
H80	H	0.470449	-0.520036	0.044910
H81	H	0.365730	-0.437443	-0.020411
H82	H	0.396336	-0.471799	0.098922
H83	H	0.491451	0.025472	-0.002230
C84	C	0.884887	0.045258	0.385866
H85	H	0.857901	0.075544	0.429569
H86	H	0.835313	0.039739	0.345382
H87	H	0.907435	0.081111	0.341798
C88	C	0.860576	0.072545	0.541047
H89	H	0.833590	0.102831	0.584750
H90	H	0.811002	0.067026	0.500563
H91	H	0.883124	0.108398	0.496979
C92	C	1.350800	-0.477492	0.651441
H93	H	1.359821	-0.487617	0.722382
H94	H	1.409358	-0.482058	0.634608
H95	H	1.337226	-0.523418	0.638200
C96	C	1.056516	-0.748468	-0.212735
H97	H	1.042359	-0.769472	-0.265084
H98	H	1.110852	-0.736914	-0.217518
H99	H	1.000005	-0.692328	-0.221358
H100	H	0.933489	-0.009248	0.753633
C101	C	1.194924	-0.302587	0.793916
H102	H	1.203945	-0.312712	0.864857
H103	H	1.253482	-0.307153	0.777083
H104	H	1.181350	-0.348513	0.780674
H105	H	1.302216	-0.422998	0.283668
H106	H	0.744229	-0.457706	0.039532
H107	H	1.085510	-0.566669	-0.116060
C108	C	0.626765	-0.519582	0.044863
H109	H	0.590912	-0.553384	0.047776
H110	H	0.681193	-0.550637	0.105721
H111	H	0.650576	-0.516274	-0.013613
H112	H	1.063799	-0.920345	-0.171902
H113	H	0.626775	0.061441	-0.005336
C114	C	1.157436	-1.037417	0.194194
H115	H	1.171568	-1.016405	0.246545
H116	H	1.213941	-1.093561	0.202830
H117	H	1.103086	-1.048959	0.198959
C118	C	0.816625	0.029878	-0.002594
H119	H	0.765254	0.087817	-0.007591
H120	H	0.839363	0.039575	-0.061611
H121	H	0.869967	0.005223	0.057723
H122	H	1.150186	-0.865565	0.153368
C123	C	1.179161	-0.683751	0.250038
H124	H	1.175896	-0.735886	0.241519
H125	H	1.133533	-0.658741	0.285248
H126	H	1.244381	-0.703329	0.289091
H127	H	1.233792	-0.346190	0.720394
