data_functionalizedCrystal
_audit_creation_method	'MofGen! by Chris Wilmer'
_symmetry_space_group_name_H-M	'P1'
_symmetry_Int_Tables_number	1
_symmetry_cell_setting	triclinic
loop_
_symmetry_equiv_pos_as_xyz
  x,y,z
_cell_length_a	12.759401
_cell_length_b	12.827892
_cell_length_c	12.759393
_cell_angle_alpha	90.029782
_cell_angle_beta	90.020938
_cell_angle_gamma	90.016917
loop_
_atom_site_label
_atom_site_type_symbol
_atom_site_fract_x
_atom_site_fract_y
_atom_site_fract_z
Zn1	Zn	1.606261	-0.415940	0.594025
Zn2	Zn	1.606150	-0.590717	0.418348
Zn3	Zn	1.430560	-0.415996	0.418361
Zn4	Zn	1.430550	-0.590644	0.593985
O5	O	1.518380	-0.503324	0.506180
O6	O	1.753268	-0.439132	0.570733
O7	O	1.582816	-0.567594	0.271328
O8	O	1.453918	-0.269752	0.441685
O9	O	1.753186	-0.567540	0.441663
O10	O	1.583005	-0.269711	0.570745
O11	O	1.453810	-0.439227	0.271338
O12	O	1.283538	-0.439156	0.441646
O13	O	1.453900	-0.567416	0.741011
O14	O	1.283530	-0.567469	0.570676
O15	O	1.582995	-0.439061	0.741041
O16	O	1.582806	-0.736944	0.441624
O17	O	1.453793	-0.736890	0.570664
C18	C	1.245413	-0.503312	0.506159
C19	C	1.128636	-0.503331	0.506175
C20	C	1.073798	-0.570246	0.573255
C21	C	0.964074	-0.570250	0.573276
C22	C	0.964036	-0.436422	0.439127
C23	C	1.073758	-0.436413	0.439112
C24	C	0.814177	-0.607747	0.697137
C25	C	0.759335	-0.674678	0.764208
C26	C	0.794932	-0.776661	0.780157
C27	C	0.885369	-0.811735	0.729020
C28	C	0.940205	-0.744809	0.661941
C29	C	0.904610	-0.642811	0.646012
C30	C	1.223657	-0.398927	0.315250
C31	C	1.278495	-0.332006	0.248165
C32	C	1.242901	-0.230021	0.232205
C33	C	1.152461	-0.194951	0.283324
C34	C	1.097622	-0.261872	0.350409
C35	C	1.133224	-0.363856	0.366370
C36	C	1.518315	-0.774834	0.506161
C37	C	1.518383	-0.890987	0.506188
C38	C	1.582298	-0.942764	0.442406
C39	C	1.582370	-1.062814	0.442433
C40	C	1.792414	-0.503338	0.506201
C41	C	1.909190	-0.503344	0.506210
C42	C	1.518459	-0.503224	0.780213
C43	C	1.518492	-0.503181	0.896990
C44	C	1.518475	-0.230754	0.506221
C45	C	1.518515	-0.114601	0.506239
C46	C	1.518363	-0.503349	0.233212
C47	C	1.518533	-0.503097	0.116436
C48	C	1.585717	-0.436336	0.951869
C49	C	1.585735	-0.436291	1.061593
C50	C	1.451301	-0.569945	1.061549
C51	C	1.451278	-0.569984	0.951827
C52	C	1.623348	-0.312997	1.211570
C53	C	1.690589	-0.246161	1.266452
C54	C	1.793102	-0.230136	1.230861
C55	C	1.828395	-0.280963	1.140388
C56	C	1.761160	-0.347806	1.085511
C57	C	1.658632	-0.363811	1.121101
C58	C	1.413676	-0.693280	0.801849
C59	C	1.346445	-0.760130	0.746969
C60	C	1.243930	-0.776165	0.782559
C61	C	1.208641	-0.725357	0.873035
C62	C	1.275872	-0.658507	0.927914
C63	C	1.378385	-0.642470	0.892317
H64	H	1.013836	-0.773365	0.620305
H65	H	1.463788	-1.070082	0.560844
H66	H	0.785193	-0.524701	0.684168
H67	H	1.189195	-0.830609	0.737871
H68	H	1.463720	-0.935536	0.560818
H69	H	1.247131	-0.617137	1.001585
H70	H	1.497149	-0.680222	0.772857
O71	O	1.647615	-0.889789	0.377196
C72	C	1.780935	-0.901048	0.243962
C73	C	1.707036	-0.961167	0.317780
H74	H	1.828981	-0.958731	0.195889
H75	H	1.835842	-0.849890	0.292225
H76	H	1.732628	-0.850003	0.189067
H77	H	1.755258	-1.012268	0.372690
H78	H	1.652126	-1.012260	0.269452
O79	O	1.927919	-0.265390	1.105643
C80	C	2.037921	-0.205594	0.964450
C81	C	1.925156	-0.223195	1.003663
H82	H	2.035725	-0.171457	0.882004
H83	H	2.081611	-0.283093	0.963106
H84	H	2.079915	-0.149131	1.019253
H85	H	1.883073	-0.279621	0.948895
H86	H	1.881546	-0.145654	1.005033
H87	H	1.637087	-1.107341	0.387824
O88	O	1.650887	-0.371289	0.898648
C89	C	1.701978	-0.193544	0.865172
C90	C	1.628094	-0.267097	0.925486
H91	H	1.683591	-0.109291	0.886865
H92	H	1.690417	-0.204959	0.777310
H93	H	1.786685	-0.211944	0.886747
H94	H	1.543358	-0.248743	0.903999
H95	H	1.639746	-0.255669	1.013333
H96	H	1.789896	-0.389192	1.011853
O97	O	1.117902	-0.095903	0.267636
C98	C	1.056301	0.031007	0.142830
C99	C	1.095445	-0.081184	0.160453
H100	H	1.038113	0.042936	0.056180
H101	H	1.119462	0.088555	0.168353
H102	H	0.982271	0.044567	0.190937
H103	H	1.169456	-0.094844	0.112353
H104	H	1.032219	-0.138674	0.134962
O105	O	1.858380	-0.165308	1.284338
C106	C	1.945499	-0.128974	1.447925
C107	C	1.871540	-0.202459	1.387489
H108	H	1.956179	-0.158995	1.531326
H109	H	1.910330	-0.047318	1.450259
H110	H	2.024807	-0.126243	1.406897
H111	H	1.792215	-0.205279	1.428469
H112	H	1.906793	-0.284077	1.385147
O113	O	1.386116	-0.634805	1.114983
C114	C	1.326526	-0.693937	1.283996
C115	C	1.400417	-0.620444	1.223617
H116	H	1.338047	-0.682336	1.371837
H117	H	1.344940	-0.778233	1.262489
H118	H	1.241824	-0.675597	1.262349
H119	H	1.485144	-0.638690	1.245231
H120	H	1.381913	-0.536170	1.245129
H121	H	1.661844	-0.204778	1.340116
H122	H	0.919341	-0.381941	0.384525
H123	H	1.539872	-0.326030	1.240552
O124	O	1.109011	-0.741010	0.907445
C125	C	0.944389	-0.828631	0.878809
C126	C	1.057184	-0.810971	0.839712
H127	H	0.902461	-0.885211	0.824078
H128	H	0.900636	-0.751166	0.880045
H129	H	0.946592	-0.862646	0.961307
H130	H	1.055078	-0.776990	0.757202
H131	H	1.100891	-0.888462	0.838553
O132	O	1.380563	-0.809433	0.658987
C133	C	1.356289	-0.835969	0.473584
C134	C	1.317528	-0.780093	0.573149
H135	H	1.305357	-0.812252	0.404155
H136	H	1.351145	-0.923926	0.485260
H137	H	1.441121	-0.813040	0.457620
H138	H	1.232687	-0.802938	0.589170
H139	H	1.322749	-0.692149	0.561423
H140	H	1.118476	-0.624732	0.627864
H141	H	0.914338	-0.894784	0.742002
H142	H	0.685702	-0.646111	0.805845
O143	O	1.296317	-0.165135	0.167032
C144	C	1.444117	-0.144321	0.051402
C145	C	1.383744	-0.217904	0.125196
H146	H	1.514802	-0.186963	0.017540
H147	H	1.471803	-0.073035	0.097073
H148	H	1.390386	-0.118505	-0.015099
H149	H	1.437412	-0.243800	0.191711
H150	H	1.356044	-0.289137	0.079451
H151	H	1.023986	-0.233307	0.392040
O152	O	0.741564	-0.841529	0.845382
C153	C	0.593680	-0.862384	0.960896
C154	C	0.654033	-0.788815	0.887072
H155	H	0.522886	-0.819802	0.994606
H156	H	0.647302	-0.888166	1.027500
H157	H	0.566133	-0.933686	0.915170
H158	H	0.681588	-0.717464	0.932708
H159	H	0.600372	-0.763118	0.820468
H160	H	1.352136	-0.360569	0.206540
H161	H	1.252653	-0.481969	0.328248
