data_functionalizedCrystal
_audit_creation_method	'MofGen! by Chris Wilmer'
_symmetry_space_group_name_H-M	'P1'
_symmetry_Int_Tables_number	1
_symmetry_cell_setting	triclinic
loop_
_symmetry_equiv_pos_as_xyz
  x,y,z
_cell_length_a	15.297327
_cell_length_b	15.298001
_cell_length_c	12.759393
_cell_angle_alpha	99.713053
_cell_angle_beta	99.642800
_cell_angle_gamma	69.204333
loop_
_atom_site_label
_atom_site_type_symbol
_atom_site_fract_x
_atom_site_fract_y
_atom_site_fract_z
Zn1	Zn	-0.124427	-1.357846	-0.893345
Zn2	Zn	-0.279986	-1.330801	-0.743528
Zn3	Zn	-0.151356	-1.202296	-0.691684
Zn4	Zn	-0.306787	-1.175353	-0.893164
O5	O	-0.215639	-1.266574	-0.805430
O6	O	-0.122576	-1.484412	-0.895245
O7	O	-0.262977	-1.313712	-0.589632
O8	O	-0.017633	-1.245524	-0.696814
O9	O	-0.236865	-1.464543	-0.785175
O10	O	0.002151	-1.359806	-0.844974
O11	O	-0.168473	-1.219299	-0.551542
O12	O	-0.194460	-1.068568	-0.696638
O13	O	-0.282543	-1.199604	-1.040207
O14	O	-0.308655	-1.048773	-0.844664
O15	O	-0.148563	-1.333681	-1.040340
O16	O	-0.413692	-1.287587	-0.784999
O17	O	-0.433382	-1.173380	-0.894935
C18	C	-0.257389	-1.024923	-0.765006
C19	C	-0.275272	-0.921540	-0.747741
C20	C	-0.343083	-0.862640	-0.682199
C21	C	-0.359887	-0.765506	-0.665983
C22	C	-0.308877	-0.727263	-0.715301
C23	C	-0.241059	-0.786163	-0.780838
C24	C	-0.224258	-0.883306	-0.797062
C25	C	-0.190052	-0.747929	-0.830164
C26	C	-0.122234	-0.806829	-0.895701
C27	C	-0.105436	-0.903962	-0.911922
C28	C	-0.156447	-0.942206	-0.862604
C29	C	-0.206852	-0.650786	-0.813940
C30	C	-0.088028	-0.671452	-0.928803
C31	C	-0.071223	-0.768586	-0.945019
C32	C	-0.457279	-1.224650	-0.845600
C33	C	-0.560639	-1.206800	-0.862834
C34	C	-0.810826	-1.394535	-0.682678
C35	C	-0.713714	-1.411306	-0.666480
C36	C	-0.675440	-1.360181	-0.715567
C37	C	-0.734288	-1.292282	-0.780855
C38	C	-0.831410	-1.275505	-0.797047
C39	C	-0.696025	-1.241151	-0.829937
C40	C	-0.754873	-1.173252	-0.895224
C41	C	-0.851985	-1.156478	-0.911415
C42	C	-0.890259	-1.207603	-0.862327
C43	C	-0.598903	-1.257928	-0.813744
C44	C	-0.619488	-1.138898	-0.928114
C45	C	-0.716599	-1.122127	-0.944312
C46	C	0.026949	-1.308687	-0.765131
C47	C	0.130326	-1.326633	-0.747958
C48	C	-0.215539	-1.266654	-1.079460
C49	C	-0.215496	-1.266688	-1.196235
C50	C	-0.173720	-0.509170	-0.846002
C51	C	-0.155839	-0.612553	-0.863261
C52	C	-0.264681	-1.315855	-1.270924
C53	C	-0.264637	-1.315890	-1.380646
C54	C	-0.166221	-1.217583	-1.340978
C55	C	-0.166260	-1.217554	-1.231258
C56	C	-0.313917	-1.364989	-1.235900
C57	C	-0.363107	-1.414159	-1.310592
C58	C	-0.363062	-1.414194	-1.420314
C59	C	-0.313828	-1.365059	-1.455345
C60	C	-0.215662	-1.266560	-0.532465
C61	C	-0.215412	-1.266751	-0.415677
H62	H	-0.415105	-0.717556	-0.612623
H63	H	-0.384613	-0.893787	-0.642057
C64	C	-0.112074	-1.163529	-1.379512
C65	C	-0.164968	-1.083530	-1.449415
C66	C	-0.110824	-1.029472	-1.487947
C67	C	-0.003786	-1.055412	-1.456575
C68	C	0.049113	-1.135415	-1.386667
C69	C	-0.005031	-1.189473	-1.348135
H70	H	-0.244209	-1.064323	-1.472642
H71	H	-0.149984	-0.970248	-1.539698
H72	H	0.036294	-1.015395	-1.485098
H73	H	0.128354	-1.154621	-1.363440
H74	H	0.034129	-1.248697	-1.296385
C75	C	-0.417265	-1.468204	-1.272062
C76	C	-0.417323	-1.468163	-1.151376
C77	C	-0.471485	-1.522207	-1.112850
C78	C	-0.525587	-1.576292	-1.195010
C79	C	-0.525530	-1.576334	-1.315704
C80	C	-0.471369	-1.522290	-1.354230
H81	H	-0.377272	-1.428125	-1.090549
H82	H	-0.471526	-1.522175	-1.023503
H83	H	-0.565680	-1.616298	-1.166490
H84	H	-0.565582	-1.616372	-1.376531
H85	H	-0.471328	-1.522322	-1.443576
H86	H	-0.126206	-1.177521	-1.170443
C87	C	-0.327354	-0.620416	-0.697457
C88	C	-0.247196	-0.582486	-0.646778
C89	C	-0.265673	-0.475634	-0.628926
C90	C	-0.364307	-0.406713	-0.661751
C91	C	-0.444472	-0.444642	-0.712433
C92	C	-0.425995	-0.551493	-0.730286
H93	H	-0.174174	-0.633506	-0.622476
H94	H	-0.206329	-0.447557	-0.591408
H95	H	-0.377985	-0.327615	-0.648536
H96	H	-0.517494	-0.393621	-0.736736
H97	H	-0.485339	-0.579570	-0.767804
H98	H	-0.050223	-0.951916	-0.965297
H99	H	-0.142766	-1.021300	-0.875800
C100	C	-0.648985	-1.485986	-0.594664
C101	C	-0.542162	-1.504434	-0.576839
C102	C	-0.477432	-1.579116	-0.505015
C103	C	-0.519525	-1.635350	-0.451016
C104	C	-0.626354	-1.616904	-0.468839
C105	C	-0.691084	-1.542222	-0.540663
H106	H	-0.510997	-1.462804	-0.616814
H107	H	-0.398350	-1.592770	-0.491822
H108	H	-0.471608	-1.690634	-0.397848
H109	H	-0.657519	-1.658533	-0.428865
H110	H	-0.770167	-1.528567	-0.553857
H111	H	-0.588327	-1.097265	-0.968083
C112	C	-0.852931	-1.450761	-0.628686
C113	C	-0.926745	-1.398936	-0.550582
C114	C	-0.968852	-1.455165	-0.496584
C115	C	-0.937145	-1.563218	-0.520689
C116	C	-0.863327	-1.615049	-0.598796
C117	C	-0.821220	-1.558821	-0.652795
H118	H	-0.950220	-1.318943	-0.532735
H119	H	-1.023498	-1.416796	-0.438763
H120	H	-0.968316	-1.604842	-0.480716
H121	H	-0.839853	-1.695042	-0.616644
H122	H	-0.766575	-1.597190	-0.710615
H123	H	-0.016006	-0.816557	-0.998380
H124	H	-0.403107	-1.454239	-1.481125
H125	H	-0.550997	-1.313212	-0.760587
H126	H	-0.046491	-0.640315	-0.968963
H127	H	-0.262071	-0.602838	-0.760580
C128	C	-0.781340	-1.047435	-1.016119
C129	C	-0.786360	-0.943992	-0.987559
C130	C	-0.851101	-0.869301	-1.059367
C131	C	-0.910822	-0.898053	-1.159734
C132	C	-0.905803	-1.001501	-1.188299
C133	C	-0.841062	-1.076192	-1.116492
H134	H	-0.742150	-0.922704	-0.913257
H135	H	-0.854816	-0.792722	-1.038220
H136	H	-0.958747	-0.842762	-1.212890
H137	H	-0.950014	-1.022789	-1.262601
H138	H	-0.837348	-1.152771	-1.137638
H139	H	-0.596367	-1.373839	-0.702374
H140	H	-0.969334	-1.193954	-0.875515
H141	H	-0.899899	-1.101179	-0.964562
H142	H	-0.313962	-1.364963	-1.146561
H143	H	-0.313787	-1.365100	-1.544690
