data_functionalizedCrystal
_audit_creation_method	'MofGen! by Chris Wilmer'
_symmetry_space_group_name_H-M	'P1'
_symmetry_Int_Tables_number	1
_symmetry_cell_setting	triclinic
loop_
_symmetry_equiv_pos_as_xyz
  x,y,z
_cell_length_a	10.654551
_cell_length_b	10.654551
_cell_length_c	8.140239
_cell_angle_alpha	89.999303
_cell_angle_beta	89.997850
_cell_angle_gamma	84.485316
loop_
_atom_site_label
_atom_site_type_symbol
_atom_site_fract_x
_atom_site_fract_y
_atom_site_fract_z
O1	O	1.667838	0.176402	-0.136581
O2	O	1.302360	0.193207	-0.136588
O3	O	1.493501	0.002065	-0.136585
O4	O	1.476697	0.367544	-0.136584
O5	O	1.493491	0.002063	0.136642
O6	O	1.302349	0.193205	0.136639
O7	O	1.667828	0.176400	0.136646
Zn8	Zn	1.485087	0.184802	0.180023
Zn9	Zn	1.485101	0.184805	-0.179965
O10	O	1.476686	0.367541	0.136643
C11	C	1.255557	0.191972	0.000024
C12	C	1.116113	0.188279	0.000021
C13	C	0.919576	0.183060	0.148959
C14	C	1.050596	0.186541	0.148960
C15	C	1.050602	0.186550	-0.148927
C16	C	0.919583	0.183079	-0.148926
C17	C	0.854067	0.181309	0.297907
C18	C	0.919569	0.183041	0.446857
C19	C	1.050589	0.186521	0.446857
C20	C	1.116108	0.188270	0.297909
C21	C	1.492262	-0.044734	0.000025
C22	C	1.488569	-0.184177	0.000013
C23	C	1.486843	-0.249688	-0.148920
C24	C	1.483363	-0.380708	-0.148912
C25	C	1.483341	-0.380696	0.148975
C26	C	1.486812	-0.249677	0.148966
C27	C	1.488600	-0.184188	-0.297872
C28	C	1.486876	-0.249699	-0.446817
C29	C	1.483395	-0.380719	-0.446810
C30	C	1.481640	-0.446228	-0.297857
C31	C	1.714631	0.177635	0.000030
C32	C	1.854074	0.181327	0.000022
C33	C	1.477926	0.414340	0.000030
C34	C	1.481618	0.553784	0.000030
N35	N	1.485086	0.184799	0.425706
N36	N	1.485111	0.184798	-0.425648
H37	H	0.866250	0.181671	-0.270204
F38	F	1.255551	0.191986	0.297917
H39	H	1.488191	-0.196333	0.270240
H40	H	0.866214	0.181627	0.568125
H41	H	1.481913	-0.434044	0.270245
H42	H	1.103958	0.187973	-0.270194
H43	H	1.491438	-0.077505	-0.297895
H44	H	1.103916	0.187944	0.568139
F45	F	0.714624	0.177606	0.297919
F46	F	1.481546	-0.450436	-0.605327
H47	H	1.478788	-0.552912	-0.297863
H48	H	1.488293	-0.196351	-0.568089
