data_functionalizedCrystal
_audit_creation_method	'MofGen! by Chris Wilmer'
_symmetry_space_group_name_H-M	'P1'
_symmetry_Int_Tables_number	1
_symmetry_cell_setting	triclinic
loop_
_symmetry_equiv_pos_as_xyz
  x,y,z
_cell_length_a	16.625548
_cell_length_b	16.120444
_cell_length_c	16.625539
_cell_angle_alpha	92.869358
_cell_angle_beta	89.979432
_cell_angle_gamma	92.927662
loop_
_atom_site_label
_atom_site_type_symbol
_atom_site_fract_x
_atom_site_fract_y
_atom_site_fract_z
Zn1	Zn	1.216382	-0.331884	-0.472171
Zn2	Zn	1.716382	0.168116	0.027829
Zn3	Zn	1.209438	-0.471309	-0.344170
Zn4	Zn	1.709438	0.028691	0.155830
Zn5	Zn	1.081542	-0.331916	-0.337353
Zn6	Zn	1.581542	0.168084	0.162647
Zn7	Zn	1.074670	-0.471261	-0.478957
Zn8	Zn	1.574670	0.028739	0.021043
O9	O	1.145508	-0.401592	-0.408163
O10	O	1.645508	0.098408	0.091837
O11	O	1.328293	-0.350386	-0.455204
O12	O	1.828293	0.149614	0.044796
O13	O	1.192443	-0.452851	-0.230435
O14	O	1.692443	0.047149	0.269565
O15	O	1.105211	-0.215245	-0.349544
O16	O	1.605211	0.284755	0.150456
O17	O	1.323192	-0.452821	-0.361162
O18	O	1.823192	0.047179	0.138838
O19	O	1.204278	-0.215222	-0.448594
O20	O	1.704278	0.284778	0.051406
O21	O	1.098478	-0.350440	-0.225427
O22	O	1.598478	0.149560	0.274573
O23	O	0.967799	-0.350393	-0.356125
O24	O	1.467799	0.149607	0.143875
O25	O	1.093498	-0.452739	-0.590888
O26	O	1.593498	0.047261	-0.090888
O27	O	0.962749	-0.452770	-0.460161
O28	O	1.462749	0.047230	0.039839
O29	O	1.197613	-0.350339	-0.585902
O30	O	1.697613	0.149661	-0.085902
O31	O	1.185779	-0.587969	-0.367743
O32	O	1.685779	-0.087969	0.132257
O33	O	1.086765	-0.587934	-0.466770
O34	O	1.586765	-0.087934	0.033230
C35	C	0.936018	-0.401580	-0.408140
C36	C	1.436018	0.098420	0.091860
C37	C	0.846396	-0.401595	-0.408150
C38	C	1.346396	0.098405	0.091850
C39	C	0.518220	-0.401601	-0.408185
C40	C	1.018220	0.098399	0.091815
C41	C	0.609529	-0.401597	-0.408172
C42	C	1.109529	0.098403	0.091828
C43	C	0.682305	-0.401599	-0.408167
C44	C	1.182305	0.098401	0.091833
C45	C	0.773620	-0.401594	-0.408156
C46	C	1.273620	0.098406	0.091844
C47	C	1.134795	-0.618202	-0.418750
C48	C	1.634795	-0.118202	0.081250
C49	C	1.130285	-0.710868	-0.423306
C50	C	1.630285	-0.210868	0.076694
C51	C	1.169099	-0.921808	-0.384700
C52	C	1.669099	-0.421808	0.115300
C53	C	1.122066	-0.880525	-0.431634
C54	C	1.622066	-0.380525	0.068366
C55	C	1.126641	-0.786119	-0.426999
C56	C	1.626641	-0.286119	0.073001
C57	C	1.164526	-1.016223	-0.389334
C58	C	1.664526	-0.516223	0.110666
C59	C	1.355816	-0.401605	-0.408187
C60	C	1.855816	0.098395	0.091813
C61	C	1.445437	-0.401610	-0.408197
C62	C	1.945437	0.098390	0.091803
C63	C	1.145564	-0.401530	-0.618469
C64	C	1.645564	0.098470	-0.118469
C65	C	1.145587	-0.401504	-0.708089
C66	C	1.645587	0.098496	-0.208089
C67	C	1.156286	-0.184137	-0.397552
C68	C	1.656286	0.315863	0.102448
C69	C	1.160878	-0.091471	-0.393030
C70	C	1.660878	0.408529	0.106970
C71	C	1.145629	-0.401410	-1.036260
C72	C	1.645629	0.098590	-0.536260
C73	C	1.145615	-0.401439	-0.944953
C74	C	1.645615	0.098561	-0.444953
C75	C	1.145609	-0.401458	-0.872177
C76	C	1.645609	0.098542	-0.372177
C77	C	1.145594	-0.401485	-0.780864
C78	C	1.645594	0.098515	-0.280864
C79	C	1.145502	-0.401594	-0.198672
C80	C	1.645502	0.098406	0.301328
C81	C	1.145646	-0.401386	-0.109041
C82	C	1.645646	0.098614	0.390959
H83	H	1.078365	-0.916083	-0.475295
H84	H	1.578365	-0.416083	0.024705
Br85	Br	1.241933	-0.862547	-0.311932
Br86	Br	1.741933	-0.362547	0.188068
