data_functionalizedCrystal
_audit_creation_method	'MofGen! by Chris Wilmer'
_symmetry_space_group_name_H-M	'P1'
_symmetry_Int_Tables_number	1
_symmetry_cell_setting	triclinic
loop_
_symmetry_equiv_pos_as_xyz
  x,y,z
_cell_length_a	12.594517
_cell_length_b	10.686285
_cell_length_c	10.685986
_cell_angle_alpha	98.412590
_cell_angle_beta	85.652413
_cell_angle_gamma	85.631355
loop_
_atom_site_label
_atom_site_type_symbol
_atom_site_fract_x
_atom_site_fract_y
_atom_site_fract_z
Zn1	Zn	1.612578	-0.450160	0.679056
Zn2	Zn	2.112578	0.049840	1.179056
Zn3	Zn	1.642056	-0.678743	0.450556
Zn4	Zn	2.142056	-0.178743	0.950556
Zn5	Zn	1.449357	-0.466516	0.466814
Zn6	Zn	1.949357	0.033484	0.966814
Zn7	Zn	1.449377	-0.662356	0.662752
Zn8	Zn	1.949377	-0.162356	1.162752
O9	O	1.538342	-0.564444	0.564795
O10	O	2.038342	-0.064444	1.064795
O11	O	1.765434	-0.480494	0.648764
O12	O	2.265434	0.019506	1.148764
O13	O	1.628822	-0.664293	0.275084
O14	O	2.128822	-0.164293	0.775084
O15	O	1.458664	-0.286723	0.508596
O16	O	1.958664	0.213277	1.008596
O17	O	1.787091	-0.648433	0.480887
O18	O	2.287091	-0.148433	0.980887
O19	O	1.578582	-0.274706	0.664529
O20	O	2.078582	0.225294	1.164529
O21	O	1.487247	-0.508371	0.287029
O22	O	1.987247	-0.008371	0.787029
O23	O	1.300414	-0.492482	0.492786
O24	O	1.800414	0.007518	0.992786
O25	O	1.458698	-0.620505	0.842543
O26	O	1.958698	-0.120505	1.342543
O27	O	1.300429	-0.636365	0.636741
O28	O	1.800429	-0.136365	1.136741
O29	O	1.578602	-0.464605	0.854522
O30	O	2.078602	0.035395	1.354522
O31	O	1.628841	-0.854192	0.465077
O32	O	2.128841	-0.354192	0.965077
O33	O	1.487281	-0.842153	0.620976
O34	O	1.987281	-0.342153	1.120976
C35	C	1.561289	-0.894226	0.539521
C36	C	2.061289	-0.394226	1.039521
C37	C	1.571200	-1.035305	0.528752
C38	C	2.071200	-0.535305	1.028752
C39	C	1.261802	-0.564421	0.564759
C40	C	1.761802	-0.064421	1.064759
C41	C	1.143497	-0.564440	0.564772
C42	C	1.643497	-0.064440	1.064772
C43	C	1.074185	-0.486053	0.486645
C44	C	1.574185	0.013947	0.986645
C45	C	1.013627	-0.604232	0.446560
C46	C	1.513627	-0.104232	0.946560
C47	C	0.993258	-0.446316	0.604874
C48	C	1.493258	0.053684	1.104874
C49	C	1.084506	-0.682683	0.524621
C50	C	1.584506	-0.182683	1.024621
C51	C	1.064133	-0.524686	0.682995
C52	C	1.564133	-0.024686	1.182995
C53	C	1.003610	-0.642941	0.642948
C54	C	1.503610	-0.142941	1.142948
C55	C	1.815962	-0.564467	0.564831
C56	C	2.315962	-0.064467	1.064831
C57	C	1.934267	-0.564477	0.564846
C58	C	2.434267	-0.064477	1.064846
C59	C	1.515364	-0.538903	0.895878
C60	C	2.015364	-0.038903	1.395878
C61	C	1.505572	-0.528019	1.036965
C62	C	2.005572	-0.028019	1.536965
C63	C	1.515333	-0.233371	0.590194
C64	C	2.015333	0.266629	1.090194
C65	C	1.505527	-0.092288	0.601018
C66	C	2.005527	0.407712	1.101018
C67	C	1.561285	-0.589793	0.235007
C68	C	2.061285	-0.089793	0.735007
C69	C	1.571258	-0.600320	0.093947
C70	C	2.071258	-0.100320	0.593947
H71	H	1.441721	-1.033146	0.671130
H72	H	1.941721	-0.533146	1.171130
Cl73	Cl	1.669710	-1.126621	0.420481
Cl74	Cl	2.169710	-0.626621	0.920481
H75	H	1.105188	-0.419842	0.420483
H76	H	1.605188	0.080158	0.920483
H77	H	0.972818	-0.709328	0.709042
H78	H	1.472818	-0.209328	1.209042
Cl79	Cl	1.098939	-0.472689	0.837271
Cl80	Cl	1.598939	0.027311	1.337271
H81	H	0.953467	-0.346421	0.638716
H82	H	1.453467	0.153579	1.138716
Cl83	Cl	0.978856	-0.656182	0.292250
Cl84	Cl	1.478856	-0.156182	0.792250
Cl85	Cl	1.145668	-0.836997	0.472122
Cl86	Cl	1.645668	-0.336997	0.972122
Cl87	Cl	1.669656	-0.708732	1.002625
Cl88	Cl	2.169656	-0.208732	1.502625
H89	H	1.441846	-0.457788	1.096124
H90	H	1.941846	0.042212	1.596124
