data_functionalizedCrystal
_audit_creation_method	'MofGen! by Chris Wilmer'
_symmetry_space_group_name_H-M	'P1'
_symmetry_Int_Tables_number	1
_symmetry_cell_setting	triclinic
loop_
_symmetry_equiv_pos_as_xyz
  x,y,z
_cell_length_a	17.699077
_cell_length_b	23.532407
_cell_length_c	16.176319
_cell_angle_alpha	89.988536
_cell_angle_beta	89.993140
_cell_angle_gamma	83.064627
loop_
_atom_site_label
_atom_site_type_symbol
_atom_site_fract_x
_atom_site_fract_y
_atom_site_fract_z
O1	O	1.003716	0.072004	-0.068744
O2	O	0.783290	0.081377	-0.068749
O3	O	0.900150	-0.006222	-0.068731
O4	O	0.886856	0.159603	-0.068762
O5	O	0.900134	-0.006228	0.068762
O6	O	0.783274	0.081372	0.068744
O7	O	1.003700	0.071998	0.068749
Cu8	Cu	0.893486	0.076684	0.081301
Cu9	Cu	0.893504	0.076691	-0.081301
O10	O	0.886840	0.159598	0.068731
C11	C	0.755086	0.081039	-0.000003
C12	C	0.671073	0.080033	-0.000004
C13	C	0.631599	0.079556	0.074944
C14	C	0.552662	0.078602	0.074945
C15	C	0.513198	0.078129	-0.000003
C16	C	0.552678	0.078604	-0.074957
C17	C	0.631615	0.079554	-0.074958
C18	C	0.234334	0.074772	-0.074958
C19	C	0.155391	0.073823	-0.074952
C20	C	0.155381	0.073819	0.074945
C21	C	0.234318	0.074770	0.074944
C22	C	0.273791	0.075242	-0.000009
C23	C	0.359384	0.076275	-0.000010
C24	C	0.427606	0.077099	-0.000004
C25	C	0.899803	-0.027442	0.000017
C26	C	0.898786	-0.090662	0.000024
C27	C	0.961557	-0.489586	-0.000020
C28	C	0.960612	-0.548989	-0.000026
O29	O	1.018802	-0.585567	-0.000056
N30	N	0.891138	-0.571813	-0.000027
C31	C	0.822606	-0.535231	-0.000031
O32	O	0.763427	-0.560100	-0.000033
C33	C	0.823552	-0.475830	-0.000030
C34	C	0.893030	-0.453009	-0.000021
C35	C	1.031029	-0.466764	-0.000012
C36	C	1.031975	-0.407365	-0.000004
C37	C	0.963448	-0.370788	-0.000004
C38	C	0.893975	-0.393610	-0.000013
C39	C	0.755021	-0.439249	-0.000039
C40	C	0.755973	-0.379844	-0.000040
C41	C	0.825451	-0.357023	-0.000030
C42	C	0.826393	-0.297634	-0.000006
N43	N	0.895867	-0.274809	-0.000005
C44	C	0.964394	-0.311386	-0.000004
C45	C	0.820624	-0.659980	-0.000033
C46	C	0.819677	-0.719380	-0.000027
C47	C	0.957683	-0.733133	-0.000025
C48	C	0.958629	-0.673732	-0.000024
C49	C	0.890097	-0.637155	-0.000032
C50	C	0.966374	-0.186644	0.000013
C51	C	0.967313	-0.127239	0.000024
C52	C	0.829307	-0.113491	0.000017
C53	C	0.828368	-0.172891	0.000010
C54	C	0.896907	-0.209466	0.000006
O55	O	0.768234	-0.261021	0.000020
O56	O	1.023563	-0.286509	-0.000013
C57	C	1.031904	0.072336	0.000001
C58	C	1.115917	0.073342	-0.000003
C59	C	0.887187	0.180817	-0.000019
C60	C	0.888204	0.244037	-0.000031
N61	N	0.893478	0.076679	0.195666
N62	N	0.893518	0.076692	-0.195666
C63	C	0.945239	0.037906	0.238938
C64	C	0.945243	0.037906	0.325485
C65	C	0.893489	0.076681	0.368759
C66	C	0.841722	0.115457	0.325480
C67	C	0.841715	0.115454	0.238935
C68	C	0.841748	0.115467	0.674509
C69	C	0.841760	0.115468	0.761060
C70	C	0.945275	0.037919	0.761059
C71	C	0.945269	0.037916	0.674513
C72	C	0.893500	0.076689	0.631243
C73	C	0.893495	0.076689	0.537399
C74	C	0.893496	0.076685	0.462601
H75	H	0.266464	0.075155	-0.135990
H76	H	0.123262	0.073438	-0.135988
H77	H	0.520541	0.078215	-0.135982
H78	H	0.123233	0.073432	0.135976
H79	H	0.987426	0.006346	0.796299
H80	H	1.088551	-0.388790	0.000000
C81	C	0.509240	0.078082	0.157390
C82	C	0.422413	0.077035	0.157397
C83	C	0.378991	0.076515	0.239846
C84	C	0.422396	0.077043	0.322288
C85	C	0.509228	0.078090	0.322284
C86	C	0.552650	0.078610	0.239835
H87	H	0.390277	0.076644	0.096366
H88	H	0.314712	0.075739	0.239849
H89	H	0.390253	0.076658	0.383321
H90	H	0.541364	0.078481	0.383314
H91	H	0.616929	0.079386	0.239832
H92	H	0.799613	0.147045	0.796292
C93	C	0.675040	0.080081	-0.157402
C94	C	0.673163	0.030519	-0.219225
C95	C	0.716588	0.031042	-0.301671
C96	C	0.761890	0.081128	-0.322294
C97	C	0.763769	0.130694	-0.260469
C98	C	0.720344	0.130171	-0.178023
H99	H	0.639626	-0.006561	-0.203960
H100	H	0.715196	-0.005650	-0.347438
H101	H	0.794036	0.081516	-0.383326
H102	H	0.797306	0.167774	-0.275734
H103	H	0.721735	0.166863	-0.132256
H104	H	1.015204	-0.655155	-0.000017
C105	C	0.743249	-0.744478	-0.000027
C106	C	0.686447	-0.730643	0.071368
C107	C	0.610016	-0.755737	0.071362
C108	C	0.590388	-0.794668	-0.000038
C109	C	0.647192	-0.808506	-0.071439
C110	C	0.723623	-0.783411	-0.071434
H111	H	0.700975	-0.701822	0.124228
H112	H	0.567966	-0.745494	0.124218
H113	H	0.533810	-0.813245	-0.000042
H114	H	0.632664	-0.837326	-0.124299
H115	H	0.765673	-0.793655	-0.124289
H116	H	1.023892	-0.108662	0.000034
H117	H	0.771793	-0.191472	0.000026
C118	C	1.033065	-0.773377	-0.000033
C119	C	1.090127	-0.770876	-0.071430
C120	C	1.165503	-0.811121	-0.071438
C121	C	1.183818	-0.853866	-0.000049
C122	C	1.126755	-0.856368	0.071354
C123	C	1.051379	-0.816123	0.071362
H124	H	1.076570	-0.739232	-0.124282
H125	H	1.207745	-0.809269	-0.124296
H126	H	1.239617	-0.883657	-0.000055
H127	H	1.140312	-0.888012	0.124206
H128	H	1.009137	-0.817976	0.124220
C129	C	1.002171	-0.004749	0.191342
C130	C	1.002170	-0.004755	0.096145
C131	C	1.059102	-0.047413	0.048552
C132	C	1.116034	-0.090065	0.096155
C133	C	1.116037	-0.090060	0.191357
C134	C	1.059105	-0.047402	0.238951
H135	H	0.960023	0.026820	0.060902
H136	H	1.059099	-0.047416	-0.021923
H137	H	1.158178	-0.121642	0.060924
H138	H	1.158184	-0.121635	0.226601
H139	H	1.059108	-0.047399	0.309426
C140	C	0.753931	-0.073248	0.000013
C141	C	0.735629	-0.030509	-0.071387
C142	C	0.660253	0.009736	-0.071399
C143	C	0.603179	0.007243	-0.000011
C144	C	0.621480	-0.035498	0.071394
C145	C	0.696856	-0.075743	0.071406
H146	H	0.777879	-0.028662	-0.124237
H147	H	0.646705	0.041376	-0.124258
H148	H	0.547381	0.037035	-0.000020
H149	H	0.579230	-0.037345	0.124244
H150	H	0.710403	-0.107382	0.124265
H151	H	0.987390	0.006333	0.360717
H152	H	1.086836	-0.496540	-0.000014
H153	H	0.987414	0.006343	0.639283
C154	C	1.041766	-0.226871	0.000014
C155	C	1.098805	-0.224382	0.071420
C156	C	1.174197	-0.264609	0.071428
C157	C	1.192549	-0.307325	0.000031
C158	C	1.135509	-0.309816	-0.071380
C159	C	1.060117	-0.269589	-0.071388
H160	H	1.085221	-0.192760	0.124277
H161	H	1.216422	-0.262765	0.124291
H162	H	1.248359	-0.337104	0.000037
H163	H	1.149093	-0.341439	-0.124238
H164	H	1.017892	-0.271433	-0.124252
H165	H	0.764813	-0.630201	-0.000032
H166	H	0.799597	0.147038	0.639285
C167	C	0.678590	-0.464337	-0.000055
C168	C	0.621780	-0.450494	0.071332
C169	C	0.545342	-0.475578	0.071315
C170	C	0.525714	-0.514507	-0.000089
C171	C	0.582525	-0.528352	-0.071481
C172	C	0.658963	-0.503268	-0.071464
H173	H	0.636308	-0.421675	0.124194
H174	H	0.503287	-0.465329	0.124164
H175	H	0.469130	-0.533076	-0.000102
H176	H	0.567997	-0.557171	-0.124343
H177	H	0.701018	-0.513517	-0.124313
C178	C	0.680585	-0.339610	-0.000045
C179	C	0.623541	-0.342094	-0.071447
C180	C	0.548154	-0.301861	-0.071451
C181	C	0.529811	-0.259144	-0.000053
C182	C	0.586857	-0.256658	0.071355
C183	C	0.662244	-0.296891	0.071358
H184	H	0.637118	-0.373717	-0.124305
H185	H	0.505925	-0.303702	-0.124311
H186	H	0.474006	-0.229361	-0.000055
H187	H	0.573280	-0.225035	0.124213
H188	H	0.704472	-0.295050	0.124219
C189	C	0.784790	0.158112	0.373077
C190	C	0.784829	0.158146	0.468273
C191	C	0.727898	0.200804	0.515867
C192	C	0.670927	0.243427	0.468263
C193	C	0.670886	0.243394	0.373061
C194	C	0.727817	0.200736	0.325468
H195	H	0.827004	0.126593	0.503517
H196	H	0.727928	0.200829	0.586342
H197	H	0.628782	0.275005	0.503495
H198	H	0.628710	0.274948	0.337818
H199	H	0.727786	0.200712	0.254993
H200	H	0.266445	0.075158	0.135975
C201	C	0.675007	0.080080	0.157389
C202	C	0.655173	0.129381	0.219211
C203	C	0.698580	0.129904	0.301658
C204	C	0.761819	0.081125	0.322282
C205	C	0.781656	0.031820	0.260458
C206	C	0.738250	0.031297	0.178012
H207	H	0.608357	0.165493	0.203945
H208	H	0.683895	0.166403	0.347424
H209	H	0.793951	0.081512	0.383314
H210	H	0.828473	-0.004292	0.275724
H211	H	0.752935	-0.005202	0.132246
H212	H	0.799565	0.147026	0.203704
