data_functionalizedCrystal
_audit_creation_method	'MofGen! by Chris Wilmer'
_symmetry_space_group_name_H-M	'P1'
_symmetry_Int_Tables_number	1
_symmetry_cell_setting	triclinic
loop_
_symmetry_equiv_pos_as_xyz
  x,y,z
_cell_length_a	8.559649
_cell_length_b	8.597275
_cell_length_c	8.140239
_cell_angle_alpha	97.700208
_cell_angle_beta	89.997621
_cell_angle_gamma	77.624622
loop_
_atom_site_label
_atom_site_type_symbol
_atom_site_fract_x
_atom_site_fract_y
_atom_site_fract_z
O1	O	2.119294	-0.053144	-0.144110
O2	O	1.655354	0.027756	-0.132666
O3	O	1.896457	-0.242261	-0.170878
O4	O	1.878191	0.216873	-0.105897
O5	O	1.896443	-0.242262	0.102349
O6	O	1.655340	0.027755	0.140561
O7	O	2.119281	-0.053145	0.129117
Zn8	Zn	1.887308	-0.012696	0.178220
Zn9	Zn	1.887326	-0.012694	-0.181768
O10	O	1.878178	0.216871	0.167330
C11	C	1.595913	0.033886	0.004815
C12	C	1.418817	0.052135	0.007395
C13	C	1.894489	-0.300497	-0.042510
C14	C	1.888628	-0.474016	-0.067078
C15	C	2.178722	-0.059276	-0.008367
C16	C	2.355817	-0.077525	-0.010958
C17	C	1.880145	0.275107	0.038958
C18	C	1.886006	0.448627	0.063516
N19	N	1.887308	-0.012699	0.423902
N20	N	1.887339	-0.012705	-0.427452
H21	H	1.437363	-0.202494	-0.028653
Cl22	Cl	1.889481	-0.448676	0.265163
H23	H	1.886393	-0.540537	-0.197675
Cl24	Cl	1.292914	0.245094	0.034688
