data_functionalizedCrystal
_audit_creation_method	'MofGen! by Chris Wilmer'
_symmetry_space_group_name_H-M	'P1'
_symmetry_Int_Tables_number	1
_symmetry_cell_setting	triclinic
loop_
_symmetry_equiv_pos_as_xyz
  x,y,z
_cell_length_a	21.295419
_cell_length_b	25.639234
_cell_length_c	21.295417
_cell_angle_alpha	90.027023
_cell_angle_beta	89.954692
_cell_angle_gamma	89.979419
loop_
_atom_site_label
_atom_site_type_symbol
_atom_site_fract_x
_atom_site_fract_y
_atom_site_fract_z
Zn1	Zn	0.962331	-0.295612	0.250399
Zn2	Zn	1.462331	0.204388	0.750399
Zn3	Zn	0.962241	-0.208173	0.355661
Zn4	Zn	1.462241	0.291827	0.855661
Zn5	Zn	0.857061	-0.208190	0.250436
Zn6	Zn	1.357061	0.291810	0.750436
Zn7	Zn	0.857024	-0.295577	0.355661
Zn8	Zn	1.357024	0.204423	0.855661
O9	O	0.909664	-0.251888	0.303039
O10	O	1.409664	0.248112	0.803039
O11	O	1.050408	-0.284021	0.264346
O12	O	1.550408	0.215979	0.764346
O13	O	0.948266	-0.135010	0.341718
O14	O	1.448266	0.364990	0.841718
O15	O	0.871079	-0.219808	0.162342
O16	O	1.371079	0.280192	0.662342
O17	O	1.050342	-0.219780	0.341681
O18	O	1.550342	0.280220	0.841681
O19	O	0.948420	-0.284037	0.162314
O20	O	1.448420	0.215963	0.662314
O21	O	0.870992	-0.135022	0.264410
O22	O	1.370992	0.364978	0.764410
O23	O	0.768967	-0.219774	0.264411
O24	O	1.268967	0.280226	0.764411
O25	O	0.871015	-0.368747	0.341683
O26	O	1.371015	0.131253	0.841683
O27	O	0.768939	-0.283977	0.341719
O28	O	1.268939	0.216023	0.841719
O29	O	0.948384	-0.368773	0.264347
O30	O	1.448384	0.131227	0.764347
O31	O	0.948230	-0.219746	0.443750
O32	O	1.448230	0.280254	0.943750
O33	O	0.870927	-0.283961	0.443751
O34	O	1.370927	0.216039	0.943751
C35	C	0.746113	-0.251873	0.303070
C36	C	1.246113	0.248127	0.803070
C37	C	0.676144	-0.251880	0.303098
C38	C	1.176144	0.248120	0.803098
C39	C	0.643335	-0.285382	0.262895
C40	C	1.143335	0.214618	0.762895
C41	C	0.577592	-0.285384	0.262878
C42	C	1.077592	0.214616	0.762878
C43	C	0.544662	-0.251889	0.303075
C44	C	1.044662	0.248111	0.803075
C45	C	0.577479	-0.218381	0.343281
C46	C	1.077479	0.281619	0.843281
C47	C	0.643221	-0.218376	0.343292
C48	C	1.143221	0.281624	0.843292
N49	N	0.441387	-0.247803	0.358153
N50	N	0.941387	0.252197	0.858153
N51	N	0.378935	-0.247810	0.358140
N52	N	0.878935	0.252190	0.858140
C53	C	0.346587	-0.251901	0.303043
C54	C	0.846587	0.248099	0.803043
N55	N	0.379050	-0.255993	0.247956
N56	N	0.879050	0.244007	0.747956
N57	N	0.441507	-0.255988	0.247970
N58	N	0.941507	0.244012	0.747970
C59	C	0.473377	-0.251890	0.303067
C60	C	0.973377	0.248110	0.803067
C61	C	0.242492	-0.285407	0.262818
C62	C	0.742492	0.214593	0.762818
C63	C	0.176748	-0.285405	0.262800
C64	C	0.676748	0.214595	0.762800
C65	C	0.176637	-0.218405	0.343208
C66	C	0.676637	0.281595	0.843208
C67	C	0.242379	-0.218404	0.343221
C68	C	0.742379	0.281596	0.843221
C69	C	0.275303	-0.251907	0.303026
C70	C	0.775303	0.248093	0.803026
C71	C	0.909705	-0.388261	0.303011
C72	C	1.409705	0.111739	0.803011
C73	C	0.909722	-0.446375	0.302998
C74	C	1.409722	0.053625	0.802998
C75	C	0.869503	-0.806750	0.262669
C76	C	1.369503	-0.306750	0.762669
C77	C	0.869507	-0.861354	0.262658
C78	C	1.369507	-0.361354	0.762658
O79	O	0.835279	-0.889601	0.228438
O80	O	1.335279	-0.389601	0.728438
N81	N	0.909743	-0.888658	0.302900
N82	N	1.409743	-0.388658	0.802900
C83	C	0.949975	-0.861354	0.343160
C84	C	1.449975	-0.361354	0.843160
O85	O	0.984199	-0.889592	0.377388
O86	O	1.484199	-0.389592	0.877388
C87	C	0.949968	-0.806751	0.343174
C88	C	1.449968	-0.306751	0.843174
C89	C	0.909733	-0.779450	0.302925
C90	C	1.409733	-0.279450	0.802925
C91	C	0.829271	-0.779450	0.222424
C92	C	1.329271	-0.279450	0.722424
C93	C	0.829269	-0.724849	0.222435
C94	C	1.329269	-0.224849	0.722435
C95	C	0.869498	-0.697549	0.262691
C96	C	1.369498	-0.197549	0.762691
C97	C	0.909731	-0.724850	0.302936
C98	C	1.409731	-0.224850	0.802936
C99	C	0.990196	-0.779448	0.383437
C100	C	1.490196	-0.279448	0.883437
C101	C	0.990185	-0.724841	0.383448
C102	C	1.490185	-0.224841	0.883448
C103	C	0.949950	-0.697540	0.343199
C104	C	1.449950	-0.197540	0.843199
C105	C	0.949958	-0.642949	0.343203
C106	C	1.449958	-0.142949	0.843203
N107	N	0.909721	-0.615646	0.302961
N108	N	1.409721	-0.115646	0.802961
C109	C	0.869491	-0.642946	0.262705
C110	C	1.369491	-0.142946	0.762705
C111	C	0.949986	-0.976025	0.343128
C112	C	1.449986	-0.476025	0.843128
C113	C	0.949997	-1.030627	0.343111
C114	C	1.449997	-0.530627	0.843111
C115	C	0.869527	-1.030624	0.262610
C116	C	1.369527	-0.530624	0.762610
C117	C	0.869520	-0.976020	0.262624
C118	C	1.369520	-0.476020	0.762624
C119	C	0.909749	-0.948721	0.302886
C120	C	1.409749	-0.448721	0.802886
C121	C	0.869490	-0.528281	0.262730
C122	C	1.369490	-0.028281	0.762730
C123	C	0.869493	-0.473675	0.262743
C124	C	1.369493	0.026325	0.762743
C125	C	0.949959	-0.473683	0.343246
C126	C	1.449959	0.026317	0.843246
C127	C	0.949959	-0.528284	0.343232
C128	C	1.449959	-0.028284	0.843232
C129	C	0.909719	-0.555581	0.302971
C130	C	1.409719	-0.055581	0.802971
O131	O	0.984166	-0.614668	0.377407
O132	O	1.484166	-0.114668	0.877407
O133	O	0.835267	-0.614701	0.228488
O134	O	1.335267	-0.114701	0.728488
C135	C	1.073854	-0.251903	0.303010
C136	C	1.573854	0.248097	0.803010
C137	C	1.143823	-0.251910	0.302997
C138	C	1.643823	0.248090	0.802997
C139	C	0.909582	-0.251859	0.466591
C140	C	1.409582	0.248141	0.966591
C141	C	0.909604	-0.251864	0.536559
C142	C	1.409604	0.248136	1.036559
C143	C	0.909660	-0.116046	0.303023
C144	C	1.409660	0.383954	0.803023
C145	C	0.909764	-0.057932	0.302857
C146	C	1.409764	0.442068	0.802857
C147	C	0.909764	-0.251929	0.138849
C148	C	1.409764	0.248071	0.638849
C149	C	0.909807	-0.251946	0.068881
C150	C	1.409807	0.248054	0.568881
C151	C	0.949891	-0.218462	0.569405
C152	C	1.449891	0.281538	1.069405
C153	C	0.949921	-0.218474	0.635147
C154	C	1.449921	0.281526	1.135147
C155	C	0.909652	-0.251882	0.668042
C156	C	1.409652	0.248118	1.168042
C157	C	0.869362	-0.285291	0.635188
C158	C	1.369362	0.214709	1.135188
C159	C	0.869338	-0.285282	0.569447
C160	C	1.369338	0.214718	1.069447
N161	N	0.854584	-0.255863	0.771322
N162	N	1.354584	0.244137	1.271322
N163	N	0.854609	-0.255869	0.833773
N164	N	1.354609	0.244131	1.333773
C165	C	0.909722	-0.251912	0.866116
C166	C	1.409722	0.248088	1.366116
N167	N	0.964811	-0.247940	0.833648
N168	N	1.464811	0.252060	1.333648
N169	N	0.964786	-0.247932	0.771191
N170	N	1.464786	0.252068	1.271191
C171	C	0.909673	-0.251896	0.739327
C172	C	1.409673	0.248104	1.239327
C173	C	0.950045	-0.218521	0.970247
C174	C	1.450045	0.281479	1.470247
C175	C	0.950075	-0.218536	1.035991
C176	C	1.450075	0.281464	1.535991
C177	C	0.869511	-0.285351	1.036031
C178	C	1.369511	0.214649	1.536031
C179	C	0.869486	-0.285338	0.970288
C180	C	1.369486	0.214662	1.470288
C181	C	0.909752	-0.251920	0.937401
C182	C	1.409752	0.248080	1.437401
H183	H	0.836729	-0.451449	0.229964
H184	H	1.336729	0.048551	0.729964
O185	O	0.830316	-0.554734	0.223651
O186	O	1.330316	-0.054734	0.723651
C187	C	0.767567	-0.541377	0.237430
C188	C	1.267567	-0.041377	0.737430
H189	H	0.766249	-0.501728	0.261644
H190	H	1.266249	-0.001728	0.761644
H191	H	0.739372	-0.539505	0.192003
H192	H	1.239372	-0.039505	0.692003
H193	H	0.746340	-0.572097	0.269784
H194	H	1.246340	-0.072097	0.769784
H195	H	0.982730	-0.191273	0.661895
H196	H	1.482730	0.308727	1.161895
O197	O	0.274352	-0.185882	0.382222
O198	O	0.774352	0.314118	0.882222
C199	C	0.339437	-0.193070	0.373625
C200	C	0.839437	0.306930	0.873625
H201	H	0.348472	-0.210266	0.325074
H202	H	0.848472	0.289734	0.825074
H203	H	0.364399	-0.153900	0.377838
H204	H	0.864399	0.346100	0.877838
H205	H	0.358070	-0.220857	0.411012
H206	H	0.858070	0.279143	0.911012
H207	H	0.269300	-0.312684	0.230086
H208	H	0.769300	0.187316	0.730086
H209	H	0.669934	-0.191094	0.376031
H210	H	1.169934	0.308906	0.876031
O211	O	0.790121	-0.698414	0.183320
O212	O	1.290121	-0.198414	0.683320
C213	C	0.754629	-0.734228	0.147782
C214	C	1.254629	-0.234228	0.647782
H215	H	0.752446	-0.773142	0.173562
H216	H	1.252446	-0.273142	0.673562
H217	H	0.705032	-0.718448	0.141080
H218	H	1.205032	-0.218448	0.641080
H219	H	0.777709	-0.740053	0.099967
H220	H	1.277709	-0.240053	0.599967
H221	H	0.836726	-0.312555	1.062813
H222	H	1.336726	0.187445	1.562813
O223	O	0.830331	-0.317769	0.667208
O224	O	1.330331	0.182231	1.167208
C225	C	0.866162	-0.351578	0.705158
C226	C	1.366162	0.148422	1.205158
H227	H	0.913883	-0.333175	0.714966
H228	H	1.413883	0.166825	1.214966
H229	H	0.840533	-0.358571	0.751412
H230	H	1.340533	0.141429	1.251412
H231	H	0.873045	-0.390327	0.679786
H232	H	1.373045	0.109673	1.179786
O233	O	0.790275	-0.806023	0.183288
O234	O	1.290275	-0.306023	0.683288
C235	C	0.826140	-0.837614	0.142601
C236	C	1.326140	-0.337614	0.642601
H237	H	0.873831	-0.845806	0.164790
H238	H	1.373831	-0.345806	0.664790
H239	H	0.800504	-0.876004	0.134154
H240	H	1.300504	-0.376004	0.634154
H241	H	0.833085	-0.816578	0.095958
H242	H	1.333085	-0.316578	0.595958
O243	O	0.545642	-0.317956	0.223914
O244	O	1.045642	0.182044	0.723914
C245	C	0.507612	-0.351677	0.259813
C246	C	1.007612	0.148323	0.759813
H247	H	0.497713	-0.333158	0.307484
H248	H	0.997713	0.166842	0.807484
H249	H	0.461408	-0.358728	0.234182
H250	H	0.961408	0.141272	0.734182
H251	H	0.532961	-0.390410	0.266802
H252	H	1.032961	0.109590	0.766802
O253	O	0.989154	-0.186105	1.067997
O254	O	1.489154	0.313895	1.567997
C255	C	0.953395	-0.152306	1.106123
C256	C	1.453395	0.347694	1.606123
H257	H	0.905656	-0.170676	1.115987
H258	H	1.405656	0.329324	1.615987
H259	H	0.979065	-0.145392	1.152338
H260	H	1.479065	0.354608	1.652338
H261	H	0.946549	-0.113522	1.080876
H262	H	1.446549	0.386478	1.580876
H263	H	0.836531	-0.312483	0.542704
H264	H	1.336531	0.187517	1.042704
H265	H	0.982834	-0.191311	0.943469
H266	H	1.482834	0.308689	1.443469
H267	H	0.982767	-1.052851	0.375879
H268	H	1.482767	-0.552851	0.875879
O269	O	0.675386	-0.317849	0.223817
O270	O	1.175386	0.182151	0.723817
C271	C	0.713424	-0.288141	0.183105
C272	C	1.213424	0.211859	0.683105
H273	H	0.723229	-0.248483	0.205241
H274	H	1.223229	0.251517	0.705241
H275	H	0.759673	-0.309446	0.174712
H276	H	1.259673	0.190554	0.674712
H277	H	0.688128	-0.282471	0.136442
H278	H	1.188128	0.217529	0.636442
O279	O	0.830342	-0.949526	0.223598
O280	O	1.330342	-0.449526	0.723598
C281	C	0.767599	-0.962868	0.237355
C282	C	1.267599	-0.462868	0.737355
H283	H	0.764395	-0.977866	0.287641
H284	H	1.264395	-0.477866	0.787641
H285	H	0.736493	-0.926956	0.231947
H286	H	1.236493	-0.426956	0.731947
H287	H	0.751173	-0.994569	0.203602
H288	H	1.251173	-0.494569	0.703602
H289	H	0.982715	-0.451446	0.376020
H290	H	1.482715	0.048554	0.876020
H291	H	0.836678	-0.312536	0.943544
H292	H	1.336678	0.187464	1.443544
H293	H	0.982680	-0.191252	0.542629
H294	H	1.482680	0.308748	1.042629
H295	H	0.836770	-1.052861	0.229831
H296	H	1.336770	-0.552861	0.729831
H297	H	0.550663	-0.191109	0.376009
H298	H	1.050663	0.308891	0.876009
O299	O	0.144972	-0.317999	0.223724
O300	O	0.644972	0.182001	0.723724
C301	C	0.188132	-0.347558	0.188242
C302	C	0.688132	0.152442	0.688242
H303	H	0.234970	-0.349325	0.214039
H304	H	0.734970	0.150675	0.714039
H305	H	0.169164	-0.388763	0.181595
H306	H	0.669164	0.111237	0.681595
H307	H	0.195163	-0.328488	0.140401
H308	H	0.695163	0.171512	0.640401
O309	O	0.144629	-0.185943	0.382325
O310	O	0.644629	0.314057	0.882325
C311	C	0.106566	-0.215649	0.423014
C312	C	0.606566	0.284351	0.923014
H313	H	0.126394	-0.256821	0.426973
H314	H	0.626394	0.243179	0.926973
H315	H	0.105765	-0.196665	0.471428
H316	H	0.605765	0.303335	0.971428
H317	H	0.056761	-0.217481	0.403546
H318	H	0.556761	0.282519	0.903546
H319	H	0.982729	-0.550513	0.375999
H320	H	1.482729	-0.050513	0.875999
O321	O	0.989132	-0.949589	0.382256
O322	O	1.489132	-0.449589	0.882256
C323	C	1.024632	-0.985402	0.417778
C324	C	1.524632	-0.485402	0.917778
H325	H	1.026826	-1.024329	0.391980
H326	H	1.526826	-0.524329	0.891980
H327	H	1.074226	-0.969640	0.424488
H328	H	1.574226	-0.469640	0.924488
H329	H	1.001553	-0.991195	0.465590
H330	H	1.501553	-0.491195	0.965590
O331	O	1.029369	-0.805897	0.422508
O332	O	1.529369	-0.305897	0.922508
C333	C	1.092114	-0.792573	0.408734
C334	C	1.592114	-0.292573	0.908734
H335	H	1.093421	-0.752939	0.384532
H336	H	1.593421	-0.252939	0.884532
H337	H	1.120307	-0.790685	0.454163
H338	H	1.620307	-0.290685	0.954163
H339	H	1.113350	-0.823320	0.376372
H340	H	1.613350	-0.323320	0.876372
O341	O	1.029233	-0.698380	0.422648
O342	O	1.529233	-0.198380	0.922648
C343	C	1.015422	-0.711696	0.485386
C344	C	1.515422	-0.211696	0.985386
H345	H	0.991224	-0.751335	0.486682
H346	H	1.491224	-0.251335	0.986682
H347	H	1.060833	-0.713570	0.513607
H348	H	1.560833	-0.213570	1.013607
H349	H	0.983042	-0.680951	0.506599
H350	H	1.483042	-0.180951	1.006599
