data_functionalizedCrystal
_audit_creation_method	'MofGen! by Chris Wilmer'
_symmetry_space_group_name_H-M	'P1'
_symmetry_Int_Tables_number	1
_symmetry_cell_setting	triclinic
loop_
_symmetry_equiv_pos_as_xyz
  x,y,z
_cell_length_a	16.992694
_cell_length_b	9.130313
_cell_length_c	16.992695
_cell_angle_alpha	90.001745
_cell_angle_beta	90.668223
_cell_angle_gamma	89.994745
loop_
_atom_site_label
_atom_site_type_symbol
_atom_site_fract_x
_atom_site_fract_y
_atom_site_fract_z
O1	O	1.050846	0.121617	0.166913
O2	O	0.822446	0.121660	0.165082
O3	O	0.935730	0.121627	0.051797
O4	O	0.937562	0.121650	0.280197
O5	O	0.935729	-0.121972	0.051800
O6	O	0.822445	-0.121939	0.165085
O7	O	1.050845	-0.121982	0.166916
Cu8	Cu	0.936644	-0.144203	0.166001
Cu9	Cu	0.936646	0.143881	0.165997
O10	O	0.937560	-0.121949	0.280200
C11	C	0.793085	-0.000134	0.162727
C12	C	0.705600	-0.000118	0.155699
N13	N	0.936649	-0.346825	0.166003
C14	C	0.659610	-0.000112	0.223517
C15	C	0.577409	-0.000133	0.216908
C16	C	0.541201	-0.000149	0.142480
C17	C	0.587198	-0.000159	0.074657
C18	C	0.669397	-0.000148	0.081267
C19	C	0.295886	-0.000191	0.115086
C20	C	0.213681	-0.000197	0.108481
C21	C	0.203898	-0.000173	0.250732
C22	C	0.286099	-0.000154	0.257336
C23	C	0.332089	-0.000172	0.189512
N24	N	0.457178	-0.000166	0.135723
N25	N	0.416110	-0.000166	0.196270
C26	C	0.986826	-0.423492	0.115860
C27	C	0.986823	-0.576829	0.115850
C28	C	0.886465	-0.576819	0.216134
C29	C	0.886464	-0.423485	0.216139
C30	C	1.037011	-0.346832	0.065724
C31	C	1.087193	-0.423499	0.015577
C32	C	1.087191	-0.576836	0.015567
C33	C	1.037006	-0.653506	0.065705
C34	C	1.080205	-0.000184	0.169270
C35	C	1.167690	-0.000191	0.176299
C36	C	0.933374	-0.000172	0.022439
C37	C	0.926345	-0.000170	-0.065046
N38	N	0.936647	0.346504	0.165989
C39	C	0.994163	-0.000184	-0.111037
C40	C	0.987554	-0.000169	-0.193238
C41	C	0.913127	-0.000150	-0.229446
C42	C	0.845303	-0.000131	-0.183449
C43	C	0.851913	-0.000136	-0.101250
C44	C	0.885732	-0.000125	-0.474760
C45	C	0.879127	-0.000124	-0.556966
C46	C	1.021379	-0.000159	-0.566749
C47	C	1.027982	-0.000173	-0.484547
C48	C	0.960159	-0.000146	-0.438558
N49	N	0.906369	-0.000139	-0.313468
N50	N	0.966917	-0.000147	-0.354537
C51	C	0.939917	-0.000147	0.309559
C52	C	0.946945	-0.000139	0.397044
H53	H	0.539966	-0.000126	0.272133
H54	H	1.088589	-0.000189	-0.455073
H55	H	1.037003	-0.778363	0.065687
N56	N	1.141300	-0.340816	-0.038515
H57	H	1.133687	-0.232045	-0.030905
H58	H	1.197716	-0.367622	-0.025902
N59	N	1.141319	-0.659526	-0.038510
H60	H	1.128770	-0.632833	-0.094955
H61	H	1.197728	-0.632804	-0.025825
N62	N	0.154303	-0.000196	0.323886
H63	H	0.166460	0.090104	0.356135
H64	H	0.096753	-0.000270	0.308352
N65	N	1.094525	-0.000161	-0.616353
H66	H	1.142677	-0.000171	-0.580942
H67	H	1.094884	-0.090463	-0.650675
N68	N	0.325151	-0.000109	0.337611
H69	H	0.283542	-0.000102	0.379572
H70	H	0.359056	-0.090401	0.343463
N71	N	0.798848	-0.000102	-0.596022
H72	H	0.756885	-0.000081	-0.554415
H73	H	0.793016	0.090204	-0.629914
H74	H	0.184203	-0.000208	0.047870
H75	H	0.845604	-0.361062	0.256970
N76	N	0.345483	-0.000219	0.041937
H77	H	0.310070	-0.000229	-0.006213
H78	H	0.379799	0.090083	0.041572
N79	N	0.548149	-0.000200	-0.005620
H80	H	0.489097	-0.000205	0.000482
H81	H	0.564646	0.090098	-0.035531
N82	N	0.698652	-0.000096	0.303797
H83	H	0.732547	-0.090392	0.309713
H84	H	0.732487	0.090272	0.309661
N85	N	0.719005	-0.000166	0.008121
H86	H	0.683596	-0.000176	-0.040032
H87	H	0.753319	0.090139	0.007760
H88	H	0.845607	-0.639254	0.256955
N89	N	1.037009	-0.181450	0.065738
H90	H	1.091207	-0.144527	0.080580
H91	H	1.022180	-0.144618	0.011519
N92	N	1.074439	-0.000219	-0.071986
H93	H	1.116398	-0.000223	-0.113598
H94	H	1.080282	0.090082	-0.038091
H95	H	1.042779	-0.000184	-0.230680
H96	H	0.830505	-0.000104	-0.437325
H97	H	0.784703	-0.000107	-0.212936
H98	H	0.796688	-0.000124	-0.063804
