data_functionalizedCrystal
_audit_creation_method	'MofGen! by Chris Wilmer'
_symmetry_space_group_name_H-M	'P1'
_symmetry_Int_Tables_number	1
_symmetry_cell_setting	triclinic
loop_
_symmetry_equiv_pos_as_xyz
  x,y,z
_cell_length_a	15.944551
_cell_length_b	15.944551
_cell_length_c	14.421503
_cell_angle_alpha	89.995753
_cell_angle_beta	89.996059
_cell_angle_gamma	96.501262
loop_
_atom_site_label
_atom_site_type_symbol
_atom_site_fract_x
_atom_site_fract_y
_atom_site_fract_z
O1	O	1.114530	-0.108319	-0.077017
O2	O	1.447864	0.225014	0.256316
O3	O	1.781197	0.558347	0.589650
O4	O	0.869981	-0.121675	-0.077040
O5	O	1.203314	0.211658	0.256293
O6	O	1.536647	0.544991	0.589626
O7	O	0.998934	0.007277	-0.077020
O8	O	1.332267	0.340611	0.256314
O9	O	1.665600	0.673944	0.589647
O10	O	0.985577	-0.237272	-0.077038
O11	O	1.318911	0.096061	0.256296
O12	O	1.652244	0.429394	0.589629
O13	O	0.998910	0.007256	0.077204
O14	O	1.332243	0.340589	0.410537
O15	O	1.665577	0.673922	0.743870
O16	O	0.869957	-0.121697	0.077183
O17	O	1.203290	0.211636	0.410516
O18	O	1.536624	0.544970	0.743850
O19	O	1.114507	-0.108341	0.077206
O20	O	1.447840	0.224992	0.410540
O21	O	1.781173	0.558326	0.743873
Cu22	Cu	0.992230	-0.115021	0.091277
Cu23	Cu	1.325563	0.218312	0.424610
Cu24	Cu	1.658896	0.551646	0.757943
Cu25	Cu	0.992258	-0.114995	-0.091110
Cu26	Cu	1.325591	0.218338	0.242223
Cu27	Cu	1.658924	0.551671	0.575556
O28	O	0.985554	-0.237294	0.077186
O29	O	1.318887	0.096040	0.410519
O30	O	1.652221	0.429373	0.743852
C31	C	0.838675	-0.121132	0.000069
C32	C	1.172008	0.212202	0.333402
C33	C	1.505342	0.545535	0.666735
C34	C	0.745429	-0.119470	0.000060
C35	C	1.078762	0.213864	0.333393
C36	C	1.412096	0.547197	0.666727
C37	C	0.998367	0.038561	0.000092
C38	C	1.331701	0.371894	0.333426
C39	C	1.665034	0.705227	0.666759
C40	C	0.996705	0.131807	0.000093
C41	C	1.330038	0.465140	0.333426
C42	C	1.663372	0.798473	0.666759
C43	C	0.530572	-0.035565	0.000084
C44	C	0.863906	0.297768	0.333417
C45	C	1.197239	0.631102	0.666751
C46	C	0.469564	-0.074517	-0.075959
C47	C	0.802897	0.258816	0.257374
C48	C	1.136230	0.592150	0.590708
C49	C	0.574703	-0.116462	0.000071
C50	C	0.908036	0.216871	0.333404
C51	C	1.241370	0.550204	0.666738
C52	C	0.469563	-0.074557	0.076093
C53	C	0.802896	0.258776	0.409426
C54	C	1.136229	0.592109	0.742760
C55	C	0.409790	-0.113551	0.000086
C56	C	0.743124	0.219782	0.333419
C57	C	1.076457	0.553115	0.666753
C58	C	0.514923	-0.155436	-0.076035
C59	C	0.848256	0.177897	0.257298
C60	C	1.181589	0.511231	0.590632
C61	C	0.514928	-0.155465	0.076086
C62	C	0.848261	0.177868	0.409419
C63	C	1.181595	0.511201	0.742752
C64	C	0.453937	-0.194476	0.000024
C65	C	0.787271	0.138857	0.333357
C66	C	1.120604	0.472191	0.666691
C67	C	0.669705	-0.118137	0.000062
C68	C	1.003039	0.215197	0.333395
C69	C	1.336372	0.548530	0.666728
C70	C	0.314789	-0.111883	0.000089
C71	C	0.648123	0.221450	0.333422
C72	C	0.981456	0.554783	0.666755
C73	C	1.145813	-0.108885	0.000096
C74	C	1.479146	0.224449	0.333429
C75	C	1.812479	0.557782	0.666762
C76	C	1.239059	-0.110547	0.000098
C77	C	1.572392	0.222786	0.333431
C78	C	1.905725	0.556120	0.666765
C79	C	0.986120	-0.268577	0.000072
C80	C	1.319453	0.064756	0.333405
C81	C	1.652787	0.398090	0.666739
C82	C	0.987782	-0.361823	0.000066
C83	C	1.321116	-0.028490	0.333399
C84	C	1.654449	0.304844	0.666732
N85	N	0.992216	-0.115038	0.219558
N86	N	1.325550	0.218295	0.552891
N87	N	1.658883	0.551628	0.886225
C88	C	0.912801	0.346663	0.000072
C89	C	1.246134	0.679997	0.333405
C90	C	1.579467	1.013330	0.666738
C91	C	0.951752	0.407670	0.076117
C92	C	1.285085	0.741003	0.409450
C93	C	1.618418	1.074337	0.742784
C94	C	0.993698	0.302533	0.000085
C95	C	1.327031	0.635866	0.333418
C96	C	1.660365	0.969199	0.666752
C97	C	0.951794	0.407675	-0.075935
C98	C	1.285127	0.741008	0.257398
C99	C	1.618461	1.074341	0.590731
C100	C	0.990787	0.467445	0.000074
C101	C	1.324120	0.800779	0.333407
C102	C	1.657454	1.134112	0.666741
C103	C	1.032671	0.362311	0.076193
C104	C	1.366004	0.695644	0.409526
C105	C	1.699337	1.028978	0.742860
C106	C	1.032702	0.362309	-0.075927
C107	C	1.366035	0.695643	0.257406
C108	C	1.699369	1.028976	0.590739
C109	C	1.071711	0.423298	0.000136
C110	C	1.405045	0.756632	0.333470
C111	C	1.738378	1.089965	0.666803
C112	C	0.995372	0.207530	0.000092
C113	C	1.328706	0.540864	0.333426
C114	C	1.662039	0.874197	0.666759
C115	C	0.989119	0.562446	0.000073
C116	C	1.322452	0.895780	0.333407
C117	C	1.655785	1.229113	0.666740
C118	C	0.932574	-0.174643	0.469202
C119	C	1.265908	0.158690	0.802535
C120	C	1.599241	0.492023	1.135869
C121	C	1.008473	-0.190952	0.531011
C122	C	1.341807	0.142382	0.864344
C123	C	1.675140	0.475715	1.197677
C124	C	0.992234	-0.115021	0.408719
C125	C	1.325567	0.218312	0.742053
C126	C	1.658901	0.551645	1.075386
C127	C	0.916352	-0.098736	0.531005
C128	C	1.249685	0.234598	0.864338
C129	C	1.583018	0.567931	1.197671
C130	C	0.992244	-0.115007	0.591441
C131	C	1.325578	0.218326	0.924774
C132	C	1.658911	0.551660	1.258107
C133	C	1.068171	-0.131367	0.469167
C134	C	1.401505	0.201966	0.802500
C135	C	1.734838	0.535299	1.135834
C136	C	0.976000	-0.039118	0.469156
C137	C	1.309333	0.294215	0.802489
C138	C	1.642667	0.627548	1.135822
C139	C	1.051954	-0.055394	0.530936
C140	C	1.385287	0.277939	0.864270
C141	C	1.718620	0.611272	1.197603
C142	C	0.992227	-0.115032	0.303458
C143	C	1.325560	0.218301	0.636792
C144	C	1.658894	0.551635	0.970125
C145	C	0.992260	-0.114996	0.696700
C146	C	1.325593	0.218338	1.030033
C147	C	1.658927	0.551671	1.363366
N148	N	0.992263	-0.114987	0.780608
N149	N	1.325597	0.218346	1.113942
N150	N	1.658930	0.551679	1.447275
H151	H	0.563905	0.031573	-0.000005
H152	H	0.897238	0.364906	0.333328
H153	H	1.230572	0.698240	0.666662
O154	O	0.957764	0.045871	0.433134
O155	O	1.291097	0.379205	0.766467
O156	O	1.624431	0.712538	1.099800
H157	H	1.006667	0.095449	0.458948
H158	H	1.340000	0.428783	0.792281
H159	H	1.673333	0.762116	1.125615
O160	O	0.906471	0.434306	-0.161090
O161	O	1.239805	0.767640	0.172244
O162	O	1.573138	1.100973	0.505577
H163	H	0.939460	0.415257	-0.224144
H164	H	1.272794	0.748590	0.109189
H165	H	1.606127	1.081924	0.442523
H166	H	0.845652	0.313356	0.000141
H167	H	1.178986	0.646689	0.333475
H168	H	1.512319	0.980022	0.666808
H169	H	0.917525	0.427769	0.140401
H170	H	1.250859	0.761103	0.473734
H171	H	1.584192	1.094436	0.807067
O172	O	1.026693	-0.275954	0.567026
O173	O	1.360027	0.057379	0.900360
O174	O	1.693360	0.390712	1.233693
H175	H	1.027136	-0.274950	0.643982
H176	H	1.360469	0.058384	0.977315
H177	H	1.693803	0.391717	1.310649
H178	H	0.535050	-0.189662	0.140373
H179	H	0.868383	0.143671	0.473706
H180	H	1.201716	0.477004	0.807040
H181	H	0.420779	-0.261683	-0.000023
H182	H	0.754112	0.071650	0.333310
H183	H	1.087445	0.404984	0.666643
O184	O	0.442947	-0.029239	0.161257
O185	O	0.776280	0.304094	0.494591
O186	O	1.109613	0.637427	0.827924
H187	H	0.473951	0.036697	0.161096
H188	H	0.807284	0.370030	0.494429
H189	H	1.140617	0.703364	0.827763
O190	O	0.831347	-0.080486	0.566987
O191	O	1.164681	0.252847	0.900321
O192	O	1.498014	0.586180	1.233654
H193	H	0.781937	-0.130070	0.542252
H194	H	1.115271	0.203263	0.875586
H195	H	1.448604	0.536596	1.208919
O196	O	1.118855	0.011403	0.566636
O197	O	1.452188	0.344736	0.899969
O198	O	1.785521	0.678069	1.233303
H199	H	1.181747	-0.002316	0.541738
H200	H	1.515080	0.331018	0.875071
H201	H	1.848413	0.664351	1.208405
O202	O	1.077940	0.335831	0.161453
O203	O	1.411273	0.669164	0.494787
O204	O	1.744606	1.002498	0.828120
H205	H	1.078784	0.266322	0.160807
H206	H	1.412118	0.599655	0.494141
H207	H	1.745451	0.932988	0.827474
O208	O	0.865813	-0.241479	0.433294
O209	O	1.199147	0.091854	0.766627
O210	O	1.532480	0.425187	1.099961
H211	H	0.819484	-0.211217	0.390960
H212	H	1.152817	0.122116	0.724293
H213	H	1.486150	0.455450	1.057627
H214	H	1.066899	0.342188	-0.140214
H215	H	1.400232	0.675521	0.193119
H216	H	1.733565	1.008855	0.526452
O217	O	0.442921	-0.029187	-0.161106
O218	O	0.776255	0.304146	0.172227
O219	O	1.109588	0.637479	0.505561
H220	H	0.473905	0.036757	-0.160945
H221	H	0.807238	0.370090	0.172388
H222	H	1.140571	0.703423	0.505722
O223	O	1.153204	-0.149707	0.433354
O224	O	1.486537	0.183627	0.766687
O225	O	1.819870	0.516960	1.100020
H226	H	1.145283	-0.207909	0.390538
H227	H	1.478616	0.125425	0.723871
H228	H	1.811950	0.458758	1.057204
O229	O	0.541404	-0.200683	-0.161310
O230	O	0.874737	0.132651	0.172024
O231	O	1.208070	0.465984	0.505357
H232	H	0.610914	-0.201519	-0.160671
H233	H	0.944248	0.131815	0.172663
H234	H	1.277581	0.465148	0.505996
H235	H	1.138919	0.456457	0.000186
H236	H	1.472252	0.789790	0.333519
H237	H	1.805585	1.123124	0.666852
