data_functionalizedCrystal
_audit_creation_method	'MofGen! by Chris Wilmer'
_symmetry_space_group_name_H-M	'P1'
_symmetry_Int_Tables_number	1
_symmetry_cell_setting	triclinic
loop_
_symmetry_equiv_pos_as_xyz
  x,y,z
_cell_length_a	17.019311
_cell_length_b	16.098538
_cell_length_c	9.065218
_cell_angle_alpha	92.765239
_cell_angle_beta	95.795254
_cell_angle_gamma	96.609511
loop_
_atom_site_label
_atom_site_type_symbol
_atom_site_fract_x
_atom_site_fract_y
_atom_site_fract_z
O1	O	1.055315	0.144936	-0.174195
O2	O	0.824990	0.128419	-0.199723
O3	O	0.944913	0.137017	0.027844
O4	O	0.935392	0.136338	-0.401762
O5	O	0.937907	-0.001998	0.014603
O6	O	0.817984	-0.010596	-0.212965
O7	O	1.048309	0.005921	-0.187436
Zn8	Zn	0.932034	-0.024409	-0.202303
Zn9	Zn	0.941265	0.158749	-0.184857
O10	O	0.928386	-0.002677	-0.415004
C11	C	0.791985	0.056796	-0.205635
C12	C	0.704078	0.050492	-0.203506
C13	C	0.206700	0.011040	-0.191872
C14	C	0.289298	0.016964	-0.193873
C15	C	0.334416	0.095705	-0.187644
C16	C	0.296932	0.168526	-0.179429
C17	C	0.214335	0.162601	-0.177439
C18	C	0.583997	0.117388	-0.193300
C19	C	0.666600	0.123308	-0.195287
C20	C	0.658959	-0.028255	-0.209733
C21	C	0.576362	-0.034173	-0.207734
C22	C	0.538884	0.038647	-0.199527
C23	C	0.418845	0.101763	-0.189684
C24	C	0.454456	0.032589	-0.197497
N25	N	0.925741	-0.149410	-0.214208
C26	C	0.976660	-0.189344	-0.117654
C27	C	0.972265	-0.276848	-0.125996
C28	C	0.916954	-0.324416	-0.230901
C29	C	0.866029	-0.284476	-0.327460
C30	C	0.870421	-0.196974	-0.319110
C31	C	0.901032	-0.588808	-0.261148
C32	C	0.896645	-0.676316	-0.269494
C33	C	1.002881	-0.668682	-0.068027
C34	C	1.007271	-0.581178	-0.059691
C35	C	0.956344	-0.541246	-0.156245
C36	C	0.912461	-0.413859	-0.239434
C37	C	0.960833	-0.451804	-0.147704
C38	C	1.081314	0.077546	-0.181524
C39	C	1.169221	0.083855	-0.183653
C40	C	0.940495	0.067445	0.076179
C41	C	0.937759	0.067253	0.239930
N42	N	0.947565	0.283750	-0.172939
C43	C	0.932804	0.066896	-0.463338
C44	C	0.935540	0.067094	-0.627089
H45	H	0.689482	-0.087541	-0.216418
Br46	Br	0.515132	-0.141040	-0.216220
Br47	Br	1.041367	-0.331048	0.005049
Br48	Br	0.393222	-0.074271	-0.205964
Br49	Br	1.051735	-0.124796	0.024715
Br50	Br	0.358163	0.275390	-0.170981
H51	H	0.183821	0.221895	-0.170750
Br52	Br	1.071992	-0.722879	0.063007
Br53	Br	1.082340	-0.516620	0.082675
H54	H	0.553493	0.176684	-0.186612
H55	H	0.455590	0.165874	-0.184608
H56	H	0.851602	-0.715042	-0.354927
H57	H	0.859566	-0.556302	-0.339768
Br58	Br	0.727833	0.230178	-0.186828
Br59	Br	0.801307	-0.142778	-0.450145
Br60	Br	0.837396	-0.478419	-0.381805
H61	H	0.169969	-0.053080	-0.196951
H62	H	0.319809	-0.042330	-0.200562
Br63	Br	0.790956	-0.349030	-0.469825
H64	H	1.005864	-0.413072	-0.062285
