data_functionalizedCrystal
_audit_creation_method	'MofGen! by Chris Wilmer'
_symmetry_space_group_name_H-M	'P1'
_symmetry_Int_Tables_number	1
_symmetry_cell_setting	triclinic
loop_
_symmetry_equiv_pos_as_xyz
  x,y,z
_cell_length_a	12.645331
_cell_length_b	12.645330
_cell_length_c	12.645323
_cell_angle_alpha	89.973156
_cell_angle_beta	89.978207
_cell_angle_gamma	90.016671
loop_
_atom_site_label
_atom_site_type_symbol
_atom_site_fract_x
_atom_site_fract_y
_atom_site_fract_z
Zn1	Zn	1.620722	-0.422039	-0.599446
Zn2	Zn	1.620606	-0.599333	-0.422186
Zn3	Zn	1.443439	-0.422081	-0.422191
Zn4	Zn	1.443418	-0.599258	-0.599402
O5	O	1.532047	-0.510678	-0.510806
O6	O	1.769054	-0.445572	-0.575949
O7	O	1.597065	-0.575869	-0.273840
O8	O	1.467013	-0.273728	-0.445724
O9	O	1.768969	-0.575829	-0.445717
O10	O	1.597262	-0.273697	-0.575953
O11	O	1.466901	-0.445643	-0.273843
O12	O	1.295089	-0.445570	-0.445681
O13	O	1.466978	-0.575700	-0.747755
O14	O	1.295074	-0.575741	-0.575877
O15	O	1.597242	-0.445499	-0.747788
O16	O	1.597045	-0.747671	-0.445674
O17	O	1.466866	-0.747615	-0.575873
C18	C	1.256617	-0.510653	-0.510776
C19	C	1.138787	-0.510667	-0.510788
C20	C	0.971197	-0.428400	-0.429333
C21	C	1.093757	-0.428613	-0.428974
C22	C	1.094267	-0.622343	-0.480273
C23	C	0.971668	-0.621893	-0.479717
C24	C	0.971636	-0.482323	-0.623072
C25	C	1.094241	-0.479828	-0.622448
C26	C	1.531969	-0.786108	-0.510791
C27	C	1.532033	-0.903938	-0.510821
C28	C	1.450475	-1.071511	-0.592982
C29	C	1.450058	-0.948951	-0.592717
C30	C	1.501789	-0.948535	-0.399099
C31	C	1.501292	-1.071133	-0.399597
C32	C	1.644334	-1.071028	-0.539475
C33	C	1.643646	-0.948421	-0.541918
C34	C	1.808552	-0.510704	-0.510838
C35	C	1.926382	-0.510715	-0.510851
C36	C	1.532120	-0.510586	-0.787312
C37	C	1.532152	-0.510547	-0.905142
C38	C	1.532153	-0.234173	-0.510844
C39	C	1.532198	-0.116343	-0.510861
C40	C	1.450207	-0.592441	-0.950003
C41	C	1.449919	-0.592133	-1.072563
C42	C	1.502283	-0.398649	-1.073044
C43	C	1.501655	-0.399189	-0.950446
C44	C	1.644240	-0.539437	-0.950333
C45	C	1.643672	-0.541835	-1.072939
C46	C	1.532034	-0.510693	-0.235377
C47	C	1.532208	-0.510433	-0.117547
H48	H	0.940350	-0.446958	-0.346662
H49	H	1.558765	-0.336068	-0.920768
H50	H	1.367625	-0.573523	-0.919191
H51	H	1.123435	-0.685313	-0.537783
Cl52	Cl	1.742609	-0.901098	-0.456304
H53	H	1.560155	-0.335930	-1.102181
Cl54	Cl	1.738342	-1.115810	-0.447148
Cl55	Cl	1.479413	-1.116920	-0.721306
Cl56	Cl	1.479267	-0.902387	-0.720619
H57	H	1.419734	-0.374744	-0.921847
Cl58	Cl	0.923939	-0.358787	-0.665916
Cl59	Cl	1.742963	-0.456458	-1.120214
H60	H	0.941733	-0.345340	-0.448254
H61	H	1.421277	-0.373750	-1.103746
H62	H	1.367863	-1.102411	-0.574266
Cl63	Cl	1.139194	-0.352957	-0.657989
H64	H	0.943024	-0.645970	-0.397678
H65	H	1.705289	-0.479786	-0.921328
Cl66	Cl	1.686379	-0.663210	-0.902611
Cl67	Cl	1.678526	-0.668851	-1.117845
Cl68	Cl	1.321703	-0.562555	-1.117848
Cl69	Cl	1.140234	-0.300758	-0.458500
Cl70	Cl	1.321707	-0.903806	-0.563453
H71	H	1.468602	-0.675012	-1.102653
Cl72	Cl	1.678864	-0.903412	-0.668862
Cl73	Cl	1.138970	-0.457582	-0.300580
H74	H	1.419320	-1.099824	-0.375357
H75	H	1.558233	-1.100794	-0.336324
H76	H	0.942023	-0.685300	-0.536502
Cl77	Cl	1.590772	-0.903525	-0.302045
H78	H	1.124924	-0.646833	-0.399115
Cl79	Cl	1.141563	-0.565645	-0.721240
H80	H	0.942656	-0.542277	-0.683810
H81	H	1.420672	-0.917923	-0.374420
H82	H	1.468654	-0.675612	-0.920527
Cl83	Cl	1.686929	-1.118642	-0.663119
