data_functionalizedCrystal
_audit_creation_method	'MofGen! by Chris Wilmer'
_symmetry_space_group_name_H-M	'P1'
_symmetry_Int_Tables_number	1
_symmetry_cell_setting	triclinic
loop_
_symmetry_equiv_pos_as_xyz
  x,y,z
_cell_length_a	14.519709
_cell_length_b	10.723024
_cell_length_c	9.798715
_cell_angle_alpha	90.003391
_cell_angle_beta	89.995905
_cell_angle_gamma	95.925993
loop_
_atom_site_label
_atom_site_type_symbol
_atom_site_fract_x
_atom_site_fract_y
_atom_site_fract_z
O1	O	0.129347	-1.655978	-0.113485
O2	O	0.629347	-1.155978	0.386515
O3	O	0.141728	-1.292710	-0.113490
O4	O	0.641728	-0.792710	0.386510
O5	O	0.001349	-1.483975	-0.113475
O6	O	0.501349	-0.983975	0.386525
O7	O	0.269727	-1.464712	-0.113500
O8	O	0.769727	-0.964712	0.386500
O9	O	0.001348	-1.483961	0.113507
O10	O	0.501348	-0.983961	0.613507
O11	O	0.141728	-1.292695	0.113492
O12	O	0.641728	-0.792695	0.613492
O13	O	0.129347	-1.655963	0.113497
O14	O	0.629347	-1.155963	0.613497
Zn15	Zn	0.135537	-1.474327	0.149533
Zn16	Zn	0.635537	-0.974327	0.649533
Zn17	Zn	0.135538	-1.474346	-0.149526
Zn18	Zn	0.635538	-0.974346	0.350474
O19	O	0.269727	-1.464698	0.113482
O20	O	0.769727	-0.964698	0.613482
C21	C	0.140827	-1.246211	0.000000
C22	C	0.640827	-0.746211	0.500000
C23	C	0.138132	-1.107682	-0.000001
C24	C	0.638132	-0.607682	0.499999
C25	C	-0.033016	-1.483070	0.000016
C26	C	0.466984	-0.983070	0.500016
C27	C	-0.135411	-1.480380	0.000017
C28	C	0.364589	-0.980380	0.500017
C29	C	0.130248	-1.702462	0.000003
C30	C	0.630248	-1.202462	0.500003
C31	C	0.132944	-1.840991	-0.000004
C32	C	0.632944	-1.340991	0.499996
C33	C	-0.510357	-1.470476	-0.000019
C34	C	-0.010357	-0.970476	0.499981
C35	C	-0.406035	-1.473227	-0.000009
C36	C	0.093965	-0.973227	0.499991
C37	C	-0.322887	-1.475428	0.000000
C38	C	0.177113	-0.975428	0.500000
C39	C	-0.218559	-1.478179	0.000008
C40	C	0.281441	-0.978179	0.500008
C41	C	0.304091	-1.465603	-0.000012
C42	C	0.804091	-0.965603	0.499988
C43	C	0.406486	-1.468293	-0.000022
C44	C	0.906486	-0.968293	0.499978
N45	N	0.135537	-1.474323	0.353632
N46	N	0.635537	-0.974323	0.853632
C47	C	0.216681	-1.031965	-0.000009
C48	C	0.716681	-0.531965	0.499991
C49	C	0.213896	-0.888788	-0.000011
C50	C	0.713896	-0.388788	0.499989
N51	N	0.135532	-1.474359	-0.353626
N52	N	0.635532	-0.974359	0.146374
C53	C	0.076335	-1.554633	0.421415
C54	C	0.576335	-1.054633	0.921415
C55	C	0.076332	-1.554653	0.578578
C56	C	0.576332	-1.054653	1.078578
H57	H	0.281141	-0.823726	-0.000024
H58	H	0.781141	-0.323726	0.499976
H59	H	0.025649	-1.623371	0.363098
H60	H	0.525649	-1.123371	0.863098
H61	H	0.186222	-1.405604	0.588092
H62	H	0.686222	-0.905604	1.088092
H63	H	0.025651	-1.623414	0.636869
H64	H	0.525651	-1.123414	1.136869
H65	H	0.186216	-1.405577	0.411951
H66	H	0.686216	-0.905577	0.911951
O67	O	0.299451	-1.080865	0.000042
O68	O	0.799451	-0.580865	0.500042
C69	C	0.371946	-0.982665	-0.000004
C70	C	0.871946	-0.482665	0.499996
H71	H	0.345627	-0.894125	0.042970
H72	H	0.845627	-0.394125	0.542970
H73	H	0.431338	-1.010104	0.065888
H74	H	0.931338	-0.510104	0.565888
H75	H	0.397492	-0.964357	-0.108903
H76	H	0.897492	-0.464357	0.391097
O77	O	0.052688	-0.918540	-0.000239
O78	O	0.552688	-0.418540	0.499761
C79	C	0.000977	-0.895744	-0.117773
C80	C	0.500977	-0.395744	0.382227
H81	H	0.049349	-0.851295	-0.199942
H82	H	0.549349	-0.351295	0.300058
H83	H	-0.035342	-0.988056	-0.157230
H84	H	0.464658	-0.488056	0.342770
H85	H	-0.052890	-0.829449	-0.091189
H86	H	0.447110	-0.329449	0.408811
O87	O	0.055361	-1.058782	0.000064
O88	O	0.555361	-0.558782	0.500064
C89	C	-0.017133	-1.156983	0.000033
C90	C	0.482867	-0.656983	0.500033
H91	H	0.009185	-1.245517	0.043005
H92	H	0.509185	-0.745517	0.543005
H93	H	-0.076526	-1.129534	0.065934
H94	H	0.423474	-0.629534	0.565934
H95	H	-0.042679	-1.175304	-0.108861
H96	H	0.457321	-0.675304	0.391139
