data_functionalizedCrystal
_audit_creation_method	'MofGen! by Chris Wilmer'
_symmetry_space_group_name_H-M	'P1'
_symmetry_Int_Tables_number	1
_symmetry_cell_setting	triclinic
loop_
_symmetry_equiv_pos_as_xyz
  x,y,z
_cell_length_a	19.077105
_cell_length_b	18.050589
_cell_length_c	19.076919
_cell_angle_alpha	87.724745
_cell_angle_beta	89.923776
_cell_angle_gamma	87.724731
loop_
_atom_site_label
_atom_site_type_symbol
_atom_site_fract_x
_atom_site_fract_y
_atom_site_fract_z
Zn1	Zn	1.058247	-0.359281	0.440438
Zn2	Zn	1.558247	0.140719	0.940438
Zn3	Zn	1.062879	-0.478689	0.322938
Zn4	Zn	1.562879	0.021311	0.822938
Zn5	Zn	0.945466	-0.349333	0.318231
Zn6	Zn	1.445466	0.150667	0.818231
Zn7	Zn	0.940701	-0.478241	0.435691
Zn8	Zn	1.440701	0.021759	0.935691
O9	O	1.001823	-0.416386	0.379325
O10	O	1.501823	0.083614	0.879325
O11	O	1.157193	-0.379472	0.428809
O12	O	1.657193	0.120528	0.928809
O13	O	1.051237	-0.457554	0.223983
O14	O	1.551237	0.042446	0.723983
O15	O	0.960482	-0.246731	0.334459
O16	O	1.460482	0.253269	0.834459
O17	O	1.160596	-0.467201	0.342482
O18	O	1.660596	0.032799	0.842482
O19	O	1.043342	-0.254040	0.424244
O20	O	1.543342	0.245960	0.924244
O21	O	0.964973	-0.362516	0.220524
O22	O	1.464973	0.137484	0.720524
O23	O	0.846502	-0.362082	0.329856
O24	O	1.346502	0.137918	0.829856
O25	O	0.952361	-0.466437	0.534652
O26	O	1.452361	0.033563	1.034652
O27	O	0.843002	-0.456790	0.416153
O28	O	1.343002	0.043210	0.916153
O29	O	1.038722	-0.379038	0.538140
O30	O	1.538722	0.120962	1.038140
O31	O	1.046617	-0.582551	0.337879
O32	O	1.546617	-0.082551	0.837879
O33	O	0.956853	-0.582222	0.420717
O34	O	1.456853	-0.082222	0.920717
C35	C	0.819256	-0.408308	0.371979
C36	C	1.319256	0.091692	0.871979
C37	C	0.741152	-0.404871	0.368853
C38	C	1.241152	0.095129	0.868853
C39	C	0.702657	-0.452635	0.412244
C40	C	1.202657	0.047365	0.912244
C41	C	0.629270	-0.449396	0.409310
C42	C	1.129270	0.050604	0.909310
C43	C	0.594379	-0.398396	0.362981
C44	C	1.094379	0.101604	0.862981
C45	C	0.632879	-0.350627	0.319588
C46	C	1.132879	0.149373	0.819588
C47	C	0.706264	-0.353863	0.322526
C48	C	1.206264	0.146137	0.822526
C49	C	0.375093	-0.383419	0.349388
C50	C	0.875093	0.116581	0.849388
C51	C	0.301702	-0.380188	0.346452
C52	C	0.801702	0.119812	0.846452
C53	C	0.298098	-0.478956	0.436175
C54	C	0.798098	0.021044	0.936175
C55	C	0.371485	-0.482191	0.439105
C56	C	0.871485	0.017809	0.939105
C57	C	0.409979	-0.434419	0.395715
C58	C	0.909979	0.065581	0.895715
N59	N	0.519366	-0.395085	0.359980
N60	N	1.019366	0.104915	0.859980
N61	N	0.484990	-0.437727	0.398721
N62	N	0.984990	0.062273	0.898721
C63	C	1.001739	-0.609334	0.379310
C64	C	1.501739	-0.109334	0.879310
C65	C	1.001766	-0.691882	0.379329
C66	C	1.501766	-0.191882	0.879329
C67	C	0.952999	-0.891182	0.424363
C68	C	1.452999	-0.391182	0.924363
C69	C	0.938449	-0.937256	0.359556
C70	C	1.438449	-0.437256	0.859556
C71	C	1.001835	-0.843016	0.379341
C72	C	1.501835	-0.343016	0.879341
C73	C	1.016419	-0.944025	0.444157
C74	C	1.516419	-0.444025	0.944157
C75	C	1.001900	-0.989004	0.379358
C76	C	1.501900	-0.489004	0.879358
C77	C	0.987253	-0.887999	0.314499
C78	C	1.487253	-0.387999	0.814499
C79	C	1.065250	-0.894768	0.399145
C80	C	1.565250	-0.394768	0.899145
C81	C	1.050726	-0.940818	0.334295
C82	C	1.550726	-0.440818	0.834295
C83	C	1.001796	-0.758915	0.379332
C84	C	1.501796	-0.258915	0.879332
C85	C	1.001939	-1.073102	0.379360
C86	C	1.501939	-0.573102	0.879360
C87	C	1.185104	-0.424496	0.386700
C88	C	1.685104	0.075504	0.886700
C89	C	1.263207	-0.427952	0.389843
C90	C	1.763207	0.072048	0.889843
C91	C	0.994493	-0.423797	0.562605
C92	C	1.494493	0.076203	1.062605
C93	C	0.991370	-0.426955	0.640709
C94	C	1.491370	0.073045	1.140709
C95	C	1.001926	-0.222686	0.379356
C96	C	1.501926	0.277314	0.879356
C97	C	1.001970	-0.140143	0.379369
C98	C	1.501970	0.359857	0.879369
C99	C	1.009165	-0.408952	0.196759
C100	C	1.509165	0.091048	0.696759
C101	C	1.012425	-0.405591	0.118661
C102	C	1.512425	0.094409	0.618661
C103	C	1.034863	-0.382937	0.679219
C104	C	1.534863	0.117063	1.179219
C105	C	1.031920	-0.385901	0.752605
C106	C	1.531920	0.114099	1.252605
C107	C	0.985486	-0.432888	0.787479
C108	C	1.485486	0.067112	1.287479
C109	C	0.941988	-0.476908	0.748964
C110	C	1.441988	0.023092	1.248964
C111	C	0.944928	-0.473940	0.675579
C112	C	1.444928	0.026060	1.175579
C113	C	0.971867	-0.446642	1.006761
C114	C	1.471867	0.053358	1.506761
C115	C	0.968931	-0.449609	1.080151
C116	C	1.468931	0.050391	1.580151
C117	C	1.058863	-0.358601	1.083787
C118	C	1.558863	0.141399	1.583787
C119	C	1.061802	-0.355639	1.010401
C120	C	1.561802	0.144361	1.510401
C121	C	1.018301	-0.399657	0.971892
C122	C	1.518301	0.100343	1.471892
N123	N	0.982478	-0.435921	0.862492
N124	N	1.482478	0.064079	1.362492
N125	N	1.021307	-0.396619	0.896881
N126	N	1.521307	0.103381	1.396881
H127	H	0.597931	-0.488291	0.444643
H128	H	1.097931	0.011709	0.944643
H129	H	0.884851	-0.956052	0.342820
H130	H	1.384851	-0.456052	0.842820
N131	N	0.971723	-0.857370	0.245727
N132	N	1.471723	-0.357370	0.745727
N133	N	0.969158	-0.788601	0.234628
N134	N	1.469158	-0.288601	0.734628
H135	H	0.958184	-0.766966	0.186060
H136	H	1.458184	-0.266966	0.686060
N137	N	1.102564	-0.968001	0.286487
N138	N	1.602564	-0.468001	0.786487
N139	N	1.111317	-1.036239	0.279077
N140	N	1.611317	-0.536239	0.779077
H141	H	1.147924	-1.055440	0.245311
H142	H	1.647924	-0.555440	0.745311
H143	H	1.028729	-0.968523	0.498964
H144	H	1.528729	-0.468523	0.998964
H145	H	1.072677	-0.344677	0.650829
H146	H	1.572677	0.155323	1.150829
N147	N	1.103299	-0.313634	1.123111
N148	N	1.603299	0.186366	1.623111
N149	N	1.168465	-0.321092	1.117525
N150	N	1.668465	0.178908	1.617525
H151	H	1.199849	-0.289330	1.145296
H152	H	1.699849	0.210670	1.645296
N153	N	0.407112	-0.534293	0.486432
N154	N	0.907112	-0.034293	0.986432
N155	N	0.372733	-0.576936	0.525171
N156	N	0.872733	-0.076936	1.025171
H157	H	0.397894	-0.613736	0.558595
H158	H	0.897894	-0.113736	1.058595
N159	N	0.927430	-0.491593	0.967425
N160	N	1.427430	0.008407	1.467425
N161	N	0.884303	-0.461822	0.924683
N162	N	1.384303	0.038178	1.424683
H163	H	0.852915	-0.493569	0.896900
H164	H	1.352915	0.006431	1.396900
H165	H	0.931117	-0.487874	1.108544
H166	H	1.431117	0.012126	1.608544
H167	H	0.904177	-0.515163	0.777365
H168	H	1.404177	-0.015163	1.277365
N169	N	1.076349	-0.340949	0.791952
N170	N	1.576349	0.159051	1.291952
N171	N	1.073718	-0.343602	0.857474
N172	N	1.573718	0.156398	1.357474
H173	H	1.105097	-0.311852	0.885264
H174	H	1.605097	0.188148	1.385264
N175	N	0.745599	-0.305086	0.278201
N176	N	1.245599	0.194914	0.778201
N177	N	0.811121	-0.307982	0.280829
N178	N	1.311121	0.192018	0.780829
H179	H	0.838902	-0.273531	0.249525
H180	H	1.338902	0.226469	0.749525
N181	N	0.414403	-0.334620	0.305068
N182	N	0.914403	0.165380	0.805068
N183	N	0.406041	-0.265933	0.309509
N184	N	0.906041	0.234067	0.809509
H185	H	0.433806	-0.231466	0.278204
H186	H	0.933806	0.268534	0.778204
H187	H	1.099616	-0.317380	0.982011
H188	H	1.599616	0.182620	1.482011
H189	H	0.909504	-0.509777	0.644225
H190	H	1.409504	-0.009777	1.144225
H191	H	0.731060	-0.494167	0.449968
H192	H	1.231060	0.005833	0.949968
N193	N	0.258767	-0.527746	0.480488
N194	N	0.758767	-0.027746	0.980488
N195	N	0.193245	-0.524854	0.477861
N196	N	0.693245	-0.024854	0.977861
H197	H	0.165466	-0.559313	0.509160
H198	H	0.665466	-0.059313	1.009160
H199	H	0.604465	-0.309099	0.281869
H200	H	1.104465	0.190901	0.781869
N201	N	0.266071	-0.328086	0.299121
N202	N	0.766071	0.171914	0.799121
N203	N	0.300447	-0.285436	0.260384
N204	N	0.800447	0.214564	0.760384
H205	H	0.275284	-0.248641	0.226958
H206	H	0.775284	0.251359	0.726958
H207	H	0.911645	-0.869387	0.462377
H208	H	1.411645	-0.369387	0.962377
H209	H	1.118835	-0.875974	0.415910
H210	H	1.618835	-0.375974	0.915910
