data_functionalizedCrystal
_audit_creation_method	'MofGen! by Chris Wilmer'
_symmetry_space_group_name_H-M	'P1'
_symmetry_Int_Tables_number	1
_symmetry_cell_setting	triclinic
loop_
_symmetry_equiv_pos_as_xyz
  x,y,z
_cell_length_a	14.853558
_cell_length_b	15.712078
_cell_length_c	13.930277
_cell_angle_alpha	89.998459
_cell_angle_beta	89.993309
_cell_angle_gamma	101.606141
loop_
_atom_site_label
_atom_site_type_symbol
_atom_site_fract_x
_atom_site_fract_y
_atom_site_fract_z
O1	O	1.233439	0.112856	-0.079817
O2	O	1.733439	0.612856	0.420183
O3	O	0.975398	0.126313	-0.079821
O4	O	1.475398	0.626313	0.420179
O5	O	1.070090	-0.006284	-0.079815
O6	O	1.570090	0.493716	0.420185
O7	O	1.138747	0.245452	-0.079824
O8	O	1.638747	0.745452	0.420176
O9	O	1.070070	-0.006286	0.079847
O10	O	1.570070	0.493714	0.579847
O11	O	0.975378	0.126310	0.079840
O12	O	1.475378	0.626310	0.579840
O13	O	1.233419	0.112853	0.079845
O14	O	1.733419	0.612853	0.579845
Zn15	Zn	1.104395	0.119581	0.105192
Zn16	Zn	1.604395	0.619581	0.605192
Zn17	Zn	1.104422	0.119585	-0.105169
Zn18	Zn	1.604422	0.619585	0.394831
O19	O	1.138727	0.245449	0.079838
O20	O	1.638727	0.745449	0.579838
C21	C	0.941599	0.125703	0.000009
C22	C	1.441599	0.625703	0.500009
C23	C	0.840916	0.123880	0.000007
C24	C	1.340916	0.623880	0.500007
C25	C	0.793626	0.123027	-0.087028
C26	C	1.293626	0.623027	0.412972
C27	C	0.793600	0.123013	0.087041
C28	C	1.293600	0.623013	0.587041
C29	C	0.699002	0.121296	0.087043
C30	C	1.199002	0.621296	0.587043
C31	C	0.651712	0.120443	0.000008
C32	C	1.151712	0.620443	0.500008
C33	C	0.699020	0.121307	-0.087029
C34	C	1.199020	0.621307	0.412971
C35	C	0.651685	0.120423	0.174078
C36	C	1.151685	0.620423	0.674078
C37	C	0.557082	0.118705	0.174084
C38	C	1.057082	0.618705	0.674084
C39	C	0.509791	0.117858	0.087047
C40	C	1.009791	0.617858	0.587047
C41	C	0.557105	0.118723	0.000007
C42	C	1.057105	0.618723	0.500007
C43	C	0.509815	0.117870	-0.087028
C44	C	1.009815	0.617870	0.412972
C45	C	0.557128	0.118741	-0.174070
C46	C	1.057128	0.618741	0.325930
C47	C	0.651729	0.120460	-0.174065
C48	C	1.151729	0.620460	0.325935
C49	C	0.415190	0.116139	0.087043
C50	C	0.915190	0.616139	0.587043
C51	C	0.415208	0.116149	-0.087029
C52	C	0.915208	0.616149	0.412971
C53	C	1.058864	-0.038501	0.000015
C54	C	1.558864	0.461499	0.500015
C55	C	1.025433	-0.134495	0.000012
C56	C	1.525433	0.365505	0.500012
C57	C	1.309273	-0.501260	0.000007
C58	C	1.809273	-0.001260	0.500007
C59	C	1.277838	-0.591459	0.000007
C60	C	1.777838	-0.091459	0.500007
C61	C	1.120327	-0.571027	0.000004
C62	C	1.620327	-0.071027	0.500004
C63	C	1.151749	-0.480825	0.000009
C64	C	1.651749	0.019175	0.500009
C65	C	1.246223	-0.445949	0.000009
C66	C	1.746223	0.054051	0.500009
C67	C	1.088699	-0.425513	0.000011
C68	C	1.588699	0.074487	0.500011
C69	C	1.120118	-0.335319	0.000011
C70	C	1.620118	0.164681	0.500011
C71	C	1.214588	-0.300436	0.000008
C72	C	1.714588	0.199564	0.500008
C73	C	1.277642	-0.355755	0.000009
C74	C	1.777642	0.144245	0.500009
C75	C	0.994225	-0.460391	0.000003
C76	C	1.494225	0.039609	0.500003
C77	C	0.931175	-0.405079	0.000006
C78	C	1.431175	0.094921	0.500006
C79	C	0.962594	-0.314884	0.000012
C80	C	1.462594	0.185116	0.500012
C81	C	1.057064	-0.280001	0.000010
C82	C	1.557064	0.219999	0.500010
C83	C	0.899540	-0.259565	0.000012
C84	C	1.399540	0.240435	0.500012
C85	C	0.930959	-0.169371	0.000011
C86	C	1.430959	0.330629	0.500011
C87	C	1.088483	-0.189807	0.000010
C88	C	1.588483	0.310193	0.500010
C89	C	1.267218	0.113463	0.000012
C90	C	1.767218	0.613463	0.500012
C91	C	1.367900	0.115286	0.000007
C92	C	1.867900	0.615286	0.500007
C93	C	1.149953	0.277667	0.000006
C94	C	1.649953	0.777667	0.500006
C95	C	1.183384	0.373661	0.000003
C96	C	1.683384	0.873661	0.500003
N97	N	1.104383	0.119578	0.248758
N98	N	1.604383	0.619578	0.748758
N99	N	1.104438	0.119581	-0.248735
N100	N	1.604438	0.619581	0.251265
C101	C	1.062482	0.178275	0.701025
C102	C	1.562482	0.678275	1.201025
C103	C	1.146384	0.060887	0.701000
C104	C	1.646384	0.560887	1.201000
C105	C	1.146372	0.060885	0.600504
C106	C	1.646372	0.560885	1.100504
C107	C	1.104416	0.119579	0.550264
C108	C	1.604416	0.619579	1.050264
C109	C	1.062471	0.178276	0.600520
C110	C	1.562471	0.678276	1.100520
C111	C	1.188324	0.002195	0.550241
C112	C	1.688324	0.502195	1.050241
C113	C	1.188315	0.002190	0.449739
C114	C	1.688315	0.502190	0.949739
C115	C	1.146353	0.060881	0.399497
C116	C	1.646353	0.560881	0.899497
C117	C	1.104406	0.119580	0.449759
C118	C	1.604406	0.619580	0.949759
C119	C	1.062449	0.178274	0.399519
C120	C	1.562449	0.678274	0.899519
C121	C	1.020496	0.236970	0.449779
C122	C	1.520496	0.736970	0.949779
C123	C	1.020509	0.236967	0.550278
C124	C	1.520509	0.736967	1.050278
C125	C	1.146340	0.060884	0.298998
C126	C	1.646340	0.560884	0.798998
C127	C	1.062439	0.178275	0.299014
C128	C	1.562439	0.678275	0.799014
H129	H	0.690194	0.121110	0.244938
H130	H	1.190194	0.621110	0.744938
Cl131	Cl	1.254089	-0.187048	0.000003
Cl132	Cl	1.754089	0.312952	0.500003
Cl133	Cl	0.497613	0.117622	0.283505
Cl134	Cl	0.997613	0.617622	0.783505
H135	H	0.832154	0.123740	-0.157895
H136	H	1.332154	0.623740	0.342105
H137	H	1.180503	0.013099	0.258081
H138	H	1.680503	0.513099	0.758081
Cl139	Cl	1.009738	0.252057	0.764203
Cl140	Cl	1.509738	0.752057	1.264203
H141	H	1.180549	0.013104	0.741908
H142	H	1.680549	0.513104	1.241908
H143	H	0.822619	-0.287975	0.000002
H144	H	1.322619	0.212025	0.500002
H145	H	0.832107	0.123701	0.157902
H146	H	1.332107	0.623701	0.657902
H147	H	0.986340	0.284763	0.408862
H148	H	1.486340	0.784763	0.908862
Cl149	Cl	1.428042	-0.457409	0.000040
Cl150	Cl	1.928042	0.042591	0.500040
Cl151	Cl	0.355712	0.115030	0.196457
Cl152	Cl	0.855712	0.615030	0.696457
Cl153	Cl	0.967776	0.310752	0.613464
Cl154	Cl	1.467776	0.810752	1.113464
Cl155	Cl	0.497663	0.117648	-0.283481
Cl156	Cl	0.997663	0.617648	0.216519
Cl157	Cl	1.207253	-0.145956	0.000042
Cl158	Cl	1.707253	0.354044	0.500042
H159	H	1.222490	-0.045589	0.591150
H160	H	1.722490	0.454411	1.091150
Cl161	Cl	1.396411	-0.311904	0.000042
Cl162	Cl	1.896411	0.188096	0.500042
H163	H	0.854254	-0.433488	0.000001
H164	H	1.354254	0.066512	0.500001
Cl165	Cl	0.851695	-0.099832	0.000014
Cl166	Cl	1.351695	0.400168	0.500014
Cl167	Cl	1.241051	-0.071599	0.386562
Cl168	Cl	1.741051	0.428401	0.886562
H169	H	0.376712	0.115460	-0.157905
H170	H	0.876712	0.615460	0.342095
H171	H	1.329189	-0.636492	-0.000001
H172	H	1.829189	-0.136492	0.499999
Cl173	Cl	0.954727	-0.573779	0.000082
Cl174	Cl	1.454727	-0.073779	0.500082
H175	H	0.690260	0.121168	-0.244930
H176	H	1.190260	0.621168	0.255070
H177	H	1.028268	0.226068	0.258115
H178	H	1.528268	0.726068	0.758115
Cl179	Cl	1.001565	-0.614879	-0.000005
Cl180	Cl	1.501565	-0.114879	0.499995
