data_functionalizedCrystal
_audit_creation_method	'MofGen! by Chris Wilmer'
_symmetry_space_group_name_H-M	'P1'
_symmetry_Int_Tables_number	1
_symmetry_cell_setting	triclinic
loop_
_symmetry_equiv_pos_as_xyz
  x,y,z
_cell_length_a	12.594517
_cell_length_b	12.594515
_cell_length_c	12.594509
_cell_angle_alpha	89.973388
_cell_angle_beta	89.974182
_cell_angle_gamma	90.022986
loop_
_atom_site_label
_atom_site_type_symbol
_atom_site_fract_x
_atom_site_fract_y
_atom_site_fract_z
Zn1	Zn	-1.627178	0.423854	0.601999
Zn2	Zn	-1.627032	0.601864	0.424026
Zn3	Zn	-1.449182	0.423884	0.424014
Zn4	Zn	-1.449127	0.601775	0.601942
O5	O	-1.538130	0.512844	0.512995
O6	O	-1.776105	0.447492	0.578420
O7	O	-1.603401	0.578305	0.275079
O8	O	-1.472878	0.274934	0.447644
O9	O	-1.775997	0.578275	0.447663
O10	O	-1.603651	0.274912	0.578409
O11	O	-1.472736	0.447544	0.275070
O12	O	-1.300229	0.447457	0.447588
O13	O	-1.472784	0.578123	0.750896
O14	O	-1.300189	0.578153	0.578311
O15	O	-1.603598	0.447405	0.750938
O16	O	-1.603348	0.750798	0.447608
O17	O	-1.472642	0.750733	0.578322
C18	C	-1.261589	0.512799	0.512942
C19	C	-1.143283	0.512806	0.512945
C20	C	-1.538002	0.789385	0.512983
C21	C	-1.538045	0.907691	0.513013
C22	C	-1.074021	0.441618	0.441975
C23	C	-1.003190	0.538700	0.415792
C24	C	-1.003316	0.415753	0.539129
C25	C	-1.074010	0.609940	0.486712
C26	C	-1.074142	0.486927	0.610094
C27	C	-1.003343	0.584077	0.583948
C28	C	-0.815751	0.512869	0.513030
C29	C	-0.934056	0.512825	0.512994
C30	C	-1.466988	1.047710	0.584074
C31	C	-1.564035	0.976808	0.610195
C32	C	-1.441008	0.977022	0.486939
C33	C	-1.635281	1.047573	0.539226
C34	C	-1.512188	1.047794	0.415925
C35	C	-1.609302	0.976923	0.442010
C36	C	-1.538201	0.512751	0.790616
C37	C	-1.538232	0.512711	0.908922
C38	C	-1.538244	1.235223	0.513033
C39	C	-1.538182	1.116918	0.513054
C40	C	-1.538120	0.512860	0.236454
C41	C	-1.538296	0.512600	0.118150
C42	C	-1.467104	0.583768	0.978152
C43	C	-1.564220	0.609783	1.048951
C44	C	-1.441192	0.486632	1.048922
C45	C	-1.635397	0.538777	0.978163
C46	C	-1.512305	0.415581	0.978128
C47	C	-1.609487	0.441559	1.048895
H48	H	-1.105055	0.381483	0.381891
C49	C	-1.330080	0.935115	0.457141
H50	H	-1.279638	0.959355	0.507695
H51	H	-1.331015	0.859698	0.456720
H52	H	-1.311146	0.960451	0.388640
C53	C	-0.961366	0.304870	0.569034
H54	H	-0.919904	0.309765	0.631839
H55	H	-1.019529	0.258302	0.580889
H56	H	-0.918766	0.278142	0.512816
H57	H	-1.490312	0.333511	0.946995
C58	C	-1.690645	0.935188	0.360856
H59	H	-1.759562	0.959474	0.379567
H60	H	-1.672817	0.960567	0.292081
H61	H	-1.689751	0.859764	0.360874
C62	C	-1.482518	1.089958	0.305022
H63	H	-1.413465	1.065849	0.286585
H64	H	-1.532336	1.064670	0.254376
H65	H	-1.483421	1.165379	0.305695
C66	C	-1.746252	1.089254	0.569176
H67	H	-1.792523	1.030966	0.581626
H68	H	-1.741337	1.131205	0.631644
H69	H	-1.773366	1.131293	0.512722
C70	C	-1.385914	0.665065	0.936182
H71	H	-1.404536	0.734006	0.960434
H72	H	-1.317132	0.647254	0.961450
H73	H	-1.386005	0.664101	0.860759
C74	C	-1.593890	0.720678	1.090987
H75	H	-1.543262	0.771124	1.066773
H76	H	-1.662359	0.739656	1.065720
H77	H	-1.594327	0.719670	1.166410
H78	H	-1.585969	0.945630	0.692318
C79	C	-1.746342	0.568591	0.936358
H80	H	-1.745636	0.568468	0.860929
H81	H	-1.796893	0.518366	0.961160
H82	H	-1.764934	0.637334	0.961181
C83	C	-1.385841	1.089713	0.665288
H84	H	-1.404441	1.065405	0.734254
H85	H	-1.317033	1.064522	0.647431
H86	H	-1.386010	1.165136	0.664296
C87	C	-1.330300	0.456887	1.090915
H88	H	-1.335164	0.394063	1.132416
H89	H	-1.283708	0.445119	1.032769
H90	H	-1.303622	0.513134	1.133484
H91	H	-1.669733	0.381421	1.079760
H92	H	-1.104935	0.692048	0.464494
C93	C	-0.961674	0.665497	0.665057
H94	H	-0.920200	0.630095	0.717165
H95	H	-0.919162	0.716797	0.629635
H96	H	-1.019961	0.699820	0.698422
C97	C	-0.961081	0.568290	0.304840
H98	H	-0.985273	0.517635	0.254478
H99	H	-0.986325	0.636752	0.285766
H100	H	-0.885659	0.568711	0.305824
H101	H	-1.105331	0.464993	0.692205
