data_functionalizedCrystal
_audit_creation_method	'MofGen! by Chris Wilmer'
_symmetry_space_group_name_H-M	'P1'
_symmetry_Int_Tables_number	1
_symmetry_cell_setting	triclinic
loop_
_symmetry_equiv_pos_as_xyz
  x,y,z
_cell_length_a	15.944551
_cell_length_b	15.944493
_cell_length_c	14.421503
_cell_angle_alpha	90.010165
_cell_angle_beta	89.996859
_cell_angle_gamma	83.486891
loop_
_atom_site_label
_atom_site_type_symbol
_atom_site_fract_x
_atom_site_fract_y
_atom_site_fract_z
O1	O	1.114507	0.108323	-0.077003
O2	O	1.447840	0.441657	0.256331
O3	O	1.781173	0.774990	0.589664
O4	O	0.869954	0.121680	-0.077024
O5	O	1.203288	0.455013	0.256309
O6	O	1.536621	0.788347	0.589642
O7	O	0.998934	-0.007276	-0.077021
O8	O	1.332267	0.326057	0.256313
O9	O	1.665601	0.659390	0.589646
O10	O	0.985527	0.237280	-0.077006
O11	O	1.318860	0.570613	0.256327
O12	O	1.652194	0.903947	0.589660
O13	O	0.998913	-0.007257	0.077203
O14	O	1.332246	0.326076	0.410536
O15	O	1.665579	0.659409	0.743869
O16	O	0.869933	0.121699	0.077199
O17	O	1.203266	0.455033	0.410533
O18	O	1.536600	0.788366	0.743866
O19	O	1.114485	0.108343	0.077221
O20	O	1.447819	0.441676	0.410554
O21	O	1.781152	0.775009	0.743887
Cu22	Cu	0.992207	0.115023	0.091292
Cu23	Cu	1.325541	0.448356	0.424625
Cu24	Cu	1.658874	0.781689	0.757958
Cu25	Cu	0.992232	0.115000	-0.091095
Cu26	Cu	1.325566	0.448333	0.242238
Cu27	Cu	1.658899	0.781667	0.575571
O28	O	0.985506	0.237299	0.077217
O29	O	1.318839	0.570632	0.410550
O30	O	1.652172	0.903966	0.743884
C31	C	0.838650	0.121135	0.000084
C32	C	1.171983	0.454468	0.333418
C33	C	1.505316	0.787802	0.666751
C34	C	0.745404	0.119473	0.000076
C35	C	1.078737	0.452806	0.333409
C36	C	1.412071	0.786139	0.666742
C37	C	0.530565	0.035566	0.000089
C38	C	0.863898	0.368899	0.333422
C39	C	1.197231	0.702233	0.666755
C40	C	0.469547	0.074520	-0.075949
C41	C	0.802881	0.407853	0.257384
C42	C	1.136214	0.741187	0.590717
C43	C	0.574679	0.116465	0.000086
C44	C	0.908012	0.449799	0.333420
C45	C	1.241346	0.783132	0.666753
C46	C	0.469548	0.074558	0.076103
C47	C	0.802882	0.407892	0.409436
C48	C	1.136215	0.741225	0.742770
C49	C	0.409767	0.113555	0.000101
C50	C	0.743100	0.446888	0.333434
C51	C	1.076433	0.780221	0.666768
C52	C	0.514889	0.155442	-0.076014
C53	C	0.848223	0.488775	0.257319
C54	C	1.181556	0.822108	0.590652
C55	C	0.514897	0.155468	0.076106
C56	C	0.848230	0.488802	0.409439
C57	C	1.181564	0.822135	0.742773
C58	C	0.453897	0.194481	0.000050
C59	C	0.787230	0.527814	0.333383
C60	C	1.120563	0.861148	0.666716
C61	C	0.669681	0.118140	0.000077
C62	C	1.003014	0.451473	0.333411
C63	C	1.336347	0.784807	0.666744
C64	C	0.314766	0.111886	0.000103
C65	C	0.648099	0.445220	0.333437
C66	C	0.981433	0.778553	0.666770
C67	C	0.998375	-0.038562	0.000087
C68	C	1.331709	0.294772	0.333420
C69	C	1.665042	0.628105	0.666754
C70	C	0.996733	-0.131810	0.000075
C71	C	1.330066	0.201523	0.333409
C72	C	1.663399	0.534856	0.666742
C73	C	1.072653	-0.367570	0.000099
C74	C	1.405986	-0.034237	0.333433
C75	C	1.739320	0.299097	0.666766
C76	C	1.031722	-0.418148	-0.075944
C77	C	1.365056	-0.084814	0.257389
C78	C	1.698389	0.248519	0.590723
C79	C	0.993688	-0.302531	0.000086
C80	C	1.327022	0.030802	0.333420
C81	C	1.660355	0.364135	0.666753
C82	C	1.031683	-0.418105	0.076108
C83	C	1.365016	-0.084771	0.409442
C84	C	1.698350	0.248562	0.742775
C85	C	0.990754	-0.467441	0.000101
C86	C	1.324087	-0.134108	0.333434
C87	C	1.657421	0.199226	0.666768
C88	C	0.952779	-0.351881	-0.076020
C89	C	1.286113	-0.018547	0.257313
C90	C	1.619446	0.314786	0.590647
C91	C	0.952751	-0.351834	0.076101
C92	C	1.286085	-0.018501	0.409434
C93	C	1.619418	0.314832	0.742767
C94	C	0.911763	-0.402379	0.000039
C95	C	1.245096	-0.069046	0.333372
C96	C	1.578430	0.264288	0.666705
C97	C	0.995381	-0.207531	0.000077
C98	C	1.328715	0.125802	0.333410
C99	C	1.662048	0.459135	0.666744
C100	C	0.989055	-0.562438	0.000104
C101	C	1.322388	-0.229105	0.333437
C102	C	1.655722	0.104229	0.666770
C103	C	1.145790	0.108888	0.000110
C104	C	1.479123	0.442221	0.333443
C105	C	1.812457	0.775554	0.666777
C106	C	1.239036	0.110550	0.000113
C107	C	1.572369	0.443883	0.333446
C108	C	1.905702	0.777217	0.666779
C109	C	0.986064	0.268584	0.000107
C110	C	1.319398	0.601918	0.333441
C111	C	1.652731	0.935251	0.666774
C112	C	0.987707	0.361833	0.000113
C113	C	1.321040	0.695166	0.333447
C114	C	1.654374	1.028500	0.666780
N115	N	0.992196	0.115038	0.219573
N116	N	1.325529	0.448371	0.552906
N117	N	1.658862	0.781705	0.886240
N118	N	0.992251	0.114978	-0.219377
N119	N	1.325584	0.448311	0.113957
N120	N	1.658917	0.781645	0.447290
C121	C	0.932545	0.174641	0.469225
C122	C	1.265878	0.507974	0.802558
C123	C	1.599211	0.841307	1.135892
C124	C	1.008441	0.190949	0.531036
C125	C	1.341775	0.524282	0.864369
C126	C	1.675108	0.857615	1.197702
C127	C	0.992216	0.115018	0.408734
C128	C	1.325549	0.448351	0.742068
C129	C	1.658883	0.781685	1.075401
C130	C	0.916339	0.098730	0.531018
C131	C	1.249672	0.432063	0.864351
C132	C	1.583006	0.765397	1.197684
C133	C	0.992229	0.115001	0.591456
C134	C	1.325562	0.448334	0.924789
C135	C	1.658896	0.781667	1.258123
C136	C	1.068151	0.131364	0.469184
C137	C	1.401484	0.464697	0.802518
C138	C	1.734818	0.798030	1.135851
C139	C	0.975998	0.039112	0.469161
C140	C	1.309332	0.372445	0.802494
C141	C	1.642665	0.705779	1.135827
C142	C	1.051950	0.055388	0.530944
C143	C	1.385283	0.388721	0.864277
C144	C	1.718617	0.722054	1.197610
C145	C	0.992207	0.115030	0.303473
C146	C	1.325541	0.448364	0.636807
C147	C	1.658874	0.781697	0.970140
C148	C	0.992246	0.114988	0.696715
C149	C	1.325580	0.448321	1.030048
C150	C	1.658913	0.781654	1.363381
H151	H	0.420724	0.261690	0.000011
H152	H	0.754058	0.595023	0.333344
H153	H	1.087391	0.928357	0.666678
H154	H	0.843692	-0.417845	-0.000009
H155	H	1.177025	-0.084512	0.333324
H156	H	1.510359	0.248822	0.666658
H157	H	0.919423	-0.322866	0.140387
H158	H	1.252757	0.010468	0.473720
H159	H	1.586090	0.343801	0.807054
F160	F	0.541192	0.200167	0.160140
F161	F	0.874525	0.533500	0.493474
F162	F	1.207858	0.866833	0.826807
F163	F	0.443293	0.029827	0.160125
F164	F	0.776626	0.363161	0.493459
F165	F	1.109960	0.696494	0.826792
F166	F	0.958023	-0.044756	0.433607
F167	F	1.291356	0.288578	0.766940
F168	F	1.624690	0.621911	1.100274
H169	H	0.563912	-0.031574	-0.000009
H170	H	0.897245	0.301760	0.333324
H171	H	1.230578	0.635093	0.666657
F172	F	1.161556	-0.347140	0.000010
F173	F	1.494889	-0.013807	0.333344
F174	F	1.828223	0.319526	0.666677
H175	H	0.449453	0.040295	-0.140238
H176	H	0.782786	0.373628	0.193095
H177	H	1.116120	0.706962	0.526429
H178	H	1.065079	-0.447101	-0.140228
H179	H	1.398413	-0.113768	0.193106
H180	H	1.731746	0.219565	0.526439
F181	F	0.866655	0.240595	0.433800
F182	F	1.199988	0.573928	0.767133
F183	F	1.533322	0.907262	1.100466
F184	F	0.909230	-0.314225	-0.160142
F185	F	1.242563	0.019108	0.173191
F186	F	1.575897	0.352441	0.506525
H187	H	0.534879	0.189625	-0.140369
H188	H	0.868212	0.522958	0.192965
H189	H	1.201545	0.856292	0.526298
H190	H	1.022171	0.255133	0.558213
H191	H	1.355504	0.588466	0.891547
H192	H	1.688837	0.921800	1.224880
F193	F	1.075279	-0.455908	0.160134
F194	F	1.408612	-0.122574	0.493468
F195	F	1.741945	0.210759	0.826801
H196	H	1.132338	0.145209	0.442138
H197	H	1.465672	0.478543	0.775471
H198	H	1.799005	0.811876	1.108804
H199	H	0.852166	0.084961	0.558181
H200	H	1.185499	0.418295	0.891514
H201	H	1.518832	0.751628	1.224848
H202	H	1.102473	0.004956	0.557873
H203	H	1.435806	0.338289	0.891206
H204	H	1.769139	0.671623	1.224540
