data_functionalizedCrystal
_audit_creation_method	'MofGen! by Chris Wilmer'
_symmetry_space_group_name_H-M	'P1'
_symmetry_Int_Tables_number	1
_symmetry_cell_setting	triclinic
loop_
_symmetry_equiv_pos_as_xyz
  x,y,z
_cell_length_a	14.971486
_cell_length_b	23.532407
_cell_length_c	14.048226
_cell_angle_alpha	89.988910
_cell_angle_beta	89.998499
_cell_angle_gamma	83.231404
loop_
_atom_site_label
_atom_site_type_symbol
_atom_site_fract_x
_atom_site_fract_y
_atom_site_fract_z
O1	O	1.186163	0.074216	-0.079061
O2	O	0.925669	0.083104	-0.079088
O3	O	1.063771	-0.004238	-0.079057
O4	O	1.048061	0.161558	-0.079093
O5	O	1.063755	-0.004243	0.079265
O6	O	0.925652	0.083099	0.079233
O7	O	1.186146	0.074211	0.079260
Zn8	Zn	1.055897	0.078654	0.104383
Zn9	Zn	1.055919	0.078661	-0.104212
O10	O	1.048044	0.161553	0.079228
C11	C	0.892340	0.082704	0.000069
C12	C	0.793056	0.081513	0.000059
C13	C	0.735288	0.132824	0.000050
C14	C	0.642001	0.131701	0.000064
C15	C	0.606482	0.079267	0.000082
C16	C	0.664257	0.027952	0.000094
C17	C	0.757543	0.029075	0.000087
C18	C	0.469819	0.025615	0.000108
C19	C	0.376527	0.024491	0.000114
C20	C	0.354277	0.128241	0.000085
C21	C	0.447563	0.129364	0.000078
C22	C	0.505331	0.078049	0.000089
C23	C	1.063363	-0.025458	0.000107
C24	C	1.062160	-0.088680	0.000114
C25	C	1.136342	-0.487466	0.000069
C26	C	1.135224	-0.546871	0.000062
O27	O	1.203992	-0.583321	0.000034
N28	N	1.053123	-0.569849	0.000054
C29	C	0.972133	-0.533418	0.000044
O30	O	0.902196	-0.558417	0.000036
C31	C	0.973251	-0.474014	0.000044
C32	C	1.055358	-0.451040	0.000062
C33	C	1.218442	-0.464491	0.000086
C34	C	1.219559	-0.405090	0.000095
C35	C	1.138576	-0.368664	0.000087
C36	C	1.056475	-0.391639	0.000071
C37	C	0.892263	-0.437584	0.000027
C38	C	0.893388	-0.378177	0.000027
C39	C	0.975495	-0.355203	0.000045
C40	C	0.976609	-0.295812	0.000073
N41	N	1.058711	-0.272834	0.000081
C42	C	1.139694	-0.309260	0.000088
C43	C	0.969791	-0.658170	0.000041
C44	C	0.968671	-0.717573	0.000047
C45	C	1.131763	-0.731022	0.000064
C46	C	1.132882	-0.671618	0.000064
C47	C	1.051892	-0.635193	0.000049
C48	C	1.142034	-0.184513	0.000108
C49	C	1.143143	-0.125106	0.000121
C50	C	0.980052	-0.111663	0.000100
C51	C	0.978942	-0.171064	0.000092
C52	C	1.059940	-0.207489	0.000093
O53	O	0.907878	-0.259327	0.000097
O54	O	1.209619	-0.284253	0.000084
C55	C	1.219475	0.074611	0.000101
C56	C	1.318760	0.075802	0.000104
C57	C	1.048453	0.182773	0.000063
C58	C	1.049655	0.245996	0.000050
N59	N	1.055889	0.078649	0.246744
N60	N	1.055934	0.078661	-0.246572
C61	C	1.117059	0.039990	0.296576
C62	C	1.117065	0.039990	0.396234
C63	C	1.055904	0.078652	0.446058
C64	C	0.994727	0.117313	0.396218
C65	C	0.994717	0.117310	0.296563
C66	C	0.994753	0.117317	0.603933
C67	C	0.994763	0.117320	0.703595
C68	C	1.117101	0.039997	0.703604
C69	C	1.117091	0.039994	0.603948
C70	C	1.055915	0.078656	0.554116
H71	H	0.635331	-0.014741	0.000122
C72	C	0.927479	0.159846	0.758399
C73	C	0.860182	0.202365	0.703582
C74	C	0.792896	0.244891	0.758384
C75	C	0.792905	0.244898	0.868001
C76	C	0.860205	0.202377	0.922824
C77	C	0.927491	0.159851	0.868023
H78	H	0.860173	0.202361	0.622432
H79	H	0.743076	0.276367	0.717800
H80	H	0.743096	0.276378	0.908568
H81	H	0.860214	0.202381	1.003975
H82	H	0.977311	0.128375	0.908606
C83	C	1.184339	-0.002540	0.241775
C84	C	1.149776	-0.046133	0.173287
C85	C	1.217056	-0.088665	0.118489
C86	C	1.318898	-0.087605	0.132181
C87	C	1.353465	-0.044010	0.200672
C88	C	1.286186	-0.001477	0.255470
H89	H	1.074382	-0.046920	0.163149
H90	H	1.191466	-0.120937	0.067787
H91	H	1.368702	-0.119090	0.091616
H92	H	1.428859	-0.043223	0.210810
H93	H	1.311775	0.030795	0.306172
H94	H	0.516853	-0.016172	0.000118
C95	C	0.880695	-0.618105	0.000042
C96	C	0.813271	-0.620719	-0.082172
C97	C	0.724176	-0.580658	-0.082172
C98	C	0.702505	-0.537981	0.000042
C99	C	0.769930	-0.535365	0.082261
C100	C	0.859025	-0.575426	0.082261
H101	H	0.829312	-0.652313	-0.143037
H102	H	0.674264	-0.582595	-0.143037
H103	H	0.636552	-0.508325	0.000042
H104	H	0.753890	-0.503771	0.143126
H105	H	0.908938	-0.573489	0.143126
C106	C	0.804296	-0.338109	0.000013
C107	C	0.736882	-0.340720	-0.082210
C108	C	0.647792	-0.300653	-0.082222
C109	C	0.626116	-0.257976	-0.000010
C110	C	0.693532	-0.255364	0.082220
C111	C	0.782622	-0.295431	0.082232
H112	H	0.752926	-0.372313	-0.143074
H113	H	0.597887	-0.302587	-0.143094
H114	H	0.560167	-0.228316	-0.000018
H115	H	0.677488	-0.223771	0.143084
H116	H	0.832528	-0.293497	0.143104
C117	C	1.307533	-0.504554	0.000100
C118	C	1.329224	-0.547235	-0.082103
C119	C	1.418322	-0.587294	-0.082079
C120	C	1.485728	-0.584673	0.000149
C121	C	1.464038	-0.541991	0.082359
C122	C	1.374941	-0.501931	0.082335
H123	H	1.279325	-0.549177	-0.142979
H124	H	1.434377	-0.618891	-0.142937
H125	H	1.551683	-0.614327	0.000167
H126	H	1.513938	-0.540049	0.143235
H127	H	1.358885	-0.470335	0.143193
H128	H	1.286419	-0.386390	0.000105
C129	C	1.231130	-0.224574	0.000117
C130	C	1.298539	-0.221960	0.082345
C131	C	1.387635	-0.262020	0.082361
C132	C	1.409322	-0.304696	0.000150
C133	C	1.341912	-0.307313	-0.082084
C134	C	1.252816	-0.267252	-0.082101
H135	H	1.282486	-0.190367	0.143208
H136	H	1.437536	-0.260083	0.143237
H137	H	1.475276	-0.334352	0.000162
H138	H	1.357965	-0.338906	-0.142947
H139	H	1.202915	-0.269189	-0.142976
H140	H	1.199740	-0.652917	0.000078
H141	H	0.764199	0.175522	0.000034
H142	H	0.804577	-0.012707	0.000094
C143	C	1.184367	-0.002532	0.549137
C144	C	1.183452	-0.067387	0.562856
C145	C	1.250726	-0.109915	0.508044
C146	C	1.318916	-0.087588	0.439511
C147	C	1.319834	-0.022730	0.425789
C148	C	1.252560	0.019798	0.480602
H149	H	1.132971	-0.083918	0.613591
H150	H	1.250046	-0.157927	0.518202
H151	H	1.368717	-0.119069	0.398936
H152	H	1.370315	-0.006199	0.375054
H153	H	1.253240	0.067810	0.470443
H154	H	0.944924	0.148790	0.436791
H155	H	1.210008	-0.106405	0.000138
H156	H	1.197704	-0.760691	0.000066
H157	H	0.901812	-0.736273	0.000050
C158	C	1.184392	-0.002533	0.758418
C159	C	1.184400	-0.002534	0.868035
C160	C	1.251691	-0.045060	0.922855
C161	C	1.318974	-0.087585	0.868057
C162	C	1.318968	-0.087586	0.758434
C163	C	1.251677	-0.045060	0.703614
H164	H	1.134590	0.028947	0.908605
H165	H	1.251694	-0.045059	1.004006
H166	H	1.368786	-0.119065	0.908638
H167	H	1.368777	-0.119067	0.717864
H168	H	1.251673	-0.045061	0.622463
H169	H	0.347612	-0.018205	0.000129
H170	H	0.914118	-0.081994	0.000097
H171	H	0.594969	0.173484	0.000055
H172	H	0.944905	0.148789	0.255990
H173	H	1.166874	0.008511	0.436807
H174	H	0.825402	-0.456279	0.000007
H175	H	0.476478	0.172060	0.000054
H176	H	0.912084	-0.189771	0.000104
H177	H	0.307237	0.170023	0.000080
H178	H	0.944934	0.148797	0.563363
