data_functionalizedCrystal
_audit_creation_method	'MofGen! by Chris Wilmer'
_symmetry_space_group_name_H-M	'P1'
_symmetry_Int_Tables_number	1
_symmetry_cell_setting	triclinic
loop_
_symmetry_equiv_pos_as_xyz
  x,y,z
_cell_length_a	15.944493
_cell_length_b	15.944551
_cell_length_c	14.421503
_cell_angle_alpha	90.003340
_cell_angle_beta	89.992936
_cell_angle_gamma	83.486891
loop_
_atom_site_label
_atom_site_type_symbol
_atom_site_fract_x
_atom_site_fract_y
_atom_site_fract_z
O1	O	1.114560	0.108089	-0.077101
O2	O	0.870003	0.121496	-0.077106
O3	O	0.998960	-0.007484	-0.077095
O4	O	0.985603	0.237068	-0.077112
O5	O	0.998938	-0.007465	0.077128
O6	O	0.869982	0.121515	0.077117
O7	O	1.114538	0.108108	0.077122
Cu8	Cu	0.992258	0.114813	0.091201
Cu9	Cu	0.992283	0.114790	-0.091186
O10	O	0.985582	0.237087	0.077111
C11	C	0.838698	0.120957	0.000005
C12	C	0.745449	0.119314	0.000003
C13	C	0.998395	-0.038768	0.000017
C14	C	0.996732	-0.132014	0.000017
C15	C	0.912826	-0.346853	0.000003
C16	C	0.951779	-0.407869	0.076045
C17	C	0.993725	-0.302739	0.000010
C18	C	0.951819	-0.407872	-0.076007
C19	C	0.990814	-0.467651	-0.000001
C20	C	1.032700	-0.362527	0.076115
C21	C	1.032729	-0.362523	-0.076006
C22	C	1.071741	-0.423521	0.000055
C23	C	0.995399	-0.207737	0.000017
C24	C	0.989146	-0.562652	-0.000002
C25	C	0.509689	0.195235	-0.000002
C26	C	0.459120	0.154303	0.076045
C27	C	0.574728	0.116270	0.000005
C28	C	0.459146	0.154266	-0.076008
C29	C	0.409819	0.113336	0.000003
C30	C	0.525388	0.075360	0.076115
C31	C	0.525417	0.075334	-0.076005
C32	C	0.474880	0.034345	0.000060
C33	C	0.669728	0.117963	0.000007
C34	C	0.314821	0.111637	0.000008
C35	C	1.145844	0.108646	0.000009
C36	C	1.239092	0.110289	0.000004
C37	C	0.986147	0.268372	-0.000003
C38	C	0.987809	0.361617	-0.000009
N39	N	0.992246	0.114828	0.219483
N40	N	0.992302	0.114768	-0.219467
C41	C	0.932607	0.174442	0.469131
C42	C	1.008509	0.190733	0.530934
C43	C	0.992267	0.114808	0.408644
C44	C	0.916384	0.098537	0.530935
C45	C	0.992280	0.114791	0.591366
C46	C	1.068207	0.131138	0.469086
C47	C	0.976033	0.038908	0.469082
C48	C	1.051990	0.055167	0.530857
C49	C	0.992258	0.114821	0.303383
C50	C	0.992297	0.114778	0.696625
H51	H	0.917552	-0.427962	0.140331
H52	H	1.022251	0.254913	0.558102
O53	O	1.144710	0.147723	0.436665
C54	C	1.230526	0.166353	0.302307
C55	C	1.143858	0.147542	0.338900
H56	H	1.229871	0.166195	0.223261
H57	H	1.244449	0.230870	0.328291
H58	H	1.281446	0.115857	0.328289
H59	H	1.092882	0.197984	0.312933
H60	H	1.130008	0.083000	0.312924
O61	O	0.560118	0.035570	-0.152626
C62	C	0.687546	-0.007961	-0.238040
C63	C	0.648357	0.037067	-0.151208
H64	H	0.758891	-0.006750	-0.236932
H65	H	0.672590	-0.076201	-0.238704
H66	H	0.660153	0.025789	-0.302808
H67	H	0.675728	0.003387	-0.086393
H68	H	0.663306	0.105309	-0.150626
O69	O	0.559736	0.035479	0.152830
C70	C	0.580573	-0.094106	0.240057
C71	C	0.541646	-0.049054	0.153130
H72	H	0.565946	-0.162453	0.240338
H73	H	0.651879	-0.092554	0.239463
H74	H	0.552659	-0.060637	0.304764
H75	H	0.569493	-0.082488	0.088376
H76	H	0.470340	-0.050598	0.153805
H77	H	1.102504	0.004726	0.557789
H78	H	0.430174	0.187659	0.140331
O79	O	0.959464	-0.037599	0.436679
C80	C	0.860730	-0.141266	0.431421
C81	C	0.879391	-0.054602	0.468162
H82	H	0.796000	-0.155047	0.456876
H83	H	0.861445	-0.140718	0.352376
H84	H	0.910968	-0.192222	0.457863
H85	H	0.829173	-0.003597	0.441788
H86	H	0.878707	-0.055221	0.547206
H87	H	0.459415	-0.033726	0.000109
H88	H	0.430217	0.187622	-0.140290
O89	O	0.872569	0.234758	0.436831
C90	C	0.821863	0.382919	0.431748
C91	C	0.889914	0.314699	0.468374
H92	H	0.835853	0.447566	0.457252
H93	H	0.822014	0.382033	0.352702
H94	H	0.757300	0.369648	0.458228
H95	H	0.954511	0.327924	0.441962
H96	H	0.889689	0.315601	0.547418
H97	H	0.917600	-0.427949	-0.140300
H98	H	0.852207	0.084782	0.558105
H99	H	0.845675	-0.313532	0.000077
O100	O	1.151975	-0.462959	0.000154
C101	C	1.300431	-0.446877	0.000974
C102	C	1.209610	-0.402113	0.000874
H103	H	1.347053	-0.397703	0.001536
H104	H	1.310561	-0.488429	0.065234
H105	H	1.310911	-0.487648	-0.063847
H106	H	1.199066	-0.361298	0.065651
H107	H	1.199523	-0.360612	-0.063429
H108	H	1.066879	-0.342536	0.140473
H109	H	0.525313	0.263254	0.000064
O110	O	1.073403	-0.338541	-0.152794
C111	C	1.076783	-0.334222	-0.319761
C112	C	1.030636	-0.361413	-0.232867
H113	H	1.042235	-0.352719	-0.384522
H114	H	1.078163	-0.262898	-0.318716
H115	H	1.144161	-0.366974	-0.320370
H116	H	0.963238	-0.328720	-0.232202
H117	H	1.029324	-0.432745	-0.233946
