data_functionalizedCrystal
_audit_creation_method	'MofGen! by Chris Wilmer'
_symmetry_space_group_name_H-M	'P1'
_symmetry_Int_Tables_number	1
_symmetry_cell_setting	triclinic
loop_
_symmetry_equiv_pos_as_xyz
  x,y,z
_cell_length_a	10.654556
_cell_length_b	12.837942
_cell_length_c	9.730223
_cell_angle_alpha	89.998888
_cell_angle_beta	89.999363
_cell_angle_gamma	89.658175
loop_
_atom_site_label
_atom_site_type_symbol
_atom_site_fract_x
_atom_site_fract_y
_atom_site_fract_z
O1	O	1.683734	0.145749	-0.114303
O2	O	1.319771	0.159626	-0.114303
O3	O	1.493682	0.001726	-0.114295
O4	O	1.509823	0.303648	-0.114312
O5	O	1.493680	0.001730	0.114285
O6	O	1.319769	0.159630	0.114277
O7	O	1.683732	0.145753	0.114277
Zn8	Zn	1.501751	0.152692	0.150569
Zn9	Zn	1.501753	0.152687	-0.150595
O10	O	1.509821	0.303652	0.114268
C11	C	1.272861	0.158608	-0.000013
C12	C	1.133085	0.155555	-0.000013
C13	C	0.936087	0.151257	-0.124623
C14	C	1.067422	0.154120	-0.124617
C15	C	1.067407	0.154118	0.124594
C16	C	0.936075	0.151248	0.124586
C17	C	0.936096	0.151263	-0.268502
C18	C	1.067431	0.154125	-0.268497
C19	C	1.488229	-0.036931	-0.000005
C20	C	1.471966	-0.152126	-0.000008
C21	C	1.667470	-0.391675	-0.000037
C22	C	1.652196	-0.499911	-0.000039
C23	C	1.426145	-0.476836	-0.000024
C24	C	1.441419	-0.368600	-0.000022
C25	C	1.562086	-0.326024	-0.000026
C26	C	1.577359	-0.217786	-0.000014
C27	C	1.351308	-0.194712	-0.000009
C28	C	1.336034	-0.302948	-0.000012
C29	C	1.730643	0.146771	-0.000016
C30	C	1.870418	0.149824	-0.000026
C31	C	1.515275	0.342310	-0.000024
C32	C	1.531537	0.457505	-0.000031
N33	N	1.501758	0.152695	0.356105
N34	N	1.501754	0.152676	-0.356132
C35	C	1.578790	0.082801	0.428035
C36	C	1.578786	0.082788	0.571918
C37	C	1.424713	0.222573	0.571929
C38	C	1.424712	0.222580	0.428048
C39	C	1.667747	0.002100	0.428030
C40	C	1.667742	0.002088	0.571913
H41	H	1.111074	0.080232	-0.313138
C42	C	1.372363	0.401622	0.383768
C43	C	1.340029	0.299405	0.348985
H44	H	1.320084	0.449052	0.334951
H45	H	1.361337	0.411609	0.479744
H46	H	1.457596	0.413532	0.360176
H47	H	1.254798	0.287493	0.372586
H48	H	1.351045	0.289414	0.252988
C49	C	1.602347	-0.170842	0.487230
C50	C	1.627043	-0.105546	0.375300
H51	H	1.577210	-0.237293	0.454673
H52	H	1.676000	-0.178169	0.541454
H53	H	1.537066	-0.141353	0.541460
H54	H	1.692331	-0.135031	0.321075
H55	H	1.553381	-0.098223	0.321054
C56	C	1.815788	-0.283349	0.117476
C57	C	1.800104	-0.344872	-0.000031
H58	H	1.897675	-0.254463	0.117481
H59	H	1.755220	-0.228761	0.117465
H60	H	1.805125	-0.325106	0.197176
H61	H	1.810758	-0.303112	-0.079732
H62	H	1.860689	-0.399467	-0.000032
H63	H	1.100259	0.227386	-0.323729
C64	C	1.104367	0.244023	0.337014
C65	C	1.139577	0.155688	0.261566
H66	H	1.148916	0.244987	0.421580
H67	H	1.123558	0.304877	0.285820
H68	H	1.016750	0.242102	0.354828
H69	H	1.227194	0.157613	0.243743
H70	H	1.120396	0.094819	0.312770
H71	H	0.882614	0.150060	0.226045
H72	H	1.361984	0.279470	0.630520
H73	H	1.761688	0.027371	0.383402
H74	H	1.629006	-0.073272	0.616532
H75	H	0.903279	0.078008	-0.323747
H76	H	1.327903	-0.511521	-0.000036
C77	C	1.881251	0.040656	0.512712
C78	C	1.800643	0.026082	0.624642
H79	H	1.963292	0.055473	0.545268
H80	H	1.883455	-0.020842	0.458475
H81	H	1.851681	0.097234	0.458495
H82	H	1.830207	-0.030501	0.678854
H83	H	1.798443	0.087587	0.678901
C84	C	0.972419	0.319439	-0.368351
C85	C	0.877168	0.251006	-0.328775
H86	H	0.936035	0.381013	-0.405563
H87	H	1.021929	0.336750	-0.290550
H88	H	1.023877	0.286965	-0.435801
H89	H	0.825715	0.283476	-0.261317
H90	H	0.827637	0.233695	-0.406585
H91	H	1.675611	-0.183122	-0.000012
H92	H	1.738012	-0.553361	-0.000052
H93	H	1.237790	-0.337629	-0.000014
C94	C	1.274341	-0.018550	-0.000008
C95	C	1.235458	-0.122545	-0.000008
H96	H	1.202821	0.026001	-0.000013
H97	H	1.323274	-0.005561	0.079698
H98	H	1.323283	-0.005559	-0.079724
H99	H	1.186524	-0.135537	0.079714
H100	H	1.186505	-0.135539	-0.079722
