data_functionalizedCrystal
_audit_creation_method	'MofGen! by Chris Wilmer'
_symmetry_space_group_name_H-M	'P1'
_symmetry_Int_Tables_number	1
_symmetry_cell_setting	triclinic
loop_
_symmetry_equiv_pos_as_xyz
  x,y,z
_cell_length_a	17.077404
_cell_length_b	16.959454
_cell_length_c	16.959447
_cell_angle_alpha	90.025463
_cell_angle_beta	90.018998
_cell_angle_gamma	90.020300
loop_
_atom_site_label
_atom_site_type_symbol
_atom_site_fract_x
_atom_site_fract_y
_atom_site_fract_z
Zn1	Zn	1.200066	-0.314671	0.446950
Zn2	Zn	1.199981	-0.446861	0.314780
Zn3	Zn	1.068799	-0.314701	0.314785
Zn4	Zn	1.068772	-0.446812	0.446916
O5	O	1.134405	-0.380761	0.380858
O6	O	1.309902	-0.332214	0.429429
O7	O	1.182555	-0.429362	0.204170
O8	O	1.086259	-0.204086	0.332334
O9	O	1.309839	-0.429333	0.332324
O10	O	1.182700	-0.204064	0.429435
O11	O	1.086176	-0.332264	0.204174
O12	O	0.958949	-0.332217	0.332301
O13	O	1.086213	-0.429251	0.557531
O14	O	0.958929	-0.429279	0.429377
O15	O	1.182674	-0.332167	0.557557
O16	O	1.182529	-0.557465	0.332291
O17	O	1.086130	-0.557429	0.429371
C18	C	0.930457	-0.380747	0.380836
C19	C	0.843207	-0.380760	0.380845
C20	C	0.802227	-0.431376	0.431312
C21	C	0.720247	-0.431378	0.431324
C22	C	0.679247	-0.380766	0.380866
C23	C	0.720233	-0.330145	0.330398
C24	C	0.802212	-0.330139	0.330389
C25	C	0.549363	-0.330160	0.330417
C26	C	0.467378	-0.330166	0.330423
C27	C	0.467398	-0.431398	0.431351
C28	C	0.549377	-0.431393	0.431343
C29	C	0.590356	-0.380772	0.380874
C30	C	1.134339	-0.586127	0.380844
C31	C	1.134382	-0.673984	0.380865
C32	C	1.084283	-1.045471	0.431402
C33	C	1.184745	-1.045448	0.330394
C34	C	1.184718	-0.962902	0.330387
C35	C	1.134471	-0.921637	0.380887
C36	C	1.084252	-0.962917	0.431394
C37	C	1.234930	-0.921616	0.279875
C38	C	1.234904	-0.839065	0.279865
C39	C	1.184661	-0.797798	0.330370
C40	C	1.134441	-0.839083	0.380880
C41	C	1.084194	-0.797818	0.431380
C42	C	1.033977	-0.839102	0.481895
C43	C	1.034009	-0.921650	0.481899
C44	C	1.184629	-0.715249	0.330365
C45	C	1.084163	-0.715264	0.431372
C46	C	1.339149	-0.380776	0.380880
C47	C	1.426399	-0.380782	0.380890
C48	C	1.134450	-0.380700	0.587026
C49	C	1.134470	-0.380674	0.674883
C50	C	1.134492	-0.174593	0.380889
C51	C	1.134529	-0.086736	0.380902
C52	C	1.134404	-0.380765	0.175492
C53	C	1.134537	-0.380568	0.087635
C54	C	1.184660	-0.431215	0.716156
C55	C	1.084293	-0.330113	0.716163
C56	C	1.084307	-0.330090	0.798709
C57	C	1.134497	-0.380631	0.839982
C58	C	1.184673	-0.431195	0.798710
C59	C	1.034126	-0.279533	0.839987
C60	C	1.034136	-0.279508	0.922538
C61	C	1.084331	-0.330046	0.963813
C62	C	1.134510	-0.380611	0.922536
C63	C	1.184700	-0.431152	0.963809
C64	C	1.234883	-0.481714	0.922533
C65	C	1.234867	-0.481733	0.839985
C66	C	1.084347	-0.330027	1.046362
C67	C	1.184713	-0.431132	1.046363
H68	H	0.582726	-0.288932	0.289326
H69	H	0.835577	-0.288918	0.289299
H70	H	1.043426	-0.288970	0.682553
C71	C	1.290138	-0.793660	0.224293
N72	N	1.331740	-0.759460	0.182435
C73	C	1.289972	-0.537426	0.967945
N74	N	1.331422	-0.579430	1.002152
H75	H	0.835603	-0.472592	0.472398
H76	H	1.225511	-0.681640	0.289233
H77	H	0.434028	-0.472614	0.472448
H78	H	1.043400	-1.079088	0.472532
C79	C	1.028897	-0.669879	0.486937
N80	N	0.987272	-0.635695	0.528792
H81	H	1.275832	-0.955220	0.238755
C82	C	1.290059	-0.537352	0.794575
N83	N	1.331625	-0.579247	0.760370
C84	C	0.422281	-0.274488	0.274920
N85	N	0.388314	-0.232550	0.233114
H86	H	1.225588	-0.472286	1.079962
H87	H	1.225520	-0.472379	0.682546
C88	C	0.978707	-0.793699	0.537442
N89	N	0.937080	-0.759499	0.579281
C90	C	0.675172	-0.487075	0.486826
N91	N	0.641223	-0.529033	0.528628
C92	C	1.240005	-1.090843	0.274839
N93	N	1.281628	-1.125037	0.232992
H94	H	0.993124	-0.955271	0.523025
C95	C	0.978932	-0.223930	0.794582
N96	N	0.937365	-0.182042	0.760378
C97	C	0.978943	-0.223880	0.967934
N98	N	0.937374	-0.181977	1.002127
H99	H	0.582756	-0.472610	0.472427
C100	C	0.675131	-0.274470	0.274895
N101	N	0.641161	-0.232536	0.233087
C102	C	1.029148	-0.274413	1.091761
N103	N	0.987570	-0.232520	1.125956
