data_functionalizedCrystal
_audit_creation_method	'MofGen! by Chris Wilmer'
_symmetry_space_group_name_H-M	'P1'
_symmetry_Int_Tables_number	1
_symmetry_cell_setting	triclinic
loop_
_symmetry_equiv_pos_as_xyz
  x,y,z
_cell_length_a	16.992694
_cell_length_b	17.038272
_cell_length_c	15.455313
_cell_angle_alpha	92.858370
_cell_angle_beta	87.142206
_cell_angle_gamma	90.889890
loop_
_atom_site_label
_atom_site_type_symbol
_atom_site_fract_x
_atom_site_fract_y
_atom_site_fract_z
O1	O	1.054714	0.163265	-0.072022
O2	O	1.554714	0.663265	0.427978
O3	O	0.826308	0.161438	-0.072048
O4	O	1.326308	0.661438	0.427952
O5	O	0.939153	0.048451	-0.072029
O6	O	1.439153	0.548451	0.427971
O7	O	0.941869	0.276252	-0.072042
O8	O	1.441869	0.776252	0.427958
O9	O	0.932698	0.054884	0.072232
O10	O	1.432698	0.554884	0.572232
O11	O	0.819853	0.167870	0.072213
O12	O	1.319853	0.667870	0.572213
O13	O	1.048259	0.169698	0.072239
O14	O	1.548259	0.669698	0.572239
Cu15	Cu	0.933466	0.169371	0.085398
Cu16	Cu	1.433466	0.669371	0.585398
Cu17	Cu	0.941100	0.161764	-0.085207
Cu18	Cu	1.441100	0.661764	0.414793
O19	O	0.935414	0.282684	0.072219
O20	O	1.435414	0.782684	0.572219
C21	C	0.793711	0.162304	0.000079
C22	C	1.293711	0.662304	0.500079
C23	C	0.706200	0.155293	0.000070
C24	C	1.206200	0.655293	0.500070
C25	C	0.660471	0.222933	0.000066
C26	C	1.160471	0.722933	0.500066
C27	C	0.578245	0.216342	0.000079
C28	C	1.078245	0.716342	0.500079
C29	C	0.541748	0.142110	0.000088
C30	C	1.041748	0.642110	0.500088
C31	C	0.587482	0.074465	0.000094
C32	C	1.087482	0.574465	0.500094
C33	C	0.669707	0.081058	0.000088
C34	C	1.169707	0.581058	0.500088
C35	C	0.296326	0.114789	0.000113
C36	C	0.796326	0.614789	0.500113
C37	C	0.214095	0.108202	0.000117
C38	C	0.714095	0.608202	0.500117
C39	C	0.204863	0.250079	0.000103
C40	C	0.704863	0.750079	0.500103
C41	C	0.287091	0.256665	0.000091
C42	C	0.787091	0.756665	0.500091
C43	C	0.332818	0.189020	0.000102
C44	C	0.832818	0.689020	0.500102
N45	N	0.457699	0.135371	0.000098
N46	N	0.957699	0.635371	0.500098
N47	N	0.416865	0.195760	0.000098
N48	N	0.916865	0.695760	0.500098
C49	C	0.933456	0.022384	0.000102
C50	C	1.433456	0.522384	0.500102
C51	C	0.926089	-0.064871	0.000101
C52	C	1.426089	0.435129	0.500101
C53	C	0.993729	-0.110741	0.000109
C54	C	1.493729	0.389259	0.500109
C55	C	0.986802	-0.192726	0.000100
C56	C	1.486802	0.307274	0.500100
C57	C	0.912235	-0.228840	0.000089
C58	C	1.412235	0.271160	0.500089
C59	C	0.844590	-0.182964	0.000078
C60	C	1.344590	0.317036	0.500078
C61	C	0.851518	-0.100981	0.000080
C62	C	1.351518	0.399019	0.500080
C63	C	0.887761	-0.476134	0.000074
C64	C	1.387761	0.023866	0.500074
C65	C	0.880838	-0.558124	0.000074
C66	C	1.380838	-0.058124	0.500074
C67	C	1.023051	-0.567881	0.000095
C68	C	1.523051	-0.067881	0.500095
C69	C	1.029972	-0.485895	0.000103
C70	C	1.529972	0.014105	0.500103
C71	C	0.962327	-0.440026	0.000087
C72	C	1.462327	0.059974	0.500087
C73	C	0.905153	-0.312642	0.000082
C74	C	1.405153	0.187358	0.500082
C75	C	0.969410	-0.356226	0.000087
C76	C	1.469410	0.143774	0.500087
C77	C	1.080856	0.168831	0.000109
C78	C	1.580856	0.668831	0.500109
C79	C	1.168367	0.175842	0.000113
C80	C	1.668367	0.675842	0.500113
C81	C	0.941110	0.308751	0.000087
C82	C	1.441110	0.808751	0.500087
C83	C	0.948478	0.396006	0.000082
C84	C	1.448478	0.896006	0.500082
N85	N	0.928103	0.174722	0.205393
N86	N	1.428103	0.674722	0.705393
N87	N	0.946469	0.156408	-0.205202
N88	N	1.446469	0.656408	0.294798
C89	C	0.976063	0.126741	0.250795
C90	C	1.476063	0.626741	0.750795
C91	C	0.972014	0.130795	0.341602
C92	C	1.472014	0.630795	0.841602
C93	C	0.920010	0.182835	0.387005
C94	C	1.420010	0.682835	0.887005
C95	C	0.872045	0.230817	0.341597
C96	C	1.372045	0.730817	0.841597
C97	C	0.876090	0.226759	0.250791
C98	C	1.376090	0.726759	0.750791
C99	C	0.902549	0.200332	0.658584
C100	C	1.402549	0.700332	1.158584
C101	C	0.898510	0.204388	0.749396
C102	C	1.398510	0.704388	1.249396
C103	C	0.998479	0.104365	0.749395
C104	C	1.498479	0.604365	1.249395
C105	C	1.002522	0.100314	0.658588
C106	C	1.502522	0.600314	1.158588
C107	C	0.954554	0.148294	0.613187
C108	C	1.454554	0.648294	1.113187
N109	N	0.915872	0.186981	0.479825
N110	N	1.415872	0.686981	0.979825
N111	N	0.958688	0.144143	0.520369
N112	N	1.458688	0.644143	1.020369
H113	H	0.706939	0.025978	0.000090
H114	H	1.206939	0.525978	0.500090
H115	H	1.054449	-0.081343	0.000124
H116	H	1.554449	0.418657	0.500124
N117	N	0.528956	0.289325	0.000147
N118	N	1.028956	0.789325	0.500147
H119	H	0.543621	0.319132	-0.053314
H120	H	1.043621	0.819132	0.446686
H121	H	0.471335	0.273865	0.000214
H122	H	0.971335	0.773865	0.500214
H123	H	1.041882	-0.230070	0.000109
H124	H	1.541882	0.269930	0.500109
N125	N	1.110398	-0.446944	0.000120
N126	N	1.610398	0.053056	0.500120
H127	H	1.152197	-0.488444	0.000124
H128	H	1.652197	0.011556	0.500124
H129	H	1.118765	-0.415520	-0.053356
H130	H	1.618765	0.084480	0.446644
N131	N	0.174719	0.028138	0.000130
N132	N	0.674719	0.528138	0.500130
H133	H	0.193431	-0.004120	-0.053342
H134	H	0.693431	0.495880	0.446658
H135	H	0.188665	0.000723	0.053648
H136	H	0.688665	0.500723	0.553648
H137	H	0.844440	-0.342055	0.000075
H138	H	1.344440	0.157945	0.500075
N139	N	1.096007	-0.617352	0.000113
N140	N	1.596007	-0.117352	0.500113
H141	H	1.080307	-0.674768	0.000110
H142	H	1.580307	-0.174768	0.500110
H143	H	1.130662	-0.607533	-0.053362
H144	H	1.630662	-0.107533	0.446638
H145	H	1.011066	0.091725	0.378568
H146	H	1.511066	0.591725	0.878568
H147	H	0.820113	-0.587524	0.000079
H148	H	1.320113	-0.087524	0.500079
H149	H	0.832680	-0.438798	0.000062
H150	H	1.332680	0.061202	0.500062
H151	H	0.333548	0.059707	0.000122
H152	H	0.833548	0.559707	0.500122
H153	H	0.783876	-0.212375	0.000063
H154	H	1.283876	0.287625	0.500063
H155	H	0.557760	0.014025	0.000114
H156	H	1.057760	0.514025	0.500114
N157	N	0.778565	-0.051503	0.000066
N158	N	1.278565	0.448497	0.500066
H159	H	0.730275	-0.086819	0.000060
H160	H	1.230275	0.413181	0.500060
H161	H	0.775946	-0.014891	0.053544
H162	H	1.275946	0.485109	0.553544
N163	N	1.049835	-0.317280	0.000107
N164	N	1.549835	0.182720	0.500107
H165	H	1.058276	-0.285860	-0.053366
H166	H	1.558276	0.214140	0.446634
H167	H	1.053420	-0.281144	0.053624
H168	H	1.553420	0.218856	0.553624
H169	H	1.018414	0.084369	0.213834
H170	H	1.518414	0.584369	0.713834
N171	N	1.058620	0.044189	0.609625
N172	N	1.558620	0.544189	1.109625
H173	H	1.097159	0.074715	0.571947
H174	H	1.597159	0.574715	1.071947
H175	H	1.088332	0.014427	0.652227
H176	H	1.588332	0.514427	1.152227
N177	N	0.699833	0.302998	0.000046
N178	N	1.199833	0.802998	0.500046
H179	H	0.658384	0.344847	0.000046
H180	H	1.158384	0.844847	0.500046
H181	H	0.731365	0.311212	0.053521
H182	H	1.231365	0.811212	0.553521
N183	N	0.326454	0.336728	0.000065
N184	N	0.826454	0.836728	0.500065
H185	H	0.285008	0.378579	0.000061
H186	H	0.785008	0.878579	0.500061
H187	H	0.357990	0.344948	0.053536
H188	H	0.857990	0.844948	0.553536
H189	H	1.037531	0.065301	0.786369
H190	H	1.537531	0.565301	1.286369
N191	N	0.842425	0.260527	0.798369
N192	N	1.342425	0.760527	1.298369
H193	H	0.812652	0.290308	0.755830
H194	H	1.312652	0.790308	1.255830
H195	H	0.803937	0.229962	0.836064
H196	H	1.303937	0.729962	1.336064
H197	H	0.837035	0.265828	0.213825
H198	H	1.337035	0.765828	0.713825
H199	H	0.167624	0.305152	0.000096
H200	H	0.667624	0.805152	0.500096
H201	H	0.863493	0.239400	0.621625
H202	H	1.363493	0.739400	1.121625
N203	N	0.815947	0.286940	0.390562
N204	N	1.315947	0.786940	0.890562
H205	H	0.820662	0.282233	0.454977
H206	H	1.320662	0.782233	0.954977
H207	H	0.829460	0.342503	0.374677
H208	H	1.329460	0.842503	0.874677
