data_functionalizedCrystal
_audit_creation_method	'MofGen! by Chris Wilmer'
_symmetry_space_group_name_H-M	'P1'
_symmetry_Int_Tables_number	1
_symmetry_cell_setting	triclinic
loop_
_symmetry_equiv_pos_as_xyz
  x,y,z
_cell_length_a	15.995350
_cell_length_b	14.519709
_cell_length_c	12.996460
_cell_angle_alpha	89.999966
_cell_angle_beta	89.996086
_cell_angle_gamma	96.413740
loop_
_atom_site_label
_atom_site_type_symbol
_atom_site_fract_x
_atom_site_fract_y
_atom_site_fract_z
O1	O	0.109760	-1.223669	-0.085428
O2	O	0.609760	-0.723669	0.414572
O3	O	0.122686	-0.955169	-0.085458
O4	O	0.622686	-0.455169	0.414542
O5	O	-0.005654	-1.096759	-0.085441
O6	O	0.494346	-0.596759	0.414559
O7	O	0.238099	-1.082080	-0.085445
O8	O	0.738099	-0.582080	0.414555
O9	O	-0.005661	-1.096744	0.085693
O10	O	0.494339	-0.596744	0.585693
O11	O	0.122678	-0.955154	0.085675
O12	O	0.622678	-0.455154	0.585675
O13	O	0.109753	-1.223655	0.085706
O14	O	0.609753	-0.723655	0.585706
Cu15	Cu	0.116215	-1.089403	0.101317
Cu16	Cu	0.616215	-0.589403	0.601317
Cu17	Cu	0.116224	-1.089421	-0.101069
Cu18	Cu	0.616224	-0.589421	0.398931
O19	O	0.238092	-1.082065	0.085689
O20	O	0.738092	-0.582065	0.585689
C21	C	-0.036853	-1.096145	0.000124
C22	C	0.463147	-0.596145	0.500124
C23	C	-0.129806	-1.094325	0.000118
C24	C	0.370194	-0.594325	0.500118
C25	C	0.122080	-0.920803	0.000104
C26	C	0.622080	-0.420803	0.500104
C27	C	0.120275	-0.818425	0.000092
C28	C	0.620275	-0.318425	0.500092
C29	C	0.110359	-1.258021	0.000141
C30	C	0.610359	-0.758021	0.500141
C31	C	0.112164	-1.360399	0.000146
C32	C	0.612164	-0.860399	0.500146
C33	C	-0.467563	-1.087791	0.000120
C34	C	0.032437	-0.587791	0.500120
C35	C	-0.420280	-0.986954	-0.000275
C36	C	0.079720	-0.486954	0.499725
C37	C	-0.323587	-0.988773	0.000111
C38	C	0.176413	-0.488773	0.500111
C39	C	-0.299998	-1.091032	0.000118
C40	C	0.200002	-0.591032	0.500118
C41	C	-0.341005	-1.140761	0.097848
C42	C	0.158995	-0.640761	0.597848
C43	C	-0.437645	-1.138227	0.097930
C44	C	0.062355	-0.638227	0.597930
C45	C	-0.437992	-1.140327	-0.096681
C46	C	0.062008	-0.640327	0.403319
C47	C	-0.341046	-1.140303	-0.097973
C48	C	0.158954	-0.640303	0.402027
C49	C	-0.205298	-1.092869	0.000121
C50	C	0.294702	-0.592869	0.500121
C51	C	-0.562264	-1.085957	0.000125
C52	C	-0.062264	-0.585957	0.500125
C53	C	0.269292	-1.082679	0.000122
C54	C	0.769292	-0.582679	0.500122
C55	C	0.362245	-1.084498	0.000121
C56	C	0.862245	-0.584498	0.500121
N57	N	0.116209	-1.089398	0.243664
N58	N	0.616209	-0.589398	0.743664
C59	C	0.113629	-0.443541	0.000139
C60	C	0.613629	0.056459	0.500139
C61	C	0.115475	-0.547846	0.000126
C62	C	0.615475	-0.047846	0.500126
C63	C	0.116952	-0.630980	0.000115
C64	C	0.616952	-0.130980	0.500115
C65	C	0.118797	-0.735291	0.000104
C66	C	0.618797	-0.235291	0.500104
N67	N	0.116223	-1.089433	-0.243416
N68	N	0.616223	-0.589433	0.256584
C69	C	0.116224	-1.089419	0.663478
C70	C	0.616224	-0.589419	1.163478
C71	C	0.116223	-1.089411	0.546673
C72	C	0.616223	-0.589411	1.046673
C73	C	0.116217	-1.089409	0.453575
C74	C	0.616217	-0.589409	0.953575
C75	C	0.116214	-1.089399	0.336762
C76	C	0.616214	-0.589399	0.836762
H77	H	-0.295221	-0.949683	-0.069946
H78	H	0.204779	-0.449683	0.430054
O79	O	-0.307364	-1.099542	0.184682
O80	O	0.192636	-0.599542	0.684682
C81	C	-0.333247	-1.018582	0.341329
C82	C	0.166753	-0.518582	0.841329
C83	C	-0.371456	-1.065259	0.243047
C84	C	0.128544	-0.565259	0.743047
H85	H	-0.385045	-0.990835	0.388533
H86	H	0.114955	-0.490835	0.888533
H87	H	-0.302315	-1.071417	0.388856
H88	H	0.197685	-0.571417	0.888856
H89	H	-0.284075	-0.958877	0.319314
H90	H	0.215925	-0.458877	0.819314
H91	H	-0.420661	-1.124958	0.264969
H92	H	0.079339	-0.624958	0.764969
H93	H	-0.402335	-1.012366	0.195545
H94	H	0.097665	-0.512366	0.695545
H95	H	-0.326767	-1.215887	0.101488
H96	H	0.173233	-0.715887	0.601488
H97	H	-0.469641	-1.214674	-0.097333
H98	H	0.030359	-0.714674	0.402667
H99	H	-0.458578	-1.107365	-0.170754
H100	H	0.041422	-0.607365	0.329246
H101	H	-0.313849	-1.103946	-0.170271
H102	H	0.186151	-0.603946	0.329729
H103	H	-0.469782	-1.212261	0.102369
H104	H	0.030218	-0.712261	0.602369
O105	O	-0.442318	-0.938889	-0.083961
O106	O	0.057682	-0.438889	0.416039
C107	C	-0.395273	-0.856910	-0.238306
C108	C	0.104727	-0.356910	0.261694
C109	C	-0.370196	-0.911343	-0.143584
C110	C	0.129804	-0.411343	0.356416
H111	H	-0.336974	-0.834607	-0.286525
H112	H	0.163026	-0.334607	0.213475
H113	H	-0.442690	-0.902815	-0.286546
H114	H	0.057310	-0.402815	0.213454
H115	H	-0.424722	-0.792948	-0.211924
H116	H	0.075278	-0.292948	0.288076
H117	H	-0.340711	-0.975307	-0.169874
H118	H	0.159289	-0.475307	0.330126
H119	H	-0.322815	-0.865373	-0.095364
H120	H	0.177185	-0.365373	0.404636
O121	O	-0.322448	-1.229208	-0.105154
O122	O	0.177552	-0.729208	0.394846
C123	C	-0.257904	-1.341410	-0.205800
C124	C	0.242096	-0.841410	0.294200
C125	C	-0.278922	-1.240700	-0.197796
C126	C	0.221078	-0.740700	0.302204
H127	H	-0.222726	-1.350739	-0.280705
H128	H	0.277274	-0.850739	0.219295
H129	H	-0.216823	-1.357481	-0.137883
H130	H	0.283177	-0.857481	0.362117
H131	H	-0.318666	-1.390590	-0.204763
H132	H	0.181334	-0.890590	0.295237
H133	H	-0.218205	-1.191454	-0.198862
H134	H	0.281795	-0.691454	0.301138
H135	H	-0.320037	-1.224706	-0.265709
H136	H	0.179963	-0.724706	0.234291
O137	O	-0.443871	-0.939131	0.082826
O138	O	0.056129	-0.439131	0.582826
C139	C	-0.557943	-0.879882	0.173439
C140	C	-0.057943	-0.379882	0.673439
C141	C	-0.531342	-0.934070	0.079292
C142	C	-0.031342	-0.434070	0.579292
H143	H	-0.628661	-0.875756	0.170601
H144	H	-0.128661	-0.375756	0.670601
H145	H	-0.541562	-0.916823	0.246916
H146	H	-0.041562	-0.416823	0.746916
H147	H	-0.523277	-0.806887	0.172461
H148	H	-0.023277	-0.306887	0.672461
H149	H	-0.565993	-1.007070	0.080170
H150	H	-0.065993	-0.507070	0.580170
H151	H	-0.547706	-0.897057	0.005856
H152	H	-0.047706	-0.397057	0.505856
O153	O	-0.290501	-0.941696	0.083789
O154	O	0.209499	-0.441696	0.583789
C155	C	-0.271746	-0.795971	0.174222
C156	C	0.228254	-0.295971	0.674222
C157	C	-0.309274	-0.849179	0.079413
C158	C	0.190726	-0.349179	0.579413
H159	H	-0.286895	-0.721157	0.170705
H160	H	0.213105	-0.221157	0.670705
H161	H	-0.299898	-0.830225	0.247204
H162	H	0.200102	-0.330225	0.747204
H163	H	-0.200602	-0.797134	0.174911
H164	H	0.299398	-0.297134	0.674911
H165	H	-0.380417	-0.848034	0.078625
H166	H	0.119583	-0.348034	0.578625
H167	H	-0.281057	-0.814909	0.006474
H168	H	0.218943	-0.314909	0.506474
O169	O	-0.459614	-1.095093	0.185137
O170	O	0.040386	-0.595093	0.685137
C171	C	-0.540758	-1.107302	0.341738
C172	C	-0.040758	-0.607302	0.841738
C173	C	-0.515939	-1.156275	0.243030
C174	C	-0.015939	-0.656275	0.743030
H175	H	-0.586314	-1.156740	0.388561
H176	H	-0.086314	-0.656740	0.888561
H177	H	-0.482043	-1.085515	0.389410
H178	H	0.017957	-0.585515	0.889410
H179	H	-0.572336	-1.043361	0.320276
H180	H	-0.072336	-0.543361	0.820276
H181	H	-0.484380	-1.220248	0.264399
H182	H	0.015620	-0.720248	0.764399
H183	H	-0.574682	-1.177993	0.195383
H184	H	-0.074682	-0.677993	0.695383
