data_functionalizedCrystal
_audit_creation_method	'MofGen! by Chris Wilmer'
_symmetry_space_group_name_H-M	'P1'
_symmetry_Int_Tables_number	1
_symmetry_cell_setting	triclinic
loop_
_symmetry_equiv_pos_as_xyz
  x,y,z
_cell_length_a	10.968094
_cell_length_b	17.038274
_cell_length_c	10.065875
_cell_angle_alpha	80.581085
_cell_angle_beta	93.118877
_cell_angle_gamma	92.159644
loop_
_atom_site_label
_atom_site_type_symbol
_atom_site_fract_x
_atom_site_fract_y
_atom_site_fract_z
O1	O	1.626856	-0.136722	0.269049
O2	O	1.277047	-0.138967	0.186783
O3	O	1.449867	-0.023972	0.227463
O4	O	1.454037	-0.251717	0.228369
O5	O	1.416922	-0.045992	0.446697
O6	O	1.244102	-0.160987	0.406017
O7	O	1.593911	-0.158743	0.488283
Zn8	Zn	1.413776	-0.163361	0.481958
Zn9	Zn	1.457182	-0.134348	0.193108
O10	O	1.421092	-0.273737	0.447602
C11	C	1.215595	-0.148151	0.285823
C12	C	1.081569	-0.142700	0.254305
C13	C	0.866221	-0.146035	0.321240
C14	C	1.004741	-0.151675	0.353828
C15	C	1.429612	-0.005743	0.336198
C16	C	1.418325	0.081378	0.333564
C17	C	1.521915	0.128453	0.357937
C18	C	1.511305	0.210314	0.355449
C19	C	1.397103	0.245098	0.328595
C20	C	1.293506	0.198018	0.304216
C21	C	1.304118	0.116159	0.306695
C22	C	1.359613	0.491952	0.319818
C23	C	1.349008	0.573816	0.317345
C24	C	1.566809	0.586107	0.368576
C25	C	1.577410	0.504245	0.371061
C26	C	1.473814	0.457173	0.346674
C27	C	1.386254	0.328773	0.326055
C28	C	1.484665	0.373501	0.349205
C29	C	1.655364	-0.149558	0.389240
C30	C	1.789391	-0.155008	0.420749
C31	C	1.441338	0.708029	0.338923
C32	C	1.452598	0.620890	0.341719
N33	N	1.384161	-0.183161	0.679092
N34	N	1.486806	-0.114542	-0.004024
C35	C	1.446870	-0.141232	0.761632
C36	C	1.424088	-0.156477	0.913437
H37	H	1.041510	-0.163530	0.463155
C38	C	1.032316	-0.126933	0.108612
C39	C	0.904714	-0.124501	0.105248
C40	C	0.859299	-0.109990	-0.028937
H41	H	1.064675	-0.077403	0.065266
H42	H	1.055691	-0.168284	0.063220
H43	H	0.881350	-0.083153	0.150621
H44	H	0.872322	-0.174024	0.148567
H45	H	0.882675	-0.151341	-0.074330
H46	H	0.891667	-0.060460	-0.072272
H47	H	0.772717	-0.108345	-0.031238
C48	C	1.169620	0.235908	0.274872
C49	C	1.174125	0.293884	0.159185
C50	C	1.060027	0.328810	0.132127
H51	H	1.109341	0.196239	0.260614
H52	H	1.149455	0.259957	0.349251
H53	H	1.194275	0.269835	0.084823
H54	H	1.234380	0.333569	0.173412
H55	H	1.039862	0.352859	0.206506
H56	H	0.999757	0.289135	0.117875
H57	H	1.063072	0.368156	0.053639
H58	H	1.353524	-0.203660	0.955148
H59	H	1.313602	-0.230341	0.720809
C60	C	1.225023	0.611572	0.287896
C61	C	1.178879	0.599302	0.160234
C62	C	1.064683	0.634083	0.133055
H63	H	1.170382	0.587993	0.354096
H64	H	1.233508	0.667077	0.289835
H65	H	1.170387	0.543808	0.158306
H66	H	1.233486	0.622883	0.094007
H67	H	1.073169	0.689587	0.134994
H68	H	1.010053	0.610500	0.199262
H69	H	1.033365	0.625769	0.046430
H70	H	1.651151	0.624442	0.388427
H71	H	1.293270	0.357103	0.304193
H72	H	1.275257	0.453635	0.299961
C73	C	1.191494	0.065174	0.280264
C74	C	1.089203	0.113151	0.256250
C75	C	0.985428	0.066212	0.231906
H76	H	1.202427	0.040648	0.203694
H77	H	1.179543	0.025318	0.356630
H78	H	1.101153	0.152993	0.179892
H79	H	1.078231	0.137677	0.332805
H80	H	0.973477	0.026356	0.308272
H81	H	0.996374	0.041688	0.155338
H82	H	0.916010	0.098756	0.215622
H83	H	1.595659	0.248639	0.375299
H84	H	1.557361	-0.067354	0.954263
C85	C	1.701520	0.466637	0.400181
C86	C	1.789976	0.525388	0.420965
C87	C	1.904321	0.490773	0.447787
H88	H	1.698862	0.427294	0.478686
H89	H	1.721749	0.442655	0.325751
H90	H	1.769751	0.549356	0.495389
H91	H	1.792672	0.564733	0.342476
H92	H	1.924550	0.466792	0.373357
H93	H	1.901650	0.451431	0.526290
H94	H	1.964354	0.530631	0.461881
C95	C	1.608608	0.335653	0.378137
C96	C	1.637997	0.300323	0.268280
C97	C	1.752155	0.265432	0.294896
H98	H	1.668914	0.375331	0.392263
H99	H	1.605795	0.296257	0.456582
H100	H	1.640819	0.339714	0.189858
H101	H	1.577722	0.260634	0.254136
H102	H	1.749342	0.226037	0.373341
H103	H	1.812451	0.305115	0.309024
H104	H	1.772105	0.241451	0.220369
C105	C	1.540795	-0.078208	0.706020
C106	C	1.508050	-0.003949	0.732940
C107	C	1.594541	0.054124	0.681704
H108	H	1.618882	-0.091100	0.747640
H109	H	1.543574	-0.076288	0.611369
H110	H	1.505284	-0.005870	0.827573
H111	H	1.429978	0.008968	0.691320
H112	H	1.597320	0.056044	0.587053
H113	H	1.672622	0.041225	0.723328
H114	H	1.572329	0.104516	0.699951
H115	H	0.829447	-0.134171	0.211922
H116	H	0.826166	-0.166863	0.530068
H117	H	1.614910	0.100138	0.379812
