data_functionalizedCrystal
_audit_creation_method	'MofGen! by Chris Wilmer'
_symmetry_space_group_name_H-M	'P1'
_symmetry_Int_Tables_number	1
_symmetry_cell_setting	triclinic
loop_
_symmetry_equiv_pos_as_xyz
  x,y,z
_cell_length_a	19.851628
_cell_length_b	14.628931
_cell_length_c	14.628931
_cell_angle_alpha	120.000000
_cell_angle_beta	89.999822
_cell_angle_gamma	60.004084
loop_
_atom_site_label
_atom_site_type_symbol
_atom_site_fract_x
_atom_site_fract_y
_atom_site_fract_z
Zr1	Zr	0.648902	1.000682	0.120011
O2	O	0.541348	1.191370	0.265964
O3	O	0.681873	0.809981	0.075268
O4	O	0.681873	1.000686	0.265974
O5	O	0.541348	1.000665	-0.075174
O6	O	0.792722	1.000704	0.265982
O7	O	0.541348	1.000665	0.075258
O8	O	0.792721	0.659568	-0.075155
O9	O	0.541348	1.341801	0.265964
O10	O	0.778660	0.888437	0.056193
O11	O	0.695935	0.888424	-0.056079
O12	O	0.695935	1.112955	0.168452
O13	O	0.613210	1.112942	0.056181
Zr14	Zr	0.825693	1.000710	-0.119897
Zr15	Zr	0.825693	1.000710	0.120024
Zr16	Zr	0.648902	1.000682	-0.119910
Zr17	Zr	0.648902	1.240603	0.120011
Zr18	Zr	0.825693	0.760789	-0.119897
O19	O	0.792722	1.191411	-0.075154
O20	O	0.792722	1.191410	0.265983
O21	O	0.541348	1.191371	-0.075173
O22	O	0.933247	0.810022	-0.265850
O23	O	0.933247	0.810021	0.075287
O24	O	0.681873	0.809982	-0.265869
O25	O	0.933247	1.000727	0.075288
O26	O	0.792722	1.000706	-0.265860
O27	O	0.681873	1.000688	-0.265868
O28	O	0.933247	1.000727	-0.075144
O29	O	0.681874	1.341824	0.265975
O30	O	0.792721	0.659568	-0.265860
O31	O	0.933246	0.659590	-0.265850
O32	O	0.933247	0.659590	-0.075144
O33	O	0.541348	1.341802	0.075259
O34	O	0.681874	1.341824	0.075269
O35	O	0.778660	0.888437	-0.168338
O36	O	0.861385	0.888450	-0.056066
O37	O	0.778660	1.112968	0.056193
O38	O	0.695935	1.112955	-0.056079
C39	C	0.737297	0.700591	0.000057
C40	C	0.737297	0.598738	0.000057
C41	C	0.778334	0.553335	0.055751
C42	C	0.778335	0.448065	0.055752
C43	C	0.516159	1.000661	0.000040
C44	C	0.441106	1.000649	0.000035
C45	C	0.304845	0.878261	-0.061160
C46	C	0.237397	0.939453	-0.105530
C47	C	0.303675	1.000682	0.000049
C48	C	0.237389	0.939482	0.044381
C49	C	0.170926	1.000706	0.000062
C50	C	0.237215	1.061875	-0.044382
C51	C	0.237217	1.061886	0.105587
C52	C	0.169756	1.123168	0.061243
C53	C	0.380150	1.000665	0.000039
C54	C	0.094449	1.000732	0.000071
C55	C	0.958436	1.000731	0.000074
C56	C	1.033488	1.000743	0.000079
C57	C	0.737298	1.000695	0.300162
C58	C	0.737298	1.000695	0.402015
C59	C	0.737298	1.300801	0.000058
C60	C	0.737298	1.402654	0.000058
C61	C	0.696261	1.112071	0.503112
C62	C	0.696260	1.112073	0.608384
C63	C	0.737297	1.000697	0.699952
C64	C	0.737297	1.000697	0.598099
C65	C	0.958436	0.700626	0.000073
C66	C	1.033488	0.598785	0.000079
C67	C	0.737297	0.700592	-0.300048
C68	C	0.737297	0.598739	-0.401901
C69	C	0.958435	0.700627	-0.300031
C70	C	1.033488	0.598786	-0.401879
C71	C	0.516160	1.300765	0.300146
C72	C	0.441107	1.402606	0.401993
C73	C	0.516159	1.300766	0.000041
C74	C	0.441107	1.402607	0.000035
C75	C	0.737298	1.300800	0.300162
C76	C	0.737298	1.402653	0.402015
C77	C	1.025552	0.550952	0.058690
C78	C	1.096065	0.455275	0.058717
C79	C	1.174513	0.407426	0.000127
C80	C	1.182448	0.455268	-0.058486
C81	C	1.111936	0.550950	-0.058506
C82	C	1.111922	0.550967	-0.391103
C83	C	1.182448	0.455291	-0.486790
C84	C	1.174538	0.407428	-0.593252
C85	C	1.096096	0.455256	-0.604026
C86	C	1.025571	0.550938	-0.508340
C87	C	0.362673	1.450436	0.391217
C88	C	0.292147	1.546143	0.486904
C89	C	0.300057	1.594011	0.593366
C90	C	0.378499	1.546176	0.604140
C91	C	0.449024	1.450478	0.508454
C92	C	0.449043	1.450450	-0.058565
C93	C	0.378530	1.546153	-0.058567
C94	C	0.300082	1.594006	0.000027
C95	C	0.292147	1.546159	0.058635
C96	C	0.362659	1.450464	0.058642
C97	C	0.778334	0.553337	-0.502999
C98	C	0.778334	0.448066	-0.608270
H99	H	0.702159	0.441699	-0.047621
H100	H	0.356217	1.411467	0.304539
H101	H	0.702166	0.559671	-0.047627
N102	N	1.087488	0.403693	0.121939
H103	H	1.056339	0.363980	0.091183
H104	H	1.144082	0.335873	0.113059
N105	N	0.381438	0.741137	-0.129791
H106	H	0.382067	0.695047	-0.209511
H107	H	0.431933	0.742156	-0.128656
H108	H	0.813465	0.409025	0.103439
H109	H	1.231971	0.329517	-0.671157
N110	N	0.690755	0.547011	-0.390463
H111	H	0.647325	0.563653	-0.427599
H112	H	0.730442	0.450962	-0.427579
N113	N	0.387094	1.597765	-0.121766
H114	H	0.359756	1.581134	-0.180737
H115	H	0.359781	1.693807	-0.067930
H116	H	0.661122	1.207426	0.695111
N117	N	0.236500	0.870932	-0.223744
H118	H	0.286884	0.778454	-0.269928
H119	H	0.185133	0.872280	-0.222704
H120	H	0.661132	1.207422	0.511730
H121	H	0.236729	0.887718	0.081869
H122	H	0.772428	0.905339	0.511375
N123	N	0.207533	1.597756	0.121809
H124	H	0.164075	1.665625	0.112893
H125	H	0.201009	1.524656	0.091014
N126	N	0.940972	0.602503	-0.519962
H127	H	0.934364	0.642203	-0.562242
H128	H	0.934435	0.529411	-0.562214
H129	H	0.961681	0.589910	0.106415
H130	H	0.512913	1.411495	-0.106287
H131	H	0.813463	0.592405	-0.511616
N132	N	0.783844	0.874385	0.390588
H133	H	0.744216	0.869220	0.427718
H134	H	0.811229	0.800133	0.308636
N135	N	1.267051	0.403698	-0.475167
H136	H	1.273653	0.476717	-0.432875
H137	H	1.273597	0.363969	-0.432931
N138	N	1.250557	0.304218	0.000153
H139	H	1.284500	0.224802	-0.079209
H140	H	1.284439	0.337630	0.033561
H141	H	0.237814	1.113579	-0.081972
H142	H	0.228282	1.585073	0.478110
N143	N	0.824884	0.396346	-0.723145
H144	H	0.818289	0.328473	-0.782064
H145	H	0.802224	0.469383	-0.732075
H146	H	0.242624	1.671934	0.671271
H147	H	0.384930	1.585163	0.690833
H148	H	0.512887	1.411535	0.517242
H149	H	0.813471	0.592391	0.103428
H150	H	0.242673	1.671927	0.000012
H151	H	0.112015	1.226766	0.112999
N152	N	0.238147	1.130372	0.223779
H153	H	0.238908	1.084036	0.257207
H154	H	0.288942	1.130577	0.222856
N155	N	1.267062	0.403654	-0.121676
H156	H	1.310520	0.335780	-0.112766
H157	H	1.273601	0.364006	-0.203632
H158	H	1.089667	0.416272	-0.690720
H159	H	1.118409	0.589883	-0.106241
H160	H	0.356186	1.411513	0.106359
N161	N	1.120466	0.602568	-0.276283
H162	H	1.180860	0.557746	-0.283993
H163	H	1.093085	0.698634	-0.234018
H164	H	0.702166	0.441689	-0.511262
