data_functionalizedCrystal
_audit_creation_method	'MofGen! by Chris Wilmer'
_symmetry_space_group_name_H-M	'P1'
_symmetry_Int_Tables_number	1
_symmetry_cell_setting	triclinic
loop_
_symmetry_equiv_pos_as_xyz
  x,y,z
_cell_length_a	14.908571
_cell_length_b	13.897448
_cell_length_c	14.908308
_cell_angle_alpha	86.732812
_cell_angle_beta	89.824947
_cell_angle_gamma	86.713891
loop_
_atom_site_label
_atom_site_type_symbol
_atom_site_fract_x
_atom_site_fract_y
_atom_site_fract_z
Zn1	Zn	1.345318	-0.503381	0.587582
Zn2	Zn	1.353905	-0.655952	0.437223
Zn3	Zn	1.203632	-0.484854	0.428580
Zn4	Zn	1.194933	-0.654806	0.578874
O5	O	1.274447	-0.574748	0.508065
O6	O	1.472283	-0.531853	0.574898
O7	O	1.341206	-0.625981	0.310251
O8	O	1.222474	-0.352335	0.449699
O9	O	1.478592	-0.643947	0.464429
O10	O	1.326570	-0.365946	0.566518
O11	O	1.230801	-0.500276	0.303902
O12	O	1.076652	-0.499165	0.441256
O13	O	1.207647	-0.641993	0.705854
O14	O	1.070260	-0.624028	0.551676
O15	O	1.318134	-0.530742	0.712252
O16	O	1.332770	-0.790777	0.455986
O17	O	1.215974	-0.789935	0.560056
C18	C	1.040831	-0.559463	0.494584
C19	C	0.940888	-0.552948	0.488838
C20	C	0.746485	-0.670908	0.592867
C21	C	0.652579	-0.664790	0.587471
C22	C	0.659168	-0.534590	0.472656
C23	C	0.753074	-0.540708	0.478051
C24	C	0.796729	-0.608870	0.538158
C25	C	0.890637	-0.614992	0.543549
C26	C	0.897224	-0.484788	0.428738
C27	C	0.803318	-0.478670	0.423343
C28	C	1.274383	-0.825357	0.508035
C29	C	1.274436	-0.932575	0.508057
C30	C	1.274527	-1.128880	0.508119
C31	C	1.274474	-1.019642	0.508087
C32	C	1.508975	-0.590094	0.521599
C33	C	1.608918	-0.596634	0.527367
C34	C	1.260963	-0.588307	0.742590
C35	C	1.255216	-0.594084	0.842531
C36	C	1.274535	-0.323164	0.508116
C37	C	1.274572	-0.215954	0.508138
C38	C	1.287931	-0.561177	0.274455
C39	C	1.293851	-0.555139	0.174525
C40	C	1.359466	-0.489073	1.036993
C41	C	1.354070	-0.494498	1.130897
C42	C	1.239023	-0.610355	1.124242
C43	C	1.244420	-0.604930	1.030339
C44	C	1.304644	-0.544287	0.986718
C45	C	1.310044	-0.538868	0.892813
C46	C	1.194994	-0.654719	0.886160
C47	C	1.189597	-0.660144	0.980064
H48	H	0.938142	-0.434274	0.384188
H49	H	0.926180	-0.670495	0.592489
C50	C	0.597310	-0.733035	0.647649
C51	C	0.645334	-0.808008	0.713760
C52	C	0.590064	-0.876255	0.773942
C53	C	0.486771	-0.869530	0.768012
C54	C	0.438742	-0.794554	0.701897
C55	C	0.494012	-0.726307	0.641716
H56	H	0.721802	-0.812990	0.718153
H57	H	0.625619	-0.931758	0.822884
H58	H	0.445857	-0.920051	0.812562
H59	H	0.362273	-0.789573	0.697505
H60	H	0.458457	-0.670805	0.592773
H61	H	1.189991	-0.659727	1.159775
H62	H	0.782030	-0.726414	0.641803
H63	H	1.150356	-0.699682	0.845216
C64	C	1.376286	-0.472161	0.844826
C65	C	1.368232	-0.362775	0.857332
C66	C	1.434473	-0.296065	0.809348
C67	C	1.508768	-0.338740	0.748858
C68	C	1.516826	-0.448132	0.736350
C69	C	1.450585	-0.514843	0.784334
H70	H	1.313231	-0.331179	0.902112
H71	H	1.428508	-0.215085	0.818607
H72	H	1.557804	-0.289357	0.713337
H73	H	1.571827	-0.479728	0.691570
H74	H	1.456550	-0.595822	0.775075
C75	C	1.414378	-0.433765	1.186201
C76	C	1.371729	-0.359219	1.248522
C77	C	1.432039	-0.298481	1.303827
C78	C	1.534997	-0.312289	1.296810
C79	C	1.577650	-0.386838	1.234487
C80	C	1.517341	-0.447576	1.179182
H81	H	1.295509	-0.348994	1.253719
H82	H	1.400463	-0.243294	1.349963
H83	H	1.579641	-0.267327	1.337750
H84	H	1.653871	-0.397063	1.229290
H85	H	1.548917	-0.502763	1.133046
C86	C	1.425713	-0.422375	0.989002
C87	C	1.417674	-0.312988	1.001504
C88	C	1.483922	-0.246290	0.953513
C89	C	1.558209	-0.288979	0.893022
C90	C	1.566250	-0.398372	0.880518
C91	C	1.500002	-0.465070	0.928508
H92	H	1.362680	-0.281382	1.046286
H93	H	1.477969	-0.165310	0.962770
H94	H	1.607249	-0.239606	0.857496
H95	H	1.621244	-0.429979	0.835736
H96	H	1.505956	-0.546050	0.919251
C97	C	1.123362	-0.726852	1.028059
C98	C	1.158606	-0.808848	1.094850
C99	C	1.092374	-0.875560	1.142847
C100	C	0.990897	-0.860275	1.124052
C101	C	0.955647	-0.778275	1.057257
C102	C	1.021880	-0.711563	1.009261
H103	H	1.233730	-0.820166	1.108767
H104	H	1.118469	-0.936262	1.192293
H105	H	0.941868	-0.909659	1.159582
H106	H	0.880524	-0.766957	1.043341
H107	H	0.995785	-0.650861	0.959814
H108	H	0.767761	-0.423172	0.374408
H109	H	0.623607	-0.479089	0.423726
