data_functionalizedCrystal
_audit_creation_method	'MofGen! by Chris Wilmer'
_symmetry_space_group_name_H-M	'P1'
_symmetry_Int_Tables_number	1
_symmetry_cell_setting	triclinic
loop_
_symmetry_equiv_pos_as_xyz
  x,y,z
_cell_length_a	19.188930
_cell_length_b	23.532407
_cell_length_c	17.666332
_cell_angle_alpha	89.988854
_cell_angle_beta	89.976766
_cell_angle_gamma	82.996728
loop_
_atom_site_label
_atom_site_type_symbol
_atom_site_fract_x
_atom_site_fract_y
_atom_site_fract_z
O1	O	0.925923	0.071102	-0.063199
O2	O	0.722581	0.080673	-0.063148
O3	O	0.830384	-0.007031	-0.063161
O4	O	0.818120	0.158806	-0.063186
O5	O	0.830365	-0.007036	0.062735
O6	O	0.722562	0.080669	0.062748
O7	O	0.925904	0.071097	0.062697
Cu8	Cu	0.824231	0.075883	0.074218
Cu9	Cu	0.824253	0.075888	-0.074669
O10	O	0.818101	0.158802	0.062711
C11	C	0.696561	0.080361	-0.000193
C12	C	0.619060	0.079431	-0.000173
C13	C	0.573972	0.130893	-0.000193
C14	C	0.501151	0.130019	-0.000201
C15	C	0.473421	0.077680	-0.000205
C16	C	0.518519	0.026211	-0.000181
C17	C	0.591339	0.027086	-0.000165
N18	N	0.365575	0.037674	-0.043078
N19	N	0.296399	0.036846	-0.043094
C20	C	0.254021	0.075038	-0.000251
N21	N	0.283431	0.114099	0.042600
N22	N	0.352613	0.114929	0.042614
C23	C	0.394462	0.076724	-0.000222
C24	C	0.129971	0.125556	-0.000278
C25	C	0.057149	0.124680	-0.000282
C26	C	0.074520	0.020870	-0.000269
C27	C	0.147340	0.021748	-0.000258
C28	C	0.175061	0.074092	-0.000266
C29	C	0.830062	-0.028250	-0.000211
C30	C	0.829123	-0.091469	-0.000205
C31	C	0.887029	-0.490449	-0.000261
C32	C	0.886157	-0.549851	-0.000267
O33	O	0.939837	-0.586482	-0.000308
N34	N	0.822068	-0.572613	-0.000250
C35	C	0.758848	-0.535970	-0.000236
O36	O	0.704255	-0.560786	-0.000223
C37	C	0.759721	-0.476569	-0.000235
C38	C	0.823814	-0.453810	-0.000244
C39	C	0.951117	-0.467690	-0.000271
C40	C	0.951989	-0.408292	-0.000264
C41	C	0.888773	-0.371653	-0.000247
C42	C	0.824685	-0.394412	-0.000237
C43	C	0.696501	-0.439927	-0.000226
C44	C	0.697379	-0.380523	-0.000227
C45	C	0.761472	-0.357764	-0.000236
C46	C	0.762342	-0.298376	-0.000214
N47	N	0.826430	-0.275614	-0.000230
C48	C	0.889646	-0.312252	-0.000247
C49	C	0.757019	-0.660717	-0.000237
C50	C	0.756146	-0.720116	-0.000232
C51	C	0.883455	-0.733993	-0.000264
C52	C	0.884328	-0.674592	-0.000264
C53	C	0.821108	-0.637954	-0.000254
C54	C	0.891472	-0.187512	-0.000232
C55	C	0.892339	-0.128108	-0.000222
C56	C	0.765029	-0.114236	-0.000193
C57	C	0.764163	-0.173634	-0.000199
C58	C	0.827390	-0.210272	-0.000221
O59	O	0.708690	-0.261710	-0.000176
O60	O	0.944230	-0.287428	-0.000270
C61	C	0.951923	0.071410	-0.000259
C62	C	1.029425	0.072340	-0.000284
C63	C	0.818423	0.180021	-0.000241
C64	C	0.819362	0.243240	-0.000252
N65	N	0.824221	0.075878	0.178938
N66	N	0.824270	0.075888	-0.179389
C67	C	0.871971	0.037062	0.218542
C68	C	0.871975	0.037059	0.297789
C69	C	0.824236	0.075883	0.337430
C70	C	0.776476	0.114702	0.297816
C71	C	0.776469	0.114700	0.218570
N72	N	0.814998	0.126298	0.461842
N73	N	0.815010	0.126298	0.537123
C74	C	0.824254	0.075891	0.576194
N75	N	0.833500	0.025481	0.537141
N76	N	0.833493	0.025482	0.461853
C77	C	0.824238	0.075889	0.423359
C78	C	0.872011	0.037068	0.701727
C79	C	0.872010	0.037064	0.780976
C80	C	0.776515	0.114713	0.781002
C81	C	0.776512	0.114711	0.701754
C82	C	0.824264	0.075889	0.662122
H83	H	0.184052	-0.020158	-0.000246
H84	H	0.644310	-0.458446	-0.000224
H85	H	0.942958	-0.217335	-0.000252
C86	C	0.008228	0.180575	-0.000458
C87	C	0.020724	0.212092	-0.065245
C88	C	-0.024335	0.263583	-0.065439
H89	H	0.016531	0.202115	0.043389
H90	H	-0.039123	0.172584	-0.000504
H91	H	0.068064	0.220085	-0.065192
H92	H	0.012417	0.190570	-0.109103
H93	H	-0.071686	0.255592	-0.065485
H94	H	-0.016028	0.285117	-0.021589
H95	H	-0.015867	0.284971	-0.109399
H96	H	0.495937	-0.016404	-0.000195
H97	H	0.645897	-0.350694	-0.000220
C98	C	0.686537	-0.744789	-0.000370
C99	C	0.648367	-0.726148	-0.065140
C100	C	0.584243	-0.748868	-0.065304
H101	H	0.660436	-0.732224	0.043489
H102	H	0.695034	-0.785416	-0.000417
H103	H	0.639868	-0.685530	-0.065086
H104	H	0.674447	-0.738712	-0.109009
H105	H	0.592740	-0.789495	-0.065351
H106	H	0.558148	-0.736302	-0.021442
H107	H	0.558339	-0.736228	-0.109252
C108	C	1.021599	-0.383621	-0.000439
C109	C	1.059783	-0.402243	-0.065232
C110	C	1.123911	-0.379527	-0.065426
H111	H	1.047688	-0.396203	0.043404
H112	H	1.013106	-0.342994	-0.000476
H113	H	1.068278	-0.442861	-0.065188
H114	H	1.033715	-0.389662	-0.109085
H115	H	1.115418	-0.338900	-0.065464
H116	H	1.149994	-0.392111	-0.021581
H117	H	1.149824	-0.392154	-0.109391
H118	H	1.002598	-0.497516	-0.000287
C119	C	0.724569	0.156800	0.823989
C120	C	0.656026	0.147691	0.804766
C121	C	0.608152	0.186445	0.844361
H122	H	0.731789	0.194819	0.811019
H123	H	0.731362	0.151239	0.876866
H124	H	0.649235	0.153256	0.751901
H125	H	0.648784	0.109679	0.817738
H126	H	0.614945	0.180885	0.897238
H127	H	0.615378	0.224462	0.831388
H128	H	0.561640	0.180266	0.831329
C129	C	0.694506	-0.198237	-0.000227
C130	C	0.639332	-0.153433	-0.000227
C131	C	0.575153	-0.176071	-0.000273
H132	H	0.691408	-0.221125	0.043658
H133	H	0.691491	-0.221092	-0.044154
H134	H	0.642345	-0.130589	0.043695
H135	H	0.642407	-0.130542	-0.044109
H136	H	0.572138	-0.198925	-0.044200
H137	H	0.572062	-0.198958	0.043613
H138	H	0.537710	-0.145675	-0.000280
H139	H	0.737584	0.146310	0.186324
C140	C	0.688396	-0.620913	-0.000370
C141	C	0.685170	-0.586405	-0.065148
C142	C	0.621962	-0.549739	-0.065303
H143	H	0.686014	-0.597404	0.043483
H144	H	0.650087	-0.642961	-0.000400
H145	H	0.723468	-0.564358	-0.065111
H146	H	0.687540	-0.609897	-0.109012
H147	H	0.583652	-0.571788	-0.065333
H148	H	0.619585	-0.526235	-0.021447
H149	H	0.619761	-0.526325	-0.109257
H150	H	0.713561	-0.084394	-0.000177
H151	H	0.737605	0.146312	0.330096
C152	C	0.923840	-0.005155	0.175650
C153	C	0.965647	-0.039160	0.227302
C154	C	1.013428	-0.078063	0.187816
H155	H	0.952824	0.015205	0.144708
H156	H	0.898906	-0.028846	0.144776
H157	H	0.990579	-0.015472	0.258163
H158	H	0.936683	-0.059533	0.258245
H159	H	0.988494	-0.101753	0.156942
H160	H	1.042407	-0.057698	0.156876
H161	H	1.041795	-0.101143	0.222856
H162	H	0.628050	-0.014822	-0.000150
H163	H	0.910892	0.005455	0.669457
C164	C	0.923746	-0.005058	0.340937
C165	C	0.913521	0.003246	0.418820
C166	C	0.961194	-0.035546	0.458588
H167	H	0.970327	0.001000	0.328013
H168	H	0.916430	-0.043068	0.328014
H169	H	0.920843	0.041247	0.431738
H170	H	0.866950	-0.002817	0.431766
H171	H	0.953878	-0.073555	0.445665
H172	H	1.007772	-0.029484	0.445658
H173	H	0.954258	-0.029920	0.511436
C174	C	0.923937	-0.005107	0.823841
C175	C	0.965765	-0.039091	0.772167
C176	C	1.013615	-0.077940	0.811627
H177	H	0.899078	-0.028822	0.854778
H178	H	0.952893	0.015312	0.854717
H179	H	0.936813	-0.059509	0.741304
H180	H	0.990640	-0.015392	0.741228
H181	H	1.042571	-0.057521	0.842503
H182	H	0.988750	-0.101651	0.842563
H183	H	1.042005	-0.101000	0.776572
C184	C	0.724754	0.156954	0.658793
C185	C	0.735701	0.212896	0.678033
C186	C	0.688036	0.251826	0.638466
H187	H	0.678171	0.150941	0.671775
H188	H	0.731588	0.151433	0.605912
H189	H	0.728861	0.218414	0.730902
H190	H	0.782274	0.218927	0.665049
H191	H	0.694871	0.246305	0.585586
H192	H	0.641457	0.245808	0.651451
H193	H	0.695461	0.289786	0.651510
H194	H	0.596537	0.173516	-0.000201
H195	H	0.464433	0.171927	-0.000215
H196	H	0.152543	0.168178	-0.000274
H197	H	0.944533	-0.109581	-0.000227
C198	C	0.044558	-0.036015	-0.000233
C199	C	0.099636	-0.080898	-0.000198
C200	C	0.072060	-0.133310	-0.000151
H201	H	0.016546	-0.038595	-0.044129
H202	H	0.016510	-0.038546	0.043683
H203	H	0.127672	-0.078367	-0.044110
H204	H	0.127653	-0.078336	0.043694
H205	H	0.044012	-0.135841	0.043765
H206	H	0.044047	-0.135884	-0.044048
H207	H	0.109425	-0.163769	-0.000121
H208	H	0.934929	-0.763836	-0.000281
H209	H	0.936518	-0.656067	-0.000272
