data_functionalizedCrystal
_audit_creation_method	'MofGen! by Chris Wilmer'
_symmetry_space_group_name_H-M	'P1'
_symmetry_Int_Tables_number	1
_symmetry_cell_setting	triclinic
loop_
_symmetry_equiv_pos_as_xyz
  x,y,z
_cell_length_a	18.050591
_cell_length_b	18.050589
_cell_length_c	12.594509
_cell_angle_alpha	89.972304
_cell_angle_beta	89.983353
_cell_angle_gamma	90.027061
loop_
_atom_site_label
_atom_site_type_symbol
_atom_site_fract_x
_atom_site_fract_y
_atom_site_fract_z
Zn1	Zn	1.135337	-0.295660	-0.601731
Zn2	Zn	1.135235	-0.419864	-0.423754
Zn3	Zn	1.011143	-0.295690	-0.423774
Zn4	Zn	1.011104	-0.419810	-0.601699
O5	O	1.073205	-0.357756	-0.512740
O6	O	1.239248	-0.312146	-0.578127
O7	O	1.118747	-0.403427	-0.274811
O8	O	1.027677	-0.191761	-0.447403
O9	O	1.239173	-0.403398	-0.447368
O10	O	1.118922	-0.191739	-0.578147
O11	O	1.027578	-0.312197	-0.274826
O12	O	0.907213	-0.312145	-0.447371
O13	O	1.027611	-0.403307	-0.750649
O14	O	0.907185	-0.403335	-0.578092
O15	O	1.118884	-0.312094	-0.750673
O16	O	1.118709	-0.523781	-0.447337
O17	O	1.027511	-0.523742	-0.578072
C18	C	0.880253	-0.357738	-0.512731
C19	C	0.797707	-0.357748	-0.512752
C20	C	0.548887	-0.407440	-0.583741
C21	C	0.598250	-0.425522	-0.486592
C22	C	0.500587	-0.357771	-0.512750
C23	C	0.598306	-0.339713	-0.609895
C24	C	0.646572	-0.357762	-0.512756
C25	C	0.548862	-0.375889	-0.415549
C26	C	0.548913	-0.290047	-0.538919
C27	C	0.598254	-0.308104	-0.441702
C28	C	0.416488	-0.357779	-0.512748
C29	C	0.730668	-0.357754	-0.512748
C30	C	1.073115	-0.550708	-0.512722
C31	C	1.073145	-0.633254	-0.512750
C32	C	1.023600	-0.832710	-0.583819
C33	C	1.005495	-0.882155	-0.486696
C34	C	1.073218	-0.784384	-0.512764
C35	C	1.091359	-0.882021	-0.609898
C36	C	1.073287	-0.930369	-0.512786
C37	C	1.055077	-0.832742	-0.415590
C38	C	1.140973	-0.832604	-0.538857
C39	C	1.122894	-0.882026	-0.441667
C40	C	1.073176	-0.700286	-0.512753
C41	C	1.073329	-1.014466	-0.512786
C42	C	1.266910	-0.357775	-0.512749
C43	C	1.349456	-0.357783	-0.512753
C44	C	1.073255	-0.357691	-0.790361
C45	C	1.073276	-0.357663	-0.908666
C46	C	1.073315	-0.164050	-0.512781
C47	C	1.073362	-0.081505	-0.512798
C48	C	1.023648	-0.407246	-0.977906
C49	C	1.091408	-0.425392	-1.048689
C50	C	1.005568	-0.339472	-1.048683
C51	C	1.141072	-0.375846	-0.977891
C52	C	1.055186	-0.289893	-0.977878
C53	C	1.122993	-0.308014	-1.048629
C54	C	1.073198	-0.357767	-0.236199
C55	C	1.073321	-0.357586	-0.117894
H56	H	0.619792	-0.266096	-0.381601
H57	H	0.620023	-0.324442	-0.692047
H58	H	0.948229	-0.903936	-0.464646
H59	H	0.527212	-0.449480	-0.643698
C60	C	1.034584	-0.804151	-0.305951
C61	C	1.021924	-0.864197	-0.237899
C62	C	1.003052	-0.837886	-0.136893
H63	H	0.990969	-0.774910	-0.310655
H64	H	1.073996	-0.774819	-0.278883
H65	H	0.982515	-0.893516	-0.264960
H66	H	1.065530	-0.893443	-0.233163
H67	H	1.042464	-0.808555	-0.109824
H68	H	0.959438	-0.808646	-0.141608
H69	H	0.994467	-0.878623	-0.090704
H70	H	0.527224	-0.232795	-0.561085
C71	C	1.178977	-0.910771	-0.361642
C72	C	1.232399	-0.953354	-0.414240
C73	C	1.284075	-0.979841	-0.340555
H74	H	1.154437	-0.940495	-0.310250
H75	H	1.202346	-0.870122	-0.327380
H76	H	1.209032	-0.993997	-0.448484
H77	H	1.256958	-0.923647	-0.465625
H78	H	1.307443	-0.939192	-0.306294
H79	H	1.259527	-1.009561	-0.289168
H80	H	1.320331	-1.008731	-0.376233
H81	H	0.619922	-0.482791	-0.464453
H82	H	1.039841	-0.232632	-0.946750
C83	C	0.519888	-0.396370	-0.306065
C84	C	0.442327	-0.396187	-0.307360
C85	C	0.415608	-0.415065	-0.206531
H86	H	0.537105	-0.361337	-0.255505
H87	H	0.537150	-0.444345	-0.287360
H88	H	0.425071	-0.348219	-0.326052
H89	H	0.425090	-0.431221	-0.357899
H90	H	0.432871	-0.463039	-0.187825
H91	H	0.432831	-0.380029	-0.155978
H92	H	0.362981	-0.414949	-0.207398
C93	C	1.217287	-0.803596	-0.568534
C94	C	1.235959	-0.828503	-0.670344
C95	C	1.306249	-0.801786	-0.697736
H96	H	1.252758	-0.821197	-0.518875
H97	H	1.216825	-0.750968	-0.567730
H98	H	1.236427	-0.881120	-0.671139
H99	H	1.200507	-0.810903	-0.720025
H100	H	1.305788	-0.749159	-0.696932
H101	H	1.341714	-0.819390	-0.648070
H102	H	1.318925	-0.818676	-0.766819
C103	C	0.967456	-0.803869	-0.663688
C104	C	0.896652	-0.828966	-0.635876
C105	C	0.844912	-0.802404	-0.709412
H106	H	0.979747	-0.821450	-0.732548
H107	H	0.968087	-0.751240	-0.663560
H108	H	0.896023	-0.881585	-0.636015
H109	H	0.884338	-0.811387	-0.567028
H110	H	0.845543	-0.749775	-0.709285
H111	H	0.857210	-0.819987	-0.778268
H112	H	0.796865	-0.819423	-0.690547
C113	C	1.111686	-0.910783	-0.719509
C114	C	1.059528	-0.885779	-0.793557
C115	C	1.078227	-0.912248	-0.894544
H116	H	1.111995	-0.963403	-0.718719
H117	H	1.159442	-0.893066	-0.738581
H118	H	1.011784	-0.903500	-0.774490
H119	H	1.059211	-0.833162	-0.794380
H120	H	1.125984	-0.894531	-0.913617
H121	H	1.078537	-0.964868	-0.893743
H122	H	1.042846	-0.895282	-0.944800
H123	H	0.981712	-0.449241	-0.946854
C124	C	1.111701	-0.501817	-1.090114
C125	C	1.059536	-0.553546	-1.054311
C126	C	1.078194	-0.623955	-1.092458
H127	H	1.159450	-0.515155	-1.064859
H128	H	1.111981	-0.501152	-1.165542
H129	H	1.059263	-0.554213	-0.978899
H130	H	1.011783	-0.540232	-1.079564
H131	H	1.078474	-0.623290	-1.167886
H132	H	1.125944	-0.637285	-1.067200
H133	H	1.042800	-0.659060	-1.068179
C134	C	1.217407	-0.396437	-0.936404
C135	C	1.216479	-0.396287	-0.825243
C136	C	1.286780	-0.415265	-0.786987
H137	H	1.252768	-0.361440	-0.961071
H138	H	1.230359	-0.444420	-0.961180
H139	H	1.203536	-0.348311	-0.800477
H140	H	1.181133	-0.431285	-0.800548
H141	H	1.299731	-0.463248	-0.811763
H142	H	1.322135	-0.380266	-0.811660
H143	H	1.286157	-0.415172	-0.711561
C144	C	1.179158	-0.252159	-1.089726
C145	C	1.249924	-0.271508	-1.053683
C146	C	1.301684	-0.220080	-1.091535
H147	H	1.166801	-0.204161	-1.064432
H148	H	1.178630	-0.252157	-1.165157
H149	H	1.250450	-0.271501	-0.978269
H150	H	1.262304	-0.319497	-1.078975
H151	H	1.301156	-0.220079	-1.166966
H152	H	1.289320	-0.172085	-1.066238
H153	H	1.349705	-0.233205	-1.067094
C154	C	0.929130	-0.319095	-1.090001
C155	C	0.877380	-0.371222	-1.054145
C156	C	0.806957	-0.352477	-1.092172
H157	H	0.929706	-0.318784	-1.165417
H158	H	0.915881	-0.271332	-1.064685
H159	H	0.890626	-0.418973	-1.079467
H160	H	0.876781	-0.371540	-0.978734
H161	H	0.793707	-0.304713	-1.066855
H162	H	0.807540	-0.352166	-1.167587
H163	H	0.771835	-0.387837	-1.067841
