data_functionalizedCrystal
_audit_creation_method	'MofGen! by Chris Wilmer'
_symmetry_space_group_name_H-M	'P1'
_symmetry_Int_Tables_number	1
_symmetry_cell_setting	triclinic
loop_
_symmetry_equiv_pos_as_xyz
  x,y,z
_cell_length_a	10.654558
_cell_length_b	10.654558
_cell_length_c	9.130313
_cell_angle_alpha	89.996417
_cell_angle_beta	89.997106
_cell_angle_gamma	84.488271
loop_
_atom_site_label
_atom_site_type_symbol
_atom_site_fract_x
_atom_site_fract_y
_atom_site_fract_z
O1	O	1.667838	0.176448	-0.121776
O2	O	1.302362	0.193243	-0.121783
O3	O	1.493498	0.002107	-0.121773
O4	O	1.476702	0.367584	-0.121786
O5	O	1.493485	0.002101	0.121826
O6	O	1.302349	0.193237	0.121816
O7	O	1.667825	0.176442	0.121823
Cu8	Cu	1.485086	0.184839	0.144062
Cu9	Cu	1.485101	0.184846	-0.144022
O10	O	1.476689	0.367578	0.121813
C11	C	1.255557	0.192005	0.000016
C12	C	1.116115	0.188309	0.000013
C13	C	0.919583	0.183116	-0.132773
C14	C	1.050606	0.186578	-0.132774
C15	C	1.050595	0.186565	0.132811
C16	C	0.919576	0.183094	0.132810
C17	C	0.854080	0.181398	-0.265569
C18	C	0.919590	0.183139	-0.398367
C19	C	1.050613	0.186601	-0.398368
C20	C	1.116125	0.188322	-0.265572
C21	C	1.492256	-0.044694	0.000025
C22	C	1.488560	-0.184137	0.000020
C23	C	1.486814	-0.249653	0.132804
C24	C	1.483352	-0.380676	0.132798
C25	C	1.483377	-0.380653	-0.132787
C26	C	1.486848	-0.249634	-0.132779
C27	C	1.488525	-0.184156	0.265604
C28	C	1.486778	-0.249672	0.398398
C29	C	1.483316	-0.380695	0.398392
C30	C	1.481602	-0.446201	0.265592
C31	C	1.714630	0.177680	0.000021
C32	C	1.854073	0.181376	0.000014
C33	C	1.477931	0.414379	0.000012
C34	C	1.481627	0.553821	0.000007
N35	N	1.485084	0.184834	0.346685
N36	N	1.485113	0.184841	-0.346644
C37	C	1.569748	0.100235	0.423341
C38	C	1.569760	0.100235	0.576678
C39	C	1.400440	0.269444	0.576689
C40	C	1.400423	0.269437	0.423355
H41	H	0.747394	0.178583	-0.265583
H42	H	1.331473	0.338328	0.360937
H43	H	1.638682	0.031344	0.360920
H44	H	0.866233	0.181701	0.240938
N45	N	1.492237	-0.042838	0.265609
H46	H	1.493051	-0.011284	0.369882
H47	H	1.570790	-0.020854	0.213417
H48	H	1.478793	-0.552890	0.265598
H49	H	1.481979	-0.433998	-0.240906
N50	N	1.488623	-0.179024	0.541623
H51	H	1.486995	-0.240414	0.625740
H52	H	1.567777	-0.134157	0.547416
N53	N	1.661093	0.009007	0.659359
H54	H	1.714725	-0.044580	0.587517
H55	H	1.717024	0.057633	0.722949
N56	N	1.481449	-0.451365	0.541609
H57	H	1.483062	-0.389988	0.625732
H58	H	1.402293	-0.496233	0.547387
H59	H	1.331513	0.338328	0.639128
N60	N	0.848943	0.181264	-0.541591
H61	H	0.756000	0.178807	-0.521445
H62	H	0.862351	0.259588	-0.599585
N63	N	1.121277	0.188457	-0.541590
H64	H	1.059896	0.186839	-0.625709
H65	H	1.166146	0.267611	-0.547380
H66	H	1.222814	0.191133	-0.265584
N67	N	1.121240	0.188434	0.276037
H68	H	1.185103	0.112161	0.281963
H69	H	1.166018	0.267643	0.281863
H70	H	1.488270	-0.196289	-0.240903
