data_functionalizedCrystal
_audit_creation_method	'MofGen! by Chris Wilmer'
_symmetry_space_group_name_H-M	'P1'
_symmetry_Int_Tables_number	1
_symmetry_cell_setting	triclinic
loop_
_symmetry_equiv_pos_as_xyz
  x,y,z
_cell_length_a	19.188933
_cell_length_b	22.610064
_cell_length_c	19.188930
_cell_angle_alpha	90.001060
_cell_angle_beta	83.145175
_cell_angle_gamma	90.006787
loop_
_atom_site_label
_atom_site_type_symbol
_atom_site_fract_x
_atom_site_fract_y
_atom_site_fract_z
O1	O	0.926149	0.049171	0.087165
O2	O	1.426149	0.549171	0.587165
O3	O	0.722838	0.049178	0.098897
O4	O	1.222838	0.549178	0.598897
O5	O	0.830360	0.049163	-0.008625
O6	O	1.330360	0.549163	0.491375
O7	O	0.818626	0.049186	0.194687
O8	O	1.318626	0.549186	0.694687
O9	O	0.830341	-0.049206	-0.008609
O10	O	1.330341	0.450794	0.491391
O11	O	0.722819	-0.049191	0.098913
O12	O	1.222819	0.450809	0.598913
O13	O	0.926130	-0.049198	0.087180
O14	O	1.426130	0.450802	0.587180
Zn15	Zn	0.824471	-0.064813	0.093049
Zn16	Zn	1.324471	0.435187	0.593049
Zn17	Zn	0.824496	0.064793	0.093028
Zn18	Zn	1.324496	0.564793	0.593028
O19	O	0.818607	-0.049183	0.194702
O20	O	1.318607	0.450817	0.694702
C21	C	0.696817	-0.000006	0.098525
C22	C	1.196817	0.499994	0.598525
C23	C	0.619313	-0.000004	0.097384
C24	C	1.119313	0.499996	0.597384
C25	C	0.066068	0.053610	0.089230
C26	C	0.566068	0.553610	0.589230
C27	C	0.138892	0.053612	0.090298
C28	C	0.638892	0.553612	0.590298
C29	C	0.175299	-0.000009	0.090844
C30	C	0.675299	0.499991	0.590844
C31	C	0.138877	-0.053636	0.090304
C32	C	0.638877	0.446364	0.590304
C33	C	0.066055	-0.053637	0.089229
C34	C	0.566055	0.446363	0.589229
N35	N	0.284311	-0.039916	0.132269
N36	N	0.784311	0.460084	0.632269
N37	N	0.353488	-0.039912	0.133292
N38	N	0.853488	0.460088	0.633292
C39	C	0.394707	-0.000009	0.094082
C40	C	0.894707	0.499991	0.594082
N41	N	0.364134	0.039898	0.053819
N42	N	0.864134	0.539898	0.553819
N43	N	0.294950	0.039895	0.052800
N44	N	0.794950	0.539895	0.552800
C45	C	0.254262	-0.000014	0.092009
C46	C	0.754262	0.499986	0.592009
C47	C	0.510085	0.053617	0.095775
C48	C	1.010085	0.553617	0.595775
C49	C	0.582911	0.053617	0.096839
C50	C	1.082911	0.553617	0.596839
C51	C	0.582894	-0.053632	0.096852
C52	C	1.082894	0.446368	0.596852
C53	C	0.510070	-0.053631	0.095781
C54	C	1.010070	0.446369	0.595781
C55	C	0.473669	-0.000005	0.095246
C56	C	0.973669	0.499995	0.595246
N57	N	0.824459	-0.153265	0.093063
N58	N	1.324459	0.346735	0.593063
C59	C	0.872109	-0.561913	0.045425
C60	C	1.372109	-0.061913	0.545425
C61	C	0.872113	-0.623833	0.045420
C62	C	1.372113	-0.123833	0.545420
O63	O	0.912597	-0.655858	0.004927
O64	O	1.412597	-0.155858	0.504927
N65	N	0.824496	-0.654802	0.093014
N66	N	1.324496	-0.154802	0.593014
C67	C	0.776867	-0.623848	0.140612
C68	C	1.276867	-0.123848	0.640612
O69	O	0.736365	-0.655876	0.181093
O70	O	1.236365	-0.155876	0.681093
C71	C	0.776861	-0.561930	0.140613
C72	C	1.276861	-0.061930	0.640613
C73	C	0.824486	-0.530964	0.093020
C74	C	1.324486	-0.030964	0.593020
C75	C	0.919730	-0.530947	-0.002164
C76	C	1.419730	-0.030947	0.497836
C77	C	0.919727	-0.469031	-0.002158
C78	C	1.419727	0.030969	0.497842
C79	C	0.872104	-0.438082	0.045437
C80	C	1.372104	0.061918	0.545437
C81	C	0.824483	-0.469048	0.093026
C82	C	1.324483	0.030952	0.593026
C83	C	0.729229	-0.530977	0.188206
C84	C	1.229229	-0.030977	0.688206
C85	C	0.729227	-0.469054	0.188203
C86	C	1.229227	0.030946	0.688203
C87	C	0.776852	-0.438088	0.140611
C88	C	1.276852	0.061912	0.640611
C89	C	0.776856	-0.376183	0.140628
C90	C	1.276856	0.123817	0.640628
N91	N	0.824474	-0.345214	0.093034
N92	N	1.324474	0.154786	0.593034
C93	C	0.872097	-0.376163	0.045438
C94	C	1.372097	0.123837	0.545438
C95	C	0.776883	-0.753882	0.140605
C96	C	1.276883	-0.253882	0.640605
C97	C	0.776892	-0.815800	0.140607
C98	C	1.276892	-0.315800	0.640607
C99	C	0.872138	-0.815780	0.045415
C100	C	1.372138	-0.315780	0.545415
C101	C	0.872131	-0.753861	0.045416
C102	C	1.372131	-0.253861	0.545416
C103	C	0.824500	-0.722913	0.093011
C104	C	1.324500	-0.222913	0.593011
C105	C	0.872088	-0.246136	0.045455
C106	C	1.372088	0.253864	0.545455
C107	C	0.872083	-0.184215	0.045468
C108	C	1.372083	0.315785	0.545468
C109	C	0.776835	-0.184240	0.140657
C110	C	1.276835	0.315760	0.640657
C111	C	0.776843	-0.246155	0.140648
C112	C	1.276843	0.253845	0.640648
C113	C	0.824472	-0.277102	0.093041
C114	C	1.324472	0.222898	0.593041
O115	O	0.736391	-0.344119	0.181098
O116	O	1.236391	0.155881	0.681098
O117	O	0.912587	-0.344128	0.004958
O118	O	1.412587	0.155872	0.504958
C119	C	0.952150	-0.000012	0.087553
C120	C	1.452150	0.499988	0.587553
C121	C	1.029655	-0.000011	0.088694
C122	C	1.529655	0.499989	0.588694
C123	C	0.829971	-0.000023	-0.034628
C124	C	1.329971	0.499977	0.465372
C125	C	0.828830	-0.000028	-0.112132
C126	C	1.328830	0.499972	0.387868
N127	N	0.824514	0.153245	0.093009
N128	N	1.324514	0.653245	0.593009
C129	C	0.891921	-0.000033	-0.157056
C130	C	1.391921	0.499967	0.342944
C131	C	0.890849	-0.000024	-0.229880
C132	C	1.390849	0.499976	0.270120
C133	C	0.826683	-0.000021	-0.257777
C134	C	1.326683	0.499979	0.242223
C135	C	0.763584	-0.000013	-0.212843
C136	C	1.263584	0.499987	0.287157
C137	C	0.764658	-0.000017	-0.140021
C138	C	1.264658	0.499983	0.359979
N139	N	0.777629	-0.033497	-0.365777
N140	N	1.277629	0.466503	0.134223
N141	N	0.776614	-0.033494	-0.434955
N142	N	1.276614	0.466506	0.065045
C143	C	0.823445	-0.000009	-0.477185
C144	C	1.323445	0.499991	0.022815
N145	N	0.871341	0.033466	-0.447625
N146	N	1.371341	0.533466	0.052375
N147	N	0.872358	0.033462	-0.378440
N148	N	1.372358	0.533462	0.121560
C149	C	0.825512	-0.000017	-0.336739
C150	C	1.325512	0.499983	0.163261
C151	C	0.885378	-0.000003	-0.601073
C152	C	1.385378	0.499997	-0.101073
C153	C	0.884304	0.000010	-0.673898
C154	C	1.384304	0.500010	-0.173898
C155	C	0.757037	0.000015	-0.656860
C156	C	1.257037	0.500015	-0.156860
C157	C	0.758113	0.000008	-0.584037
C158	C	1.258113	0.500008	-0.084037
C159	C	0.822286	-0.000004	-0.556148
C160	C	1.322286	0.499996	-0.056148
C161	C	0.818997	0.000005	0.220705
C162	C	1.318997	0.500005	0.720705
C163	C	0.820137	0.000014	0.298210
C164	C	1.320137	0.500014	0.798210
H165	H	0.480422	-0.097294	0.095347
H166	H	0.980422	0.402706	0.595347
Br167	Br	0.669953	0.000024	-0.694712
Br168	Br	1.169953	0.500024	-0.194712
Br169	Br	0.979012	-0.000033	-0.119210
Br170	Br	1.479012	0.499967	0.380790
H171	H	0.935682	0.000010	-0.710475
H172	H	1.435682	0.500010	-0.210475
H173	H	0.910914	-0.840990	0.006659
H174	H	1.410914	-0.340990	0.506659
Br175	Br	0.188321	0.126387	0.091026
Br176	Br	0.688321	0.626387	0.591026
H177	H	0.690438	-0.443859	0.226960
H178	H	1.190438	0.056141	0.726960
Br179	Br	0.188285	-0.126408	0.091039
Br180	Br	0.688285	0.373592	0.591039
Br181	Br	0.632332	0.126394	0.097556
Br182	Br	1.132332	0.626394	0.597556
Br183	Br	0.672485	0.000014	-0.523065
Br184	Br	1.172485	0.500014	-0.023065
H185	H	0.738098	-0.728687	0.179368
H186	H	1.238098	-0.228687	0.679368
Br187	Br	0.016670	0.126388	0.088500
Br188	Br	0.516670	0.626388	0.588500
H189	H	0.910911	-0.728652	0.006662
H190	H	1.410911	-0.228652	0.506662
Br191	Br	0.016634	-0.126413	0.088502
Br192	Br	0.516634	0.373587	0.588502
H193	H	0.480446	0.097283	0.095338
H194	H	0.980446	0.597283	0.595338
H195	H	0.910867	-0.159004	0.006712
H196	H	1.410867	0.340996	0.506712
H197	H	0.612536	-0.097291	0.097294
H198	H	1.112536	0.402709	0.597294
H199	H	0.910871	-0.271326	0.006689
H200	H	1.410871	0.228674	0.506689
Br201	Br	0.984360	-0.427013	-0.066753
Br202	Br	1.484360	0.072987	0.433247
Br203	Br	0.712216	-0.288179	0.205249
Br204	Br	1.212216	0.211821	0.705249
H205	H	0.738063	-0.159031	0.179411
H206	H	1.238063	0.340969	0.679411
H207	H	0.958511	-0.556141	-0.040925
H208	H	1.458511	-0.056141	0.459075
Br209	Br	0.712267	-0.857818	0.205211
Br210	Br	1.212267	-0.357818	0.705211
Br211	Br	0.976478	-0.000028	-0.290859
Br212	Br	1.476478	0.499972	0.209141
Br213	Br	0.664592	-0.572990	0.252799
Br214	Br	1.164592	-0.072990	0.752799
Br215	Br	0.676501	-0.000002	-0.250701
Br216	Br	1.176501	0.499998	0.249299
H217	H	0.713280	-0.000013	-0.103444
H218	H	1.213280	0.499987	0.396556
Br219	Br	0.972467	-0.000025	-0.563220
Br220	Br	1.472467	0.499975	-0.063220
