data_functionalizedCrystal
_audit_creation_method	'MofGen! by Chris Wilmer'
_symmetry_space_group_name_H-M	'P1'
_symmetry_Int_Tables_number	1
_symmetry_cell_setting	triclinic
loop_
_symmetry_equiv_pos_as_xyz
  x,y,z
_cell_length_a	12.827893
_cell_length_b	12.827891
_cell_length_c	12.827885
_cell_angle_alpha	89.971966
_cell_angle_beta	90.016318
_cell_angle_gamma	89.968216
loop_
_atom_site_label
_atom_site_type_symbol
_atom_site_fract_x
_atom_site_fract_y
_atom_site_fract_z
Zn1	Zn	1.597571	0.415905	0.590779
Zn2	Zn	2.097571	0.915905	1.090779
Zn3	Zn	1.597423	0.590682	0.416045
Zn4	Zn	2.097423	1.090682	0.916045
Zn5	Zn	1.422812	0.415964	0.416062
Zn6	Zn	1.922812	0.915964	0.916062
Zn7	Zn	1.422756	0.590613	0.590754
Zn8	Zn	1.922756	1.090613	1.090754
O9	O	1.510141	0.503291	0.503410
O10	O	2.010141	1.003291	1.003410
O11	O	1.743787	0.439094	0.567604
O12	O	2.243787	0.939094	1.067604
O13	O	1.574223	0.567559	0.269811
O14	O	2.074223	1.067559	0.769811
O15	O	1.446079	0.269720	0.439256
O16	O	1.946079	0.769720	0.939256
O17	O	1.743679	0.567502	0.439227
O18	O	2.243679	1.067502	0.939227
O19	O	1.574474	0.269677	0.567620
O20	O	2.074474	0.769677	1.067620
O21	O	1.445937	0.439195	0.269823
O22	O	1.945937	0.939195	0.769823
O23	O	1.276569	0.439128	0.439231
O24	O	1.776569	0.939128	0.939231
O25	O	1.445984	0.567384	0.736993
O26	O	1.945984	1.067384	1.236993
O27	O	1.276527	0.567442	0.567577
O28	O	1.776527	1.067442	1.067577
O29	O	1.574419	0.439027	0.737012
O30	O	2.074419	0.939027	1.237012
O31	O	1.574168	0.736909	0.439202
O32	O	2.074168	1.236909	0.939202
O33	O	1.445841	0.736858	0.567560
O34	O	1.945841	1.236858	1.067560
C35	C	1.238631	0.503284	0.503404
C36	C	1.738631	1.003284	1.003404
C37	C	1.122478	0.503307	0.503426
C38	C	1.622478	1.003307	1.003426
C39	C	1.510011	0.774801	0.503400
C40	C	2.010011	1.274801	1.003400
C41	C	1.510051	0.890954	0.503430
C42	C	2.010051	1.390954	1.003430
C43	C	1.510212	0.503191	0.775980
C44	C	2.010212	1.003191	1.275980
C45	C	1.510242	0.503148	0.892133
C46	C	2.010242	1.003148	1.392133
C47	C	1.782711	0.503299	0.503416
C48	C	2.282711	1.003299	1.003416
C49	C	1.898864	0.503302	0.503419
C50	C	2.398864	1.003302	1.003419
C51	C	1.950702	0.439770	0.566939
C52	C	2.450702	0.939770	1.066939
C53	C	2.070752	0.439772	0.566943
C54	C	2.570752	0.939772	1.066943
C55	C	1.446637	1.062888	0.439913
C56	C	1.946637	1.562888	0.939913
C57	C	1.446594	0.942838	0.439880
C58	C	1.946594	1.442838	0.939880
C59	C	1.510240	1.230721	0.503451
C60	C	2.010240	1.730721	1.003451
C61	C	1.510130	1.114568	0.503491
C62	C	2.010130	1.614568	1.003491
C63	C	1.510130	0.503316	0.231900
C64	C	2.010130	1.003316	0.731900
C65	C	1.510302	0.503064	0.115747
C66	C	2.010302	1.003064	0.615747
C67	C	1.573803	0.439620	0.943927
C68	C	2.073803	0.939620	1.443927
C69	C	1.573836	0.439575	1.063978
C70	C	2.073836	0.939575	1.563978
H71	H	1.906206	0.385380	0.621321
H72	H	2.406206	0.885380	1.121321
H73	H	1.564453	1.069937	0.557902
H74	H	2.064453	1.569937	1.057902
H75	H	1.392238	0.898395	0.385445
H76	H	1.892238	1.398395	0.885445
Cl77	Cl	1.426254	0.587066	0.960882
Cl78	Cl	1.926254	1.087066	1.460882
Cl79	Cl	2.053663	0.587286	0.419452
Cl80	Cl	2.553663	1.087286	0.919452
Cl81	Cl	2.139574	0.355783	0.650902
Cl82	Cl	2.639574	0.855783	1.150902
H83	H	1.943360	0.557702	0.449047
H84	H	2.443360	1.057702	0.949047
H85	H	1.628192	0.385262	0.899393
H86	H	2.128192	0.885262	1.399393
Cl87	Cl	1.362744	1.131787	0.355920
Cl88	Cl	1.862744	1.631787	0.855920
H89	H	1.564416	0.935391	0.557860
H90	H	2.064416	1.435391	1.057860
Cl91	Cl	1.657862	0.355604	1.132740
Cl92	Cl	2.157862	0.855604	1.632740
H93	H	1.455886	0.557459	1.071212
H94	H	1.955886	1.057459	1.571212
