data_functionalizedCrystal
_audit_creation_method	'MofGen! by Chris Wilmer'
_symmetry_space_group_name_H-M	'P1'
_symmetry_Int_Tables_number	1
_symmetry_cell_setting	triclinic
loop_
_symmetry_equiv_pos_as_xyz
  x,y,z
_cell_length_a	25.639242
_cell_length_b	25.639239
_cell_length_c	25.639234
_cell_angle_alpha	90.024584
_cell_angle_beta	90.026995
_cell_angle_gamma	90.034213
loop_
_atom_site_label
_atom_site_type_symbol
_atom_site_fract_x
_atom_site_fract_y
_atom_site_fract_z
Zn1	Zn	0.799250	-0.208247	0.295742
Zn2	Zn	1.299250	0.291753	0.795742
Zn3	Zn	0.799166	-0.295674	0.208307
Zn4	Zn	1.299166	0.204326	0.708307
Zn5	Zn	0.711819	-0.208248	0.208306
Zn6	Zn	1.211819	0.291752	0.708306
Zn7	Zn	0.711771	-0.295646	0.295696
Zn8	Zn	1.211771	0.204354	0.795696
O9	O	0.755502	-0.251954	0.252013
O10	O	1.255502	0.248046	0.752013
O11	O	0.872404	-0.219855	0.284163
O12	O	1.372404	0.280145	0.784163
O13	O	0.787564	-0.284089	0.135141
O14	O	1.287564	0.215911	0.635141
O15	O	0.723472	-0.135083	0.219924
O16	O	1.223472	0.364917	0.719924
O17	O	0.872342	-0.284088	0.219924
O18	O	1.372342	0.215912	0.719924
O19	O	0.787707	-0.135082	0.284163
O20	O	1.287707	0.364918	0.784163
O21	O	0.723390	-0.219858	0.135141
O22	O	1.223390	0.280142	0.635141
O23	O	0.638647	-0.219830	0.219880
O24	O	1.138647	0.280170	0.719880
O25	O	0.723391	-0.284040	0.368868
O26	O	1.223391	0.215960	0.868868
O27	O	0.638613	-0.284041	0.284085
O28	O	1.138613	0.215959	0.784085
O29	O	0.787661	-0.219828	0.368901
O30	O	1.287661	0.280172	0.868901
O31	O	0.787518	-0.368836	0.219880
O32	O	1.287518	0.131164	0.719880
O33	O	0.723309	-0.368815	0.284085
O34	O	1.223309	0.131185	0.784085
C35	C	0.619659	-0.251933	0.251977
C36	C	1.119659	0.248067	0.751977
C37	C	0.561545	-0.251937	0.251975
C38	C	1.061545	0.248063	0.751975
C39	C	0.201173	-0.285444	0.285413
C40	C	0.701173	0.214556	0.785413
C41	C	0.146568	-0.285447	0.285421
C42	C	0.646568	0.214553	0.785421
O43	O	0.118324	-0.313911	0.313821
O44	O	0.618324	0.186089	0.813821
N45	N	0.119263	-0.251968	0.252047
N46	N	0.619263	0.248032	0.752047
C47	C	0.146564	-0.218480	0.218666
C48	C	0.646564	0.281520	0.718666
O49	O	0.118324	-0.190003	0.190280
O50	O	0.618324	0.309997	0.690280
C51	C	0.201167	-0.218474	0.218661
C52	C	0.701167	0.281526	0.718661
C53	C	0.228470	-0.251959	0.252034
C54	C	0.728470	0.248041	0.752034
C55	C	0.228476	-0.318926	0.318783
C56	C	0.728476	0.181074	0.818783
C57	C	0.283076	-0.318924	0.318774
C58	C	0.783076	0.181076	0.818774
C59	C	0.310374	-0.285439	0.285395
C60	C	0.810374	0.214561	0.785395
C61	C	0.283071	-0.251957	0.252024
C62	C	0.783071	0.248043	0.752024
C63	C	0.228468	-0.184983	0.185283
C64	C	0.728468	0.315017	0.685283
C65	C	0.283075	-0.184981	0.185281
C66	C	0.783075	0.315019	0.685281
C67	C	0.310378	-0.218466	0.218654
C68	C	0.810378	0.281534	0.718654
C69	C	0.364969	-0.218469	0.218636
C70	C	0.864969	0.281531	0.718636
N71	N	0.392275	-0.251949	0.252010
N72	N	0.892275	0.248051	0.752010
C73	C	0.364977	-0.285434	0.285389
C74	C	0.864977	0.214566	0.785389
C75	C	0.031893	-0.218493	0.218680
C76	C	0.531893	0.281507	0.718680
C77	C	-0.022709	-0.218501	0.218683
C78	C	0.477291	0.281499	0.718683
C79	C	-0.022701	-0.285468	0.285438
C80	C	0.477299	0.214532	0.785438
C81	C	0.031902	-0.285463	0.285433
C82	C	0.531902	0.214537	0.785433
C83	C	0.059199	-0.251972	0.252054
C84	C	0.559199	0.248028	0.752054
C85	C	0.479642	-0.285426	0.285368
C86	C	0.979642	0.214574	0.785368
C87	C	0.534247	-0.285422	0.285354
C88	C	1.034247	0.214578	0.785354
C89	C	0.534235	-0.218453	0.218601
C90	C	1.034235	0.281547	0.718601
C91	C	0.479634	-0.218458	0.218612
C92	C	0.979634	0.281542	0.718612
C93	C	0.452339	-0.251947	0.252000
C94	C	0.952339	0.248053	0.752000
O95	O	0.393248	-0.190019	0.190252
O96	O	0.893248	0.309981	0.690252
O97	O	0.393223	-0.313901	0.313776
O98	O	0.893223	0.186099	0.813776
C99	C	0.755414	-0.387796	0.251989
C100	C	1.255414	0.112204	0.751989
C101	C	0.755424	-0.445910	0.251996
C102	C	1.255424	0.054090	0.751996
C103	C	0.789022	-0.806272	0.218638
C104	C	1.289022	-0.306272	0.718638
C105	C	0.789042	-0.860876	0.218645
C106	C	1.289042	-0.360876	0.718645
O107	O	0.817518	-0.889111	0.190257
O108	O	1.317518	-0.389111	0.690257
N109	N	0.755593	-0.888193	0.252048
N110	N	1.255593	-0.388193	0.752048
C111	C	0.722126	-0.860902	0.285449
C112	C	1.222126	-0.360902	0.785449
O113	O	0.693677	-0.889152	0.313861
O114	O	1.193677	-0.389152	0.813861
C115	C	0.722109	-0.806299	0.285444
C116	C	1.222109	-0.306299	0.785444
C117	C	0.755556	-0.778985	0.252036
C118	C	1.255556	-0.278985	0.752036
C119	C	0.822467	-0.778958	0.185233
C120	C	1.322467	-0.278958	0.685233
C121	C	0.822446	-0.724357	0.185226
C122	C	1.322446	-0.224357	0.685226
C123	C	0.788980	-0.697071	0.218623
C124	C	1.288980	-0.197071	0.718623
C125	C	0.755535	-0.724385	0.252028
C126	C	1.255535	-0.224385	0.752028
C127	C	0.688644	-0.779010	0.318847
C128	C	1.188644	-0.279010	0.818847
C129	C	0.688630	-0.724403	0.318840
C130	C	1.188630	-0.224403	0.818840
C131	C	0.722077	-0.697089	0.285432
C132	C	1.222077	-0.197089	0.785432
C133	C	0.722048	-0.642498	0.285418
C134	C	1.222048	-0.142498	0.785418
N135	N	0.755497	-0.615181	0.252016
N136	N	1.255497	-0.115181	0.752016
C137	C	0.788963	-0.642467	0.218619
C138	C	1.288963	-0.142467	0.718619
C139	C	0.722165	-0.975573	0.285457
C140	C	1.222165	-0.475573	0.785457
C141	C	0.722179	-1.030175	0.285459
C142	C	1.222179	-0.530175	0.785459
C143	C	0.789097	-1.030145	0.218656
C144	C	1.289097	-0.530145	0.718656
C145	C	0.789080	-0.975542	0.218652
C146	C	1.289080	-0.475542	0.718652
C147	C	0.755614	-0.948256	0.252055
C148	C	1.255614	-0.448256	0.752055
C149	C	0.788916	-0.527802	0.218605
C150	C	1.288916	-0.027802	0.718605
C151	C	0.788890	-0.473197	0.218599
C152	C	1.288890	0.026803	0.718599
C153	C	0.721975	-0.473232	0.285403
C154	C	1.221975	0.026768	0.785403
C155	C	0.721998	-0.527832	0.285408
C156	C	1.221998	-0.027832	0.785408
C157	C	0.755473	-0.555116	0.252007
C158	C	1.255473	-0.055116	0.752007
O159	O	0.693588	-0.614228	0.313794
O160	O	1.193588	-0.114228	0.813794
O161	O	0.817412	-0.614212	0.190216
O162	O	1.317412	-0.114212	0.690216
C163	C	0.891875	-0.251975	0.252049
C164	C	1.391875	0.248025	0.752049
C165	C	0.949989	-0.251984	0.252064
C166	C	1.449989	0.248016	0.752064
C167	C	0.755530	-0.251931	0.388386
C168	C	1.255530	0.248069	0.888386
C169	C	0.755542	-0.251921	0.446500
C170	C	1.255542	0.248079	0.946500
C171	C	0.755604	-0.115581	0.252048
C172	C	1.255604	0.384419	0.752048
C173	C	0.755648	-0.057467	0.252064
C174	C	1.255648	0.442533	0.752064
C175	C	0.755503	-0.251939	0.116170
C176	C	1.255503	0.248061	0.616170
C177	C	0.755593	-0.251802	0.058057
C178	C	1.255593	0.248198	0.558057
C179	C	0.788971	-0.285323	0.697686
C180	C	1.288971	0.214677	1.197686
C181	C	0.788965	-0.285334	0.643082
C182	C	1.288965	0.214666	1.143082
O183	O	0.817364	-0.313792	0.614839
O184	O	1.317364	0.186208	1.114839
N185	N	0.755553	-0.251895	0.615774
N186	N	1.255553	0.248105	1.115774
C187	C	0.722141	-0.218447	0.643073
C188	C	1.222141	0.281553	1.143073
O189	O	0.693720	-0.190006	0.614832
O190	O	1.193720	0.309994	1.114832
C191	C	0.722144	-0.218439	0.697677
C192	C	1.222144	0.281561	1.197677
C193	C	0.755562	-0.251877	0.724982
C194	C	1.255562	0.248123	1.224982
C195	C	0.822386	-0.318758	0.724991
C196	C	1.322386	0.181242	1.224991
C197	C	0.822392	-0.318747	0.779592
C198	C	1.322392	0.181253	1.279592
C199	C	0.788983	-0.285300	0.806887
C200	C	1.288983	0.214700	1.306887
C201	C	0.755568	-0.251865	0.779582
C202	C	1.255568	0.248135	1.279582
C203	C	0.688729	-0.184994	0.724975
C204	C	1.188729	0.315006	1.224975
C205	C	0.688735	-0.184989	0.779582
C206	C	1.188735	0.315011	1.279582
C207	C	0.722153	-0.218427	0.806887
C208	C	1.222153	0.281573	1.306887
C209	C	0.722165	-0.218406	0.861478
C210	C	1.222165	0.281594	1.361478
N211	N	0.755578	-0.251845	0.888786
N212	N	1.255578	0.248155	1.388786
C213	C	0.788986	-0.285292	0.861491
C214	C	1.288986	0.214708	1.361491
C215	C	0.722136	-0.218467	0.528403
C216	C	1.222136	0.281533	1.028403
C217	C	0.722135	-0.218472	0.473800
C218	C	1.222135	0.281528	0.973800
C219	C	0.788959	-0.285360	0.473813
C220	C	1.288959	0.214640	0.973813
C221	C	0.788962	-0.285352	0.528416
C222	C	1.288962	0.214648	1.028416
C223	C	0.755548	-0.251906	0.555710
C224	C	1.255548	0.248094	1.055710
C225	C	0.788997	-0.285264	0.976156
C226	C	1.288997	0.214736	1.476156
C227	C	0.789002	-0.285248	1.030761
C228	C	1.289002	0.214752	1.530761
C229	C	0.722176	-0.218363	1.030744
C230	C	1.222176	0.281637	1.530744
C231	C	0.722173	-0.218377	0.976144
C232	C	1.222173	0.281623	1.476144
C233	C	0.755585	-0.251832	0.948851
C234	C	1.255585	0.248168	1.448851
O235	O	0.693780	-0.189965	0.889756
O236	O	1.193780	0.310035	1.389756
O237	O	0.817397	-0.313733	0.889739
O238	O	1.317397	0.186267	1.389739
H239	H	0.305301	-0.346190	0.345950
H240	H	0.805301	0.153810	0.845950
H241	H	0.816174	-0.312580	0.550644
H242	H	1.316174	0.187420	1.050644
H243	H	0.661516	-0.157767	0.702753
H244	H	1.161516	0.342233	1.202753
H245	H	-0.044936	-0.312732	0.312619
H246	H	0.455064	0.187268	0.812619
H247	H	-0.044935	-0.191239	0.191502
H248	H	0.455065	0.308761	0.691502
O249	O	0.656094	-0.697842	0.351216
O250	O	1.156094	-0.197842	0.851216
C251	C	0.585451	-0.636289	0.358175
C252	C	1.085451	-0.136289	0.858175
C253	C	0.622273	-0.666324	0.321452
C254	C	1.122273	-0.166324	0.821452
H255	H	0.558091	-0.610807	0.334124
H256	H	1.058091	-0.110807	0.834124
H257	H	0.609400	-0.610652	0.385528
H258	H	1.109400	-0.110652	0.885528
H259	H	0.561577	-0.665205	0.382061
H260	H	1.061577	-0.165205	0.882061
H261	H	0.646156	-0.637445	0.297531
H262	H	1.146156	-0.137445	0.797531
H263	H	0.598294	-0.691969	0.294133
H264	H	1.098294	-0.191969	0.794133
O265	O	0.689706	-0.185826	1.057184
O266	O	1.189706	0.314174	1.557184
C267	C	0.623392	-0.119516	1.051424
C268	C	1.123392	0.380484	1.551424
C269	C	0.660150	-0.156324	1.021415
C270	C	1.160150	0.343676	1.521415
H271	H	0.599479	-0.095661	1.022519
H272	H	1.099479	0.404339	1.522519
H273	H	0.647392	-0.092141	1.076992
H274	H	1.147392	0.407859	1.576992
H275	H	0.596065	-0.143527	1.076985
H276	H	1.096065	0.356473	1.576985
H277	H	0.687484	-0.132355	0.995827
H278	H	1.187484	0.367645	1.495827
H279	H	0.636118	-0.183700	0.995881
H280	H	1.136118	0.316300	1.495881
H281	H	0.694929	-0.191238	0.451573
H282	H	1.194929	0.308762	0.951573
O283	O	0.689423	-0.446801	0.317866
O284	O	1.189423	0.053199	0.817866
C285	C	0.623093	-0.452578	0.384168
C286	C	1.123093	0.047422	0.884168
C287	C	0.659916	-0.482577	0.347415
C288	C	1.159916	0.017423	0.847415
H289	H	0.599234	-0.481490	0.408075
H290	H	1.099234	0.018510	0.908075
H291	H	0.595723	-0.427063	0.360163
H292	H	1.095723	0.072937	0.860163
H293	H	0.647093	-0.426967	0.411500
H294	H	1.147093	0.073033	0.911500
H295	H	0.635958	-0.508217	0.320076
H296	H	1.135958	-0.008217	0.820076
H297	H	0.687287	-0.508060	0.371452
H298	H	1.187287	-0.008060	0.871452
O299	O	0.058326	-0.185948	0.186198
O300	O	0.558326	0.314052	0.686198
C301	C	0.052544	-0.119509	0.120005
C302	C	0.552544	0.380491	0.620005
C303	C	0.022548	-0.156348	0.156754
C304	C	0.522548	0.343652	0.656754
H305	H	0.023630	-0.095561	0.096197
H306	H	0.523630	0.404439	0.596197
H307	H	0.078064	-0.143449	0.092584
H308	H	0.578064	0.356551	0.592584
H309	H	0.078151	-0.092220	0.144058
H310	H	0.578151	0.407780	0.644058
H311	H	-0.003087	-0.183645	0.132743
H312	H	0.496913	0.316355	0.632743
H313	H	-0.002939	-0.132376	0.184177
H314	H	0.497061	0.367624	0.684177
O315	O	0.453189	-0.317930	0.317872
O316	O	0.953189	0.182070	0.817872
C317	C	0.436511	-0.343416	0.406767
C318	C	0.936511	0.156584	0.906767
C319	C	0.466511	-0.306580	0.370019
C320	C	0.966511	0.193420	0.870019
H321	H	0.447262	-0.334245	0.448936
H322	H	0.947262	0.165755	0.948936
H323	H	0.447231	-0.385569	0.397549
H324	H	0.947231	0.114431	0.897549
H325	H	0.392796	-0.337680	0.401019
H326	H	0.892796	0.162320	0.901019
H327	H	0.510233	-0.312270	0.375746
H328	H	1.010233	0.187730	0.875746
H329	H	0.455747	-0.264440	0.379246
H330	H	0.955747	0.235560	0.879246
O331	O	0.202035	-0.152403	0.152851
O332	O	0.702035	0.347597	0.652851
C333	C	0.207814	-0.085992	0.086628
C334	C	0.707814	0.414008	0.586628
C335	C	0.237812	-0.122858	0.123341
C336	C	0.737812	0.377142	0.623341
H337	H	0.236726	-0.062103	0.062751
H338	H	0.736726	0.437897	0.562751
H339	H	0.182295	-0.058652	0.110661
H340	H	0.682295	0.441348	0.610661
H341	H	0.182205	-0.109960	0.059265
H342	H	0.682205	0.390040	0.559265
H343	H	0.263449	-0.098932	0.150711
H344	H	0.763449	0.401068	0.650711
H345	H	0.263297	-0.150199	0.099274
H346	H	0.763297	0.349801	0.599274
H347	H	0.694968	-0.191142	0.953911
H348	H	1.194968	0.308858	1.453911
H349	H	0.694909	-0.953360	0.312656
H350	H	1.194909	-0.453360	0.812656
O351	O	0.854893	-0.351267	0.698562
O352	O	1.354893	0.148733	1.198562
C353	C	0.921157	-0.417623	0.704355
C354	C	1.421157	0.082377	1.204355
C355	C	0.884372	-0.380827	0.734346
C356	C	1.384372	0.119173	1.234346
H357	H	0.944993	-0.441540	0.733273
H358	H	1.444993	0.058460	1.233273
H359	H	0.948550	-0.393653	0.678826
H360	H	1.448550	0.106347	1.178826
H361	H	0.897130	-0.444945	0.678758
H362	H	1.397130	0.055055	1.178758
H363	H	0.908357	-0.353498	0.759971
H364	H	1.408357	0.146502	1.259971
H365	H	0.856977	-0.404830	0.759842
H366	H	1.356977	0.095170	1.259842
O367	O	0.309648	-0.152522	0.152829
O368	O	0.809648	0.347478	0.652829
C369	C	0.371229	-0.145386	0.082219
C370	C	0.871229	0.354614	0.582219
C371	C	0.341178	-0.182201	0.118946
C372	C	0.841178	0.317799	0.618946
H373	H	0.396720	-0.169367	0.054808
H374	H	0.896720	0.330633	0.554808
H375	H	0.396859	-0.118087	0.106240
H376	H	0.896859	0.381913	0.606240
H377	H	0.342323	-0.121445	0.058394
H378	H	0.842323	0.378555	0.558394
H379	H	0.370046	-0.206176	0.142779
H380	H	0.870046	0.293824	0.642779
H381	H	0.315541	-0.209465	0.094896
H382	H	0.815541	0.290535	0.594896
O383	O	0.821451	-0.317680	1.057365
O384	O	1.321451	0.182320	1.557365
C385	C	0.851065	-0.347326	1.141486
C386	C	1.351065	0.152674	1.641486
C387	C	0.814299	-0.310565	1.111425
C388	C	1.314299	0.189435	1.611425
H389	H	0.845288	-0.341594	1.185198
H390	H	1.345288	0.158406	1.685198
H391	H	0.893239	-0.338149	1.130802
H392	H	1.393239	0.161851	1.630802
H393	H	0.841859	-0.389481	1.130706
H394	H	1.341859	0.110519	1.630706
H395	H	0.823458	-0.268398	1.122188
H396	H	1.323458	0.231602	1.622188
H397	H	0.772136	-0.319787	1.122111
H398	H	1.272136	0.180213	1.622111
H399	H	0.694928	-0.191226	0.550623
H400	H	1.194928	0.308774	1.050623
H401	H	0.694764	-0.550073	0.312613
H402	H	1.194764	-0.050073	0.812613
O403	O	0.854913	-0.351154	0.806131
O404	O	1.354913	0.148846	1.306131
C405	C	0.925498	-0.358194	0.867809
C406	C	1.425498	0.141806	1.367809
C407	C	0.888705	-0.321432	0.837785
C408	C	1.388705	0.178568	1.337785
H409	H	0.952822	-0.334180	0.893416
H410	H	1.452822	0.165820	1.393416
H411	H	0.949409	-0.382085	0.838932
H412	H	1.449409	0.117915	1.338932
H413	H	0.901474	-0.385542	0.893335
H414	H	1.401474	0.114458	1.393335
H415	H	0.912690	-0.294053	0.812258
H416	H	1.412690	0.205947	1.312258
H417	H	0.864793	-0.297578	0.866690
H418	H	1.364793	0.202422	1.366690
O419	O	0.821621	-0.949092	0.186185
O420	O	1.321621	-0.449092	0.686185
C421	C	0.887969	-0.954840	0.119901
C422	C	1.387969	-0.454840	0.619901
C423	C	0.851150	-0.984855	0.156653
C424	C	1.351150	-0.484855	0.656653
H425	H	0.911845	-0.983742	0.096007
H426	H	1.411845	-0.483742	0.596007
H427	H	0.915324	-0.929254	0.143904
H428	H	1.415324	-0.429254	0.643904
H429	H	0.863966	-0.929297	0.092556
H430	H	1.363966	-0.429297	0.592556
H431	H	0.875110	-1.010426	0.184005
H432	H	1.375110	-0.510426	0.684005
H433	H	0.823793	-1.010408	0.132617
H434	H	1.323793	-0.510408	0.632617
H435	H	0.694938	-1.052410	0.312659
H436	H	1.194938	-0.552410	0.812659
O437	O	0.656260	-0.152449	0.806014
O438	O	1.156260	0.347551	1.306014
C439	C	0.589952	-0.086134	0.800235
C440	C	1.089952	0.413866	1.300235
C441	C	0.626711	-0.122951	0.770237
C442	C	1.126711	0.377049	1.270237
H443	H	0.566044	-0.062283	0.771322
H444	H	1.066044	0.437717	1.271322
H445	H	0.613952	-0.058756	0.825799
H446	H	1.113952	0.441244	1.325799
H447	H	0.562620	-0.110138	0.825797
H448	H	1.062620	0.389862	1.325797
H449	H	0.654050	-0.098989	0.744646
H450	H	1.154050	0.401011	1.244646
H451	H	0.602678	-0.150330	0.744705
H452	H	1.102678	0.349670	1.244705
O453	O	0.656138	-0.805453	0.351352
O454	O	1.156138	-0.305453	0.851352
C455	C	0.589751	-0.799697	0.417596
C456	C	1.089751	-0.299697	0.917596
C457	C	0.626548	-0.769686	0.380817
C458	C	1.126548	-0.269686	0.880817
H459	H	0.565810	-0.770792	0.441421
H460	H	1.065810	-0.270792	0.941421
H461	H	0.613723	-0.825207	0.445000
H462	H	1.113723	-0.325207	0.945000
H463	H	0.562452	-0.825314	0.393565
H464	H	1.062452	-0.325314	0.893565
H465	H	0.653854	-0.744040	0.404807
H466	H	1.153854	-0.244040	0.904807
H467	H	0.602543	-0.744209	0.353412
H468	H	1.102543	-0.244209	0.853412
O469	O	0.854966	-0.697769	0.152850
O470	O	1.354966	-0.197769	0.652850
C471	C	0.925569	-0.636092	0.145888
C472	C	1.425569	-0.136092	0.645888
C473	C	0.888761	-0.666156	0.182612
C474	C	1.388761	-0.166156	0.682612
H475	H	0.952908	-0.610533	0.169937
H476	H	1.452908	-0.110533	0.669937
H477	H	0.901606	-0.610529	0.118525
H478	H	1.401606	-0.110529	0.618525
H479	H	0.949466	-0.664989	0.122011
H480	H	1.449466	-0.164989	0.622011
H481	H	0.864856	-0.637296	0.206523
H482	H	1.364856	-0.137296	0.706523
H483	H	0.912754	-0.691727	0.209941
H484	H	1.412754	-0.191727	0.709941
H485	H	0.556475	-0.312691	0.312530
H486	H	1.056475	0.187309	0.812530
O487	O	0.058342	-0.318003	0.317903
O488	O	0.558342	0.181997	0.817903
C489	C	0.052572	-0.384448	0.384093
C490	C	0.552572	0.115552	0.884093
C491	C	0.022568	-0.347614	0.347353
C492	C	0.522568	0.152386	0.847353
H493	H	0.023662	-0.408405	0.407905
H494	H	0.523662	0.091595	0.907905
H495	H	0.078146	-0.360505	0.411511
H496	H	0.578146	0.139495	0.911511
H497	H	0.078124	-0.411730	0.360032
H498	H	0.578124	0.088270	0.860032
H499	H	-0.003013	-0.320324	0.371372
H500	H	0.496987	0.179676	0.871372
H501	H	-0.002973	-0.371589	0.319934
H502	H	0.497027	0.128411	0.819934
H503	H	0.457403	-0.191193	0.191436
H504	H	0.957403	0.308807	0.691436
O505	O	0.821628	-1.056737	0.186300
O506	O	1.321628	-0.556737	0.686300
C507	C	0.851369	-1.140850	0.156774
C508	C	1.351369	-0.640850	0.656774
C509	C	0.814490	-1.110798	0.193426
C510	C	1.314490	-0.610798	0.693426
H511	H	0.845602	-1.184564	0.162514
H512	H	1.345602	-0.684564	0.662514
H513	H	0.893513	-1.130084	0.166050
H514	H	1.393513	-0.630084	0.666050
H515	H	0.842267	-1.130145	0.114590
H516	H	1.342267	-0.630145	0.614590
H517	H	0.823545	-1.121487	0.235622
H518	H	1.323545	-0.621487	0.735622
H519	H	0.772357	-1.121567	0.184105
H520	H	1.272357	-0.621567	0.684105
H521	H	0.816175	-0.550010	0.191408
H522	H	1.316175	-0.050010	0.691408
H523	H	0.816208	-0.312504	0.953940
H524	H	1.316208	0.187496	1.453940
H525	H	0.556470	-0.191192	0.191422
H526	H	1.056470	0.308808	0.691422
O527	O	0.201906	-0.351483	0.351137
O528	O	0.701906	0.148517	0.851137
C529	C	0.140265	-0.422123	0.358048
C530	C	0.640265	0.077877	0.858048
C531	C	0.170308	-0.385270	0.321350
C532	C	0.670308	0.114730	0.821350
H533	H	0.114719	-0.449456	0.333980
H534	H	0.614719	0.050544	0.833980
H535	H	0.114692	-0.398195	0.385430
H536	H	0.614692	0.101805	0.885430
H537	H	0.169177	-0.446024	0.381906
H538	H	0.669177	0.053976	0.881906
H539	H	0.141433	-0.361361	0.297459
H540	H	0.641433	0.138639	0.797459
H541	H	0.195888	-0.409228	0.294003
H542	H	0.695888	0.090772	0.794003
O543	O	0.821361	-0.317838	0.447211
O544	O	1.321361	0.182162	0.947211
C545	C	0.850979	-0.347471	0.363090
C546	C	1.350979	0.152529	0.863090
C547	C	0.814253	-0.310675	0.393152
C548	C	1.314253	0.189325	0.893152
H549	H	0.845253	-0.341684	0.319378
H550	H	1.345253	0.158316	0.819378
H551	H	0.841764	-0.389638	0.373771
H552	H	1.341764	0.110362	0.873771
H553	H	0.893143	-0.338304	0.373872
H554	H	1.393143	0.161696	0.873872
H555	H	0.772077	-0.319794	0.382387
H556	H	1.272077	0.180206	0.882387
H557	H	0.823513	-0.268518	0.382469
H558	H	1.323513	0.231482	0.882469
H559	H	0.816127	-0.450959	0.191392
H560	H	1.316127	0.049041	0.691392
H561	H	0.849722	-0.801168	0.158037
H562	H	1.349722	-0.301168	0.658037
