data_functionalizedCrystal
_audit_creation_method	'MofGen! by Chris Wilmer'
_symmetry_space_group_name_H-M	'P1'
_symmetry_Int_Tables_number	1
_symmetry_cell_setting	triclinic
loop_
_symmetry_equiv_pos_as_xyz
  x,y,z
_cell_length_a	11.026607
_cell_length_b	15.995350
_cell_length_c	10.065918
_cell_angle_alpha	99.814207
_cell_angle_beta	97.708363
_cell_angle_gamma	96.039196
loop_
_atom_site_label
_atom_site_type_symbol
_atom_site_fract_x
_atom_site_fract_y
_atom_site_fract_z
O1	O	1.626085	0.363946	0.113481
O2	O	1.272780	0.324021	0.113484
O3	O	1.459090	0.223551	0.113481
O4	O	1.439775	0.464415	0.113484
O5	O	1.427226	0.196893	-0.113507
O6	O	1.240916	0.297362	-0.113504
O7	O	1.594222	0.337287	-0.113508
Zn8	Zn	1.412510	0.313092	-0.149545
Zn9	Zn	1.454492	0.348216	0.149522
O10	O	1.407911	0.437757	-0.113505
C11	C	1.211637	0.303326	-0.000010
C12	C	1.076923	0.281370	-0.000008
C13	C	1.003118	0.341996	-0.000007
C14	C	0.863884	0.319304	-0.000005
C15	C	1.442360	0.178907	-0.000011
C16	C	1.439967	0.085597	-0.000003
C17	C	1.431369	-0.253447	-0.000007
C18	C	1.298753	-0.225953	0.000503
C19	C	1.301076	-0.128962	-0.000009
C20	C	1.435634	-0.085244	-0.000004
C21	C	1.482884	-0.131680	-0.129624
C22	C	1.479536	-0.228831	-0.129732
C23	C	1.518512	-0.198460	0.128396
C24	C	1.518721	-0.101318	0.130109
C25	C	1.438051	0.009818	-0.000007
C26	C	1.428955	-0.348510	-0.000014
C27	C	1.655365	0.357982	-0.000011
C28	C	1.790080	0.379940	-0.000003
C29	C	1.424642	0.482401	-0.000010
C30	C	1.427036	0.575713	-0.000009
N31	N	1.383867	0.289122	-0.353650
C32	C	1.444518	0.339875	-0.421430
C33	C	1.422484	0.321420	-0.578597
N34	N	1.483144	0.372181	0.353627
H35	H	0.824003	0.250600	0.000029
H36	H	1.488922	-0.214000	0.226640
C37	C	1.396682	-0.278653	-0.260615
H38	H	1.393912	-0.338348	-0.261838
H39	H	1.315658	-0.263259	-0.262629
H40	H	1.429376	-0.265095	-0.338131
C41	C	0.843950	0.472760	0.000005
H42	H	0.930465	0.475839	0.000015
H43	H	0.806206	0.490561	-0.079145
H44	H	0.828430	0.509144	0.079176
H45	H	1.315632	0.232006	-0.411977
H46	H	1.037037	0.212670	0.000026
H47	H	1.043008	0.410699	-0.000014
H48	H	1.232979	-0.264361	-0.091931
H49	H	1.262675	-0.097381	0.092908
H50	H	1.551390	0.429297	-0.588054
C51	C	1.330292	0.244261	-0.657373
H52	H	1.327570	0.241983	-0.752672
H53	H	1.355867	0.193045	-0.634020
H54	H	1.250551	0.250164	-0.634040
H55	H	1.617945	-0.070247	0.137938
H56	H	1.512761	0.396986	-0.363104
H57	H	1.236220	-0.119834	-0.093083
C58	C	1.244721	-0.247049	0.126059
H59	H	1.302548	-0.272819	0.179293
H60	H	1.227809	-0.195883	0.179438
H61	H	1.170472	-0.285484	0.096899
C62	C	1.610011	-0.253500	-0.137700
H63	H	1.664824	-0.204159	-0.140867
H64	H	1.637723	-0.276316	-0.059541
H65	H	1.607978	-0.295236	-0.217636
C66	C	1.615510	-0.093232	-0.136147
H67	H	1.643308	-0.048409	-0.059698
H68	H	1.668297	-0.136447	-0.134946
H69	H	1.616739	-0.071104	-0.217820
C70	C	1.403190	-0.117910	-0.259942
H71	H	1.432512	-0.146254	-0.337838
H72	H	1.319804	-0.140562	-0.261108
H73	H	1.408102	-0.058414	-0.261284
C74	C	1.472362	-0.058952	0.259654
H75	H	1.402668	-0.031575	0.234565
H76	H	1.449700	-0.101367	0.310550
H77	H	1.536120	-0.017756	0.313756
C78	C	1.650833	-0.221312	0.129591
H79	H	1.653017	-0.264147	0.052265
H80	H	1.705258	-0.171720	0.126750
H81	H	1.675842	-0.242189	0.210489
