data_functionalizedCrystal
_audit_creation_method	'MofGen! by Chris Wilmer'
_symmetry_space_group_name_H-M	'P1'
_symmetry_Int_Tables_number	1
_symmetry_cell_setting	triclinic
loop_
_symmetry_equiv_pos_as_xyz
  x,y,z
_cell_length_a	12.645330
_cell_length_b	14.908783
_cell_length_c	14.908308
_cell_angle_alpha	89.788727
_cell_angle_beta	93.270481
_cell_angle_gamma	93.308814
loop_
_atom_site_label
_atom_site_type_symbol
_atom_site_fract_x
_atom_site_fract_y
_atom_site_fract_z
Zn1	Zn	-0.370782	1.345328	-0.587852
Zn2	Zn	-0.537296	1.353915	-0.437502
Zn3	Zn	-0.369635	1.203642	-0.428823
Zn4	Zn	-0.557596	1.194941	-0.579125
O5	O	-0.458827	1.274457	-0.508326
O6	O	-0.384855	1.472295	-0.575192
O7	O	-0.506080	1.341216	-0.310527
O8	O	-0.221438	1.222484	-0.449939
O9	O	-0.507193	1.478604	-0.464731
O10	O	-0.222281	1.326581	-0.566777
O11	O	-0.382900	1.230810	-0.304151
O12	O	-0.402584	1.076660	-0.441477
O13	O	-0.541790	1.207656	-0.706106
O14	O	-0.540678	1.070268	-0.551903
O15	O	-0.404539	1.318145	-0.712518
O16	O	-0.688338	1.332779	-0.456269
O17	O	-0.703252	1.215982	-0.560318
C18	C	-0.473710	1.040838	-0.494802
C19	C	-0.480104	0.940894	-0.489037
C20	C	-0.364927	0.746507	-0.593405
C21	C	-0.370931	0.652601	-0.587991
C22	C	-0.498110	0.659173	-0.472794
C23	C	-0.492105	0.753079	-0.478207
C24	C	-0.425513	0.796743	-0.538515
C25	C	-0.419515	0.890651	-0.543932
C26	C	-0.546688	0.897222	-0.428731
C27	C	-0.552692	0.803315	-0.423318
C28	C	-0.734260	1.274392	-0.508309
C29	C	-0.852089	1.274444	-0.508337
C30	C	-1.029076	1.201241	-0.574026
C31	C	-0.906523	1.200900	-0.573781
C32	C	-0.891525	1.254266	-0.412097
C33	C	-1.014181	1.253819	-0.412496
C34	C	-1.014844	1.368294	-0.538145
C35	C	-0.892422	1.367591	-0.540183
C36	C	-0.182319	1.274545	-0.508363
C37	C	-0.064487	1.274583	-0.508379
C38	C	-0.475557	1.260972	-0.742849
C39	C	-0.482686	1.255226	-0.842789
C40	C	-0.443888	1.508987	-0.521903
C41	C	-0.437521	1.608930	-0.527689
C42	C	-0.353138	1.359477	-1.037265
C43	C	-0.359833	1.354080	-1.131168
C44	C	-0.502764	1.239032	-1.124499
C45	C	-0.496069	1.244429	-1.030596
C46	C	-0.421255	1.304654	-0.986983
C47	C	-0.414566	1.310054	-0.893079
C48	C	-0.557492	1.195002	-0.886411
C49	C	-0.564186	1.189606	-0.980314
C50	C	-0.442083	1.287941	-0.274717
C51	C	-0.434644	1.293861	-0.174788
H52	H	-0.365293	0.926201	-0.593039
H53	H	-0.321592	0.611702	-0.632686
H54	H	-0.625096	1.140571	-1.015836
C55	C	-0.230201	1.355552	-0.866721
C56	C	-0.332327	1.376247	-0.845136
H57	H	-0.179428	1.396414	-0.837120
H58	H	-0.224448	1.360186	-0.929835
H59	H	-0.217461	1.296024	-0.847831
H60	H	-0.345070	1.435774	-0.864031
H61	H	-0.338083	1.371622	-0.782008
H62	H	-1.045834	1.185478	-0.387919
C63	C	-0.737737	1.152804	-0.854952
C64	C	-0.632370	1.134730	-0.831141
H65	H	-0.783961	1.115599	-0.820827
H66	H	-0.752418	1.140971	-0.917112
H67	H	-0.748292	1.214100	-0.843050
H68	H	-0.621813	1.073435	-0.843049
H69	H	-0.617684	1.146556	-0.768967
H70	H	-0.310709	0.782059	-0.642514
C71	C	-0.595058	0.783112	-0.269324
C72	C	-0.625890	0.755315	-0.357031
H73	H	-0.640248	0.753475	-0.228404
H74	H	-0.600159	0.846221	-0.264700
H75	H	-0.523859	0.768477	-0.255383
H76	H	-0.697087	0.769957	-0.370975
H77	H	-0.620800	0.692192	-0.361659
H78	H	-0.292226	1.408519	-1.001755
H79	H	-0.304362	1.398720	-1.172104
C80	C	-0.960543	1.227151	-0.728203
C81	C	-0.871228	1.217066	-0.669886
H82	H	-0.938756	1.237119	-0.787538
H83	H	-0.997455	1.276962	-0.709647
H84	H	-1.005983	1.174201	-0.726984
H85	H	-0.825792	1.270019	-0.671100
H86	H	-0.834300	1.167250	-0.688448
H87	H	-0.552313	0.623606	-0.423684
C88	C	-0.643369	1.125847	-1.108486
C89	C	-0.584990	1.172833	-1.172448
H90	H	-0.694127	1.084974	-1.138090
H91	H	-0.678815	1.167115	-1.074129
H92	H	-0.596755	1.093573	-1.069869
H93	H	-0.631604	1.205112	-1.211061
H94	H	-0.549542	1.131558	-1.206820
H95	H	-0.854931	1.424673	-0.496288
H96	H	-1.036909	1.305216	-0.361621
C97	C	-0.593964	1.044091	-0.385877
C98	C	-0.613291	0.952444	-0.368391
H99	H	-0.635081	1.078180	-0.348626
H100	H	-0.612908	1.056012	-0.447150
H101	H	-0.520796	1.060235	-0.373700
H102	H	-0.686458	0.936298	-0.380576
H103	H	-0.594355	0.940518	-0.307104
H104	H	-1.062528	1.213072	-0.645437
H105	H	-1.049065	1.387771	-0.607419
C106	C	-1.186211	1.107539	-0.551496
C107	C	-1.075282	1.107883	-0.547129
H108	H	-1.214734	1.049906	-0.534883
H109	H	-1.211158	1.121007	-0.611051
H110	H	-1.207968	1.151463	-0.511504
H111	H	-1.053524	1.063963	-0.587126
H112	H	-1.050325	1.094404	-0.487565
H113	H	-0.880634	1.131317	-0.553628
H114	H	-0.863803	1.186671	-0.387190
C115	C	-0.924017	1.368916	-0.306062
C116	C	-0.842814	1.324445	-0.343955
H117	H	-0.893948	1.412256	-0.264007
H118	H	-0.968937	1.326583	-0.276372
H119	H	-0.964227	1.398084	-0.352110
H120	H	-0.802609	1.295272	-0.297908
H121	H	-0.797876	1.366786	-0.373646
C122	C	-0.948260	1.397864	-0.693394
C123	C	-0.858179	1.388234	-0.635848
H124	H	-0.927122	1.410588	-0.752459
H125	H	-0.986966	1.445789	-0.672931
H126	H	-0.991776	1.343737	-0.693829
H127	H	-0.814667	1.442363	-0.635408
H128	H	-0.819455	1.340305	-0.656316
H129	H	-1.036899	1.422868	-0.490398
