data_functionalizedCrystal
_audit_creation_method	'MofGen! by Chris Wilmer'
_symmetry_space_group_name_H-M	'P1'
_symmetry_Int_Tables_number	1
_symmetry_cell_setting	triclinic
loop_
_symmetry_equiv_pos_as_xyz
  x,y,z
_cell_length_a	11.792254
_cell_length_b	19.288840
_cell_length_c	10.268362
_cell_angle_alpha	90.011822
_cell_angle_beta	90.003096
_cell_angle_gamma	96.337693
loop_
_atom_site_label
_atom_site_type_symbol
_atom_site_fract_x
_atom_site_fract_y
_atom_site_fract_z
O1	O	-0.141439	0.922167	0.108505
O2	O	-0.160567	0.720013	0.108459
O3	O	0.014242	0.825991	0.108489
O4	O	-0.316248	0.816189	0.108475
O5	O	0.014236	0.825981	-0.108111
O6	O	-0.160573	0.720003	-0.108142
O7	O	-0.141445	0.922157	-0.108095
Cu8	Cu	-0.151009	0.821079	-0.127896
Cu9	Cu	-0.151002	0.821091	0.128259
O10	O	-0.316254	0.816179	-0.108126
C11	C	-0.159960	0.694128	0.000153
C12	C	-0.158126	0.617013	0.000135
C13	C	-0.157242	0.580810	0.118208
C14	C	-0.155507	0.508353	0.118224
C15	C	-0.154633	0.472104	0.000161
C16	C	-0.155523	0.508315	-0.117927
C17	C	-0.157270	0.580770	-0.117940
C18	C	-0.085391	0.362377	-0.090271
C19	C	-0.083637	0.289924	-0.090254
C20	C	-0.149250	0.248630	0.000195
C21	C	-0.216602	0.279798	0.090648
C22	C	-0.218349	0.352252	0.090635
C23	C	-0.152739	0.393539	0.000161
C24	C	-0.146486	0.133861	0.118293
C25	C	-0.144758	0.061402	0.118304
C26	C	-0.144763	0.061366	-0.117851
C27	C	-0.146503	0.133822	-0.117858
C28	C	-0.147359	0.170066	0.000217
C29	C	-0.358532	0.816802	0.000173
C30	C	-0.484516	0.818650	0.000169
C31	C	-0.586830	0.820151	0.000177
C32	C	-0.715188	0.822029	0.000193
C33	C	0.056520	0.825369	0.000193
C34	C	0.182505	0.823521	0.000205
C35	C	-0.142052	0.948042	0.000214
C36	C	-0.143886	1.025157	0.000240
N37	N	-0.151014	0.821076	-0.308062
C38	C	-0.151014	0.821081	-0.425904
C39	C	-0.151004	0.821090	-0.573742
N40	N	-0.150989	0.821100	0.308425
H41	H	-0.273192	0.377626	0.164282
N42	N	-0.158161	0.619901	0.245554
H43	H	-0.157336	0.585968	0.320356
H44	H	-0.229226	0.644593	0.250700
H45	H	-0.144058	0.031852	-0.213980
N46	N	-0.154534	0.469291	0.245573
H47	H	-0.224145	0.433856	0.250847
H48	H	-0.155298	0.503290	0.320299
H49	H	-0.147215	0.163300	-0.214006
H50	H	-0.270035	0.246177	0.164295
H51	H	-0.031958	0.395994	-0.163931
H52	H	-0.154814	0.478796	-0.214055
H53	H	-0.147195	0.163370	0.214437
N54	N	-0.143807	0.022350	0.245660
H55	H	-0.144611	0.056308	0.320452
H56	H	-0.072741	-0.002340	0.250799
N57	N	-0.010992	0.256310	-0.187801
H58	H	0.030298	0.293461	-0.245112
H59	H	-0.061263	0.222343	-0.243343
N60	N	-0.158228	0.619822	-0.245294
H61	H	-0.157417	0.585866	-0.320088
H62	H	-0.088610	0.655254	-0.250443
