data_functionalizedCrystal
_audit_creation_method	'MofGen! by Chris Wilmer'
_symmetry_space_group_name_H-M	'P1'
_symmetry_Int_Tables_number	1
_symmetry_cell_setting	triclinic
loop_
_symmetry_equiv_pos_as_xyz
  x,y,z
_cell_length_a	14.908782
_cell_length_b	14.908520
_cell_length_c	12.759393
_cell_angle_alpha	86.736394
_cell_angle_beta	86.720934
_cell_angle_gamma	89.837842
loop_
_atom_site_label
_atom_site_type_symbol
_atom_site_fract_x
_atom_site_fract_y
_atom_site_fract_z
Zn1	Zn	1.353929	-0.437191	0.532248
Zn2	Zn	1.853929	0.062809	1.032248
Zn3	Zn	1.345139	-0.587568	0.367252
Zn4	Zn	1.845139	-0.087568	0.867252
Zn5	Zn	1.203563	-0.428564	0.366123
Zn6	Zn	1.703563	0.071436	0.866123
Zn7	Zn	1.194865	-0.578835	0.552416
Zn8	Zn	1.694865	-0.078835	1.052416
O9	O	1.274374	-0.508039	0.454509
O10	O	1.774374	-0.008039	0.954509
O11	O	1.478582	-0.464404	0.502393
O12	O	1.978582	0.035596	1.002393
O13	O	1.326320	-0.566520	0.220086
O14	O	1.826320	-0.066520	0.720086
O15	O	1.230828	-0.303886	0.379247
O16	O	1.730828	0.196114	0.879247
O17	O	1.472124	-0.574885	0.381171
O18	O	1.972124	-0.074885	0.881171
O19	O	1.341302	-0.310224	0.501298
O20	O	1.841302	0.189776	1.001298
O21	O	1.222305	-0.449700	0.219257
O22	O	1.722305	0.050300	0.719257
O23	O	1.076590	-0.441232	0.398803
O24	O	1.576590	0.058768	0.898803
O25	O	1.216004	-0.560001	0.696756
O26	O	1.716004	-0.060001	1.196756
O27	O	1.070200	-0.551636	0.535671
O28	O	1.570200	-0.051636	1.035671
O29	O	1.332868	-0.455936	0.681938
O30	O	1.832868	0.044064	1.181938
O31	O	1.317886	-0.712231	0.400727
O32	O	1.817886	-0.212231	0.900727
O33	O	1.207480	-0.705815	0.536766
O34	O	1.707480	-0.205815	1.036766
C35	C	1.040772	-0.494551	0.469304
C36	C	1.540772	0.005449	0.969304
C37	C	0.940834	-0.488802	0.475659
C38	C	1.440834	0.011198	0.975659
C39	C	0.746324	-0.592886	0.361158
C40	C	1.246324	-0.092886	0.861158
C41	C	0.652424	-0.587488	0.367126
C42	C	1.152424	-0.087488	0.867126
C43	C	0.659132	-0.472612	0.493570
C44	C	1.159132	0.027388	0.993570
C45	C	0.753032	-0.478010	0.487601
C46	C	1.253032	0.021990	0.987601
C47	C	0.796625	-0.538148	0.421392
C48	C	1.296625	-0.038148	0.921392
C49	C	0.890527	-0.543542	0.415418
C50	C	1.390527	-0.043542	0.915418
C51	C	0.897233	-0.428671	0.541867
C52	C	1.397233	0.071329	1.041867
C53	C	0.803333	-0.423273	0.547836
C54	C	1.303333	0.076727	1.047836
C55	C	1.260810	-0.741649	0.471079
C56	C	1.760810	-0.241649	0.971079
C57	C	1.255089	-0.841593	0.478197
C58	C	1.755089	-0.341593	0.978197
C59	C	1.359423	-1.036025	0.350017
C60	C	1.859423	-0.536025	0.850017
C61	C	1.354050	-1.129932	0.356701
C62	C	1.854050	-0.629932	0.856701
C63	C	1.238978	-1.123315	0.498256
C64	C	1.738978	-0.623315	0.998256
C65	C	1.244350	-1.029408	0.491571
C66	C	1.744350	-0.529408	0.991571
C67	C	1.304573	-0.985767	0.417448
C68	C	1.804573	-0.485767	0.917448
C69	C	1.309940	-0.891858	0.410759
C70	C	1.809940	-0.391858	0.910759
C71	C	1.194873	-0.885243	0.552317
C72	C	1.694873	-0.385243	1.052317
C73	C	1.189501	-0.979150	0.559002
C74	C	1.689501	-0.479150	1.059002
C75	C	1.508888	-0.521581	0.439658
C76	C	2.008888	-0.021581	0.939658
C77	C	1.608824	-0.527352	0.433329
C78	C	2.108824	-0.027352	0.933329
C79	C	1.274446	-0.507957	0.728532
C80	C	1.774446	-0.007957	1.228532
C81	C	1.274477	-0.507922	0.845305
C82	C	1.774477	-0.007922	1.345305
C83	C	1.288016	-0.273518	0.437897
C84	C	1.788016	0.226482	0.937897
C85	C	1.293829	-0.173580	0.430817
C86	C	1.793829	0.326420	0.930817
C87	C	1.274357	-0.508059	0.181544
C88	C	1.774357	-0.008059	0.681544
C89	C	1.274516	-0.507851	0.064744
C90	C	1.774516	-0.007851	0.564744
C91	C	1.335333	-0.453726	0.892452
C92	C	1.835333	0.046274	1.392452
C93	C	1.335350	-0.453688	1.002173
C94	C	1.835350	0.046312	1.502173
C95	C	1.213653	-0.562049	1.017589
C96	C	1.713653	-0.062049	1.517589
C97	C	1.213632	-0.562082	0.907871
C98	C	1.713632	-0.062082	1.407871
H99	H	0.781818	-0.641847	0.307240
H100	H	1.281818	-0.141847	0.807240
H101	H	1.408453	-1.000492	0.289656
H102	H	1.908453	-0.500492	0.789656
H103	H	0.938198	-0.384096	0.590909
H104	H	1.438198	0.115904	1.090909
Cl105	Cl	1.423009	-1.193111	0.271929
Cl106	Cl	1.923009	-0.693111	0.771929
H107	H	0.611472	-0.632062	0.318079
H108	H	1.111472	-0.132062	0.818079
Cl109	Cl	1.411866	-0.385561	1.061439
Cl110	Cl	1.911866	0.114439	1.561439
Cl111	Cl	1.385645	-0.836996	0.317573
Cl112	Cl	1.885645	-0.336996	0.817573
Cl113	Cl	1.411820	-0.385635	0.813801
Cl114	Cl	1.911820	0.114365	1.313801
Cl115	Cl	1.125903	-0.822055	0.637080
Cl116	Cl	1.625903	-0.322055	1.137080
Cl117	Cl	1.113799	-1.034022	0.652183
Cl118	Cl	1.613799	-0.534022	1.152183
H119	H	0.767826	-0.374313	0.601745
H120	H	1.267826	0.125687	1.101745
Cl121	Cl	1.137172	-0.630137	1.096251
Cl122	Cl	1.637172	-0.130137	1.596251
Cl123	Cl	0.604313	-0.397032	0.576817
Cl124	Cl	1.104313	0.102968	1.076817
H125	H	1.189953	-1.158864	0.558609
H126	H	1.689953	-0.658864	1.058609
Cl127	Cl	1.137117	-0.630214	0.848595
Cl128	Cl	1.637117	-0.130214	1.348595
Cl129	Cl	0.945328	-0.619143	0.332185
Cl130	Cl	1.445328	-0.119143	0.832185
