data_functionalizedCrystal
_audit_creation_method	'MofGen! by Chris Wilmer'
_symmetry_space_group_name_H-M	'P1'
_symmetry_Int_Tables_number	1
_symmetry_cell_setting	triclinic
loop_
_symmetry_equiv_pos_as_xyz
  x,y,z
_cell_length_a	14.044202
_cell_length_b	14.044220
_cell_length_c	22.010155
_cell_angle_alpha	89.984498
_cell_angle_beta	90.002181
_cell_angle_gamma	93.190789
loop_
_atom_site_label
_atom_site_type_symbol
_atom_site_fract_x
_atom_site_fract_y
_atom_site_fract_z
O1	O	-1.277167	-0.230223	0.050497
O2	O	-0.777167	0.269777	0.550497
O3	O	-1.000495	-0.221909	0.050505
O4	O	-0.500495	0.278091	0.550505
O5	O	-1.134678	-0.087730	0.050495
O6	O	-0.634678	0.412270	0.550495
O7	O	-1.142984	-0.364402	0.050507
O8	O	-0.642984	0.135598	0.550507
O9	O	-1.134675	-0.087698	-0.050555
O10	O	-0.634675	0.412302	0.449445
O11	O	-1.000492	-0.221876	-0.050545
O12	O	-0.500492	0.278124	0.449455
O13	O	-1.277164	-0.230191	-0.050553
O14	O	-0.777164	0.269809	0.449447
Cu15	Cu	-1.138827	-0.226031	-0.059776
Cu16	Cu	-0.638827	0.273969	0.440224
Cu17	Cu	-1.138831	-0.226069	0.059728
Cu18	Cu	-0.638831	0.273931	0.559728
O19	O	-1.142981	-0.364370	-0.050543
O20	O	-0.642981	0.135630	0.449457
C21	C	-0.964871	-0.218256	-0.000019
C22	C	-0.464871	0.281744	0.499981
C23	C	-0.858728	-0.207407	-0.000016
C24	C	-0.358728	0.292593	0.499984
C25	C	-1.131041	-0.052092	-0.000030
C26	C	-0.631041	0.447908	0.499970
C27	C	-1.120196	0.054051	-0.000031
C28	C	-0.620196	0.554051	0.499969
C29	C	-0.613270	-0.264506	-0.000020
C30	C	-0.113270	0.235494	0.499980
C31	C	-0.664395	-0.187590	-0.000022
C32	C	-0.164395	0.312410	0.499978
C33	C	-0.772532	-0.198619	-0.000019
C34	C	-0.272532	0.301381	0.499981
C35	C	-0.505123	-0.253478	-0.000023
C36	C	-0.005123	0.246522	0.499977
C37	C	-0.312788	-0.233842	-0.000027
C38	C	0.187212	0.266158	0.499973
C39	C	-0.418931	-0.244684	-0.000025
C40	C	0.081069	0.255316	0.499975
N41	N	-1.138834	-0.226089	0.143780
N42	N	-0.638834	0.273911	0.643780
C43	C	-1.146618	-0.400008	-0.000017
C44	C	-0.646618	0.099992	0.499983
C45	C	-1.157462	-0.506151	-0.000012
C46	C	-0.657462	-0.006151	0.499988
C47	C	-1.100370	0.248389	-0.000021
C48	C	-0.600370	0.748389	0.499979
C49	C	-1.177284	0.299517	-0.000022
C50	C	-0.677284	0.799517	0.499978
C51	C	-1.166253	0.407653	-0.000016
C52	C	-0.666253	0.907653	0.499984
C53	C	-1.111400	0.140243	-0.000026
C54	C	-0.611400	0.640243	0.499974
C55	C	-1.201529	-0.288999	0.436389
C56	C	-0.701529	0.211001	0.936389
C57	C	-1.201531	-0.289004	0.372781
C58	C	-0.701531	0.210996	0.872781
O59	O	-1.254862	-0.342515	0.339887
O60	O	-0.754862	0.157485	0.839887
N61	N	-1.138844	-0.226063	0.340964
N62	N	-0.638844	0.273937	0.840964
C63	C	-1.076157	-0.163107	0.372759
C64	C	-0.576157	0.336893	0.872759
O65	O	-1.022838	-0.109571	0.339855
O66	O	-0.522838	0.390429	0.839855
C67	C	-1.076161	-0.163098	0.436365
C68	C	-0.576161	0.336902	0.936365
C69	C	-1.138846	-0.226050	0.468179
C70	C	-0.638846	0.273950	0.968179
C71	C	-1.264209	-0.351945	0.468202
C72	C	-0.764209	0.148055	0.968202
C73	C	-1.264206	-0.351941	0.531806
C74	C	-0.764206	0.148059	1.031806
C75	C	-1.201523	-0.288991	0.563595
C76	C	-0.701523	0.211009	1.063595
C77	C	-1.138842	-0.226046	0.531782
C78	C	-0.638842	0.273954	1.031782
C79	C	-1.013480	-0.100138	0.468158
C80	C	-0.513480	0.399862	0.968158
C81	C	-1.013490	-0.100134	0.531769
C82	C	-0.513490	0.399866	1.031769
C83	C	-1.076174	-0.163085	0.563582
C84	C	-0.576174	0.336915	1.063582
C85	C	-1.076156	-0.163092	0.627175
C86	C	-0.576156	0.336908	1.127175
N87	N	-1.138843	-0.226033	0.658991
N88	N	-0.638843	0.273967	1.158991
C89	C	-1.201526	-0.288982	0.627202
C90	C	-0.701526	0.211018	1.127202
C91	C	-1.076156	-0.163129	0.239181
C92	C	-0.576156	0.336871	0.739181
C93	C	-1.076146	-0.163142	0.175576
C94	C	-0.576146	0.336858	0.675576
C95	C	-1.201521	-0.289038	0.175603
C96	C	-0.701521	0.210962	0.675603
C97	C	-1.201525	-0.289029	0.239209
C98	C	-0.701525	0.210971	0.739209
C99	C	-1.138843	-0.226070	0.270998
C100	C	-0.638843	0.273930	0.770998
C101	C	-1.201514	-0.288970	0.760773
C102	C	-0.701514	0.211030	1.260773
C103	C	-1.201503	-0.288963	0.824382
C104	C	-0.701503	0.211037	1.324382
C105	C	-1.076132	-0.163064	0.824349
C106	C	-0.576132	0.336936	1.324349
C107	C	-1.076139	-0.163073	0.760746
C108	C	-0.576139	0.336927	1.260746
C109	C	-1.138838	-0.226030	0.728959
C110	C	-0.638838	0.273970	1.228959
O111	O	-1.022855	-0.109605	0.660109
O112	O	-0.522855	0.390395	1.160109
O113	O	-1.254845	-0.342501	0.660113
O114	O	-0.754845	0.157499	1.160113
N115	N	-1.138819	-0.226013	0.856172
N116	N	-0.638819	0.273987	1.356172
H117	H	-0.626952	-0.113457	0.000018
H118	H	-0.126952	0.386543	0.500018
C119	C	-0.663852	-0.364650	-0.000009
C120	C	-0.163852	0.135350	0.499991
N121	N	-0.701962	-0.440078	0.000001
N122	N	-0.201962	0.059922	0.500001
C123	C	-1.277437	0.248937	-0.000033
C124	C	-0.777437	0.748937	0.499967
N125	N	-1.352868	0.210836	-0.000045
N126	N	-0.852868	0.710836	0.499955
H127	H	-1.026242	0.285829	-0.000018
H128	H	-0.526242	0.785829	0.499982
H129	H	-1.252548	-0.340230	0.850282
H130	H	-0.752548	0.159770	1.350282
H131	H	-1.315254	-0.403199	0.557703
H132	H	-0.815254	0.096801	1.057703
C133	C	-1.270478	-0.358233	0.725817
C134	C	-0.770478	0.141767	1.225817
N135	N	-1.322415	-0.410409	0.699489
N136	N	-0.822415	0.089591	1.199489
H137	H	-0.962445	-0.048863	0.557648
H138	H	-0.462445	0.451137	1.057648
H139	H	-1.315259	-0.403206	0.442326
H140	H	-0.815259	0.096794	0.942326
C141	C	-1.270489	-0.358274	0.274198
C142	C	-0.770489	0.141726	0.774198
N143	N	-1.322438	-0.410429	0.300548
N144	N	-0.822438	0.089571	0.800548
C145	C	-1.270482	-0.358278	0.140622
C146	C	-0.770482	0.141722	0.640622
N147	N	-1.322420	-0.410425	0.114272
N148	N	-0.822420	0.089575	0.614272
H149	H	-1.025092	-0.111891	0.149678
H150	H	-0.525092	0.388109	0.649678
H151	H	-1.025103	-0.111863	0.265059
H152	H	-0.525103	0.388137	0.765059
H153	H	-0.962437	-0.048875	0.442266
H154	H	-0.462437	0.451125	0.942266
C155	C	-1.007181	-0.093826	0.725750
C156	C	-0.507181	0.406174	1.225750
N157	N	-0.955249	-0.041660	0.699396
N158	N	-0.455249	0.458340	1.199396
H159	H	-1.025094	-0.111814	0.850244
H160	H	-0.525094	0.388186	1.350244
