data_functionalizedCrystal
_audit_creation_method	'MofGen! by Chris Wilmer'
_symmetry_space_group_name_H-M	'P1'
_symmetry_Int_Tables_number	1
_symmetry_cell_setting	triclinic
loop_
_symmetry_equiv_pos_as_xyz
  x,y,z
_cell_length_a	14.628931
_cell_length_b	18.878441
_cell_length_c	14.628931
_cell_angle_alpha	119.998581
_cell_angle_beta	89.999882
_cell_angle_gamma	59.998898
loop_
_atom_site_label
_atom_site_type_symbol
_atom_site_fract_x
_atom_site_fract_y
_atom_site_fract_z
Zr1	Zr	0.880606	0.775344	0.119936
O2	O	0.734642	0.923121	0.265893
O3	O	0.925354	0.627566	0.075196
O4	O	0.925351	0.775344	0.265897
O5	O	0.734646	0.775344	-0.075240
O6	O	1.075783	0.775343	0.265897
O7	O	0.734645	0.775344	0.075192
O8	O	1.075788	0.510997	-0.075233
O9	O	0.734641	1.039691	0.265890
O10	O	1.056702	0.688349	0.056111
O11	O	0.944436	0.688349	-0.056155
O12	O	0.944433	0.862338	0.168371
O13	O	0.832167	0.862338	0.056106
Zr14	Zr	1.120529	0.775343	-0.119985
Zr15	Zr	1.120528	0.775343	0.119936
Zr16	Zr	0.880607	0.775344	-0.119985
Zr17	Zr	0.880603	0.961258	0.119931
Zr18	Zr	1.120532	0.589429	-0.119980
O19	O	1.075781	0.923120	-0.075245
O20	O	1.075780	0.923120	0.265893
O21	O	0.734643	0.923121	-0.075244
O22	O	1.266492	0.627565	-0.265942
O23	O	1.266492	0.627565	0.075195
O24	O	0.925354	0.627566	-0.265942
O25	O	1.266489	0.775343	0.075191
O26	O	1.075784	0.775343	-0.265946
O27	O	0.925352	0.775344	-0.265946
O28	O	1.266489	0.775343	-0.075241
O29	O	0.925346	1.039690	0.265889
O30	O	1.075788	0.510997	-0.265938
O31	O	1.266494	0.510996	-0.265939
O32	O	1.266494	0.510996	-0.075233
O33	O	0.734641	1.039691	0.075184
O34	O	0.925347	1.039690	0.075184
O35	O	1.056702	0.688349	-0.168420
O36	O	1.168968	0.688349	-0.056155
O37	O	1.056699	0.862338	0.056106
O38	O	0.944433	0.862338	-0.056160
C39	C	1.000571	0.542793	-0.000018
C40	C	1.000572	0.463867	-0.000015
C41	C	1.059171	0.426788	0.058587
C42	C	1.059176	0.352623	0.058579
C43	C	1.000574	0.315545	-0.000026
C44	C	0.941973	0.352627	-0.058636
C45	C	0.941976	0.426785	-0.058634
C46	C	0.941968	0.198061	-0.058635
C47	C	0.941963	0.123899	-0.058636
C48	C	1.059168	0.123899	0.058577
C49	C	1.059171	0.198057	0.058580
C50	C	1.000568	0.235135	-0.000029
C51	C	0.700462	0.775344	-0.000024
C52	C	0.598609	0.775344	-0.000024
C53	C	0.608892	0.689034	-0.055713
C54	C	0.503623	0.689032	-0.055714
C55	C	1.300673	0.775343	-0.000025
C56	C	1.402526	0.775342	-0.000025
C57	C	1.000567	0.775343	0.300081
C58	C	1.000566	0.775343	0.401934
C59	C	1.000564	1.007894	-0.000031
C60	C	1.000562	1.086820	-0.000034
C61	C	0.921809	0.775344	0.552608
C62	C	0.921807	0.775344	0.447338
C63	C	1.000568	0.775343	0.699870
C64	C	1.000568	0.775343	0.598017
C65	C	1.300677	0.542792	-0.000018
C66	C	1.402531	0.463866	-0.000016
C67	C	1.000572	0.542793	-0.300123
C68	C	1.000573	0.463867	-0.401973
C69	C	1.300677	0.542792	-0.300123
C70	C	1.402532	0.463866	-0.401974
C71	C	0.700457	1.007895	0.300074
C72	C	0.598603	1.086821	0.401925
C73	C	0.700458	1.007895	-0.000031
C74	C	0.598603	1.086821	-0.000033
C75	C	1.000563	1.007894	0.300074
C76	C	1.000561	1.086820	0.401924
C77	C	1.391761	0.426802	0.058597
C78	C	1.487455	0.352653	0.058621
C79	C	1.593918	0.315565	0.000026
C80	C	1.604685	0.352636	-0.058589
C81	C	1.508993	0.426789	-0.058606
C82	C	1.059176	0.426803	-0.508415
C83	C	1.059173	0.352654	-0.604124
C84	C	1.000573	0.315566	-0.593388
C85	C	0.941964	0.352638	-0.486935
C86	C	0.941961	0.426790	-0.391229
C87	C	1.508976	0.426802	-0.391203
C88	C	1.604688	0.352653	-0.486893
C89	C	1.593954	0.315565	-0.593354
C90	C	1.487500	0.352637	-0.604123
C91	C	1.391790	0.426789	-0.508434
C92	C	0.492159	1.123894	0.391154
C93	C	0.396447	1.198066	0.486844
C94	C	0.407180	1.235158	0.593305
C95	C	0.513635	1.198081	0.604074
C96	C	0.609345	1.123916	0.508385
C97	C	0.609373	1.123893	-0.058636
C98	C	0.513679	1.198062	-0.058634
C99	C	0.407217	1.235153	-0.000035
C100	C	0.396449	1.198078	0.058575
C101	C	0.492142	1.123915	0.058579
C102	C	1.059172	1.123884	0.391153
C103	C	1.059193	1.198033	0.486843
C104	C	1.000595	1.235122	0.593304
C105	C	0.941983	1.198050	0.604073
C106	C	0.941969	1.123897	0.508384
H107	H	1.106886	0.456976	0.106316
H108	H	1.691359	0.322476	-0.478105
H109	H	1.000585	0.255187	-0.671328
C110	C	0.515287	0.589202	-0.120126
N111	N	0.524072	0.514006	-0.168645
H112	H	1.106920	1.228209	0.478053
H113	H	0.854383	0.775338	0.591661
H114	H	0.854374	0.775349	0.408291
H115	H	1.106889	1.093698	0.304476
H116	H	1.106892	0.322433	0.106297
C117	C	1.000619	1.316694	0.698555
N118	N	1.000638	1.378136	0.777826
H119	H	0.511871	0.849236	0.047650
H120	H	0.894255	0.456977	-0.106351
C121	C	1.123663	0.311879	-0.721211
N122	N	1.172241	0.281167	-0.809399
C123	C	0.301962	1.316730	-0.000057
N124	N	0.222688	1.378172	-0.000081
C125	C	0.390854	0.875177	0.064391
N126	N	0.382069	0.950372	0.112907
H127	H	1.067996	0.775349	0.440981
H128	H	1.068000	0.775338	0.558956
H129	H	0.309755	1.228289	0.106284
H130	H	1.305083	0.456998	0.106326
C131	C	1.475586	0.311879	0.123093
N132	N	1.466642	0.281168	0.171649
C133	C	1.274704	0.467550	-0.520301
N134	N	1.186515	0.498249	-0.529248
C135	C	1.699173	0.233987	0.000047
N136	N	1.778447	0.172540	0.000063
H137	H	1.691380	0.322428	-0.106294
C138	C	0.726070	0.589205	-0.120118
N139	N	0.814328	0.514011	-0.168625
H140	H	0.309776	1.228241	0.478054
C141	C	0.525549	1.238823	-0.123122
N142	N	0.534492	1.269520	-0.171697
H143	H	1.517777	0.456957	-0.106342
H144	H	0.483357	1.093733	0.106297
H145	H	1.517736	0.456988	-0.304526
H146	H	0.894254	0.322430	-0.478211
C147	C	1.699250	0.233987	-0.698605
N148	N	1.778563	0.172539	-0.777876
H149	H	0.894274	1.228259	0.690766
H150	H	0.696052	1.093699	-0.106361
H151	H	0.894237	1.093728	0.517170
C152	C	0.301885	1.316735	0.698556
N153	N	0.222572	1.378174	0.777827
C154	C	1.123638	0.083106	0.123041
N155	N	1.172193	0.052379	0.171596
C156	C	0.480325	1.083113	0.274056
N157	N	0.471402	1.052407	0.185860
H158	H	1.106895	0.456991	-0.517178
C159	C	0.726431	1.083131	0.520252
N160	N	0.814619	1.052414	0.529199
H161	H	0.894243	0.093713	-0.106357
C162	C	0.877493	0.238852	-0.123100
N163	N	0.828924	0.269582	-0.171645
H164	H	1.106883	0.228251	0.106307
H165	H	0.894243	0.456958	-0.304563
H166	H	1.478777	0.322428	-0.690816
H167	H	0.522361	1.228291	0.690765
H168	H	0.894264	0.322428	-0.106360
