data_functionalizedCrystal
_audit_creation_method	'MofGen! by Chris Wilmer'
_symmetry_space_group_name_H-M	'P1'
_symmetry_Int_Tables_number	1
_symmetry_cell_setting	triclinic
loop_
_symmetry_equiv_pos_as_xyz
  x,y,z
_cell_length_a	14.853558
_cell_length_b	11.792254
_cell_length_c	13.930277
_cell_angle_alpha	89.995290
_cell_angle_beta	89.993309
_cell_angle_gamma	83.914866
loop_
_atom_site_label
_atom_site_type_symbol
_atom_site_fract_x
_atom_site_fract_y
_atom_site_fract_z
O1	O	1.196956	0.148130	-0.079820
O2	O	0.934564	0.165793	-0.079824
O3	O	1.072122	-0.008248	-0.079815
O4	O	1.059398	0.322171	-0.079829
O5	O	1.072102	-0.008251	0.079847
O6	O	0.934545	0.165789	0.079838
O7	O	1.196936	0.148126	0.079842
Zn8	Zn	1.065738	0.156957	0.105190
Zn9	Zn	1.065763	0.156962	-0.105172
O10	O	1.059379	0.322167	0.079833
C11	C	0.900963	0.164993	0.000006
C12	C	0.800869	0.162600	0.000005
C13	C	0.753855	0.161480	-0.087031
C14	C	0.753832	0.161463	0.087039
C15	C	0.659790	0.159209	0.087041
C16	C	0.612776	0.158088	0.000005
C17	C	0.659804	0.159222	-0.087032
C18	C	0.612756	0.158063	0.174076
C19	C	0.518707	0.155807	0.174081
C20	C	0.471691	0.154695	0.087045
C21	C	0.518725	0.155831	0.000004
C22	C	0.471711	0.154711	-0.087031
C23	C	0.518742	0.155854	-0.174072
C24	C	0.612788	0.158111	-0.174068
C25	C	0.377646	0.152439	0.087040
C26	C	0.377660	0.152453	-0.087032
C27	C	1.071310	-0.050535	0.000016
C28	C	1.068912	-0.176533	0.000015
C29	C	1.066962	-0.278858	0.000011
C30	C	1.064525	-0.407229	0.000002
C31	C	1.230538	0.148927	0.000010
C32	C	1.330632	0.151319	0.000005
C33	C	1.060190	0.364454	0.000000
C34	C	1.062589	0.490453	-0.000005
N35	N	1.065727	0.156953	0.248756
N36	N	1.065781	0.156957	-0.248738
C37	C	1.004850	0.233997	0.701021
C38	C	1.126701	0.079918	0.700999
C39	C	1.126690	0.079915	0.600503
C40	C	1.065759	0.156955	0.550262
C41	C	1.004839	0.233998	0.600516
C42	C	1.187615	0.002881	0.550241
C43	C	1.187607	0.002875	0.449739
C44	C	1.126672	0.079910	0.399496
C45	C	1.065749	0.156956	0.449757
C46	C	1.004818	0.233995	0.399515
C47	C	0.943890	0.311037	0.449774
C48	C	0.943904	0.311033	0.550273
C49	C	1.126658	0.079913	0.298997
C50	C	1.004807	0.233997	0.299010
H51	H	0.480452	0.154936	-0.244936
C52	C	0.952856	0.430362	0.731950
C53	C	0.937875	0.318678	0.756254
H54	H	0.911502	0.482638	0.766045
H55	H	1.013073	0.442823	0.748419
H56	H	0.944136	0.441370	0.664903
H57	H	0.946602	0.307667	0.823301
H58	H	0.877644	0.306213	0.739792
H59	H	0.894299	0.373758	0.591200
H60	H	0.792118	0.162366	0.157899
C61	C	1.145508	-0.074491	0.814028
C62	C	1.193669	-0.004762	0.756226
H63	H	1.186852	-0.126776	0.848122
H64	H	1.109237	-0.028601	0.858333
H65	H	1.107782	-0.115399	0.774824
H66	H	1.231390	0.036154	0.795431
H67	H	1.229955	-0.050657	0.711916
H68	H	1.237227	-0.059838	0.591151
H69	H	1.237217	-0.059857	0.408825
C70	C	1.247107	-0.072379	0.309075
C71	C	1.193622	-0.004763	0.243753
H72	H	1.288445	-0.124662	0.274967
H73	H	1.279767	-0.025056	0.348256
H74	H	1.209380	-0.113290	0.348290
H75	H	1.231348	0.036155	0.204542
H76	H	1.160960	-0.052091	0.204555
C77	C	0.952822	0.430365	0.268071
C78	C	0.937831	0.318685	0.243787
H79	H	0.911478	0.482647	0.233974
H80	H	0.944105	0.441378	0.335110
H81	H	1.013050	0.442816	0.251583
H82	H	0.877606	0.306232	0.260282
H83	H	0.946541	0.307669	0.176734
H84	H	0.339387	0.151548	-0.157908
C85	C	0.891908	0.507404	0.418818
C86	C	0.876919	0.395721	0.394541
H87	H	0.850568	0.559681	0.384711
H88	H	0.883181	0.518424	0.485855
H89	H	0.952137	0.519852	0.402337
H90	H	0.816691	0.383270	0.411028
H91	H	0.885638	0.384696	0.327489
H92	H	0.651089	0.159040	-0.244932
C93	C	0.756909	0.161537	0.251357
C94	C	0.664433	0.159300	0.269740
H95	H	0.788813	0.162311	0.310420
H96	H	0.778876	0.095781	0.215604
H97	H	0.765756	0.228048	0.215593
H98	H	0.655586	0.092784	0.305498
H99	H	0.642459	0.225062	0.305509
C100	C	0.233472	0.148964	0.164327
C101	C	0.325948	0.151179	0.182705
H102	H	0.201560	0.148180	0.223392
H103	H	0.211518	0.214731	0.128578
H104	H	0.224624	0.082464	0.128560
H105	H	0.334797	0.217684	0.218467
H106	H	0.347909	0.085405	0.218469
H107	H	0.480423	0.154875	0.244956
C108	C	0.898023	0.164951	-0.164331
C109	C	0.805547	0.162731	-0.182704
H110	H	0.929935	0.165716	-0.223398
H111	H	0.906873	0.231448	-0.128578
H112	H	0.919980	0.099181	-0.128570
H113	H	0.783589	0.228506	-0.218459
H114	H	0.796692	0.096227	-0.218472
