data_functionalizedCrystal
_audit_creation_method	'MofGen! by Chris Wilmer'
_symmetry_space_group_name_H-M	'P1'
_symmetry_Int_Tables_number	1
_symmetry_cell_setting	triclinic
loop_
_symmetry_equiv_pos_as_xyz
  x,y,z
_cell_length_a	18.050591
_cell_length_b	21.295417
_cell_length_c	18.050583
_cell_angle_alpha	89.959541
_cell_angle_beta	89.977979
_cell_angle_gamma	90.026512
loop_
_atom_site_label
_atom_site_type_symbol
_atom_site_fract_x
_atom_site_fract_y
_atom_site_fract_z
Zn1	Zn	1.135289	-0.250631	-0.420010
Zn2	Zn	1.135192	-0.355917	-0.295811
Zn3	Zn	1.011106	-0.250659	-0.295821
Zn4	Zn	1.011051	-0.355859	-0.419946
O5	O	1.073159	-0.303267	-0.357897
O6	O	1.239201	-0.264610	-0.403557
O7	O	1.118714	-0.341991	-0.191887
O8	O	1.027642	-0.162566	-0.312326
O9	O	1.239130	-0.341964	-0.312308
O10	O	1.118879	-0.162545	-0.403567
O11	O	1.027548	-0.264658	-0.191895
O12	O	0.907174	-0.264601	-0.312264
O13	O	1.027549	-0.341864	-0.523879
O14	O	0.907134	-0.341891	-0.403458
O15	O	1.118826	-0.264554	-0.523926
O16	O	1.118661	-0.443999	-0.312247
O17	O	1.027455	-0.443956	-0.403449
C18	C	0.880207	-0.303243	-0.357856
C19	C	0.797662	-0.303248	-0.357856
C20	C	0.598211	-0.261169	-0.308379
C21	C	0.548788	-0.318588	-0.290098
C22	C	0.646531	-0.303267	-0.357889
C23	C	0.548872	-0.245869	-0.376169
C24	C	0.500546	-0.303281	-0.357921
C25	C	0.598196	-0.360716	-0.339573
C26	C	0.598284	-0.287959	-0.425676
C27	C	0.548883	-0.345417	-0.407420
C28	C	0.730629	-0.303259	-0.357870
C29	C	0.416450	-0.303296	-0.357940
C30	C	1.073062	-0.466818	-0.357856
C31	C	1.073088	-0.536786	-0.357863
C32	C	1.120621	-0.569654	-0.310423
C33	C	1.120656	-0.635397	-0.310440
C34	C	1.073145	-0.668269	-0.357889
C35	C	1.025608	-0.635393	-0.405338
C36	C	1.025580	-0.569652	-0.405325
N37	N	1.008178	-0.771530	-0.363536
N38	N	1.008207	-0.833981	-0.363544
C39	C	1.073228	-0.866344	-0.357931
N40	N	1.138221	-0.833895	-0.352296
N41	N	1.138191	-0.771438	-0.352284
C42	C	1.073170	-0.739554	-0.357908
C43	C	1.120803	-0.970497	-0.310507
C44	C	1.120839	-1.036241	-0.310529
C45	C	1.025784	-1.036235	-0.405423
C46	C	1.025755	-0.970493	-0.405405
C47	C	1.073263	-0.937628	-0.357943
C48	C	1.266865	-0.303291	-0.357939
C49	C	1.349411	-0.303301	-0.357956
C50	C	1.073192	-0.303199	-0.551603
C51	C	1.073206	-0.303171	-0.634148
C52	C	1.073277	-0.139076	-0.357955
C53	C	1.073328	-0.069108	-0.357979
C54	C	1.122892	-0.261109	-0.833625
C55	C	1.055159	-0.245698	-0.883014
C56	C	1.073236	-0.303160	-0.785279
C57	C	1.140996	-0.318531	-0.882972
C58	C	1.073271	-0.303148	-0.931264
C59	C	1.005467	-0.287720	-0.833581
C60	C	1.091350	-0.360579	-0.833534
C61	C	1.023570	-0.345190	-0.882901
C62	C	1.073217	-0.303165	-0.701181
C63	C	1.073282	-0.303143	-1.015361
C64	C	1.073169	-0.303288	-0.164945
C65	C	1.073299	-0.303139	-0.082399
H66	H	0.619771	-0.409277	-0.324062
C67	C	0.567626	-0.183957	-0.216462
C68	C	0.627457	-0.213160	-0.251800
H69	H	0.585683	-0.154324	-0.181530
H70	H	0.537981	-0.163043	-0.252253
H71	H	0.538643	-0.214702	-0.191626
H72	H	0.656436	-0.182417	-0.276641
H73	H	0.657114	-0.234075	-0.216003
H74	H	0.987103	-1.062999	-0.444060
C75	C	0.989314	-0.549342	-0.531039
C76	C	0.973324	-0.533520	-0.457472
H77	H	0.957048	-0.527037	-0.563230
H78	H	1.039193	-0.538520	-0.541950
H79	H	0.982530	-0.593200	-0.537831
H80	H	0.980112	-0.489662	-0.450679
H81	H	0.923432	-0.544338	-0.446557
C82	C	1.214764	-0.977103	-0.216711
C83	C	1.173027	-0.934367	-0.258343
H84	H	1.247006	-0.954798	-0.184511
H85	H	1.182438	-1.002790	-0.188279
H86	H	1.243162	-1.002699	-0.249112
H87	H	1.144624	-0.908774	-0.225942
H88	H	1.205357	-0.908669	-0.286777
H89	H	1.159551	-1.063001	-0.271899
H90	H	0.527361	-0.381065	-0.449303
C91	C	0.967741	-0.393146	-0.989508
C92	C	0.966839	-0.393185	-0.911940
H93	H	0.932718	-0.422776	-1.007435
H94	H	0.955298	-0.352479	-1.007190
H95	H	1.015818	-0.404168	-1.006503
H96	H	0.918762	-0.382159	-0.894945
H97	H	0.979277	-0.433861	-0.894250
H98	H	0.987046	-0.943730	-0.444032
C99	C	1.160352	-0.152971	-0.829384
C100	C	1.179488	-0.213077	-0.804404
H101	H	1.195287	-0.123318	-0.811338
H102	H	1.160445	-0.152374	-0.881999
H103	H	1.112349	-0.142455	-0.811743
H104	H	1.227489	-0.223594	-0.822049
H105	H	1.179402	-0.213675	-0.751777
C106	C	0.475832	-0.157045	-0.339204
C107	C	0.519624	-0.180333	-0.397027
H108	H	0.457782	-0.116584	-0.352075
H109	H	0.435252	-0.184585	-0.330933
H110	H	0.504767	-0.154163	-0.295389
H111	H	0.490687	-0.183220	-0.440839
H112	H	0.560209	-0.152786	-0.405306
H113	H	0.527049	-0.331546	-0.232786
C114	C	1.213346	-0.390836	-0.954898
C115	C	1.218332	-0.336093	-0.912262
H116	H	1.261091	-0.401671	-0.972982
H117	H	1.194716	-0.424110	-0.925174
H118	H	1.180859	-0.383848	-0.995462
H119	H	1.250815	-0.343082	-0.871695
H120	H	1.236973	-0.302811	-0.941987
C121	C	1.034099	-0.180998	-0.989934
C122	C	1.034504	-0.180143	-0.912369
H123	H	1.021351	-0.140527	-1.008056
H124	H	1.081877	-0.192219	-1.007557
H125	H	0.998783	-0.210823	-1.006791
H126	H	1.069824	-0.150322	-0.895512
H127	H	0.986719	-0.168914	-0.894739
C128	C	1.220491	-0.495662	-0.300191
C129	C	1.172846	-0.533526	-0.258261
H130	H	1.252728	-0.473353	-0.267987
H131	H	1.248887	-0.521266	-0.332572
H132	H	1.192167	-0.466679	-0.328440
H133	H	1.201170	-0.562512	-0.230015
H134	H	1.144446	-0.507920	-0.225866
C135	C	0.928798	-0.270220	-0.726853
C136	C	0.928106	-0.270081	-0.804423
H137	H	0.881041	-0.259326	-0.708853
H138	H	0.941728	-0.310881	-0.709505
H139	H	0.964088	-0.240539	-0.709595
H140	H	0.892820	-0.299766	-0.821681
H141	H	0.915167	-0.229414	-0.821777
H142	H	0.620041	-0.274983	-0.482970
H143	H	0.986925	-0.662161	-0.443973
H144	H	1.159366	-0.662163	-0.271808
C145	C	1.060785	-0.470289	-0.830130
C146	C	1.112044	-0.426118	-0.804168
H147	H	1.073572	-0.510750	-0.812003
H148	H	1.012629	-0.459419	-0.813246
H149	H	1.061403	-0.470660	-0.882752
H150	H	1.111422	-0.425743	-0.751547
H151	H	1.160213	-0.436990	-0.821049
