data_functionalizedCrystal
_audit_creation_method	'MofGen! by Chris Wilmer'
_symmetry_space_group_name_H-M	'P1'
_symmetry_Int_Tables_number	1
_symmetry_cell_setting	triclinic
loop_
_symmetry_equiv_pos_as_xyz
  x,y,z
_cell_length_a	18.215407
_cell_length_b	12.645330
_cell_length_c	18.215399
_cell_angle_alpha	90.022131
_cell_angle_beta	89.982632
_cell_angle_gamma	89.976370
loop_
_atom_site_label
_atom_site_type_symbol
_atom_site_fract_x
_atom_site_fract_y
_atom_site_fract_z
Zn1	Zn	1.125065	0.422123	-0.416097
Zn2	Zn	1.458399	0.755456	-0.082764
Zn3	Zn	1.791732	1.088789	0.250569
Zn4	Zn	1.124971	0.599405	-0.293043
Zn5	Zn	1.458304	0.932738	0.040290
Zn6	Zn	1.791638	1.266072	0.373623
Zn7	Zn	1.001998	0.422148	-0.293050
Zn8	Zn	1.335331	0.755481	0.040283
Zn9	Zn	1.668665	1.088815	0.373617
Zn10	Zn	1.001961	0.599337	-0.416074
Zn11	Zn	1.335294	0.932670	-0.082740
Zn12	Zn	1.668628	1.266003	0.250593
O13	O	1.063499	0.510753	-0.354566
O14	O	1.396832	0.844086	-0.021233
O15	O	1.730165	1.177420	0.312101
O16	O	1.228037	0.445657	-0.399781
O17	O	1.561370	0.778991	-0.066448
O18	O	1.894704	1.112324	0.266886
O19	O	1.108634	0.575931	-0.190060
O20	O	1.441968	0.909264	0.143273
O21	O	1.775301	1.242597	0.476607
O22	O	1.018378	0.273797	-0.309385
O23	O	1.351711	0.607131	0.023948
O24	O	1.685045	0.940464	0.357282
O25	O	1.227968	0.575906	-0.309374
O26	O	1.561301	0.909239	0.023959
O27	O	1.894634	1.242573	0.357293
O28	O	1.108795	0.273779	-0.399787
O29	O	1.442128	0.607112	-0.066454
O30	O	1.775462	0.940445	0.266879
O31	O	1.018286	0.445701	-0.190065
O32	O	1.351620	0.779034	0.143269
O33	O	1.684953	1.112367	0.476602
O34	O	0.899009	0.445634	-0.309362
O35	O	1.232342	0.778968	0.023971
O36	O	1.565675	1.112301	0.357305
O37	O	1.018315	0.575790	-0.519061
O38	O	1.351648	0.909123	-0.185728
O39	O	1.684982	1.242456	0.147606
O40	O	0.898982	0.575814	-0.399747
O41	O	1.232315	0.909147	-0.066414
O42	O	1.565648	1.242481	0.266920
O43	O	1.108759	0.445591	-0.519078
O44	O	1.442093	0.778925	-0.185745
O45	O	1.775426	1.112258	0.147588
O46	O	1.108598	0.747743	-0.309351
O47	O	1.441932	1.081076	0.023982
O48	O	1.775265	1.414410	0.357316
O49	O	1.018224	0.747693	-0.399741
O50	O	1.351557	1.081026	-0.066407
O51	O	1.684890	1.414360	0.266926
C52	C	0.872292	0.510720	-0.354553
C53	C	1.205626	0.844054	-0.021220
C54	C	1.538959	1.177387	0.312114
C55	C	0.790494	0.510732	-0.354565
C56	C	1.123827	0.844065	-0.021232
C57	C	1.457160	1.177399	0.312102
C58	C	0.602335	0.443051	-0.401714
C59	C	0.935668	0.776385	-0.068381
C60	C	1.269001	1.109718	0.264952
C61	C	0.525476	0.443060	-0.401717
C62	C	0.858809	0.776394	-0.068384
C63	C	1.192143	1.109727	0.264950
C64	C	0.525415	0.578485	-0.307431
C65	C	0.858748	0.911818	0.025903
C66	C	1.192081	1.245151	0.359236
C67	C	0.602272	0.578469	-0.307425
C68	C	0.935605	0.911803	0.025908
C69	C	1.268939	1.245136	0.359242
C70	C	0.640730	0.510754	-0.354571
C71	C	0.974063	0.844088	-0.021238
C72	C	1.307397	1.177421	0.312096
C73	C	0.487014	0.510779	-0.354579
C74	C	0.820347	0.844112	-0.021246
C75	C	1.153681	1.177445	0.312088
C76	C	0.403680	0.510789	-0.354581
C77	C	0.737014	0.844122	-0.021248
C78	C	1.070347	1.177456	0.312085
C79	C	0.724069	0.510742	-0.354568
C80	C	1.057402	0.844076	-0.021235
C81	C	1.390736	1.177409	0.312099
C82	C	1.063417	0.786183	-0.354559
C83	C	1.396750	1.119516	-0.021225
C84	C	1.730083	1.452849	0.312108
C85	C	1.063449	0.904013	-0.354580
C86	C	1.396782	1.237346	-0.021247
C87	C	1.730116	1.570679	0.312086
C88	C	1.006811	1.071589	-0.411622
C89	C	1.340145	1.404923	-0.078288
C90	C	1.673478	1.738256	0.255045
C91	C	1.006534	0.949030	-0.411437
C92	C	1.339868	1.282363	-0.078104
C93	C	1.673201	1.615697	0.255230
C94	C	1.042451	0.948602	-0.277023
C95	C	1.375785	1.281935	0.056310
C96	C	1.709118	1.615269	0.389644
C97	C	1.042093	1.071200	-0.277371
C98	C	1.375427	1.404534	0.055963
C99	C	1.708760	1.737867	0.389296
C100	C	1.141391	1.071108	-0.374471
C101	C	1.474725	1.404441	-0.041138
C102	C	1.808058	1.737775	0.292195
C103	C	1.140926	0.948501	-0.376166
C104	C	1.474260	1.281835	-0.042832
C105	C	1.807593	1.615168	0.290501
C106	C	1.255452	0.510786	-0.354579
C107	C	1.588785	0.844120	-0.021246
C108	C	1.922118	1.177453	0.312087
C109	C	1.337250	0.510801	-0.354585
C110	C	1.670584	0.844134	-0.021252
C111	C	2.003917	1.177467	0.312082
C112	C	1.063575	1.234248	-0.354592
C113	C	1.396909	1.567581	-0.021259
C114	C	1.730242	1.900914	0.312074
C115	C	1.063542	1.116418	-0.354610
C116	C	1.396875	1.449751	-0.021277
C117	C	1.730209	1.783084	0.312056
C118	C	1.063544	0.510680	-0.546519
C119	C	1.396877	0.844013	-0.213186
C120	C	1.730210	1.177347	0.120148
C121	C	1.063563	0.510649	-0.628318
C122	C	1.396896	0.843982	-0.294985
C123	C	1.730229	1.177315	0.038349
C124	C	1.110674	0.442791	-0.816522
C125	C	1.444007	0.776124	-0.483189
C126	C	1.777341	1.109458	-0.149856
C127	C	1.110683	0.442760	-0.893381
C128	C	1.444016	0.776094	-0.560048
C129	C	1.777349	1.109427	-0.226714
C130	C	1.016503	0.578342	-0.893352
C131	C	1.349837	0.911676	-0.560018
C132	C	1.683170	1.245009	-0.226685
C133	C	1.016492	0.578367	-0.816494
C134	C	1.349825	0.911701	-0.483161
C135	C	1.683158	1.245034	-0.149828
C136	C	1.063581	0.510593	-0.778082
C137	C	1.396914	0.843926	-0.444748
C138	C	1.730248	1.177260	-0.111415
C139	C	1.063602	0.510537	-0.931798
C140	C	1.396935	0.843871	-0.598464
C141	C	1.730268	1.177204	-0.265131
C142	C	1.063611	0.510504	-1.015131
C143	C	1.396944	0.843838	-0.681798
C144	C	1.730278	1.177171	-0.348465
C145	C	1.063571	0.510624	-0.694743
C146	C	1.396904	0.843958	-0.361409
C147	C	1.730238	1.177291	-0.028076
C148	C	1.063496	0.510749	-0.163360
C149	C	1.396830	0.844083	0.169974
C150	C	1.730163	1.177416	0.503307
C151	C	1.063620	0.510482	-0.081561
C152	C	1.396953	0.843815	0.251772
C153	C	1.730287	1.177148	0.585105
H154	H	0.494218	0.387928	-0.440105
H155	H	0.827551	0.721261	-0.106771
H156	H	1.160885	1.054595	0.226562
H157	H	0.978138	0.633579	-0.785195
H158	H	1.311471	0.966912	-0.451862
H159	H	1.644804	1.300246	-0.118528
H160	H	1.149029	0.387547	-0.924676
H161	H	1.482363	0.720881	-0.591343
H162	H	1.815696	1.054214	-0.258009
F163	F	1.160789	0.370657	-0.775643
F164	F	1.494122	0.703991	-0.442310
F165	F	1.827455	1.037324	-0.108976
H166	H	0.494093	0.633617	-0.269047
H167	H	0.827426	0.966950	0.064287
H168	H	1.160760	1.300283	0.397620
H169	H	1.160539	1.101956	-0.430065
H170	H	1.493872	1.435289	-0.096732
H171	H	1.827205	1.768622	0.236602
H172	H	0.986143	0.917986	-0.259893
H173	H	1.319476	1.251320	0.073440
H174	H	1.652809	1.584653	0.406774
H175	H	0.978167	0.633524	-0.924637
H176	H	1.311500	0.966857	-0.591303
H177	H	1.644833	1.300191	-0.257970
F178	F	0.643138	0.650523	-0.257240
F179	F	0.976471	0.983857	0.076094
F180	F	1.309804	1.317190	0.409427
F181	F	1.023704	0.909618	-0.486605
F182	F	1.357037	1.242951	-0.153271
F183	F	1.690370	1.576284	0.180062
H184	H	0.985185	1.099887	-0.260545
H185	H	1.318519	1.433221	0.072788
H186	H	1.651852	1.766554	0.406121
F187	F	1.023813	1.110039	-0.487038
F188	F	1.357147	1.443373	-0.153705
F189	F	1.690480	1.776706	0.179628
H190	H	0.949458	1.102486	-0.398632
H191	H	1.282791	1.435819	-0.065299
H192	H	1.616125	1.769152	0.268035
F193	F	1.094754	0.910493	-0.219981
F194	F	1.428088	1.243827	0.113352
F195	F	1.761421	1.577160	0.446685
F196	F	0.931105	0.910807	-0.394241
F197	F	1.264439	1.244141	-0.060908
F198	F	1.597772	1.577474	0.272426
H199	H	1.081621	1.100858	-0.233444
H200	H	1.414954	1.434191	0.099889
H201	H	1.748287	1.767525	0.433222
F202	F	1.161625	0.910406	-0.450771
F203	F	1.494958	1.243739	-0.117438
F204	F	1.828292	1.577072	0.215896
F205	F	0.643262	0.370980	-0.451889
F206	F	0.976595	0.704313	-0.118556
F207	F	1.309929	1.037646	0.214777
F208	F	1.199094	0.908434	-0.325847
F209	F	1.532427	1.241767	0.007487
F210	F	1.865760	1.575101	0.340820
H211	H	1.183657	1.100097	-0.332947
H212	H	1.516991	1.433430	0.000386
H213	H	1.850324	1.766764	0.333719
