data_functionalizedCrystal
_audit_creation_method	'MofGen! by Chris Wilmer'
_symmetry_space_group_name_H-M	'P1'
_symmetry_Int_Tables_number	1
_symmetry_cell_setting	triclinic
loop_
_symmetry_equiv_pos_as_xyz
  x,y,z
_cell_length_a	23.532407
_cell_length_b	14.853567
_cell_length_c	13.930277
_cell_angle_alpha	90.004245
_cell_angle_beta	89.990782
_cell_angle_gamma	96.758196
loop_
_atom_site_label
_atom_site_type_symbol
_atom_site_fract_x
_atom_site_fract_y
_atom_site_fract_z
O1	O	0.074353	-1.195555	-0.079775
O2	O	0.574353	-0.695555	0.420225
O3	O	0.083210	-0.932999	-0.079793
O4	O	0.583210	-0.432999	0.420207
O5	O	-0.004116	-1.072194	-0.079766
O6	O	0.495884	-0.572194	0.420234
O7	O	0.161678	-1.056360	-0.079802
O8	O	0.661678	-0.556360	0.420198
O9	O	-0.004118	-1.072175	0.079896
O10	O	0.495882	-0.572175	0.579896
O11	O	0.083208	-0.932980	0.079869
O12	O	0.583208	-0.432980	0.579869
O13	O	0.074351	-1.195536	0.079887
O14	O	0.574351	-0.695536	0.579887
Zn15	Zn	0.078779	-1.064255	0.105228
Zn16	Zn	0.578779	-0.564255	0.605228
Zn17	Zn	0.078782	-1.064280	-0.105133
Zn18	Zn	0.578782	-0.564280	0.394867
O19	O	0.161677	-1.056340	0.079860
O20	O	0.661677	-0.556340	0.579860
C21	C	0.082808	-0.899405	0.000036
C22	C	0.582808	-0.399405	0.500036
C23	C	0.081605	-0.799334	0.000030
C24	C	0.581605	-0.299334	0.500030
C25	C	-0.025335	-1.071782	0.000068
C26	C	0.474665	-0.571782	0.500068
C27	C	-0.088557	-1.070569	0.000075
C28	C	0.411443	-0.570569	0.500075
N29	N	0.078777	-1.064244	0.248794
N30	N	0.578777	-0.564244	0.748794
C31	C	-0.487334	-1.145338	0.000027
C32	C	0.012666	-0.645338	0.500027
C33	C	-0.546739	-1.144212	0.000020
C34	C	-0.046739	-0.644212	0.500020
O35	O	-0.583181	-1.213524	-0.000011
O36	O	-0.083181	-0.713524	0.499989
N37	N	-0.569726	-1.061460	0.000015
N38	N	-0.069726	-0.561460	0.500015
C39	C	-0.533305	-0.979829	0.000008
C40	C	-0.033305	-0.479829	0.500008
O41	O	-0.558312	-0.909339	0.000002
O42	O	-0.058312	-0.409339	0.500002
C43	C	-0.473901	-0.980957	0.000008
C44	C	0.026099	-0.480957	0.500008
C45	C	-0.450917	-1.063714	0.000023
C46	C	0.049083	-0.563714	0.500023
C47	C	-0.464349	-1.228089	0.000041
C48	C	0.035651	-0.728089	0.500041
C49	C	-0.404948	-1.229214	0.000050
C50	C	0.095052	-0.729214	0.500050
C51	C	-0.368531	-1.147590	0.000046
C52	C	0.131469	-0.647590	0.500046
C53	C	-0.391516	-1.064839	0.000032
C54	C	0.108484	-0.564839	0.500032
C55	C	-0.437481	-0.899327	-0.000006
C56	C	0.062519	-0.399327	0.499994
C57	C	-0.378073	-0.900461	-0.000006
C58	C	0.121927	-0.400461	0.499994
C59	C	-0.355089	-0.983218	0.000009
C60	C	0.144911	-0.483218	0.500009
C61	C	-0.295698	-0.984341	0.000037
C62	C	0.204302	-0.484341	0.500037
N63	N	-0.272711	-1.067092	0.000042
N64	N	0.227289	-0.567092	0.500042
C65	C	-0.309128	-1.148717	0.000046
C66	C	0.190872	-0.648717	0.500046
C67	C	-0.658058	-0.977469	0.000005
C68	C	-0.158058	-0.477469	0.500005
C69	C	-0.717461	-0.976340	0.000012
C70	C	-0.217461	-0.476340	0.500012
C71	C	-0.730890	-1.140723	0.000022
C72	C	-0.230890	-0.640723	0.500022
C73	C	-0.671486	-1.141851	0.000022
C74	C	-0.171486	-0.641851	0.500022
C75	C	-0.635070	-1.060220	0.000010
C76	C	-0.135070	-0.560220	0.500010
C77	C	-0.184380	-1.151075	0.000066
C78	C	0.315620	-0.651075	0.500066
C79	C	-0.124974	-1.152194	0.000079
C80	C	0.375026	-0.652194	0.500079
C81	C	-0.111549	-0.987811	0.000064
C82	C	0.388451	-0.487811	0.500064
C83	C	-0.170951	-0.986692	0.000056
C84	C	0.329049	-0.486692	0.500056
C85	C	-0.207365	-1.068331	0.000054
C86	C	0.292635	-0.568331	0.500054
O87	O	-0.259221	-0.915065	0.000064
O88	O	0.240779	-0.415065	0.500064
O89	O	-0.284112	-1.219196	0.000039
O90	O	0.215888	-0.719196	0.500039
C91	C	0.182895	-1.056753	0.000025
C92	C	0.682895	-0.556753	0.500025
C93	C	0.246118	-1.057966	0.000011
C94	C	0.746118	-0.557966	0.500011
C95	C	0.074753	-1.229130	0.000056
C96	C	0.574753	-0.729130	0.500056
C97	C	0.075956	-1.329200	0.000056
C98	C	0.575956	-0.829200	0.500056
C99	C	0.024648	-0.387423	0.000064
C100	C	0.524648	0.112577	0.500064
C101	C	0.128393	-0.365008	0.000041
C102	C	0.628393	0.134992	0.500041
C103	C	0.129524	-0.459029	0.000037
C104	C	0.629524	0.040971	0.500037
C105	C	0.078216	-0.517252	0.000046
C106	C	0.578216	-0.017252	0.500046
C107	C	0.025777	-0.481454	0.000058
C108	C	0.525777	0.018546	0.500058
C109	C	0.181961	-0.494835	0.000016
C110	C	0.681961	0.005165	0.500016
C111	C	0.183094	-0.588861	0.000011
C112	C	0.683094	-0.088861	0.500011
C113	C	0.131786	-0.647086	0.000027
C114	C	0.631786	-0.147086	0.500027
C115	C	0.079345	-0.611283	0.000040
C116	C	0.579345	-0.111283	0.500040
C117	C	0.028037	-0.669506	0.000049
C118	C	0.528037	-0.169506	0.500049
C119	C	-0.024404	-0.633704	0.000069
C120	C	0.475596	-0.133704	0.500069
C121	C	-0.025531	-0.539679	0.000074
C122	C	0.474469	-0.039679	0.500074
C123	C	0.132913	-0.741111	0.000022
C124	C	0.632913	-0.241111	0.500022
C125	C	0.029166	-0.763536	0.000042
C126	C	0.529166	-0.263536	0.500042
N127	N	0.078779	-1.064298	-0.248700
N128	N	0.578779	-0.564298	0.251300
C129	C	0.117434	-1.002642	0.701051
C130	C	0.617434	-0.502642	1.201051
C131	C	0.040125	-1.125943	0.701045
C132	C	0.540125	-0.625943	1.201045
C133	C	0.040123	-1.125932	0.600549
C134	C	0.540123	-0.625932	1.100549
C135	C	0.078778	-1.064276	0.550300
C136	C	0.578778	-0.564276	1.050300
C137	C	0.117435	-1.002631	0.600546
C138	C	0.617435	-0.502631	1.100546
C139	C	0.001470	-1.187582	0.550295
C140	C	0.501470	-0.687582	1.050295
C141	C	0.001467	-1.187575	0.449793
C142	C	0.501467	-0.687575	0.949793
C143	C	0.040120	-1.125914	0.399542
C144	C	0.540120	-0.625914	0.899542
C145	C	0.078778	-1.064266	0.449795
C146	C	0.578778	-0.564266	0.949795
C147	C	0.117433	-1.002610	0.399546
C148	C	0.617433	-0.502610	0.899546
C149	C	0.156089	-0.940956	0.449797
C150	C	0.656089	-0.440956	0.949797
C151	C	0.156088	-0.940970	0.550295
C152	C	0.656088	-0.440970	1.050295
C153	C	0.040122	-1.125900	0.299043
C154	C	0.540122	-0.625900	0.799043
C155	C	0.117434	-1.002599	0.299041
C156	C	0.617434	-0.502599	0.799041
H157	H	-0.106264	-1.219587	0.000094
H158	H	0.393736	-0.719587	0.500094
H159	H	-0.066179	-0.681121	0.000069
H160	H	0.433821	-0.181121	0.500069
F161	F	0.238906	-0.626956	-0.000008
F162	F	0.738906	-0.126956	0.499992
F163	F	0.188721	-0.779211	-0.000007
F164	F	0.688721	-0.279211	0.499993
F165	F	0.197231	-0.875345	0.396307
F166	F	0.697231	-0.375345	0.896307
H167	H	0.148910	-0.952388	0.258134
H168	H	0.648910	-0.452388	0.758134
H169	H	0.008652	-1.176101	0.258133
H170	H	0.508652	-0.676101	0.758133
F171	F	-0.039673	-1.253188	0.396319
F172	F	0.460327	-0.753188	0.896319
H173	H	-0.068226	-0.510520	0.000113
H174	H	0.431774	-0.010520	0.500113
H175	H	-0.214023	-1.217554	0.000061
H176	H	0.285977	-0.717554	0.500061
F177	F	0.182995	-0.303041	0.000020
F178	F	0.682995	0.196959	0.500020
F179	F	0.197226	-0.875361	0.603779
F180	F	0.697226	-0.375361	1.103779
F181	F	-0.380495	-1.317296	0.000045
F182	F	0.119505	-0.817296	0.500045
F183	F	0.158571	-0.937026	0.754530
F184	F	0.658571	-0.437026	1.254530
F185	F	-0.025444	-0.825495	0.000059
F186	F	0.474556	-0.325495	0.500059
H187	H	-0.018049	-0.358269	0.000084
H188	H	0.481951	0.141731	0.500084
F189	F	-0.001010	-1.191564	0.754523
F190	F	0.498990	-0.691564	1.254523
F191	F	-0.619305	-0.890580	0.000001
F192	F	-0.119305	-0.390580	0.500001
H193	H	-0.348425	-0.833986	-0.000017
H194	H	0.151575	-0.333986	0.499983
F195	F	-0.039664	-1.253203	0.603773
F196	F	0.460336	-0.753203	1.103773
F197	F	-0.503099	-1.314973	0.000045
F198	F	-0.003099	-0.814973	0.500045
F199	F	0.236563	-0.432866	-0.000008
F200	F	0.736563	0.067134	0.499992
F201	F	-0.195413	-0.898614	0.000058
F202	F	0.304587	-0.398614	0.500058
H203	H	-0.652777	-1.209239	0.000034
H204	H	-0.152777	-0.709239	0.500034
F205	F	-0.769658	-1.227596	0.000022
F206	F	-0.269658	-0.727596	0.500022
H207	H	-0.081888	-0.921355	0.000064
H208	H	0.418112	-0.421355	0.500064
F209	F	-0.741915	-0.888259	0.000013
F210	F	-0.241915	-0.388259	0.500013
H211	H	-0.456183	-0.831937	-0.000023
H212	H	0.043817	-0.331937	0.499977
