data_functionalizedCrystal
_audit_creation_method	'MofGen! by Chris Wilmer'
_symmetry_space_group_name_H-M	'P1'
_symmetry_Int_Tables_number	1
_symmetry_cell_setting	triclinic
loop_
_symmetry_equiv_pos_as_xyz
  x,y,z
_cell_length_a	19.188933
_cell_length_b	19.188930
_cell_length_c	13.930277
_cell_angle_alpha	89.990320
_cell_angle_beta	89.994201
_cell_angle_gamma	83.145175
loop_
_atom_site_label
_atom_site_type_symbol
_atom_site_fract_x
_atom_site_fract_y
_atom_site_fract_z
O1	O	0.926147	0.087173	-0.079810
O2	O	0.722836	0.098906	-0.079820
O3	O	0.830358	-0.008616	-0.079796
O4	O	0.818624	0.194696	-0.079834
O5	O	0.830343	-0.008618	0.079866
O6	O	0.722821	0.098904	0.079842
O7	O	0.926132	0.087171	0.079852
Zn8	Zn	0.824474	0.093037	0.105197
Zn9	Zn	0.824494	0.093040	-0.105165
O10	O	0.818609	0.194693	0.079828
C11	C	0.696817	0.098525	0.000010
C12	C	0.619313	0.097384	0.000007
C13	C	0.066065	0.089240	-0.087013
C14	C	0.138890	0.090308	-0.087017
C15	C	0.175299	0.090844	0.000014
C16	C	0.138880	0.090294	0.087056
C17	C	0.066058	0.089219	0.087057
N18	N	0.284313	0.132262	0.064788
N19	N	0.353490	0.133284	0.064781
C20	C	0.394707	0.094082	0.000015
N21	N	0.364132	0.053827	-0.064757
N22	N	0.294948	0.052807	-0.064753
C23	C	0.254262	0.092009	0.000022
C24	C	0.510083	0.095785	-0.087025
C25	C	0.582909	0.096849	-0.087025
C26	C	0.582896	0.096842	0.087050
C27	C	0.510072	0.095771	0.087048
C28	C	0.473669	0.095246	0.000008
C29	C	0.829971	-0.034628	0.000038
C30	C	0.828830	-0.112132	0.000046
C31	C	0.891921	-0.157056	0.000054
C32	C	0.890849	-0.229880	0.000038
C33	C	0.826683	-0.257777	0.000035
C34	C	0.763584	-0.212843	0.000021
C35	C	0.764658	-0.140021	0.000027
N36	N	0.777631	-0.365783	0.054368
N37	N	0.776615	-0.434961	0.054365
C38	C	0.823445	-0.477185	0.000015
N39	N	0.871339	-0.447619	-0.054319
N40	N	0.872357	-0.378434	-0.054311
C41	C	0.825512	-0.336739	0.000028
C42	C	0.885378	-0.601073	0.000005
C43	C	0.884304	-0.673898	-0.000017
C44	C	0.757037	-0.656860	-0.000024
C45	C	0.758113	-0.584037	-0.000013
C46	C	0.822286	-0.556148	0.000006
C47	C	0.952150	0.087553	0.000020
C48	C	1.029655	0.088694	0.000017
C49	C	0.818997	0.220705	-0.000008
C50	C	0.820137	0.298210	-0.000022
N51	N	0.824466	0.093035	0.248763
N52	N	0.824507	0.093037	-0.248731
C53	C	0.776881	0.140632	0.701021
C54	C	0.872126	0.045443	0.701012
C55	C	0.872117	0.045440	0.600517
C56	C	0.824491	0.093036	0.550269
C57	C	0.776872	0.140633	0.600516
C58	C	0.919739	-0.002151	0.550261
C59	C	0.919734	-0.002155	0.449759
C60	C	0.872103	0.045438	0.399510
C61	C	0.824482	0.093036	0.449764
C62	C	0.776856	0.140632	0.399516
C63	C	0.729231	0.188228	0.449768
C64	C	0.729242	0.188226	0.550267
C65	C	0.872092	0.045440	0.299011
C66	C	0.776847	0.140632	0.299011
H67	H	0.168541	0.090756	-0.157890
H68	H	0.738103	0.179383	0.741939
H69	H	0.942227	-0.266463	0.000041
H70	H	0.738061	0.179388	0.258105
C71	C	0.686454	-0.687535	-0.000032
H72	H	0.649031	-0.650346	-0.000040
H73	H	0.683382	-0.715600	0.055640
H74	H	0.683397	-0.715577	-0.055722
C75	C	0.688712	-0.534619	-0.000005
H76	H	0.650343	-0.561661	-0.000001
H77	H	0.686489	-0.505846	-0.055678
H78	H	0.686484	-0.505869	0.055684
H79	H	0.713280	-0.103444	0.000021
C80	C	0.693004	-0.243527	0.000020
H81	H	0.701400	-0.293332	0.000028
H82	H	0.667039	-0.228086	-0.055658
H83	H	0.667031	-0.228100	0.055704
C84	C	0.955963	-0.570392	0.000015
H85	H	0.993386	-0.607580	0.000003
H86	H	0.959023	-0.542349	0.055696
H87	H	0.959031	-0.542328	-0.055666
H88	H	0.935682	-0.710475	-0.000016
H89	H	0.690456	0.226983	0.408844
H90	H	0.168529	0.090729	0.157917
C91	C	0.972121	-0.054506	0.605529
H92	H	1.000485	-0.082848	0.561209
H93	H	0.947094	-0.083508	0.644742
H94	H	1.001110	-0.029460	0.644724
H95	H	0.690468	0.226977	0.591188
H96	H	0.910905	0.006695	0.741927
H97	H	0.958511	-0.040910	0.408850
C98	C	0.025980	0.088776	0.182792
H99	H	-0.022610	0.088103	0.170327
H100	H	0.032515	0.129702	0.218414
H101	H	0.043297	0.048284	0.218690
C102	C	0.470036	0.095211	-0.182763
H103	H	0.502155	0.095682	-0.234598
H104	H	0.436184	0.135502	-0.186378
H105	H	0.447073	0.054085	-0.186383
C106	C	0.622961	0.097450	-0.182764
H107	H	0.590847	0.096990	-0.234597
H108	H	0.656818	0.057163	-0.186385
H109	H	0.645919	0.138580	-0.186380
C110	C	0.924472	-0.006909	0.243738
H111	H	0.952836	-0.035256	0.288057
H112	H	0.953450	0.018137	0.204514
H113	H	0.899441	-0.035917	0.204552
C114	C	0.622934	0.097430	0.182786
H115	H	0.590816	0.096949	0.234620
H116	H	0.645894	0.138554	0.186400
H117	H	0.656789	0.057137	0.186407
C118	C	0.026028	0.088644	-0.182753
H119	H	0.058149	0.089113	-0.234586
H120	H	-0.007834	0.128926	-0.186387
H121	H	0.003079	0.047509	-0.186358
H122	H	0.480426	0.095329	0.157917
H123	H	0.944175	-0.134354	0.000066
