data_functionalizedCrystal
_audit_creation_method	'MofGen! by Chris Wilmer'
_symmetry_space_group_name_H-M	'P1'
_symmetry_Int_Tables_number	1
_symmetry_cell_setting	triclinic
loop_
_symmetry_equiv_pos_as_xyz
  x,y,z
_cell_length_a	14.971486
_cell_length_b	16.109301
_cell_length_c	14.048226
_cell_angle_alpha	89.992144
_cell_angle_beta	89.998499
_cell_angle_gamma	83.537805
loop_
_atom_site_label
_atom_site_type_symbol
_atom_site_fract_x
_atom_site_fract_y
_atom_site_fract_z
O1	O	1.186791	0.108348	-0.079054
O2	O	0.926372	0.121323	-0.079081
O3	O	1.063735	-0.006187	-0.079057
O4	O	1.049427	0.235857	-0.079078
O5	O	1.063719	-0.006194	0.079264
O6	O	0.926355	0.121315	0.079241
O7	O	1.186774	0.108340	0.079267
Zn8	Zn	1.056562	0.114826	0.104391
Zn9	Zn	1.056584	0.114836	-0.104204
O10	O	1.049411	0.235850	0.079244
C11	C	0.893040	0.120739	0.000077
C12	C	0.793745	0.119000	0.000067
C13	C	0.736412	0.193908	0.000062
C14	C	0.643115	0.192269	0.000076
C15	C	0.607153	0.115721	0.000089
C16	C	0.664494	0.040807	0.000097
C17	C	0.757789	0.042447	0.000089
C18	C	0.470036	0.037395	0.000110
C19	C	0.376734	0.035755	0.000116
C20	C	0.355362	0.187217	0.000097
C21	C	0.448657	0.188857	0.000090
C22	C	0.505991	0.113942	0.000096
C23	C	1.063147	-0.037166	0.000104
C24	C	1.061410	-0.129464	0.000105
C25	C	1.138878	-0.351640	0.000098
C26	C	1.137239	-0.438362	0.000090
C27	C	0.974262	-0.418691	0.000077
C28	C	0.975902	-0.331970	0.000078
C29	C	1.058213	-0.298447	0.000094
C30	C	1.054933	-0.471890	0.000085
C31	C	1.053155	-0.565918	0.000076
C32	C	1.059992	-0.204413	0.000101
C33	C	1.220106	0.108924	0.000108
C34	C	1.319401	0.110663	0.000111
C35	C	1.049999	0.266829	0.000080
C36	C	1.051736	0.359127	0.000073
N37	N	1.056554	0.114819	0.246752
N38	N	1.056599	0.114837	-0.246565
C39	C	1.117397	0.058381	0.296580
C40	C	1.117403	0.058381	0.396238
C41	C	1.056570	0.114823	0.446065
C42	C	0.995719	0.171263	0.396230
C43	C	0.995710	0.171259	0.296574
C44	C	0.995745	0.171269	0.603944
C45	C	0.995756	0.171275	0.703607
C46	C	1.117439	0.058391	0.703608
C47	C	1.117429	0.058387	0.603952
C48	C	1.056580	0.114829	0.554123
H49	H	0.516716	-0.023609	0.000117
O50	O	0.771490	0.268196	0.000004
C51	C	0.866129	0.253584	0.000020
H52	H	0.888058	0.188726	-0.029947
H53	H	0.892103	0.257638	0.075971
C54	C	0.877867	0.399421	-0.025276
C55	C	0.904800	0.319763	-0.062089
H56	H	0.901723	0.440244	-0.063583
H57	H	0.814107	0.409266	-0.025283
H58	H	0.899514	0.402787	0.038017
H59	H	0.883144	0.316395	-0.125375
H60	H	0.968558	0.309919	-0.062094
O61	O	0.483705	0.263159	0.000189
C62	C	0.537027	0.268649	0.082184
H63	H	0.560272	0.203144	0.109540
H64	H	0.495812	0.305405	0.139595
C65	C	0.590996	0.393935	0.023644
C66	C	0.619553	0.313481	0.057239
H67	H	0.641899	0.421593	0.008260
H68	H	0.555070	0.390239	-0.031596
H69	H	0.556649	0.424555	0.071493
H70	H	0.653888	0.282860	0.009387
H71	H	0.655486	0.317173	0.112471
O72	O	0.299545	0.259914	0.000133
C73	C	0.209488	0.242056	0.000121
H74	H	0.205931	0.176752	0.030112
H75	H	0.182504	0.245175	-0.075833
C76	C	0.156740	0.386761	0.025360
C77	C	0.152371	0.306555	0.062204
H78	H	0.121506	0.426548	0.063652
H79	H	0.217413	0.398793	0.025365
H80	H	0.134255	0.389348	-0.037934
H81	H	0.174866	0.303966	0.125492
H82	H	0.091700	0.294524	0.062211
H83	H	0.910211	-0.288658	0.000072
H84	H	1.166984	0.012434	0.744184
O85	O	1.218909	-0.319212	0.000059
C86	C	1.289754	-0.384762	0.000082
H87	H	1.264694	-0.443692	-0.029891
H88	H	1.314635	-0.397018	0.076036
C89	C	1.398161	-0.287825	-0.025196
C90	C	1.367384	-0.360203	-0.062016
H91	H	1.446049	-0.272676	-0.063497
H92	H	1.350433	-0.243662	-0.025208
H93	H	1.418890	-0.298048	0.038099
H94	H	1.346646	-0.349976	-0.125305
H95	H	1.415111	-0.404364	-0.062016
H96	H	0.946164	0.217216	0.256004
O97	O	1.215574	-0.490066	-0.000073
C98	C	1.219501	-0.540818	-0.082060
H99	H	1.173757	-0.509095	-0.139373
H100	H	1.196367	-0.603904	-0.063529
C101	C	1.373016	-0.592853	-0.048840
C102	C	1.316839	-0.553886	-0.119235
H103	H	1.433059	-0.600918	-0.071770
H104	H	1.370370	-0.558663	0.006399
H105	H	1.353727	-0.645421	-0.033404
H106	H	1.336121	-0.501316	-0.134661
H107	H	1.319491	-0.588068	-0.174478
H108	H	1.166939	0.012423	0.256017
O109	O	1.176604	0.003535	0.444493
C110	C	1.230288	-0.046288	0.379145
H111	H	1.231266	-0.012202	0.308098
H112	H	1.201284	-0.108105	0.368568
C113	C	1.325586	-0.105117	0.505284
C114	C	1.326794	-0.063249	0.418025
H115	H	1.385115	-0.115584	0.529267
H116	H	1.289417	-0.071553	0.549311
H117	H	1.301412	-0.156627	0.496458
H118	H	1.350957	-0.011737	0.426854
H119	H	1.362970	-0.096806	0.373999
O120	O	0.936605	0.226179	0.555686
C121	C	0.882901	0.275986	0.621032
H122	H	0.919576	0.276982	0.692066
H123	H	0.816466	0.248892	0.631644
C124	C	0.819392	0.364426	0.494878
C125	C	0.864440	0.365654	0.582120
H126	H	0.808001	0.419737	0.470874
H127	H	0.855571	0.330868	0.450852
H128	H	0.764035	0.341843	0.503733
H129	H	0.919801	0.388227	0.573262
H130	H	0.828270	0.399218	0.626144
O131	O	0.894287	-0.451219	-0.000099
C132	C	0.845111	-0.424020	-0.082087
H133	H	0.893245	-0.405928	-0.139394
H134	H	0.795251	-0.367553	-0.063553
C135	C	0.734608	-0.517248	-0.048884
C136	C	0.793727	-0.495034	-0.119273
H137	H	0.702908	-0.561050	-0.071820
H138	H	0.767737	-0.535571	0.006355
H139	H	0.693066	-0.470186	-0.033445
H140	H	0.835274	-0.542093	-0.134702
H141	H	0.760604	-0.476721	-0.174515
H142	H	0.635206	-0.021520	0.000121
H143	H	1.166969	0.012432	0.563383
H144	H	0.596437	0.253267	0.000071
H145	H	0.946218	0.217235	0.744171
O146	O	0.341752	-0.038580	-0.000030
C147	C	0.288404	-0.044053	-0.082008
H148	H	0.310460	-0.000594	-0.139334
H149	H	0.214828	-0.024937	-0.063470
C150	C	0.272636	-0.187934	-0.048752
C151	C	0.299730	-0.134563	-0.119164
H152	H	0.279618	-0.243765	-0.071670
H153	H	0.308574	-0.184246	0.006480
H154	H	0.211324	-0.171994	-0.033310
H155	H	0.361043	-0.150496	-0.134596
H156	H	0.263801	-0.138255	-0.174400
H157	H	0.946183	0.217217	0.436805
H158	H	0.804470	-0.018551	0.000093
