data_functionalizedCrystal
_audit_creation_method	'MofGen! by Chris Wilmer'
_symmetry_space_group_name_H-M	'P1'
_symmetry_Int_Tables_number	1
_symmetry_cell_setting	triclinic
loop_
_symmetry_equiv_pos_as_xyz
  x,y,z
_cell_length_a	10.654558
_cell_length_b	9.730223
_cell_length_c	9.065218
_cell_angle_alpha	89.999531
_cell_angle_beta	84.752101
_cell_angle_gamma	89.999600
loop_
_atom_site_label
_atom_site_type_symbol
_atom_site_fract_x
_atom_site_fract_y
_atom_site_fract_z
O1	O	1.668649	0.114265	0.207287
O2	O	1.303250	0.114271	0.227018
O3	O	1.493502	0.114265	0.002469
O4	O	1.478397	0.114271	0.431836
O5	O	1.493500	-0.114315	0.002475
O6	O	1.303248	-0.114309	0.227024
O7	O	1.668647	-0.114315	0.207293
Zn8	Zn	1.485947	-0.150604	0.217159
Zn9	Zn	1.485950	0.150560	0.217152
O10	O	1.478394	-0.114309	0.431842
C11	C	1.256445	-0.000018	0.225570
C12	C	1.116985	-0.000015	0.221227
C13	C	0.920424	0.124584	0.215120
C14	C	1.051463	0.124585	0.219187
C15	C	1.051464	-0.124625	0.219186
C16	C	0.920429	-0.124625	0.215108
C17	C	0.854906	0.249192	0.213096
C18	C	0.920419	0.373803	0.215134
C19	C	1.051458	0.373804	0.219201
C20	C	1.116984	0.249195	0.221229
N21	N	1.485954	-0.356140	0.217163
C22	C	1.570220	-0.428069	0.117767
C23	C	1.570216	-0.571952	0.117749
C24	C	1.401678	-0.571965	0.316537
C25	C	1.401676	-0.428085	0.316546
C26	C	1.654498	-0.356125	0.018384
C27	C	1.738772	-0.428054	-0.081019
C28	C	1.738768	-0.571937	-0.081037
C29	C	1.654491	-0.643891	0.018348
C30	C	1.715451	-0.000023	0.208741
C31	C	1.854911	-0.000017	0.213083
C32	C	1.492049	-0.000023	-0.052507
C33	C	1.487709	-0.000016	-0.216326
N34	N	1.485952	0.356096	0.217136
C35	C	1.479847	-0.000018	0.486818
C36	C	1.484188	-0.000016	0.650637
H37	H	1.223685	0.249206	0.224533
O38	O	1.820541	-0.357952	-0.177470
C39	C	1.802433	-0.215534	-0.156197
H40	H	1.756882	-0.195875	-0.039378
H41	H	1.738436	-0.174736	-0.240354
C42	C	1.986582	-0.165778	-0.320557
C43	C	1.930645	-0.141632	-0.177074
H44	H	2.065667	-0.120190	-0.333442
H45	H	1.998780	-0.261727	-0.334895
H46	H	1.933238	-0.131779	-0.390672
H47	H	1.983981	-0.175646	-0.106964
H48	H	1.918459	-0.045687	-0.162726
H49	H	1.104796	0.475268	0.220848
H50	H	1.333058	-0.369520	0.397483
O51	O	1.115270	-0.245574	0.220974
C52	C	1.203816	-0.253047	0.095758
H53	H	1.227700	-0.144863	0.053837
H54	H	1.162261	-0.314542	0.004866
C55	C	1.295074	-0.457153	0.189874
C56	C	1.324417	-0.324278	0.138393
H57	H	1.369464	-0.501097	0.216169
H58	H	1.235416	-0.452122	0.274232
H59	H	1.260443	-0.508381	0.114122
H60	H	1.359032	-0.273047	0.214150
H61	H	1.384084	-0.329302	0.054048
O62	O	0.856573	0.494718	0.213218
C63	C	0.726871	0.468004	0.209156
H64	H	0.704309	0.360918	0.255231
H65	H	0.701508	0.473909	0.089841
C66	C	0.677644	0.707023	0.247064
C67	C	0.649930	0.575504	0.303666
H68	H	0.630181	0.773337	0.305356
H69	H	0.765026	0.725024	0.249795
H70	H	0.656507	0.711925	0.147635
H71	H	0.671082	0.570598	0.403085
H72	H	0.562549	0.557505	0.300953
O73	O	1.820742	-0.641598	-0.177651
C74	C	1.895099	-0.547239	-0.265387
H75	H	1.897199	-0.444682	-0.204864
H76	H	1.853085	-0.531923	-0.375445
C77	C	2.027659	-0.729352	-0.368646
C78	C	2.030248	-0.603394	-0.294305
H79	H	2.111024	-0.763993	-0.386491
H80	H	1.977562	-0.792925	-0.309541
H81	H	1.992642	-0.716572	-0.460353
H82	H	2.065250	-0.616179	-0.202593
H83	H	2.080355	-0.539825	-0.353396
H84	H	0.748208	0.249205	0.209789
H85	H	0.867084	-0.226086	0.213477
H86	H	1.654511	-0.238968	0.018392
H87	H	1.654487	-0.761050	0.018315
H88	H	1.333064	-0.630559	0.397454
