data_functionalizedCrystal
_audit_creation_method	'MofGen! by Chris Wilmer'
_symmetry_space_group_name_H-M	'P1'
_symmetry_Int_Tables_number	1
_symmetry_cell_setting	triclinic
loop_
_symmetry_equiv_pos_as_xyz
  x,y,z
_cell_length_a	16.793024
_cell_length_b	16.793047
_cell_length_c	33.586455
_cell_angle_alpha	113.253857
_cell_angle_beta	66.219990
_cell_angle_gamma	112.758327
loop_
_atom_site_label
_atom_site_type_symbol
_atom_site_fract_x
_atom_site_fract_y
_atom_site_fract_z
O1	O	0.005016	-0.570216	-0.583573
O2	O	-0.034529	-0.474528	-0.453458
O3	O	0.114723	-0.474535	-0.528082
O4	O	-0.144235	-0.570209	-0.508949
O5	O	0.108729	-0.346329	-0.530229
O6	O	-0.040523	-0.346322	-0.455605
O7	O	-0.000977	-0.442010	-0.585721
Zn8	Zn	-0.021701	-0.373810	-0.521004
Zn9	Zn	-0.013805	-0.542728	-0.518175
O10	O	-0.150229	-0.442003	-0.511097
C11	C	0.005100	-0.790970	-0.238461
C12	C	0.009223	-0.693065	-0.217557
C13	C	0.003804	-0.645758	-0.241627
C14	C	-0.075059	-0.538459	-0.266316
C15	C	0.049838	-0.422849	-0.250165
C16	C	-0.040584	-0.395375	-0.435637
C17	C	-0.044693	-0.353446	-0.386631
C18	C	-0.039275	-0.401741	-0.363054
C19	C	-0.040566	-0.125547	-0.300731
C20	C	-0.044689	-0.223451	-0.321635
C21	C	-0.039266	-0.270752	-0.297563
C22	C	0.039597	-0.378051	-0.272874
C23	C	-0.085304	-0.493667	-0.289026
C24	C	0.005118	-0.521142	-0.103554
C25	C	0.009231	-0.563064	-0.152559
C26	C	0.003809	-0.514775	-0.176138
C27	C	0.010758	-0.652581	-0.172822
C28	C	0.001010	-0.556371	-0.220792
C29	C	-0.008251	-0.506059	-0.245823
C30	C	-0.046224	-0.263935	-0.366370
C31	C	-0.036476	-0.360146	-0.318399
C32	C	-0.027211	-0.410451	-0.293367
C33	C	0.815184	-0.521162	-0.508596
C34	C	0.717729	-0.563083	-0.506815
C35	C	0.669923	-0.514793	-0.509201
C36	C	0.564072	-0.463272	-0.548285
C37	C	0.445555	-0.498966	-0.486078
C38	C	0.415541	-0.125553	-0.528781
C39	C	0.375032	-0.223457	-0.531493
C40	C	0.423813	-0.270761	-0.529101
C41	C	0.149318	-0.395376	-0.530584
C42	C	0.246774	-0.353455	-0.532364
C43	C	0.294574	-0.401748	-0.529976
C44	C	0.400424	-0.453269	-0.490892
C45	C	0.518948	-0.417572	-0.553101
C46	C	0.548961	-0.790984	-0.510398
C47	C	0.589464	-0.693083	-0.507684
C48	C	0.540690	-0.645776	-0.510078
C49	C	0.678399	-0.652598	-0.506649
C50	C	0.581167	-0.556389	-0.510877
C51	C	0.530434	-0.506073	-0.515170
C52	C	0.286104	-0.263940	-0.532530
C53	C	0.383336	-0.360149	-0.528302
C54	C	0.434062	-0.410467	-0.524008
C55	C	-0.040530	-0.395407	-0.935652
C56	C	-0.044651	-0.353482	-0.886645
C57	C	-0.039242	-0.401770	-0.863061
C58	C	0.039602	-0.453292	-0.810474
C59	C	-0.085288	-0.417587	-0.750981
C60	C	0.005063	-0.791004	-0.738448
C61	C	0.009186	-0.693099	-0.717543
C62	C	0.003779	-0.645796	-0.741620
C63	C	0.005077	-0.521171	-0.603544
C64	C	0.009198	-0.563096	-0.652550
C65	C	0.003786	-0.514804	-0.676131
C66	C	-0.075058	-0.463283	-0.728717
C67	C	0.049835	-0.498991	-0.788214
C68	C	-0.040516	-0.125574	-0.800747
C69	C	-0.044642	-0.223476	-0.821649
C70	C	-0.039232	-0.270782	-0.797575
C71	C	-0.046172	-0.263965	-0.866386
C72	C	-0.036447	-0.360171	-0.818406
C73	C	-0.027197	-0.410486	-0.793373
C74	C	0.010719	-0.652613	-0.672809
C75	C	0.000994	-0.556406	-0.720789
C76	C	-0.008259	-0.506089	-0.745819
O77	O	-0.000965	0.173549	-0.277957
O78	O	-0.040516	-0.085616	-0.325254
O79	O	0.108737	0.059592	-0.327284
O80	O	-0.150219	0.028341	-0.275927
O81	O	0.114753	0.055151	-0.263265
O82	O	-0.034500	-0.090057	-0.261234
O83	O	0.005051	0.169108	-0.213937
Zn84	Zn	-0.013769	0.038820	-0.227421
Zn85	Zn	-0.021696	0.044672	-0.311770
O86	O	-0.144202	0.023900	-0.211907
O87	O	-0.034458	-0.474571	0.046517
O88	O	0.005076	-0.570190	-0.083599
O89	O	-0.144170	-0.570237	-0.008972
O90	O	0.114787	-0.474523	-0.028110
O91	O	-0.150200	-0.442024	-0.011093
O92	O	-0.000954	-0.441976	-0.085720
O93	O	-0.040488	-0.346357	0.044396
Zn94	Zn	-0.021679	-0.373810	-0.020999
Zn95	Zn	-0.013734	-0.542737	-0.018204
O96	O	0.108757	-0.346309	-0.030231
C97	C	-0.850734	0.086244	-0.289716
C98	C	-0.753280	0.087165	-0.312001
C99	C	-0.705462	0.081107	-0.288506
C100	C	-0.599592	0.000085	-0.264184
C101	C	-0.481080	0.121287	-0.283645
C102	C	-0.450996	0.035117	-0.097351
C103	C	-0.410501	0.028587	-0.146852
C104	C	-0.459292	0.034683	-0.169840
C105	C	-0.184802	0.024283	-0.235878
C106	C	-0.282257	0.023363	-0.213592
C107	C	-0.330068	0.029423	-0.237088
C108	C	-0.435938	0.110445	-0.261411
C109	C	-0.554456	-0.010759	-0.241948
C110	C	-0.584541	0.075410	-0.428242
C111	C	-0.625029	0.081943	-0.378743
C112	C	-0.576244	0.075844	-0.355753
C113	C	-0.713963	0.086424	-0.357292
C114	C	-0.616708	0.075351	-0.310510
C115	C	-0.565963	0.065400	-0.286043
C116	C	-0.321573	0.024104	-0.168302
C117	C	-0.418828	0.035176	-0.215083
C118	C	-0.469568	0.045131	-0.239552
O119	O	0.585213	0.169090	-0.504004
O120	O	0.494056	-0.090076	-0.525516
O121	O	0.488081	0.055124	-0.449918
O122	O	0.591189	0.023889	-0.579602
O123	O	0.359978	0.059584	-0.452885
O124	O	0.365953	-0.085616	-0.528483
O125	O	0.457110	0.173550	-0.506971
Zn126	Zn	0.391193	0.044675	-0.518198
Zn127	Zn	0.559974	0.038798	-0.514289
O128	O	0.463086	0.028349	-0.582569
C129	C	0.815354	-0.521094	-0.008709
C130	C	0.717898	-0.563028	-0.006927
C131	C	0.670072	-0.514739	-0.009298
C132	C	0.564182	-0.463204	-0.048354
C133	C	0.445681	-0.498945	0.013847
C134	C	0.415547	-0.125494	-0.028771
C135	C	0.375059	-0.223405	-0.031498
C136	C	0.423859	-0.270708	-0.029121
C137	C	0.149365	-0.395355	-0.030599
C138	C	0.246820	-0.353421	-0.032381
C139	C	0.294640	-0.401713	-0.030008
C140	C	0.400530	-0.453248	0.009048
C141	C	0.519038	-0.417504	-0.053155
C142	C	0.549171	-0.790955	-0.010537
C143	C	0.589653	-0.693047	-0.007809
C144	C	0.540859	-0.645741	-0.010187
C145	C	0.678588	-0.652551	-0.006775
C146	C	0.581317	-0.556344	-0.010973
C147	C	0.530562	-0.506029	-0.015250
C148	C	0.286131	-0.263897	-0.032533
C149	C	0.383402	-0.360104	-0.028335
C150	C	0.434150	-0.410423	-0.024057
O151	O	-0.620614	0.089309	0.052274
O152	O	-0.529507	0.043784	-0.078544
O153	O	-0.523494	0.194833	-0.006033
O154	O	-0.626628	-0.061740	-0.020236
O155	O	-0.395386	0.185419	-0.005549
O156	O	-0.401400	0.034370	-0.078059
O157	O	-0.492507	0.079895	0.052758
Zn158	Zn	-0.426614	0.055638	-0.012574
Zn159	Zn	-0.595401	0.068041	-0.013212
O160	O	-0.498521	-0.071154	-0.019752
C161	C	-0.437537	0.048335	0.402491
C162	C	-0.397043	0.041789	0.352989
C163	C	-0.445822	0.047883	0.329994
C164	C	-0.496646	0.126653	0.277022
C165	C	-0.465894	-0.000633	0.218811
C166	C	-0.837226	0.099430	0.210091
C167	C	-0.739773	0.100339	0.187806
C168	C	-0.691967	0.094287	0.211308
C169	C	-0.571027	0.088563	0.071568
C170	C	-0.611521	0.095108	0.121070
C171	C	-0.562739	0.089011	0.144061
C172	C	-0.511915	0.010241	0.197033
C173	C	-0.542670	0.137531	0.255247
C174	C	-0.171338	0.037467	0.263967
C175	C	-0.268788	0.036555	0.286249
C176	C	-0.316597	0.042611	0.262750
C177	C	-0.308112	0.037305	0.331542
C178	C	-0.405351	0.048369	0.284750
C179	C	-0.456092	0.058317	0.260279
C180	C	-0.700452	0.099593	0.142516
C181	C	-0.603213	0.088528	0.189308
C182	C	-0.552469	0.078578	0.213776
O183	O	-0.040608	-1.085661	-0.825229
O184	O	-0.001018	-0.826491	-0.777938
O185	O	-0.150287	-0.971682	-0.775894
O186	O	0.108661	-0.940470	-0.827272
O187	O	-0.144253	-0.976123	-0.711878
O188	O	0.005016	-0.830932	-0.713922
O189	O	-0.034575	-1.090102	-0.761213
Zn190	Zn	-0.013821	-0.961222	-0.727403
Zn191	Zn	-0.021771	-0.955371	-0.811747
O192	O	0.114695	-0.944911	-0.763256
C193	C	-0.036587	-0.225633	-0.248813
C194	C	-0.115212	-0.197561	-0.222306
C195	C	-0.112787	-0.156006	-0.177394
H196	H	0.014756	-0.174936	-0.247781
H197	H	-0.032968	-0.267195	-0.237357
H198	H	-0.118822	-0.156002	-0.233759
H199	H	-0.166568	-0.248241	-0.223325
H200	H	-0.109167	-0.197567	-0.165938
H201	H	-0.061440	-0.105312	-0.176366
H202	H	-0.166135	-0.136961	-0.159403
C203	C	-0.487619	0.192241	0.322656
C204	C	-0.437534	0.167064	0.338172
C205	C	-0.429194	0.227469	0.380205
H206	H	-0.545984	0.191280	0.343873
H207	H	-0.457553	0.251261	0.319423
H208	H	-0.467601	0.108060	0.341407
H209	H	-0.379162	0.168031	0.316967
H210	H	-0.399128	0.286489	0.376973
H211	H	-0.487562	0.226504	0.401419
H212	H	-0.395205	0.210400	0.390737
H213	H	0.107243	-0.392097	-0.234140
H214	H	-0.048864	-0.224020	-0.386283
H215	H	0.001639	-0.441666	-0.659178
C216	C	-0.036564	-0.499300	-0.385685
C217	C	-0.115173	-0.550181	-0.398671
C218	C	-0.112702	-0.640053	-0.419525
H219	H	-0.032936	-0.522378	-0.364987
H220	H	0.014806	-0.502672	-0.411727
H221	H	-0.166529	-0.546814	-0.372633
H222	H	-0.118816	-0.527131	-0.419374
H223	H	-0.061333	-0.643425	-0.445568
H224	H	-0.109073	-0.663122	-0.398825
H225	H	-0.166033	-0.674585	-0.428343
C226	C	0.307241	-0.447276	0.041490
C227	C	0.312881	-0.405301	0.085872
C228	C	0.226959	-0.399780	0.115769
H229	H	0.267309	-0.506124	0.039568
H230	H	0.285070	-0.413138	0.033590
H231	H	0.335041	-0.439439	0.093770
H232	H	0.352797	-0.346447	0.087808
H233	H	0.204787	-0.365642	0.107869
H234	H	0.187033	-0.458631	0.113844
H235	H	0.230775	-0.371293	0.145885
C236	C	0.561570	-0.372819	-0.591099
C237	C	0.646635	-0.388123	-0.616305
C238	C	0.685925	-0.346906	-0.651311
H239	H	0.568120	-0.309891	-0.578529
H240	H	0.523971	-0.397422	-0.610324
H241	H	0.684226	-0.363516	-0.597082
H242	H	0.640111	-0.451041	-0.628885
H243	H	0.648326	-0.371509	-0.670536
H244	H	0.692469	-0.283981	-0.638736
H245	H	0.743642	-0.357291	-0.668419
C246	C	-0.254218	0.032915	0.357347
C247	C	-0.227231	-0.046787	0.336119
C248	C	-0.177572	-0.050854	0.359874
H249	H	-0.290725	0.033995	0.387639
H250	H	-0.202315	0.083140	0.357563
H251	H	-0.279126	-0.096998	0.335908
H252	H	-0.190712	-0.047885	0.305829
H253	H	-0.125669	-0.000630	0.360090
H254	H	-0.214085	-0.049771	0.390165
H255	H	-0.159248	-0.104927	0.345471
H256	H	0.245727	-0.224039	-0.533582
C257	C	0.126316	-0.543898	-0.809832
C258	C	0.117023	-0.607624	-0.851036
C259	C	0.187464	-0.649004	-0.870965
H260	H	0.124106	-0.572939	-0.790056
H261	H	0.182620	-0.499693	-0.815184
H262	H	0.060734	-0.651822	-0.845682
H263	H	0.119243	-0.578606	-0.870823
H264	H	0.243768	-0.604799	-0.876318
H265	H	0.185248	-0.678040	-0.851186
H266	H	0.181173	-0.692241	-0.898926
H267	H	0.001660	-0.441639	-0.159184
C268	C	0.732292	-0.705805	-0.005303
C269	C	0.688825	-0.735480	0.033703
C270	C	0.738266	-0.784539	0.035078
H271	H	0.791356	-0.668493	-0.004689
H272	H	0.736237	-0.756281	-0.031443
H273	H	0.684890	-0.685012	0.059837
H274	H	0.629764	-0.772804	0.033098
H275	H	0.742211	-0.835015	0.008938
H276	H	0.797328	-0.747221	0.035691
H277	H	0.708776	-0.804687	0.061542
H278	H	0.634089	-0.467700	-0.572564
C279	C	-0.735963	0.093753	0.260638
C280	C	-0.812551	0.020056	0.264010
C281	C	-0.853096	0.019527	0.309444
H282	H	-0.753258	0.147907	0.278246
H283	H	-0.694219	0.089215	0.271561
H284	H	-0.854287	0.024601	0.253092
H285	H	-0.795281	-0.034110	0.246411
H286	H	-0.811352	0.014989	0.320367
H287	H	-0.870385	0.073684	0.327048
H288	H	-0.905060	-0.030480	0.311737
C289	C	-0.161908	-0.372892	-0.729511
C290	C	-0.217864	-0.409326	-0.757581
C291	C	-0.288459	-0.368182	-0.737816
H292	H	-0.137629	-0.309976	-0.725858
H293	H	-0.196130	-0.383200	-0.700715
H294	H	-0.183647	-0.399011	-0.786369
H295	H	-0.242165	-0.472238	-0.761236
H296	H	-0.322681	-0.378490	-0.709020
H297	H	-0.264172	-0.305268	-0.734164
H298	H	-0.326438	-0.392902	-0.756857
H299	H	-0.449229	0.177371	-0.300885
C300	C	-0.272849	0.043020	0.213397
C301	C	-0.334587	0.049666	0.197427
C302	C	-0.294313	0.050058	0.151967
H303	H	-0.255640	-0.011176	0.195783
H304	H	-0.220863	0.092988	0.211009
H305	H	-0.386557	-0.000298	0.199811
H306	H	-0.351801	0.103860	0.215028
H307	H	-0.242326	0.100026	0.149579
H308	H	-0.277105	-0.004139	0.134357
H309	H	-0.336192	0.054576	0.141127
H310	H	-0.503619	0.071273	-0.373665
H311	H	-0.037089	-0.236932	-0.761035
C312	C	0.001090	-0.690952	-0.290369
C313	C	0.079696	-0.719060	-0.316870
C314	C	0.077231	-0.760704	-0.361773
H315	H	-0.002530	-0.649458	-0.301861
H316	H	-0.050283	-0.741644	-0.291360
H317	H	0.131055	-0.668375	-0.315881
H318	H	0.083332	-0.760564	-0.305392
H319	H	0.025858	-0.811395	-0.362764
H320	H	0.073609	-0.719204	-0.373260
H321	H	0.130560	-0.779787	-0.379758
H322	H	-0.490116	0.084434	0.126151
H323	H	0.702991	-0.441593	-0.009870
H324	H	0.468233	-0.679598	-0.011487
H325	H	0.413699	-0.532573	-0.457601
H326	H	0.468064	-0.679625	-0.511379
C327	C	0.104370	-0.286545	-0.276661
C328	C	0.168063	-0.263164	-0.254184
C329	C	0.227753	-0.178876	-0.257666
H330	H	0.071518	-0.242656	-0.263199
H331	H	0.134521	-0.289125	-0.307735
H332	H	0.137915	-0.260578	-0.223115
H333	H	0.200936	-0.307030	-0.267640
H334	H	0.257904	-0.181456	-0.288740
H335	H	0.194894	-0.134994	-0.244205
H336	H	0.270981	-0.163005	-0.242420
H337	H	0.496488	-0.236853	-0.027824
H338	H	0.550886	-0.383867	-0.081621
H339	H	-0.574318	0.196197	0.271049
C340	C	-0.767656	0.090830	-0.383194
C341	C	-0.724185	0.167670	-0.398617
C342	C	-0.773615	0.171760	-0.422482
H343	H	-0.826724	0.093653	-0.363743
H344	H	-0.771593	0.038658	-0.408380
H345	H	-0.720259	0.219829	-0.373434
H346	H	-0.665121	0.164864	-0.418074
H347	H	-0.777552	0.119589	-0.447668
H348	H	-0.832681	0.174581	-0.403028
H349	H	-0.744123	0.223891	-0.432953
C350	C	-0.049483	-0.210653	-0.892957
C351	C	0.026725	-0.136405	-0.895308
C352	C	0.023716	-0.087280	-0.919788
H353	H	-0.102583	-0.190359	-0.878177
H354	H	-0.050101	-0.247991	-0.922753
H355	H	0.027334	-0.099073	-0.865518
H356	H	0.079837	-0.156674	-0.910091
H357	H	0.023098	-0.124618	-0.949583
H358	H	-0.029387	-0.066992	-0.905006
H359	H	0.075425	-0.036902	-0.921390
C360	C	-0.286202	0.029587	-0.286472
C361	C	-0.260949	-0.050407	-0.312252
C362	C	-0.220553	-0.050303	-0.357748
H363	H	-0.234160	0.079471	-0.288915
H364	H	-0.327986	0.034022	-0.297407
H365	H	-0.219168	-0.054833	-0.301320
H366	H	-0.312975	-0.100305	-0.309823
H367	H	-0.262337	-0.045868	-0.368683
H368	H	-0.168514	-0.000415	-0.360186
H369	H	-0.203421	-0.104581	-0.375246
H370	H	-0.738384	0.080845	-0.251490
H371	H	0.702857	-0.441654	-0.509785
C372	C	-0.692948	-0.062062	-0.265934
C373	C	-0.725358	-0.037601	-0.290647
C374	C	-0.811349	-0.094837	-0.292271
H375	H	-0.732921	-0.057092	-0.235976
H376	H	-0.689317	-0.122456	-0.280239
H377	H	-0.728994	0.022778	-0.276341
H378	H	-0.685409	-0.042576	-0.320607
H379	H	-0.807718	-0.155231	-0.306576
H380	H	-0.851315	-0.089863	-0.262312
H381	H	-0.833346	-0.078254	-0.309042
C382	C	0.732076	-0.705965	-0.505248
C383	C	0.677885	-0.793670	-0.505252
C384	C	0.727297	-0.842856	-0.503958
H385	H	0.750555	-0.677796	-0.478510
H386	H	0.783871	-0.708018	-0.531113
H387	H	0.626106	-0.791613	-0.479389
H388	H	0.659404	-0.821864	-0.531988
H389	H	0.779093	-0.844910	-0.529823
H390	H	0.745774	-0.814679	-0.477219
H391	H	0.690539	-0.902371	-0.503965
H392	H	-0.586315	-0.066836	-0.224702
C393	C	-0.342603	0.172778	-0.259768
C394	C	-0.318132	0.235177	-0.283442
C395	C	-0.232161	0.292623	-0.281932
H396	H	-0.299943	0.138432	-0.273360
H397	H	-0.343549	0.203779	-0.229089
H398	H	-0.317179	0.204179	-0.314115
H399	H	-0.360768	0.269543	-0.269855
H400	H	-0.233107	0.323624	-0.251254
H401	H	-0.189509	0.258270	-0.295524
H402	H	-0.215550	0.334973	-0.297991
H403	H	0.634201	-0.467612	-0.072637
C404	C	-0.556052	0.041007	-0.145917
C405	C	-0.557604	0.117911	-0.108614
C406	C	-0.646714	0.123796	-0.086571
H407	H	-0.592033	-0.010959	-0.135815
H408	H	-0.579463	0.044815	-0.166373
H409	H	-0.534205	0.114096	-0.088162
H410	H	-0.521642	0.169891	-0.118704
H411	H	-0.670124	0.127605	-0.107026
H412	H	-0.682687	0.071826	-0.076471
H413	H	-0.647777	0.175979	-0.061261
C414	C	-0.139864	-0.469292	-0.682119
C415	C	-0.228061	-0.511292	-0.685228
C416	C	-0.287789	-0.516854	-0.642310
H417	H	-0.136831	-0.410455	-0.661750
H418	H	-0.123593	-0.503432	-0.671268
H419	H	-0.244328	-0.477152	-0.696072
H420	H	-0.231124	-0.570134	-0.705588
H421	H	-0.271518	-0.550994	-0.631460
H422	H	-0.284747	-0.458014	-0.621945
H423	H	-0.347636	-0.545358	-0.644415
C424	C	0.014461	-0.705779	-0.146312
C425	C	0.092799	-0.735573	-0.168284
C426	C	0.096246	-0.784569	-0.143872
H427	H	-0.037174	-0.756200	-0.144606
H428	H	0.015311	-0.668372	-0.116553
H429	H	0.091942	-0.772978	-0.198035
H430	H	0.144447	-0.685171	-0.169990
H431	H	0.097096	-0.747162	-0.114112
H432	H	0.044608	-0.834985	-0.142167
H433	H	0.149402	-0.804783	-0.158773
C434	C	-0.542684	0.053945	0.353787
C435	C	-0.576998	0.059419	0.323528
C436	C	-0.666228	0.064989	0.345428
H437	H	-0.544051	0.106060	0.379122
H438	H	-0.578576	0.001880	0.363827
H439	H	-0.541116	0.111478	0.313495
H440	H	-0.575654	0.007310	0.298192
H441	H	-0.702120	0.012924	0.355468
H442	H	-0.667587	0.117105	0.370763
H443	H	-0.689524	0.068696	0.324900
C444	C	0.232381	-0.210686	-0.034002
C445	C	0.275902	-0.180851	-0.072959
C446	C	0.226407	-0.131835	-0.074326
H447	H	0.228305	-0.160282	-0.007839
H448	H	0.173358	-0.248089	-0.034673
H449	H	0.334908	-0.143450	-0.072284
H450	H	0.279978	-0.231236	-0.099129
H451	H	0.167384	-0.169238	-0.074997
H452	H	0.222334	-0.081436	-0.048161
H453	H	0.255924	-0.111594	-0.100760
H454	H	0.330406	-0.448859	-0.466617
H455	H	-0.142704	-0.524425	-0.305055
C456	C	0.014401	-0.705817	-0.646297
C457	C	0.092732	-0.735623	-0.668263
C458	C	0.096156	-0.784629	-0.643848
H459	H	-0.037240	-0.756233	-0.644594
H460	H	0.015245	-0.668414	-0.616536
H461	H	0.091880	-0.773025	-0.698015
H462	H	0.144386	-0.685226	-0.669965
H463	H	0.097000	-0.747226	-0.614088
H464	H	0.044512	-0.835040	-0.642147
H465	H	0.149306	-0.804851	-0.658747
C466	C	-0.267831	0.019673	-0.142431
C467	C	-0.311366	-0.057081	-0.126939
C468	C	-0.261877	-0.061196	-0.103111
H469	H	-0.263747	0.071876	-0.117279
H470	H	-0.208811	0.016729	-0.161935
H471	H	-0.370370	-0.054129	-0.107437
H472	H	-0.315451	-0.109297	-0.152082
H473	H	-0.202858	-0.064141	-0.122614
H474	H	-0.257796	-0.008990	-0.077961
H475	H	-0.291404	-0.113278	-0.092600
C476	C	0.250602	-0.499193	-0.029169
C477	C	0.174003	-0.503870	0.008710
C478	C	0.133409	-0.593654	0.009496
H479	H	0.292290	-0.522239	-0.027473
H480	H	0.233322	-0.533878	-0.056026
H481	H	0.191285	-0.469198	0.035561
H482	H	0.132295	-0.480843	0.007023
H483	H	0.116128	-0.628339	-0.017361
H484	H	0.175103	-0.616692	0.011191
H485	H	0.081427	-0.596840	0.035194
H486	H	0.001632	-0.679646	-0.778160
H487	H	0.496441	-0.236915	-0.527803
C488	C	-0.754136	0.103974	0.116602
C489	C	-0.710665	0.180800	0.101167
C490	C	-0.760086	0.184858	0.077288
H491	H	-0.813208	0.106796	0.136047
H492	H	-0.758062	0.051791	0.091420
H493	H	-0.706749	0.232970	0.126345
H494	H	-0.651597	0.177995	0.081716
H495	H	-0.764013	0.132675	0.052107
H496	H	-0.819156	0.187677	0.096736
H497	H	-0.730594	0.236979	0.066809
H498	H	-0.518563	-0.039000	0.162804
H499	H	0.413839	-0.532573	0.042316
C500	C	-0.423722	-0.078890	0.197664
C501	C	-0.441483	-0.129731	0.156150
C502	C	-0.402638	-0.201819	0.136654
H503	H	-0.448799	-0.115832	0.217465
H504	H	-0.360238	-0.056355	0.192790
H505	H	-0.504955	-0.152266	0.161025
H506	H	-0.416405	-0.092815	0.136338
H507	H	-0.339153	-0.179284	0.131781
H508	H	-0.427717	-0.238754	0.156459
H509	H	-0.414676	-0.236319	0.108483
H510	H	0.261638	-0.474883	-0.529387
C511	C	-0.036532	-0.499329	-0.885695
C512	C	-0.115136	-0.550201	-0.898688
C513	C	-0.112670	-0.640074	-0.919545
H514	H	-0.032915	-0.522416	-0.864998
H515	H	0.014842	-0.502700	-0.911735
H516	H	-0.166497	-0.546836	-0.872651
H517	H	-0.118769	-0.527144	-0.919390
H518	H	-0.061296	-0.643445	-0.945585
H519	H	-0.109051	-0.663151	-0.898845
H520	H	-0.165997	-0.674600	-0.928366
H521	H	-0.123560	-0.607102	-0.263443
H522	H	0.088099	-0.448874	-0.845454
