data_functionalizedCrystal
_audit_creation_method	'MofGen! by Chris Wilmer'
_symmetry_space_group_name_H-M	'P1'
_symmetry_Int_Tables_number	1
_symmetry_cell_setting	triclinic
loop_
_symmetry_equiv_pos_as_xyz
  x,y,z
_cell_length_a	18.101398
_cell_length_b	18.101397
_cell_length_c	11.169409
_cell_angle_alpha	90.039881
_cell_angle_beta	90.018516
_cell_angle_gamma	90.018618
loop_
_atom_site_label
_atom_site_type_symbol
_atom_site_fract_x
_atom_site_fract_y
_atom_site_fract_z
Zn1	Zn	1.132206	-0.294806	0.678438
Zn2	Zn	1.132116	-0.418673	0.477728
Zn3	Zn	1.008356	-0.294845	0.477777
Zn4	Zn	1.008339	-0.418606	0.678378
O5	O	1.070254	-0.356733	0.578080
O6	O	1.235827	-0.311249	0.651818
O7	O	1.115669	-0.402291	0.309785
O8	O	1.024830	-0.191207	0.504440
O9	O	1.235761	-0.402253	0.504358
O10	O	1.115822	-0.191178	0.651865
O11	O	1.024743	-0.311315	0.309821
O12	O	0.904721	-0.311251	0.504382
O13	O	1.024801	-0.402140	0.846336
O14	O	0.904708	-0.402178	0.651763
O15	O	1.115805	-0.311184	0.846380
O16	O	1.115652	-0.522297	0.504299
O17	O	1.024713	-0.522248	0.651716
C18	C	0.877844	-0.356712	0.578072
C19	C	0.795530	-0.356721	0.578097
C20	C	0.644821	-0.356735	0.578095
C21	C	0.613484	-0.414032	0.670679
C22	C	0.527866	-0.414264	0.670405
C23	C	0.496439	-0.356749	0.578095
C24	C	0.527490	-0.377588	0.451455
C25	C	0.613135	-0.377996	0.451990
C26	C	0.613287	-0.278458	0.611045
C27	C	0.527637	-0.278886	0.613834
C28	C	0.412579	-0.356755	0.578087
C29	C	0.728681	-0.356731	0.578094
C30	C	1.070191	-0.549143	0.578022
C31	C	1.070232	-0.631457	0.578037
C32	C	1.070326	-0.930548	0.578147
C33	C	1.127383	-0.899223	0.485148
C34	C	1.127580	-0.813604	0.485389
C35	C	1.070279	-0.782166	0.578091
C36	C	1.091441	-0.813161	0.704595
C37	C	1.091882	-0.898806	0.704089
C38	C	0.991956	-0.899058	0.545736
C39	C	0.992343	-0.813409	0.542912
C40	C	1.070251	-0.698306	0.578068
C41	C	1.070356	-1.014408	0.578179
C42	C	1.263416	-0.356754	0.578089
C43	C	1.345730	-0.356763	0.578093
C44	C	1.070311	-0.356650	0.891123
C45	C	1.070335	-0.356615	1.024523
C46	C	1.070338	-0.163571	0.578165
C47	C	1.070374	-0.081257	0.578201
C48	C	1.070240	-0.356761	0.266255
C49	C	1.070360	-0.356588	0.132856
H50	H	0.506245	-0.233942	0.551371
H51	H	0.633553	-0.235772	0.543618
H52	H	0.634914	-0.259421	0.701835
Br53	Br	0.646393	-0.473354	0.405603
H54	H	1.185632	-0.793060	0.506832
Br55	Br	1.105458	-0.778677	0.329068
H56	H	0.507346	-0.263166	0.707034
Br57	Br	1.223614	-0.935000	0.520471
H58	H	0.506873	-0.401263	0.764291
H59	H	0.506019	-0.434174	0.423133
H60	H	1.149168	-0.918724	0.731544
Br61	Br	1.025617	-0.933343	0.823501
Br62	Br	1.024289	-0.779228	0.823195
Br63	Br	0.647880	-0.392637	0.827649
Br64	Br	1.185851	-0.777315	0.751137
Br65	Br	1.105588	-0.933646	0.328331
H66	H	0.634982	-0.471706	0.649083
H67	H	0.507354	-0.472271	0.648544
H68	H	0.972705	-0.920727	0.455090
Br69	Br	0.647689	-0.311441	0.333036
Br70	Br	0.965741	-0.779655	0.387748
Br71	Br	0.917671	-0.777754	0.647542
H72	H	0.507132	-0.337135	0.380578
H73	H	0.949444	-0.919315	0.613471
