data_functionalizedCrystal
_audit_creation_method	'MofGen! by Chris Wilmer'
_symmetry_space_group_name_H-M	'P1'
_symmetry_Int_Tables_number	1
_symmetry_cell_setting	triclinic
loop_
_symmetry_equiv_pos_as_xyz
  x,y,z
_cell_length_a	6.394989
_cell_length_b	10.654562
_cell_length_c	9.130313
_cell_angle_alpha	89.996930
_cell_angle_beta	90.001748
_cell_angle_gamma	85.493907
loop_
_atom_site_label
_atom_site_type_symbol
_atom_site_fract_x
_atom_site_fract_y
_atom_site_fract_z
O1	O	0.293559	1.670934	-0.121885
O2	O	0.321488	1.305753	-0.121866
O3	O	0.003535	1.493527	-0.121877
O4	O	0.611512	1.483160	-0.121874
O5	O	0.003543	1.493525	0.121721
O6	O	0.321497	1.305751	0.121733
O7	O	0.293567	1.670932	0.121714
Cu8	Cu	0.307533	1.488341	0.143966
Cu9	Cu	0.307523	1.488344	-0.144118
O10	O	0.611521	1.483158	0.121725
C11	C	0.319436	1.258933	-0.000064
C12	C	0.313284	1.119425	-0.000057
C13	C	0.310419	1.053863	0.132717
C14	C	0.304655	0.922779	0.132692
C15	C	0.304631	0.922832	-0.132892
C16	C	0.310379	1.053914	-0.132866
C17	C	0.310443	1.053831	0.286050
C18	C	0.304679	0.922748	0.286026
C19	C	0.689368	1.485209	-0.000081
C20	C	0.925694	1.491473	-0.000086
C21	C	0.295619	1.717752	-0.000091
C22	C	0.301772	1.857260	-0.000108
N23	N	0.307539	1.488348	0.346588
N24	N	0.307500	1.488346	-0.346741
C25	C	0.166797	1.571517	0.423235
C26	C	0.166772	1.571513	0.576572
C27	C	0.448249	1.405169	0.576602
C28	C	0.448262	1.405167	0.423267
C29	C	0.004295	1.667559	0.423220
C30	C	0.004270	1.667555	0.576556
H31	H	0.166062	1.098561	0.344933
H32	H	0.449068	0.877990	0.344892
N33	N	0.512270	1.095159	0.349062
H34	H	0.605557	1.018714	0.379493
H35	H	0.479798	1.150586	0.437184
H36	H	0.312680	1.107292	-0.240984
N37	N	0.600023	1.315442	0.340595
H38	H	0.689160	1.262749	0.412441
H39	H	0.693158	1.364968	0.276971
N40	N	0.600017	1.315452	0.659305
H41	H	0.578650	1.328068	0.768073
H42	H	0.748464	1.332297	0.632518
N43	N	-0.208403	1.636900	0.368072
H44	H	-0.271572	1.709041	0.306604
H45	H	-0.303169	1.623189	0.454137
N46	N	0.071701	1.789048	0.360199
H47	H	0.104257	1.847751	0.442529
H48	H	-0.045113	1.829910	0.297895
N49	N	-0.196761	1.625045	0.639544
H50	H	-0.216453	1.536577	0.605417
H51	H	-0.318936	1.683565	0.605366
N52	N	0.051707	1.795889	0.631683
H53	H	0.183375	1.787841	0.693166
H54	H	-0.069486	1.832578	0.693066
N55	N	0.301492	0.852164	-0.276124
H56	H	0.428382	0.789652	-0.282060
H57	H	0.304102	0.913671	-0.360152
H58	H	0.152312	0.891545	0.333604
