data_functionalizedCrystal
_audit_creation_method	'MofGen! by Chris Wilmer'
_symmetry_space_group_name_H-M	'P1'
_symmetry_Int_Tables_number	1
_symmetry_cell_setting	triclinic
loop_
_symmetry_equiv_pos_as_xyz
  x,y,z
_cell_length_a	19.288864
_cell_length_b	15.072220
_cell_length_c	19.288865
_cell_angle_alpha	90.006383
_cell_angle_beta	83.136245
_cell_angle_gamma	90.026328
loop_
_atom_site_label
_atom_site_type_symbol
_atom_site_fract_x
_atom_site_fract_y
_atom_site_fract_z
O1	O	0.921357	0.074077	0.086643
O2	O	1.421357	0.574077	0.586643
O3	O	0.719096	0.074018	0.098332
O4	O	1.219096	0.574018	0.598332
O5	O	0.826071	0.074032	-0.008643
O6	O	1.326071	0.574032	0.491357
O7	O	0.814382	0.074063	0.193618
O8	O	1.314382	0.574063	0.693618
O9	O	0.826045	-0.073534	-0.008637
O10	O	1.326045	0.426466	0.491363
O11	O	0.719070	-0.073547	0.098338
O12	O	1.219070	0.426453	0.598338
O13	O	0.921331	-0.073488	0.086649
O14	O	1.421331	0.426512	0.586649
Zn15	Zn	0.820196	-0.096947	0.092494
Zn16	Zn	1.320196	0.403053	0.592494
Zn17	Zn	0.820231	0.097477	0.092486
Zn18	Zn	1.320231	0.597477	0.592486
O19	O	0.814356	-0.073502	0.193624
O20	O	1.314356	0.426498	0.693624
C21	C	0.693207	0.000227	0.097959
C22	C	1.193207	0.500227	0.597959
C23	C	0.616103	0.000204	0.096830
C24	C	1.116103	0.500204	0.596830
N25	N	0.820177	-0.229636	0.092499
N26	N	1.320177	0.270364	0.592499
C27	C	0.571407	0.000228	0.159598
C28	C	1.071407	0.500228	0.659598
C29	C	0.498960	0.000237	0.158537
C30	C	0.998960	0.500237	0.658537
C31	C	0.471212	0.000241	0.094705
C32	C	0.971212	0.500241	0.594705
C33	C	0.515918	0.000212	0.031929
C34	C	1.015918	0.500212	0.531929
C35	C	0.588364	0.000194	0.032991
C36	C	1.088364	0.500194	0.532991
C37	C	0.362959	0.051962	0.044523
C38	C	0.862959	0.551962	0.544523
C39	C	0.290515	0.051986	0.043464
C40	C	0.790515	0.551986	0.543464
C41	C	0.247767	0.000294	0.091425
C42	C	0.747767	0.500294	0.591425
C43	C	0.277470	-0.051410	0.140458
C44	C	0.777470	0.448590	0.640458
C45	C	0.349915	-0.051428	0.141521
C46	C	0.849915	0.448572	0.641521
C47	C	0.392658	0.000261	0.093546
C48	C	0.892658	0.500261	0.593546
C49	C	0.124514	0.000327	0.153047
C50	C	0.624514	0.500327	0.653047
C51	C	0.052066	0.000331	0.151984
C52	C	0.552066	0.500331	0.651984
C53	C	0.069026	0.000315	0.025374
C54	C	0.569026	0.500315	0.525374
C55	C	0.141473	0.000302	0.026439
C56	C	0.641473	0.500302	0.526439
C57	C	0.169212	0.000312	0.090278
C58	C	0.669212	0.500312	0.590278
C59	C	0.820229	-0.588837	0.092484
C60	C	1.320229	-0.088837	0.592484
C61	C	0.762798	-0.551238	0.149533
C62	C	1.262798	-0.051238	0.649533
C63	C	0.762929	-0.448412	0.149740
C64	C	1.262929	0.051588	0.649740
C65	C	0.820203	-0.410633	0.092492
C66	C	1.320203	0.089367	0.592492
C67	C	0.892628	-0.447900	0.108094
C68	C	1.392628	0.052100	0.608094
C69	C	0.892306	-0.550758	0.108499
C70	C	1.392306	-0.050758	0.608499
C71	C	0.805882	-0.550954	0.019661
C72	C	1.305882	-0.050954	0.519661
C73	C	0.804218	-0.448091	0.020152
C74	C	1.304218	0.051909	0.520152
C75	C	0.820193	-0.309920	0.092494
C76	C	1.320193	0.190080	0.592494
C77	C	0.820245	-0.689550	0.092482
C78	C	1.320245	-0.189550	0.592482
C79	C	0.947220	0.000304	0.087022
C80	C	1.447220	0.500304	0.587022
C81	C	1.024324	0.000334	0.088151
C82	C	1.524324	0.500334	0.588151
C83	C	0.825682	0.000246	-0.034516
C84	C	1.325682	0.500246	0.465484
C85	C	0.824553	0.000238	-0.111620
C86	C	1.324553	0.500238	0.388380
N87	N	0.820255	0.230165	0.092476
N88	N	1.320255	0.730165	0.592476
C89	C	0.887321	0.000252	-0.156316
C90	C	1.387321	0.500252	0.343684
C91	C	0.886260	0.000266	-0.228763
C92	C	1.386260	0.500266	0.271237
C93	C	0.822428	0.000248	-0.256511
C94	C	1.322428	0.500248	0.243489
C95	C	0.759652	0.000239	-0.211805
C96	C	1.259652	0.500239	0.288195
C97	C	0.760714	0.000234	-0.139359
C98	C	1.260714	0.500234	0.360641
C99	C	0.772239	-0.051456	-0.364796
C100	C	1.272239	0.448544	0.135204
C101	C	0.771179	-0.051456	-0.437241
C102	C	1.271179	0.448544	0.062759
C103	C	0.819148	0.000267	-0.479956
C104	C	1.319148	0.500267	0.020044
C105	C	0.868189	0.051979	-0.450220
C106	C	1.368189	0.551979	0.049780
C107	C	0.869251	0.051974	-0.377775
C108	C	1.369251	0.551974	0.122225
C109	C	0.821269	0.000254	-0.335065
C110	C	1.321269	0.500254	0.164935
C111	C	0.880770	0.000297	-0.603209
C112	C	1.380770	0.500297	-0.103209
C113	C	0.879707	0.000316	-0.675657
C114	C	1.379707	0.500316	-0.175657
C115	C	0.753097	0.000280	-0.658697
C116	C	1.253097	0.500280	-0.158697
C117	C	0.754162	0.000270	-0.586250
C118	C	1.254162	0.500270	-0.086250
C119	C	0.818001	0.000274	-0.558511
C120	C	1.318001	0.500274	-0.058511
C121	C	0.814745	0.000285	0.219497
C122	C	1.314745	0.500285	0.719497
C123	C	0.815874	0.000299	0.296601
C124	C	1.315874	0.500299	0.796601
H125	H	0.593987	0.000238	0.211580
H126	H	1.093987	0.500238	0.711580
H127	H	0.397760	0.094060	0.005466
H128	H	0.897760	0.594060	0.505466
H129	H	0.733175	-0.093580	-0.330022
H130	H	1.233175	0.406420	0.169978
H131	H	0.374097	-0.093530	0.181443
H132	H	0.874097	0.406470	0.681443
H133	H	0.701123	0.000270	-0.681288
H134	H	1.201123	0.500270	-0.181288
H135	H	0.936364	-0.575626	0.068573
H136	H	1.436364	-0.075626	0.568573
O137	O	0.691607	-0.415033	0.137483
O138	O	1.191607	0.084967	0.637483
H139	H	0.652082	-0.439751	0.179607
H140	H	1.152082	0.060249	0.679607
O141	O	0.949621	0.000322	-0.573284
O142	O	1.449621	0.500322	-0.073284
H143	H	0.979768	-0.059806	-0.591267
H144	H	1.479768	0.440194	-0.091267
H145	H	0.709599	0.000222	-0.102967
H146	H	1.209599	0.500222	0.397033
O147	O	0.733645	-0.415850	0.004457
O148	O	1.233645	0.084150	0.504457
H149	H	0.710048	-0.373317	0.047989
H150	H	1.210048	0.126683	0.547989
O151	O	0.718292	-0.107234	-0.469312
O152	O	1.218292	0.392766	0.030688
H153	H	0.664824	-0.085958	-0.448223
H154	H	1.164824	0.414042	0.051777
H155	H	0.707679	0.000226	-0.234401
H156	H	1.207679	0.500226	0.265599
O157	O	0.861353	-0.583164	-0.036578
O158	O	1.361353	-0.083164	0.463422
H159	H	0.898964	-0.625946	-0.012824
H160	H	1.398964	-0.125946	0.487176
H161	H	0.907249	0.094097	-0.484999
H162	H	1.407249	0.594097	0.015001
O163	O	0.450737	0.000273	0.226238
O164	O	0.950737	0.500273	0.726238
H165	H	0.482198	0.000283	0.270807
H166	H	0.982198	0.500283	0.770807
H167	H	0.493322	0.000227	-0.020044
H168	H	0.993322	0.500227	0.479956
H169	H	0.242665	-0.093502	0.179513
H170	H	0.742665	0.406498	0.679513
O171	O	0.922137	0.107754	-0.345704
O172	O	1.422137	0.607754	0.154296
H173	H	0.914817	0.099054	-0.288153
H174	H	1.414817	0.599054	0.211847
H175	H	0.939303	0.000259	-0.133736
H176	H	1.439303	0.500259	0.366264
H177	H	0.708782	-0.576017	0.140426
H178	H	1.208782	-0.076017	0.640426
O179	O	0.856058	-0.414058	-0.038698
O180	O	1.356058	0.085942	0.461302
H181	H	0.894198	-0.369719	-0.017211
H182	H	1.394198	0.130281	0.482789
H183	H	0.930822	0.000332	-0.712049
H184	H	1.430822	0.500332	-0.212049
H185	H	0.771809	-0.577064	0.203274
H186	H	1.271809	-0.077064	0.703274
H187	H	0.905614	-0.422117	0.160589
H188	H	1.405614	0.077883	0.660589
O189	O	0.636574	0.000173	-0.034714
O190	O	1.136574	0.500173	0.465286
H191	H	0.669952	-0.059984	-0.037256
H192	H	1.169952	0.440016	0.462744
H193	H	0.015674	0.000346	0.203099
H194	H	0.515674	0.500346	0.703099
H195	H	0.937375	0.000281	-0.265162
H196	H	1.437375	0.500281	0.234838
O197	O	0.686459	0.000232	-0.538039
O198	O	1.186459	0.500232	-0.038039
H199	H	0.655904	0.060363	-0.547873
H200	H	1.155904	0.560363	-0.047873
O201	O	0.154442	0.000320	0.221897
O202	O	0.654442	0.500320	0.721897
H203	H	0.111187	0.000321	0.265367
H204	H	0.611187	0.500321	0.765367
O205	O	0.775037	-0.415778	0.221325
O206	O	1.275037	0.084222	0.721325
H207	H	0.780829	-0.473464	0.255929
H208	H	1.280829	0.026536	0.755929
H209	H	0.046435	0.000373	-0.026600
H210	H	0.546435	0.500373	0.473400
H211	H	0.177866	0.000288	-0.024674
H212	H	0.677866	0.500288	0.475326
H213	H	0.754230	-0.576963	0.004602
H214	H	1.254230	-0.076963	0.504602
H215	H	0.904983	-0.574726	0.161601
H216	H	1.404983	-0.074726	0.661601
O217	O	0.258479	0.107737	-0.009426
O218	O	0.758479	0.607737	0.490574
H219	H	0.300375	0.143660	-0.042610
H220	H	0.800375	0.643660	0.457390
H221	H	0.936376	-0.423424	0.067638
H222	H	1.436376	0.076576	0.567638
