data_functionalizedCrystal
_audit_creation_method	'MofGen! by Chris Wilmer'
_symmetry_space_group_name_H-M	'P1'
_symmetry_Int_Tables_number	1
_symmetry_cell_setting	triclinic
loop_
_symmetry_equiv_pos_as_xyz
  x,y,z
_cell_length_a	13.897449
_cell_length_b	12.645330
_cell_length_c	13.897441
_cell_angle_alpha	90.026402
_cell_angle_beta	89.979267
_cell_angle_gamma	89.972534
loop_
_atom_site_label
_atom_site_type_symbol
_atom_site_fract_x
_atom_site_fract_y
_atom_site_fract_z
Zn1	Zn	1.474646	0.421969	-0.545409
Zn2	Zn	1.807979	0.755303	-0.212076
Zn3	Zn	2.141312	1.088636	0.121257
Zn4	Zn	1.474516	0.599265	-0.384122
Zn5	Zn	1.807849	0.932598	-0.050789
Zn6	Zn	2.141182	1.265932	0.282544
Zn7	Zn	1.313335	0.422020	-0.384128
Zn8	Zn	1.646668	0.755353	-0.050794
Zn9	Zn	1.980001	1.088687	0.282539
Zn10	Zn	1.313293	0.599195	-0.545375
Zn11	Zn	1.646626	0.932529	-0.212042
Zn12	Zn	1.979959	1.265862	0.121292
O13	O	1.393947	0.510612	-0.464759
O14	O	1.727281	0.843946	-0.131425
O15	O	2.060614	1.177279	0.201908
O16	O	1.609610	0.445496	-0.524026
O17	O	1.942943	0.778829	-0.190693
O18	O	2.276277	1.112163	0.142640
O19	O	1.453098	0.575803	-0.249141
O20	O	1.786431	0.909137	0.084192
O21	O	2.119765	1.242470	0.417525
O22	O	1.334805	0.273666	-0.405538
O23	O	1.668138	0.606999	-0.072205
O24	O	2.001472	0.940333	0.261128
O25	O	1.609515	0.575754	-0.405530
O26	O	1.942848	0.909088	-0.072196
O27	O	2.276181	1.242421	0.261137
O28	O	1.453319	0.273629	-0.524031
O29	O	1.786653	0.606962	-0.190698
O30	O	2.119986	0.940295	0.142635
O31	O	1.334679	0.445582	-0.249145
O32	O	1.668012	0.778915	0.084188
O33	O	2.001346	1.112249	0.417521
O34	O	1.178348	0.445515	-0.405505
O35	O	1.511681	0.778848	-0.072172
O36	O	1.845014	1.112181	0.261161
O37	O	1.334733	0.575636	-0.680361
O38	O	1.668067	0.908969	-0.347028
O39	O	2.001400	1.242302	-0.013695
O40	O	1.178317	0.575684	-0.523973
O41	O	1.511650	0.909018	-0.190640
O42	O	1.844983	1.242351	0.142694
O43	O	1.453279	0.445429	-0.680386
O44	O	1.786612	0.778762	-0.347053
O45	O	2.119945	1.112095	-0.013720
O46	O	1.453057	0.747603	-0.405497
O47	O	1.786390	1.080936	-0.072163
O48	O	2.119724	1.414270	0.261170
O49	O	1.334607	0.747552	-0.523968
O50	O	1.667941	1.080885	-0.190635
O51	O	2.001274	1.414218	0.142699
C52	C	1.143333	0.510598	-0.464737
C53	C	1.476666	0.843932	-0.131403
C54	C	1.810000	1.177265	0.201930
C55	C	1.036119	0.510618	-0.464750
C56	C	1.369452	0.843951	-0.131417
C57	C	1.702786	1.177284	0.201917
C58	C	0.839824	0.510621	-0.464775
C59	C	1.173157	0.843955	-0.131442
C60	C	1.506491	1.177288	0.201891
C61	C	0.949056	0.510616	-0.464759
C62	C	1.282390	0.843949	-0.131425
C63	C	1.615723	1.177283	0.201908
C64	C	1.393840	0.786042	-0.464749
C65	C	1.727173	1.119375	-0.131416
C66	C	2.060506	1.452709	0.201918
C67	C	1.393882	0.903872	-0.464777
C68	C	1.727215	1.237205	-0.131444
C69	C	2.060549	1.570539	0.201889
C70	C	1.319650	1.071448	-0.539540
C71	C	1.652983	1.404781	-0.206207
C72	C	1.986316	1.738115	0.127127
C73	C	1.319287	0.948889	-0.539298
C74	C	1.652620	1.282222	-0.205965
C75	C	1.985953	1.615555	0.127369
C76	C	1.366357	0.948472	-0.363122
C77	C	1.699690	1.281805	-0.029789
C78	C	2.033023	1.615138	0.303544
C79	C	1.365887	1.071070	-0.363578
C80	C	1.699220	1.404403	-0.030245
C81	C	2.032554	1.737737	0.303089
C82	C	1.496042	1.070958	-0.490850
C83	C	1.829375	1.404291	-0.157517
C84	C	2.162709	1.737624	0.175816
C85	C	1.495433	0.948351	-0.493071
C86	C	1.828766	1.281684	-0.159738
C87	C	2.162099	1.615017	0.173595
C88	C	1.645540	0.510627	-0.464781
C89	C	1.978873	0.843961	-0.131448
C90	C	2.312207	1.177294	0.201885
C91	C	1.752754	0.510634	-0.464791
C92	C	2.086087	0.843967	-0.131458
C93	C	2.419421	1.177300	0.201876
C94	C	1.394016	0.510519	-0.716352
C95	C	1.727349	0.843852	-0.383018
C96	C	2.060682	1.177185	-0.049685
C97	C	1.394045	0.510479	-0.823566
C98	C	1.727378	0.843812	-0.490232
C99	C	2.060712	1.177145	-0.156899
C100	C	1.394048	1.234107	-0.464793
C101	C	1.727381	1.567440	-0.131460
C102	C	2.060714	1.900774	0.201874
C103	C	1.394004	1.116277	-0.464817
C104	C	1.727337	1.449610	-0.131483
C105	C	2.060670	1.782944	0.201850
C106	C	1.394071	0.510407	-1.019861
C107	C	1.727404	0.843740	-0.686528
C108	C	2.060738	1.177074	-0.353194
C109	C	1.394054	0.510450	-0.910628
C110	C	1.727387	0.843783	-0.577295
C111	C	2.060720	1.177116	-0.243962
C112	C	1.393935	0.510629	-0.214144
C113	C	1.727268	0.843963	0.119189
C114	C	2.060601	1.177296	0.452522
C115	C	1.394092	0.510370	-0.106931
C116	C	1.727426	0.843704	0.226402
C117	C	2.060759	1.177037	0.559736
H118	H	1.336508	0.918731	-0.614674
H119	H	1.669842	1.252064	-0.281341
H120	H	2.003175	1.585397	0.051992
Cl121	Cl	1.527485	0.903340	-0.608577
Cl122	Cl	1.860818	1.236673	-0.275243
Cl123	Cl	2.194151	1.570006	0.058090
Cl124	Cl	1.581575	1.115736	-0.406840
Cl125	Cl	1.914908	1.449070	-0.073507
Cl126	Cl	2.248241	1.782403	0.259826
Cl127	Cl	1.203590	1.119182	-0.513273
Cl128	Cl	1.536923	1.452516	-0.179940
Cl129	Cl	1.870257	1.785849	0.153394
H130	H	1.336705	1.100856	-0.615165
H131	H	1.670039	1.434189	-0.281831
H132	H	2.003372	1.767523	0.051502
H133	H	1.553756	0.917701	-0.442609
H134	H	1.887090	1.251035	-0.109276
H135	H	2.220423	1.584368	0.224057
Cl136	Cl	1.252405	0.901224	-0.328454
Cl137	Cl	1.585738	1.234558	0.004880
Cl138	Cl	1.919072	1.567891	0.338213
Cl139	Cl	1.202506	0.903749	-0.512672
Cl140	Cl	1.535839	1.237082	-0.179339
Cl141	Cl	1.869172	1.570415	0.153995
Cl142	Cl	1.250726	1.115377	-0.329529
Cl143	Cl	1.584059	1.448710	0.003804
Cl144	Cl	1.917393	1.782043	0.337137
H145	H	1.417694	1.100729	-0.306005
H146	H	1.751027	1.434062	0.027329
H147	H	2.084360	1.767395	0.360662
Cl148	Cl	1.447328	0.903459	-0.274810
Cl149	Cl	1.780661	1.236792	0.058523
Cl150	Cl	2.113995	1.570126	0.391857
H151	H	1.521141	1.101798	-0.563718
H152	H	1.854475	1.435131	-0.230385
H153	H	2.187808	1.768464	0.102949
