data_functionalizedCrystal
_audit_creation_method	'MofGen! by Chris Wilmer'
_symmetry_space_group_name_H-M	'P1'
_symmetry_Int_Tables_number	1
_symmetry_cell_setting	triclinic
loop_
_symmetry_equiv_pos_as_xyz
  x,y,z
_cell_length_a	16.974885
_cell_length_b	16.992695
_cell_length_c	17.766277
_cell_angle_alpha	89.993690
_cell_angle_beta	93.642662
_cell_angle_gamma	87.023153
loop_
_atom_site_label
_atom_site_type_symbol
_atom_site_fract_x
_atom_site_fract_y
_atom_site_fract_z
O1	O	1.055447	0.099901	0.001639
O2	O	1.388780	0.433234	0.334972
O3	O	1.722114	0.766567	0.668306
O4	O	0.826049	0.112636	-0.012324
O5	O	1.159382	0.445969	0.321010
O6	O	1.492716	0.779302	0.654343
O7	O	0.939828	-0.007873	-0.005392
O8	O	1.273162	0.325460	0.327941
O9	O	1.606495	0.658793	0.661274
O10	O	0.941668	0.220410	-0.005292
O11	O	1.275001	0.553743	0.328041
O12	O	1.608334	0.887076	0.661374
O13	O	0.939807	-0.007880	0.119795
O14	O	1.273140	0.325454	0.453128
O15	O	1.606473	0.658787	0.786461
O16	O	0.826027	0.112629	0.112863
O17	O	1.159361	0.445963	0.446197
O18	O	1.492694	0.779296	0.779530
O19	O	1.055425	0.099895	0.126826
O20	O	1.388758	0.433228	0.460159
O21	O	1.722092	0.766561	0.793493
Cu22	Cu	0.940724	0.106261	0.131275
Cu23	Cu	1.274058	0.439595	0.464609
Cu24	Cu	1.607391	0.772928	0.797942
Cu25	Cu	0.940750	0.106269	-0.016773
Cu26	Cu	1.274083	0.439602	0.316560
Cu27	Cu	1.607417	0.772935	0.649894
O28	O	0.941646	0.220404	0.119895
O29	O	1.274979	0.553737	0.453228
O30	O	1.608312	0.887070	0.786561
C31	C	0.796550	0.112149	0.048475
C32	C	1.129883	0.445483	0.381808
C33	C	1.463216	0.778816	0.715142
C34	C	0.708683	0.110700	0.043127
C35	C	1.042016	0.444033	0.376460
C36	C	1.375350	0.777366	0.709794
C37	C	0.214090	0.102515	0.005647
C38	C	0.547423	0.435848	0.338980
C39	C	0.880756	0.769181	0.672313
C40	C	0.296650	0.103877	0.010682
C41	C	0.629983	0.437210	0.344015
C42	C	0.963316	0.770543	0.677349
C43	C	0.337910	0.104560	0.081440
C44	C	0.671243	0.437894	0.414773
C45	C	1.004576	0.771227	0.748106
C46	C	0.296606	0.103874	0.147167
C47	C	0.629939	0.437207	0.480500
C48	C	0.963272	0.770540	0.813833
C49	C	0.214047	0.102506	0.142131
C50	C	0.547381	0.435839	0.475464
C51	C	0.880714	0.769173	0.808797
C52	C	0.584821	0.108645	0.103818
C53	C	0.918154	0.441979	0.437151
C54	C	1.251487	0.775312	0.770485
C55	C	0.667385	0.110015	0.108849
C56	C	1.000718	0.443349	0.442182
C57	C	1.334051	0.776682	0.775516
C58	C	0.667423	0.110017	-0.027636
C59	C	1.000756	0.443350	0.305697
C60	C	1.334090	0.776684	0.639030
C61	C	0.584863	0.108654	-0.032666
C62	C	0.918196	0.441987	0.300667
C63	C	1.251530	0.775321	0.634001
C64	C	0.543566	0.107963	0.033061
C65	C	0.876900	0.441297	0.366394
C66	C	1.210233	0.774630	0.699728
N67	N	0.422299	0.105955	0.086588
N68	N	0.755633	0.439288	0.419921
N69	N	1.088966	0.772622	0.753255
N70	N	0.459179	0.106563	0.027912
N71	N	0.792512	0.439896	0.361245
N72	N	1.125845	0.773230	0.694579
C73	C	0.937451	-0.037086	0.057057
C74	C	1.270785	0.296247	0.390390
C75	C	1.604118	0.629580	0.723724
C76	C	0.930392	-0.124123	0.056627
C77	C	1.263725	0.209211	0.389961
C78	C	1.597059	0.542544	0.723294
C79	C	0.998506	-0.174439	0.060774
C80	C	1.331840	0.158895	0.394107
C81	C	1.665173	0.492228	0.727441
C82	C	0.991868	-0.256218	0.060363
C83	C	1.325202	0.077115	0.393696
C84	C	1.658535	0.410449	0.727029
C85	C	0.917116	-0.287680	0.055810
C86	C	1.250449	0.045654	0.389144
C87	C	1.583782	0.378987	0.722477
C88	C	0.848996	-0.237357	0.051661
C89	C	1.182330	0.095976	0.384994
C90	C	1.515663	0.429309	0.718328
C91	C	0.855635	-0.155580	0.052067
C92	C	1.188968	0.177754	0.385400
C93	C	1.522301	0.511087	0.718733
C94	C	0.889601	-0.531247	0.054125
C95	C	1.222935	-0.197914	0.387458
C96	C	1.556268	0.135420	0.720792
C97	C	0.882968	-0.613031	0.053722
C98	C	1.216301	-0.279698	0.387055
C99	C	1.549635	0.053636	0.720389
C100	C	1.025841	-0.631886	0.062422
C101	C	1.359174	-0.298553	0.395756
C102	C	1.692507	0.034781	0.729089
C103	C	1.032473	-0.550106	0.062832
C104	C	1.365806	-0.216773	0.396166
C105	C	1.699139	0.116561	0.729499
C106	C	0.964353	-0.499791	0.058679
C107	C	1.297687	-0.166457	0.392012
C108	C	1.631020	0.166876	0.725346
N109	N	0.910329	-0.371271	0.055392
N110	N	1.243662	-0.037938	0.388726
N111	N	1.576996	0.295396	0.722059
N112	N	0.971141	-0.416201	0.059092
N113	N	1.304474	-0.082868	0.392425
N114	N	1.637807	0.250466	0.725758
C115	C	1.084924	0.100381	0.066026
C116	C	1.418258	0.433714	0.399359
C117	C	1.751591	0.767048	0.732692
C118	C	1.172791	0.101831	0.071369
C119	C	1.506125	0.435164	0.404702
C120	C	1.839458	0.768497	0.738035
C121	C	0.944023	0.249617	0.057444
C122	C	1.277356	0.582950	0.390777
C123	C	1.610689	0.916283	0.724110
C124	C	0.951082	0.336653	0.057869
C125	C	1.284416	0.669986	0.391202
C126	C	1.617749	1.003320	0.724535
N127	N	0.940712	0.106256	0.235405
N128	N	1.274045	0.439589	0.568738
N129	N	1.607379	0.772923	0.902072
N130	N	0.940768	0.106268	-0.120902
N131	N	1.274101	0.439601	0.212431
N132	N	1.607435	0.772935	0.545764
C133	C	0.991112	0.052921	0.277862
C134	C	1.324446	0.386254	0.611196
C135	C	1.657779	0.719587	0.944529
C136	C	0.991117	0.052917	0.356664
C137	C	1.324450	0.386250	0.689998
C138	C	1.657783	0.719584	1.023331
C139	C	0.940729	0.106262	0.393007
C140	C	1.274062	0.439595	0.726340
C141	C	1.607396	0.772929	1.059673
C142	C	0.890319	0.159601	0.350539
C143	C	1.223652	0.492935	0.683873
C144	C	1.556985	0.826268	1.017206
C145	C	0.890310	0.159598	0.271738
C146	C	1.223643	0.492932	0.605072
C147	C	1.556977	0.826265	0.938405
C148	C	0.934882	0.177680	0.517485
C149	C	1.268215	0.511013	0.850818
C150	C	1.601548	0.844346	1.184152
C151	C	0.934896	0.177684	0.596285
C152	C	1.268229	0.511017	0.929618
C153	C	1.601563	0.844350	1.262951
C154	C	0.940751	0.106272	0.636054
C155	C	1.274084	0.439605	0.969388
C156	C	1.607417	0.772938	1.302721
C157	C	0.946608	0.034852	0.597015
C158	C	1.279941	0.368186	0.930349
C159	C	1.613275	0.701519	1.263682
C160	C	0.946599	0.034849	0.518215
C161	C	1.279933	0.368182	0.851548
C162	C	1.613266	0.701516	1.184881
C163	C	0.940732	0.106271	0.478452
C164	C	1.274066	0.439604	0.811786
C165	C	1.607399	0.772938	1.145119
C166	C	0.991159	0.052928	0.763958
C167	C	1.324492	0.386261	1.097291
C168	C	1.657825	0.719595	1.430625
C169	C	0.991157	0.052923	0.842761
C170	C	1.324491	0.386257	1.176094
C171	C	1.657824	0.719590	1.509428
C172	C	0.890363	0.159615	0.836635
C173	C	1.223697	0.492948	1.169968
C174	C	1.557030	0.826281	1.503301
C175	C	0.890360	0.159612	0.757833
C176	C	1.223694	0.492946	1.091166
C177	C	1.557027	0.826279	1.424499
C178	C	0.940762	0.106270	0.721499
C179	C	1.274096	0.439603	1.054833
C180	C	1.607429	0.772937	1.388166
H181	H	0.180501	0.101964	-0.051972
H182	H	0.513835	0.435297	0.281361
H183	H	0.847168	0.768630	0.614695
H184	H	1.093344	-0.524496	0.066539
H185	H	1.426678	-0.191163	0.399873
H186	H	1.760011	0.142170	0.733206
H187	H	0.330272	0.104429	-0.042836
H188	H	0.663605	0.437762	0.290497
H189	H	0.996938	0.771096	0.623831
H190	H	1.032151	0.009484	0.248282
H191	H	1.365484	0.342818	0.581615
H192	H	1.698817	0.676151	0.914949
C193	C	0.928441	0.256244	0.473746
C194	C	1.261774	0.589577	0.807080
C195	C	1.595108	0.922910	1.140413
N196	N	0.923590	0.315416	0.440803
N197	N	1.256923	0.648750	0.774137
N198	N	1.590257	0.982083	1.107470
H199	H	1.081299	-0.672861	0.065802
H200	H	1.414633	-0.339528	0.399135
H201	H	1.747966	-0.006194	0.732469
C202	C	0.834976	0.218343	0.711131
C203	C	1.168309	0.551676	1.044465
C204	C	1.501643	0.885010	1.377798
N205	N	0.793276	0.262599	0.675957
N206	N	1.126610	0.595932	1.009291
N207	N	1.459943	0.929266	1.342624
C208	C	0.539484	0.107890	-0.110505
C209	C	0.872817	0.441223	0.222828
C210	C	1.206151	0.774556	0.556162
N211	N	0.505305	0.107312	-0.169135
N212	N	0.838638	0.440645	0.164199
N213	N	1.171972	0.773978	0.497532
H214	H	0.788131	-0.262980	0.047950
H215	H	1.121464	0.070353	0.381283
H216	H	1.454797	0.403687	0.714616
H217	H	1.032160	0.009483	0.391239
H218	H	1.365494	0.342817	0.724573
H219	H	1.698827	0.676150	1.057906
C220	C	0.834888	0.218278	0.390517
C221	C	1.168222	0.551611	0.723850
C222	C	1.501555	0.884945	1.057184
N223	N	0.793133	0.262472	0.420628
N224	N	1.126467	0.595805	0.753961
N225	N	1.459800	0.929139	1.087295
C226	C	0.341992	0.104658	0.225001
C227	C	0.675325	0.437992	0.558334
C228	C	1.008659	0.771325	0.891668
N229	N	0.376175	0.105265	0.283628
N230	N	0.709509	0.438598	0.616961
N231	N	1.042842	0.771932	0.950294
C232	C	0.834900	0.218308	0.225036
C233	C	1.168233	0.551641	0.558369
C234	C	1.501566	0.884975	0.891703
N235	N	0.793177	0.262542	0.189859
N236	N	1.126511	0.595875	0.523193
N237	N	1.459844	0.929209	0.856526
H238	H	1.059378	-0.148830	0.064486
H239	H	1.392711	0.184504	0.397819
H240	H	1.726045	0.517837	0.731152
H241	H	0.701056	0.110578	-0.081147
H242	H	1.034389	0.443912	0.252186
H243	H	1.367722	0.777245	0.585519
C244	C	0.539404	0.107910	0.176120
C245	C	0.872737	0.441243	0.509454
C246	C	1.206070	0.774576	0.842787
N247	N	0.505192	0.107363	0.230582
N248	N	0.838525	0.440696	0.563915
N249	N	1.171859	0.774030	0.897249
H250	H	1.047334	-0.297183	0.063741
H251	H	1.380668	0.036151	0.397074
H252	H	1.714001	0.369484	0.730408
H253	H	0.700976	0.110577	0.166471
H254	H	1.034309	0.443911	0.499805
H255	H	1.367642	0.777244	0.833138
C256	C	0.168619	0.101757	0.214430
C257	C	0.501953	0.435090	0.547764
C258	C	0.835286	0.768423	0.881097
N259	N	0.134404	0.101191	0.268889
N260	N	0.467737	0.434524	0.602222
N261	N	0.801071	0.767857	0.935556
C262	C	0.800731	-0.647636	0.048708
C263	C	1.134064	-0.314303	0.382041
C264	C	1.467397	0.019031	0.715375
N265	N	0.738793	-0.673701	0.044931
N266	N	1.072126	-0.340368	0.378265
N267	N	1.405459	-0.007034	0.711598
C268	C	0.953032	-0.043711	0.475274
C269	C	1.286365	0.289623	0.808608
C270	C	1.619698	0.622956	1.141941
N271	N	0.957872	-0.102883	0.442932
N272	N	1.291205	0.230450	0.776265
N273	N	1.624539	0.563784	1.109598
C274	C	0.814667	-0.475911	0.049552
C275	C	1.148000	-0.142577	0.382886
C276	C	1.481334	0.190756	0.716219
N277	N	0.758223	-0.434228	0.046106
N278	N	1.091556	-0.100895	0.379439
N279	N	1.424889	0.232439	0.712772
C280	C	0.780703	-0.100232	0.047507
C281	C	1.114037	0.233101	0.380840
C282	C	1.447370	0.566435	0.714174
N283	N	0.724263	-0.058545	0.044070
N284	N	1.057596	0.274789	0.377404
N285	N	1.390929	0.608122	0.710737
H286	H	1.032196	0.009491	0.734374
H287	H	1.365530	0.342824	1.067707
H288	H	1.698863	0.676158	1.401041
H289	H	1.032197	0.009487	0.877331
H290	H	1.365530	0.342821	1.210664
H291	H	1.698864	0.676154	1.543997
C292	C	0.953047	-0.043708	0.640756
C293	C	1.286380	0.289626	0.974089
C294	C	1.619713	0.622959	1.307423
N295	N	0.957897	-0.102877	0.673705
N296	N	1.291230	0.230456	1.007038
N297	N	1.624563	0.563790	1.340371
C298	C	0.834936	0.218296	0.876607
C299	C	1.168270	0.551629	1.209940
C300	C	1.501603	0.884962	1.543273
N301	N	0.793187	0.262496	0.906717
N302	N	1.126520	0.595829	1.240051
N303	N	1.459854	0.929162	1.573384
H304	H	0.930132	0.235837	0.628064
H305	H	1.263465	0.569171	0.961398
H306	H	1.596798	0.902504	1.294731
