data_functionalizedCrystal
_audit_creation_method	'MofGen! by Chris Wilmer'
_symmetry_space_group_name_H-M	'P1'
_symmetry_Int_Tables_number	1
_symmetry_cell_setting	triclinic
loop_
_symmetry_equiv_pos_as_xyz
  x,y,z
_cell_length_a	16.959455
_cell_length_b	18.050589
_cell_length_c	16.959447
_cell_angle_alpha	89.973357
_cell_angle_beta	89.985678
_cell_angle_gamma	90.025168
loop_
_atom_site_label
_atom_site_type_symbol
_atom_site_fract_x
_atom_site_fract_y
_atom_site_fract_z
Zn1	Zn	1.208339	-0.295705	-0.446929
Zn2	Zn	1.208243	-0.419907	-0.314759
Zn3	Zn	1.076167	-0.295729	-0.314766
Zn4	Zn	1.076113	-0.419851	-0.446897
O5	O	1.142216	-0.357798	-0.380838
O6	O	1.318937	-0.312194	-0.429406
O7	O	1.190705	-0.403467	-0.204149
O8	O	1.093763	-0.191801	-0.332314
O9	O	1.318866	-0.403445	-0.332301
O10	O	1.190869	-0.191784	-0.429414
O11	O	1.093670	-0.312234	-0.204154
O12	O	0.965549	-0.312180	-0.332284
O13	O	1.093671	-0.403350	-0.557512
O14	O	0.965510	-0.403373	-0.429360
O15	O	1.190817	-0.312141	-0.557536
O16	O	1.190653	-0.523824	-0.332271
O17	O	1.093578	-0.523783	-0.429353
C18	C	0.936849	-0.357774	-0.380820
C19	C	0.848993	-0.357781	-0.380831
C20	C	0.477513	-0.310275	-0.330396
C21	C	0.477521	-0.405382	-0.431325
C22	C	0.560067	-0.405371	-0.431320
C23	C	0.601340	-0.357813	-0.380852
C24	C	0.560067	-0.310265	-0.330388
C25	C	0.601346	-0.452924	-0.481777
C26	C	0.683897	-0.452916	-0.481774
C27	C	0.725171	-0.405353	-0.431309
C28	C	0.683893	-0.357802	-0.380844
C29	C	0.725166	-0.310243	-0.330375
C30	C	0.683890	-0.262689	-0.279913
C31	C	0.601342	-0.262702	-0.279923
C32	C	0.807720	-0.405340	-0.431299
C33	C	0.807720	-0.310233	-0.330367
C34	C	1.142120	-0.550750	-0.380825
C35	C	1.142152	-0.633296	-0.380846
C36	C	1.089414	-0.832751	-0.433620
C37	C	1.070151	-0.882194	-0.361493
C38	C	1.142229	-0.784426	-0.380856
C39	C	1.161531	-0.882065	-0.452991
C40	C	1.142303	-0.930411	-0.380872
C41	C	1.122929	-0.832782	-0.308691
C42	C	1.214342	-0.832648	-0.400237
C43	C	1.195106	-0.882069	-0.328061
C44	C	1.142185	-0.700328	-0.380848
C45	C	1.142347	-1.014508	-0.380872
C46	C	1.348384	-0.357823	-0.380857
C47	C	1.436240	-0.357834	-0.380864
C48	C	1.142249	-0.357737	-0.587006
C49	C	1.142263	-0.357710	-0.674863
C50	C	1.142333	-0.164092	-0.380868
C51	C	1.142383	-0.081547	-0.380881
C52	C	1.091778	-0.405121	-1.046329
C53	C	1.192936	-0.310143	-1.046348
C54	C	1.192915	-0.310159	-0.963802
C55	C	1.142326	-0.357657	-0.922516
C56	C	1.091757	-0.405139	-0.963775
C57	C	1.243489	-0.262683	-0.922537
C58	C	1.243470	-0.262698	-0.839986
C59	C	1.192876	-0.310192	-0.798698
C60	C	1.142305	-0.357676	-0.839962
C61	C	1.091715	-0.405174	-0.798676
C62	C	1.041139	-0.452654	-0.839939
C63	C	1.041162	-0.452634	-0.922488
C64	C	1.192852	-0.310212	-0.716149
C65	C	1.091694	-0.405193	-0.716122
C66	C	1.142228	-0.357806	-0.175472
C67	C	1.142368	-0.357623	-0.087615
H68	H	0.717505	-0.223970	-0.238818
H69	H	0.717497	-0.491637	-0.522864
H70	H	1.044685	-0.811096	-0.478178
C71	C	0.988824	-0.911175	-0.339787
C72	C	0.933726	-0.886208	-0.395216
C73	C	0.858801	-0.912895	-0.375257
H74	H	0.974668	-0.893592	-0.288937
H75	H	0.989528	-0.963803	-0.339513
H76	H	0.933021	-0.833591	-0.395482
H77	H	0.947857	-0.903789	-0.446070
H78	H	0.859504	-0.965523	-0.374983
H79	H	0.844653	-0.895310	-0.324407
H80	H	0.821409	-0.895964	-0.412866
C81	C	1.295563	-0.803643	-0.422281
C82	C	1.315430	-0.828553	-0.497888
C83	C	1.390240	-0.801838	-0.518234
H84	H	1.333320	-0.821246	-0.385405
H85	H	1.295072	-0.751016	-0.421684
H86	H	1.315927	-0.881169	-0.498479
H87	H	1.277693	-0.810952	-0.534781
H88	H	1.389749	-0.749211	-0.517638
H89	H	1.427990	-0.819443	-0.481354
H90	H	1.403726	-0.818730	-0.569538
C91	C	0.852574	-0.457057	-0.485948
C92	C	0.899922	-0.504608	-0.441099
C93	C	0.941244	-0.552269	-0.491418
H94	H	0.884861	-0.428773	-0.520455
H95	H	0.816195	-0.485428	-0.515989
H96	H	0.936298	-0.476240	-0.411072
H97	H	0.867656	-0.532909	-0.406594
H98	H	0.904865	-0.580640	-0.521458
H99	H	0.973526	-0.523978	-0.525923
H100	H	0.973369	-0.584542	-0.460995
H101	H	1.284681	-0.224017	-0.956158
H102	H	0.443911	-0.444106	-0.472410
H103	H	1.106562	-0.811223	-0.247677
C104	C	1.183157	-0.910829	-0.534392
C105	C	1.127638	-0.885824	-0.589379
C106	C	1.147534	-0.912296	-0.664376
H107	H	1.183487	-0.963449	-0.533805
H108	H	1.233985	-0.893114	-0.548559
H109	H	1.076825	-0.903543	-0.575216
H110	H	1.127301	-0.833207	-0.589991
H111	H	1.198361	-0.894580	-0.678542
H112	H	1.147863	-0.964915	-0.663781
H113	H	1.109872	-0.895328	-0.701695
C114	C	1.298455	-0.211260	-0.795139
C115	C	1.349095	-0.253311	-0.747737
C116	C	1.399754	-0.205947	-0.706416
H117	H	1.268304	-0.178897	-0.762890
H118	H	1.328634	-0.182976	-0.831520
H119	H	1.318919	-0.281583	-0.711361
H120	H	1.379263	-0.285672	-0.779967
H121	H	1.429933	-0.177663	-0.742797
H122	H	1.369596	-0.173587	-0.674171
H123	H	1.434124	-0.234472	-0.674255
H124	H	1.239802	-0.903587	-0.283395
C125	C	0.556394	-0.504476	-0.536537
C126	C	0.475267	-0.494290	-0.525759
C127	C	0.433829	-0.541761	-0.576200
H128	H	0.569802	-0.554391	-0.524926
H129	H	0.569899	-0.493663	-0.589682
H130	H	0.461767	-0.505108	-0.472627
H131	H	0.461835	-0.444385	-0.537376
H132	H	0.447335	-0.530948	-0.629345
H133	H	0.447244	-0.591672	-0.564585
H134	H	0.378781	-0.534851	-0.568900
C135	C	1.036741	-0.456850	-0.671443
C136	C	0.992474	-0.498438	-0.725249
C137	C	0.941855	-0.546042	-0.684120
H138	H	1.002240	-0.428533	-0.639238
H139	H	1.066938	-0.489260	-0.639255
H140	H	0.962279	-0.466032	-0.757423
H141	H	1.026954	-0.526770	-0.757455
H142	H	0.972052	-0.578452	-0.651932
H143	H	0.907359	-0.517719	-0.651917
H144	H	0.911819	-0.574270	-0.720621
C145	C	0.986344	-0.504154	-0.967430
C146	C	0.997208	-0.493985	-1.048559
C147	C	0.946732	-0.541439	-1.089988
H148	H	0.933205	-0.493328	-0.954003
H149	H	0.997884	-0.554073	-0.953936
H150	H	0.985662	-0.444077	-1.062048
H151	H	1.050336	-0.504816	-1.062010
H152	H	0.958272	-0.591358	-1.076493
H153	H	0.893597	-0.530609	-1.076554
H154	H	0.954102	-0.534550	-1.145037
H155	H	1.234033	-0.271557	-0.682556
C156	C	1.247778	-0.258609	-1.091313
C157	C	1.236963	-0.268745	-1.172437
C158	C	1.287464	-0.221276	-1.213886
H159	H	1.300908	-0.269440	-1.077874
H160	H	1.236230	-0.208694	-1.077847
H161	H	1.248516	-0.318648	-1.185898
H162	H	1.183843	-0.257909	-1.185900
H163	H	1.275916	-0.171362	-1.200420
H164	H	1.340591	-0.232111	-1.200441
H165	H	1.280128	-0.228142	-1.268933
H166	H	0.999952	-0.491330	-0.806313
H167	H	0.567727	-0.223986	-0.238838
C168	C	0.852385	-0.258569	-0.275482
C169	C	0.798567	-0.216943	-0.231282
C170	C	0.839683	-0.169352	-0.180706
H171	H	0.884616	-0.226178	-0.305683
H172	H	0.884545	-0.286920	-0.240943
H173	H	0.766420	-0.188595	-0.265816
H174	H	0.766335	-0.249316	-0.201064
H175	H	0.871843	-0.197702	-0.146166
H176	H	0.871912	-0.136965	-0.210913
H177	H	0.803174	-0.141108	-0.150704
H178	H	0.443903	-0.271555	-0.289313
H179	H	1.050598	-0.443776	-1.079929
