data_functionalizedCrystal
_audit_creation_method	'MofGen! by Chris Wilmer'
_symmetry_space_group_name_H-M	'P1'
_symmetry_Int_Tables_number	1
_symmetry_cell_setting	triclinic
loop_
_symmetry_equiv_pos_as_xyz
  x,y,z
_cell_length_a	15.021413
_cell_length_b	11.792241
_cell_length_c	11.792253
_cell_angle_alpha	84.196007
_cell_angle_beta	90.014625
_cell_angle_gamma	89.990439
loop_
_atom_site_label
_atom_site_type_symbol
_atom_site_fract_x
_atom_site_fract_y
_atom_site_fract_z
O1	O	-0.073958	-1.506899	-0.155576
O2	O	0.426042	-1.006899	0.344424
O3	O	-0.073979	-1.176558	-0.171609
O4	O	0.426021	-0.676558	0.328391
O5	O	-0.073949	-1.349738	0.001577
O6	O	0.426051	-0.849738	0.501577
O7	O	-0.073987	-1.333720	-0.328762
O8	O	0.426013	-0.833720	0.171238
O9	O	0.074115	-1.349757	0.001601
O10	O	0.574115	-0.849757	0.501601
O11	O	0.074085	-1.176578	-0.171585
O12	O	0.574085	-0.676578	0.328415
O13	O	0.074107	-1.506918	-0.155553
O14	O	0.574107	-1.006918	0.344447
Zn15	Zn	0.097604	-1.341751	-0.163565
Zn16	Zn	0.597604	-0.841751	0.336435
Zn17	Zn	-0.097477	-1.341726	-0.163596
Zn18	Zn	0.402523	-0.841726	0.336404
O19	O	0.074077	-1.333739	-0.328739
O20	O	0.574077	-0.833739	0.171261
C21	C	0.000050	-1.134277	-0.170590
C22	C	0.500050	-0.634277	0.329410
C23	C	0.000043	-1.008263	-0.167576
C24	C	0.500043	-0.508263	0.332424
N25	N	-0.230614	-1.341709	-0.163608
N26	N	0.269386	-0.841709	0.336392
C27	C	0.000085	-1.348738	0.043880
C28	C	0.500085	-0.848738	0.543880
C29	C	0.000094	-1.345718	0.169893
C30	C	0.500094	-0.845718	0.669893
C31	C	-0.470306	-1.261479	-0.243526
C32	C	0.029694	-0.761479	0.256474
C33	C	-0.529633	-1.239078	-0.140748
C34	C	-0.029633	-0.739078	0.359252
C35	C	-0.412221	-1.341731	-0.163584
C36	C	0.087779	-0.841731	0.336416
C37	C	-0.529637	-1.364101	-0.266338
C38	C	-0.029637	-0.864101	0.233662
C39	C	-0.587645	-1.341750	-0.163570
C40	C	-0.087645	-0.841750	0.336430
C41	C	-0.470241	-1.319279	-0.060755
C42	C	0.029759	-0.819279	0.439245
C43	C	-0.470240	-1.444347	-0.186412
C44	C	0.029760	-0.944347	0.313588
C45	C	-0.529540	-1.421990	-0.083561
C46	C	-0.029540	-0.921990	0.416439
C47	C	-0.311164	-1.341717	-0.163594
C48	C	0.188836	-0.841717	0.336406
C49	C	-0.688701	-1.341765	-0.163548
C50	C	-0.188701	-0.841765	0.336452
N51	N	0.230742	-1.341776	-0.163544
N52	N	0.730742	-0.841776	0.336456
C53	C	0.000075	-1.549199	-0.156571
C54	C	0.500075	-1.049199	0.343429
C55	C	0.000077	-1.675213	-0.159586
C56	C	0.500077	-1.175213	0.340414
C57	C	0.000069	-0.777551	-0.162033
C58	C	0.500069	-0.277551	0.337967
C59	C	0.000054	-0.905936	-0.165112
C60	C	0.500054	-0.405936	0.334888
C61	C	0.000098	-1.343264	0.272229
C62	C	0.500098	-0.843264	0.772229
C63	C	0.000099	-1.340196	0.400616
C64	C	0.500099	-0.840196	0.900616
C65	C	0.000058	-1.334738	0.628959
C66	C	0.500058	-0.834738	1.128959
C67	C	0.000100	-1.337758	0.502946
C68	C	0.500100	-0.837758	1.002946
H69	H	-0.555726	-1.152308	-0.121431
H70	H	-0.055726	-0.652308	0.378569
H71	H	-0.444262	-1.300265	0.026168
H72	H	0.055738	-0.800265	0.526168
N73	N	-0.561957	-1.507140	0.001353
N74	N	-0.061957	-1.007140	0.501353
N75	N	-0.542726	-1.502137	0.103863
N76	N	-0.042726	-1.002137	0.603863
H77	H	-0.565621	-1.562270	0.163838
H78	H	-0.065621	-1.062270	0.663838
H79	H	-0.444131	-1.531090	-0.205768
H80	H	0.055869	-1.031090	0.294232
H81	H	-0.555710	-1.383028	-0.353244
H82	H	-0.055710	-0.883028	0.146756
H83	H	-0.444296	-1.193559	-0.311057
H84	H	0.055704	-0.693559	0.188943
