data_functionalizedCrystal
_audit_creation_method	'MofGen! by Chris Wilmer'
_symmetry_space_group_name_H-M	'P1'
_symmetry_Int_Tables_number	1
_symmetry_cell_setting	triclinic
loop_
_symmetry_equiv_pos_as_xyz
  x,y,z
_cell_length_a	19.121063
_cell_length_b	19.121141
_cell_length_c	21.395356
_cell_angle_alpha	92.464120
_cell_angle_beta	92.411537
_cell_angle_gamma	89.873858
loop_
_atom_site_label
_atom_site_type_symbol
_atom_site_fract_x
_atom_site_fract_y
_atom_site_fract_z
Zn1	Zn	-0.324937	-1.059881	-0.406931
Zn2	Zn	-0.442171	-1.054780	-0.306417
Zn3	Zn	-0.319944	-0.942635	-0.297518
Zn4	Zn	-0.437125	-0.937606	-0.406508
O5	O	-0.381044	-0.998726	-0.354344
O6	O	-0.344689	-1.157310	-0.397499
O7	O	-0.425979	-1.039873	-0.217558
O8	O	-0.222503	-0.962428	-0.308485
O9	O	-0.430820	-1.153562	-0.323651
O10	O	-0.226171	-1.048568	-0.388870
O11	O	-0.336180	-0.957481	-0.211020
O12	O	-0.331287	-0.843863	-0.308075
O13	O	-0.422221	-0.953857	-0.494242
O14	O	-0.417380	-0.840168	-0.388149
O15	O	-0.339797	-1.043692	-0.494553
O16	O	-0.539605	-1.034997	-0.323241
O17	O	-0.535898	-0.948910	-0.396778
C18	C	-0.373245	-0.816578	-0.347101
C19	C	-0.369925	-0.738654	-0.344018
C20	C	-0.413257	-0.700136	-0.384200
C21	C	-0.410128	-0.626919	-0.381305
C22	C	-0.363671	-0.592219	-0.338226
C23	C	-0.320335	-0.630742	-0.298043
C24	C	-0.323460	-0.703958	-0.300941
C25	C	-0.351985	-0.371248	-0.327398
C26	C	-0.348865	-0.298026	-0.324502
C27	C	-0.438658	-0.294208	-0.407765
C28	C	-0.441782	-0.367426	-0.410657
C29	C	-0.398443	-0.405942	-0.370476
C30	C	-0.360474	-0.517379	-0.335266
C31	C	-0.401637	-0.480781	-0.373440
C32	C	-0.563189	-0.990873	-0.360944
C33	C	-0.641115	-0.987578	-0.363791
C34	C	-0.679632	-1.030885	-0.326876
C35	C	-0.752851	-1.027790	-0.329558
C36	C	-0.787551	-0.981384	-0.369151
C37	C	-0.749029	-0.938074	-0.406069
C38	C	-0.675811	-0.941173	-0.403391
C39	C	-1.008526	-0.969786	-0.379155
C40	C	-1.081749	-0.966688	-0.381829
C41	C	-1.085566	-1.056405	-0.305318
C42	C	-1.012347	-1.059497	-0.302640
C43	C	-0.973831	-1.016191	-0.339561
C44	C	-0.862393	-0.978217	-0.371891
C45	C	-0.898991	-1.019361	-0.336824
C46	C	-0.198188	-1.006628	-0.347732
C47	C	-0.120266	-1.009996	-0.344915
C48	C	-0.381003	-0.998783	-0.517767
C49	C	-0.380986	-0.998807	-0.587409
C50	C	-0.388871	-0.181585	-0.361607
C51	C	-0.392197	-0.259509	-0.364683
C52	C	-0.334222	-0.955918	-0.616708
C53	C	-0.334209	-0.955916	-0.682143
C54	C	-0.380952	-0.998816	-0.718277
C55	C	-0.427724	-1.041708	-0.688970
C56	C	-0.427741	-1.041704	-0.623536
C57	C	-0.389164	-1.061747	-0.824669
C58	C	-0.389143	-1.061753	-0.890101
C59	C	-0.380906	-0.998830	-0.920096
C60	C	-0.372675	-0.935899	-0.884650
C61	C	-0.372691	-0.935894	-0.819216
C62	C	-0.380940	-0.998826	-0.789229
C63	C	-0.334126	-0.955935	-1.020347
C64	C	-0.334118	-0.955932	-1.085783
C65	C	-0.427629	-1.041730	-1.092609
C66	C	-0.427641	-1.041727	-1.027174
C67	C	-0.380885	-0.998830	-0.991047
C68	C	-0.381036	-0.998711	-0.191555
C69	C	-0.380862	-0.998831	-0.121912
H70	H	-0.322650	-0.489118	-0.300189
H71	H	-0.445415	-0.595561	-0.414025
C72	C	-0.398196	-1.130978	-0.929086
N73	N	-0.405016	-1.183120	-0.958447
C74	C	-0.464364	-0.738299	-0.431590
N75	N	-0.502858	-0.767041	-0.467288
C76	C	-0.633442	-0.893532	-0.444000
N77	N	-0.601530	-0.857649	-0.474590
C78	C	-0.398230	-1.130972	-0.791682
N79	N	-0.405060	-1.183111	-0.766836
C80	C	-0.795217	-1.075428	-0.288944
N81	N	-0.827127	-1.111309	-0.258351
H82	H	-0.465687	-1.076662	-1.122028
H83	H	-0.777287	-0.900292	-0.438310
C84	C	-0.900570	-0.927163	-0.415435
N85	N	-0.929327	-0.888708	-0.448231
C86	C	-0.282795	-0.908724	-0.576972
N87	N	-0.244062	-0.873176	-0.547042
C88	C	-0.641469	-1.081935	-0.283319
N89	N	-0.612727	-1.120388	-0.250511
C90	C	-0.282761	-0.908736	-0.714379
N91	N	-0.244009	-0.873201	-0.738658
H92	H	-0.984096	-1.097285	-0.270401
C93	C	-0.492892	-0.405590	-0.458044
N94	N	-0.531392	-0.434334	-0.493735
H95	H	-0.365991	-0.884654	-0.790359
H96	H	-0.465783	-1.076638	-0.718394
H97	H	-0.465820	-1.076632	-0.599681
C98	C	-0.363620	-0.866676	-0.917639
N99	N	-0.356801	-0.814539	-0.942490
H100	H	-0.296039	-0.921001	-1.109637
C101	C	-0.486323	-0.251835	-0.451966
N102	N	-0.522223	-0.219919	-0.485262
H103	H	-0.311026	-0.269776	-0.289425
C104	C	-0.275793	-0.746327	-0.256736
N105	N	-0.239888	-0.778238	-0.223441
C106	C	-0.452741	-0.518953	-0.420824
N107	N	-0.491235	-0.547710	-0.456511
C108	C	-1.127940	-1.104041	-0.264710
N109	N	-1.159856	-1.139924	-0.234123
H110	H	-0.316701	-0.402599	-0.294675
H111	H	-0.282505	-0.602484	-0.262970
H112	H	-1.109999	-0.928907	-0.414082
C113	C	-0.282701	-0.908741	-0.980605
N114	N	-0.243969	-0.873192	-0.950673
H115	H	-0.465719	-1.076654	-1.003318
H116	H	-0.977171	-0.934522	-0.409216
H117	H	-0.870736	-1.057148	-0.304590
