data_functionalizedCrystal
_audit_creation_method	'MofGen! by Chris Wilmer'
_symmetry_space_group_name_H-M	'P1'
_symmetry_Int_Tables_number	1
_symmetry_cell_setting	triclinic
loop_
_symmetry_equiv_pos_as_xyz
  x,y,z
_cell_length_a	17.077404
_cell_length_b	12.645330
_cell_length_c	17.077396
_cell_angle_alpha	89.974327
_cell_angle_beta	89.982940
_cell_angle_gamma	90.017917
loop_
_atom_site_label
_atom_site_type_symbol
_atom_site_fract_x
_atom_site_fract_y
_atom_site_fract_z
Zn1	Zn	1.200064	-0.422016	-0.443867
Zn2	Zn	1.199989	-0.599307	-0.312611
Zn3	Zn	1.068801	-0.422058	-0.312615
Zn4	Zn	1.068776	-0.599239	-0.443834
O5	O	1.134407	-0.510655	-0.378232
O6	O	1.309901	-0.445545	-0.426467
O7	O	1.182566	-0.575840	-0.202764
O8	O	1.086256	-0.273706	-0.330041
O9	O	1.309846	-0.575799	-0.330034
O10	O	1.182694	-0.273675	-0.426471
O11	O	1.086183	-0.445617	-0.202767
O12	O	0.958951	-0.445551	-0.330009
O13	O	1.086212	-0.575684	-0.553686
O14	O	0.958932	-0.575725	-0.426416
O15	O	1.182669	-0.445479	-0.553709
O16	O	1.182541	-0.747645	-0.330003
O17	O	1.086139	-0.747595	-0.426412
C18	C	0.930460	-0.510636	-0.378210
C19	C	0.843210	-0.510653	-0.378219
C20	C	1.134350	-0.786085	-0.378221
C21	C	1.134398	-0.903915	-0.378242
C22	C	0.802230	-0.578537	-0.428338
C23	C	0.720250	-0.578539	-0.428350
C24	C	0.679250	-0.510662	-0.378240
C25	C	0.720236	-0.442771	-0.328119
C26	C	0.802215	-0.442764	-0.328111
C27	C	0.549366	-0.442792	-0.328138
C28	C	0.467381	-0.442800	-0.328145
C29	C	0.467401	-0.578567	-0.428377
C30	C	0.549380	-0.578560	-0.428369
C31	C	0.590359	-0.510670	-0.378247
C32	C	1.074001	-1.071491	-0.439080
C33	C	1.073692	-0.948932	-0.438885
C34	C	1.112009	-0.948511	-0.295515
C35	C	1.111641	-1.071109	-0.295885
C36	C	1.217551	-1.071003	-0.399460
C37	C	1.217042	-0.948396	-0.401269
C38	C	1.339152	-0.510675	-0.378254
C39	C	1.426402	-0.510684	-0.378263
C40	C	1.134446	-0.510569	-0.582976
C41	C	1.134463	-0.510533	-0.670226
C42	C	1.134486	-0.234150	-0.378260
C43	C	1.134520	-0.116320	-0.378272
C44	C	1.184721	-0.578216	-1.046041
C45	C	1.184701	-0.578247	-0.964061
C46	C	1.134513	-0.510458	-0.923075
C47	C	1.084337	-0.442640	-0.964074
C48	C	1.084353	-0.442615	-1.046053
C49	C	1.084307	-0.442695	-0.793204
C50	C	1.084292	-0.442718	-0.711219
C51	C	1.184655	-0.578327	-0.711212
C52	C	1.184671	-0.578302	-0.793191
C53	C	1.134496	-0.510483	-0.834184
C54	C	1.134414	-0.510664	-0.174284
C55	C	1.134550	-0.510402	-0.087034
H56	H	0.835606	-0.633814	-0.469141
H57	H	1.153807	-1.100767	-0.249033
H58	H	1.012137	-0.919698	-0.424848
Br59	Br	0.664638	-0.670668	-0.496373
Br60	Br	1.245186	-0.899813	-0.502745
H61	H	1.225593	-0.633414	-1.079406
H62	H	1.012830	-1.102393	-0.425223
Br63	Br	1.296157	-0.897302	-0.332833
Br64	Br	0.411739	-0.350688	-0.260131
Br65	Br	1.097126	-1.120512	-0.541660
H66	H	1.154691	-0.919353	-0.248970
H67	H	0.582729	-0.387499	-0.287331
Br68	Br	1.252787	-0.670298	-0.848815
H69	H	1.050944	-1.099801	-0.277936
H70	H	1.043449	-0.387470	-0.826578
H71	H	0.582760	-0.633837	-0.469169
H72	H	1.051946	-0.917900	-0.277242
Br73	Br	1.252750	-0.670369	-0.655580
Br74	Br	1.097036	-0.898665	-0.541125
Br75	Br	1.252793	-0.670286	-0.908430
Br76	Br	1.016264	-0.350575	-1.101687
Br77	Br	1.251594	-1.122408	-0.498296
H78	H	1.262639	-1.099992	-0.355171
H79	H	0.686847	-0.387500	-0.287322
Br80	Br	1.016179	-0.350718	-0.655595
H81	H	1.043470	-0.387450	-0.930696
Br82	Br	0.411787	-0.670690	-0.496410
H83	H	0.835579	-0.387481	-0.287304
