data_functionalizedCrystal
_audit_creation_method	'MofGen! by Chris Wilmer'
_symmetry_space_group_name_H-M	'P1'
_symmetry_Int_Tables_number	1
_symmetry_cell_setting	triclinic
loop_
_symmetry_equiv_pos_as_xyz
  x,y,z
_cell_length_a	25.993477
_cell_length_b	25.993440
_cell_length_c	25.993511
_cell_angle_alpha	89.997521
_cell_angle_beta	59.999654
_cell_angle_gamma	60.000225
loop_
_atom_site_label
_atom_site_type_symbol
_atom_site_fract_x
_atom_site_fract_y
_atom_site_fract_z
O1	O	-0.368214	-0.438491	0.015296
O2	O	-0.262869	-0.363677	-0.015237
O3	O	-0.368212	-0.363677	0.090105
O4	O	-0.262871	-0.438491	-0.090047
O5	O	-0.453773	-0.278114	0.090098
O6	O	-0.348430	-0.278115	-0.015244
O7	O	-0.453775	-0.352928	0.015289
Zn8	Zn	-0.414687	-0.301937	0.000021
Zn9	Zn	-0.301957	-0.414669	0.000030
O10	O	-0.348432	-0.352929	-0.090053
C11	C	-0.255141	-0.184158	-0.022170
C12	C	-0.291260	-0.116296	-0.017795
C13	C	-0.285807	-0.215405	-0.022610
C14	C	-0.161977	-0.277321	-0.022178
C15	C	-0.098483	-0.309069	-0.017811
C16	C	-0.192784	-0.308427	-0.022618
C17	C	-0.255135	-0.277322	-0.022181
C18	C	-0.291247	-0.309070	-0.017818
C19	C	-0.192791	-0.215405	-0.022607
C20	C	-0.565863	-0.621962	0.037074
C21	C	-0.628211	-0.590717	0.037507
C22	C	-0.565859	-0.528803	0.037067
C23	C	-0.628207	-0.497700	0.037500
C24	C	-0.659018	-0.528804	0.037067
C25	C	-0.535193	-0.590716	0.037507
C26	C	-0.464938	-0.722646	0.029522
C27	C	-0.430643	-0.786267	0.024755
C28	C	-0.460084	-0.818176	0.022364
C29	C	-0.422900	-0.887159	0.017192
C30	C	-0.523824	-0.786470	0.024744
C31	C	-0.558119	-0.722851	0.029514
C32	C	-0.528674	-0.690942	0.031900
C33	C	-0.752145	-0.529048	0.029507
C34	C	-0.810995	-0.499724	0.024733
C35	C	-0.840508	-0.438377	0.022334
C36	C	-0.904314	-0.406581	0.017155
C37	C	-0.811181	-0.406343	0.024715
C38	C	-0.752337	-0.435664	0.029492
C39	C	-0.722819	-0.497016	0.031885
C40	C	-0.464930	-0.529044	0.029508
C41	C	-0.430626	-0.499722	0.024726
C42	C	-0.460063	-0.438375	0.022327
C43	C	-0.422875	-0.406577	0.017148
C44	C	-0.523798	-0.406344	0.024705
C45	C	-0.558102	-0.435664	0.029484
C46	C	-0.528666	-0.497014	0.031885
C47	C	-0.150799	-0.528799	-0.471156
C48	C	-0.088452	-0.590713	-0.502257
C49	C	-0.150799	-0.528800	-0.377996
C50	C	-0.088452	-0.590713	-0.409239
C51	C	-0.057643	-0.621958	-0.471151
C52	C	-0.181467	-0.497696	-0.409244
C53	C	-0.251725	-0.435432	-0.470919
C54	C	-0.286022	-0.405905	-0.500245
C55	C	-0.256585	-0.437738	-0.561592
C56	C	-0.293771	-0.405728	-0.593391
C57	C	-0.192845	-0.499096	-0.593623
C58	C	-0.158548	-0.528619	-0.564300
C59	C	-0.187991	-0.496787	-0.502947
C60	C	0.035480	-0.722643	-0.564515
C61	C	0.094329	-0.786264	-0.594038
C62	C	0.123844	-0.818173	-0.562204
C63	C	0.187649	-0.887156	-0.594210
C64	C	0.094520	-0.786466	-0.500846
C65	C	0.035677	-0.722847	-0.471326
C66	C	0.006157	-0.690938	-0.503160
C67	C	-0.251724	-0.435433	-0.277314
C68	C	-0.286026	-0.405910	-0.213691
C69	C	-0.256587	-0.437743	-0.181780
C70	C	-0.293772	-0.405734	-0.112797
C71	C	-0.192853	-0.499099	-0.213482
C72	C	-0.158551	-0.528624	-0.277103
C73	C	-0.187989	-0.496789	-0.309016
O74	O	0.074798	-0.352933	0.015296
O75	O	-0.074835	-0.278111	-0.015227
O76	O	-0.074828	-0.278128	0.090111
O77	O	0.074791	-0.352916	-0.090042
O78	O	-0.074823	-0.363696	0.090101
O79	O	-0.074829	-0.363679	-0.015237
O80	O	0.074803	-0.438501	0.015286
Zn81	Zn	-0.000012	-0.414675	0.000023
Zn82	Zn	-0.000019	-0.301936	0.000036
O83	O	0.074796	-0.438483	-0.090053
O84	O	-0.453797	0.090091	0.015329
O85	O	-0.348447	-0.090066	-0.015215
O86	O	-0.453787	0.015262	0.090132
O87	O	-0.348457	-0.015237	-0.090018
O88	O	-0.368224	0.015263	0.090135
O89	O	-0.262884	-0.090065	-0.015212
O90	O	-0.368234	0.090092	0.015332
Zn91	Zn	-0.301974	0.000013	0.000061
Zn92	Zn	-0.414707	0.000012	0.000056
O93	O	-0.262894	-0.015236	-0.090015
O94	O	0.358156	-1.090059	-0.636255
O95	O	0.208535	-0.909907	-0.561448
O96	O	0.208531	-1.015247	-0.561443
O97	O	0.358161	-0.984719	-0.636260
O98	O	0.208529	-1.015245	-0.647007
O99	O	0.208533	-0.909905	-0.647012
O100	O	0.358154	-1.090057	-0.721819
Zn101	Zn	0.283344	-0.999981	-0.698001
Zn102	Zn	0.283346	-0.999983	-0.585266
O103	O	0.358159	-0.984717	-0.721824
O104	O	-0.368212	-0.363677	-0.721856
O105	O	-0.262875	-0.438488	-0.647037
O106	O	-0.368216	-0.438489	-0.647036
O107	O	-0.262871	-0.363676	-0.721856
O108	O	-0.453778	-0.352925	-0.561477
O109	O	-0.348436	-0.352925	-0.561477
O110	O	-0.453774	-0.278113	-0.636296
Zn111	Zn	-0.414690	-0.301934	-0.585302
Zn112	Zn	-0.301959	-0.414667	-0.698031
O113	O	-0.348433	-0.278112	-0.636297
C114	C	-0.554666	-0.184166	0.277344
C115	C	-0.618156	-0.116307	0.309086
C116	C	-0.523858	-0.215411	0.308450
C117	C	-0.461510	-0.277325	0.184189
C118	C	-0.425396	-0.309070	0.116330
C119	C	-0.430843	-0.308428	0.215437
C120	C	-0.461510	-0.277324	0.277350
C121	C	-0.425397	-0.309070	0.309098
C122	C	-0.523857	-0.215412	0.215431
C123	C	-0.255130	-0.277363	0.277343
C124	C	-0.291242	-0.309114	0.309081
C125	C	-0.285803	-0.215450	0.308451
C126	C	-0.161971	-0.277351	0.184193
C127	C	-0.098477	-0.309090	0.116334
C128	C	-0.192785	-0.215438	0.215442
C129	C	-0.255136	-0.184199	0.277354
C130	C	-0.291255	-0.116340	0.309104
C131	C	-0.192779	-0.308460	0.215431
C132	C	-0.461509	0.022180	0.277376
C133	C	-0.425392	0.017806	0.309121
C134	C	-0.523855	0.022610	0.308478
C135	C	-0.461517	0.022195	0.184220
C136	C	-0.425407	0.017837	0.116362
C137	C	-0.523863	0.022624	0.215463
C138	C	-0.554668	0.022179	0.277374
C139	C	-0.618156	0.017804	0.309117
C140	C	-0.430846	0.022625	0.215465
C141	C	0.434156	-0.621914	-0.471151
C142	C	0.464823	-0.590664	-0.502248
C143	C	0.340991	-0.528763	-0.377990
C144	C	0.371799	-0.497654	-0.409228
C145	C	0.434150	-0.528751	-0.471140
C146	C	0.371805	-0.590676	-0.409239
C147	C	0.441479	-0.722605	-0.470920
C148	C	0.475579	-0.786226	-0.500249
C149	C	0.539323	-0.818129	-0.561594
C150	C	0.576301	-0.887111	-0.593396
C151	C	0.568972	-0.786416	-0.593622
C152	C	0.534873	-0.722797	-0.564296
C153	C	0.471129	-0.690894	-0.502945
C154	C	0.535079	-0.528981	-0.564498
C155	C	0.569374	-0.499652	-0.594017
C156	C	0.539931	-0.438305	-0.562180
C157	C	0.577115	-0.406502	-0.594182
C158	C	0.476187	-0.406277	-0.500823
C159	C	0.441892	-0.435604	-0.471307
C160	C	0.471340	-0.496956	-0.503144
C161	C	0.247863	-0.529017	-0.277312
C162	C	0.189015	-0.499702	-0.213689
C163	C	0.159496	-0.438355	-0.181776
C164	C	0.095686	-0.406565	-0.112794
C165	C	0.188819	-0.406318	-0.213474
C166	C	0.247667	-0.435631	-0.277094
C167	C	0.277186	-0.496981	-0.309011
O168	O	-0.368251	0.090052	0.352965
O169	O	-0.262887	-0.090103	0.278147
O170	O	-0.368247	0.015231	0.278157
O171	O	-0.262891	-0.015281	0.352955
O172	O	-0.453794	0.015213	0.363724
O173	O	-0.348434	-0.090120	0.363714
O174	O	-0.453798	0.090035	0.438531
Zn175	Zn	-0.414699	-0.000045	0.414708
Zn176	Zn	-0.301987	-0.000022	0.301971
O177	O	-0.348438	-0.015298	0.438522
C178	C	-0.057691	-0.036940	-0.471113
C179	C	-0.088504	-0.037371	-0.502216
C180	C	-0.150842	-0.036956	-0.377958
C181	C	-0.181513	-0.037386	-0.409202
C182	C	-0.150850	-0.036941	-0.471114
C183	C	-0.088495	-0.037386	-0.409201
C184	C	0.035435	-0.029379	-0.470869
C185	C	0.094283	-0.024603	-0.500191
C186	C	0.123793	-0.022199	-0.561537
C187	C	0.187597	-0.017016	-0.593332
C188	C	0.094465	-0.024577	-0.593570
C189	C	0.035623	-0.029356	-0.564250
C190	C	0.006108	-0.031755	-0.502900
C191	C	-0.158177	-0.029366	-0.564478
C192	C	-0.192276	-0.024590	-0.594003
C193	C	-0.256015	-0.022202	-0.562172
C194	C	-0.292993	-0.017020	-0.594180
C195	C	-0.285661	-0.024595	-0.500816
C196	C	-0.251562	-0.029374	-0.471294
C197	C	-0.187822	-0.031757	-0.503125
C198	C	-0.158151	-0.029412	-0.277275
C199	C	-0.192247	-0.024642	-0.213652
C200	C	-0.255986	-0.022254	-0.181744
C201	C	-0.292955	-0.017088	-0.112763
C202	C	-0.285640	-0.024630	-0.213449
C203	C	-0.251549	-0.029396	-0.277069
C204	C	-0.187805	-0.031787	-0.308979
H205	H	-0.166991	-0.359301	-0.023326
Br206	Br	-0.644628	-0.679816	0.032757
Br207	Br	-0.072028	-0.611874	-0.607777
H208	H	-0.335973	-0.190319	-0.023318
H209	H	-0.549629	0.023293	0.359344
H210	H	-0.380676	0.023328	0.190383
H211	H	-0.549632	-0.190317	0.190340
H212	H	0.118562	-0.812456	-0.474929
H213	H	-0.728117	-0.579003	0.031460
H214	H	-0.167006	-0.190317	-0.023308
H215	H	-0.106275	-0.031309	-0.590402
Br216	Br	-0.424982	-0.612303	0.032771
H217	H	-0.335971	-0.190375	0.359322
H218	H	0.346009	-0.446784	-0.384136
H219	H	-0.653986	-0.446831	0.038193
Br220	Br	-0.372168	-0.021359	-0.457617
H221	H	-0.168878	-0.525011	-0.643580
H222	H	0.011738	-0.031283	-0.590330
H223	H	-0.337547	-0.022681	-0.187463
Br224	Br	-0.149819	-0.173616	0.173641
H225	H	0.514992	-0.615745	-0.553119
H226	H	-0.549654	0.023338	0.190378
H227	H	0.346033	-0.615773	-0.384157
Br228	Br	-0.265091	-0.412913	-0.367432
H229	H	0.621272	-0.525735	-0.643974
H230	H	-0.653995	-0.615806	0.038208
H231	H	0.165143	-0.525791	-0.187887
Br232	Br	-0.566841	-0.173609	0.393240
Br233	Br	-0.372521	-0.322644	-0.170670
Br234	Br	-0.451570	-0.632525	0.038671
H235	H	-0.062662	-0.615791	-0.553131
Br236	Br	0.355383	-0.392141	-0.388044
Br237	Br	-0.644598	-0.392196	0.032707
Br238	Br	-0.291672	-0.392223	-0.320627
H239	H	-0.378733	-0.525806	0.022792
Br240	Br	-0.149803	-0.393241	0.173609
H241	H	0.118501	-0.022619	-0.643525
Br242	Br	-0.563782	-0.829780	0.021501
Br243	Br	0.435339	-0.829259	-0.456785
H244	H	0.271893	-0.578970	-0.303297
Br245	Br	0.134125	-0.829287	-0.677308
H246	H	0.389573	-0.696631	-0.420966
H247	H	0.620881	-0.812401	-0.643577
Br248	Br	-0.424975	-0.679341	0.032763
H249	H	-0.106656	-0.578583	-0.302913
H250	H	-0.168130	-0.022644	-0.643960
H251	H	-0.275698	-0.031326	-0.421339
Br252	Br	-0.291799	-0.032611	-0.320095
H253	H	-0.378746	-0.812077	0.022816
H254	H	-0.834866	-0.525813	0.022797
Br255	Br	-0.851244	-0.323078	0.021464
Br256	Br	-0.712554	-0.392186	0.032746
H257	H	0.011451	-0.696664	-0.590443
Br258	Br	0.575101	-0.679755	-0.607759
Br259	Br	0.575045	-0.612245	-0.607709
H260	H	-0.062669	-0.615797	-0.384149
H261	H	0.452215	-0.356320	-0.474905
H262	H	0.271541	-0.409543	-0.302902
H263	H	-0.547764	-0.356390	0.022747
Br264	Br	-0.291684	-0.392227	-0.387656
Br265	Br	0.148759	-0.323057	-0.170159
H266	H	-0.231682	-0.038091	-0.384116
H267	H	-0.168884	-0.525021	-0.187493
Br268	Br	-0.372518	-0.322638	-0.456777
Br269	Br	-0.045532	-0.038530	-0.587002
H270	H	0.011808	-0.697031	-0.421371
Br271	Br	-0.045524	-0.038548	-0.367387
Br272	Br	-0.152000	-0.021419	-0.170628
Br273	Br	-0.347186	-0.393196	0.173615
H274	H	-0.106245	-0.031362	-0.303254
H275	H	0.011411	-0.031339	-0.420916
H276	H	0.118156	-0.022667	-0.474106
