data_functionalizedCrystal
_audit_creation_method	'MofGen! by Chris Wilmer'
_symmetry_space_group_name_H-M	'P1'
_symmetry_Int_Tables_number	1
_symmetry_cell_setting	triclinic
loop_
_symmetry_equiv_pos_as_xyz
  x,y,z
_cell_length_a	10.654550
_cell_length_b	27.732048
_cell_length_c	9.730223
_cell_angle_alpha	89.993758
_cell_angle_beta	89.996251
_cell_angle_gamma	83.563778
loop_
_atom_site_label
_atom_site_type_symbol
_atom_site_fract_x
_atom_site_fract_y
_atom_site_fract_z
O1	O	1.664980	0.067884	-0.114419
O2	O	1.299230	0.074351	-0.114399
O3	O	1.493465	0.000792	-0.114384
O4	O	1.470746	0.141444	-0.114435
O5	O	1.493462	0.000793	0.114196
O6	O	1.299228	0.074353	0.114181
O7	O	1.664978	0.067886	0.114161
Zn8	Zn	1.482102	0.071120	0.150463
Zn9	Zn	1.482105	0.071117	-0.150701
O10	O	1.470743	0.141445	0.114145
C11	C	1.252451	0.073878	-0.000106
C12	C	1.113067	0.072457	-0.000097
C13	C	1.031761	0.115768	-0.000133
C14	C	0.900796	0.114430	-0.000156
C15	C	0.932457	0.026466	-0.000114
C16	C	1.063419	0.027805	-0.000080
C17	C	1.013480	0.166553	-0.000163
C18	C	0.882516	0.165215	-0.000187
C19	C	1.492987	-0.017217	-0.000090
C20	C	1.491551	-0.070881	-0.000078
C21	C	1.597290	-0.409038	-0.000155
C22	C	1.591962	-0.610731	-0.000174
O23	O	1.688653	-0.641384	-0.000239
N24	N	1.476789	-0.630572	-0.000166
C25	C	1.362940	-0.599986	-0.000163
O26	O	1.264856	-0.621490	-0.000171
C27	C	1.368269	-0.398294	-0.000154
C28	C	1.483449	-0.378456	-0.000147
C29	C	1.712461	-0.389199	-0.000150
C30	C	1.713792	-0.338779	-0.000138
C31	C	1.599951	-0.308197	-0.000131
C32	C	1.484780	-0.328036	-0.000135
C33	C	1.254421	-0.367709	-0.000160
C34	C	1.255764	-0.317284	-0.000161
C35	C	1.370944	-0.297446	-0.000155
C36	C	1.372271	-0.247034	-0.000115
N37	N	1.487444	-0.227193	-0.000123
C38	C	1.601284	-0.257775	-0.000131
C39	C	1.360150	-0.705877	-0.000165
C40	C	1.358817	-0.756300	-0.000164
C41	C	1.587840	-0.767041	-0.000178
C42	C	1.589171	-0.716618	-0.000169
C43	C	1.475323	-0.686036	-0.000172
C44	C	1.604070	-0.151888	-0.000104
C45	C	1.605391	-0.101463	-0.000086
C46	C	1.376369	-0.090726	-0.000080
C47	C	1.375047	-0.141147	-0.000090
C48	C	1.488908	-0.171727	-0.000107
O49	O	1.275631	-0.216352	-0.000065
O50	O	1.699354	-0.236261	-0.000153
C51	C	1.595959	-0.459458	-0.000167
C52	C	1.480788	-0.479296	-0.000172
C53	C	1.366948	-0.448715	-0.000164
C54	C	1.479455	-0.529719	-0.000172
C55	C	1.593296	-0.560301	-0.000179
C56	C	1.708469	-0.540460	-0.000187
C57	C	1.709800	-0.490040	-0.000175
C58	C	1.251774	-0.468556	-0.000157
C59	C	1.250453	-0.518976	-0.000167
C60	C	1.364293	-0.549558	-0.000175
C61	C	1.711757	0.068360	-0.000135
C62	C	1.851141	0.069780	-0.000153
C63	C	1.471221	0.159454	-0.000152
C64	C	1.472657	0.213118	-0.000172
N65	N	1.482110	0.071121	0.355999
N66	N	1.482108	0.071112	-0.356238
C67	C	1.568138	0.038560	0.427932
C68	C	1.568135	0.038554	0.571815
C69	C	1.396071	0.103675	0.571820
C70	C	1.396069	0.103678	0.427939
C71	C	1.667482	0.000964	0.427930
C72	C	1.667479	0.000959	0.571813
H73	H	1.041976	0.186415	0.095495
C74	C	0.870364	0.158771	0.245419
C75	C	0.819990	0.185933	0.133027
H76	H	0.831770	0.171562	0.327659
H77	H	0.854637	0.125932	0.234886
H78	H	0.958850	0.160405	0.249944
H79	H	0.731505	0.184296	0.128496
H80	H	0.835708	0.218780	0.143562
C81	C	0.921239	0.208044	-0.207652
C82	C	0.825081	0.191044	-0.129338
H83	H	0.885779	0.223987	-0.287383
H84	H	0.962795	0.230202	-0.154505
H85	H	0.980344	0.181469	-0.234200
H86	H	0.765980	0.217619	-0.102781
H87	H	0.783505	0.168884	-0.182495
H88	H	1.763642	0.009240	0.610855
H89	H	1.283683	-0.065818	-0.000069
H90	H	1.265026	-0.772447	-0.000146
H91	H	0.892018	-0.009888	-0.000121
H92	H	1.699189	-0.085314	-0.000077
H93	H	1.803591	-0.473893	-0.000170
C94	C	1.320674	0.187082	0.616112
C95	C	1.301497	0.139462	0.650895
H96	H	1.262279	0.209175	0.664922
H97	H	1.404360	0.192630	0.639700
H98	H	1.308365	0.191738	0.520124
H99	H	1.313814	0.134805	0.746882
H100	H	1.217791	0.133912	0.627316
H101	H	1.801162	-0.565369	-0.000187
C102	C	1.830585	-0.157427	-0.000097
C103	C	1.729227	-0.185497	-0.000110
H104	H	1.907848	-0.178176	-0.000086
H105	H	1.826339	-0.137534	-0.079801
H106	H	1.826314	-0.137539	0.079621
H107	H	1.733492	-0.205382	-0.079835
H108	H	1.733474	-0.205398	0.079602
C109	C	1.530652	-0.044136	0.295283
C110	C	1.640619	-0.049182	0.375220
H111	H	1.514070	-0.075093	0.262740
H112	H	1.461597	-0.030401	0.349529
H113	H	1.541722	-0.023496	0.219354
H114	H	1.629546	-0.069819	0.451155
H115	H	1.709690	-0.062923	0.320972
C116	C	1.940029	-0.354476	-0.000167
C117	C	1.840403	-0.316978	-0.000150
H118	H	2.018196	-0.341019	-0.000185
H119	H	1.934742	-0.373921	0.079540
H120	H	1.934723	-0.373916	-0.079882
H121	H	1.845704	-0.297540	0.079572
H122	H	1.845693	-0.297525	-0.079865
C123	C	1.843869	-0.452125	-0.117661
C124	C	1.837612	-0.422808	-0.000158
H125	H	1.921142	-0.472868	-0.117660
H126	H	1.775110	-0.471162	-0.117650
H127	H	1.839620	-0.432223	-0.197364
H128	H	1.841852	-0.442710	0.079545
H129	H	1.906390	-0.403769	-0.000156
H130	H	1.682961	-0.700469	-0.000165
C131	C	1.870313	0.027283	0.474826
C132	C	1.789908	0.016851	0.367659
H133	H	1.945895	0.037088	0.437612
H134	H	1.829586	0.052695	0.529760
H135	H	1.890004	-0.000865	0.529771
H136	H	1.770210	0.045001	0.312719
H137	H	1.830643	-0.008563	0.312702
H138	H	1.326007	0.130188	0.369373
C139	C	1.520035	-0.035967	0.713050
C140	C	1.628292	-0.046437	0.632054
H141	H	1.495841	-0.065228	0.750226
H142	H	1.537500	-0.014861	0.785750
H143	H	1.453337	-0.020719	0.658092
H144	H	1.694993	-0.061682	0.687014
H145	H	1.610832	-0.067551	0.559343
H146	H	1.129616	-0.007463	-0.000032
H147	H	1.048457	0.182723	-0.098857
H148	H	1.680533	-0.791950	-0.000184
H149	H	1.267435	-0.680982	-0.000167
H150	H	1.160629	-0.383852	-0.000173
H151	H	1.159070	-0.443660	-0.000153
C152	C	1.124387	-0.254344	-0.117665
C153	C	1.130614	-0.283669	-0.000164
H154	H	1.047122	-0.233595	-0.117666
H155	H	1.193157	-0.235311	-0.117649
H156	H	1.128638	-0.274238	-0.197370
H157	H	1.126372	-0.263775	0.079541
H158	H	1.061825	-0.302704	-0.000168
C159	C	1.148803	-0.125462	-0.000090
C160	C	1.248441	-0.162956	-0.000099
H161	H	1.070642	-0.138925	-0.000116
H162	H	1.154077	-0.106029	0.079629
H163	H	1.154106	-0.106009	-0.079793
H164	H	1.243143	-0.182407	0.079610
H165	H	1.243164	-0.182397	-0.079826
H166	H	1.156652	-0.535123	-0.000160
