data_functionalizedCrystal
_audit_creation_method	'MofGen! by Chris Wilmer'
_symmetry_space_group_name_H-M	'P1'
_symmetry_Int_Tables_number	1
_symmetry_cell_setting	triclinic
loop_
_symmetry_equiv_pos_as_xyz
  x,y,z
_cell_length_a	11.792241
_cell_length_b	10.723024
_cell_length_c	9.198806
_cell_angle_alpha	90.003648
_cell_angle_beta	89.996670
_cell_angle_gamma	95.669357
loop_
_atom_site_label
_atom_site_type_symbol
_atom_site_fract_x
_atom_site_fract_y
_atom_site_fract_z
O1	O	0.159192	-1.656767	-0.120884
O2	O	0.492526	-1.323433	0.212450
O3	O	0.825859	-0.990100	0.545783
O4	O	0.174430	-1.293574	-0.120889
O5	O	0.507763	-0.960241	0.212445
O6	O	0.841097	-0.626907	0.545778
O7	O	0.001660	-1.483984	-0.120876
O8	O	0.334993	-1.150651	0.212457
O9	O	0.668327	-0.817317	0.545791
O10	O	0.331962	-1.466357	-0.120897
O11	O	0.665296	-1.133023	0.212437
O12	O	0.998629	-0.799690	0.545770
O13	O	0.001659	-1.483969	0.120909
O14	O	0.334993	-1.150635	0.454242
O15	O	0.668326	-0.817302	0.787576
O16	O	0.174430	-1.293559	0.120896
O17	O	0.507763	-0.960225	0.454230
O18	O	0.841096	-0.626892	0.787563
O19	O	0.159192	-1.656751	0.120901
O20	O	0.492525	-1.323418	0.454235
O21	O	0.825858	-0.990085	0.787568
Cu22	Cu	0.166811	-1.475154	0.142976
Cu23	Cu	0.500144	-1.141820	0.476309
Cu24	Cu	0.833477	-0.808487	0.809642
Cu25	Cu	0.166811	-1.475172	-0.142963
Cu26	Cu	0.500144	-1.141838	0.190370
Cu27	Cu	0.833478	-0.808505	0.523704
O28	O	0.331962	-1.466341	0.120889
O29	O	0.665295	-1.133008	0.454222
O30	O	0.998629	-0.799675	0.787555
C31	C	0.173321	-1.247070	0.000003
C32	C	0.506654	-0.913736	0.333337
C33	C	0.839988	-0.580403	0.666670
C34	C	0.170003	-1.108524	0.000002
C35	C	0.503337	-0.775191	0.333335
C36	C	0.836670	-0.441857	0.666668
C37	C	-0.040634	-1.482869	0.000016
C38	C	0.292700	-1.149536	0.333349
C39	C	0.626033	-0.816202	0.666683
C40	C	-0.166655	-1.479555	0.000015
C41	C	0.166679	-1.146221	0.333348
C42	C	0.500012	-0.812888	0.666681
C43	C	0.160301	-1.703256	0.000006
C44	C	0.493634	-1.369922	0.333340
C45	C	0.826967	-1.036589	0.666673
C46	C	0.163619	-1.841801	-0.000002
C47	C	0.496952	-1.508468	0.333332
C48	C	0.830285	-1.175134	0.666665
C49	C	-0.397380	-1.473461	-0.000010
C50	C	-0.064047	-1.140127	0.333324
C51	C	0.269286	-0.806794	0.666657
C52	C	-0.268988	-1.476847	0.000004
C53	C	0.064346	-1.143513	0.333337
C54	C	0.397679	-0.810180	0.666670
C55	C	0.374255	-1.467456	-0.000007
C56	C	0.707589	-1.134123	0.333327
C57	C	1.040922	-0.800790	0.666660
C58	C	0.500276	-1.470770	-0.000015
C59	C	0.833610	-1.137437	0.333319
C60	C	1.166943	-0.804104	0.666652
N61	N	0.166810	-1.475150	0.344090
N62	N	0.500143	-1.141817	0.677423
N63	N	0.833476	-0.808483	1.010756
C64	C	0.266676	-1.033286	-0.000005
C65	C	0.600010	-0.699952	0.333328
C66	C	0.933343	-0.366619	0.666661
C67	C	0.263249	-0.890091	-0.000007
C68	C	0.596583	-0.556758	0.333326
C69	C	0.929916	-0.223425	0.666660
N70	N	0.166803	-1.475185	-0.344077
N71	N	0.500137	-1.141852	-0.010744
N72	N	0.833470	-0.808518	0.322590
C73	C	0.093948	-1.555099	0.416292
C74	C	0.427282	-1.221765	0.749625
C75	C	0.760615	-0.888432	1.082959
C76	C	0.093944	-1.555118	0.583704
C77	C	0.427278	-1.221785	0.917038
C78	C	0.760611	-0.888451	1.250371
H79	H	0.351978	-1.074882	-0.000002
H80	H	0.685312	-0.741549	0.333331
H81	H	1.018645	-0.408215	0.666664
H82	H	0.229190	-1.406739	0.593841
H83	H	0.562523	-1.073405	0.927175
H84	H	0.895857	-0.740072	1.260508
F85	F	0.012213	-1.644325	0.335098
F86	F	0.345547	-1.310991	0.668432
F87	F	0.678880	-0.977658	1.001765
H88	H	0.080854	-0.906445	-0.000005
H89	H	0.414188	-0.573112	0.333328
H90	H	0.747521	-0.239779	0.666662
F91	F	0.058503	-1.054162	0.000018
F92	F	0.391836	-0.720828	0.333351
F93	F	0.725169	-0.387495	0.666685
H94	H	0.031569	-1.623570	0.645795
H95	H	0.364902	-1.290237	0.979129
H96	H	0.698236	-0.956903	1.312462
H97	H	0.229182	-1.406713	0.406213
H98	H	0.562515	-1.073379	0.739547
H99	H	0.895849	-0.740046	1.072880
H100	H	0.346009	-0.825440	-0.000019
H101	H	0.679342	-0.492106	0.333314
H102	H	1.012676	-0.158773	0.666648
