data_functionalizedCrystal
_audit_creation_method	'MofGen! by Chris Wilmer'
_symmetry_space_group_name_H-M	'P1'
_symmetry_Int_Tables_number	1
_symmetry_cell_setting	triclinic
loop_
_symmetry_equiv_pos_as_xyz
  x,y,z
_cell_length_a	29.839131
_cell_length_b	29.839134
_cell_length_c	10.686551
_cell_angle_alpha	85.588585
_cell_angle_beta	94.410099
_cell_angle_gamma	89.966214
loop_
_atom_site_label
_atom_site_type_symbol
_atom_site_fract_x
_atom_site_fract_y
_atom_site_fract_z
Zn1	Zn	-0.159413	-0.706283	0.713945
Zn2	Zn	-0.240317	-0.700432	0.502913
Zn3	Zn	-0.165193	-0.625383	0.502897
Zn4	Zn	-0.234511	-0.631110	0.713813
O5	O	-0.199859	-0.665802	0.608392
O6	O	-0.170157	-0.768376	0.686013
O7	O	-0.235200	-0.685632	0.326324
O8	O	-0.101557	-0.636166	0.530942
O9	O	-0.229597	-0.764077	0.530969
O10	O	-0.097312	-0.695603	0.685997
O11	O	-0.180007	-0.630493	0.326313
O12	O	-0.174376	-0.563273	0.530814
O13	O	-0.219700	-0.645927	0.890417
O14	O	-0.225304	-0.567481	0.685772
O15	O	-0.164527	-0.701156	0.890514
O16	O	-0.302416	-0.691185	0.530841
O17	O	-0.298150	-0.640254	0.685788
C18	C	-0.199838	-0.549076	0.608278
C19	C	-0.199839	-0.499141	0.608259
C20	C	-0.173291	-0.140358	0.527825
C21	C	-0.173281	-0.328029	0.527765
O22	O	-0.150676	-0.350423	0.459287
N23	N	-0.199843	-0.353697	0.608310
C24	C	-0.226408	-0.332446	0.688882
O25	O	-0.248997	-0.358585	0.757398
C26	C	-0.226415	-0.144775	0.688948
C27	C	-0.199854	-0.119109	0.608388
C28	C	-0.146733	-0.114691	0.447273
C29	C	-0.146737	-0.067776	0.447284
C30	C	-0.173300	-0.046527	0.527847
C31	C	-0.199859	-0.072194	0.608400
C32	C	-0.252976	-0.123524	0.769526
C33	C	-0.252975	-0.076604	0.769537
C34	C	-0.226414	-0.050937	0.688978
C35	C	-0.226427	-0.004030	0.688974
N36	N	-0.199865	0.021639	0.608428
C37	C	-0.173301	0.000390	0.527865
C38	C	-0.226403	-0.430975	0.688840
C39	C	-0.226402	-0.477892	0.688822
C40	C	-0.173275	-0.473473	0.527706
C41	C	-0.173279	-0.426554	0.527718
C42	C	-0.199841	-0.405307	0.608294
C43	C	-0.173313	0.098915	0.527894
C44	C	-0.173322	0.145834	0.527909
C45	C	-0.226447	0.141410	0.689029
C46	C	-0.226440	0.094495	0.689010
C47	C	-0.199870	0.073249	0.608438
O48	O	-0.249016	0.018395	0.757425
O49	O	-0.150708	0.026537	0.459379
C50	C	-0.173287	-0.187273	0.527814
C51	C	-0.199845	-0.212939	0.608366
C52	C	-0.226408	-0.191690	0.688929
C53	C	-0.199844	-0.259856	0.608348
C54	C	-0.173281	-0.281105	0.527785
C55	C	-0.146719	-0.255437	0.447240
C56	C	-0.146724	-0.208522	0.447251
C57	C	-0.252970	-0.217359	0.769475
C58	C	-0.252964	-0.264274	0.769456
C59	C	-0.226401	-0.285523	0.688893
C60	C	-0.316583	-0.665719	0.608329
C61	C	-0.366517	-0.665726	0.608345
C62	C	-0.678364	-0.692377	0.527829
C63	C	-0.866036	-0.692434	0.527878
O64	O	-0.892176	-0.715028	0.459372
N65	N	-0.887298	-0.665898	0.608487
C66	C	-0.861639	-0.639347	0.689096
O67	O	-0.884029	-0.616782	0.757669
C68	C	-0.673968	-0.639293	0.689052
C69	C	-0.652709	-0.665828	0.608429
C70	C	-0.657105	-0.718910	0.447213
C71	C	-0.610190	-0.718894	0.447197
C72	C	-0.584534	-0.692344	0.527796
C73	C	-0.605794	-0.665812	0.608412
C74	C	-0.648309	-0.612746	0.769666
C75	C	-0.601389	-0.612736	0.769650
C76	C	-0.580130	-0.639270	0.689027
C77	C	-0.533223	-0.639246	0.688996
N78	N	-0.511961	-0.665783	0.608386
C79	C	-0.537617	-0.692332	0.527787
C80	C	-0.960169	-0.639377	0.689111
C81	C	-1.007087	-0.639390	0.689121
C82	C	-1.011481	-0.692477	0.527904
C83	C	-0.964562	-0.692461	0.527889
C84	C	-0.938907	-0.665913	0.608502
C85	C	-0.439092	-0.692295	0.527758
C86	C	-0.392172	-0.692275	0.527745
C87	C	-0.387782	-0.639190	0.688966
C88	C	-0.434698	-0.639208	0.688974
C89	C	-0.460351	-0.665764	0.608366
O90	O	-0.507055	-0.616668	0.757475
O91	O	-0.515217	-0.714902	0.459243
C92	C	-0.725279	-0.692393	0.527845
C93	C	-0.746539	-0.665861	0.608461
C94	C	-0.720883	-0.639312	0.689061
C95	C	-0.793456	-0.665873	0.608471
C96	C	-0.819112	-0.692423	0.527871
C97	C	-0.797850	-0.718959	0.447262
C98	C	-0.750935	-0.718943	0.447246
C99	C	-0.742145	-0.612775	0.769670
C100	C	-0.789060	-0.612793	0.769679
C101	C	-0.814716	-0.639342	0.689079
C102	C	-0.082678	-0.665898	0.608482
C103	C	-0.032742	-0.665939	0.608521
C104	C	-0.190821	-0.674833	0.937533
C105	C	-0.186970	-0.678681	1.077793
C106	C	-0.199879	0.217017	0.608486
C107	C	-0.199885	0.167083	0.608472
C108	C	-0.208828	-0.656832	0.280532
C109	C	-0.212553	-0.653070	0.140273
H110	H	-0.125099	-0.131987	0.381669
O111	O	-0.278751	-0.196776	0.847907
C112	C	-0.265541	-0.211711	0.973725
H113	H	-0.248190	-0.245857	0.976417
H114	H	-0.241306	-0.186490	1.016364
C115	C	-0.328602	-0.174033	1.046619
C116	C	-0.307293	-0.215972	1.049927
H117	H	-0.354355	-0.176660	1.093627
H118	H	-0.337501	-0.163969	0.961854
H119	H	-0.308401	-0.153020	1.082150
H120	H	-0.327492	-0.236983	1.014382
H121	H	-0.298398	-0.226040	1.134688
O122	O	-0.242175	-0.623341	1.076229
C123	C	-0.231473	-0.579441	1.108281
H124	H	-0.211602	-0.581118	1.204016
H125	H	-0.210389	-0.562315	1.034127
C126	C	-0.299513	-0.550296	0.996558
C127	C	-0.275110	-0.552355	1.114146
H128	H	-0.326430	-0.533587	1.000170
H129	H	-0.306723	-0.579871	0.974959
H130	H	-0.281938	-0.536025	0.934775
H131	H	-0.292684	-0.566631	1.175923
H132	H	-0.267905	-0.522781	1.135756
O133	O	-0.822785	-0.744813	0.369164
C134	C	-0.847912	-0.775780	0.441152
H135	H	-0.831023	-0.781232	0.540542
H136	H	-0.883366	-0.762024	0.445459
C137	C	-0.871022	-0.814128	0.257636
C138	C	-0.850277	-0.820827	0.379705
H139	H	-0.872483	-0.841914	0.219731
H140	H	-0.854095	-0.793264	0.209135
H141	H	-0.900565	-0.802663	0.261242
H142	H	-0.820732	-0.832286	0.376096
H143	H	-0.867198	-0.841694	0.428205
O144	O	-0.120851	-0.276034	0.369039
C145	C	-0.075326	-0.265372	0.396865
H146	H	-0.073088	-0.232644	0.445379
H147	H	-0.058447	-0.293578	0.461819
C148	C	-0.054169	-0.300031	0.214398
C149	C	-0.051420	-0.259832	0.273974
H150	H	-0.039421	-0.296615	0.138595
H151	H	-0.084840	-0.307216	0.195653
H152	H	-0.040103	-0.323531	0.268539
H153	H	-0.065490	-0.236334	0.219839
H154	H	-0.020751	-0.252643	0.292707
O155	O	-1.036471	-0.718285	0.449803
C156	C	-1.082438	-0.712610	0.467127
H157	H	-1.086161	-0.700499	0.564424
H158	H	-1.097865	-0.686691	0.392141
C159	C	-1.102210	-0.772656	0.336413
C160	C	-1.106782	-0.757785	0.455919
H161	H	-1.117228	-0.800521	0.329494
H162	H	-1.071241	-0.776479	0.324737
H163	H	-1.115066	-0.751053	0.273937
H164	H	-1.093922	-0.779384	0.518392
H165	H	-1.137750	-0.753966	0.467606
O166	O	-0.730233	-0.744747	0.369108
C167	C	-0.701092	-0.775719	0.441033
H168	H	-0.691435	-0.762467	0.536607
H169	H	-0.718762	-0.809394	0.455018
C170	C	-0.670299	-0.798236	0.254217
C171	C	-0.658434	-0.781959	0.371599
H172	H	-0.643986	-0.802087	0.211385
H173	H	-0.689932	-0.777371	0.205758
H174	H	-0.685025	-0.826297	0.265888
H175	H	-0.643714	-0.753895	0.359926
H176	H	-0.638797	-0.802819	0.420054
H177	H	-0.939283	-0.617757	0.754757
H178	H	-0.151692	0.166730	0.462304
H179	H	-0.274597	-0.285168	0.835055
O180	O	-0.809636	-0.587004	0.848121
C181	C	-0.776925	-0.563562	0.919230
H182	H	-0.743343	-0.582073	0.923629
H183	H	-0.773246	-0.528181	0.872914
C184	C	-0.832776	-0.538008	1.048124
C185	C	-0.791530	-0.560745	1.053536
H186	H	-0.841785	-0.536268	1.130969
H187	H	-0.854814	-0.553799	1.000214
H188	H	-0.829704	-0.508526	1.009522
H189	H	-0.794603	-0.590228	1.092123
H190	H	-0.769492	-0.544958	1.101456
H191	H	-0.248035	-0.413680	0.754457
H192	H	-0.677989	-0.740532	0.381579
O193	O	-1.027662	-0.613599	0.767547
C194	C	-0.994952	-0.590158	0.838658
H195	H	-0.961371	-0.608672	0.843070
H196	H	-0.991269	-0.554779	0.792336
C197	C	-1.050804	-0.564594	0.967531
C198	C	-1.009560	-0.587336	0.972959
H199	H	-1.059816	-0.562851	1.050373
H200	H	-1.072843	-0.580386	0.919620
H201	H	-1.047729	-0.535114	0.928924
H202	H	-1.012637	-0.616817	1.011551
H203	H	-0.987523	-0.571549	1.020880
H204	H	-0.366886	-0.617572	0.754585
H205	H	-0.151675	0.081622	0.462291
H206	H	-0.721259	-0.591156	0.835306
H207	H	-0.162121	-0.703556	1.131610
H208	H	-0.125109	-0.046882	0.381684
H209	H	-0.452008	-0.617603	0.754629
H210	H	-0.665610	-0.591136	0.835313
O211	O	-0.147434	-0.401692	0.449430
C212	C	-0.124001	-0.430513	0.378299
H213	H	-0.121057	-0.465385	0.429985
H214	H	-0.143036	-0.432845	0.282377
C215	C	-0.080285	-0.368909	0.296872
C216	C	-0.076666	-0.411738	0.360360
H217	H	-0.051087	-0.357327	0.285800
H218	H	-0.096074	-0.349491	0.344790
H219	H	-0.096149	-0.370858	0.216943
H220	H	-0.060807	-0.409788	0.440292
H221	H	-0.060873	-0.431155	0.312454
H222	H	-0.151646	-0.490781	0.462107
O223	O	-0.371593	-0.718094	0.449385
C224	C	-0.404302	-0.741522	0.378233
H225	H	-0.436317	-0.744491	0.429942
H226	H	-0.411955	-0.722468	0.282343
C227	C	-0.347126	-0.785194	0.296683
C228	C	-0.386446	-0.788844	0.360198
H229	H	-0.336111	-0.814384	0.285552
H230	H	-0.325088	-0.769409	0.344616
H231	H	-0.353508	-0.769315	0.216782
H232	H	-0.380062	-0.804718	0.440104
H233	H	-0.408482	-0.804633	0.312278
O234	O	-0.278818	-0.056035	0.847856
C235	C	-0.302247	-0.088754	0.918975
H236	H	-0.305194	-0.120770	0.867264
H237	H	-0.283207	-0.096402	1.014886
C238	C	-0.345958	-0.031595	1.000466
C239	C	-0.349581	-0.070916	0.936948
H240	H	-0.375155	-0.020591	1.011558
H241	H	-0.330172	-0.009551	0.952556
H242	H	-0.330090	-0.037974	1.080385
H243	H	-0.365443	-0.064536	0.857025
H244	H	-0.365370	-0.092958	0.984845
O245	O	-0.464062	-0.718030	0.449409
C246	C	-0.493472	-0.690252	0.367804
H247	H	-0.499309	-0.657412	0.412187
H248	H	-0.477978	-0.682774	0.274261
C249	C	-0.531473	-0.754708	0.290556
C250	C	-0.538645	-0.714374	0.345073
H251	H	-0.559337	-0.769588	0.276529
H252	H	-0.511658	-0.773422	0.345531
H253	H	-0.518560	-0.748470	0.212610
H254	H	-0.551552	-0.720612	0.423024
H255	H	-0.558464	-0.695661	0.290110
O256	O	-0.576536	-0.586906	0.848004
C257	C	-0.605364	-0.563502	0.919184
H258	H	-0.640235	-0.560552	0.867496
H259	H	-0.607696	-0.582563	1.015071
C260	C	-0.543771	-0.519795	1.000717
C261	C	-0.586600	-0.516169	0.937227
H262	H	-0.532196	-0.490599	1.011853
H263	H	-0.524349	-0.535564	0.952766
H264	H	-0.545720	-0.535682	1.080616
H265	H	-0.584650	-0.500288	0.857324
H266	H	-0.606022	-0.500397	0.985166
H267	H	-0.274605	-0.144414	0.835125
O268	O	-0.252189	0.069574	0.767437
C269	C	-0.238992	0.077575	0.893253
H270	H	-0.202928	0.090277	0.899801
H271	H	-0.262198	0.103912	0.926121
C272	C	-0.286239	0.017976	0.969401
C273	C	-0.241943	0.033574	0.977445
H274	H	-0.288061	-0.009165	1.021337
H275	H	-0.295132	0.012587	0.884636
H276	H	-0.305572	0.039928	0.996789
H277	H	-0.222612	0.011625	0.950042
H278	H	-0.233047	0.038959	1.062207
O279	O	-0.252207	0.162127	0.767246
C280	C	-0.246519	0.209041	0.749954
H281	H	-0.212958	0.216562	0.708789
H282	H	-0.274981	0.224228	0.682630
C283	C	-0.288412	0.220374	0.928175
C284	C	-0.247191	0.229612	0.877625
H285	H	-0.288829	0.233064	1.006927
H286	H	-0.292246	0.188767	0.939823
H287	H	-0.312126	0.233031	0.872060
H288	H	-0.223478	0.216950	0.933732
H289	H	-0.243353	0.261217	0.865990
H290	H	-0.125095	-0.187628	0.381652
H291	H	-0.248035	-0.498786	0.754408
H292	H	-0.592884	-0.740502	0.381550
H293	H	-0.947256	-0.714068	0.462239
