data_functionalizedCrystal
_audit_creation_method	'MofGen! by Chris Wilmer'
_symmetry_space_group_name_H-M	'P1'
_symmetry_Int_Tables_number	1
_symmetry_cell_setting	triclinic
loop_
_symmetry_equiv_pos_as_xyz
  x,y,z
_cell_length_a	12.811438
_cell_length_b	14.519709
_cell_length_c	11.295483
_cell_angle_alpha	85.898287
_cell_angle_beta	99.539201
_cell_angle_gamma	83.862399
loop_
_atom_site_label
_atom_site_type_symbol
_atom_site_fract_x
_atom_site_fract_y
_atom_site_fract_z
O1	O	1.410829	0.108524	0.251373
O2	O	1.910829	0.608524	0.751373
O3	O	1.102899	0.124106	0.218124
O4	O	1.602899	0.624106	0.718124
O5	O	1.265028	-0.017959	0.235619
O6	O	1.765028	0.482041	0.735619
O7	O	1.248700	0.250588	0.233878
O8	O	1.748700	0.750588	0.733878
O9	O	1.250787	-0.005500	0.036032
O10	O	1.750787	0.494500	0.536032
O11	O	1.088659	0.136565	0.018537
O12	O	1.588659	0.636565	0.518537
O13	O	1.396589	0.120982	0.051785
O14	O	1.896589	0.620982	0.551785
Cu15	Cu	1.241324	0.129911	0.016937
Cu16	Cu	1.741324	0.629911	0.516937
Cu17	Cu	1.258164	0.115177	0.252973
Cu18	Cu	1.758164	0.615177	0.752973
O19	O	1.234460	0.263047	0.034291
O20	O	1.734460	0.763047	0.534291
C21	C	1.056370	0.129844	0.114075
C22	C	1.556370	0.629844	0.614075
C23	C	0.938944	0.128369	0.101396
C24	C	1.438944	0.628369	0.601396
C25	C	0.765676	0.133081	-0.025263
C26	C	1.265676	0.633081	0.474737
C27	C	0.876007	0.134468	-0.013355
C28	C	1.376007	0.634468	0.486645
C29	C	0.891541	0.120886	0.204247
C30	C	1.391541	0.620886	0.704247
C31	C	0.781209	0.119499	0.192339
C32	C	1.281209	0.619499	0.692339
C33	C	0.718280	0.125596	0.077580
C34	C	1.218280	0.625596	0.577580
C35	C	0.607947	0.124202	0.065673
C36	C	1.107947	0.624202	0.565673
C37	C	0.623482	0.110626	0.283274
C38	C	1.123482	0.610626	0.783274
C39	C	0.733814	0.112013	0.295182
C40	C	1.233814	0.612013	0.795182
C41	C	1.257146	-0.046086	0.135743
C42	C	1.757146	0.453914	0.635743
C43	C	1.254866	-0.148457	0.135496
C44	C	1.754866	0.351543	0.635496
C45	C	1.246473	-0.523318	0.134621
C46	C	1.746473	-0.023318	0.634621
C47	C	1.248804	-0.419020	0.134864
C48	C	1.748804	0.080980	0.634864
C49	C	1.250669	-0.335891	0.135058
C50	C	1.750669	0.164109	0.635058
C51	C	1.253001	-0.231586	0.135303
C52	C	1.753001	0.268414	0.635303
C53	C	1.443118	0.115244	0.155837
C54	C	1.943118	0.615244	0.655837
C55	C	1.560545	0.116719	0.168524
C56	C	2.060545	0.616719	0.668524
C57	C	1.242342	0.291174	0.134169
C58	C	1.742342	0.791174	0.634169
C59	C	1.244623	0.393545	0.134424
C60	C	1.744623	0.893545	0.634424
N61	N	1.229487	0.140274	-0.149076
N62	N	1.729487	0.640274	0.350924
C63	C	1.355219	0.030162	-0.384798
C64	C	1.855219	0.530162	0.115202
C65	C	1.346281	0.037999	-0.510426
C66	C	1.846281	0.537999	-0.010426
C67	C	1.202669	0.163781	-0.525963
C68	C	1.702669	0.663781	-0.025963
C69	C	1.211607	0.155944	-0.400335
C70	C	1.711607	0.655944	0.099665
C71	C	1.287885	0.089133	-0.329757
C72	C	1.787885	0.589133	0.170243
C73	C	1.296828	0.081300	-0.204126
C74	C	1.796828	0.581300	0.295874
C75	C	1.153210	0.207077	-0.219666
C76	C	1.653210	0.707077	0.280334
C77	C	1.144273	0.214914	-0.345294
C78	C	1.644273	0.714914	0.154706
N79	N	1.270010	0.104808	0.418987
N80	N	1.770010	0.604808	0.918987
H81	H	0.785065	0.107053	0.388616
H82	H	1.285065	0.607053	0.888616
C83	C	0.571352	0.102384	0.396411
C84	C	1.071352	0.602384	0.896411
H85	H	0.624637	0.098942	0.466458
H86	H	1.124637	0.598942	0.966458
H87	H	0.520664	0.155322	0.395443
H88	H	1.020664	0.655322	0.895443
H89	H	0.536609	0.047780	0.397135
H90	H	1.036609	0.547780	0.897135
H91	H	1.082165	0.269309	-0.402773
H92	H	1.582165	0.769309	0.097227
H93	H	1.140557	0.218171	-0.583445
H94	H	1.640557	0.718171	-0.083445
H95	H	1.098386	0.255098	-0.174837
H96	H	1.598386	0.755098	0.325163
H97	H	1.358940	0.026902	-0.146661
H98	H	1.858940	0.526902	0.353339
H99	H	1.417335	-0.024232	-0.327331
H100	H	1.917335	0.475768	0.172669
C101	C	0.538709	0.130995	-0.060552
C102	C	1.038709	0.630995	0.439448
H103	H	0.466208	0.129115	-0.052919
H104	H	0.966208	0.629115	0.447081
H105	H	0.545673	0.187804	-0.104084
H106	H	1.045673	0.687804	0.395916
H107	H	0.561522	0.080268	-0.102523
H108	H	1.061522	0.580268	0.397477
C109	C	1.420351	-0.026866	-0.570968
C110	C	1.920351	0.473134	-0.070968
H111	H	1.467062	-0.067772	-0.510937
H112	H	1.967062	0.432228	-0.010937
H113	H	1.378744	-0.062103	-0.624106
H114	H	1.878744	0.437897	-0.124106
H115	H	1.460963	0.009262	-0.615198
H116	H	1.960963	0.509262	-0.115198
C117	C	0.928145	0.142700	-0.126478
C118	C	1.428145	0.642700	0.373522
H119	H	1.002866	0.142660	-0.102954
H120	H	1.502866	0.642660	0.397046
H121	H	0.914835	0.091496	-0.172281
H122	H	1.414835	0.591496	0.327719
H123	H	0.898906	0.199040	-0.173985
H124	H	1.398906	0.699040	0.326015
C125	C	0.696452	0.139783	-0.151488
C126	C	1.196452	0.639783	0.348512
H127	H	0.740481	0.144443	-0.211034
H128	H	1.240481	0.644443	0.288966
H129	H	0.661050	0.085757	-0.159796
H130	H	1.161050	0.585757	0.340204
H131	H	0.645126	0.193301	-0.161513
H132	H	1.145126	0.693301	0.338487
C133	C	0.960767	0.114192	0.330470
C134	C	1.460767	0.614192	0.830470
H135	H	0.916740	0.109544	0.390019
H136	H	1.416740	0.609544	0.890019
H137	H	1.012104	0.060689	0.340500
H138	H	1.512104	0.560689	0.840500
H139	H	0.996154	0.168233	0.338767
H140	H	1.496154	0.668233	0.838767
