data_functionalizedCrystal
_audit_creation_method	'MofGen! by Chris Wilmer'
_symmetry_space_group_name_H-M	'P1'
_symmetry_Int_Tables_number	1
_symmetry_cell_setting	triclinic
loop_
_symmetry_equiv_pos_as_xyz
  x,y,z
_cell_length_a	17.699083
_cell_length_b	16.974813
_cell_length_c	16.176319
_cell_angle_alpha	86.338635
_cell_angle_beta	89.998611
_cell_angle_gamma	83.339637
loop_
_atom_site_label
_atom_site_type_symbol
_atom_site_fract_x
_atom_site_fract_y
_atom_site_fract_z
O1	O	1.004151	0.099992	-0.075319
O2	O	0.783782	0.113001	-0.076216
O3	O	0.900110	-0.008619	-0.068062
O4	O	0.887824	0.221612	-0.083473
O5	O	0.900094	-0.008626	0.069432
O6	O	0.783766	0.112994	0.061278
O7	O	1.004135	0.099985	0.062175
Cu8	Cu	0.893949	0.106488	0.074280
Cu9	Cu	0.893968	0.106498	-0.088322
O10	O	0.887808	0.221605	0.054020
C11	C	0.755577	0.112531	-0.007442
C12	C	0.671558	0.111133	-0.007358
C13	C	0.622988	0.182521	-0.012137
C14	C	0.544044	0.181203	-0.012038
C15	C	0.513671	0.108495	-0.007166
C16	C	0.562246	0.037101	-0.002385
C17	C	0.641189	0.038420	-0.002478
C18	C	0.243879	0.031778	-0.002008
C19	C	0.164930	0.030464	-0.001918
C20	C	0.146735	0.174560	-0.011568
C21	C	0.225677	0.175880	-0.011661
C22	C	0.274246	0.104486	-0.006875
C23	C	0.359846	0.105917	-0.006981
C24	C	0.428072	0.107063	-0.007066
C25	C	0.899634	-0.038080	0.002655
C26	C	0.898232	-0.125855	0.008525
C27	C	0.897584	-0.167082	-0.063665
C28	C	0.896261	-0.249555	-0.058147
C29	C	0.895593	-0.290799	0.019561
C30	C	0.896239	-0.249565	0.091756
C31	C	0.897556	-0.167093	0.086238
C32	C	0.891648	-0.537454	0.044103
C33	C	0.890334	-0.619932	0.049616
C34	C	0.890355	-0.619916	-0.100288
C35	C	0.891676	-0.537443	-0.105799
C36	C	0.892318	-0.496216	-0.033605
N37	N	0.894244	-0.375100	0.025203
N38	N	0.893662	-0.411916	-0.039247
C39	C	1.032340	0.100455	-0.006602
C40	C	1.116360	0.101853	-0.006690
C41	C	0.888283	0.251066	-0.016698
C42	C	0.889685	0.338840	-0.022573
N43	N	0.893941	0.106481	0.188646
N44	N	0.893982	0.106498	-0.202687
C45	C	0.945467	0.052650	0.235520
C46	C	0.945471	0.052649	0.322067
C47	C	0.893952	0.106484	0.361739
C48	C	0.842421	0.160318	0.314859
C49	C	0.842415	0.160315	0.228314
C50	C	0.842447	0.160333	0.663886
C51	C	0.842460	0.160334	0.750438
C52	C	0.945503	0.052668	0.757639
C53	C	0.945496	0.052664	0.671094
C54	C	0.893963	0.106495	0.624222
C55	C	0.893959	0.106494	0.530378
C56	C	0.893960	0.106489	0.455581
H57	H	0.504502	0.239334	-0.015930
C58	C	0.655856	0.261522	-0.017560
C59	C	0.631142	0.304681	-0.091174
C60	C	0.661392	0.377466	-0.096190
H61	H	0.709825	0.252200	-0.016983
H62	H	0.639158	0.290949	0.028394
H63	H	0.647844	0.275261	-0.137115
H64	H	0.577177	0.314024	-0.091767
H65	H	0.644694	0.406893	-0.050237
H66	H	0.715361	0.368137	-0.095610
H67	H	0.644623	0.406762	-0.146133
C68	C	1.001330	-0.005760	0.373105
C69	C	0.990296	0.005746	0.457390
C70	C	1.041735	-0.048057	0.504431
H71	H	1.051863	0.002712	0.358449
H72	H	0.993164	-0.058539	0.362507
H73	H	0.998469	0.058512	0.467983
H74	H	0.939774	-0.002733	0.472072
H75	H	1.033568	-0.100836	0.493833
H76	H	1.092264	-0.039580	0.489768
H77	H	1.034250	-0.040263	0.561624
H78	H	0.800457	0.204149	0.190150
C79	C	0.258762	0.254761	-0.016826
C80	C	0.303575	0.259717	0.053561
C81	C	0.334074	0.332366	0.048826
H82	H	0.218611	0.297161	-0.019622
H83	H	0.289219	0.258271	-0.064988
H84	H	0.273119	0.256214	0.101710
H85	H	0.343738	0.217333	0.056371
H86	H	0.364531	0.335876	0.000664
H87	H	0.293918	0.374761	0.046028
H88	H	0.364488	0.335735	0.096578
C89	C	1.001464	-0.005876	0.628178
C90	C	1.046576	-0.053036	0.687754
C91	C	1.098133	-0.106981	0.648253
H92	H	1.033007	0.022432	0.592510
H93	H	0.974289	-0.038799	0.596647
H94	H	1.073749	-0.020116	0.719271
H95	H	1.015054	-0.081361	0.723426
H96	H	1.070958	-0.139905	0.616722
H97	H	1.129671	-0.078667	0.612586
H98	H	1.128743	-0.138990	0.688670
C99	C	0.786469	0.218870	0.613147
C100	C	0.741372	0.266030	0.666416
C101	C	0.689801	0.319973	0.619701
H102	H	0.754918	0.190560	0.581287
H103	H	0.813635	0.251793	0.577191
H104	H	0.714208	0.233111	0.702358
H105	H	0.772902	0.294358	0.698277
H106	H	0.716967	0.352896	0.583744
H107	H	0.658256	0.291656	0.587842
H108	H	0.659201	0.351983	0.655836
H109	H	0.889785	-0.653510	0.112899
C110	C	0.093912	0.252016	-0.016880
C111	C	0.048041	0.255461	-0.087833
C112	C	-0.000633	0.326794	-0.092750
H113	H	0.123213	0.295571	-0.019845
H114	H	0.062696	0.254504	0.030879
H115	H	0.079253	0.252981	-0.135579
H116	H	0.018724	0.211923	-0.084884
H117	H	-0.031848	0.329282	-0.044992
H118	H	0.028675	0.370344	-0.095713
H119	H	-0.031766	0.329138	-0.140887
H120	H	0.537510	-0.022099	0.001594
C121	C	0.132099	-0.048562	0.003425
C122	C	0.191529	-0.110804	0.007620
C123	C	0.161313	-0.183609	0.012552
H124	H	0.101693	-0.052185	-0.044265
H125	H	0.101702	-0.052110	0.051630
H126	H	0.221913	-0.107258	-0.040580
H127	H	0.221940	-0.107208	0.055309
H128	H	0.130916	-0.187156	0.060757
H129	H	0.130907	-0.187223	-0.035140
H130	H	0.201631	-0.225848	0.015407
H131	H	0.889831	-0.653492	-0.159065
H132	H	0.283415	-0.026355	0.001890
H133	H	0.987422	0.008815	0.203225
C134	C	0.693799	-0.039173	0.002669
C135	C	0.650305	-0.103131	0.006932
C136	C	0.698742	-0.174625	0.011666
H137	H	0.724992	-0.041770	0.050775
H138	H	0.724960	-0.041694	-0.045130
H139	H	0.619157	-0.100612	0.054726
H140	H	0.619114	-0.100561	-0.041169
H141	H	0.729903	-0.177145	-0.036134
H142	H	0.729932	-0.177213	0.059772
H143	H	0.669238	-0.218028	0.014551
H144	H	0.892186	-0.503898	0.102890
H145	H	0.987462	0.008833	0.795812
C146	C	0.786571	0.218734	0.358080
C147	C	0.797618	0.207233	0.443905
C148	C	0.746190	0.261041	0.483743
H149	H	0.736035	0.210265	0.344573
H150	H	0.794738	0.271511	0.340401
H151	H	0.789445	0.154468	0.461577
H152	H	0.848144	0.215708	0.457436
H153	H	0.754358	0.313818	0.466065
H154	H	0.695658	0.252567	0.470230
H155	H	0.753684	0.253249	0.541979
C156	C	0.895553	-0.294490	0.176051
C157	C	0.894286	-0.375544	0.165435
C158	C	0.893669	-0.416953	0.243070
H159	H	0.851662	-0.274963	0.205599
H160	H	0.939898	-0.287135	0.206363
H161	H	0.849945	-0.382894	0.135136
H162	H	0.938173	-0.395094	0.135901
H163	H	0.938014	-0.409597	0.273383
H164	H	0.849777	-0.397419	0.272612
H165	H	0.892816	-0.471952	0.235878
H166	H	0.898132	-0.133508	-0.126943
C167	C	0.895638	-0.294185	-0.136621
C168	C	0.896547	-0.240419	-0.205854
C169	C	0.895998	-0.281507	-0.278161
H170	H	0.851032	-0.320262	-0.138145
H171	H	0.939267	-0.332445	-0.137187
H172	H	0.852921	-0.202174	-0.205288
H173	H	0.941149	-0.214340	-0.204357
H174	H	0.939628	-0.319767	-0.278728
H175	H	0.851391	-0.307582	-0.279677
H176	H	0.896622	-0.245034	-0.325144
C177	C	0.892357	-0.492803	-0.190247
C178	C	0.891487	-0.546558	-0.252289
C179	C	0.892106	-0.505463	-0.330093
H180	H	0.936974	-0.466739	-0.195218
H181	H	0.848739	-0.454531	-0.195973
H182	H	0.935101	-0.584816	-0.246566
H183	H	0.846873	-0.572624	-0.247346
H184	H	0.848488	-0.467192	-0.335819
H185	H	0.936724	-0.479401	-0.335055
H186	H	0.891509	-0.541929	-0.372198
H187	H	0.800504	0.204174	0.782736
C188	C	0.898286	-0.122475	0.164712
C189	C	0.897434	-0.176246	0.233948
C190	C	0.898106	-0.135174	0.306254
H191	H	0.854692	-0.084193	0.165368
H192	H	0.942927	-0.096429	0.166145
H193	H	0.852797	-0.202278	0.232516
H194	H	0.941024	-0.214529	0.233319
H195	H	0.942748	-0.109128	0.307687
H196	H	0.854512	-0.096893	0.306902
H197	H	0.897535	-0.171652	0.353239
