data_functionalizedCrystal
_audit_creation_method	'MofGen! by Chris Wilmer'
_symmetry_space_group_name_H-M	'P1'
_symmetry_Int_Tables_number	1
_symmetry_cell_setting	triclinic
loop_
_symmetry_equiv_pos_as_xyz
  x,y,z
_cell_length_a	13.897449
_cell_length_b	16.120531
_cell_length_c	13.897441
_cell_angle_alpha	87.136997
_cell_angle_beta	89.978743
_cell_angle_gamma	87.066788
loop_
_atom_site_label
_atom_site_type_symbol
_atom_site_fract_x
_atom_site_fract_y
_atom_site_fract_z
Zn1	Zn	1.455115	0.331870	-0.564869
Zn2	Zn	1.705115	0.581870	-0.314869
Zn3	Zn	1.955115	0.831870	-0.064869
Zn4	Zn	2.205115	1.081870	0.185131
Zn5	Zn	1.446794	0.471299	-0.411729
Zn6	Zn	1.696794	0.721299	-0.161729
Zn7	Zn	1.946794	0.971299	0.088271
Zn8	Zn	2.196794	1.221299	0.338271
Zn9	Zn	1.293808	0.331906	-0.403582
Zn10	Zn	1.543808	0.581906	-0.153582
Zn11	Zn	1.793808	0.831906	0.096418
Zn12	Zn	2.043808	1.081906	0.346418
Zn13	Zn	1.285568	0.471246	-0.572971
Zn14	Zn	1.535568	0.721246	-0.322971
Zn15	Zn	1.785568	0.971246	-0.072971
Zn16	Zn	2.035568	1.221246	0.177029
O17	O	1.370321	0.401580	-0.488288
O18	O	1.620321	0.651580	-0.238288
O19	O	1.870321	0.901580	0.011712
O20	O	2.120321	1.151580	0.261712
O21	O	1.588992	0.350373	-0.544573
O22	O	1.838992	0.600373	-0.294573
O23	O	2.088992	0.850373	-0.044573
O24	O	2.338992	1.100373	0.205427
O25	O	1.426466	0.452846	-0.275669
O26	O	1.676466	0.702846	-0.025669
O27	O	1.926466	0.952846	0.224331
O28	O	2.176466	1.202846	0.474331
O29	O	1.322136	0.215236	-0.418177
O30	O	1.572136	0.465236	-0.168177
O31	O	1.822136	0.715236	0.081823
O32	O	2.072136	0.965236	0.331823
O33	O	1.582879	0.452811	-0.432062
O34	O	1.832879	0.702811	-0.182062
O35	O	2.082879	0.952811	0.067938
O36	O	2.332879	1.202811	0.317938
O37	O	1.440648	0.215209	-0.536674
O38	O	1.690648	0.465209	-0.286674
O39	O	1.940648	0.715209	-0.036674
O40	O	2.190648	0.965209	0.213326
O41	O	1.314068	0.350435	-0.269683
O42	O	1.564068	0.600435	-0.019683
O43	O	1.814068	0.850435	0.230317
O44	O	2.064068	1.100435	0.480317
O45	O	1.157733	0.350383	-0.426033
O46	O	1.407733	0.600383	-0.176033
O47	O	1.657733	0.850383	0.073967
O48	O	1.907733	1.100383	0.323967
O49	O	1.308092	0.452720	-0.706876
O50	O	1.558092	0.702720	-0.456876
O51	O	1.808092	0.952720	-0.206876
O52	O	2.058092	1.202720	0.043124
O53	O	1.151680	0.452755	-0.550482
O54	O	1.401680	0.702755	-0.300482
O55	O	1.651680	0.952755	-0.050482
O56	O	1.901680	1.202755	0.199518
O57	O	1.432658	0.350321	-0.700923
O58	O	1.682658	0.600321	-0.450923
O59	O	1.932658	0.850321	-0.200923
O60	O	2.182658	1.100321	0.049077
O61	O	1.418476	0.587958	-0.439918
O62	O	1.668476	0.837958	-0.189918
O63	O	1.918476	1.087958	0.060082
O64	O	2.168476	1.337958	0.310082
O65	O	1.300024	0.587919	-0.558382
O66	O	1.550024	0.837919	-0.308382
O67	O	1.800024	1.087919	-0.058382
O68	O	2.050024	1.337919	0.191618
C69	C	1.119707	0.401568	-0.488253
C70	C	1.369707	0.651568	-0.238253
C71	C	1.619707	0.901568	0.011747
C72	C	1.869707	1.151568	0.261747
C73	C	1.012493	0.401582	-0.488263
C74	C	1.262493	0.651582	-0.238263
C75	C	1.512493	0.901582	0.011737
C76	C	1.762493	1.151582	0.261737
C77	C	0.925423	0.401585	-0.488279
C78	C	1.175423	0.651585	-0.238279
C79	C	1.425423	0.901585	0.011721
C80	C	1.675423	1.151585	0.261721
C81	C	0.816190	0.401591	-0.488308
C82	C	1.066190	0.651591	-0.238308
C83	C	1.316190	0.901591	0.011692
C84	C	1.566190	1.151591	0.261692
C85	C	1.357479	0.618188	-0.500934
C86	C	1.607479	0.868188	-0.250934
C87	C	1.857479	1.118188	-0.000934
C88	C	2.107479	1.368188	0.249066
C89	C	1.352073	0.710854	-0.506377
C90	C	1.602073	0.960854	-0.256377
C91	C	1.852073	1.210854	-0.006377
C92	C	2.102073	1.460854	0.243623
C93	C	1.342210	0.880516	-0.516333
C94	C	1.592210	1.130516	-0.266333
C95	C	1.842210	1.380516	-0.016333
C96	C	2.092210	1.630516	0.233667
C97	C	1.398468	0.921805	-0.460187
C98	C	1.648468	1.171805	-0.210187
C99	C	1.898468	1.421805	0.039813
C100	C	2.148468	1.671805	0.289813
C101	C	1.392980	1.016210	-0.465727
C102	C	1.642980	1.266210	-0.215727
C103	C	1.892980	1.516210	0.034273
C104	C	2.142980	1.766210	0.284273
C105	C	1.347697	0.786102	-0.510795
C106	C	1.597697	1.036102	-0.260795
C107	C	1.847697	1.286102	-0.010795
C108	C	2.097697	1.536102	0.239205
C109	C	1.621913	0.401594	-0.488323
C110	C	1.871913	0.651594	-0.238323
C111	C	2.121913	0.901594	0.011677
C112	C	2.371913	1.151594	0.261677
C113	C	1.729127	0.401600	-0.488338
C114	C	1.979127	0.651600	-0.238338
C115	C	2.229127	0.901600	0.011662
C116	C	2.479127	1.151600	0.261662
C117	C	1.383205	1.184127	-0.475595
C118	C	1.633205	1.434127	-0.225595
C119	C	1.883205	1.684127	0.024405
C120	C	2.133205	1.934127	0.274405
C121	C	1.388608	1.091461	-0.470141
C122	C	1.638608	1.341461	-0.220141
C123	C	1.888608	1.591461	0.029859
C124	C	2.138608	1.841461	0.279859
C125	C	1.370384	0.401510	-0.739877
C126	C	1.620384	0.651510	-0.489877
C127	C	1.870384	0.901510	-0.239877
C128	C	2.120384	1.151510	0.010123
C129	C	1.370411	0.401481	-0.847089
C130	C	1.620411	0.651481	-0.597089
C131	C	1.870411	0.901481	-0.347089
C132	C	2.120411	1.151481	-0.097089
C133	C	1.370432	0.401457	-0.934157
C134	C	1.620432	0.651457	-0.684157
C135	C	1.870432	0.901457	-0.434157
C136	C	2.120432	1.151457	-0.184157
C137	C	1.370462	0.401419	-1.043388
C138	C	1.620462	0.651419	-0.793388
C139	C	1.870462	0.901419	-0.543388
C140	C	2.120462	1.151419	-0.293388
C141	C	1.370317	0.401590	-0.237674
C142	C	1.620317	0.651590	0.012326
C143	C	1.870317	0.901590	0.262326
C144	C	2.120317	1.151590	0.512326
C145	C	1.370491	0.401385	-0.130448
C146	C	1.620491	0.651385	0.119552
C147	C	1.870491	0.901385	0.369552
C148	C	2.120491	1.151385	0.619552
H149	H	1.450754	0.886252	-0.407958
H150	H	1.700754	1.136252	-0.157958
H151	H	1.950754	1.386252	0.092042
H152	H	2.200754	1.636252	0.342042
Br153	Br	1.255066	0.939768	-0.603380
Br154	Br	1.505066	1.189768	-0.353380
Br155	Br	1.755066	1.439768	-0.103380
Br156	Br	2.005066	1.689768	0.146620
