data_functionalizedCrystal
_audit_creation_method	'MofGen! by Chris Wilmer'
_symmetry_space_group_name_H-M	'P1'
_symmetry_Int_Tables_number	1
_symmetry_cell_setting	triclinic
loop_
_symmetry_equiv_pos_as_xyz
  x,y,z
_cell_length_a	19.805405
_cell_length_b	12.759401
_cell_length_c	12.759393
_cell_angle_alpha	90.019676
_cell_angle_beta	90.036554
_cell_angle_gamma	90.026837
loop_
_atom_site_label
_atom_site_type_symbol
_atom_site_fract_x
_atom_site_fract_y
_atom_site_fract_z
Zn1	Zn	-0.269423	1.606181	0.593940
Zn2	Zn	-0.382625	1.606036	0.418242
Zn3	Zn	-0.269457	1.430480	0.418280
Zn4	Zn	-0.382576	1.430436	0.593883
O5	O	-0.326020	1.518283	0.506086
O6	O	-0.284446	1.753183	0.570642
O7	O	-0.367648	1.582706	0.271226
O8	O	-0.174736	1.453866	0.441621
O9	O	-0.367615	1.753076	0.441557
O10	O	-0.174711	1.582953	0.570678
O11	O	-0.284504	1.453725	0.271253
O12	O	-0.284456	1.283453	0.441565
O13	O	-0.367531	1.453791	0.740912
O14	O	-0.367564	1.283420	0.570581
O15	O	-0.284398	1.582910	0.740954
O16	O	-0.477335	1.582663	0.441501
O17	O	-0.477299	1.453650	0.570544
C18	C	-0.326009	1.245316	0.506071
C19	C	-0.326020	1.128539	0.506090
C20	C	-0.282792	1.073733	0.573408
C21	C	-0.282799	0.964009	0.573415
C22	C	-0.369268	0.963907	0.438783
C23	C	-0.369257	1.073629	0.438771
C24	C	-0.501876	1.518165	0.506035
C25	C	-0.577108	1.518210	0.506049
C26	C	-0.612449	1.585453	0.438927
C27	C	-0.683137	1.585497	0.438950
C28	C	-0.718484	1.518293	0.506091
C29	C	-0.683138	1.451048	0.573220
C30	C	-0.612451	1.451010	0.573202
C31	C	-0.968211	1.451203	0.573298
C32	C	-1.038904	1.451245	0.573310
C33	C	-1.038898	1.585691	0.439046
C34	C	-0.968210	1.585652	0.439028
C35	C	-0.932871	1.518411	0.506161
C36	C	-0.856223	1.518365	0.506136
C37	C	-0.795131	1.518334	0.506111
C38	C	-0.149477	1.518430	0.506160
C39	C	-0.074245	1.518493	0.506192
C40	C	-0.325955	1.518362	0.780120
C41	C	-0.325928	1.518395	0.896896
C42	C	-0.326032	1.792316	0.506102
C43	C	-0.326038	1.909093	0.506108
C44	C	-0.326036	1.518265	0.233119
C45	C	-0.325873	1.518435	0.116343
C46	C	-0.282633	1.585633	0.951782
C47	C	-0.282604	1.585650	1.061506
C48	C	-0.369169	1.451190	1.061450
C49	C	-0.369195	1.451168	0.951727
H50	H	-0.247597	0.919391	0.628231
H51	H	-0.939433	1.640372	0.384352
Cl52	Cl	-0.228180	1.670191	1.130501
H53	H	-0.404397	1.396459	1.106106
Cl54	Cl	-0.423622	0.894869	0.354162
H55	H	-0.404450	1.396408	0.907038
Cl56	Cl	-0.423598	1.142533	0.354125
Cl57	Cl	-0.568020	1.669936	0.354509
H58	H	-0.711923	1.396334	0.627892
H59	H	-0.247583	1.118438	0.628220
H60	H	-0.711908	1.640252	0.384291
H61	H	-1.067679	1.640446	0.384387
H62	H	-0.939444	1.396451	0.627958
H63	H	-1.067681	1.396521	0.627992
Cl64	Cl	-0.568023	1.366476	0.657591
Cl65	Cl	-0.228238	1.670142	0.882856
