data_functionalizedCrystal
_audit_creation_method	'MofGen! by Chris Wilmer'
_symmetry_space_group_name_H-M	'P1'
_symmetry_Int_Tables_number	1
_symmetry_cell_setting	triclinic
loop_
_symmetry_equiv_pos_as_xyz
  x,y,z
_cell_length_a	19.077105
_cell_length_b	29.839125
_cell_length_c	19.077068
_cell_angle_alpha	92.281020
_cell_angle_beta	90.115316
_cell_angle_gamma	87.691159
loop_
_atom_site_label
_atom_site_type_symbol
_atom_site_fract_x
_atom_site_fract_y
_atom_site_fract_z
Zn1	Zn	1.062930	-0.289515	-0.323086
Zn2	Zn	1.396263	0.043818	0.010248
Zn3	Zn	1.729596	0.377152	0.343581
Zn4	Zn	1.058132	-0.217274	-0.440568
Zn5	Zn	1.391465	0.116059	-0.107235
Zn6	Zn	1.724798	0.449393	0.226098
Zn7	Zn	0.945438	-0.211267	-0.318352
Zn8	Zn	1.278772	0.122067	0.014982
Zn9	Zn	1.612105	0.455400	0.348315
Zn10	Zn	0.940665	-0.289245	-0.435827
Zn11	Zn	1.273998	0.044088	-0.102494
Zn12	Zn	1.607331	0.377421	0.230839
O13	O	1.001791	-0.251825	-0.379458
O14	O	1.335124	0.081508	-0.046125
O15	O	1.668458	0.414841	0.287208
O16	O	1.160624	-0.282559	-0.342635
O17	O	1.493957	0.050774	-0.009302
O18	O	1.827291	0.384108	0.324031
O19	O	1.043172	-0.153610	-0.424359
O20	O	1.376506	0.179723	-0.091026
O21	O	1.709839	0.513057	0.242308
O22	O	0.965030	-0.219246	-0.220649
O23	O	1.298363	0.114088	0.112684
O24	O	1.631696	0.447421	0.446018
O25	O	1.157099	-0.229484	-0.428949
O26	O	1.490432	0.103849	-0.095616
O27	O	1.823766	0.437183	0.237717
O28	O	1.051350	-0.276734	-0.224127
O29	O	1.384683	0.056599	0.109206
O30	O	1.718017	0.389933	0.442540
O31	O	0.960377	-0.149196	-0.334567
O32	O	1.293710	0.184137	-0.001234
O33	O	1.627044	0.517470	0.332100
O34	O	0.846474	-0.218984	-0.329970
O35	O	1.179808	0.114350	0.003364
O36	O	1.513141	0.447683	0.336697
O37	O	0.956894	-0.352148	-0.420869
O38	O	1.290227	-0.018815	-0.087536
O39	O	1.623561	0.314518	0.245798
O40	O	0.842967	-0.276274	-0.416279
O41	O	1.176300	0.057059	-0.082945
O42	O	1.509634	0.390392	0.250388
O43	O	1.046721	-0.352347	-0.338038
O44	O	1.380055	-0.019013	-0.004705
O45	O	1.713388	0.314320	0.328628
O46	O	1.038544	-0.229222	-0.538270
O47	O	1.371877	0.104111	-0.204937
O48	O	1.705210	0.437444	0.128396
O49	O	0.952241	-0.282099	-0.534787
O50	O	1.285575	0.051234	-0.201454
O51	O	1.618908	0.384568	0.131880
C52	C	0.819225	-0.246948	-0.372097
C53	C	1.152558	0.086385	-0.038763
C54	C	1.485891	0.419719	0.294570
C55	C	0.741121	-0.244873	-0.368964
C56	C	1.074454	0.088461	-0.035631
C57	C	1.407788	0.421794	0.297703
C58	C	1.001810	-0.369004	-0.379453
C59	C	1.335144	-0.035671	-0.046119
C60	C	1.668477	0.297663	0.287214
C61	C	1.001819	-0.418939	-0.379450
C62	C	1.335152	-0.085605	-0.046117
C63	C	1.668485	0.247728	0.287216
C64	C	0.702618	-0.273682	-0.412496
C65	C	1.035951	0.059651	-0.079163
C66	C	1.369284	0.392984	0.254170
C67	C	0.629232	-0.271734	-0.409544
C68	C	0.962565	0.061599	-0.076211
C69	C	1.295898	0.394933	0.257123
C70	C	0.594350	-0.240974	-0.363062
C71	C	0.927683	0.092359	-0.029729
C72	C	1.261017	0.425693	0.303605
C73	C	0.632859	-0.212163	-0.319525
C74	C	0.966192	0.121170	0.013809
C75	C	1.299525	0.454503	0.347142
C76	C	0.706244	-0.214114	-0.322474
C77	C	1.039577	0.119219	0.010859
C78	C	1.372910	0.452553	0.344192
C79	C	0.375067	-0.231948	-0.349411
C80	C	0.708400	0.101385	-0.016078
C81	C	1.041734	0.434718	0.317255
C82	C	0.301677	-0.229999	-0.346467
C83	C	0.635010	0.103334	-0.013133
C84	C	0.968343	0.436668	0.320200
C85	C	0.298055	-0.289571	-0.436485
C86	C	0.631388	0.043763	-0.103152
C87	C	0.964721	0.377096	0.230181
C88	C	0.371441	-0.291517	-0.439434
C89	C	0.704774	0.041817	-0.106100
C90	C	1.038108	0.375150	0.227233
C91	C	0.409943	-0.262708	-0.395894
C92	C	0.743277	0.070626	-0.062560
C93	C	1.076610	0.403959	0.270773
N94	N	0.519338	-0.238981	-0.360044
N95	N	0.852671	0.094352	-0.026711
N96	N	1.186004	0.427686	0.306622
N97	N	0.484955	-0.264703	-0.398908
N98	N	0.818288	0.068630	-0.065575
N99	N	1.151621	0.401964	0.267758
C100	C	1.048644	-0.728687	-0.336205
C101	C	1.381977	-0.395353	-0.002871
C102	C	1.715310	-0.062020	0.330462
C103	C	1.048681	-0.916359	-0.336146
C104	C	1.382014	-0.583026	-0.002813
C105	C	1.715348	-0.249693	0.330520
O106	O	1.088439	-0.940713	-0.299442
O107	O	1.421772	-0.607380	0.033892
O108	O	1.755105	-0.274047	0.367225
N109	N	1.001919	-0.939722	-0.379266
N110	N	1.335253	-0.606388	-0.045933
N111	N	1.668586	-0.273055	0.287401
C112	C	0.955142	-0.916163	-0.422400
C113	C	1.288475	-0.582830	-0.089067
C114	C	1.621808	-0.249496	0.244267
O115	O	0.915364	-0.940340	-0.459069
O116	O	1.248697	-0.607007	-0.125736
O117	O	1.582031	-0.273674	0.207597
C118	C	0.955102	-0.728491	-0.422454
C119	C	1.288435	-0.395158	-0.089121
C120	C	1.621768	-0.061824	0.244212
C121	C	1.001871	-0.705131	-0.379337
C122	C	1.335205	-0.371798	-0.046004
C123	C	1.668538	-0.038465	0.287330
C124	C	1.095409	-0.705327	-0.293090
C125	C	1.428742	-0.371994	0.040243
C126	C	1.762076	-0.038660	0.373576
C127	C	1.095402	-0.658412	-0.293108
C128	C	1.428735	-0.325078	0.040225
C129	C	1.762069	0.008255	0.373559
C130	C	1.048629	-0.634856	-0.336240
C131	C	1.381963	-0.301523	-0.002907
C132	C	1.715296	0.031810	0.330426
C133	C	1.001864	-0.658216	-0.379355
C134	C	1.335197	-0.324883	-0.046022
C135	C	1.668531	0.008451	0.287312
C136	C	0.908321	-0.704933	-0.465584
C137	C	1.241655	-0.371600	-0.132251
C138	C	1.574988	-0.038266	0.201082
C139	C	0.908314	-0.658012	-0.465593
C140	C	1.241648	-0.324679	-0.132259
C141	C	1.574981	0.008655	0.201074
C142	C	0.955084	-0.634652	-0.422475
C143	C	1.288417	-0.301319	-0.089142
C144	C	1.621751	0.032014	0.244191
C145	C	0.955084	-0.587746	-0.422505
C146	C	1.288418	-0.254412	-0.089172
C147	C	1.621751	0.078921	0.244162
N148	N	1.001846	-0.564383	-0.379385
N149	N	1.335180	-0.231050	-0.046052
N150	N	1.668513	0.102284	0.287281
C151	C	1.048619	-0.587939	-0.336253
C152	C	1.381952	-0.254605	-0.002920
C153	C	1.715285	0.078728	0.330414
C154	C	0.955167	-1.014694	-0.422370
C155	C	1.288500	-0.681360	-0.089036
C156	C	1.621834	-0.348027	0.244297
C157	C	0.955178	-1.061611	-0.422357
C158	C	1.288511	-0.728278	-0.089024
C159	C	1.621845	-0.394945	0.244310
C160	C	1.048716	-1.061804	-0.336102
C161	C	1.382050	-0.728471	-0.002769
C162	C	1.715383	-0.395138	0.330565
C163	C	1.048709	-1.014886	-0.336119
C164	C	1.382042	-0.681553	-0.002785
C165	C	1.715375	-0.348219	0.330548
C166	C	1.001929	-0.991331	-0.379250
C167	C	1.335262	-0.657998	-0.045916
C168	C	1.668596	-0.324664	0.287417
C169	C	1.048600	-0.489413	-0.336294
C170	C	1.381934	-0.156080	-0.002961
C171	C	1.715267	0.177253	0.330372
C172	C	1.048591	-0.442494	-0.336318
C173	C	1.381924	-0.109161	-0.002985
C174	C	1.715258	0.224173	0.330349
C175	C	0.955050	-0.442305	-0.422570
C176	C	1.288384	-0.108972	-0.089237
C177	C	1.621717	0.224362	0.244097
C178	C	0.955062	-0.489220	-0.422549
C179	C	1.288395	-0.155887	-0.089216
C180	C	1.621729	0.177446	0.244117
C181	C	1.001840	-0.512773	-0.379406
C182	C	1.335173	-0.179440	-0.046072
C183	C	1.668506	0.153894	0.287261
O184	O	0.915342	-0.563362	-0.459185
O185	O	1.248676	-0.230029	-0.125851
O186	O	1.582009	0.103304	0.207482
O187	O	1.088380	-0.563753	-0.299578
O188	O	1.421713	-0.230419	0.033756
O189	O	1.755047	0.102914	0.367089
C190	C	1.048651	-0.775602	-0.336187
C191	C	1.381984	-0.442269	-0.002854
C192	C	1.715318	-0.108935	0.330480
C193	C	1.001886	-0.798962	-0.379301
C194	C	1.335219	-0.465628	-0.045968
C195	C	1.668552	-0.132295	0.287365
C196	C	0.955113	-0.775406	-0.422434
C197	C	1.288447	-0.442073	-0.089100
C198	C	1.621780	-0.108740	0.244233
C199	C	1.001896	-0.845880	-0.379289
C200	C	1.335230	-0.512546	-0.045955
C201	C	1.668563	-0.179213	0.287378
C202	C	1.048669	-0.869435	-0.336156
C203	C	1.382002	-0.536102	-0.002823
C204	C	1.715336	-0.202768	0.330510
C205	C	1.095431	-0.846073	-0.293037
C206	C	1.428764	-0.512739	0.040297
C207	C	1.762097	-0.179406	0.373630
C208	C	1.095423	-0.799157	-0.293055
C209	C	1.428757	-0.465824	0.040279
C210	C	1.762090	-0.132491	0.373612
C211	C	0.908352	-0.798769	-0.465553
C212	C	1.241685	-0.465435	-0.132220
C213	C	1.575018	-0.132102	0.201113
C214	C	0.908363	-0.845684	-0.465533
C215	C	1.241696	-0.512351	-0.132199
C216	C	1.575030	-0.179017	0.201134
C217	C	0.955136	-0.869239	-0.422400
C218	C	1.288469	-0.535906	-0.089067
C219	C	1.621802	-0.202573	0.244266
C220	C	1.185071	-0.256722	-0.386849
C221	C	1.518404	0.076612	-0.053516
C222	C	1.851737	0.409945	0.279817
C223	C	1.263173	-0.258808	-0.389999
C224	C	1.596507	0.074525	-0.056666
C225	C	1.929840	0.407858	0.276668
C226	C	0.994373	-0.256294	-0.562025
C227	C	1.327706	0.077040	-0.228692
C228	C	1.661040	0.410373	0.104641
C229	C	0.991264	-0.258222	-0.640131
C230	C	1.324597	0.075111	-0.306798
C231	C	1.657930	0.408445	0.026536
C232	C	1.001814	-0.135102	-0.379415
C233	C	1.335148	0.198231	-0.046081
C234	C	1.668481	0.531564	0.287252
C235	C	1.001950	-0.085167	-0.379225
C236	C	1.335284	0.248167	-0.045891
C237	C	1.668617	0.581500	0.287442
C238	C	1.034771	-0.231622	-0.678617
C239	C	1.368104	0.101711	-0.345284
C240	C	1.701437	0.435044	-0.011950
C241	C	1.031851	-0.233439	-0.752005
C242	C	1.365184	0.099894	-0.418672
C243	C	1.698517	0.433228	-0.085339
C244	C	0.985419	-0.261853	-0.786907
C245	C	1.318752	0.071481	-0.453573
C246	C	1.652086	0.404814	-0.120240
C247	C	0.941910	-0.288455	-0.748416
C248	C	1.275244	0.044878	-0.415082
C249	C	1.608577	0.378212	-0.081749
C250	C	0.944834	-0.286641	-0.675029
C251	C	1.278168	0.046693	-0.341695
C252	C	1.611501	0.380026	-0.008362
C253	C	0.971854	-0.270231	-1.006198
C254	C	1.305188	0.063103	-0.672865
C255	C	1.638521	0.396436	-0.339532
C256	C	0.968932	-0.272042	-1.079591
C257	C	1.302265	0.061291	-0.746257
C258	C	1.635599	0.394625	-0.412924
C259	C	1.058874	-0.217026	-1.083175
C260	C	1.392207	0.116307	-0.749842
C261	C	1.725540	0.449640	-0.416509
C262	C	1.061791	-0.215212	-1.009787
C263	C	1.395124	0.118121	-0.676453
C264	C	1.728457	0.451454	-0.343120
C265	C	1.018285	-0.241817	-0.971302
C266	C	1.351618	0.091517	-0.637969
C267	C	1.684951	0.424850	-0.304635
N268	N	0.982431	-0.263709	-0.861921
N269	N	1.315765	0.069624	-0.528588
N270	N	1.649098	0.402958	-0.195255
N271	N	1.021276	-0.239962	-0.896289
N272	N	1.354610	0.093371	-0.562955
N273	N	1.687943	0.426704	-0.229622
C274	C	1.009257	-0.247350	-0.196179
C275	C	1.342591	0.085983	0.137154
C276	C	1.675924	0.419317	0.470488
C277	C	1.012439	-0.245443	-0.118076
C278	C	1.345772	0.087891	0.215257
C279	C	1.679106	0.421224	0.548590
H280	H	0.731013	-0.298729	-0.450349
H281	H	1.064346	0.034604	-0.117016
H282	H	1.397679	0.367938	0.216317
Cl283	Cl	1.120174	-0.179497	-0.965917
Cl284	Cl	1.453507	0.153836	-0.632583
Cl285	Cl	1.786841	0.487169	-0.299250
Cl286	Cl	0.849501	-0.628403	-0.519817
Cl287	Cl	1.182834	-0.295070	-0.186484
Cl288	Cl	1.516167	0.038263	0.146849
H289	H	1.067278	-0.211778	-0.783337
H290	H	1.400612	0.121555	-0.450004
H291	H	1.733945	0.454888	-0.116671
Cl292	Cl	1.113568	-0.183586	-1.131560
Cl293	Cl	1.446902	0.149747	-0.798227
Cl294	Cl	1.780235	0.483080	-0.464893
H295	H	0.266698	-0.313026	-0.471932
H296	H	0.600031	0.020307	-0.138598
H297	H	0.933365	0.353641	0.194735
H298	H	0.273279	-0.204953	-0.308607
H299	H	0.606612	0.128381	0.024726
H300	H	0.939945	0.461714	0.358059
H301	H	1.086679	-0.423477	-0.301206
H302	H	1.420012	-0.090143	0.032127
H303	H	1.753346	0.243190	0.365460
H304	H	0.931130	-0.295188	-1.108005
H305	H	1.264464	0.038145	-0.774672
H306	H	1.597797	0.371479	-0.441339
Cl307	Cl	0.890140	-0.320083	-0.626646
Cl308	Cl	1.223473	0.013250	-0.293313
Cl309	Cl	1.556806	0.346583	0.040020
H310	H	0.870264	-0.779595	-0.500679
H311	H	1.203597	-0.446261	-0.167345
H312	H	1.536930	-0.112928	0.165988
Cl313	Cl	0.917159	-0.303675	-0.957827
Cl314	Cl	1.250492	0.029658	-0.624494
Cl315	Cl	1.583826	0.362991	-0.291161
H316	H	1.086689	-0.508584	-0.301160
H317	H	1.420022	-0.175251	0.032173
H318	H	1.753356	0.158082	0.365506
Cl319	Cl	0.883543	-0.324178	-0.792292
Cl320	Cl	1.216876	0.009155	-0.458959
Cl321	Cl	1.550210	0.342488	-0.125625
H322	H	0.597885	-0.295193	-0.444993
H323	H	0.931218	0.038140	-0.111660
H324	H	1.264552	0.371473	0.221673
H325	H	0.399836	-0.316564	-0.477286
H326	H	0.733170	0.016770	-0.143952
H327	H	1.066503	0.350103	0.189381
Cl328	Cl	0.589008	-0.173496	-0.261085
Cl329	Cl	0.922341	0.159837	0.072248
Cl330	Cl	1.255674	0.493171	0.405581
Cl331	Cl	0.423461	-0.195732	-0.294673
Cl332	Cl	0.756794	0.137601	0.038660
Cl333	Cl	1.090127	0.470935	0.371993
H334	H	1.072577	-0.208483	-0.650205
H335	H	1.405910	0.124850	-0.316872
H336	H	1.739244	0.458184	0.016462
H337	H	0.737593	-0.190656	-0.287022
H338	H	1.070926	0.142677	0.046312
H339	H	1.404259	0.476010	0.379645
H340	H	1.086801	-1.080991	-0.300982
H341	H	1.420134	-0.747658	0.032351
H342	H	1.753468	-0.414324	0.365684
H343	H	1.133485	-0.639396	-0.257996
H344	H	1.466819	-0.306063	0.075337
H345	H	1.800152	0.027270	0.408671
Cl346	Cl	1.154226	-0.734931	-0.238868
Cl347	Cl	1.487559	-0.401598	0.094465
Cl348	Cl	1.820892	-0.068265	0.427798
H349	H	1.086791	-0.995869	-0.301007
H350	H	1.420125	-0.662536	0.032326
H351	H	1.753458	-0.329203	0.365659
Cl352	Cl	0.896390	-1.090973	-0.476575
Cl353	Cl	1.229723	-0.757639	-0.143242
Cl354	Cl	1.563056	-0.424306	0.190091
H355	H	0.917074	-0.995520	-0.457497
H356	H	1.250407	-0.662186	-0.124163
H357	H	1.583740	-0.328853	0.209170
H358	H	0.870236	-0.723944	-0.500695
H359	H	1.203570	-0.390611	-0.167362
H360	H	1.536903	-0.057278	0.165972
H361	H	0.916985	-0.508241	-0.457666
H362	H	1.250318	-0.174908	-0.124332
H363	H	1.583651	0.158426	0.209001
H364	H	0.916971	-0.423118	-0.457690
H365	H	1.250305	-0.089784	-0.124356
H366	H	1.583638	0.243549	0.208977
Cl367	Cl	1.154222	-0.769798	-0.238845
Cl368	Cl	1.487555	-0.436464	0.094488
Cl369	Cl	1.820888	-0.103131	0.427821
Cl370	Cl	1.154232	-0.875694	-0.238816
Cl371	Cl	1.487565	-0.542361	0.094518
Cl372	Cl	1.820898	-0.209027	0.427851
Cl373	Cl	0.849565	-0.875045	-0.519748
Cl374	Cl	1.182898	-0.541712	-0.186414
Cl375	Cl	1.516231	-0.208378	0.146919
