data_functionalizedCrystal
_audit_creation_method	'MofGen! by Chris Wilmer'
_symmetry_space_group_name_H-M	'P1'
_symmetry_Int_Tables_number	1
_symmetry_cell_setting	triclinic
loop_
_symmetry_equiv_pos_as_xyz
  x,y,z
_cell_length_a	6.817900
_cell_length_b	17.982959
_cell_length_c	9.582880
_cell_angle_alpha	93.502471
_cell_angle_beta	111.207034
_cell_angle_gamma	102.451857
loop_
_atom_site_label
_atom_site_type_symbol
_atom_site_fract_x
_atom_site_fract_y
_atom_site_fract_z
V1	V	-4.111621	-0.105091	-0.467224
O2	O	-4.102643	0.005381	-0.457687
O3	O	-4.057629	-0.208695	-0.464647
O4	O	-4.102479	-0.103329	-0.670715
O5	O	-4.057483	-0.100715	-0.250193
V6	V	-4.590886	-0.091894	-0.441191
O7	O	-4.382218	-0.134038	-0.524332
O8	O	-4.770486	-0.062946	-0.384083
O9	O	-4.421671	0.011710	-0.443768
O10	O	-4.717261	-0.202366	-0.450728
O11	O	-4.762421	-0.096270	-0.658222
O12	O	-4.376822	-0.093656	-0.237700
C13	C	-3.900000	-0.233956	-0.457436
C14	C	-3.937403	-0.318653	-0.456686
C15	C	-3.957208	-0.099550	-0.720294
C16	C	-4.030980	-0.098795	-0.886653
C17	C	-4.138337	-0.362320	-0.463821
C18	C	-4.173475	-0.441902	-0.463124
C19	C	-4.007670	-0.477816	-0.455282
C20	C	-3.806722	-0.434144	-0.448151
C21	C	-3.771593	-0.354564	-0.448858
C22	C	-3.948393	-0.755082	-0.445300
C23	C	-3.983537	-0.834667	-0.444589
C24	C	-4.350275	-0.842420	-0.459566
C25	C	-4.315145	-0.762840	-0.460274
C26	C	-4.114205	-0.719176	-0.453151
C27	C	-4.076109	-0.632884	-0.453909
C28	C	-4.045759	-0.564106	-0.454513
C29	C	-4.242642	0.036968	-0.450975
C30	C	-4.184478	0.121664	-0.451735
C31	C	-4.185433	-0.097437	-0.188113
C32	C	-4.090900	-0.098188	-0.021753
H33	H	-4.273352	-0.333084	-0.470192
Br34	Br	-4.446182	-0.501161	-0.472810
Br35	Br	-3.581705	-0.482885	-0.437522
Br36	Br	-3.498894	-0.295303	-0.439190
Br37	Br	-4.622986	-0.901683	-0.469233
Br38	Br	-4.540163	-0.714101	-0.470891
H39	H	-3.784776	-0.719539	-0.439491
Br40	Br	-3.758497	-0.883407	-0.433942
