data_functionalizedCrystal
_audit_creation_method	'MofGen! by Chris Wilmer'
_symmetry_space_group_name_H-M	'P1'
_symmetry_Int_Tables_number	1
_symmetry_cell_setting	triclinic
loop_
_symmetry_equiv_pos_as_xyz
  x,y,z
_cell_length_a	17.699083
_cell_length_b	14.421503
_cell_length_c	17.699083
_cell_angle_alpha	90.000692
_cell_angle_beta	96.716985
_cell_angle_gamma	89.986880
loop_
_atom_site_label
_atom_site_type_symbol
_atom_site_fract_x
_atom_site_fract_y
_atom_site_fract_z
O1	O	1.004064	0.076983	-0.095706
O2	O	1.504064	0.576983	0.404294
O3	O	0.783685	0.077014	-0.108158
O4	O	1.283685	0.577014	0.391842
O5	O	0.900101	0.076990	0.008257
O6	O	1.400101	0.576990	0.508257
O7	O	0.887648	0.077008	-0.212121
O8	O	1.387648	0.577008	0.287879
O9	O	0.900115	-0.077234	0.008250
O10	O	1.400115	0.422766	0.508250
O11	O	0.783699	-0.077209	-0.108166
O12	O	1.283699	0.422791	0.391834
O13	O	1.004078	-0.077240	-0.095713
O14	O	1.504078	0.422760	0.404287
Cu15	Cu	0.893890	-0.091306	-0.101940
Cu16	Cu	1.393890	0.408694	0.398060
Cu17	Cu	0.893873	0.091081	-0.101931
Cu18	Cu	1.393873	0.591081	0.398069
O19	O	0.887662	-0.077216	-0.212129
O20	O	1.387662	0.422784	0.287871
C21	C	0.755495	-0.000094	-0.107716
C22	C	1.255495	0.499906	0.392284
C23	C	0.671477	-0.000082	-0.106377
C24	C	1.171477	0.499918	0.393623
N25	N	0.893907	-0.219588	-0.101946
N26	N	1.393907	0.280412	0.398054
C27	C	0.622856	-0.000077	-0.174710
C28	C	1.122856	0.499923	0.325290
C29	C	0.543913	-0.000089	-0.173448
C30	C	1.043913	0.499911	0.326552
C31	C	0.513592	-0.000100	-0.103852
C32	C	1.013592	0.499900	0.396148
C33	C	0.562219	-0.000108	-0.035513
C34	C	1.062219	0.499892	0.464487
C35	C	0.641161	-0.000103	-0.036776
C36	C	1.141161	0.499897	0.463224
C37	C	0.243856	-0.000131	-0.030418
C38	C	0.743856	0.499869	0.469582
C39	C	0.164908	-0.000134	-0.029160
C40	C	0.664908	0.499866	0.470840
C41	C	0.146608	-0.000118	-0.167090
C42	C	0.646608	0.499882	0.332910
C43	C	0.225550	-0.000112	-0.168353
C44	C	0.725550	0.499888	0.331647
C45	C	0.274170	-0.000125	-0.100015
C46	C	0.774170	0.499875	0.399985
C47	C	0.359769	-0.000114	-0.101384
C48	C	0.859769	0.499886	0.398616
C49	C	0.427995	-0.000105	-0.102481
C50	C	0.927995	0.499895	0.397519
C51	C	0.947749	-0.469228	-0.048104
C52	C	1.447749	0.030772	0.451896
C53	C	0.879387	-0.531017	-0.033530
C54	C	1.379387	-0.031017	0.466470
C55	C	0.893890	-0.408749	-0.101937
C56	C	1.393890	0.091251	0.398063
C57	C	0.962237	-0.531054	-0.116466
C58	C	1.462237	-0.031054	0.383534
C59	C	0.893880	-0.591471	-0.101926
C60	C	1.393880	-0.091471	0.398074
C61	C	0.825493	-0.469177	-0.087330
C62	C	1.325493	0.030823	0.412670
C63	C	0.908389	-0.469209	-0.170295
C64	C	1.408389	0.030791	0.329705
C65	C	0.839976	-0.530970	-0.155751
C66	C	1.339976	-0.030970	0.344249
C67	C	0.893897	-0.303488	-0.101941
C68	C	1.393897	0.196512	0.398059
C69	C	0.893865	-0.696729	-0.101923
C70	C	1.393865	-0.196729	0.398077
C71	C	1.032268	-0.000130	-0.096156
C72	C	1.532268	0.499870	0.403844
C73	C	1.116286	-0.000135	-0.097494
C74	C	1.616286	0.499865	0.402506
C75	C	0.899662	-0.000122	0.036451
C76	C	1.399662	0.499878	0.536451
C77	C	0.898323	-0.000122	0.120469
C78	C	1.398323	0.499878	0.620469
N79	N	0.893862	0.219362	-0.101919
N80	N	1.393862	0.719362	0.398081
C81	C	0.888102	-0.000102	-0.240322
C82	C	1.388102	0.499898	0.259678
C83	C	0.889440	-0.000095	-0.324340
C84	C	1.389440	0.499905	0.175660
C85	C	0.966656	-0.000133	0.169090
C86	C	1.466656	0.499867	0.669090
C87	C	0.965394	-0.000125	0.248033
C88	C	1.465394	0.499875	0.748033
C89	C	0.895798	-0.000112	0.278354
C90	C	1.395798	0.499888	0.778354
C91	C	0.827459	-0.000098	0.229727
C92	C	1.327459	0.499902	0.729727
C93	C	0.828722	-0.000100	0.150785
C94	C	1.328722	0.499900	0.650785
C95	C	0.822364	-0.000090	0.548090
C96	C	1.322364	0.499910	1.048090
C97	C	0.821106	-0.000091	0.627038
C98	C	1.321106	0.499909	1.127038
C99	C	0.959036	-0.000115	0.645338
C100	C	1.459036	0.499885	1.145338
C101	C	0.960299	-0.000116	0.566396
C102	C	1.460299	0.499884	1.066396
C103	C	0.891961	-0.000098	0.517776
C104	C	1.391961	0.499902	1.017776
C105	C	0.893330	-0.000105	0.432177
C106	C	1.393330	0.499895	0.932177
C107	C	0.894427	-0.000111	0.363951
C108	C	1.394427	0.499889	0.863951
H109	H	0.647537	-0.000068	-0.231384
H110	H	1.147537	0.499932	0.268616
H111	H	0.794376	-0.557909	-0.201274
H112	H	1.294376	-0.057909	0.298726
C113	C	0.490433	-0.000080	-0.248615
C114	C	0.990433	0.499920	0.251385
H115	H	0.519797	-0.000061	-0.290244
H116	H	1.019797	0.499939	0.209756
H117	H	0.459270	-0.053864	-0.250996
H118	H	0.959270	0.446136	0.249004
H119	H	0.459245	0.053705	-0.250984
H120	H	0.959245	0.553705	0.249016
H121	H	0.920683	-0.442040	-0.228090
H122	H	1.420683	0.057960	0.271910
H123	H	1.023330	-0.000149	0.144409
H124	H	1.523330	0.499851	0.644409
C125	C	0.862801	-0.567697	0.044565
C126	C	1.362801	-0.067697	0.544565
H127	H	0.817668	-0.603914	0.038489
H128	H	1.317668	-0.103914	0.538489
H129	H	0.904167	-0.604883	0.065998
H130	H	1.404167	-0.104883	0.565998
H131	H	0.856324	-0.516913	0.077386
H132	H	1.356324	-0.016913	0.577386
H133	H	0.993248	-0.442117	-0.002553
H134	H	1.493248	0.057883	0.497447
H135	H	0.250232	-0.000099	-0.225025
H136	H	0.750232	0.499901	0.274975
C137	C	0.747197	-0.000069	0.494614
C138	C	1.247197	0.499931	0.994614
H139	H	0.757912	-0.000059	0.443256
H140	H	1.257912	0.499941	0.943256
H141	H	0.718653	-0.053843	0.503789
H142	H	1.218653	0.446157	1.003789
H143	H	0.718655	0.053726	0.503798
H144	H	1.218655	0.553726	1.003798
C145	C	1.034210	-0.000124	0.698819
C146	C	1.534210	0.499876	1.198819
H147	H	1.075838	-0.000143	0.669453
H148	H	1.575838	0.499857	1.169453
H149	H	1.036585	0.053657	0.729994
H150	H	1.536585	0.553657	1.229994
H151	H	1.036588	-0.053912	0.729994
H152	H	1.536588	0.446088	1.229994
C153	C	1.036854	-0.000126	0.533047
C154	C	1.536854	0.499874	1.033047
H155	H	1.077372	-0.000122	0.573311
H156	H	1.577372	0.499878	1.073311
H157	H	1.040222	-0.053906	0.502631
H158	H	1.540222	0.446094	1.002631
H159	H	1.040205	0.053663	0.502634
H160	H	1.540205	0.553663	1.002634
C161	C	1.040561	-0.000146	0.301513
C162	C	1.540561	0.499854	0.801513
H163	H	1.082190	-0.000167	0.272149
H164	H	1.582190	0.499833	0.772149
H165	H	1.042938	0.053634	0.332689
H166	H	1.542938	0.553634	0.832689
H167	H	1.042934	-0.053935	0.332687
H168	H	1.542934	0.446065	0.832687
C169	C	0.747384	-0.432622	-0.070642
C170	C	1.247384	0.067378	0.429358
H171	H	0.747871	-0.366749	-0.070726
H172	H	1.247871	0.133251	0.429274
H173	H	0.709117	-0.454261	-0.108660
H174	H	1.209117	0.045739	0.391340
H175	H	0.736983	-0.454293	-0.022236
H176	H	1.236983	0.045707	0.477764
H177	H	0.140225	-0.000144	0.027517
H178	H	0.640225	0.499856	0.527517
H179	H	1.020041	-0.558234	-0.128760
H180	H	1.520041	-0.058234	0.371240
H181	H	0.764429	-0.000083	0.651721
H182	H	1.264429	0.499917	1.151721
H183	H	0.107012	-0.000112	-0.222734
H184	H	0.607012	0.499888	0.277266
C185	C	0.297328	-0.000139	0.044751
C186	C	0.797328	0.499861	0.544751
H187	H	0.267962	-0.000137	0.086379
H188	H	0.767962	0.499863	0.586379
H189	H	0.328515	-0.053920	0.047125
H190	H	0.828515	0.446080	0.547125
H191	H	0.328493	0.053649	0.047130
H192	H	0.828493	0.553649	0.547130
C193	C	0.750904	-0.000087	0.263077
C194	C	1.250904	0.499913	0.763077
H195	H	0.759938	-0.000098	0.317056
H196	H	1.259938	0.499902	0.817056
H197	H	0.722767	0.053697	0.246381
H198	H	1.222767	0.553697	0.746381
H199	H	0.722783	-0.053872	0.246378
H200	H	1.222783	0.446128	0.746378
C201	C	0.753558	-0.000088	0.097298
C202	C	1.253558	0.499912	0.597298
H203	H	0.764277	-0.000081	0.045941
H204	H	1.264277	0.499919	0.545941
H205	H	0.725014	-0.053862	0.106473
H206	H	1.225014	0.446138	0.606473
H207	H	0.725014	0.053707	0.106477
H208	H	1.225014	0.553707	0.606477
C209	C	0.528869	-0.000118	0.041041
C210	C	1.028869	0.499882	0.541041
H211	H	0.474890	-0.000111	0.032008
H212	H	0.974890	0.499889	0.532008
H213	H	0.545577	-0.053900	0.069171
H214	H	1.045577	0.446100	0.569171
H215	H	0.545556	0.053669	0.069171
H216	H	1.045556	0.553669	0.569171
C217	C	0.694644	-0.000099	0.038390
C218	C	1.194644	0.499901	0.538390
H219	H	0.665282	-0.000096	0.080021
H220	H	1.165282	0.499904	0.580021
H221	H	0.725834	-0.053877	0.040765
H222	H	1.225834	0.446123	0.540765
H223	H	0.725805	0.053692	0.040764
H224	H	1.225805	0.553692	0.540764
