data_functionalizedCrystal
_audit_creation_method	'MofGen! by Chris Wilmer'
_symmetry_space_group_name_H-M	'P1'
_symmetry_Int_Tables_number	1
_symmetry_cell_setting	triclinic
loop_
_symmetry_equiv_pos_as_xyz
  x,y,z
_cell_length_a	9.065218
_cell_length_b	10.654550
_cell_length_c	9.730223
_cell_angle_alpha	90.004253
_cell_angle_beta	90.003359
_cell_angle_gamma	84.750408
loop_
_atom_site_label
_atom_site_type_symbol
_atom_site_fract_x
_atom_site_fract_y
_atom_site_fract_z
O1	O	-1.959392	-0.184159	-0.114293
O2	O	-1.530025	-0.199265	-0.114295
O3	O	-1.754581	-0.009012	-0.114285
O4	O	-1.734837	-0.374412	-0.114303
O5	O	-1.754566	-0.009006	0.114294
O6	O	-1.530010	-0.199259	0.114285
O7	O	-1.959378	-0.184154	0.114287
Zn8	Zn	-1.744692	-0.191706	0.150578
Zn9	Zn	-1.744711	-0.191713	-0.150586
O10	O	-1.734822	-0.374407	0.114277
C11	C	-1.475039	-0.197810	-0.000005
C12	C	-1.311220	-0.193469	-0.000006
C13	C	-1.753124	0.037795	0.000004
C14	C	-1.748786	0.177255	0.000002
C15	C	-2.014364	-0.185608	-0.000006
C16	C	-2.178183	-0.189949	-0.000015
C17	C	-1.736279	-0.421213	-0.000015
C18	C	-1.740616	-0.560673	-0.000022
N19	N	-1.744689	-0.191700	0.356114
C20	C	-1.881001	0.256217	0.000002
C21	C	-1.876917	0.387254	-0.000015
C22	C	-1.608391	0.360354	-0.000026
C23	C	-1.612477	0.229320	-0.000019
N24	N	-1.744725	-0.191708	-0.356123
C25	C	-1.844157	-0.107492	0.428044
C26	C	-1.844172	-0.107493	0.571927
C27	C	-1.645247	-0.275920	0.571937
C28	C	-1.645226	-0.275912	0.428057
H29	H	-1.991993	0.213831	0.000016
O30	O	-1.548544	-0.357839	0.358388
C31	C	-1.460743	-0.432154	0.452735
H32	H	-1.521258	-0.434306	0.555288
H33	H	-1.439244	-0.532187	0.411145
H34	H	-1.350732	-0.390068	0.468064
O35	O	-1.940593	-0.025569	0.641861
C36	C	-1.860811	0.052839	0.725135
H37	H	-1.744430	0.056348	0.681796
H38	H	-1.919999	0.151952	0.726767
H39	H	-1.853490	0.013622	0.834176
H40	H	-1.564268	-0.344486	0.630527
H41	H	-1.504805	0.165025	-0.000023
O42	O	-1.940613	-0.025485	0.358251
C43	C	-1.915353	0.099110	0.393505
H44	H	-1.797215	0.101089	0.433058
H45	H	-1.931679	0.161984	0.298920
H46	H	-1.996738	0.135009	0.477043
O47	O	-2.005450	0.463827	-0.000194
C48	C	-2.088124	0.439992	-0.118586
H49	H	-2.052915	0.341023	-0.158047
H50	H	-2.211085	0.447811	-0.091952
H51	H	-2.067228	0.511864	-0.201491
O52	O	-1.476114	0.411141	0.000027
C53	C	-1.500855	0.543728	-0.000008
H54	H	-1.615680	0.573187	0.043267
H55	H	-1.413553	0.584943	0.066353
H56	H	-1.493339	0.580267	-0.109670
