data_functionalizedCrystal
_audit_creation_method	'MofGen! by Chris Wilmer'
_symmetry_space_group_name_H-M	'P1'
_symmetry_Int_Tables_number	1
_symmetry_cell_setting	triclinic
loop_
_symmetry_equiv_pos_as_xyz
  x,y,z
_cell_length_a	16.625539
_cell_length_b	12.759401
_cell_length_c	12.759400
_cell_angle_alpha	90.014845
_cell_angle_beta	90.023902
_cell_angle_gamma	90.013884
loop_
_atom_site_label
_atom_site_type_symbol
_atom_site_fract_x
_atom_site_fract_y
_atom_site_fract_z
Zn1	Zn	-0.455855	-1.606208	0.418279
Zn2	Zn	-0.321029	-1.606116	0.593975
Zn3	Zn	-0.321043	-1.430524	0.418311
Zn4	Zn	-0.455826	-1.430498	0.593917
O5	O	-0.388438	-1.518336	0.506120
O6	O	-0.437976	-1.753217	0.441596
O7	O	-0.208198	-1.582796	0.570710
O8	O	-0.338945	-1.453878	0.271286
O9	O	-0.338920	-1.753149	0.570679
O10	O	-0.437991	-1.582952	0.271262
O11	O	-0.208209	-1.453789	0.441650
O12	O	-0.338916	-1.283499	0.441595
O13	O	-0.568662	-1.453834	0.570581
O14	O	-0.437941	-1.283481	0.570612
O15	O	-0.568684	-1.582927	0.441541
O16	O	-0.338891	-1.582771	0.740988
O17	O	-0.437926	-1.453745	0.740946
C18	C	-0.388427	-1.245369	0.506101
C19	C	-0.388442	-1.128592	0.506118
C20	C	-0.598747	-1.518388	0.506051
C21	C	-0.688368	-1.518410	0.506022
C22	C	-0.761151	-1.518427	0.505998
C23	C	-0.852459	-1.518452	0.505959
C24	C	-0.925236	-1.518476	0.505922
C25	C	-1.016550	-1.518502	0.505884
C26	C	-0.388421	-1.518274	0.779088
C27	C	-0.388441	-1.518344	0.895864
C28	C	-0.178947	-1.518346	0.506114
C29	C	-0.089327	-1.518527	0.505847
C30	C	-0.388450	-1.792370	0.506141
C31	C	-0.388455	-1.909146	0.506149
C32	C	-0.439918	-1.073748	0.573405
C33	C	-0.439927	-0.964024	0.573418
C34	C	-0.336976	-0.963998	0.438855
C35	C	-0.336972	-1.073720	0.438837
C36	C	-0.491388	-1.128620	0.640686
C37	C	-0.542869	-1.073776	0.707979
C38	C	-0.542877	-0.964052	0.707992
C39	C	-0.491406	-0.909172	0.640713
C40	C	-0.388473	-1.518428	0.232087
C41	C	-0.388488	-1.518467	0.115311
C42	C	-0.336931	-1.585602	0.950714
C43	C	-0.336956	-1.585666	1.060438
C44	C	-0.440004	-1.451205	1.060454
C45	C	-0.439982	-1.451147	0.950732
C46	C	-0.285390	-1.652798	0.895846
C47	C	-0.233874	-1.720061	0.950695
C48	C	-0.233899	-1.720126	1.060420
C49	C	-0.285439	-1.652927	1.115294
H50	H	-0.584780	-1.118466	0.762749
H51	H	-0.295070	-0.919307	0.384080
H52	H	-0.285462	-1.652994	1.204639
H53	H	-0.491386	-1.217963	0.640685
N54	N	-0.181285	-1.788847	1.116432
N55	N	-0.135276	-1.848839	1.067426
H56	H	-0.098113	-1.897374	1.106982
H57	H	-0.481965	-1.396495	1.105142
N58	N	-0.284395	-1.129733	0.370088
N59	N	-0.238444	-1.080731	0.310022
H60	H	-0.201315	-1.120290	0.261459
N61	N	-0.285357	-1.652767	0.783767
N62	N	-0.302244	-1.734691	0.734722
H63	H	-0.302219	-1.734673	0.655566
H64	H	-0.191916	-1.774778	0.906011
H65	H	-0.481928	-1.396380	0.906073
H66	H	-0.584801	-0.919401	0.762778
N67	N	-0.491409	-0.797091	0.640701
N68	N	-0.508369	-0.748138	0.558778
H69	H	-0.508368	-0.668982	0.558771
