data_functionalizedCrystal
_audit_creation_method	'MofGen! by Chris Wilmer'
_symmetry_space_group_name_H-M	'P1'
_symmetry_Int_Tables_number	1
_symmetry_cell_setting	triclinic
loop_
_symmetry_equiv_pos_as_xyz
  x,y,z
_cell_length_a	21.395364
_cell_length_b	17.640280
_cell_length_c	21.395355
_cell_angle_alpha	78.784922
_cell_angle_beta	89.975273
_cell_angle_gamma	78.798629
loop_
_atom_site_label
_atom_site_type_symbol
_atom_site_fract_x
_atom_site_fract_y
_atom_site_fract_z
Zn1	Zn	1.008380	-0.314779	-0.303890
Zn2	Zn	1.029492	-0.446928	-0.177964
Zn3	Zn	0.903594	-0.314776	-0.199127
Zn4	Zn	0.924770	-0.446904	-0.282708
O5	O	0.966559	-0.380847	-0.240922
O6	O	1.098860	-0.332321	-0.287193
O7	O	1.012765	-0.429406	-0.093092
O8	O	0.899797	-0.204175	-0.230745
O9	O	1.114371	-0.429410	-0.194676
O10	O	0.976783	-0.204178	-0.307714
O11	O	0.920268	-0.332315	-0.108640
O12	O	0.818724	-0.332291	-0.210206
O13	O	0.935887	-0.429369	-0.373197
O14	O	0.834281	-0.429365	-0.271613
O15	O	0.997315	-0.332297	-0.388759
O16	O	1.033298	-0.557525	-0.174137
O17	O	0.956359	-0.557508	-0.251092
C18	C	0.803768	-0.380826	-0.240907
C19	C	0.734128	-0.380836	-0.240913
C20	C	0.240466	-0.431486	-0.272843
C21	C	0.305901	-0.431486	-0.272836
C22	C	0.330495	-0.380864	-0.240939
C23	C	0.289649	-0.330252	-0.209032
C24	C	0.224216	-0.330259	-0.209035
C25	C	0.422752	-0.309636	-0.247487
C26	C	0.488183	-0.309628	-0.247489
C27	C	0.532312	-0.380843	-0.240929
C28	C	0.511001	-0.452069	-0.234379
C29	C	0.445568	-0.452076	-0.234381
C30	C	0.401445	-0.380851	-0.240933
C31	C	0.644103	-0.431456	-0.272823
C32	C	0.709540	-0.431457	-0.272811
C33	C	0.693284	-0.330217	-0.209012
C34	C	0.627850	-0.330222	-0.209019
C35	C	0.603263	-0.380841	-0.240927
C36	C	0.999434	-0.586194	-0.208034
C37	C	1.013555	-0.674043	-0.193985
C38	C	0.859538	-0.963056	-0.347878
C39	C	0.872808	-1.045604	-0.334657
C40	C	0.952975	-1.045557	-0.254605
C41	C	0.939713	-0.963008	-0.267821
C42	C	0.892994	-0.921764	-0.314458
C43	C	0.973169	-0.921716	-0.234401
C44	C	0.959906	-0.839174	-0.247615
C45	C	0.913187	-0.797925	-0.294248
C46	C	0.879731	-0.839223	-0.327671
C47	C	1.019885	-0.962961	-0.187762
C48	C	1.053341	-0.921669	-0.154342
C49	C	1.040081	-0.839126	-0.167558
C50	C	0.993362	-0.797876	-0.214191
C51	C	1.073538	-0.797828	-0.134135
C52	C	1.060275	-0.715286	-0.147348
C53	C	0.980099	-0.715335	-0.227405
C54	C	1.129986	-0.380868	-0.240937
C55	C	1.199628	-0.380878	-0.240943
C56	C	0.966608	-0.380831	-0.404348
C57	C	0.966630	-0.380824	-0.473990
C58	C	0.933573	-0.174697	-0.273953
C59	C	0.919516	-0.086849	-0.288028
C60	C	0.998613	-0.330277	-0.514808
C61	C	0.998607	-0.330243	-0.580249
C62	C	0.966626	-0.380770	-0.604867
C63	C	0.934635	-0.431321	-0.564041
C64	C	0.934637	-0.431348	-0.498603
C65	C	0.973071	-0.451935	-0.697144
C66	C	0.973074	-0.451909	-0.762581
C67	C	0.966616	-0.380687	-0.806702
C68	C	0.960168	-0.309487	-0.785377
C69	C	0.960170	-0.309514	-0.719938
C70	C	0.966620	-0.380746	-0.675824
C71	C	0.998594	-0.330098	-0.918478
C72	C	0.998584	-0.330063	-0.983921
C73	C	0.934616	-0.431148	-0.967711
C74	C	0.934623	-0.431176	-0.902271
C75	C	0.966615	-0.380652	-0.877658
C76	C	0.966537	-0.380806	-0.078141
C77	C	0.966601	-0.380590	-0.008535
H78	H	0.386826	-0.251641	-0.252819
C79	C	0.754462	-0.487137	-0.307902
N80	N	0.788299	-0.529076	-0.334332
C81	C	1.033780	-0.274515	-0.891404
N82	N	1.060281	-0.232647	-0.871013
H83	H	0.821499	-0.929474	-0.385859
H84	H	0.902385	-0.730714	-0.305001
C85	C	0.559539	-0.530412	-0.227161
N86	N	0.596100	-0.589418	-0.221727
C87	C	1.104728	-0.967046	-0.103040
N88	N	1.143434	-1.001223	-0.064400
H89	H	0.624083	-0.472673	-0.298804
C90	C	0.511618	-0.231279	-0.254695
N91	N	0.529268	-0.172264	-0.260121
C92	C	1.033768	-0.274452	-1.028821
N93	N	1.060271	-0.232566	-1.062641
H94	H	0.220452	-0.472706	-0.298823
H95	H	1.111572	-0.831421	-0.096159
H96	H	0.309677	-0.289037	-0.183060
H97	H	0.978328	-0.509884	-0.779938
H98	H	0.841692	-0.805641	-0.365652
C99	C	0.720333	-0.274534	-0.173922
N100	N	0.740710	-0.232594	-0.147490
C101	C	0.899437	-0.486729	-0.994787
N102	N	0.872939	-0.528595	-1.015184
C103	C	0.928697	-0.669962	-0.278699
N104	N	0.889978	-0.635787	-0.317327
C105	C	0.980189	-0.530291	-0.648617
N106	N	0.985554	-0.589309	-0.612067
H107	H	1.087517	-0.681666	-0.120133
C108	C	0.899441	-0.486786	-0.857369
N109	N	0.872938	-0.528672	-0.823548
H110	H	0.845569	-1.079221	-0.361882
C111	C	0.179291	-0.274578	-0.173947
N112	N	0.145453	-0.232636	-0.147521
H113	H	0.991012	-1.079148	-0.216631
H114	H	0.908593	-0.472458	-0.584090
C115	C	1.034475	-1.053760	-0.173230
N116	N	1.045466	-1.122149	-0.162287
C117	C	1.033796	-0.274688	-0.487740
N118	N	1.060293	-0.232815	-0.467352
H119	H	0.908589	-0.472508	-0.465368
C120	C	1.033797	-0.274640	-0.625156
N121	N	1.060305	-0.232761	-0.658977
H122	H	0.954918	-0.251542	-0.702579
H123	H	0.954911	-0.251491	-0.821299
H124	H	0.339157	-0.472697	-0.298815
H125	H	0.428220	-0.510070	-0.229046
H126	H	0.594598	-0.289009	-0.183045
