data_functionalizedCrystal
_audit_creation_method	'MofGen! by Chris Wilmer'
_symmetry_space_group_name_H-M	'P1'
_symmetry_Int_Tables_number	1
_symmetry_cell_setting	triclinic
loop_
_symmetry_equiv_pos_as_xyz
  x,y,z
_cell_length_a	12.759401
_cell_length_b	18.101397
_cell_length_c	12.759393
_cell_angle_alpha	89.963423
_cell_angle_beta	89.980324
_cell_angle_gamma	90.020892
loop_
_atom_site_label
_atom_site_type_symbol
_atom_site_fract_x
_atom_site_fract_y
_atom_site_fract_z
Zn1	Zn	1.606224	-0.294785	-0.593940
Zn2	Zn	1.606098	-0.418645	-0.418242
Zn3	Zn	1.430523	-0.294822	-0.418279
Zn4	Zn	1.430497	-0.418590	-0.593883
O5	O	1.518336	-0.356711	-0.506086
O6	O	1.753228	-0.311223	-0.570642
O7	O	1.582765	-0.402257	-0.271226
O8	O	1.453894	-0.191185	-0.441621
O9	O	1.753135	-0.402222	-0.441557
O10	O	1.582981	-0.191157	-0.570678
O11	O	1.453771	-0.311286	-0.271253
O12	O	1.283499	-0.311233	-0.441565
O13	O	1.453850	-0.402129	-0.740912
O14	O	1.283480	-0.402165	-0.570580
O15	O	1.582956	-0.311170	-0.740954
O16	O	1.582740	-0.522270	-0.441501
O17	O	1.453727	-0.522231	-0.570544
C18	C	1.245368	-0.356698	-0.506071
C19	C	1.128592	-0.356710	-0.506090
C20	C	1.073779	-0.309413	-0.573408
C21	C	0.964055	-0.309420	-0.573415
C22	C	0.963966	-0.404029	-0.438783
C23	C	1.073688	-0.404017	-0.438771
C24	C	0.814147	-0.222129	-0.611196
C25	C	0.759331	-0.174838	-0.678531
C26	C	0.794991	-0.163551	-0.781071
C27	C	0.885466	-0.199566	-0.816298
C28	C	0.940277	-0.246862	-0.748969
C29	C	0.904618	-0.258135	-0.646414
C30	C	1.223597	-0.491310	-0.401000
C31	C	1.278410	-0.538610	-0.333676
C32	C	1.242752	-0.549905	-0.231134
C33	C	1.152274	-0.513903	-0.195911
C34	C	1.097461	-0.466603	-0.263236
C35	C	1.133126	-0.455307	-0.365777
C36	C	1.518246	-0.549121	-0.506035
C37	C	1.518303	-0.631435	-0.506049
C38	C	1.518437	-0.930526	-0.506144
C39	C	1.599382	-0.899195	-0.424737
C40	C	1.599663	-0.813577	-0.424948
C41	C	1.518371	-0.782144	-0.506096
C42	C	1.548391	-0.813143	-0.616837
C43	C	1.549018	-0.898788	-0.616393
C44	C	1.407256	-0.899038	-0.477770
C45	C	1.407805	-0.813389	-0.475298
C46	C	1.518332	-0.698284	-0.506075
C47	C	1.518479	-1.014386	-0.506172
C48	C	1.792369	-0.356724	-0.506102
C49	C	1.909145	-0.356730	-0.506108
C50	C	1.518414	-0.356640	-0.780120
C51	C	1.518448	-0.356609	-0.896896
C52	C	1.518454	-0.163549	-0.506160
C53	C	1.518505	-0.081235	-0.506192
C54	C	1.585678	-0.309239	-0.951782
C55	C	1.585696	-0.309207	-1.061506
C56	C	1.451250	-0.403922	-1.061449
C57	C	1.451228	-0.403949	-0.951727
C58	C	1.623320	-0.221833	-1.211497
C59	C	1.690567	-0.174469	-1.266386
C60	C	1.793082	-0.163115	-1.230794
C61	C	1.828370	-0.199134	-1.140314
C62	C	1.761129	-0.246503	-1.085431
C63	C	1.658600	-0.257844	-1.121021
C64	C	1.413614	-0.491325	-0.801735
C65	C	1.346377	-0.538698	-0.746849
C66	C	1.243861	-0.550061	-0.782439
C67	C	1.208576	-0.514054	-0.872922
C68	C	1.275813	-0.466681	-0.927808
C69	C	1.378328	-0.455317	-0.892210
C70	C	1.518318	-0.356728	-0.233119
C71	C	1.518488	-0.356550	-0.116343
H72	H	0.919250	-0.442546	-0.383975
H73	H	1.628750	-0.791633	-0.641279
C74	C	1.574250	-0.785265	-0.314025
N75	N	1.555099	-0.763944	-0.230476
H76	H	1.287371	-0.588442	-0.176331
C77	C	1.710033	-0.928208	-0.449790
N78	N	1.793372	-0.950068	-0.468656
H79	H	1.497089	-0.482072	-0.772743
H80	H	0.685666	-0.145515	-0.649840
H81	H	0.785112	-0.231307	-0.527696
C82	C	1.377929	-0.578224	-0.372432
N83	N	1.452883	-0.608063	-0.401624
C84	C	1.039799	-0.286472	-0.787709
N85	N	1.114765	-0.316302	-0.816890
C86	C	0.997934	-0.426996	-0.224484
N87	N	0.922972	-0.397165	-0.195297
H88	H	1.396524	-0.442466	-1.106106
C89	C	1.471186	-0.785629	-0.700987
N90	N	1.413035	-0.764902	-0.764368
H91	H	1.379946	-0.920704	-0.398418
C92	C	0.734694	-0.111524	-0.855134
N93	N	0.689278	-0.072333	-0.910911
H94	H	1.247076	-0.437363	-1.001484
H95	H	1.123236	-0.523104	-0.112415
C96	C	1.574325	-0.927099	-0.313472
N97	N	1.555449	-0.948120	-0.229664
H98	H	1.118478	-0.270890	-0.628220
C99	C	1.710926	-0.785818	-0.450303
N100	N	1.794734	-0.764910	-0.469400
H101	H	1.630287	-0.918704	-0.640430
C102	C	1.472841	-0.926785	-0.701140
N103	N	1.415473	-0.947869	-0.764977
H104	H	1.252645	-0.482111	-0.484496
C105	C	1.799938	-0.286119	-0.985905
N106	N	1.829170	-0.315953	-0.910935
C107	C	1.659613	-0.257157	-0.891472
N108	N	1.715299	-0.217925	-0.846049
H109	H	1.385169	-0.793136	-0.393801
H110	H	0.914487	-0.190378	-0.899801
H111	H	1.344250	-0.792000	-0.530249
H112	H	1.346946	-0.919300	-0.537062
H113	H	1.911852	-0.189890	-1.111348
C114	C	1.867048	-0.111009	-1.291172
N115	N	1.922753	-0.071758	-1.336650
C116	C	1.651742	-0.134843	-1.365904
N117	N	1.622504	-0.104996	-1.440861
C118	C	1.510544	-0.234311	-1.250648
N119	N	1.425599	-0.243710	-1.280143
C120	C	1.095802	-0.526551	-0.912073
N121	N	1.010859	-0.535967	-0.941560
H122	H	1.189121	-0.588643	-0.737746
H123	H	1.375119	-0.568023	-0.673180
