data_functionalizedCrystal
_audit_creation_method	'MofGen! by Chris Wilmer'
_symmetry_space_group_name_H-M	'P1'
_symmetry_Int_Tables_number	1
_symmetry_cell_setting	triclinic
loop_
_symmetry_equiv_pos_as_xyz
  x,y,z
_cell_length_a	19.288859
_cell_length_b	15.995350
_cell_length_c	15.072220
_cell_angle_alpha	89.994173
_cell_angle_beta	89.994231
_cell_angle_gamma	83.313050
loop_
_atom_site_label
_atom_site_type_symbol
_atom_site_fract_x
_atom_site_fract_y
_atom_site_fract_z
O1	O	0.921622	0.104430	-0.073796
O2	O	1.254955	0.437763	0.259538
O3	O	1.588289	0.771096	0.592871
O4	O	0.719397	0.118525	-0.073793
O5	O	1.052731	0.451859	0.259540
O6	O	1.386064	0.785192	0.592874
O7	O	0.826038	-0.010431	-0.073794
O8	O	1.159371	0.322902	0.259540
O9	O	1.492704	0.656236	0.592873
O10	O	0.814982	0.233386	-0.073795
O11	O	1.148315	0.566719	0.259538
O12	O	1.481648	0.900053	0.592872
O13	O	0.826028	-0.010443	0.073772
O14	O	1.159362	0.322890	0.407105
O15	O	1.492695	0.656224	0.740438
O16	O	0.719388	0.118513	0.073772
O17	O	1.052721	0.451847	0.407105
O18	O	1.386055	0.785180	0.740439
O19	O	0.921613	0.104418	0.073769
O20	O	1.254946	0.437751	0.407103
O21	O	1.588279	0.771084	0.740436
Zn22	Zn	0.820499	0.111464	0.097200
Zn23	Zn	1.153832	0.444797	0.430533
Zn24	Zn	1.487166	0.778130	0.763867
Zn25	Zn	0.820511	0.111479	-0.097223
Zn26	Zn	1.153845	0.444813	0.236110
Zn27	Zn	1.487178	0.778146	0.569443
O28	O	0.814973	0.233374	0.073770
O29	O	1.148306	0.566707	0.407103
O30	O	1.481639	0.900041	0.740437
C31	C	0.693515	0.118067	-0.000010
C32	C	1.026848	0.451400	0.333323
C33	C	1.360182	0.784733	0.666656
C34	C	0.616408	0.116708	-0.000009
C35	C	0.949741	0.450041	0.333324
C36	C	1.283074	0.783374	0.666657
C37	C	0.825576	-0.041630	-0.000013
C38	C	1.158909	0.291703	0.333321
C39	C	1.492243	0.625037	0.666654
C40	C	0.824206	-0.134575	-0.000018
C41	C	1.157539	0.198758	0.333316
C42	C	1.490872	0.532091	0.666649
C43	C	0.052540	0.183181	-0.000011
C44	C	0.385873	0.516514	0.333322
C45	C	0.719206	0.849847	0.666656
C46	C	0.124989	0.184465	-0.000016
C47	C	0.458323	0.517798	0.333318
C48	C	0.791656	0.851132	0.666651
C49	C	0.169500	0.108799	-0.000014
C50	C	0.502833	0.442133	0.333320
C51	C	0.836166	0.775466	0.666653
C52	C	0.141555	0.031843	-0.000030
C53	C	0.474888	0.365177	0.333304
C54	C	0.808222	0.698510	0.666637
C55	C	0.069106	0.030561	-0.000034
C56	C	0.402440	0.363895	0.333300
C57	C	0.735773	0.697228	0.666633
C58	C	0.290620	0.052364	0.051689
C59	C	0.623954	0.385697	0.385022
C60	C	0.957287	0.719030	0.718355
C61	C	0.363067	0.053649	0.051698
C62	C	0.696401	0.386982	0.385032
C63	C	1.029734	0.720316	0.718365
C64	C	0.392956	0.112750	-0.000005
C65	C	0.726289	0.446083	0.333329
C66	C	1.059623	0.779417	0.666662
C67	C	0.350387	0.170580	-0.051706
C68	C	0.683720	0.503913	0.281628
C69	C	1.017054	0.837247	0.614961
C70	C	0.277938	0.169298	-0.051710
C71	C	0.611272	0.502632	0.281623
C72	C	0.944605	0.835965	0.614957
C73	C	0.248059	0.110181	-0.000010
C74	C	0.581392	0.443514	0.333324
C75	C	0.914726	0.776847	0.666657
C76	C	0.499451	0.191093	0.000000
C77	C	0.832784	0.524427	0.333333
C78	C	1.166117	0.857760	0.666667
C79	C	0.571902	0.192374	-0.000010
C80	C	0.905236	0.525708	0.333323
C81	C	1.238569	0.859041	0.666657
C82	C	0.588467	0.039751	-0.000015
C83	C	0.921800	0.373084	0.333318
C84	C	1.255133	0.706417	0.666652
C85	C	0.516016	0.038472	-0.000014
C86	C	0.849350	0.371805	0.333320
C87	C	1.182683	0.705138	0.666653
C88	C	0.471513	0.114146	-0.000002
C89	C	0.804846	0.447479	0.333331
C90	C	1.138179	0.780812	0.666665
C91	C	0.819285	-0.472304	-0.000015
C92	C	1.152618	-0.138971	0.333319
C93	C	1.485951	0.194363	0.666652
C94	C	0.743337	-0.424582	-0.000345
C95	C	1.076671	-0.091248	0.332989
C96	C	1.410004	0.242085	0.666322
C97	C	0.744708	-0.327897	-0.000012
C98	C	1.078041	0.005437	0.333321
C99	C	1.411375	0.338770	0.666655
C100	C	0.821726	-0.304753	-0.000017
C101	C	1.155059	0.028580	0.333317
C102	C	1.488392	0.361914	0.666650
C103	C	0.859180	-0.345979	0.084248
C104	C	1.192514	-0.012646	0.417582
C105	C	1.525847	0.320687	0.750915
C106	C	0.857272	-0.442608	0.084319
C107	C	1.190606	-0.109275	0.417652
C108	C	1.523939	0.224059	0.750985
C109	C	0.858852	-0.442958	-0.083490
C110	C	1.192185	-0.109625	0.249843
C111	C	1.525518	0.223708	0.583176
C112	C	0.858834	-0.346013	-0.084604
C113	C	1.192167	-0.012680	0.248729
C114	C	1.525500	0.320654	0.582063
C115	C	0.823109	-0.210061	-0.000015
C116	C	1.156442	0.123273	0.333318
C117	C	1.489776	0.456606	0.666652
C118	C	0.817903	-0.566997	-0.000011
C119	C	1.151237	-0.233663	0.333323
C120	C	1.484570	0.099670	0.666656
C121	C	0.947495	0.104876	-0.000015
C122	C	1.280828	0.438210	0.333318
C123	C	1.614162	0.771543	0.666651
C124	C	1.024602	0.106235	-0.000022
C125	C	1.357936	0.439569	0.333311
C126	C	1.691269	0.772902	0.666645
C127	C	0.815434	0.264573	-0.000013
C128	C	1.148768	0.597906	0.333321
C129	C	1.482101	0.931240	0.666654
C130	C	0.816805	0.357518	-0.000014
C131	C	1.150138	0.690852	0.333320
C132	C	1.483471	1.024185	0.666653
N133	N	0.820496	0.111452	0.229889
N134	N	1.153829	0.444786	0.563222
N135	N	1.487162	0.778119	0.896555
N136	N	0.820520	0.111484	-0.229912
N137	N	1.153853	0.444817	0.103421
N138	N	1.487187	0.778151	0.436754
C139	C	0.820504	0.111463	0.410886
C140	C	1.153837	0.444797	0.744219
C141	C	1.487170	0.778130	1.077553
C142	C	0.877578	0.042485	0.448527
C143	C	1.210912	0.375818	0.781861
C144	C	1.544245	0.709151	1.115194
C145	C	0.877785	0.042667	0.551353
C146	C	1.211119	0.376001	0.884686
C147	C	1.544452	0.709334	1.218019
C148	C	0.820512	0.111473	0.589090
C149	C	1.153845	0.444806	0.922424
C150	C	1.487179	0.778140	1.255757
C151	C	0.836041	0.198886	0.551744
C152	C	1.169374	0.532220	0.885077
C153	C	1.502708	0.865553	1.218411
C154	C	0.836446	0.198476	0.448886
C155	C	1.169780	0.531809	0.782220
C156	C	1.503113	0.865143	1.115553
C157	C	0.747729	0.093817	0.448806
C158	C	1.081062	0.427150	0.782140
C159	C	1.414396	0.760483	1.115473
C160	C	0.748222	0.091835	0.551671
C161	C	1.081555	0.425169	0.885004
C162	C	1.414888	0.758502	1.218338
C163	C	0.820515	0.111484	0.689804
C164	C	1.153848	0.444817	1.023137
C165	C	1.487182	0.778150	1.356470
C166	C	0.820502	0.111458	0.310173
C167	C	1.153836	0.444792	0.643506
C168	C	1.487169	0.778125	0.976839
H169	H	0.016308	0.244800	-0.000006
H170	H	0.349642	0.578134	0.333328
H171	H	0.682975	0.911467	0.666661
H172	H	0.463214	0.252711	0.000008
H173	H	0.796547	0.586045	0.333341
H174	H	1.129880	0.919378	0.666675
F175	F	0.732800	0.007793	0.583593
F176	F	1.066134	0.341126	0.916926
F177	F	1.399467	0.674460	1.250260
H178	H	0.703782	0.138819	0.577356
H179	H	1.037116	0.472152	0.910690
H180	H	1.370449	0.805485	1.244023
H181	H	0.868583	-0.022309	0.576604
H182	H	1.201916	0.311024	0.909938
H183	H	1.535249	0.644358	1.243271
F184	F	0.821561	-0.466402	0.166652
F185	F	1.154894	-0.133069	0.499985
F186	F	1.488227	0.200264	0.833319
F187	F	0.258822	-0.010577	0.106680
F188	F	0.592155	0.322756	0.440014
F189	F	0.925489	0.656090	0.773347
H190	H	0.834025	-0.463399	-0.147358
H191	H	1.167358	-0.130065	0.185975
H192	H	1.500692	0.203268	0.519308
H193	H	0.931284	0.053596	0.422661
H194	H	1.264617	0.386930	0.755994
H195	H	1.597950	0.720263	1.089327
H196	H	0.705260	0.144119	0.424463
H197	H	1.038593	0.477453	0.757797
H198	H	1.371926	0.810786	1.091130
H199	H	0.397721	0.006564	0.093801
H200	H	0.731055	0.339898	0.427135
H201	H	1.064388	0.673231	0.760468
F202	F	0.930151	-0.485038	0.089321
F203	F	1.263485	-0.151705	0.422654
F204	F	1.596818	0.181628	0.755988
H205	H	0.147740	0.247125	0.000002
H206	H	0.481074	0.580459	0.333335
H207	H	0.814407	0.913792	0.666668
F208	F	0.705954	-0.291330	0.079075
F209	F	1.039287	0.042003	0.412408
F210	F	1.372621	0.375336	0.745741
F211	F	0.865749	-0.042733	0.416213
F212	F	1.199082	0.290600	0.749547
F213	F	1.532415	0.623934	1.082880
F214	F	0.728128	0.012273	0.414916
F215	F	1.061461	0.345607	0.748249
F216	F	1.394795	0.678940	1.081582
H217	H	0.833158	-0.317504	0.146958
H218	H	1.166492	0.015829	0.480292
H219	H	1.499825	0.349162	0.813625
H220	H	0.046361	-0.032099	-0.000043
H221	H	0.379695	0.301235	0.333290
H222	H	0.713028	0.634568	0.666624
F223	F	0.823316	-0.309867	-0.166095
F224	F	1.156649	0.023467	0.167238
F225	F	1.489983	0.356800	0.500571
H226	H	0.374720	0.218708	-0.093805
H227	H	0.708053	0.552041	0.239529
H228	H	1.041387	0.885375	0.572862
H229	H	0.243282	0.216384	-0.093808
H230	H	0.576615	0.549717	0.239525
H231	H	0.909948	0.883051	0.572858
H232	H	0.594646	0.255035	-0.000008
H233	H	0.927980	0.588368	0.333325
H234	H	1.261313	0.921702	0.666658
H235	H	0.914847	-0.474932	-0.084060
H236	H	1.248181	-0.141599	0.249273
H237	H	1.581514	0.191735	0.582607
H238	H	0.795565	0.251457	0.576187
H239	H	1.128898	0.584791	0.909520
H240	H	1.462231	0.918124	1.242853
F241	F	0.933138	-0.327799	0.088343
F242	F	1.266472	0.005534	0.421676
F243	F	1.599805	0.338867	0.755010
F244	F	0.904608	0.219700	0.585404
F245	F	1.237941	0.553034	0.918737
F246	F	1.571274	0.886367	1.252070
F247	F	0.932245	-0.326208	-0.091264
F248	F	1.265578	0.007125	0.242069
F249	F	1.598911	0.340458	0.575402
F250	F	0.948382	0.057422	0.583511
F251	F	1.281715	0.390755	0.916844
F252	F	1.615048	0.724089	1.250177
F253	F	0.905805	0.218790	0.417516
F254	F	1.239139	0.552124	0.750850
F255	F	1.572472	0.885457	1.084183
H256	H	0.624706	-0.021858	-0.000020
H257	H	0.958040	0.311475	0.333313
H258	H	1.291373	0.644809	0.666647
F259	F	0.486283	-0.043425	-0.000028
F260	F	0.819616	0.289908	0.333306
F261	F	1.152949	0.623241	0.666639
F262	F	0.784562	0.268016	0.416337
F263	F	1.117896	0.601349	0.749670
F264	F	1.451229	0.934682	1.083004
H265	H	0.177800	-0.029764	-0.000030
H266	H	0.511133	0.303569	0.333303
H267	H	0.844467	0.636903	0.666636
H268	H	0.715266	-0.299358	-0.060416
H269	H	1.048599	0.033976	0.272917
H270	H	1.381932	0.367309	0.606250
H271	H	0.712986	-0.442993	-0.060772
H272	H	1.046319	-0.109660	0.272561
H273	H	1.379652	0.223674	0.605894
H274	H	0.713113	-0.444066	0.059747
H275	H	1.046446	-0.110732	0.393081
H276	H	1.379780	0.222601	0.726414
