data_functionalizedCrystal
_audit_creation_method	'MofGen! by Chris Wilmer'
_symmetry_space_group_name_H-M	'P1'
_symmetry_Int_Tables_number	1
_symmetry_cell_setting	triclinic
loop_
_symmetry_equiv_pos_as_xyz
  x,y,z
_cell_length_a	11.792241
_cell_length_b	10.268362
_cell_length_c	10.654550
_cell_angle_alpha	90.004111
_cell_angle_beta	95.660841
_cell_angle_gamma	90.000272
loop_
_atom_site_label
_atom_site_type_symbol
_atom_site_fract_x
_atom_site_fract_y
_atom_site_fract_z
O1	O	-1.507306	0.108151	0.172136
O2	O	-1.177006	0.108185	0.189877
O3	O	-1.349751	0.108162	-0.001754
O4	O	-1.334562	0.108173	0.363767
O5	O	-1.349735	-0.108438	-0.001762
O6	O	-1.176991	-0.108416	0.189869
O7	O	-1.507291	-0.108450	0.172128
Cu8	Cu	-1.342140	-0.128210	0.180998
Cu9	Cu	-1.342158	0.127945	0.181007
O10	O	-1.334547	-0.108427	0.363759
C11	C	-1.134705	-0.000111	0.188758
C12	C	-1.008684	-0.000098	0.185423
N13	N	-1.342135	-0.308376	0.180990
C14	C	-1.342152	-0.574047	0.181005
C15	C	-1.342139	-0.426209	0.181000
C16	C	-0.777957	-0.000133	0.179290
C17	C	-0.906351	-0.000114	0.182697
C18	C	-0.549592	-0.000148	0.173247
C19	C	-0.675614	-0.000143	0.176582
C20	C	-1.348628	-0.000136	-0.048553
C21	C	-1.345291	-0.000132	-0.187987
N22	N	-1.342171	0.308111	0.181005
C23	C	-1.447000	-0.000146	-0.267760
C24	C	-1.443858	-0.000137	-0.398772
C25	C	-1.237290	-0.000104	-0.370224
C26	C	-1.240433	-0.000104	-0.239215
C27	C	-1.566261	-0.000171	-0.284243
C28	C	-1.563120	-0.000161	-0.415255
C29	C	-1.335670	-0.000126	0.410558
C30	C	-1.339006	-0.000122	0.549992
H31	H	-1.151917	-0.000080	-0.411951
H32	H	-1.612915	0.090465	-0.255014
C33	C	-1.647511	-0.209582	-0.338346
C34	C	-1.617197	-0.126590	-0.236240
H35	H	-1.678863	-0.287675	-0.308695
H36	H	-1.581817	-0.229549	-0.379568
H37	H	-1.702427	-0.167811	-0.396014
H38	H	-1.562274	-0.168358	-0.178577
H39	H	-1.682899	-0.106626	-0.194999
C40	C	-1.065351	0.111284	-0.174559
C41	C	-1.128628	-0.000075	-0.151532
H42	H	-0.996321	0.111295	-0.120432
H43	H	-1.108315	0.186792	-0.158940
H44	H	-1.048487	0.111272	-0.259920
H45	H	-1.145499	-0.000059	-0.066172
H46	H	-1.085655	-0.075603	-0.167141
C47	C	-1.548023	0.232581	-0.427573
C48	C	-1.611792	0.126078	-0.477011
H49	H	-1.578077	0.310512	-0.465694
H50	H	-1.470906	0.222613	-0.444467
H51	H	-1.551858	0.236855	-0.339028
H52	H	-1.607950	0.121798	-0.565555
H53	H	-1.688929	0.136047	-0.460126
H54	H	-1.608049	-0.090811	-0.457146
