data_functionalizedCrystal
_audit_creation_method	'MofGen! by Chris Wilmer'
_symmetry_space_group_name_H-M	'P1'
_symmetry_Int_Tables_number	1
_symmetry_cell_setting	triclinic
loop_
_symmetry_equiv_pos_as_xyz
  x,y,z
_cell_length_a	27.732064
_cell_length_b	17.038272
_cell_length_c	15.500227
_cell_angle_alpha	86.966746
_cell_angle_beta	87.190835
_cell_angle_gamma	93.119510
loop_
_atom_site_label
_atom_site_type_symbol
_atom_site_fract_x
_atom_site_fract_y
_atom_site_fract_z
O1	O	0.647269	-0.089403	-0.071703
O2	O	0.507124	-0.103525	-0.071757
O3	O	0.576364	0.017341	-0.071723
O4	O	0.578030	-0.210270	-0.071736
O5	O	0.572161	0.010035	0.072163
O6	O	0.502922	-0.110831	0.072130
O7	O	0.643066	-0.096709	0.072184
Cu8	Cu	0.572610	-0.104437	0.085295
Cu9	Cu	0.577580	-0.095797	-0.084868
O10	O	0.573827	-0.217576	0.072150
C11	C	0.487003	-0.106879	0.000179
C12	C	0.433308	-0.105980	0.000159
C13	C	0.572747	0.042799	0.000219
C14	C	0.568227	0.129540	0.000217
C15	C	0.663188	-0.093355	0.000246
C16	C	0.716883	-0.094255	0.000261
C17	C	1.097504	-0.171798	0.000215
C18	C	0.895692	-0.168491	0.000239
O19	O	0.867191	-0.228666	0.000272
N20	N	0.873286	-0.096819	0.000247
C21	C	0.901336	-0.025969	0.000255
O22	O	0.877647	0.035068	0.000272
C23	C	1.103147	-0.029277	0.000238
C24	C	1.125551	-0.100953	0.000221
C25	C	1.119908	-0.243469	0.000199
C26	C	1.170358	-0.244294	0.000189
C27	C	1.198405	-0.173449	0.000194
C28	C	1.176001	-0.101779	0.000210
C29	C	1.131196	0.041572	0.000252
C30	C	1.181652	0.040739	0.000249
C31	C	1.204055	-0.030938	0.000232
C32	C	1.254497	-0.031760	0.000204
N33	N	1.276903	-0.103432	0.000196
C34	C	1.248857	-0.174277	0.000191
C35	C	0.795382	-0.024237	0.000263
C36	C	0.744929	-0.023410	0.000266
C37	C	0.739289	-0.165933	0.000251
C38	C	0.789743	-0.166759	0.000242
C39	C	0.817788	-0.095909	0.000255
C40	C	1.354806	-0.176005	0.000168
C41	C	1.405261	-0.176825	0.000153
C42	C	1.410897	-0.034302	0.000172
C43	C	1.360447	-0.033482	0.000182
C44	C	1.332402	-0.104340	0.000183
O45	O	1.283028	0.028382	0.000181
O46	O	1.272554	-0.235306	0.000194
C47	C	1.047054	-0.170972	0.000226
C48	C	1.024650	-0.099302	0.000242
C49	C	1.052696	-0.028457	0.000247
C50	C	0.974198	-0.098474	0.000245
C51	C	0.946151	-0.169319	0.000240
C52	C	0.968557	-0.240992	0.000232
C53	C	1.019008	-0.241817	0.000221
C54	C	1.030290	0.043215	0.000255
C55	C	0.979840	0.044035	0.000265
C56	C	0.951794	-0.026810	0.000260
C57	C	0.577444	-0.243033	0.000206
C58	C	0.581964	-0.329774	0.000202
N59	N	0.569118	-0.110514	0.204978
C60	C	0.609729	0.180133	0.000234
C61	C	0.605479	0.261635	0.000224
C62	C	0.559726	0.292541	0.000204
C63	C	0.518221	0.241942	0.000184
C64	C	0.522472	0.160442	0.000188
C65	C	0.544710	0.538127	0.000186
C66	C	0.540462	0.619633	0.000185
C67	C	0.627720	0.639320	0.000224
C68	C	0.631967	0.557817	0.000233
C69	C	0.590462	0.507225	0.000208
C70	C	0.555381	0.375849	0.000196
C71	C	0.594808	0.423920	0.000210
N72	N	0.581076	-0.089715	-0.204551
C73	C	0.598469	-0.059317	0.250269
C74	C	0.595832	-0.063920	0.340840
C75	C	0.563847	-0.119723	0.386119
C76	C	0.534493	-0.170922	0.340822
C77	C	0.537127	-0.166316	0.250252
C78	C	0.554357	-0.136307	0.659582
C79	C	0.551726	-0.140911	0.750158
C80	C	0.613064	-0.033907	0.750170
C81	C	0.615698	-0.029308	0.659598
C82	C	0.586342	-0.080504	0.614309
C83	C	0.561153	-0.124431	0.478698
C84	C	0.589034	-0.075793	0.521732
H85	H	1.423500	-0.235194	0.000139
H86	H	0.646985	0.154975	0.000256
Cl87	Cl	0.470295	0.096839	0.000163
H88	H	0.716445	-0.223617	0.000247
Cl89	Cl	0.632730	0.000444	0.397779
H90	H	0.525678	-0.186357	0.787020
H91	H	1.112964	0.099939	0.000266
H92	H	0.535110	-0.169869	0.515572
H93	H	1.204484	0.098435	0.000260
H94	H	1.331978	-0.233705	0.000171
H95	H	0.615075	-0.030354	0.484863
H96	H	1.097077	-0.301163	0.000198
Cl97	Cl	0.500226	-0.230678	0.193316
Cl98	Cl	0.652324	0.385064	0.000231
Cl99	Cl	0.817902	-0.256869	0.000224
H100	H	0.624516	-0.013879	0.213409
Cl101	Cl	0.497865	0.414711	0.000166
Cl102	Cl	1.065541	0.132287	0.000262
Cl103	Cl	0.460703	0.280797	0.000148
H104	H	1.342205	0.024883	0.000183
H105	H	0.530455	-0.177994	0.622714
Cl106	Cl	1.198515	-0.334407	0.000174
H107	H	0.636964	0.007775	0.787053
Cl108	Cl	0.482940	0.658485	0.000164
Cl109	Cl	0.655909	0.040845	0.602676
H110	H	0.661511	0.680521	0.000242
Cl111	Cl	0.657656	0.325235	0.000248
H112	H	0.508448	-0.216357	0.377694
H113	H	0.726693	0.034957	0.000266
H114	H	0.818212	0.033461	0.000273
H115	H	0.510913	0.496944	0.000167
H116	H	1.433742	0.023378	0.000173
H117	H	0.945713	-0.298676	0.000224
Cl118	Cl	0.951682	0.134153	0.000275
Cl119	Cl	0.689488	0.518971	0.000230
Cl120	Cl	1.047164	-0.331930	0.000201
