data_functionalizedCrystal
_audit_creation_method	'MofGen! by Chris Wilmer'
_symmetry_space_group_name_H-M	'P1'
_symmetry_Int_Tables_number	1
_symmetry_cell_setting	triclinic
loop_
_symmetry_equiv_pos_as_xyz
  x,y,z
_cell_length_a	11.792241
_cell_length_b	17.038272
_cell_length_c	10.868271
_cell_angle_alpha	89.994627
_cell_angle_beta	89.999893
_cell_angle_gamma	87.652486
loop_
_atom_site_label
_atom_site_type_symbol
_atom_site_fract_x
_atom_site_fract_y
_atom_site_fract_z
O1	O	1.516303	0.107207	-0.102203
O2	O	1.186930	0.118256	-0.102232
O3	O	1.349659	-0.001093	-0.102208
O4	O	1.353574	0.226555	-0.102227
O5	O	1.349644	-0.001097	0.102436
O6	O	1.186915	0.118251	0.102412
O7	O	1.516288	0.107202	0.102441
Zn8	Zn	1.351599	0.112726	0.134919
Zn9	Zn	1.351618	0.112732	-0.134710
O10	O	1.353559	0.226551	0.102417
C11	C	1.144571	0.117559	0.000086
C12	C	1.018375	0.115482	0.000076
C13	C	0.787328	0.111662	0.000111
C14	C	0.915899	0.113785	0.000092
C15	C	1.346090	-0.030239	0.000114
C16	C	1.335466	-0.117079	0.000112
C17	C	1.433006	-0.166762	0.000122
C18	C	1.423017	-0.248357	0.000110
C19	C	1.315487	-0.280267	0.000096
C20	C	1.217940	-0.230577	0.000083
C21	C	1.227930	-0.148984	0.000086
C22	C	1.280194	-0.526181	0.000076
C23	C	1.270211	-0.607780	0.000076
C24	C	1.475289	-0.625554	0.000101
C25	C	1.485270	-0.543958	0.000112
C26	C	1.387723	-0.494276	0.000092
C27	C	1.305274	-0.363669	0.000087
C28	C	1.397937	-0.410875	0.000092
C29	C	1.558647	0.107899	0.000120
C30	C	1.684843	0.109976	0.000122
C31	C	1.357127	0.255697	0.000093
C32	C	1.367751	0.342537	0.000086
N33	N	1.351594	0.112721	0.318933
N34	N	1.351632	0.112731	-0.318724
C35	C	1.351612	0.112730	0.569939
C36	C	1.351599	0.112728	0.430261
H37	H	1.520568	-0.140788	0.000141
H38	H	1.200764	-0.485738	0.000060
H39	H	1.485487	-0.384890	0.000076
C40	C	1.163844	-0.724967	0.000077
C41	C	1.152006	-0.642858	0.000062
H42	H	1.090872	-0.746621	0.000080
H43	H	1.204338	-0.741982	-0.071277
H44	H	1.204335	-0.741981	0.071452
H45	H	1.111522	-0.625843	-0.071318
H46	H	1.111495	-0.625835	0.071423
H47	H	1.502445	-0.288806	0.000120
C48	C	1.686978	-0.569726	0.000135
C49	C	1.603471	-0.508886	0.000129
H50	H	1.759949	-0.548072	0.000144
H51	H	1.678806	-0.601186	0.071489
H52	H	1.678821	-0.601175	-0.071240
H53	H	1.611623	-0.477440	0.071508
H54	H	1.611646	-0.477413	-0.071233
H55	H	1.148503	-0.108532	0.000078
C56	C	1.551039	-0.758522	0.000093
C57	C	1.582508	-0.680166	0.000105
H58	H	1.617237	-0.792236	0.000085
H59	H	1.507279	-0.768246	0.071451
H60	H	1.507274	-0.768228	-0.071278
H61	H	1.626267	-0.670459	0.071482
H62	H	1.626287	-0.670439	-0.071260
C63	C	1.111567	-0.347760	0.000080
C64	C	1.099740	-0.265651	0.000072
H65	H	1.038592	-0.369409	0.000085
H66	H	1.152056	-0.364776	-0.071276
H67	H	1.152058	-0.364779	0.071453
H68	H	1.059256	-0.248631	-0.071305
H69	H	1.059234	-0.248628	0.071436
H70	H	1.217723	-0.389660	0.000079
