data_functionalizedCrystal
_audit_creation_method	'MofGen! by Chris Wilmer'
_symmetry_space_group_name_H-M	'P1'
_symmetry_Int_Tables_number	1
_symmetry_cell_setting	triclinic
loop_
_symmetry_equiv_pos_as_xyz
  x,y,z
_cell_length_a	17.640112
_cell_length_b	17.640280
_cell_length_c	19.805399
_cell_angle_alpha	101.223110
_cell_angle_beta	78.823320
_cell_angle_gamma	92.184069
loop_
_atom_site_label
_atom_site_type_symbol
_atom_site_fract_x
_atom_site_fract_y
_atom_site_fract_z
Zn1	Zn	1.221963	-0.067382	0.159851
Zn2	Zn	1.721963	0.432618	0.659851
Zn3	Zn	1.247568	-0.194374	0.020282
Zn4	Zn	1.747568	0.305626	0.520282
Zn5	Zn	1.094995	-0.093099	0.064176
Zn6	Zn	1.594995	0.406901	0.564176
Zn7	Zn	1.120643	-0.220019	0.150935
Zn8	Zn	1.620643	0.279981	0.650935
O9	O	1.171292	-0.143719	0.098811
O10	O	1.671292	0.356281	0.598811
O11	O	1.331615	-0.062733	0.126699
O12	O	1.831615	0.437267	0.626699
O13	O	1.227311	-0.180970	-0.068614
O14	O	1.727311	0.319030	0.431386
O15	O	1.090388	0.016575	0.098969
O16	O	1.590388	0.516575	0.598969
O17	O	1.350427	-0.156033	0.024158
O18	O	1.850427	0.343967	0.524158
O19	O	1.183671	0.035469	0.169261
O20	O	1.683671	0.535469	0.669261
O21	O	1.115216	-0.106564	-0.036365
O22	O	1.615216	0.393436	0.463635
O23	O	0.992142	-0.131431	0.090323
O24	O	1.492142	0.368569	0.590323
O25	O	1.134101	-0.199741	0.246836
O26	O	1.634101	0.300259	0.746836
O27	O	1.010985	-0.224678	0.154065
O28	O	1.510985	0.275322	0.654065
O29	O	1.208540	-0.087600	0.253387
O30	O	1.708540	0.412400	0.753387
O31	O	1.252181	-0.304039	0.015512
O32	O	1.752181	0.195961	0.515512
O33	O	1.158929	-0.322880	0.111502
O34	O	1.658929	0.177120	0.611502
C35	C	0.974013	-0.183628	0.125990
C36	C	1.474013	0.316372	0.625990
C37	C	0.889619	-0.200720	0.137629
C38	C	1.389619	0.299280	0.637629
C39	C	0.562831	-0.013861	0.010396
C40	C	1.062831	0.486139	0.510396
C41	C	0.483534	-0.029936	0.021339
C42	C	0.983534	0.470064	0.521339
C43	C	0.503236	-0.127168	0.087536
C44	C	1.003236	0.372832	0.587536
C45	C	0.582537	-0.111098	0.076601
C46	C	1.082537	0.388902	0.576601
C47	C	0.612327	-0.054444	0.038030
C48	C	1.112327	0.445556	0.538030
C49	C	0.632033	-0.151682	0.104235
C50	C	1.132033	0.348318	0.604235
C51	C	0.711326	-0.135615	0.093298
C52	C	1.211326	0.364385	0.593298
C53	C	0.741124	-0.078966	0.054727
C54	C	1.241124	0.421034	0.554727
C55	C	0.691621	-0.038378	0.027093
C56	C	1.191621	0.461622	0.527093
C57	C	0.602241	-0.208339	0.142802
C58	C	1.102241	0.291661	0.642802
C59	C	0.651738	-0.248923	0.170436
C60	C	1.151738	0.251077	0.670436
C61	C	0.731032	-0.232853	0.159503
C62	C	1.231032	0.267147	0.659503
C63	C	0.760829	-0.176203	0.120932
C64	C	1.260829	0.323797	0.620932
C65	C	0.780535	-0.273441	0.187137
C66	C	1.280535	0.226559	0.687137
C67	C	0.859829	-0.257374	0.176200
C68	C	1.359829	0.242626	0.676200
C69	C	0.840123	-0.160137	0.109995
C70	C	1.340123	0.339863	0.609995
C71	C	1.211137	-0.341008	0.057789
C72	C	1.711137	0.158992	0.557789
C73	C	1.228253	-0.425395	0.040252
C74	C	1.728253	0.074605	0.540252
C75	C	1.041580	-0.752161	0.232237
C76	C	1.541580	-0.252161	0.732237
C77	C	1.057664	-0.831455	0.215737
C78	C	1.557664	-0.331455	0.715737
C79	C	1.154827	-0.811758	0.115862
C80	C	1.654827	-0.311758	0.615862
C81	C	1.138754	-0.732460	0.132356
C82	C	1.638754	-0.232460	0.632356
C83	C	1.082129	-0.702668	0.190544
C84	C	1.582129	-0.202668	0.690544
C85	C	1.179303	-0.682968	0.090662
C86	C	1.679303	-0.182968	0.590662
C87	C	1.163228	-0.603677	0.107153
C88	C	1.663228	-0.103677	0.607153
C89	C	1.106604	-0.573879	0.165337
C90	C	1.606604	-0.073879	0.665337
C91	C	1.066054	-0.623378	0.207034
C92	C	1.566054	-0.123378	0.707034
C93	C	1.235924	-0.712762	0.032472
C94	C	1.735924	-0.212762	0.532472
C95	C	1.276473	-0.663269	-0.009222
C96	C	1.776473	-0.163269	0.490778
C97	C	1.260402	-0.583976	0.007271
C98	C	1.760402	-0.083976	0.507271
C99	C	1.203778	-0.554178	0.065455
C100	C	1.703778	-0.054178	0.565455
C101	C	1.300953	-0.534478	-0.034426
C102	C	1.800953	-0.034478	0.465574
C103	C	1.284878	-0.455187	-0.017936
C104	C	1.784878	0.044813	0.482064
C105	C	1.187703	-0.474888	0.081946
C106	C	1.687703	0.025112	0.581946
C107	C	1.369342	-0.103654	0.071527
C108	C	1.869342	0.396346	0.571527
C109	C	1.453739	-0.086580	0.059900
C110	C	1.953739	0.413420	0.559900
C111	C	1.171325	-0.143662	0.275358
C112	C	1.671325	0.356338	0.775358
C113	C	1.171339	-0.143638	0.350592
C114	C	1.671339	0.356362	0.850592
C115	C	1.131312	0.054345	0.140006
C116	C	1.631312	0.554345	0.640006
C117	C	1.114275	0.138748	0.157560
C118	C	1.614275	0.638748	0.657560
C119	C	1.171292	-0.143711	-0.077044
C120	C	1.671292	0.356289	0.422956
C121	C	1.171382	-0.143492	-0.152253
C122	C	1.671382	0.356508	0.347747
C123	C	1.210100	-0.085244	0.389348
C124	C	1.710100	0.414756	0.889348
C125	C	1.210104	-0.085220	0.460040
C126	C	1.710104	0.414780	0.960040
C127	C	1.171350	-0.143595	0.491973
C128	C	1.671350	0.356405	0.991973
C129	C	1.132584	-0.201993	0.453212
C130	C	1.632584	0.298007	0.953212
C131	C	1.132576	-0.202013	0.382523
C132	C	1.632576	0.297987	0.882523
C133	C	1.132612	-0.201913	0.738294
C134	C	1.632612	0.298087	1.238294
C135	C	1.132625	-0.201890	0.808988
C136	C	1.632625	0.298110	1.308988
C137	C	1.210140	-0.085121	0.815812
C138	C	1.710140	0.414879	1.315812
C139	C	1.210132	-0.085140	0.745123
C140	C	1.710132	0.414860	1.245123
C141	C	1.171363	-0.143536	0.706369
C142	C	1.671363	0.356464	1.206369
C143	C	1.171359	-0.143560	0.629717
C144	C	1.671359	0.356440	1.129717
C145	C	1.171358	-0.143574	0.568622
C146	C	1.671358	0.356426	1.068622
H147	H	0.587086	0.032284	-0.021000
H148	H	1.087086	0.532284	0.479000
H149	H	1.093512	-0.509316	0.178758
H150	H	1.593512	-0.009316	0.678758
Cl151	Cl	0.994874	-0.585918	0.280192
Cl152	Cl	1.494874	-0.085918	0.780192
H153	H	0.900130	-0.290421	0.198704
H154	H	1.400130	0.209579	0.698704
H155	H	1.101064	-0.249428	0.834986
H156	H	1.601064	0.250572	1.334986
H157	H	0.715875	0.007767	-0.004303
H158	H	1.215875	0.507767	0.495697
Cl159	Cl	1.258876	-0.011706	0.864537
Cl160	Cl	1.758876	0.488294	1.364537
Cl161	Cl	1.226013	-0.849219	0.042716
Cl162	Cl	1.726013	-0.349219	0.542716
Cl163	Cl	1.372130	-0.571942	-0.107577
Cl164	Cl	1.872130	-0.071942	0.392423
H165	H	1.249012	-0.777326	0.019049
H166	H	1.749012	-0.277326	0.519049
Cl167	Cl	1.335847	-0.392965	-0.070356
Cl168	Cl	1.835847	0.107035	0.429644
H169	H	0.478970	-0.173298	0.118938
H170	H	0.978970	0.326702	0.618938
Cl171	Cl	0.970400	-0.714701	0.305395
Cl172	Cl	1.470400	-0.214701	0.805395
Cl173	Cl	1.083861	-0.275377	0.493357
Cl174	Cl	1.583861	0.224623	0.993357
H175	H	1.322575	-0.687537	-0.056600
H176	H	1.822575	-0.187537	0.443400
H177	H	1.141599	-0.450630	0.129333
H178	H	1.641599	0.049370	0.629333
Cl179	Cl	1.258856	-0.011754	0.704982
Cl180	Cl	1.758856	0.488246	1.204982
Cl181	Cl	0.502558	-0.228546	0.156540
Cl182	Cl	1.002558	0.271454	0.656540
H183	H	1.024649	-0.871749	0.249701
H184	H	1.524649	-0.371749	0.749701
Cl185	Cl	1.258875	-0.011833	0.508748
Cl186	Cl	1.758875	0.488167	1.008748
Cl187	Cl	0.614280	-0.320151	0.218913
Cl188	Cl	1.114280	0.179849	0.718913
Cl189	Cl	0.743076	-0.344674	0.235608
Cl190	Cl	1.243076	0.155326	0.735608
H191	H	1.101057	-0.249471	0.706745
H192	H	1.601057	0.250529	1.206745
H193	H	1.241661	-0.037710	0.363353
H194	H	1.741661	0.462290	0.863353
H195	H	0.864378	-0.113992	0.078599
H196	H	1.364378	0.386008	0.578599
Cl197	Cl	0.840809	-0.058770	0.040973
Cl198	Cl	1.340809	0.441230	0.540973
Cl199	Cl	1.083843	-0.275425	0.333800
Cl200	Cl	1.583843	0.224575	0.833800
H201	H	0.443234	0.003121	-0.001161
H202	H	0.943234	0.503121	0.498839
