data_functionalizedCrystal
_audit_creation_method	'MofGen! by Chris Wilmer'
_symmetry_space_group_name_H-M	'P1'
_symmetry_Int_Tables_number	1
_symmetry_cell_setting	triclinic
loop_
_symmetry_equiv_pos_as_xyz
  x,y,z
_cell_length_a	19.805407
_cell_length_b	16.120484
_cell_length_c	19.805399
_cell_angle_alpha	92.869501
_cell_angle_beta	89.983114
_cell_angle_gamma	92.925608
loop_
_atom_site_label
_atom_site_type_symbol
_atom_site_fract_x
_atom_site_fract_y
_atom_site_fract_z
Zn1	Zn	1.021057	-0.331915	-0.396377
Zn2	Zn	1.354390	0.001418	-0.063043
Zn3	Zn	1.687724	0.334751	0.270290
Zn4	Zn	1.015239	-0.471337	-0.288925
Zn5	Zn	1.348572	-0.138004	0.044408
Zn6	Zn	1.681906	0.195330	0.377742
Zn7	Zn	0.907876	-0.331942	-0.283202
Zn8	Zn	1.241209	0.001391	0.050131
Zn9	Zn	1.574543	0.334725	0.383464
Zn10	Zn	0.902099	-0.471289	-0.402070
Zn11	Zn	1.235432	-0.137956	-0.068736
Zn12	Zn	1.568766	0.195377	0.264597
O13	O	0.961568	-0.401621	-0.342643
O14	O	1.294901	-0.068288	-0.009310
O15	O	1.628235	0.265046	0.324023
O16	O	1.115002	-0.350419	-0.382135
O17	O	1.448335	-0.017086	-0.048802
O18	O	1.781668	0.316248	0.284531
O19	O	1.000980	-0.452877	-0.193450
O20	O	1.334313	-0.119544	0.139883
O21	O	1.667647	0.213790	0.473216
O22	O	0.927742	-0.215272	-0.293437
O23	O	1.261076	0.118061	0.039896
O24	O	1.594409	0.451394	0.373229
O25	O	1.110727	-0.452851	-0.303191
O26	O	1.444060	-0.119518	0.030142
O27	O	1.777394	0.213815	0.363476
O28	O	1.010896	-0.215253	-0.376586
O29	O	1.344229	0.118080	-0.043253
O30	O	1.677563	0.451414	0.290081
O31	O	0.922101	-0.350464	-0.189246
O32	O	1.255434	-0.017131	0.144087
O33	O	1.588767	0.316203	0.477421
O34	O	0.812394	-0.350418	-0.298958
O35	O	1.145727	-0.017084	0.034375
O36	O	1.479060	0.316249	0.367709
O37	O	0.917896	-0.452770	-0.496030
O38	O	1.251230	-0.119437	-0.162696
O39	O	1.584563	0.213897	0.170637
O40	O	0.808149	-0.452796	-0.386289
O41	O	1.141483	-0.119462	-0.052956
O42	O	1.474816	0.213871	0.280377
O43	O	1.005294	-0.350373	-0.491847
O44	O	1.338628	-0.017039	-0.158514
O45	O	1.671961	0.316294	0.174820
O46	O	0.995378	-0.587997	-0.308711
O47	O	1.328712	-0.254663	0.024622
O48	O	1.662045	0.078670	0.357955
O49	O	0.912255	-0.587962	-0.391838
O50	O	1.245588	-0.254628	-0.058505
O51	O	1.578922	0.078705	0.274828
C52	C	0.785713	-0.401605	-0.342621
C53	C	1.119046	-0.068272	-0.009287
C54	C	1.452379	0.265062	0.324046
C55	C	0.710480	-0.401618	-0.342628
C56	C	1.043813	-0.068285	-0.009295
C57	C	1.377147	0.265048	0.324039
C58	C	0.952577	-0.618229	-0.351528
C59	C	1.285910	-0.284896	-0.018195
C60	C	1.619243	0.048437	0.315138
C61	C	0.948792	-0.710895	-0.355352
C62	C	1.282126	-0.377562	-0.022019
C63	C	1.615459	-0.044229	0.311315
C64	C	0.672940	-0.455007	-0.388035
C65	C	1.006274	-0.121673	-0.054701
C66	C	1.339607	0.211660	0.278632
C67	C	0.602252	-0.455008	-0.388044
C68	C	0.935585	-0.121675	-0.054711
C69	C	1.268918	0.211658	0.278622
C70	C	0.569104	-0.401625	-0.342643
C71	C	0.902437	-0.068291	-0.009310
C72	C	1.235771	0.265042	0.324023
C73	C	0.606649	-0.348230	-0.297235
C74	C	0.939982	-0.014897	0.036099
C75	C	1.273316	0.318436	0.369432
C76	C	0.677336	-0.348225	-0.297229
C77	C	1.010670	-0.014892	0.036105
C78	C	1.344003	0.318441	0.369438
C79	C	0.321575	-0.348249	-0.297258
C80	C	0.654908	-0.014915	0.036076
C81	C	0.988242	0.318418	0.369409
C82	C	0.250882	-0.348260	-0.297266
C83	C	0.584216	-0.014926	0.036068
C84	C	0.917549	0.318407	0.369401
C85	C	0.246490	-0.455032	-0.388073
C86	C	0.579824	-0.121698	-0.054740
C87	C	0.913157	0.211635	0.278593
C88	C	0.317178	-0.455027	-0.388067
C89	C	0.650511	-0.121693	-0.054734
C90	C	0.983844	0.211640	0.278599
C91	C	0.354717	-0.401630	-0.342661
C92	C	0.688050	-0.068296	-0.009328
C93	C	1.021383	0.265037	0.324005
C94	C	0.431365	-0.401628	-0.342652
C95	C	0.764698	-0.068294	-0.009319
C96	C	1.098032	0.265039	0.324014
C97	C	0.492457	-0.401630	-0.342649
C98	C	0.825790	-0.068297	-0.009315
C99	C	1.159123	0.265036	0.324018
C100	C	0.941887	-0.880557	-0.362347
C101	C	1.275220	-0.547224	-0.029014
C102	C	1.608553	-0.213890	0.304320
C103	C	0.981370	-0.921844	-0.322951
C104	C	1.314704	-0.588511	0.010383
C105	C	1.648037	-0.255178	0.343716
C106	C	0.977528	-1.016250	-0.326843
C107	C	1.310861	-0.682917	0.006491
C108	C	1.644195	-0.349583	0.339824
C109	C	0.945728	-0.786143	-0.358456
C110	C	1.279062	-0.452810	-0.025123
C111	C	1.612395	-0.119476	0.308211
C112	C	1.138110	-0.401638	-0.342666
C113	C	1.471443	-0.068304	-0.009333
C114	C	1.804777	0.265029	0.324000
C115	C	1.213342	-0.401645	-0.342676
C116	C	1.546675	-0.068311	-0.009343
C117	C	1.880008	0.265022	0.323990
C118	C	0.961600	-0.401563	-0.519184
C119	C	1.294933	-0.068230	-0.185850
C120	C	1.628267	0.265104	0.147483
C121	C	0.961614	-0.401538	-0.594415
C122	C	1.294947	-0.068205	-0.261081
C123	C	1.628280	0.265128	0.072252
C124	C	0.970612	-0.184167	-0.333738
C125	C	1.303946	0.149167	-0.000405
C126	C	1.637279	0.482500	0.332928
C127	C	0.974467	-0.091501	-0.329944
C128	C	1.307800	0.241833	0.003390
C129	C	1.641133	0.575166	0.336723
C130	C	0.920554	-0.348207	-0.627569
C131	C	1.253887	-0.014874	-0.294236
C132	C	1.587220	0.318460	0.039098
C133	C	0.920564	-0.348191	-0.698257
C134	C	1.253897	-0.014857	-0.364923
C135	C	1.587230	0.318476	-0.031590
C136	C	0.961638	-0.401502	-0.735789
C137	C	1.294971	-0.068169	-0.402456
C138	C	1.628304	0.265164	-0.069122
C139	C	1.002699	-0.454840	-0.702630
C140	C	1.336033	-0.121507	-0.369297
C141	C	1.669366	0.211827	-0.035963
C142	C	1.002685	-0.454860	-0.631944
C143	C	1.336018	-0.121526	-0.298610
C144	C	1.669352	0.211807	0.034723
C145	C	1.002756	-0.454762	-0.987700
C146	C	1.336089	-0.121429	-0.654367
C147	C	1.669423	0.211905	-0.321034
C148	C	1.002768	-0.454736	-1.058391
C149	C	1.336102	-0.121403	-0.725058
C150	C	1.669435	0.211930	-0.391725
C151	C	0.920635	-0.348093	-1.054013
C152	C	1.253968	-0.014760	-0.720680
C153	C	1.587301	0.318574	-0.387347
C154	C	0.920621	-0.348113	-0.983327
C155	C	1.253954	-0.014779	-0.649994
C156	C	1.587287	0.318554	-0.316660
C157	C	0.961679	-0.401453	-0.950174
C158	C	1.295013	-0.068120	-0.616841
C159	C	1.628346	0.265214	-0.283508
C160	C	0.961667	-0.401471	-0.873527
C161	C	1.295000	-0.068138	-0.540193
C162	C	1.628334	0.265196	-0.206860
C163	C	0.961654	-0.401481	-0.812435
C164	C	1.294987	-0.068147	-0.479102
C165	C	1.628321	0.265186	-0.145769
C166	C	0.961577	-0.401618	-0.166787
C167	C	1.294911	-0.068285	0.166546
C168	C	1.628244	0.265048	0.499879
C169	C	0.961705	-0.401408	-0.091547
C170	C	1.295038	-0.068075	0.241786
C171	C	1.628371	0.265258	0.575120
H172	H	0.699924	-0.498481	-0.425003
H173	H	1.033257	-0.165147	-0.091670
H174	H	1.366590	0.168186	0.241663
Br175	Br	0.728285	-0.275762	-0.235607
Br176	Br	1.061618	0.057571	0.097727
Br177	Br	1.394951	0.390905	0.431060
H178	H	0.887201	-0.304663	-1.081015
H179	H	1.220534	0.028670	-0.747681
H180	H	1.553867	0.362003	-0.414348
Br181	Br	0.362160	-0.527483	-0.449681
Br182	Br	0.695493	-0.194150	-0.116348
Br183	Br	1.028827	0.139184	0.216986
Br184	Br	0.195541	-0.527503	-0.449696
Br185	Br	0.528874	-0.194169	-0.116363
Br186	Br	0.862208	0.139164	0.216971
H187	H	0.223896	-0.304783	-0.260295
H188	H	0.557229	0.028550	0.073039
H189	H	0.890563	0.361883	0.406372
H190	H	0.571690	-0.498483	-0.425018
H191	H	0.905023	-0.165150	-0.091685
H192	H	1.238356	0.168183	0.241648
H193	H	0.887126	-0.304766	-0.725248
H194	H	1.220459	0.028567	-0.391914
H195	H	1.553793	0.361901	-0.058581
H196	H	1.036139	-0.498251	-0.733195
H197	H	1.369472	-0.164918	-0.399861
H198	H	1.702805	0.168415	-0.066528
H199	H	1.036126	-0.498281	-0.604950
H200	H	1.369459	-0.164948	-0.271617
H201	H	1.702792	0.168385	0.061716
Br202	Br	0.880740	-0.939813	-0.423431
Br203	Br	1.214073	-0.606479	-0.090098
Br204	Br	1.547406	-0.273146	0.243235
Br205	Br	0.864813	-0.275845	-0.576639
Br206	Br	1.198146	0.057488	-0.243305
Br207	Br	1.531479	0.390822	0.090028
H208	H	0.887176	-0.304698	-0.952771
H209	H	1.220510	0.028635	-0.619438
H210	H	1.553843	0.361969	-0.286105
H211	H	1.036217	-0.498152	-1.088949
H212	H	1.369551	-0.164819	-0.755615
H213	H	1.702884	0.168514	-0.422282
H214	H	0.352131	-0.304776	-0.260280
H215	H	0.685464	0.028557	0.073053
H216	H	1.018797	0.361891	0.406386
H217	H	1.036181	-0.498204	-0.960716
H218	H	1.369514	-0.164870	-0.627383
H219	H	1.702847	0.168463	-0.294050
Br220	Br	1.042520	-0.862590	-0.261860
Br221	Br	1.375853	-0.529257	0.071473
Br222	Br	1.709186	-0.195924	0.404806
H223	H	0.579655	-0.304761	-0.260271
H224	H	0.912988	0.028572	0.073062
H225	H	1.246321	0.361906	0.406395
