data_functionalizedCrystal
_audit_creation_method	'MofGen! by Chris Wilmer'
_symmetry_space_group_name_H-M	'P1'
_symmetry_Int_Tables_number	1
_symmetry_cell_setting	triclinic
loop_
_symmetry_equiv_pos_as_xyz
  x,y,z
_cell_length_a	14.519709
_cell_length_b	14.519709
_cell_length_c	13.330367
_cell_angle_alpha	89.994415
_cell_angle_beta	89.998062
_cell_angle_gamma	83.680145
loop_
_atom_site_label
_atom_site_type_symbol
_atom_site_fract_x
_atom_site_fract_y
_atom_site_fract_z
O1	O	1.223872	0.120891	-0.083295
O2	O	0.955395	0.135127	-0.083326
O3	O	1.096751	-0.006230	-0.083301
O4	O	1.082515	0.262247	-0.083320
O5	O	1.096731	-0.006233	0.083546
O6	O	0.955374	0.135124	0.083521
O7	O	1.223851	0.120887	0.083552
Cu8	Cu	1.089611	0.128005	0.098771
Cu9	Cu	1.089635	0.128009	-0.098545
O10	O	1.082494	0.262244	0.083527
C11	C	0.921025	0.134462	0.000094
C12	C	0.818643	0.132474	0.000082
C13	C	0.443748	0.125154	0.000128
C14	C	0.548056	0.127187	0.000115
C15	C	0.631192	0.128814	0.000104
C16	C	0.735507	0.130847	0.000093
C17	C	1.096078	-0.040591	0.000123
C18	C	1.094090	-0.142972	0.000123
C19	C	1.086770	-0.517868	0.000096
C20	C	1.088803	-0.413560	0.000104
C21	C	1.090430	-0.330423	0.000111
C22	C	1.092463	-0.226109	0.000117
C23	C	1.258221	0.121553	0.000130
C24	C	1.360602	0.123541	0.000135
C25	C	1.083168	0.296606	0.000101
C26	C	1.085156	0.398987	0.000094
N27	N	1.089600	0.128002	0.237553
N28	N	1.089653	0.128005	-0.237326
C29	C	1.027040	0.190577	0.710164
C30	C	1.152255	0.065434	0.710155
C31	C	1.152245	0.065431	0.605136
C32	C	1.089632	0.128003	0.552627
C33	C	1.027029	0.190578	0.605136
C34	C	1.214853	0.002863	0.552619
C35	C	1.214846	0.002859	0.447595
C36	C	1.152227	0.065427	0.395083
C37	C	1.089621	0.128004	0.447599
C38	C	1.027008	0.190576	0.395090
C39	C	0.964397	0.253149	0.447603
C40	C	0.964411	0.253147	0.552625
C41	C	1.152214	0.065430	0.290062
C42	C	1.026998	0.190577	0.290062
H43	H	0.913421	0.304100	0.404838
O44	O	1.275792	-0.057836	0.603571
C45	C	1.367108	-0.042668	0.577884
H46	H	1.367689	0.031174	0.549022
H47	H	1.413374	-0.053195	0.646947
H48	H	1.394100	-0.093718	0.516916
O49	O	1.213198	0.004738	0.761107
C50	C	1.304511	0.019904	0.735409
H51	H	1.305089	0.093744	0.706536
H52	H	1.350783	0.009386	0.804468
H53	H	1.331499	-0.031152	0.674444
O54	O	0.903563	0.313802	0.603750
C55	C	0.846588	0.264283	0.664501
H56	H	0.883203	0.192197	0.680229
H57	H	0.832079	0.302741	0.738354
H58	H	0.778413	0.257870	0.624046
O59	O	0.966265	0.251490	0.239104
C60	C	0.981386	0.342817	0.264780
H61	H	1.055221	0.343433	0.293642
H62	H	0.970846	0.389082	0.195713
H63	H	0.930319	0.369785	0.325747
H64	H	1.265826	-0.048092	0.404844
O65	O	0.966258	0.251484	0.761056
C66	C	0.981404	0.342814	0.735402
H67	H	1.016951	0.342782	0.659149
H68	H	0.912156	0.388072	0.731806
H69	H	1.027349	0.371439	0.794507
O70	O	1.212935	0.004538	0.239084
C71	C	1.197838	-0.086799	0.264764
H72	H	1.124013	-0.087435	0.293656
H73	H	1.208364	-0.133047	0.195691
H74	H	1.248927	-0.113773	0.325709
