data_functionalizedCrystal
_audit_creation_method	'MofGen! by Chris Wilmer'
_symmetry_space_group_name_H-M	'P1'
_symmetry_Int_Tables_number	1
_symmetry_cell_setting	triclinic
loop_
_symmetry_equiv_pos_as_xyz
  x,y,z
_cell_length_a	8.597340
_cell_length_b	8.597304
_cell_length_c	16.776229
_cell_angle_alpha	82.293521
_cell_angle_beta	97.695000
_cell_angle_gamma	86.359595
loop_
_atom_site_label
_atom_site_type_symbol
_atom_site_fract_x
_atom_site_fract_y
_atom_site_fract_z
O1	O	2.085991	0.234297	0.060895
O2	O	1.629344	0.252274	0.028295
O3	O	1.866652	0.014955	0.060895
O4	O	1.848683	0.471616	0.028295
O5	O	1.866620	0.014940	0.193471
O6	O	1.629312	0.252259	0.160871
O7	O	2.085959	0.234282	0.193470
Zn8	Zn	1.857630	0.243268	0.198220
Zn9	Zn	1.857673	0.243288	0.023546
O10	O	1.848651	0.471601	0.160870
C11	C	1.570828	0.250337	0.090698
C12	C	1.396517	0.244567	0.079121
C13	C	1.864705	-0.043554	0.131067
C14	C	1.858932	-0.217870	0.142639
C15	C	2.144475	0.236219	0.131066
C16	C	2.318786	0.241989	0.142638
C17	C	1.850598	0.530110	0.090697
C18	C	1.856371	0.704426	0.079120
N19	N	1.857613	0.243253	0.317431
N20	N	1.857703	0.243290	-0.095663
C21	C	1.962726	0.138213	0.373582
C22	C	1.962735	0.138212	0.457035
C23	C	1.857637	0.243260	0.484335
C24	C	1.752512	0.348305	0.428176
C25	C	1.752497	0.348298	0.344725
C26	C	1.752569	0.348337	0.764725
C27	C	1.752596	0.348340	0.848183
C28	C	1.962807	0.138251	0.877035
C29	C	1.962792	0.138243	0.793584
C30	C	1.857663	0.243282	0.737433
C31	C	1.857652	0.243280	0.646944
C32	C	1.857653	0.243271	0.574822
H33	H	1.329705	0.242360	0.015878
O34	O	1.855999	-0.306399	0.226413
H35	H	1.746822	-0.368687	0.226605
O36	O	2.076076	0.024904	0.344138
H37	H	2.149156	-0.048149	0.397208
O38	O	1.859323	-0.207052	-0.004648
H39	H	1.751573	-0.226032	-0.045415
O40	O	2.076134	0.024948	0.517602
H41	H	2.149236	-0.048076	0.484599
O42	O	1.407259	0.244935	0.226407
H43	H	1.388258	0.137184	0.267183
H44	H	1.666972	0.433866	0.719013
H45	H	2.048378	0.052709	0.771361
O46	O	2.076189	0.024936	0.937598
H47	H	2.058537	0.042569	1.000214
O48	O	1.639260	0.461670	0.877633
H49	H	1.566154	0.534712	0.824568
H50	H	1.666931	0.433832	0.450408
H51	H	1.666901	0.433830	0.299006
