data_functionalizedCrystal
_audit_creation_method	'MofGen! by Chris Wilmer'
_symmetry_space_group_name_H-M	'P1'
_symmetry_Int_Tables_number	1
_symmetry_cell_setting	triclinic
loop_
_symmetry_equiv_pos_as_xyz
  x,y,z
_cell_length_a	15.995350
_cell_length_b	23.532407
_cell_length_c	15.072220
_cell_angle_alpha	90.007168
_cell_angle_beta	89.991149
_cell_angle_gamma	96.829478
loop_
_atom_site_label
_atom_site_type_symbol
_atom_site_fract_x
_atom_site_fract_y
_atom_site_fract_z
O1	O	1.110385	-0.073404	-0.073719
O2	O	0.866535	-0.082469	-0.073739
O3	O	0.995813	0.004967	-0.073709
O4	O	0.981107	-0.160840	-0.073749
O5	O	0.995781	0.004962	0.073856
O6	O	0.866503	-0.082474	0.073826
O7	O	1.110354	-0.073409	0.073846
Zn8	Zn	0.988423	-0.077942	0.097265
Zn9	Zn	0.988465	-0.077935	-0.097158
O10	O	0.981075	-0.160845	0.073816
C11	C	0.835327	-0.082096	0.000041
C12	C	0.742386	-0.080973	0.000035
C13	C	0.404672	-0.076938	0.000054
C14	C	0.452624	-0.014668	0.000398
C15	C	0.549305	-0.015792	0.000059
C16	C	0.572216	-0.078939	0.000045
C17	C	0.530892	-0.109650	-0.084226
C18	C	0.434269	-0.108086	-0.084290
C19	C	0.433883	-0.109378	0.083519
C20	C	0.530828	-0.109363	0.084626
C21	C	0.666904	-0.080074	0.000037
C22	C	0.309984	-0.075805	0.000056
C23	C	0.995423	0.026182	0.000076
C24	C	0.994297	0.089404	0.000085
C25	C	1.063739	0.488239	0.000057
C26	C	1.062693	0.547644	0.000052
O27	O	1.127067	0.584141	0.000026
N28	N	0.985837	0.570566	0.000048
C29	C	0.910022	0.534080	0.000038
O30	O	0.844554	0.559031	0.000033
C31	C	0.911069	0.474677	0.000037
C32	C	0.987930	0.451758	0.000050
C33	C	1.140594	0.465320	0.000069
C34	C	1.141640	0.405920	0.000076
C35	C	1.065830	0.369439	0.000069
C36	C	0.988975	0.392358	0.000057
C37	C	0.835255	0.438192	0.000021
C38	C	0.836308	0.378785	0.000019
C39	C	0.913169	0.355867	0.000033
C40	C	0.914212	0.296477	0.000057
N41	N	0.991068	0.273555	0.000061
C42	C	1.066877	0.310036	0.000068
C43	C	0.907829	0.658831	0.000041
C44	C	0.906782	0.718233	0.000049
C45	C	1.059453	0.731793	0.000061
C46	C	1.060500	0.672389	0.000059
C47	C	0.984685	0.635909	0.000045
C48	C	1.069067	0.185291	0.000082
C49	C	1.070106	0.125885	0.000092
C50	C	0.917435	0.112330	0.000075
C51	C	0.916396	0.171731	0.000070
C52	C	0.992219	0.208210	0.000070
O53	O	0.849872	0.259945	0.000079
O54	O	1.132335	0.285076	0.000061
C55	C	1.141561	-0.073781	0.000064
C56	C	1.234502	-0.074905	0.000064
N57	N	0.988401	-0.077946	0.229954
C58	C	0.981465	0.817940	0.000038
C59	C	0.982591	0.754719	0.000050
N60	N	0.988494	-0.077927	-0.229847
C61	C	0.988463	-0.077933	0.589155
C62	C	0.919059	-0.124562	0.551533
C63	C	0.919216	-0.124732	0.448707
C64	C	0.988431	-0.077940	0.410951
C65	C	1.075688	-0.090918	0.448246
C66	C	1.075299	-0.091250	0.551104
C67	C	0.971391	-0.018188	0.551268
C68	C	0.969383	-0.018587	0.448405
C69	C	0.988419	-0.077942	0.310238
C70	C	0.988482	-0.077932	0.689869
H71	H	0.559457	-0.088316	-0.146932
H72	H	1.123087	0.653734	0.000069
C73	C	0.409799	-0.077822	-0.169372
C74	C	0.446926	-0.015533	-0.187797
C75	C	0.422462	0.014733	-0.272880
C76	C	0.360872	-0.017290	-0.339540
C77	C	0.323742	-0.079583	-0.321117
C78	C	0.348206	-0.109849	-0.236033
H79	H	0.492521	0.008175	-0.138450
H80	H	0.449948	0.060846	-0.286517
H81	H	0.342763	0.005114	-0.402524
H82	H	0.278146	-0.103292	-0.370464
H83	H	0.320720	-0.155962	-0.222396
C84	C	1.095719	-0.150112	0.583496
C85	C	1.173637	-0.154367	0.642017
C86	C	1.194056	-0.213231	0.674404
C87	C	1.136557	-0.267841	0.648268
C88	C	1.058634	-0.263588	0.589744
C89	C	1.038215	-0.204723	0.557357
H90	H	1.216205	-0.113940	0.661367
H91	H	1.251740	-0.216379	0.717728
H92	H	1.151673	-0.311416	0.672243
H93	H	1.016066	-0.304015	0.570394
H94	H	0.980532	-0.201575	0.514033
C95	C	0.822234	0.743440	0.000046
C96	C	0.800529	0.782405	-0.076583
C97	C	0.715978	0.807610	-0.076590
C98	C	0.653133	0.793850	0.000033
C99	C	0.674837	0.754883	0.076668
C100	C	0.759387	0.729678	0.076675
H101	H	0.847052	0.792593	-0.133309
H102	H	0.699912	0.836456	-0.133320
H103	H	0.590544	0.812508	0.000028
H104	H	0.628314	0.744695	0.133394
H105	H	0.775454	0.700832	0.133406
C106	C	0.426452	0.018812	-0.080773
C107	C	0.361785	-0.010143	-0.147276
C108	C	0.335612	0.023335	-0.228449
C109	C	0.374106	0.085767	-0.243120
C110	C	0.438776	0.114725	-0.176615
C111	C	0.464949	0.081247	-0.095442
H112	H	0.333287	-0.056362	-0.136417
H113	H	0.287739	0.001898	-0.277680
H114	H	0.354731	0.110549	-0.303209
H115	H	0.467274	0.160944	-0.187474
H116	H	0.512823	0.102684	-0.046211
C117	C	0.549454	-0.172324	-0.088483
C118	C	0.597359	-0.193342	-0.168372
C119	C	0.615924	-0.256016	-0.172627
C120	C	0.586584	-0.297670	-0.096991
C121	C	0.538676	-0.276652	-0.017096
C122	C	0.520111	-0.213979	-0.012841
H123	H	0.619081	-0.162507	-0.224367
H124	H	0.651388	-0.271574	-0.231771
H125	H	0.600326	-0.344064	-0.100141
H126	H	0.516954	-0.307488	0.038899
H127	H	0.484647	-0.198420	0.046303
C128	C	0.834049	0.072192	0.000064
C129	C	0.813809	0.029485	-0.076569
C130	C	0.730423	-0.010655	-0.076588
C131	C	0.667277	-0.008087	0.000026
C132	C	0.687516	0.034622	0.076664
C133	C	0.770902	0.074762	0.076683
H134	H	0.860555	0.027582	-0.133288
H135	H	0.715442	-0.042272	-0.133321
H136	H	0.605550	-0.037801	0.000012
H137	H	0.640770	0.036524	0.133383
H138	H	0.785883	0.106378	0.133416
C139	C	0.390461	-0.171401	0.084282
C140	C	0.328801	-0.192535	0.009578
C141	C	0.285375	-0.254555	0.010333
C142	C	0.303608	-0.295441	0.085791
C143	C	0.365271	-0.274307	0.160501
C144	C	0.408697	-0.212287	0.159746
H145	H	0.315301	-0.162269	-0.046286
H146	H	0.239728	-0.270200	-0.044972
H147	H	0.271461	-0.341352	0.086350
H148	H	0.378771	-0.304574	0.216365
H149	H	0.454344	-0.196643	0.215052
C150	C	0.824426	0.618704	0.000042
C151	C	0.761319	0.621278	-0.076585
C152	C	0.677916	0.581156	-0.076584
C153	C	0.657621	0.538459	0.000043
C154	C	0.720730	0.535884	0.076675
C155	C	0.804132	0.576006	0.076674
H156	H	0.776341	0.652886	-0.133314
H157	H	0.631199	0.583063	-0.133313
H158	H	0.595882	0.508758	0.000043
H159	H	0.705708	0.504276	0.133404
H160	H	0.850850	0.574099	0.133403
C161	C	1.096624	-0.149111	0.413431
C162	C	1.034702	-0.184898	0.351211
C163	C	1.055632	-0.243092	0.316399
C164	C	1.138483	-0.265500	0.343807
C165	C	1.200411	-0.229713	0.406030
C166	C	1.179481	-0.171518	0.440842
H167	H	0.973365	-0.168310	0.330920
H168	H	1.009788	-0.269584	0.270337
H169	H	1.153977	-0.308579	0.318036
H170	H	1.261747	-0.246300	0.426321
H171	H	1.225324	-0.145027	0.486904
C172	C	0.406362	-0.081878	0.169813
C173	C	0.357001	-0.029609	0.165591
C174	C	0.329480	-0.002102	0.251879
C175	C	0.351321	-0.026864	0.342389
C176	C	0.400684	-0.079137	0.346615
C177	C	0.428205	-0.106644	0.260327
H178	H	0.340831	-0.011276	0.098586
H179	H	0.292938	0.036593	0.248750
H180	H	0.330948	-0.006502	0.406265
H181	H	0.416854	-0.097470	0.413620
H182	H	0.464747	-0.145339	0.263456
C183	C	1.147103	-0.046263	0.415206
C184	C	1.201711	-0.009060	0.482338
C185	C	1.273124	0.035596	0.449297
C186	C	1.289929	0.043050	0.349123
C187	C	1.235319	0.005846	0.281984
C188	C	1.163907	-0.038810	0.315025
H189	H	1.189272	-0.014577	0.556499
H190	H	1.313549	0.063136	0.498998
H191	H	1.342793	0.076107	0.324663
H192	H	1.247758	0.011363	0.207823
H193	H	1.123481	-0.066350	0.265324
H194	H	1.121181	0.761507	0.000062
H195	H	0.853973	-0.116956	0.576291
H196	H	1.128531	-0.058627	0.575990
C197	C	0.752909	0.338657	0.000007
C198	C	0.689810	0.341226	-0.076629
C199	C	0.606412	0.301099	-0.076639
C200	C	0.586113	0.258402	-0.000014
C201	C	0.649213	0.255831	0.076628
C202	C	0.732611	0.295958	0.076638
H203	H	0.704836	0.372835	-0.133357
H204	H	0.559701	0.303003	-0.133375
H205	H	0.524377	0.228698	-0.000021
H206	H	0.634188	0.224223	0.133356
H207	H	0.779322	0.294055	0.133374
C208	C	0.568163	-0.079033	0.168729
C209	C	0.663355	-0.075495	0.187029
C210	C	0.700798	-0.045143	0.271070
C211	C	0.643048	-0.018330	0.336811
C212	C	0.547851	-0.021867	0.318512
C213	C	0.510408	-0.052219	0.234472
H214	H	0.706110	-0.095345	0.138362
H215	H	0.771270	-0.042525	0.284615
H216	H	0.670766	0.004138	0.399023
H217	H	0.505096	-0.002017	0.367179
H218	H	0.439936	-0.054837	0.220926
H219	H	0.434296	0.010221	0.060833
C220	C	1.226187	0.380713	0.000077
C221	C	1.247917	0.341738	-0.076551
C222	C	1.332469	0.316535	-0.076554
C223	C	1.395290	0.330307	0.000071
C224	C	1.373562	0.369284	0.076705
C225	C	1.289010	0.394487	0.076708
H226	H	1.201412	0.331541	-0.133278
H227	H	1.348553	0.287681	-0.133284
H228	H	1.457881	0.311650	0.000069
H229	H	1.420068	0.379481	0.133433
H230	H	1.272926	0.423341	0.133438
H231	H	0.909172	-0.005708	0.577257
H232	H	0.854341	-0.116999	0.423493
H233	H	0.401641	-0.153804	-0.088124
C234	C	1.154659	0.100676	0.000102
C235	C	1.217476	0.114450	0.076730
C236	C	1.302025	0.089244	0.076738
C237	C	1.323757	0.050264	0.000117
C238	C	1.260939	0.036488	-0.076517
C239	C	1.176389	0.061694	-0.076525
H240	H	1.201389	0.143308	0.133454
H241	H	1.348527	0.099442	0.133468
H242	H	1.386346	0.031605	0.000122
H243	H	1.277025	0.007631	-0.133242
H244	H	1.129887	0.051496	-0.133255
C245	C	1.223994	0.505443	0.000081
C246	C	1.287086	0.502862	0.076720
C247	C	1.370492	0.542980	0.076740
C248	C	1.390807	0.585680	0.000121
C249	C	1.327714	0.588263	-0.076523
C250	C	1.244307	0.548145	-0.076544
H251	H	1.272049	0.471251	0.133443
H252	H	1.417198	0.541067	0.133478
H253	H	1.452550	0.615377	0.000136
H254	H	1.342751	0.619873	-0.133247
H255	H	1.197601	0.550057	-0.133282
C256	C	0.882676	-0.005279	0.415469
C257	C	0.865768	-0.000801	0.315282
C258	C	0.779062	0.012504	0.282335
C259	C	0.709265	0.021330	0.349575
C260	C	0.726171	0.016852	0.449767
C261	C	0.812877	0.003547	0.482714
H262	H	0.917438	-0.007335	0.265502
H263	H	0.766548	0.015818	0.208166
H264	H	0.645080	0.031178	0.325185
H265	H	0.674501	0.023385	0.499548
H266	H	0.825392	0.000232	0.556884
H267	H	0.545809	-0.155413	0.089706
C268	C	0.933543	-0.184127	0.586366
C269	C	1.008051	-0.190575	0.648768
C270	C	1.022555	-0.250143	0.683578
C271	C	0.962550	-0.303262	0.655985
C272	C	0.888036	-0.296816	0.593580
C273	C	0.873533	-0.237249	0.558770
H274	H	1.052475	-0.151252	0.669196
H275	H	1.077715	-0.254915	0.729774
H276	H	0.973286	-0.347358	0.681754
H277	H	0.843613	-0.336140	0.573152
H278	H	0.818372	-0.232477	0.512574
H279	H	0.772666	0.456841	0.000005
C280	C	0.933875	-0.184626	0.415436
C281	C	1.015132	-0.209878	0.440706
C282	C	1.029795	-0.269775	0.407438
C283	C	0.963200	-0.304420	0.348898
C284	C	0.881938	-0.279169	0.323625
C285	C	0.867276	-0.219272	0.356893
H286	H	1.064434	-0.184231	0.484043
H287	H	1.089951	-0.288468	0.426147
H288	H	0.974054	-0.348760	0.324271
H289	H	0.832636	-0.304815	0.280288
H290	H	0.807120	-0.200579	0.338184
H291	H	1.016688	0.017738	0.422708
C292	C	1.039764	0.028692	0.584143
C293	C	1.110743	0.012877	0.645059
C294	C	1.179117	0.059752	0.677941
C295	C	1.176511	0.122441	0.649906
C296	C	1.105529	0.138259	0.588987
C297	C	1.037155	0.091385	0.556105
H298	H	1.112674	-0.033532	0.665815
H299	H	1.231662	0.048042	0.723038
H300	H	1.227125	0.157141	0.674247
H301	H	1.103598	0.184668	0.568231
H302	H	0.984610	0.103094	0.511008
H303	H	0.853809	0.190392	0.000083
C304	C	0.587234	0.017043	-0.081679
C305	C	0.652993	0.069814	-0.069529
C306	C	0.690921	0.102650	-0.151272
C307	C	0.663089	0.082715	-0.245166
C308	C	0.597327	0.029941	-0.257321
C309	C	0.559399	-0.002895	-0.175578
H310	H	0.673599	0.084574	-0.000019
H311	H	0.739603	0.141717	-0.142274
H312	H	0.691165	0.107022	-0.305678
H313	H	0.576721	0.015182	-0.326831
H314	H	0.510718	-0.041961	-0.184576
H315	H	0.577922	0.008349	0.060469
H316	H	1.130810	0.214986	0.000079
