data_functionalizedCrystal
_audit_creation_method	'MofGen! by Chris Wilmer'
_symmetry_space_group_name_H-M	'P1'
_symmetry_Int_Tables_number	1
_symmetry_cell_setting	triclinic
loop_
_symmetry_equiv_pos_as_xyz
  x,y,z
_cell_length_a	14.853566
_cell_length_b	14.519731
_cell_length_c	13.930277
_cell_angle_alpha	89.996341
_cell_angle_beta	90.003759
_cell_angle_gamma	83.661634
loop_
_atom_site_label
_atom_site_type_symbol
_atom_site_fract_x
_atom_site_fract_y
_atom_site_fract_z
O1	O	1.196425	0.120386	0.079770
O2	O	1.696425	0.620386	0.579770
O3	O	0.933972	0.134730	0.079786
O4	O	1.433972	0.634730	0.579786
O5	O	1.072147	-0.006682	0.079768
O6	O	1.572147	0.493318	0.579768
O7	O	1.058250	0.261798	0.079787
O8	O	1.558250	0.761798	0.579787
O9	O	1.072127	-0.006661	-0.079893
O10	O	1.572127	0.493339	0.420107
O11	O	0.933952	0.134751	-0.079876
O12	O	1.433952	0.634751	0.420124
O13	O	1.196405	0.120407	-0.079892
O14	O	1.696405	0.620407	0.420108
Zn15	Zn	1.065175	0.127583	-0.105234
Zn16	Zn	1.565175	0.627583	0.394766
Zn17	Zn	1.065202	0.127554	0.105127
Zn18	Zn	1.565202	0.627554	0.605127
O19	O	1.058230	0.261819	-0.079875
O20	O	1.558230	0.761819	0.420125
C21	C	0.900373	0.134091	-0.000043
C22	C	1.400373	0.634091	0.499957
C23	C	0.800289	0.132144	-0.000037
C24	C	1.300289	0.632144	0.499963
C25	C	0.377111	0.123897	0.086977
C26	C	0.877111	0.623897	0.586977
C27	C	0.377110	0.123921	-0.087093
C28	C	0.877110	0.623921	0.412907
C29	C	0.471145	0.125749	-0.087090
C30	C	0.971145	0.625749	0.412910
C31	C	0.518167	0.126653	-0.000052
C32	C	1.018167	0.626653	0.499948
C33	C	0.471154	0.125728	0.086983
C34	C	0.971154	0.625728	0.586983
C35	C	0.518164	0.126684	-0.174123
C36	C	1.018164	0.626684	0.325877
C37	C	0.612204	0.128513	-0.174123
C38	C	1.112204	0.628513	0.325877
C39	C	0.659229	0.129410	-0.087084
C40	C	1.159229	0.629410	0.412916
C41	C	0.612210	0.128484	-0.000046
C42	C	1.112210	0.628484	0.499954
C43	C	0.659232	0.129388	0.086991
C44	C	1.159232	0.629388	0.586991
C45	C	0.612216	0.128455	0.174031
C46	C	1.112216	0.628455	0.674031
C47	C	0.518179	0.126625	0.174021
C48	C	1.018179	0.626625	0.674021
C49	C	0.753267	0.131240	-0.087075
C50	C	1.253267	0.631240	0.412925
C51	C	0.753276	0.131219	0.086997
C52	C	1.253276	0.631219	0.586997
C53	C	1.071486	-0.041031	-0.000063
C54	C	1.571486	0.458969	0.499937
C55	C	1.069535	-0.143410	-0.000063
C56	C	1.569535	0.356590	0.499937
C57	C	1.067949	-0.226554	-0.000061
C58	C	1.567949	0.273446	0.499939
C59	C	1.065968	-0.330861	-0.000053
C60	C	1.565968	0.169139	0.499947
C61	C	1.064396	-0.414000	-0.000047
C62	C	1.564396	0.086000	0.499953
C63	C	1.062415	-0.518315	-0.000041
C64	C	1.562415	-0.018315	0.499959
C65	C	1.230004	0.121046	-0.000061
C66	C	1.730004	0.621046	0.499939
C67	C	1.330089	0.122993	-0.000061
C68	C	1.830089	0.622993	0.499939
C69	C	1.058891	0.296168	-0.000042
C70	C	1.558891	0.796168	0.499958
C71	C	1.060843	0.398547	-0.000035
C72	C	1.560843	0.898547	0.499965
N73	N	1.065164	0.127602	-0.248800
N74	N	1.565164	0.627602	0.251200
C75	C	1.119984	0.183573	-0.701059
C76	C	1.619984	0.683573	-0.201059
C77	C	1.010448	0.071498	-0.701049
C78	C	1.510448	0.571498	-0.201049
C79	C	1.010434	0.071513	-0.600554
C80	C	1.510434	0.571513	-0.100554
C81	C	1.065197	0.127558	-0.550306
C82	C	1.565197	0.627558	-0.050306
C83	C	1.119974	0.183588	-0.600554
C84	C	1.619974	0.683588	-0.100554
C85	C	0.955666	0.015476	-0.550298
C86	C	1.455666	0.515476	-0.050298
C87	C	0.955651	0.015488	-0.449796
C88	C	1.455651	0.515488	0.050204
C89	C	1.010409	0.071539	-0.399547
C90	C	1.510409	0.571539	0.100453
C91	C	1.065187	0.127572	-0.449801
C92	C	1.565187	0.627572	0.050199
C93	C	1.119950	0.183617	-0.399553
C94	C	1.619950	0.683617	0.100447
C95	C	1.174724	0.239656	-0.449805
C96	C	1.674724	0.739656	0.050195
C97	C	1.174732	0.239638	-0.550304
C98	C	1.674732	0.739638	-0.050304
C99	C	1.010401	0.071557	-0.299048
C100	C	1.510401	0.571557	0.200952
C101	C	1.119940	0.183632	-0.299048
C102	C	1.619940	0.683632	0.200952
N103	N	1.065221	0.127528	0.248693
N104	N	1.565221	0.627528	0.748693
H105	H	0.479871	0.125954	-0.244984
H106	H	0.979871	0.625954	0.255016
H107	H	0.479890	0.125865	0.244884
H108	H	0.979890	0.625865	0.744884
C109	C	0.895429	-0.046167	-0.605576
C110	C	1.395429	0.453833	-0.105576
N111	N	0.850053	-0.092595	-0.647217
N112	N	1.350053	0.407405	-0.147217
C113	C	1.234985	0.301268	-0.605589
C114	C	1.734985	0.801268	-0.105589
N115	N	1.280370	0.347684	-0.647233
N116	N	1.780370	0.847684	-0.147233
H117	H	1.164577	0.229201	-0.741979
H118	H	1.664577	0.729201	-0.241979
C119	C	0.663915	0.129529	-0.269867
C120	C	1.163915	0.629529	0.230133
N121	N	0.702864	0.130289	-0.341982
N122	N	1.202864	0.630289	0.158018
C123	C	0.325382	0.122930	-0.182828
C124	C	0.825382	0.622930	0.317172
N125	N	0.286417	0.122182	-0.254941
N126	N	0.786417	0.622182	0.245059
H127	H	0.791542	0.132009	-0.157941
H128	H	1.291542	0.632009	0.342059
H129	H	0.338827	0.123134	0.157842
H130	H	0.838827	0.623134	0.657842
H131	H	1.164531	0.229276	-0.258143
H132	H	1.664531	0.729276	0.241857
C133	C	1.234967	0.301297	-0.394520
C134	C	1.734967	0.801297	0.105480
N135	N	1.280342	0.347723	-0.352875
N136	N	1.780342	0.847723	0.147125
H137	H	0.650513	0.129197	0.244897
H138	H	1.150513	0.629197	0.744897
C139	C	0.950211	0.009853	-0.756325
C140	C	1.450211	0.509853	-0.256325
N141	N	0.904836	-0.036578	-0.797963
N142	N	1.404836	0.463422	-0.297963
C143	C	0.950154	0.009917	-0.243775
C144	C	1.450154	0.509917	0.256225
N145	N	0.904771	-0.036511	-0.202145
N146	N	1.404771	0.463489	0.297855
C147	C	0.804993	0.132209	0.182748
C148	C	1.304993	0.632209	0.682748
N149	N	0.843945	0.132956	0.254868
N150	N	1.343945	0.632956	0.754868
C151	C	0.895392	-0.046147	-0.394528
C152	C	1.395392	0.453853	0.105472
N153	N	0.850000	-0.092568	-0.352899
N154	N	1.350000	0.407432	0.147101
