data_functionalizedCrystal
_audit_creation_method	'MofGen! by Chris Wilmer'
_symmetry_space_group_name_H-M	'P1'
_symmetry_Int_Tables_number	1
_symmetry_cell_setting	triclinic
loop_
_symmetry_equiv_pos_as_xyz
  x,y,z
_cell_length_a	6.817900
_cell_length_b	15.301126
_cell_length_c	9.582880
_cell_angle_alpha	92.795801
_cell_angle_beta	111.207034
_cell_angle_gamma	104.177575
loop_
_atom_site_label
_atom_site_type_symbol
_atom_site_fract_x
_atom_site_fract_y
_atom_site_fract_z
V1	V	-4.120136	-0.124378	-0.467055
O2	O	-4.102207	0.006368	-0.457696
O3	O	-4.074539	-0.246997	-0.464311
O4	O	-4.110851	-0.122293	-0.670548
O5	O	-4.065644	-0.119199	-0.250031
V6	V	-4.598332	-0.108759	-0.441042
O7	O	-4.393079	-0.158638	-0.524115
O8	O	-4.775587	-0.074499	-0.383982
O9	O	-4.420723	0.013860	-0.443786
O10	O	-4.733658	-0.239506	-0.450401
O11	O	-4.770221	-0.113938	-0.658066
O12	O	-4.384411	-0.110844	-0.237549
C13	C	-3.918956	-0.276894	-0.457059
C14	C	-3.963222	-0.377136	-0.456171
C15	C	-4.167694	-0.428816	-0.463236
C16	C	-4.209280	-0.523005	-0.462411
C17	C	-4.046385	-0.565510	-0.454511
C18	C	-3.841899	-0.513823	-0.447450
C19	C	-3.800321	-0.419637	-0.448286
C20	C	-3.928571	-0.710135	-0.445705
C21	C	-3.970149	-0.804327	-0.444867
C22	C	-4.337529	-0.813502	-0.459830
C23	C	-4.295952	-0.719317	-0.460666
C24	C	-4.091466	-0.667636	-0.453603
C25	C	-3.965274	-0.117821	-0.720133
C26	C	-4.038985	-0.116927	-0.886493
C27	C	-4.239647	0.043752	-0.451034
C28	C	-4.174620	0.143993	-0.451931
C29	C	-4.193328	-0.115320	-0.187956
C30	C	-4.098855	-0.116208	-0.021595
H31	H	-3.709275	-0.548439	-0.441027
O32	O	-3.601528	-0.369445	-0.441147
C33	C	-3.211118	-0.320688	-0.298362
C34	C	-3.436115	-0.377548	-0.306229
H35	H	-3.077318	-0.327235	-0.189305
H36	H	-3.209211	-0.246049	-0.300218
H37	H	-3.180251	-0.346741	-0.399811
H38	H	-3.467126	-0.351575	-0.204801
H39	H	-3.437912	-0.452179	-0.304446
H40	H	-3.837525	-0.838936	-0.438478
H41	H	-4.428593	-0.684711	-0.467090
O42	O	-4.325862	-0.387449	-0.471105
C43	C	-4.555918	-0.298625	-0.611078
C44	C	-4.376740	-0.345409	-0.602329
H45	H	-4.597140	-0.264640	-0.717180
H46	H	-4.494247	-0.244906	-0.506662
H47	H	-4.709138	-0.351756	-0.615912
H48	H	-4.223459	-0.292344	-0.597542
H49	H	-4.438589	-0.399145	-0.706742
O50	O	-4.535984	-0.863769	-0.466471
C51	C	-4.732442	-0.963233	-0.343823
C52	C	-4.507566	-0.906363	-0.336153
H53	H	-4.709548	-0.997670	-0.238460
H54	H	-4.812600	-1.017417	-0.448984
H55	H	-4.841689	-0.916654	-0.349666
H56	H	-4.398149	-0.952869	-0.330253
H57	H	-4.427584	-0.852170	-0.231009
O58	O	-3.729920	-0.659815	-0.438647
C59	C	-3.406041	-0.536050	-0.300549
C60	C	-3.630984	-0.592953	-0.308387
H61	H	-3.325966	-0.481991	-0.195226
H62	H	-3.428729	-0.501457	-0.405746
H63	H	-3.296827	-0.582629	-0.294828
H64	H	-3.740316	-0.546436	-0.314059
H65	H	-3.608131	-0.627556	-0.203192
H66	H	-4.375779	-0.565079	-0.468166
