data_functionalizedCrystal
_audit_creation_method	'MofGen! by Chris Wilmer'
_symmetry_space_group_name_H-M	'P1'
_symmetry_Int_Tables_number	1
_symmetry_cell_setting	triclinic
loop_
_symmetry_equiv_pos_as_xyz
  x,y,z
_cell_length_a	17.699083
_cell_length_b	10.268362
_cell_length_c	17.699083
_cell_angle_alpha	90.006174
_cell_angle_beta	83.283015
_cell_angle_gamma	89.998556
loop_
_atom_site_label
_atom_site_type_symbol
_atom_site_fract_x
_atom_site_fract_y
_atom_site_fract_z
O1	O	1.004076	0.108120	0.095712
O2	O	1.504076	0.608120	0.595712
O3	O	0.783697	0.108163	0.108164
O4	O	1.283697	0.608163	0.608164
O5	O	0.900113	0.108129	-0.008251
O6	O	1.400113	0.608129	0.491749
O7	O	0.887660	0.108154	0.212127
O8	O	1.387660	0.608154	0.712127
O9	O	0.900103	-0.108472	-0.008256
O10	O	1.400103	0.391528	0.491744
O11	O	0.783687	-0.108437	0.108160
O12	O	1.283687	0.391563	0.608160
O13	O	1.004066	-0.108480	0.095707
O14	O	1.504066	0.391520	0.595707
Cu15	Cu	0.893876	-0.128236	0.101933
Cu16	Cu	1.393876	0.371764	0.601933
Cu17	Cu	0.893888	0.127919	0.101938
Cu18	Cu	1.393888	0.627919	0.601938
O19	O	0.887650	-0.108446	0.212122
O20	O	1.387650	0.391554	0.712122
C21	C	0.755495	-0.000132	0.107716
C22	C	1.255495	0.499868	0.607716
C23	C	0.671477	-0.000116	0.106377
C24	C	1.171477	0.499884	0.606377
N25	N	0.893873	-0.308402	0.101928
N26	N	1.393873	0.191598	0.601928
C27	C	0.622856	-0.000108	0.174710
C28	C	1.122856	0.499892	0.674710
C29	C	0.543913	-0.000125	0.173448
C30	C	1.043913	0.499875	0.673448
C31	C	0.513592	-0.000140	0.103852
C32	C	1.013592	0.499860	0.603852
C33	C	0.562219	-0.000152	0.035513
C34	C	1.062219	0.499848	0.535513
C35	C	0.641161	-0.000144	0.036776
C36	C	1.141161	0.499856	0.536776
C37	C	0.243856	-0.000184	0.030418
C38	C	0.743856	0.499816	0.530418
C39	C	0.164908	-0.000188	0.029160
C40	C	0.664908	0.499812	0.529160
C41	C	0.146608	-0.000166	0.167090
C42	C	0.646608	0.499834	0.667090
C43	C	0.225550	-0.000158	0.168353
C44	C	0.725550	0.499842	0.668353
C45	C	0.274170	-0.000176	0.100015
C46	C	0.774170	0.499824	0.600015
C47	C	0.359769	-0.000160	0.101384
C48	C	0.859769	0.499840	0.601384
C49	C	0.427995	-0.000147	0.102481
C50	C	0.927995	0.499853	0.602481
C51	C	0.893884	-0.574073	0.101937
C52	C	1.393884	-0.074073	0.601937
C53	C	0.893875	-0.426235	0.101934
C54	C	1.393875	0.073765	0.601934
C55	C	1.032268	-0.000183	0.096156
C56	C	1.532268	0.499817	0.596156
C57	C	1.116286	-0.000190	0.097494
C58	C	1.616286	0.499810	0.597494
C59	C	0.899662	-0.000171	-0.036451
C60	C	1.399662	0.499829	0.463549
C61	C	0.898323	-0.000172	-0.120469
C62	C	1.398323	0.499828	0.379531
N63	N	0.893896	0.308085	0.101937
N64	N	1.393896	0.808085	0.601937
C65	C	0.966656	-0.000187	-0.169090
C66	C	1.466656	0.499813	0.330910
C67	C	0.965394	-0.000175	-0.248033
C68	C	1.465394	0.499825	0.251967
C69	C	0.895798	-0.000157	-0.278354
C70	C	1.395798	0.499843	0.221646
C71	C	0.827459	-0.000138	-0.229727
C72	C	1.327459	0.499862	0.270273
C73	C	0.828722	-0.000141	-0.150785
C74	C	1.328722	0.499859	0.349215
C75	C	0.822364	-0.000127	-0.548090
C76	C	1.322364	0.499873	-0.048090
C77	C	0.821106	-0.000128	-0.627038
C78	C	1.321106	0.499872	-0.127038
C79	C	0.959036	-0.000161	-0.645338
C80	C	1.459036	0.499839	-0.145338
C81	C	0.960299	-0.000163	-0.566396
C82	C	1.460299	0.499837	-0.066396
C83	C	0.891961	-0.000138	-0.517776
C84	C	1.391961	0.499862	-0.017776
C85	C	0.893330	-0.000148	-0.432177
C86	C	1.393330	0.499852	0.067823
C87	C	0.894427	-0.000156	-0.363951
C88	C	1.394427	0.499844	0.136049
C89	C	0.888102	-0.000143	0.240322
C90	C	1.388102	0.499857	0.740322
C91	C	0.889440	-0.000134	0.324340
C92	C	1.389440	0.499866	0.824340
H93	H	0.647537	-0.000095	0.231384
H94	H	1.147537	0.499905	0.731384
H95	H	0.504328	-0.000118	0.229092
H96	H	1.004328	0.499882	0.729092
H97	H	0.107012	-0.000158	0.222734
H98	H	0.607012	0.499842	0.722734
H99	H	0.764429	-0.000116	-0.651721
H100	H	1.264429	0.499884	-0.151721
C101	C	0.747194	-0.000126	-0.494614
C102	C	1.247194	0.499874	0.005386
C103	C	0.670641	-0.000129	-0.527969
C104	C	1.170641	0.499871	-0.027969
C105	C	0.595467	-0.000138	-0.474489
C106	C	1.095467	0.499862	0.025511
C107	C	0.596845	-0.000144	-0.387655
C108	C	1.096845	0.499856	0.112345
C109	C	0.673401	-0.000142	-0.354296
C110	C	1.173401	0.499858	0.145704
C111	C	0.748575	-0.000133	-0.407775
C112	C	1.248575	0.499867	0.092225
H113	H	0.669618	-0.000124	-0.592253
H114	H	1.169618	0.499876	-0.092253
H115	H	0.538796	-0.000139	-0.499184
H116	H	1.038796	0.499861	0.000816
H117	H	0.541197	-0.000151	-0.348066
H118	H	1.041197	0.499849	0.151934
H119	H	0.674423	-0.000147	-0.290012
H120	H	1.174423	0.499853	0.209988
H121	H	0.805246	-0.000131	-0.383080
H122	H	1.305246	0.499869	0.116920
H123	H	0.283434	-0.000200	-0.025228
H124	H	0.783434	0.499800	0.474772
H125	H	0.537526	-0.000183	-0.021154
H126	H	1.037526	0.499817	0.478846
C127	C	1.040562	-0.000207	-0.301516
C128	C	1.540562	0.499793	0.198484
C129	C	1.039180	-0.000203	-0.388350
C130	C	1.539180	0.499797	0.111650
C131	C	1.114351	-0.000238	-0.441833
C132	C	1.614351	0.499762	0.058167
C133	C	1.190906	-0.000277	-0.408483
C134	C	1.690906	0.499723	0.091517
C135	C	1.192292	-0.000282	-0.321645
C136	C	1.692292	0.499718	0.178355
C137	C	1.117120	-0.000247	-0.268161
C138	C	1.617120	0.499753	0.231839
H139	H	0.982507	-0.000173	-0.413042
H140	H	1.482507	0.499827	0.086958
H141	H	1.113325	-0.000234	-0.506117
H142	H	1.613325	0.499766	-0.006117
H143	H	1.246552	-0.000303	-0.448075
H144	H	1.746552	0.499697	0.051925
H145	H	1.248964	-0.000311	-0.296953
H146	H	1.748964	0.499689	0.203047
H147	H	1.118146	-0.000251	-0.203878
H148	H	1.618146	0.499749	0.296122
H149	H	0.250232	-0.000140	0.225025
H150	H	0.750232	0.499860	0.725025
H151	H	0.680748	-0.000149	-0.018868
H152	H	1.180748	0.499851	0.481132
H153	H	0.140225	-0.000202	-0.027517
H154	H	0.640225	0.499798	0.472483
H155	H	1.016971	-0.000184	-0.541714
H156	H	1.516971	0.499816	-0.041714
H157	H	1.023330	-0.000209	-0.144409
H158	H	1.523330	0.499791	0.355591
H159	H	1.014680	-0.000175	-0.684934
H160	H	1.514680	0.499825	-0.184934
H161	H	0.770792	-0.000116	-0.254420
H162	H	1.270792	0.499884	0.245580
H163	H	0.773078	-0.000128	-0.111198
H164	H	1.273078	0.499872	0.388802
