data_functionalizedCrystal
_audit_creation_method	'MofGen! by Chris Wilmer'
_symmetry_space_group_name_H-M	'P1'
_symmetry_Int_Tables_number	1
_symmetry_cell_setting	triclinic
loop_
_symmetry_equiv_pos_as_xyz
  x,y,z
_cell_length_a	10.540539
_cell_length_b	16.109301
_cell_length_c	15.186229
_cell_angle_alpha	89.998755
_cell_angle_beta	90.002140
_cell_angle_gamma	96.006514
loop_
_atom_site_label
_atom_site_type_symbol
_atom_site_fract_x
_atom_site_fract_y
_atom_site_fract_z
O1	O	0.163160	-1.104129	0.073169
O2	O	0.183464	-0.862191	0.073182
O3	O	-0.011473	-0.988680	0.073174
O4	O	0.358097	-0.977640	0.073177
O5	O	-0.011478	-0.988670	-0.073283
O6	O	0.183460	-0.862181	-0.073275
O7	O	0.163155	-1.104119	-0.073289
Zn8	Zn	0.173307	-0.983149	-0.096535
Zn9	Zn	0.173313	-0.983162	0.096429
O10	O	0.358093	-0.977631	-0.073280
C11	C	0.182640	-0.831206	-0.000045
C12	C	0.180174	-0.738896	-0.000039
C13	C	-0.058767	-0.987847	-0.000053
C14	C	-0.199679	-0.985370	-0.000048
C15	C	0.163980	-1.135104	-0.000060
C16	C	0.166446	-1.227414	-0.000059
C17	C	-0.381753	-0.890460	0.000286
C18	C	-0.235171	-0.892971	-0.000044
C19	C	-0.261973	-1.029831	-0.083685
C20	C	-0.408473	-1.026678	-0.083755
C21	C	-0.409013	-1.028568	0.082794
C22	C	-0.262043	-1.029419	0.083900
C23	C	0.405386	-0.978463	-0.000052
C24	C	0.546299	-0.980940	-0.000051
N25	N	0.173302	-0.983146	-0.228228
C26	C	0.290112	-0.517296	-0.000049
C27	C	0.287785	-0.430561	-0.000054
C28	C	0.056499	-0.449021	-0.000053
C29	C	0.058827	-0.535754	-0.000053
C30	C	0.175637	-0.569889	-0.000047
C31	C	0.170982	-0.396421	-0.000052
C32	C	0.168459	-0.302380	-0.000058
C33	C	0.178162	-0.663936	-0.000042
C34	C	0.087012	-1.039178	-0.546150
C35	C	0.087013	-1.039176	-0.453960
C36	C	0.259606	-0.927136	-0.453963
C37	C	0.259611	-0.927143	-0.546151
C38	C	0.173307	-0.983163	-0.592242
C39	C	0.173303	-0.983154	-0.407864
C40	C	0.173304	-0.983151	-0.307908
C41	C	0.173307	-0.983167	-0.692205
N42	N	0.173308	-0.983171	0.228121
H43	H	-0.192067	-0.857987	0.059910
H44	H	0.381003	-0.387743	-0.000058
H45	H	-0.220719	-0.996888	0.145772
F46	F	-0.420988	-0.842816	-0.077451
F47	F	0.351450	-0.867516	-0.404904
H48	H	-0.192914	-0.857733	-0.060094
H49	H	-0.409831	-0.853965	0.060263
F50	F	-0.063020	-0.591732	-0.000057
H51	H	0.016740	-1.084794	-0.583675
F52	F	-0.004831	-1.098796	-0.404908
H53	H	-0.457389	-1.093129	-0.087553
F54	F	0.351467	-0.867525	-0.595210
H55	H	-0.436206	-0.993811	-0.146272
F56	F	-0.231634	-1.117471	0.090502
H57	H	-0.240587	-1.097686	-0.086798
H58	H	-0.038605	-0.421218	-0.000063
F59	F	-0.205724	-0.989453	-0.165034
F60	F	-0.449681	-0.989480	0.165652
F61	F	-0.471985	-1.115800	0.083527
F62	F	0.414432	-0.553622	-0.000046
