data_functionalizedCrystal
_audit_creation_method	'MofGen! by Chris Wilmer'
_symmetry_space_group_name_H-M	'P1'
_symmetry_Int_Tables_number	1
_symmetry_cell_setting	triclinic
loop_
_symmetry_equiv_pos_as_xyz
  x,y,z
_cell_length_a	16.109302
_cell_length_b	10.723023
_cell_length_c	15.186229
_cell_angle_alpha	89.997261
_cell_angle_beta	89.994701
_cell_angle_gamma	83.964664
loop_
_atom_site_label
_atom_site_type_symbol
_atom_site_fract_x
_atom_site_fract_y
_atom_site_fract_z
O1	O	1.104074	0.160395	-0.073266
O2	O	0.862129	0.180354	-0.073259
O3	O	0.988683	-0.011275	-0.073259
O4	O	0.977520	0.352025	-0.073266
O5	O	0.988674	-0.011278	0.073198
O6	O	0.862121	0.180352	0.073198
O7	O	1.104065	0.160392	0.073191
Zn8	Zn	0.983092	0.170372	0.096448
Zn9	Zn	0.983103	0.170375	-0.096516
O10	O	0.977512	0.352022	0.073191
C11	C	0.831145	0.179545	-0.000030
C12	C	0.738836	0.177120	-0.000027
C13	C	0.526457	0.171513	0.079798
C14	C	0.439724	0.169221	0.079795
C15	C	0.439744	0.169231	-0.079880
C16	C	0.526476	0.171513	-0.079876
C17	C	0.569830	0.172660	-0.000034
C18	C	0.396364	0.168087	-0.000041
C19	C	0.302324	0.165602	-0.000045
C20	C	0.663877	0.175143	-0.000030
C21	C	0.987866	-0.057766	-0.000031
C22	C	0.985436	-0.196288	-0.000034
C23	C	0.984357	-0.258038	-0.075905
C24	C	0.981846	-0.401208	-0.075909
C25	C	1.135049	0.161202	-0.000040
C26	C	1.227359	0.163627	-0.000049
C27	C	0.978328	0.398512	-0.000038
C28	C	0.980758	0.537035	-0.000041
N29	N	0.983090	0.170368	0.228141
N30	N	0.983111	0.170369	-0.228209
C31	C	1.039147	0.085543	0.453863
C32	C	1.039150	0.085540	0.546053
C33	C	0.927048	0.255198	0.546062
C34	C	0.927042	0.255194	0.453874
C35	C	0.983096	0.170368	0.407777
C36	C	0.983105	0.170369	0.592155
C37	C	0.983107	0.170366	0.692111
C38	C	0.983093	0.170369	0.307815
H39	H	0.561754	0.172447	0.144811
Cl40	Cl	0.856586	0.361836	0.604017
H41	H	0.981690	-0.409871	0.064917
H42	H	0.985289	-0.204911	-0.140857
Cl43	Cl	0.581007	0.172946	-0.180246
Cl44	Cl	0.385201	0.167781	0.180162
Cl45	Cl	0.385238	0.167758	-0.180247
Cl46	Cl	1.109612	-0.021100	0.395917
Cl47	Cl	0.983985	-0.278299	0.100252
Cl48	Cl	0.980420	-0.483189	-0.176201
Cl49	Cl	0.856568	0.361833	0.395932
H50	H	1.084791	0.016467	0.583574
