data_functionalizedCrystal
_audit_creation_method	'MofGen! by Chris Wilmer'
_symmetry_space_group_name_H-M	'P1'
_symmetry_Int_Tables_number	1
_symmetry_cell_setting	triclinic
loop_
_symmetry_equiv_pos_as_xyz
  x,y,z
_cell_length_a	16.992694
_cell_length_b	17.038272
_cell_length_c	16.053802
_cell_angle_alpha	92.751609
_cell_angle_beta	87.249047
_cell_angle_gamma	90.889890
loop_
_atom_site_label
_atom_site_type_symbol
_atom_site_fract_x
_atom_site_fract_y
_atom_site_fract_z
O1	O	1.054593	0.163385	-0.069325
O2	O	0.826187	0.161558	-0.069350
O3	O	0.939032	0.048571	-0.069331
O4	O	0.941748	0.276372	-0.069344
O5	O	0.932819	0.054763	0.069527
O6	O	0.819974	0.167750	0.069508
O7	O	1.048380	0.169577	0.069533
Zn8	Zn	0.933190	0.169646	0.091567
Zn9	Zn	0.941376	0.161489	-0.091384
O10	O	0.935535	0.282564	0.069514
C11	C	0.793711	0.162304	0.000076
C12	C	0.706200	0.155293	0.000067
C13	C	0.660472	0.222933	0.000064
C14	C	0.578245	0.216342	0.000076
C15	C	0.541748	0.142110	0.000085
C16	C	0.587482	0.074465	0.000091
C17	C	0.669707	0.081057	0.000085
C18	C	0.296327	0.114789	0.000109
C19	C	0.214096	0.108201	0.000112
C20	C	0.204864	0.250079	0.000099
C21	C	0.287091	0.256665	0.000088
C22	C	0.332818	0.189020	0.000098
N23	N	0.457699	0.135371	0.000094
N24	N	0.416865	0.195760	0.000095
C25	C	0.933456	0.022384	0.000098
C26	C	0.926089	-0.064871	0.000097
C27	C	0.993729	-0.110741	0.000105
C28	C	0.986802	-0.192727	0.000096
C29	C	0.912235	-0.228840	0.000085
C30	C	0.844590	-0.182964	0.000075
C31	C	0.851518	-0.100981	0.000077
C32	C	0.887761	-0.476135	0.000071
C33	C	0.880838	-0.558124	0.000071
C34	C	1.023051	-0.567881	0.000091
C35	C	1.029972	-0.485895	0.000099
C36	C	0.962328	-0.440026	0.000084
C37	C	0.905153	-0.312643	0.000079
C38	C	0.969410	-0.356226	0.000084
C39	C	1.080856	0.168831	0.000105
C40	C	1.168367	0.175841	0.000109
C41	C	0.941111	0.308751	0.000084
C42	C	0.948478	0.396006	0.000079
N43	N	0.927609	0.175214	0.216427
N44	N	0.946963	0.155915	-0.216243
C45	C	0.975645	0.127157	0.260129
C46	C	0.971749	0.131060	0.347535
C47	C	0.919820	0.183023	0.391237
C48	C	0.871779	0.231082	0.347529
C49	C	0.875672	0.227175	0.260125
C50	C	0.902815	0.200067	0.652644
C51	C	0.898928	0.203972	0.740055
C52	C	0.998897	0.103948	0.740054
C53	C	1.002788	0.100050	0.652648
C54	C	0.954744	0.148105	0.608948
N55	N	0.915838	0.187015	0.480580
N56	N	0.958723	0.144109	0.519606
H57	H	0.184383	0.047750	0.000119
H58	H	1.041882	-0.230071	0.000105
H59	H	1.078123	-0.605236	0.000102
H60	H	1.045072	0.057737	0.617067
H61	H	0.863697	0.239197	0.617070
O62	O	0.695793	0.295105	0.000091
C63	C	0.677950	0.435129	0.000033
C64	C	0.637850	0.353443	0.000019
H65	H	0.631122	0.482316	-0.000042
H66	H	0.713598	0.444408	0.058156
H67	H	0.718829	0.439131	-0.058068
H68	H	0.596933	0.349383	0.058081
H69	H	0.602251	0.344200	-0.058141
O70	O	0.340623	0.048999	0.000078
C71	C	0.341093	-0.092417	0.000144
C72	C	0.290830	-0.017972	0.000158
H73	H	0.300855	-0.146581	0.000226
H74	H	0.382397	-0.095531	-0.057982
H75	H	0.377244	-0.090242	0.058242
H76	H	0.254631	-0.020096	-0.057901
H77	H	0.249576	-0.014886	0.058321
O78	O	0.821999	-0.431675	-0.000045
C79	C	0.705806	-0.401434	-0.072014
C80	C	0.780248	-0.451850	-0.071979
H81	H	0.672038	-0.417715	-0.130175
H82	H	0.666730	-0.412578	-0.013944
H83	H	0.723572	-0.336636	-0.071972
H84	H	0.762554	-0.516665	-0.072051
H85	H	0.819305	-0.440639	-0.130044
O86	O	0.772145	-0.218014	-0.000086
C87	C	0.651681	-0.237924	-0.072017
C88	C	0.733713	-0.198201	-0.071951
H89	H	0.620578	-0.221906	-0.130104
H90	H	0.658304	-0.304408	-0.072069
H91	H	0.615407	-0.216820	-0.013883
H92	H	0.770031	-0.219241	-0.130074
H93	H	0.727032	-0.131722	-0.071855
H94	H	0.836555	0.266306	0.224543
O95	O	1.041805	-0.321063	-0.000017
C96	C	1.135391	-0.237397	-0.071963
C97	C	1.053379	-0.277167	-0.071947
H98	H	1.144782	-0.201911	-0.130120
H99	H	1.139598	-0.196619	-0.013889
H100	H	1.182536	-0.284272	-0.071913
H101	H	1.006187	-0.230347	-0.072025
H102	H	1.049241	-0.317962	-0.130015
O103	O	0.832671	-0.347628	0.000184
C104	C	0.705803	-0.361216	0.072135
C105	C	0.787853	-0.321524	0.072114
H106	H	0.669550	-0.340139	0.130293
H107	H	0.674644	-0.345256	0.014061
H108	H	0.712496	-0.427690	0.072090
H109	H	0.781231	-0.255043	0.072188
H110	H	0.818982	-0.337549	0.130183
H111	H	0.541016	0.271422	0.000072
H112	H	0.557760	0.014024	0.000110
O113	O	1.066188	-0.075706	-0.000034
C114	C	1.193088	-0.062206	-0.071939
C115	C	1.111049	-0.101921	-0.071891
H116	H	1.229387	-0.083398	-0.130020
H117	H	1.186472	0.004274	-0.071992
H118	H	1.224159	-0.078132	-0.013799
H119	H	1.079933	-0.086057	-0.130021
H120	H	1.117720	-0.168391	-0.071795
O121	O	1.026108	0.076612	0.217809
C122	C	1.124882	-0.022155	0.227044
C123	C	1.067756	0.035043	0.275071
H124	H	1.158581	-0.055767	0.273319
H125	H	1.090132	-0.065401	0.186158
H126	H	1.168266	0.012405	0.186089
H127	H	1.024359	0.000549	0.316071
H128	H	1.102557	0.078289	0.315904
O129	O	1.018302	0.084297	0.390019
C130	C	1.023541	-0.017436	0.488745
C131	C	0.970724	0.035466	0.440673
H132	H	0.985096	-0.056917	0.529723
H133	H	1.061309	-0.055296	0.442529
H134	H	1.063327	0.020787	0.529618
H135	H	0.930890	-0.002697	0.399799
H136	H	0.933009	0.073330	0.486934
H137	H	1.090692	-0.456497	0.000108
O138	O	1.045671	0.057344	0.782465
C139	C	1.178317	0.021112	0.809152
C140	C	1.125440	0.073961	0.761088
H141	H	1.242821	0.034517	0.791873
H142	H	1.166686	0.032827	0.879140
H143	H	1.164581	-0.043179	0.791982
H144	H	1.139145	0.138270	0.778188
H145	H	1.137080	0.062179	0.691112
H146	H	0.316801	0.317112	0.000071
O147	O	0.848404	0.254462	0.782380
C148	C	0.749673	0.353274	0.773162
C149	C	0.806840	0.296123	0.725125
H150	H	0.716065	0.386984	0.726893
H151	H	0.706216	0.318750	0.814070
H152	H	0.784464	0.396441	0.814095
H153	H	0.772115	0.252944	0.684147
H154	H	0.850298	0.330699	0.684270
H155	H	0.820113	-0.587524	0.000076
O156	O	0.821292	0.281452	0.390074
C157	C	0.710452	0.295789	0.488734
C158	C	0.767587	0.238657	0.440621
H159	H	0.667007	0.261210	0.529600
H160	H	0.745194	0.338974	0.529698
H161	H	0.676823	0.329483	0.442469
H162	H	0.801230	0.204909	0.486826
H163	H	0.732801	0.195523	0.399645
O164	O	0.160563	0.315863	0.000059
C165	C	0.160082	0.457284	0.000102
C166	C	0.210347	0.382844	0.000125
H167	H	0.200311	0.511457	0.000173
H168	H	0.123966	0.455211	-0.058021
H169	H	0.118747	0.460292	0.058203
H170	H	0.251727	0.379789	-0.057937
H171	H	0.246410	0.384948	0.058286
H172	H	0.706939	0.025977	0.000087
H173	H	0.796438	-0.063634	0.000071
