data_functionalizedCrystal
_audit_creation_method	'MofGen! by Chris Wilmer'
_symmetry_space_group_name_H-M	'P1'
_symmetry_Int_Tables_number	1
_symmetry_cell_setting	triclinic
loop_
_symmetry_equiv_pos_as_xyz
  x,y,z
_cell_length_a	9.065218
_cell_length_b	12.503572
_cell_length_c	9.065218
_cell_angle_alpha	86.422702
_cell_angle_beta	85.015885
_cell_angle_gamma	93.570693
loop_
_atom_site_label
_atom_site_type_symbol
_atom_site_fract_x
_atom_site_fract_y
_atom_site_fract_z
O1	O	1.968796	0.089319	0.207934
O2	O	2.468796	0.589319	0.707934
O3	O	1.539511	0.089320	0.225681
O4	O	2.039511	0.589320	0.725681
O5	O	1.763027	0.089317	0.002165
O6	O	2.263027	0.589317	0.502165
O7	O	1.745281	0.089322	0.431450
O8	O	2.245281	0.589322	0.931450
O9	O	1.746218	-0.089325	0.019003
O10	O	2.246218	0.410675	0.519003
O11	O	1.522702	-0.089322	0.242519
O12	O	2.022702	0.410678	0.742519
O13	O	1.951987	-0.089323	0.224772
O14	O	2.451987	0.410677	0.724772
Cu15	Cu	1.735810	-0.105634	0.235183
Cu16	Cu	2.235810	0.394366	0.735183
Cu17	Cu	1.755689	0.105631	0.215270
Cu18	Cu	2.255689	0.605631	0.715270
O19	O	1.728471	-0.089320	0.448288
O20	O	2.228471	0.410680	0.948288
C21	C	1.476120	-0.000001	0.232394
C22	C	1.976120	0.499999	0.732394
C23	C	1.312277	-0.000000	0.227294
C24	C	1.812277	0.500000	0.727294
N25	N	1.721839	-0.254226	0.249188
N26	N	2.221839	0.245774	0.749188
C27	C	1.701287	-0.473341	0.269802
C28	C	2.201287	0.026659	0.769802
C29	C	1.790218	-0.526669	0.180645
C30	C	2.290218	-0.026669	0.680645
C31	C	1.778783	-0.648592	0.192115
C32	C	2.278783	-0.148592	0.692115
C33	C	1.712720	-0.351407	0.258334
C34	C	2.212720	0.148593	0.758334
C35	C	2.015378	0.000000	0.218059
C36	C	2.515378	0.500000	0.718059
C37	C	2.179222	0.000007	0.223158
C38	C	2.679222	0.500007	0.723158
N39	N	1.769671	0.254223	0.201254
N40	N	2.269671	0.754223	0.701254
C41	C	1.752917	-0.000002	-0.044402
C42	C	2.252917	0.499998	0.455598
C43	C	1.747818	0.000003	-0.208246
C44	C	2.247818	0.500003	0.291754
C45	C	1.738582	0.000001	0.494855
C46	C	2.238582	0.500001	0.994855
C47	C	1.743682	0.000003	0.658698
C48	C	2.243682	0.500003	1.158698
H49	H	1.874944	-0.480757	0.095702
H50	H	2.374944	0.019243	0.595702
Cl51	Cl	1.570489	-0.544219	0.400947
Cl52	Cl	2.070489	-0.044219	0.900947
