data_functionalizedCrystal
_audit_creation_method	'MofGen! by Chris Wilmer'
_symmetry_space_group_name_H-M	'P1'
_symmetry_Int_Tables_number	1
_symmetry_cell_setting	triclinic
loop_
_symmetry_equiv_pos_as_xyz
  x,y,z
_cell_length_a	16.992694
_cell_length_b	10.540539
_cell_length_c	16.053802
_cell_angle_alpha	92.593658
_cell_angle_beta	87.249047
_cell_angle_gamma	87.596857
loop_
_atom_site_label
_atom_site_type_symbol
_atom_site_fract_x
_atom_site_fract_y
_atom_site_fract_z
O1	O	1.045174	0.264306	-0.069318
O2	O	1.545174	0.764306	0.430682
O3	O	0.816873	0.261349	-0.069343
O4	O	1.316873	0.761349	0.430657
O5	O	0.936232	0.078573	-0.069329
O6	O	1.436232	0.578573	0.430671
O7	O	0.925815	0.447082	-0.069332
O8	O	1.425815	0.947082	0.430668
O9	O	0.929662	0.088589	0.069529
O10	O	1.429662	0.588589	0.569529
O11	O	0.810303	0.271366	0.069516
O12	O	1.310303	0.771366	0.569516
O13	O	1.038604	0.274322	0.069540
O14	O	1.538604	0.774322	0.569540
Zn15	Zn	0.923410	0.274434	0.091575
Zn16	Zn	1.423410	0.774434	0.591575
Zn17	Zn	0.932067	0.261237	-0.091377
Zn18	Zn	1.432067	0.761237	0.408623
O19	O	0.919245	0.457098	0.069526
O20	O	1.419245	0.957098	0.569526
C21	C	0.784355	0.262556	0.000083
C22	C	1.284355	0.762556	0.500083
C23	C	0.697247	0.251215	0.000074
C24	C	1.197247	0.751215	0.500074
C25	C	0.647620	0.360635	0.000073
C26	C	1.147620	0.860635	0.500073
C27	C	0.565773	0.349973	0.000085
C28	C	1.065773	0.849973	0.500085
C29	C	0.533555	0.229889	0.000091
C30	C	1.033555	0.729889	0.500091
C31	C	0.583189	0.120461	0.000094
C32	C	1.083189	0.620461	0.500094
C33	C	0.665034	0.131125	0.000088
C34	C	1.165034	0.631125	0.500088
C35	C	0.289709	0.185691	0.000114
C36	C	0.789709	0.685691	0.500114
C37	C	0.207858	0.175036	0.000117
C38	C	0.707858	0.675036	0.500117
C39	C	0.190447	0.404549	0.000110
C40	C	0.690447	0.904549	0.500110
C41	C	0.272294	0.415202	0.000099
C42	C	0.772294	0.915202	0.500099
C43	C	0.321921	0.305774	0.000106
C44	C	0.821921	0.805774	0.500106
N45	N	0.449895	0.218988	0.000100
N46	N	0.949895	0.718988	0.500100
N47	N	0.405579	0.316677	0.000103
N48	N	0.905579	0.816677	0.500103
C49	C	0.932166	0.036210	0.000099
C50	C	1.432166	0.536210	0.500099
C51	C	0.929829	-0.104941	0.000094
C52	C	1.429829	0.395059	0.500094
C53	C	0.840283	-0.296162	-0.000227
C54	C	1.340283	0.203838	0.499773
C55	C	0.842638	-0.149316	0.000086
C56	C	1.342638	0.350684	0.500086
C57	C	0.968037	-0.157237	0.079393
C58	C	1.468037	0.342763	0.579393
C59	C	0.965058	-0.304035	0.079460
C60	C	1.465058	0.195965	0.579460
C61	C	0.974303	-0.315790	-0.078448
C62	C	1.474303	0.184210	0.421552
C63	C	0.975156	-0.168814	-0.079496
C64	C	1.475156	0.331186	0.420504
C65	C	1.071123	0.273115	0.000112
C66	C	1.571123	0.773115	0.500112
C67	C	1.158230	0.284456	0.000117
C68	C	1.658230	0.784456	0.500117
C69	C	0.923311	0.499461	0.000097
C70	C	1.423311	0.999461	0.500097
C71	C	0.925649	0.640612	0.000096
C72	C	1.425649	1.140612	0.500096
N73	N	0.917508	0.283440	0.216434
N74	N	1.417508	0.783440	0.716434
N75	N	0.937975	0.252222	-0.216237
N76	N	1.437975	0.752222	0.283763
C77	C	0.968315	0.205700	0.260134
C78	C	1.468315	0.705700	0.760134
C79	C	0.964193	0.212013	0.347540
C80	C	1.464193	0.712013	0.847540
C81	C	0.909269	0.296073	0.391245
C82	C	1.409269	0.796073	0.891245
C83	C	0.858458	0.373817	0.347539
C84	C	1.358458	0.873817	0.847539
C85	C	0.862576	0.367497	0.260134
C86	C	1.362576	0.867497	0.760134
C87	C	0.891281	0.323645	0.652653
C88	C	1.391281	0.823645	1.152653
C89	C	0.887169	0.329962	0.740063
C90	C	1.387169	0.829962	1.240063
C91	C	0.992904	0.168156	0.740059
C92	C	1.492904	0.668156	1.240059
C93	C	0.997020	0.161848	0.652652
C94	C	1.497020	0.661848	1.152652
C95	C	0.946206	0.239587	0.608954
C96	C	1.446206	0.739587	1.108954
N97	N	0.905057	0.302531	0.480588
N98	N	1.405057	0.802531	0.980588
N99	N	0.950415	0.233122	0.519612
N100	N	1.450415	0.733122	1.019612
H101	H	0.525369	0.439075	0.000084
H102	H	1.025369	0.939075	0.500084
H103	H	0.808532	-0.331853	-0.057095
H104	H	1.308532	0.168147	0.442905
F105	F	0.837203	0.406382	0.606152
F106	F	1.337203	0.906382	1.106152
H107	H	0.330106	0.096587	0.000120
H108	H	0.830106	0.596587	0.500120
F109	F	1.026777	0.116237	0.213628
F110	F	1.526777	0.616237	0.713628
H111	H	0.803306	-0.325268	0.056314
H112	H	1.303306	0.174732	0.556314
H113	H	0.806696	-0.106338	0.057018
H114	H	1.306696	0.393662	0.557018
H115	H	1.034274	0.104863	0.775646
H116	H	1.534274	0.604863	1.275646
H117	H	0.150032	0.493638	0.000105
H118	H	0.650032	0.993638	0.500105
F119	F	0.548899	-0.007342	0.000105
F120	F	1.048899	0.492658	0.500105
F121	F	0.799998	0.463275	0.394054
F122	F	1.299998	0.963275	0.894054
H123	H	0.947229	-0.134851	-0.138159
H124	H	1.447229	0.365149	0.361841
F125	F	0.808498	0.450235	0.213627
F126	F	1.308498	0.950235	0.713627
F127	F	0.173572	0.047221	0.000138
F128	F	0.673572	0.547221	0.500138
F129	F	1.051548	-0.120480	0.083259
F130	F	1.551548	0.379520	0.583259
F131	F	0.717852	0.014665	0.000091
F132	F	1.217852	0.514665	0.500091
H133	H	0.812311	-0.113678	-0.056760
H134	H	1.312311	0.386322	0.443240
H135	H	0.298520	0.512986	0.000084
H136	H	0.798520	1.012986	0.500084
H137	H	1.038951	-0.139421	-0.084277
H138	H	1.538951	0.360579	0.415723
F139	F	0.920857	-0.338827	0.156929
F140	F	1.420857	0.161173	0.656929
H141	H	1.005563	0.148710	0.383120
H142	H	1.505563	0.648710	0.883120
H143	H	1.041744	0.093400	0.617070
H144	H	1.541744	0.593400	1.117070
H145	H	0.673844	0.458420	0.000068
H146	H	1.173844	0.958420	0.500068
H147	H	1.027595	-0.346303	0.083064
H148	H	1.527595	0.153697	0.583064
H149	H	0.936097	-0.112911	0.138399
H150	H	1.436097	0.387089	0.638399
H151	H	0.842440	0.398419	0.775644
H152	H	1.342440	0.898419	1.275644
F153	F	0.941130	-0.365886	-0.157008
F154	F	1.441130	0.134114	0.342992
H155	H	1.037306	-0.357589	-0.078974
H156	H	1.537306	0.142411	0.421026
