data_functionalizedCrystal
_audit_creation_method	'MofGen! by Chris Wilmer'
_symmetry_space_group_name_H-M	'P1'
_symmetry_Int_Tables_number	1
_symmetry_cell_setting	triclinic
loop_
_symmetry_equiv_pos_as_xyz
  x,y,z
_cell_length_a	14.971482
_cell_length_b	11.792254
_cell_length_c	14.048226
_cell_angle_alpha	89.993407
_cell_angle_beta	89.994098
_cell_angle_gamma	83.905603
loop_
_atom_site_label
_atom_site_type_symbol
_atom_site_fract_x
_atom_site_fract_y
_atom_site_fract_z
O1	O	1.187547	0.147888	-0.079149
O2	O	0.927218	0.165605	-0.079153
O3	O	1.063694	-0.008464	-0.079144
O4	O	1.051071	0.321957	-0.079158
O5	O	1.063677	-0.008474	0.079177
O6	O	0.927201	0.165595	0.079168
O7	O	1.187530	0.147878	0.079173
Zn8	Zn	1.057363	0.156735	0.104307
Zn9	Zn	1.057385	0.156748	-0.104288
O10	O	1.051054	0.321947	0.079163
C11	C	0.893882	0.164808	0.000007
C12	C	0.794575	0.162436	0.000005
C13	C	0.747917	0.161313	0.086307
C14	C	0.654609	0.159066	0.086308
C15	C	0.607961	0.157950	0.000006
C16	C	0.654626	0.159070	-0.086302
C17	C	0.747932	0.161309	-0.086302
C18	C	0.460145	0.154406	-0.086296
C19	C	0.366832	0.152169	-0.086296
C20	C	0.366822	0.152164	0.086315
C21	C	0.460128	0.154403	0.086315
C22	C	0.506787	0.155524	0.000006
C23	C	1.062891	-0.050755	0.000016
C24	C	1.060510	-0.176752	0.000015
C25	C	1.058577	-0.279076	0.000012
C26	C	1.056159	-0.407447	0.000003
C27	C	1.220867	0.148675	0.000010
C28	C	1.320173	0.151047	0.000006
C29	C	1.051858	0.364237	0.000001
C30	C	1.054238	0.490235	-0.000004
N31	N	1.057355	0.156725	0.246668
N32	N	1.057400	0.156749	-0.246649
C33	C	1.117806	0.079679	0.296490
C34	C	1.117812	0.079678	0.396148
C35	C	1.057371	0.156730	0.445981
C36	C	0.996913	0.233779	0.396152
C37	C	0.996904	0.233773	0.296496
C38	C	0.996939	0.233787	0.603867
C39	C	0.996950	0.233795	0.703529
C40	C	1.117847	0.079692	0.703518
C41	C	1.117838	0.079687	0.603862
C42	C	1.057381	0.156738	0.554040
H43	H	0.328853	0.151262	-0.156571
H44	H	0.947731	0.296537	0.744099
H45	H	0.947706	0.296527	0.563305
C46	C	1.184291	-0.005106	0.450947
N47	N	1.234358	-0.068979	0.492222
H48	H	0.498131	0.155320	-0.156578
C49	C	1.184347	-0.005069	0.758324
N50	N	1.234434	-0.068907	0.799608
H51	H	0.785890	0.162231	0.156584
H52	H	0.616626	0.158133	0.156584
H53	H	0.498106	0.155318	0.156589
C54	C	0.315497	0.150922	0.181256
N55	N	0.276834	0.149989	0.252763
H56	H	0.616638	0.158153	-0.156571
H57	H	1.167028	0.016940	0.255922
C58	C	0.930419	0.318526	0.450973
N59	N	0.880333	0.382359	0.492263
H60	H	0.785920	0.162225	-0.156578
H61	H	1.167057	0.016951	0.563287
C62	C	0.930410	0.318539	0.241693
N63	N	0.880326	0.382388	0.200416
