data_functionalizedCrystal
_audit_creation_method	'MofGen! by Chris Wilmer'
_symmetry_space_group_name_H-M	'P1'
_symmetry_Int_Tables_number	1
_symmetry_cell_setting	triclinic
loop_
_symmetry_equiv_pos_as_xyz
  x,y,z
_cell_length_a	19.288867
_cell_length_b	11.792241
_cell_length_c	17.766277
_cell_angle_alpha	89.993523
_cell_angle_beta	89.992126
_cell_angle_gamma	83.665242
loop_
_atom_site_label
_atom_site_type_symbol
_atom_site_fract_x
_atom_site_fract_y
_atom_site_fract_z
O1	O	0.922156	0.141593	-0.062568
O2	O	0.720004	0.160690	-0.062575
O3	O	0.825986	-0.014103	-0.062566
O4	O	0.816175	0.316386	-0.062577
O5	O	0.825967	-0.014112	0.062622
O6	O	0.719986	0.160681	0.062613
O7	O	0.922138	0.141584	0.062620
Cu8	Cu	0.821060	0.151132	0.074047
Cu9	Cu	0.821082	0.151142	-0.074002
O10	O	0.816156	0.316378	0.062611
C11	C	0.694115	0.160071	0.000018
C12	C	0.617001	0.158225	0.000015
C13	C	0.061371	0.144935	-0.068216
C14	C	0.133828	0.146663	-0.068219
C15	C	0.170051	0.147527	0.000021
C16	C	0.133813	0.146634	0.068269
C17	C	0.061358	0.144896	0.068270
C18	C	0.279764	0.216751	0.052300
C19	C	0.352217	0.218497	0.052296
C20	C	0.393527	0.152885	0.000021
C21	C	0.362374	0.085542	-0.052262
C22	C	0.289919	0.083803	-0.052261
C23	C	0.248617	0.149412	0.000028
C24	C	0.508324	0.155642	-0.068225
C25	C	0.580783	0.157363	-0.068225
C26	C	0.580766	0.157346	0.068265
C27	C	0.508309	0.155614	0.068263
C28	C	0.472092	0.154768	0.000015
C29	C	0.825360	-0.056389	0.000028
C30	C	0.823516	-0.182375	0.000027
C31	C	0.820124	-0.413036	0.000014
C32	C	0.822008	-0.284679	0.000021
C33	C	0.948027	0.142204	0.000025
C34	C	1.025141	0.144049	0.000023
C35	C	0.816782	0.358664	0.000016
C36	C	0.818626	0.484649	0.000011
N37	N	0.821049	0.151124	0.178178
N38	N	0.821098	0.151141	-0.178133
C39	C	0.867994	0.073763	0.217569
C40	C	0.867998	0.073758	0.296371
C41	C	0.821064	0.151133	0.335778
C42	C	0.774111	0.228499	0.296378
C43	C	0.774104	0.228495	0.217578
C44	C	0.812353	0.254544	0.460613
C45	C	0.812365	0.254550	0.539412
C46	C	0.821083	0.151147	0.578825
C47	C	0.829803	0.047733	0.539429
C48	C	0.829796	0.047728	0.460629
C49	C	0.821067	0.151146	0.421224
C50	C	0.868034	0.073774	0.703662
C51	C	0.868033	0.073767	0.782465
C52	C	0.774150	0.228518	0.782471
C53	C	0.774147	0.228515	0.703669
C54	C	0.821093	0.151144	0.664269
H55	H	0.478834	0.154950	-0.123796
H56	H	0.735933	0.291514	0.814556
H57	H	0.906258	0.010770	0.671581
H58	H	0.478810	0.154897	0.123830
O59	O	0.839211	-0.063815	0.581916
H60	H	0.792794	-0.070925	0.617822
O61	O	0.839188	-0.063799	0.418135
H62	H	0.845246	-0.135707	0.458773
O63	O	0.619827	0.158307	0.141866
H64	H	0.582457	0.157408	0.189319
H65	H	0.163331	0.147390	-0.123789
O66	O	0.256316	0.011153	-0.108634
H67	H	0.297209	-0.034194	-0.144981
O68	O	0.802947	0.366071	0.418097
H69	H	0.845606	0.417800	0.433193
O70	O	0.022188	0.144046	0.141824
H71	H	0.041910	0.067072	0.174626
H72	H	0.377574	0.273360	0.094853
H73	H	0.246135	0.270175	0.094876
H74	H	0.163311	0.147336	0.123831
O75	O	0.918668	-0.009684	0.824951
H76	H	0.910781	0.003305	0.886366
H77	H	0.735924	0.291514	0.671595
H78	H	0.805269	0.338755	0.571481
O79	O	0.619865	0.158319	-0.141829
H80	H	0.582504	0.157449	-0.189282
H81	H	0.396007	0.032118	-0.094832
H82	H	0.906218	0.010761	0.185492
O83	O	0.918639	-0.009672	0.338872
H84	H	0.951285	-0.063466	0.298236
O85	O	0.723492	0.311963	0.338875
H86	H	0.731389	0.298980	0.400288
H87	H	0.735875	0.291492	0.185505
H88	H	0.031887	0.144242	-0.123788
