data_functionalizedCrystal
_audit_creation_method	'MofGen! by Chris Wilmer'
_symmetry_space_group_name_H-M	'P1'
_symmetry_Int_Tables_number	1
_symmetry_cell_setting	triclinic
loop_
_symmetry_equiv_pos_as_xyz
  x,y,z
_cell_length_a	12.759400
_cell_length_b	12.759401
_cell_length_c	12.759393
_cell_angle_alpha	90.019437
_cell_angle_beta	90.031169
_cell_angle_gamma	90.014428
loop_
_atom_site_label
_atom_site_type_symbol
_atom_site_fract_x
_atom_site_fract_y
_atom_site_fract_z
Zn1	Zn	-0.418204	1.606257	0.594011
Zn2	Zn	-0.593923	1.606153	0.418332
Zn3	Zn	-0.418259	1.430559	0.418347
Zn4	Zn	-0.593842	1.430549	0.593971
O5	O	-0.506057	1.518380	0.506165
O6	O	-0.441525	1.753265	0.570717
O7	O	-0.570677	1.582820	0.271313
O8	O	-0.271230	1.453914	0.441672
O9	O	-0.570625	1.753188	0.441647
O10	O	-0.271190	1.582999	0.570732
O11	O	-0.441618	1.453813	0.271324
O12	O	-0.441539	1.283537	0.441634
O13	O	-0.570486	1.453897	0.740997
O14	O	-0.570539	1.283529	0.570663
O15	O	-0.441446	1.582989	0.741026
O16	O	-0.740933	1.582810	0.441608
O17	O	-0.740873	1.453795	0.570649
C18	C	-0.506037	1.245412	0.506146
C19	C	-0.506053	1.128636	0.506163
C20	C	-0.573343	0.964072	0.573261
C21	C	-0.573329	1.073796	0.573244
C22	C	-0.438794	1.073745	0.439087
C23	C	-0.438814	0.964023	0.439100
C24	C	-0.640615	0.909239	0.640355
C25	C	-0.707876	0.964121	0.707430
C26	C	-0.707863	1.073846	0.707413
C27	C	-0.640588	1.128687	0.640321
C28	C	-0.779024	1.518319	0.506145
C29	C	-0.895801	1.518389	0.506172
C30	C	-1.060282	1.585628	0.573463
C31	C	-0.950558	1.585571	0.573434
C32	C	-0.950773	1.451266	0.438927
C33	C	-1.060495	1.451329	0.438953
C34	C	-1.115034	1.652807	0.640737
C35	C	-1.060069	1.719931	0.707980
C36	C	-0.950345	1.719875	0.707950
C37	C	-0.895586	1.652694	0.640678
C38	C	-0.232023	1.518470	0.506208
C39	C	-0.115247	1.518508	0.506227
C40	C	-0.505951	1.518453	0.780199
C41	C	-0.505906	1.518485	0.896975
C42	C	-0.506078	1.792413	0.506184
C43	C	-0.506087	1.909190	0.506193
C44	C	-0.506087	1.518367	0.233198
C45	C	-0.505836	1.518539	0.116422
C46	C	-0.438708	1.585712	0.951854
C47	C	-0.438670	1.585737	1.061578
C48	C	-0.573036	1.451304	1.061535
C49	C	-0.573068	1.451274	0.951813
C50	C	-0.361136	1.663329	0.951880
C51	C	-0.361098	1.663354	1.061605
H52	H	-0.640632	0.819896	0.640378
H53	H	-0.279771	1.641560	0.922124
O54	O	-1.113309	1.785036	0.773434
C55	C	-1.176786	1.725211	0.841234
H56	H	-1.143774	1.642445	0.847639
H57	H	-1.177940	1.763163	0.922124
H58	H	-1.259970	1.721650	0.808767
H59	H	-0.905594	1.774537	0.762695
O60	O	-1.113732	1.386027	0.373610
C61	C	-1.041881	1.326731	0.314216
H62	H	-0.963636	1.323020	0.357224
H63	H	-1.073665	1.243979	0.302943
H64	H	-1.030244	1.365241	0.234454
H65	H	-0.806241	1.652661	0.640651
O66	O	-0.387028	1.760377	1.097318
C67	C	-0.386955	1.760215	1.207820
H68	H	-0.334999	1.693863	1.237471
H69	H	-0.355465	1.838315	1.237743
H70	H	-0.470338	1.748336	1.237601
H71	H	-0.627715	1.396582	1.106197
H72	H	-0.390304	1.740601	0.917846
O73	O	-0.638426	1.385920	0.898665
C74	C	-0.697672	1.326586	0.970597
H75	H	-0.701310	1.369644	1.048810
H76	H	-0.780452	1.315314	0.938869
H77	H	-0.659165	1.246822	0.982280
O78	O	-0.268869	1.628485	1.102102
C79	C	-0.250438	1.525039	1.067888
H80	H	-0.296005	1.510011	0.992488
H81	H	-0.163121	1.513842	1.052679
H82	H	-0.277284	1.467614	1.130829
H83	H	-0.384042	0.919337	0.384492
O84	O	-0.773127	0.910692	0.772563
C85	C	-0.758738	0.802078	0.758180
H86	H	-0.677620	0.787085	0.723912
H87	H	-0.765961	0.760417	0.836871
H88	H	-0.820995	0.770906	0.702131
H89	H	-0.762637	1.118528	0.762021
H90	H	-0.384021	1.118406	0.384465
O91	O	-0.640685	1.235273	0.640457
C92	C	-0.714502	1.271959	0.714013
H93	H	-0.729289	1.208763	0.775388
H94	H	-0.682845	1.345396	0.753915
H95	H	-0.791061	1.291384	0.672217
H96	H	-0.906181	1.396569	0.384158
O97	O	-1.221619	1.652695	0.640858
C98	C	-1.258330	1.551997	0.667724
H99	H	-1.195095	1.508502	0.713468
H100	H	-1.331689	1.559523	0.718128
H101	H	-1.277893	1.506538	0.593303
