data_functionalizedCrystal
_audit_creation_method	'MofGen! by Chris Wilmer'
_symmetry_space_group_name_H-M	'P1'
_symmetry_Int_Tables_number	1
_symmetry_cell_setting	triclinic
loop_
_symmetry_equiv_pos_as_xyz
  x,y,z
_cell_length_a	16.994730
_cell_length_b	21.395362
_cell_length_c	21.395355
_cell_angle_alpha	89.956060
_cell_angle_beta	89.933570
_cell_angle_gamma	90.029012
loop_
_atom_site_label
_atom_site_type_symbol
_atom_site_fract_x
_atom_site_fract_y
_atom_site_fract_z
Zn1	Zn	-0.313786	-0.958189	0.354955
Zn2	Zn	-0.445672	-0.958229	0.250333
Zn3	Zn	-0.313822	-0.853404	0.250157
Zn4	Zn	-0.445688	-0.853511	0.355038
O5	O	-0.379742	-0.905833	0.302621
O6	O	-0.331258	-1.045872	0.341116
O7	O	-0.428191	-0.944296	0.162632
O8	O	-0.203436	-0.867242	0.263950
O9	O	-0.428155	-1.045902	0.264251
O10	O	-0.203409	-0.944227	0.340945
O11	O	-0.331321	-0.867281	0.162502
O12	O	-0.331337	-0.765740	0.264030
O13	O	-0.428183	-0.867425	0.442705
O14	O	-0.428218	-0.765819	0.341086
O15	O	-0.331274	-0.944331	0.442644
O16	O	-0.556056	-0.944400	0.264331
O17	O	-0.556068	-0.867464	0.341257
C18	C	-0.379784	-0.743046	0.302548
C19	C	-0.379821	-0.673404	0.302532
C20	C	-0.674002	-0.905836	0.302700
C21	C	-0.584680	-0.905901	0.302773
Zn22	Zn	-0.944639	-0.853389	0.249935
Zn23	Zn	-0.812911	-0.958205	0.250286
Zn24	Zn	-0.945120	-0.958013	0.354895
Zn25	Zn	-0.813096	-0.853325	0.354829
O26	O	-0.878942	-0.905733	0.302486
O27	O	-0.926887	-0.867401	0.162304
O28	O	-0.830573	-1.045857	0.264337
O29	O	-1.055437	-0.944081	0.340852
O30	O	-0.830107	-0.944408	0.162562
O31	O	-1.055084	-0.867214	0.263738
O32	O	-0.927706	-1.045716	0.341193
O33	O	-0.927885	-0.944018	0.442564
O34	O	-0.830422	-0.765656	0.340740
O35	O	-0.830888	-0.867105	0.442516
O36	O	-0.927066	-0.765703	0.263675
O37	O	-0.702555	-0.944346	0.264273
O38	O	-0.702691	-0.867291	0.341081
C39	C	-0.174002	-0.905713	0.302417
C40	C	-0.084679	-0.905663	0.302329
C41	C	-0.379726	-0.905885	0.466044
C42	C	-0.379719	-0.905907	0.535685
C43	C	-0.379701	-1.069257	0.302694
C44	C	-0.379683	-1.138898	0.302725
C45	C	-0.430334	-0.640749	0.342595
C46	C	-0.430314	-0.575313	0.342623
C47	C	-0.379790	-0.542536	0.302577
C48	C	-0.329267	-0.575199	0.262511
C49	C	-0.329283	-0.640634	0.262488
C50	C	-0.373436	-0.438805	0.246164
C51	C	-0.373426	-0.373372	0.246185
C52	C	-0.379739	-0.340715	0.302646
C53	C	-0.386078	-0.373500	0.359087
C54	C	-0.386093	-0.438934	0.359065
C55	C	-0.379768	-0.471584	0.302597
C56	C	-0.430234	-0.237107	0.342742
C57	C	-0.430209	-0.171671	0.342771
C58	C	-0.329166	-0.171558	0.262654
C59	C	-0.329187	-0.236993	0.262630
C60	C	-0.379725	-0.269764	0.302674
C61	C	-0.379701	-0.905817	0.139833
C62	C	-0.379486	-0.905916	0.070192
C63	C	-0.329257	-0.945951	0.568368
C64	C	-0.329223	-0.945950	0.633803
C65	C	-0.379666	-0.905912	0.666554
C66	C	-0.430131	-0.865861	0.633863
C67	C	-0.430158	-0.865859	0.568429
C68	C	-0.450691	-0.901011	0.770301
C69	C	-0.450665	-0.901018	0.835734
C70	C	-0.379582	-0.905916	0.868375
C71	C	-0.308522	-0.910821	0.835574
C72	C	-0.308549	-0.910818	0.770140
C73	C	-0.379642	-0.905910	0.737506
C74	C	-0.329079	-0.945960	0.972010
C75	C	-0.329044	-0.945955	1.037446
C76	C	-0.429959	-0.865870	1.037505
C77	C	-0.429987	-0.865872	0.972070
C78	C	-0.379548	-0.905920	0.939326
C79	C	-0.879458	-0.905533	0.465273
C80	C	-0.879660	-0.905433	0.534915
C81	C	-0.878711	-0.742310	0.302161
C82	C	-0.878613	-0.672669	0.302022
C83	C	-0.878423	-0.905933	0.139063
C84	C	-0.878202	-0.906018	0.069422
C85	C	-0.879227	-1.068520	0.302775
C86	C	-0.879546	-1.138161	0.302793
C87	C	-0.829175	-0.865398	0.567580
C88	C	-0.829364	-0.865292	0.633015
C89	C	-0.880035	-0.905223	0.665784
C90	C	-0.930526	-0.945260	0.633114
C91	C	-0.930340	-0.945362	0.567680
C92	C	-0.928890	-0.639985	0.261833
C93	C	-0.928814	-0.574550	0.261703
C94	C	-0.878456	-0.541799	0.301759
C95	C	-0.828176	-0.574487	0.341953
C96	C	-0.828256	-0.639921	0.342086
C97	C	-0.928486	-0.865960	0.036580
C98	C	-0.928279	-0.866027	-0.028855
C99	C	-0.877790	-0.906157	-0.061447
C100	C	-0.827500	-0.946217	-0.028601
C101	C	-0.827704	-0.946146	0.036833
C102	C	-0.929906	-1.170765	0.343107
C103	C	-0.930221	-1.236200	0.343125
C104	C	-0.880170	-1.269030	0.302832
C105	C	-0.829807	-1.236422	0.262513
C106	C	-0.829497	-1.170988	0.262493
H107	H	-0.471485	-0.667427	0.375203
H108	H	-0.786758	-0.978770	0.063568
H109	H	-0.391217	-0.346913	0.405063
F110	F	-0.232865	-0.916037	0.870306
H111	H	-0.288185	-0.978561	0.541712
H112	H	-0.786393	-0.978890	-0.055147
H113	H	-0.969758	-0.547945	0.228971
F114	F	-0.526354	-0.895811	0.735570
H115	H	-0.880178	-0.905134	0.719064
F116	F	-0.483870	-0.823237	0.533645
F117	F	-0.775625	-0.822676	0.667773
H118	H	-0.789058	-1.263163	0.229707
F119	F	-0.774585	-0.539622	0.384582
H120	H	-0.969232	-0.833404	-0.055590
H121	H	-0.288004	-0.978567	0.945348
F122	F	-0.878378	-0.472157	0.301611
H123	H	-0.787310	-0.666527	0.374811
F124	F	-0.775889	-1.136296	0.219586
H125	H	-0.288126	-0.978556	0.660419
H126	H	-0.368269	-0.346683	0.200227
F127	F	-0.877581	-0.906226	-0.131089
H128	H	-0.471448	-0.548720	0.375250
H129	H	-0.970663	-1.144043	0.375922
H130	H	-0.368292	-0.465388	0.200184
F131	F	-0.983824	-1.270892	0.386041
H132	H	-0.880430	-1.322311	0.302855
H133	H	-0.787908	-0.832882	0.540908
F134	F	-0.982226	-0.823244	0.071255
F135	F	-0.275341	-0.988584	1.072229
H136	H	-0.391252	-0.465625	0.405021
H137	H	-0.471380	-0.263791	0.375352
F138	F	-0.984072	-0.987979	0.532922
F139	F	-0.483970	-0.136916	0.385418
H140	H	-0.288025	-0.144871	0.230050
F141	F	-0.984450	-0.987755	0.667998
H142	H	-0.969900	-0.666643	0.229213
H143	H	-0.288129	-0.548508	0.229906
F144	F	-0.275517	-0.675389	0.219846
F145	F	-0.275425	-0.271749	0.219987
H146	H	-0.250690	-0.914810	0.743436
H147	H	-0.471084	-0.833268	0.945459
F148	F	-0.483638	-0.823254	1.072356
H149	H	-0.471200	-0.833260	0.660533
F150	F	-0.526293	-0.895803	0.870637
