data_functionalizedCrystal
_audit_creation_method	'MofGen! by Chris Wilmer'
_symmetry_space_group_name_H-M	'P1'
_symmetry_Int_Tables_number	1
_symmetry_cell_setting	triclinic
loop_
_symmetry_equiv_pos_as_xyz
  x,y,z
_cell_length_a	13.339070
_cell_length_b	12.811445
_cell_length_c	11.295672
_cell_angle_alpha	89.148871
_cell_angle_beta	93.283720
_cell_angle_gamma	99.766156
loop_
_atom_site_label
_atom_site_type_symbol
_atom_site_fract_x
_atom_site_fract_y
_atom_site_fract_z
O1	O	0.120909	1.411894	-0.251473
O2	O	0.137730	1.113259	-0.219229
O3	O	-0.017861	1.228303	-0.231647
O4	O	0.276501	1.296850	-0.239055
O5	O	-0.005728	1.244307	-0.035331
O6	O	0.149863	1.129263	-0.022912
O7	O	0.133042	1.427898	-0.055157
Cu8	Cu	0.142561	1.280041	-0.021109
Cu9	Cu	0.128212	1.261116	-0.253276
O10	O	0.288634	1.312854	-0.042739
C11	C	0.143225	1.082258	-0.116859
C12	C	0.141509	0.966038	-0.104311
C13	C	0.125075	0.730202	-0.294777
C14	C	0.123463	0.621002	-0.282992
C15	C	0.136679	0.638440	-0.068956
C16	C	0.138292	0.747639	-0.080741
C17	C	0.132488	0.793516	-0.193656
C18	C	0.134093	0.902716	-0.205440
C19	C	0.147317	0.920153	0.008595
C20	C	0.145704	0.810954	0.020380
C21	C	-0.049456	1.224726	-0.132240
C22	C	-0.161675	1.190211	-0.128518
C23	C	-0.527114	1.458576	-0.157494
C24	C	-0.421678	1.491007	-0.160984
C25	C	-0.356672	1.415811	-0.152868
C26	C	-0.397112	1.308177	-0.141261
C27	C	-0.502557	1.275743	-0.137760
C28	C	-0.332116	1.232979	-0.133135
C29	C	-0.372555	1.125345	-0.121527
C30	C	-0.477991	1.092916	-0.118029
C31	C	-0.542996	1.168112	-0.126144
C32	C	-0.226671	1.265413	-0.136635
C33	C	-0.202114	1.082581	-0.116902
C34	C	-0.307550	1.050149	-0.113412
C35	C	0.320228	1.316431	-0.142148
C36	C	0.432447	1.350945	-0.145878
C37	C	0.127548	1.458899	-0.157529
C38	C	0.129263	1.575118	-0.170085
N39	N	0.118113	1.247803	-0.416569
C40	C	0.045307	1.151864	-0.593190
C41	C	0.052961	1.161942	-0.469619
C42	C	0.175617	1.323589	-0.487100
C43	C	0.167964	1.313511	-0.610671
C44	C	0.102806	1.227647	-0.663712
C45	C	0.095147	1.217574	-0.787286
C46	C	0.217809	1.379216	-0.804764
C47	C	0.225462	1.389294	-0.681193
N48	N	0.152652	1.293360	0.142183
H49	H	0.153351	0.971715	0.090936
Br50	Br	-0.043147	1.035360	-0.665182
H51	H	-0.193756	1.353049	-0.146086
H52	H	0.141414	0.601070	0.022973
H53	H	0.006141	1.100231	-0.412204
Br54	Br	-0.113900	0.980522	-0.105874
Br55	Br	0.264066	1.440090	-0.415093
Br56	Br	-0.366804	1.637073	-0.176762
Br57	Br	0.295837	1.482078	-0.900480
Br58	Br	-0.615335	1.560617	-0.168478
H59	H	0.129366	0.940066	-0.297380
Br60	Br	0.117179	0.792465	-0.448012
H61	H	-0.270823	1.442224	-0.155711
Br62	Br	-0.686104	1.124087	-0.121567
Br63	Br	0.153589	0.748685	0.173613
H64	H	-0.510912	1.005274	-0.108568
Br65	Br	-0.362445	0.904077	-0.097665
Br66	Br	0.313896	1.505811	-0.609198
Br67	Br	0.113409	0.535079	-0.420234
Br68	Br	0.006710	1.101053	-0.859270
