data_functionalizedCrystal
_audit_creation_method	'MofGen! by Chris Wilmer'
_symmetry_space_group_name_H-M	'P1'
_symmetry_Int_Tables_number	1
_symmetry_cell_setting	triclinic
loop_
_symmetry_equiv_pos_as_xyz
  x,y,z
_cell_length_a	23.096457
_cell_length_b	14.395555
_cell_length_c	14.395555
_cell_angle_alpha	90.002465
_cell_angle_beta	60.000080
_cell_angle_gamma	60.000592
loop_
_atom_site_label
_atom_site_type_symbol
_atom_site_fract_x
_atom_site_fract_y
_atom_site_fract_z
Zr1	Zr	0.633707	-0.121818	0.894936
O2	O	0.754502	-0.270148	0.746605
O3	O	0.512919	-0.076352	0.940404
O4	O	0.633710	-0.270146	0.940402
O5	O	0.633706	0.076520	0.746612
O6	O	0.633706	-0.270138	1.093276
O7	O	0.633710	-0.076354	0.746607
O8	O	0.417632	0.076523	1.093279
O9	O	0.849780	-0.270141	0.746609
O10	O	0.562596	-0.056949	1.073888
O11	O	0.562596	0.057133	0.959803
O12	O	0.704812	-0.171034	0.959801
O13	O	0.704812	-0.056951	0.845717
Zr14	Zr	0.633694	0.122012	1.138761
Zr15	Zr	0.633701	-0.121805	1.138752
Zr16	Zr	0.633701	0.121999	0.894944
Zr17	Zr	0.785665	-0.121807	0.894942
Zr18	Zr	0.481736	0.122001	1.138755
O19	O	0.754482	0.076546	1.093293
O20	O	0.754492	-0.270129	1.093281
O21	O	0.754492	0.076528	0.746617
O22	O	0.512900	0.270342	1.287092
O23	O	0.512909	-0.076334	1.287079
O24	O	0.512909	0.270323	0.940416
O25	O	0.633695	-0.076326	1.287084
O26	O	0.633691	0.270340	1.093295
O27	O	0.633695	0.270332	0.940421
O28	O	0.633691	0.076548	1.287090
O29	O	0.849774	-0.270131	0.940411
O30	O	0.417627	0.270325	1.093286
O31	O	0.417622	0.270335	1.287088
O32	O	0.417627	0.076534	1.287081
O33	O	0.849774	-0.076340	0.746616
O34	O	0.849769	-0.076329	0.940417
O35	O	0.562589	0.171228	1.073895
O36	O	0.562589	0.057145	1.187980
O37	O	0.704805	-0.056939	1.073893
O38	O	0.704805	0.057143	0.959809
C39	C	0.443625	0.000084	1.016841
C40	C	0.379115	0.000080	1.016838
C41	C	0.633709	0.000081	0.711871
C42	C	0.633712	0.000075	0.608364
C43	C	0.633692	0.305074	1.016859
C44	C	0.633689	0.408581	1.016863
C45	C	0.348814	-0.059474	1.076381
C46	C	0.288192	-0.059465	1.076392
C47	C	0.257884	0.000083	1.016838
C48	C	0.288189	0.059650	0.957292
C49	C	0.348805	0.059648	0.957292
N50	N	0.195492	-0.008180	0.919921
N51	N	0.137911	-0.008185	0.919923
C52	C	0.075253	0.000093	1.016837
N53	N	0.072357	0.008354	1.113746
N54	N	0.129946	0.008353	1.113742
C55	C	0.192157	0.000092	1.016832
C56	C	-0.020783	-0.059453	1.076397
C57	C	-0.081410	-0.059436	1.076412
C58	C	-0.081405	0.059671	0.957301
C59	C	-0.020785	0.059662	0.957298
C60	C	0.009525	0.000093	1.016843
C61	C	0.823776	0.000110	1.016856
C62	C	0.888286	0.000114	1.016859
C63	C	0.633709	-0.304880	1.016838
C64	C	0.633712	-0.408387	1.016834
C65	C	0.556147	0.531374	1.079063
C66	C	0.594908	0.562207	1.124146
C67	C	0.594931	0.562171	0.971802
C68	C	0.672451	0.438050	1.062009
C69	C	0.672462	0.438018	0.909605
C70	C	0.711281	0.468778	0.954662
C71	C	0.711255	-0.062119	0.485571
C72	C	0.672493	-0.107198	0.454732
C73	C	0.672470	0.045146	0.454780
C74	C	0.594950	-0.045067	0.578889
C75	C	0.594939	0.107337	0.578934
C76	C	0.556120	0.062285	0.548169
C77	C	0.633692	0.000113	1.321826
C78	C	0.633689	0.000119	1.425332
C79	C	0.443616	0.000100	1.321818
C80	C	0.379104	0.000101	1.425322
C81	C	0.443616	0.305061	1.016851
C82	C	0.379104	0.408564	1.016852
C83	C	0.443608	0.305078	1.321829
C84	C	0.379092	0.408585	1.425336
C85	C	0.823793	-0.304884	0.711868
C86	C	0.888309	-0.408391	0.608361
C87	C	0.823785	0.000094	0.711879
C88	C	0.888297	0.000093	0.608375
C89	C	0.823785	-0.304867	1.016845
C90	C	0.888297	-0.408370	1.016844
C91	C	0.348811	-0.059464	1.414373
C92	C	0.288203	-0.059486	1.511617
C93	C	0.257884	0.000065	1.619808
C94	C	0.288183	0.059633	1.630754
C95	C	0.348794	0.059647	1.533512
C96	C	0.348804	0.516736	1.076408
C97	C	0.288196	0.613996	1.076404
C98	C	0.257884	0.603082	1.016851
C99	C	0.288190	0.494899	0.957289
C100	C	0.348801	0.397641	0.957286
C101	C	0.348795	0.397644	1.533505
C102	C	0.288184	0.494891	1.630771
C103	C	0.257867	0.603078	1.619865
C104	C	0.288171	0.614018	1.511684
C105	C	0.348785	0.516772	1.414421
C106	C	0.918614	-0.397450	0.500191
C107	C	0.979243	-0.494697	0.402926
C108	C	1.009563	-0.602884	0.413832
C109	C	0.979256	-0.613824	0.522012
C110	C	0.918632	-0.516578	0.619276
C111	C	0.918596	0.059648	0.619323
C112	C	0.979221	0.059643	0.522080
C113	C	1.009542	0.000088	0.413889
C114	C	0.979241	-0.059475	0.402943
C115	C	0.918621	-0.059476	0.500185
C116	C	0.918590	-0.397419	1.076409
C117	C	0.979199	-0.494661	1.076430
C118	C	1.009518	-0.602852	1.016880
C119	C	0.979219	-0.613800	0.957313
C120	C	0.918607	-0.516560	0.957299
H121	H	0.373489	-0.107975	1.124870
F122	F	0.255952	0.729122	1.139805
H123	H	1.058872	-0.682023	1.016900
F124	F	1.011485	-0.483031	0.287803
H125	H	0.893953	-0.107970	0.491255
F126	F	0.255930	-0.122843	1.139779
F127	F	0.797052	0.435255	0.885913
F128	F	0.715264	0.368072	0.791085
H129	H	0.776824	-0.114795	0.460128
H130	H	0.208531	0.682285	1.016863
F131	F	0.255920	0.483301	0.893913
F132	F	-0.113657	0.123047	0.893918
F133	F	1.011437	-0.482985	1.139826
F134	F	0.552163	-0.095027	0.648613
H135	H	0.263488	0.108117	1.718856
F136	F	0.715330	-0.225738	0.384776
F137	F	1.074085	-0.706374	0.310305
H138	H	1.003950	-0.701921	0.530879
F139	F	0.381023	0.123056	1.545181
H140	H	0.893930	-0.309367	0.491289
F141	F	0.011466	0.123045	0.893920
H142	H	0.373462	0.309566	0.908793
H143	H	0.003894	-0.107954	1.124887
H144	H	0.705256	0.083246	0.401277
H145	H	1.003914	-0.701903	0.908829
F146	F	0.886339	0.123036	0.734459
H147	H	0.893958	-0.525500	0.707349
F148	F	0.381051	0.528377	1.139800
F149	F	0.381053	0.282512	1.545138
F150	F	0.381070	-0.122855	1.299237
H151	H	1.058903	0.000098	0.334717
H152	H	1.003882	0.108151	0.531015
H153	H	0.893950	-0.525492	0.908790
H154	H	0.263541	-0.107993	1.502682
H155	H	0.373445	0.525696	1.326348
H156	H	0.263517	0.485964	1.718847
H157	H	0.208511	0.682253	1.699072
H158	H	0.263478	0.702117	1.502821
F159	F	0.552079	0.632106	0.922003
F160	F	1.011517	-0.122850	0.287788
H161	H	0.490577	0.556814	1.131737
F162	F	0.470368	0.130985	0.581618
H163	H	0.562134	0.615720	1.214842
F164	F	0.886333	-0.282283	1.139796
H165	H	0.263509	0.108135	0.908804
F166	F	-0.113656	-0.122828	1.139786
F167	F	0.381054	0.123037	0.893916
F168	F	0.715253	0.368308	1.111944
H169	H	0.208530	0.000045	1.698980
H170	H	0.562192	0.198010	0.632450
