data_functionalizedCrystal
_audit_creation_method	'MofGen! by Chris Wilmer'
_symmetry_space_group_name_H-M	'P1'
_symmetry_Int_Tables_number	1
_symmetry_cell_setting	triclinic
loop_
_symmetry_equiv_pos_as_xyz
  x,y,z
_cell_length_a	16.974800
_cell_length_b	19.188924
_cell_length_c	15.455313
_cell_angle_alpha	92.653849
_cell_angle_beta	90.973911
_cell_angle_gamma	83.266364
loop_
_atom_site_label
_atom_site_type_symbol
_atom_site_fract_x
_atom_site_fract_y
_atom_site_fract_z
O1	O	1.048765	0.089003	0.001513
O2	O	0.819296	0.099665	-0.014603
O3	O	0.940655	-0.007291	-0.006070
O4	O	0.927406	0.195959	-0.007021
O5	O	0.933715	-0.001200	0.137704
O6	O	0.812356	0.105756	0.129171
O7	O	1.041826	0.095094	0.145287
Cu8	Cu	0.926457	0.100981	0.150357
Cu9	Cu	0.934664	0.093778	-0.019673
O10	O	0.920466	0.202050	0.136754
C11	C	0.786468	0.102194	0.055222
C12	C	0.698992	0.100644	0.049079
C13	C	0.654117	0.103235	0.124566
C14	C	0.571926	0.101768	0.118796
C15	C	0.534610	0.097716	0.037538
C16	C	0.579491	0.095123	-0.037955
C17	C	0.661681	0.096585	-0.032184
C18	C	0.289202	0.092983	0.011876
C19	C	0.207004	0.091524	0.006111
C20	C	0.199445	0.098168	0.162862
C21	C	0.281638	0.099634	0.168625
C22	C	0.326512	0.097037	0.093133
N23	N	0.450596	0.096219	0.031639
N24	N	0.410524	0.098529	0.099033
C25	C	0.936757	-0.030258	0.065788
C26	C	0.935471	-0.107769	0.065700
C27	C	0.938655	-0.147491	-0.012713
C28	C	0.937436	-0.220319	-0.012806
C29	C	0.933050	-0.253425	0.065521
C30	C	0.929862	-0.213693	0.143945
C31	C	0.931073	-0.140865	0.144034
N32	N	0.973178	-0.370417	0.126866
N33	N	0.972029	-0.439601	0.126776
C34	C	0.929400	-0.472852	0.065257
N35	N	0.887973	-0.434307	0.003819
N36	N	0.889125	-0.365117	0.003907
C37	C	0.931736	-0.332395	0.065433
C38	C	0.931261	-0.591543	-0.013262
C39	C	0.930038	-0.664372	-0.013352
C40	C	0.922472	-0.657746	0.143402
C41	C	0.923687	-0.584917	0.143488
C42	C	0.928086	-0.551820	0.065154
C43	C	1.074653	0.092565	0.075460
C44	C	1.162130	0.094114	0.081598
C45	C	0.924365	0.225017	0.064894
C46	C	0.925650	0.302527	0.064976
N47	N	0.920691	0.106047	0.269947
N48	N	0.940437	0.088706	-0.139262
C49	C	0.972266	0.060625	0.318968
C50	C	0.967912	0.064463	0.409469
C51	C	0.911986	0.113726	0.450949
C52	C	0.860405	0.159150	0.401921
C53	C	0.864756	0.155308	0.311421
C54	C	0.893207	0.130289	0.721210
C55	C	0.888862	0.134128	0.811717
C56	C	0.996368	0.039440	0.819258
C57	C	1.000717	0.035605	0.728756
C58	C	0.949134	0.081027	0.679737
N59	N	0.907536	0.117652	0.543456
N60	N	0.953580	0.077098	0.587231
H61	H	0.684493	0.106541	0.190735
O62	O	0.935682	-0.559381	-0.089325
C63	C	1.009714	-0.488777	-0.175378
C64	C	1.004803	-0.525171	-0.089205
H65	H	1.065586	-0.461097	-0.175303
H66	H	1.011833	-0.529666	-0.231461
H67	H	0.955319	-0.448583	-0.183142
H68	H	1.059185	-0.565361	-0.081358
H69	H	1.002646	-0.484241	-0.033166
H70	H	0.549102	0.091818	-0.104116
H71	H	0.698218	0.094476	-0.093654
H72	H	1.009908	0.027476	0.449382
H73	H	0.928477	-0.108523	0.207890
H74	H	0.942234	-0.120548	-0.076500
H75	H	0.940023	-0.252667	-0.076662
O76	O	0.925497	-0.245915	0.219970
C77	C	0.851455	-0.316480	0.306066
C78	C	0.856317	-0.280040	0.219918
H79	H	0.795520	-0.344067	0.306059
H80	H	0.905797	-0.356735	0.313830
H81	H	0.849427	-0.275566	0.362115
H82	H	0.858321	-0.320902	0.163818
H83	H	0.801977	-0.239772	0.212229
H84	H	0.176624	0.088226	-0.060063
O85	O	1.055065	-0.012313	0.688602
C86	C	1.161267	-0.105799	0.705638
C87	C	1.099741	-0.051578	0.751222
H88	H	1.197416	-0.137549	0.756247
H89	H	1.129446	-0.142608	0.660931
H90	H	1.202528	-0.077342	0.665981
H91	H	1.058464	-0.079976	0.790925
H92	H	1.131615	-0.014771	0.795878
O93	O	0.920638	-0.546437	0.219741
C94	C	0.912967	-0.547548	0.375204
C95	C	0.916436	-0.591212	0.288908
H96	H	0.909552	-0.583728	0.431146
H97	H	0.968493	-0.519590	0.383093
H98	H	0.858226	-0.506985	0.375249
H99	H	0.971142	-0.631811	0.288802
H100	H	0.860873	-0.619121	0.281052
H101	H	0.822757	0.192295	0.271509
H102	H	1.038364	0.002459	0.859178
H103	H	0.932626	-0.696713	-0.077208
O104	O	0.528447	0.104325	0.192210
C105	C	0.529629	0.111036	0.348294
C106	C	0.578959	0.108161	0.265219
H107	H	0.570449	0.114124	0.407343
H108	H	0.483591	0.159348	0.349044
H109	H	0.498326	0.061710	0.349993
H110	H	0.610313	0.157453	0.263466
H111	H	0.624951	0.059818	0.264502
O112	O	0.834454	0.181998	0.851871
C113	C	0.728294	0.275524	0.834847
C114	C	0.789858	0.221339	0.789261
H115	H	0.692233	0.307355	0.784248
H116	H	0.686955	0.247104	0.874450
H117	H	0.760162	0.312260	0.879606
H118	H	0.758057	0.184588	0.744459
H119	H	0.831194	0.249804	0.749713
H120	H	0.918895	-0.684699	0.207177
H121	H	0.325729	0.090866	-0.049596
O122	O	1.026617	0.012709	0.278814
C123	C	1.132817	-0.080778	0.295859
C124	C	1.071290	-0.026554	0.341439
H125	H	1.168962	-0.112527	0.346471
H126	H	1.100995	-0.117588	0.251152
H127	H	1.174079	-0.052323	0.256203
H128	H	1.030010	-0.054950	0.381141
H129	H	1.103163	0.010253	0.386094
H130	H	0.312015	0.102930	0.234794
H131	H	0.851207	0.167274	0.681305
O132	O	0.806041	0.206912	0.442307
C133	C	0.693433	0.225841	0.536909
C134	C	0.754963	0.171675	0.491241
H135	H	0.652111	0.197372	0.576469
H136	H	0.725250	0.262596	0.581697
H137	H	0.657352	0.257659	0.486313
H138	H	0.791063	0.139808	0.541777
H139	H	0.723098	0.134967	0.446438
O140	O	0.155969	0.100719	0.236276
C141	C	0.157154	0.107411	0.392361
C142	C	0.206482	0.104546	0.309284
H143	H	0.197976	0.110491	0.451409
H144	H	0.111116	0.155722	0.393120
H145	H	0.125852	0.058084	0.394050
H146	H	0.237836	0.153838	0.307540
H147	H	0.252474	0.056203	0.308558
