data_functionalizedCrystal
_audit_creation_method	'MofGen! by Chris Wilmer'
_symmetry_space_group_name_H-M	'P1'
_symmetry_Int_Tables_number	1
_symmetry_cell_setting	triclinic
loop_
_symmetry_equiv_pos_as_xyz
  x,y,z
_cell_length_a	18.215407
_cell_length_b	12.645330
_cell_length_c	18.215399
_cell_angle_alpha	90.025165
_cell_angle_beta	90.019833
_cell_angle_gamma	90.013094
loop_
_atom_site_label
_atom_site_type_symbol
_atom_site_fract_x
_atom_site_fract_y
_atom_site_fract_z
Zn1	Zn	1.125135	-0.422038	0.416130
Zn2	Zn	1.125069	-0.599320	0.293070
Zn3	Zn	1.002067	-0.422072	0.293077
Zn4	Zn	1.002059	-0.599261	0.416095
O5	O	1.063583	-0.510673	0.354593
O6	O	1.228110	-0.445565	0.399818
O7	O	1.108729	-0.575847	0.190087
O8	O	1.018423	-0.273720	0.309419
O9	O	1.228062	-0.575813	0.309406
O10	O	1.108840	-0.273695	0.399825
O11	O	1.018360	-0.445624	0.190092
O12	O	0.899082	-0.445566	0.309384
O13	O	1.018410	-0.575713	0.519084
O14	O	0.899076	-0.575746	0.399765
O15	O	1.108832	-0.445507	0.519110
O16	O	1.108721	-0.747659	0.309371
O17	O	1.018346	-0.747616	0.399757
C18	C	0.872376	-0.510654	0.354572
C19	C	0.790577	-0.510672	0.354580
C20	C	0.602400	-0.578563	0.401582
C21	C	0.525541	-0.578567	0.401591
C22	C	0.525517	-0.442801	0.307620
C23	C	0.602375	-0.442793	0.307615
C24	C	0.640814	-0.510680	0.354595
C25	C	0.487098	-0.510692	0.354609
C26	C	0.403764	-0.510695	0.354619
C27	C	0.724153	-0.510676	0.354587
C28	C	1.063546	-0.786102	0.354576
C29	C	1.063597	-0.903932	0.354593
C30	C	1.120361	-1.071479	0.297616
C31	C	1.120546	-0.948919	0.297755
C32	C	1.084628	-0.948318	0.432167
C33	C	1.085079	-1.070916	0.431865
C34	C	0.985781	-1.071260	0.334760
C35	C	0.986153	-0.948655	0.333020
C36	C	1.255535	-0.510692	0.354615
C37	C	1.337334	-0.510700	0.354624
C38	C	1.063627	-0.510599	0.546546
C39	C	1.063646	-0.510568	0.628345
C40	C	1.063640	-0.234167	0.354627
C41	C	1.063664	-0.116337	0.354641
C42	C	1.063580	-0.510669	0.163387
C43	C	1.063704	-0.510401	0.081588
C44	C	1.110747	-0.442707	0.816554
C45	C	1.110755	-0.442676	0.893413
C46	C	1.016598	-0.578266	0.893374
C47	C	1.016586	-0.578290	0.816517
C48	C	1.063665	-0.510513	0.778109
C49	C	1.063685	-0.510457	0.931825
C50	C	1.063695	-0.510424	1.015158
C51	C	1.063655	-0.510544	0.694770
H52	H	0.633695	-0.633839	0.439838
F53	F	1.033440	-1.109700	0.489287
F54	F	0.966469	-0.650457	0.775598
H55	H	0.494268	-0.633842	0.439854
H56	H	0.494211	-0.387531	0.269369
F57	F	0.643260	-0.370533	0.257606
F58	F	1.160849	-0.370570	0.775679
H59	H	1.107388	-0.918914	0.240235
H60	H	0.978271	-0.633450	0.924656
F61	F	1.160871	-0.370515	0.934325
H62	H	1.107367	-1.101030	0.239927
F63	F	1.195357	-1.111641	0.314610
F64	F	1.195944	-0.910476	0.314946
F65	F	0.965422	-0.910747	0.258404
H66	H	1.142007	-1.099429	0.448705
H67	H	0.943537	-1.100270	0.376294
H68	H	1.044590	-0.919174	0.475794
H69	H	1.140914	-0.917530	0.449288
F70	F	0.960781	-1.111788	0.262111
H71	H	0.941631	-0.918043	0.371509
