data_functionalizedCrystal
_audit_creation_method	'MofGen! by Chris Wilmer'
_symmetry_space_group_name_H-M	'P1'
_symmetry_Int_Tables_number	1
_symmetry_cell_setting	triclinic
loop_
_symmetry_equiv_pos_as_xyz
  x,y,z
_cell_length_a	12.759395
_cell_length_b	16.120484
_cell_length_c	12.759387
_cell_angle_alpha	87.136424
_cell_angle_beta	90.019431
_cell_angle_gamma	92.925231
loop_
_atom_site_label
_atom_site_type_symbol
_atom_site_fract_x
_atom_site_fract_y
_atom_site_fract_z
Zn1	Zn	1.584985	-0.331865	0.615139
Zn2	Zn	1.575933	-0.471302	0.448352
Zn3	Zn	1.409280	-0.331907	0.439482
Zn4	Zn	1.400337	-0.471238	0.623990
O5	O	1.492634	-0.401578	0.531741
O6	O	1.730804	-0.350371	0.593022
O7	O	1.553781	-0.452854	0.300157
O8	O	1.440119	-0.215236	0.455367
O9	O	1.724154	-0.452814	0.470485
O10	O	1.569208	-0.215206	0.584421
O11	O	1.431342	-0.350442	0.293640
O12	O	1.261073	-0.350380	0.463949
O13	O	1.424876	-0.452706	0.769835
O14	O	1.254503	-0.452746	0.599507
O15	O	1.560536	-0.350310	0.763332
O16	O	1.545108	-0.587958	0.479067
O17	O	1.416099	-0.587912	0.608108
C18	C	1.219667	-0.401561	0.531727
C19	C	1.102890	-0.401574	0.531747
C20	C	1.109784	-0.295073	0.659574
C21	C	1.058370	-0.241832	0.723496
C22	C	0.948648	-0.241847	0.723510
C23	C	0.890337	-0.295106	0.659593
C24	C	0.941751	-0.348347	0.595670
C25	C	1.051476	-0.348328	0.595665
C26	C	0.934856	-0.454843	0.467839
C27	C	1.044578	-0.454834	0.467829
C28	C	0.876545	-0.508103	0.403922
C29	C	0.927959	-0.561349	0.340003
C30	C	1.037688	-0.561333	0.339993
C31	C	1.095992	-0.508075	0.403907
C32	C	1.478679	-0.618185	0.545533
C33	C	1.472806	-0.710851	0.551469
C34	C	1.462088	-0.880511	0.562328
C35	C	1.523367	-0.921804	0.501171
C36	C	1.517404	-1.016209	0.507213
C37	C	1.468050	-0.786098	0.556287
C38	C	1.766666	-0.401595	0.531756
C39	C	1.883442	-0.401602	0.531762
C40	C	1.492718	-0.401496	0.805769
C41	C	1.492754	-0.401461	0.922544
C42	C	1.506671	-0.184125	0.517917
C43	C	1.512653	-0.091459	0.512027
C44	C	1.492614	-0.401599	0.258775
C45	C	1.492796	-0.401399	0.141986
C46	C	1.634026	-0.294843	0.915793
C47	C	1.704677	-0.241521	0.967277
C48	C	1.704705	-0.241491	1.076997
C49	C	1.634071	-0.294786	1.135235
C50	C	1.563420	-0.348108	1.083750
C51	C	1.563402	-0.348134	0.974028
C52	C	1.422145	-0.454721	1.090501
C53	C	1.422121	-0.454757	0.980782
C54	C	1.351512	-0.508016	1.148739
C55	C	1.280864	-0.561343	1.097255
C56	C	1.280840	-0.561372	0.987529
C57	C	1.351470	-0.508079	0.929298
H58	H	0.906787	-0.198489	0.775555
H59	H	1.634020	-0.294870	0.826453
H60	H	1.762184	-0.198128	0.919847
H61	H	0.800995	-0.295107	0.659601
H62	H	1.185335	-0.508052	0.403899
H63	H	1.405150	-0.916058	0.619217
O64	O	1.115056	-0.190220	0.785704
C65	C	1.239757	-0.179135	0.926816
C66	C	1.175606	-0.237680	0.856457
H67	H	1.288745	-0.217482	0.984021
H68	H	1.184211	-0.141099	0.972583
H69	H	1.293865	-0.135469	0.875870
H70	H	1.121494	-0.281396	0.907324
H71	H	1.231213	-0.275657	0.810682
O72	O	1.591202	-0.879273	0.433312
C73	C	1.659130	-0.745032	0.365412
C74	C	1.582254	-0.793099	0.442292
H75	H	1.651937	-0.675352	0.372662
H76	H	1.639654	-0.762103	0.281731
H77	H	1.742774	-0.762066	0.384980
H78	H	1.498583	-0.776091	0.422821
H79	H	1.601820	-0.776024	0.525951
H80	H	0.880473	-0.604705	0.287962
O81	O	1.773433	-0.189668	1.126850
C82	C	1.913515	-0.083883	1.108585
C83	C	1.835755	-0.142542	1.051994
H84	H	1.963908	-0.045754	1.048089
H85	H	1.966057	-0.122115	1.162360
H86	H	1.868087	-0.040310	1.157210
H87	H	1.881098	-0.186127	1.003313
H88	H	1.783214	-0.104258	0.998282
H89	H	1.351535	-0.507984	1.238079
H90	H	1.634091	-0.294749	1.224574
H91	H	1.351461	-0.508100	0.839958
H92	H	1.223354	-0.604728	1.144681
O93	O	1.212177	-0.613255	0.937688
C94	C	1.072022	-0.718978	0.955977
C95	C	1.149738	-0.660271	1.012549
H96	H	1.021505	-0.756993	1.016475
H97	H	1.117381	-0.762648	0.907426
H98	H	1.019594	-0.680704	0.902131
H99	H	1.202185	-0.698478	1.066447
H100	H	1.104314	-0.616599	1.061033
H101	H	1.199127	-0.295052	0.659564
H102	H	1.079542	-0.604685	0.287935
H103	H	0.787203	-0.508109	0.403935
