data_functionalizedCrystal
_audit_creation_method	'MofGen! by Chris Wilmer'
_symmetry_space_group_name_H-M	'P1'
_symmetry_Int_Tables_number	1
_symmetry_cell_setting	triclinic
loop_
_symmetry_equiv_pos_as_xyz
  x,y,z
_cell_length_a	18.101398
_cell_length_b	18.101397
_cell_length_c	12.759393
_cell_angle_alpha	89.962348
_cell_angle_beta	89.982970
_cell_angle_gamma	90.018618
loop_
_atom_site_label
_atom_site_type_symbol
_atom_site_fract_x
_atom_site_fract_y
_atom_site_fract_z
Zn1	Zn	1.132195	-0.294822	-0.593896
Zn2	Zn	1.132108	-0.418684	-0.418197
Zn3	Zn	1.008348	-0.294857	-0.418240
Zn4	Zn	1.008328	-0.418623	-0.593843
O5	O	1.070245	-0.356747	-0.506044
O6	O	1.235817	-0.311264	-0.570593
O7	O	1.115664	-0.402298	-0.271182
O8	O	1.024822	-0.191219	-0.441581
O9	O	1.235753	-0.402265	-0.441508
O10	O	1.115812	-0.191194	-0.570634
O11	O	1.024738	-0.311323	-0.271213
O12	O	0.904713	-0.311263	-0.441530
O13	O	1.024787	-0.402160	-0.740871
O14	O	0.904698	-0.402194	-0.570545
O15	O	1.115792	-0.311205	-0.740910
O16	O	1.115644	-0.522309	-0.441457
O17	O	1.024703	-0.522264	-0.570504
C18	C	0.877835	-0.356726	-0.506037
C19	C	0.795520	-0.356735	-0.506059
C20	C	0.644812	-0.356749	-0.506057
C21	C	0.613474	-0.414048	-0.587104
C22	C	0.527855	-0.414280	-0.586864
C23	C	0.496429	-0.356763	-0.506057
C24	C	0.527482	-0.377598	-0.395198
C25	C	0.613127	-0.378006	-0.395667
C26	C	0.613277	-0.278472	-0.534901
C27	C	0.527627	-0.278901	-0.537342
C28	C	0.412570	-0.356769	-0.506050
C29	C	0.728671	-0.356744	-0.506056
C30	C	1.070182	-0.549157	-0.505993
C31	C	1.070222	-0.631471	-0.506006
C32	C	1.070317	-0.930562	-0.506102
C33	C	1.127375	-0.899234	-0.424692
C34	C	1.127573	-0.813616	-0.424903
C35	C	1.070270	-0.782180	-0.506054
C36	C	1.091430	-0.813178	-0.616794
C37	C	1.091871	-0.898823	-0.616350
C38	C	0.991947	-0.899071	-0.477731
C39	C	0.992334	-0.813422	-0.475259
C40	C	1.070242	-0.698320	-0.506033
C41	C	1.070346	-1.014422	-0.506130
C42	C	1.263407	-0.356768	-0.506052
C43	C	1.345721	-0.356776	-0.506055
C44	C	1.070297	-0.356672	-0.780077
C45	C	1.070319	-0.356640	-0.896854
C46	C	1.070329	-0.163585	-0.506118
C47	C	1.070365	-0.081270	-0.506150
C48	C	1.117712	-0.309275	-0.951738
C49	C	1.117729	-0.309248	-1.061462
C50	C	1.022959	-0.403958	-1.061409
C51	C	1.022939	-0.403980	-0.951687
C52	C	1.172429	-0.254597	-0.951770
C53	C	1.172446	-0.254570	-1.061494
C54	C	1.070236	-0.356767	-0.233077
C55	C	1.070357	-0.356591	-0.116300
H56	H	0.634094	-0.401200	-0.669546
H57	H	1.157090	-0.197244	-0.922023
H58	H	0.984382	-0.442499	-1.106067
H59	H	1.226894	-0.275160	-0.917729
C60	C	1.206000	-0.785860	-0.450255
N61	N	1.265075	-0.764954	-0.469350
C62	C	1.038174	-0.926817	-0.701099
N63	N	0.997735	-0.947898	-0.764938
H64	H	1.151930	-0.200076	-1.095551
H65	H	1.229802	-0.269934	-1.091268
H66	H	0.506861	-0.401281	-0.669050
H67	H	0.634972	-0.471722	-0.568199
H68	H	1.185109	-0.920703	-0.443248
H69	H	0.507343	-0.472287	-0.567727
C70	C	1.109661	-0.785305	-0.313981
N71	N	1.096163	-0.763985	-0.230432
C72	C	0.498724	-0.218178	-0.463479
N73	N	0.476952	-0.172443	-0.407839
C74	C	0.970772	-0.786053	-0.365168
N75	N	0.954533	-0.765431	-0.282249
H76	H	0.633079	-0.435216	-0.371289
C77	C	0.934514	-0.926444	-0.557830
N78	N	0.891260	-0.947065	-0.618164
H79	H	0.633544	-0.235785	-0.475876
H80	H	0.633857	-0.338056	-0.333208
C81	C	0.499979	-0.322951	-0.311373
N82	N	0.479261	-0.281790	-0.248237
H83	H	0.984344	-0.442547	-0.907004
H84	H	1.149156	-0.918742	-0.640384
H85	H	0.634902	-0.259438	-0.614377
C86	C	0.498477	-0.454043	-0.361700
N87	N	0.476632	-0.511623	-0.336476
C88	C	1.037008	-0.785661	-0.700946
N89	N	0.996017	-0.764932	-0.764329
H90	H	0.507334	-0.263183	-0.618929
H91	H	0.947535	-0.792030	-0.530212
C92	C	1.109714	-0.927139	-0.313428
N93	N	1.096409	-0.948160	-0.229621
H94	H	1.148073	-0.791670	-0.641234
C95	C	0.965946	-0.928335	-0.370525
N96	N	0.946370	-0.950377	-0.289774
