data_functionalizedCrystal
_audit_creation_method	'MofGen! by Chris Wilmer'
_symmetry_space_group_name_H-M	'P1'
_symmetry_Int_Tables_number	1
_symmetry_cell_setting	triclinic
loop_
_symmetry_equiv_pos_as_xyz
  x,y,z
_cell_length_a	10.723024
_cell_length_b	11.792241
_cell_length_c	9.798715
_cell_angle_alpha	89.996704
_cell_angle_beta	89.996609
_cell_angle_gamma	84.330643
loop_
_atom_site_label
_atom_site_type_symbol
_atom_site_fract_x
_atom_site_fract_y
_atom_site_fract_z
O1	O	1.656766	0.159192	-0.113483
O2	O	1.293573	0.174430	-0.113488
O3	O	1.483983	0.001660	-0.113475
O4	O	1.466356	0.331962	-0.113495
O5	O	1.483969	0.001659	0.113507
O6	O	1.293559	0.174430	0.113495
O7	O	1.656752	0.159192	0.113499
Zn8	Zn	1.475153	0.166811	0.149535
Zn9	Zn	1.475172	0.166811	-0.149523
O10	O	1.466342	0.331962	0.113487
C11	C	1.247070	0.173321	0.000003
C12	C	1.108524	0.170003	0.000001
C13	C	0.917040	0.066945	0.000005
C14	C	1.060234	0.070372	0.000007
C15	C	1.482869	-0.040634	0.000015
C16	C	1.479555	-0.166655	0.000014
C17	C	1.473461	-0.397380	-0.000009
C18	C	1.476847	-0.268988	0.000003
C19	C	1.703256	0.160301	0.000006
C20	C	1.841801	0.163619	-0.000002
C21	C	1.467456	0.374255	-0.000006
C22	C	1.470770	0.500276	-0.000014
N23	N	1.475150	0.166809	0.353635
N24	N	1.475186	0.166803	-0.353623
C25	C	1.555098	0.093948	0.421417
C26	C	1.555118	0.093944	0.578580
H27	H	1.043880	0.252767	-0.000010
C28	C	0.860863	-0.048301	0.000015
C29	C	0.890347	-0.133109	-0.117842
C30	C	0.834176	-0.248360	-0.117830
C31	C	0.748522	-0.278804	0.000040
C32	C	0.719035	-0.193995	0.117906
C33	C	0.775205	-0.078743	0.117893
H34	H	0.953756	-0.110574	-0.205104
H35	H	0.856005	-0.311142	-0.205083
H36	H	0.706942	-0.364120	0.000049
H37	H	0.655625	-0.216530	0.205168
H38	H	0.753376	-0.015962	0.205146
H39	H	0.883398	0.248921	0.000002
H40	H	1.623527	0.031567	0.363099
H41	H	1.623571	0.031569	0.636869
C42	C	1.382708	0.251082	0.567651
C43	C	1.287553	0.206134	0.468584
C44	C	1.195076	0.290413	0.389846
C45	C	1.197753	0.419641	0.410176
C46	C	1.292911	0.464595	0.509248
C47	C	1.385388	0.380316	0.587985
H48	H	1.285569	0.110467	0.453531
H49	H	1.124634	0.257134	0.316507
H50	H	1.129296	0.482029	0.351890
H51	H	1.294896	0.560263	0.524301
H52	H	1.455831	0.413595	0.661325
C53	C	1.147563	-0.041439	0.000014
C54	C	1.240972	-0.067599	0.117882
C55	C	1.328305	-0.179414	0.117890
C56	C	1.322229	-0.265070	0.000029
C57	C	1.228817	-0.238912	-0.117848
C58	C	1.141484	-0.127097	-0.117855
H59	H	1.245473	-0.004190	0.205138
H60	H	1.397455	-0.198777	0.205151
H61	H	1.386878	-0.347842	0.000035
H62	H	1.224316	-0.302321	-0.205103
H63	H	1.072334	-0.107734	-0.205116
H64	H	1.406712	0.229182	0.411955
