data_functionalizedCrystal
_audit_creation_method	'MofGen! by Chris Wilmer'
_symmetry_space_group_name_H-M	'P1'
_symmetry_Int_Tables_number	1
_symmetry_cell_setting	triclinic
loop_
_symmetry_equiv_pos_as_xyz
  x,y,z
_cell_length_a	23.532407
_cell_length_b	23.532407
_cell_length_c	17.666332
_cell_angle_alpha	89.990114
_cell_angle_beta	89.993426
_cell_angle_gamma	82.848712
loop_
_atom_site_label
_atom_site_type_symbol
_atom_site_fract_x
_atom_site_fract_y
_atom_site_fract_z
O1	O	0.755263	0.069135	-0.062908
O2	O	1.005263	0.319135	0.187092
O3	O	1.255263	0.569135	0.437092
O4	O	1.505263	0.819135	0.687092
O5	O	0.589400	0.079138	-0.062921
O6	O	0.839400	0.329138	0.187079
O7	O	1.089400	0.579138	0.437079
O8	O	1.339400	0.829138	0.687079
O9	O	0.677333	-0.008795	-0.062900
O10	O	0.927333	0.241205	0.187100
O11	O	1.177333	0.491205	0.437100
O12	O	1.427333	0.741205	0.687100
O13	O	0.667330	0.157068	-0.062929
O14	O	0.917330	0.407068	0.187071
O15	O	1.167330	0.657068	0.437071
O16	O	1.417330	0.907068	0.687071
O17	O	0.677318	-0.008797	0.062996
O18	O	0.927318	0.241203	0.312996
O19	O	1.177318	0.491203	0.562996
O20	O	1.427318	0.741203	0.812996
O21	O	0.589385	0.079136	0.062976
O22	O	0.839385	0.329136	0.312976
O23	O	1.089385	0.579136	0.562976
O24	O	1.339385	0.829136	0.812976
O25	O	0.755248	0.069133	0.062989
O26	O	1.005248	0.319133	0.312989
O27	O	1.255248	0.569133	0.562989
O28	O	1.505248	0.819133	0.812989
Cu29	Cu	0.672315	0.074134	0.074477
Cu30	Cu	0.922315	0.324134	0.324477
Cu31	Cu	1.172315	0.574134	0.574477
Cu32	Cu	1.422315	0.824134	0.824477
Cu33	Cu	0.672333	0.074137	-0.074410
Cu34	Cu	0.922333	0.324137	0.175590
Cu35	Cu	1.172333	0.574137	0.425590
Cu36	Cu	1.422333	0.824137	0.675590
O37	O	0.667315	0.157066	0.062968
O38	O	0.917315	0.407066	0.312968
O39	O	1.167315	0.657066	0.562968
O40	O	1.417315	0.907066	0.812968
C41	C	0.568176	0.078882	0.000026
C42	C	0.818176	0.328882	0.250026
C43	C	1.068176	0.578882	0.500026
C44	C	1.318176	0.828882	0.750026
C45	C	0.504959	0.078116	0.000021
C46	C	0.754959	0.328116	0.250021
C47	C	1.004959	0.578116	0.500021
C48	C	1.254959	0.828116	0.750021
C49	C	0.238792	0.022921	0.000051
C50	C	0.488792	0.272921	0.250051
C51	C	0.738792	0.522921	0.500051
C52	C	0.988792	0.772921	0.750051
C53	C	0.298192	0.023632	0.000051
C54	C	0.548192	0.273632	0.250051
C55	C	0.798192	0.523632	0.500051
C56	C	1.048192	0.773632	0.750051
O57	O	0.334937	-0.020153	0.000085
O58	O	0.584937	0.229847	0.250085
O59	O	0.834937	0.479847	0.500085
O60	O	1.084937	0.729847	0.750085
N61	N	0.320818	0.075909	0.000037
N62	N	0.570818	0.325909	0.250037
N63	N	0.820818	0.575909	0.500037
N64	N	1.070818	0.825909	0.750037
C65	C	0.284041	0.127477	0.000031
C66	C	0.534041	0.377477	0.250031
C67	C	0.784041	0.627477	0.500031
C68	C	1.034041	0.877477	0.750031
O69	O	0.308740	0.172007	0.000019
O70	O	0.558740	0.422007	0.250019
O71	O	0.808740	0.672007	0.500019
O72	O	1.058740	0.922007	0.750019
C73	C	0.224642	0.126765	0.000037
C74	C	0.474642	0.376765	0.250037
C75	C	0.724642	0.626765	0.500037
C76	C	0.974642	0.876765	0.750037
C77	C	0.202019	0.074485	0.000043
C78	C	0.452019	0.324485	0.250043
C79	C	0.702019	0.574485	0.500043
C80	C	0.952019	0.824485	0.750043
C81	C	0.216168	-0.029354	0.000059
C82	C	0.466168	0.220646	0.250059
C83	C	0.716168	0.470646	0.500059
C84	C	0.966168	0.720646	0.750059
C85	C	0.156772	-0.030066	0.000058
C86	C	0.406772	0.219934	0.250058
C87	C	0.656772	0.469934	0.500058
C88	C	0.906772	0.719934	0.750058
C89	C	0.119999	0.021499	0.000049
C90	C	0.369999	0.271499	0.250049
C91	C	0.619999	0.521499	0.500049
C92	C	0.869999	0.771499	0.750049
C93	C	0.142623	0.073774	0.000042
C94	C	0.392623	0.323774	0.250042
C95	C	0.642623	0.573774	0.500042
C96	C	0.892623	0.823774	0.750042
C97	C	0.187865	0.178333	0.000036
C98	C	0.437865	0.428333	0.250036
C99	C	0.687865	0.678333	0.500036
C100	C	0.937865	0.928333	0.750036
C101	C	0.128463	0.177616	0.000042
C102	C	0.378463	0.427616	0.250042
C103	C	0.628463	0.677616	0.500042
C104	C	0.878463	0.927616	0.750042
C105	C	0.105840	0.125336	0.000049
C106	C	0.355840	0.375336	0.250049
C107	C	0.605840	0.625336	0.500049
C108	C	0.855840	0.875336	0.750049
C109	C	0.046454	0.124627	0.000032
C110	C	0.296454	0.374627	0.250032
C111	C	0.546454	0.624627	0.500032
C112	C	0.796454	0.874627	0.750032
N113	N	0.023828	0.072351	0.000047
N114	N	0.273828	0.322351	0.250047
N115	N	0.523828	0.572351	0.500047
N116	N	0.773828	0.822351	0.750047
C117	C	0.060600	0.020787	0.000055
C118	C	0.310600	0.270787	0.250055
C119	C	0.560600	0.520787	0.500055
C120	C	0.810600	0.770787	0.750055
C121	C	0.408783	0.128968	0.000020
C122	C	0.658783	0.378968	0.250020
C123	C	0.908783	0.628968	0.500020
C124	C	1.158783	0.878968	0.750020
C125	C	0.468181	0.129681	0.000009
C126	C	0.718181	0.379681	0.250009
C127	C	0.968181	0.629681	0.500009
C128	C	1.218181	0.879681	0.750009
C129	C	0.482328	0.025836	0.000031
C130	C	0.732328	0.275836	0.250031
C131	C	0.982328	0.525836	0.500031
C132	C	1.232328	0.775836	0.750031
C133	C	0.422929	0.025124	0.000036
C134	C	0.672929	0.275124	0.250036
C135	C	0.922929	0.525124	0.500036
C136	C	1.172929	0.775124	0.750036
C137	C	0.386157	0.076692	0.000034
C138	C	0.636157	0.326692	0.250034
C139	C	0.886157	0.576692	0.500034
C140	C	1.136157	0.826692	0.750034
C141	C	-0.064136	0.019297	0.000052
C142	C	0.185864	0.269297	0.250052
C143	C	0.435864	0.519297	0.500052
C144	C	0.685864	0.769297	0.750052
C145	C	-0.123538	0.018590	0.000048
C146	C	0.126462	0.268590	0.250048
C147	C	0.376462	0.518590	0.500048
C148	C	0.626462	0.768590	0.750048
C149	C	-0.137680	0.122435	0.000030
C150	C	0.112320	0.372435	0.250030
C151	C	0.362320	0.622435	0.500030
C152	C	0.612320	0.872435	0.750030
C153	C	-0.078284	0.123142	0.000030
C154	C	0.171716	0.373142	0.250030
C155	C	0.421716	0.623142	0.500030
C156	C	0.671716	0.873142	0.750030
C157	C	-0.041512	0.071568	0.000044
C158	C	0.208488	0.321568	0.250044
C159	C	0.458488	0.571568	0.500044
C160	C	0.708488	0.821568	0.750044
O161	O	0.009675	0.168390	0.000002
O162	O	0.259675	0.418390	0.250002
O163	O	0.509675	0.668390	0.500002
O164	O	0.759675	0.918390	0.750002
O165	O	0.035892	-0.023737	0.000076
O166	O	0.285892	0.226263	0.250076
O167	O	0.535892	0.476263	0.500076
O168	O	0.785892	0.726263	0.750076
C169	C	0.677071	-0.030012	0.000050
C170	C	0.927071	0.219988	0.250050
C171	C	1.177071	0.469988	0.500050
C172	C	1.427071	0.719988	0.750050
C173	C	0.676305	-0.093229	0.000056
C174	C	0.926305	0.156771	0.250056
C175	C	1.176305	0.406771	0.500056
C176	C	1.426305	0.656771	0.750056
C177	C	0.723538	-0.492332	0.000018
C178	C	0.973538	-0.242332	0.250018
C179	C	1.223538	0.007668	0.500018
C180	C	1.473538	0.257668	0.750018
C181	C	0.722827	-0.551733	0.000012
C182	C	0.972827	-0.301733	0.250012
C183	C	1.222827	-0.051733	0.500012
C184	C	1.472827	0.198267	0.750012
O185	O	0.766613	-0.588477	-0.000012
O186	O	1.016613	-0.338477	0.249988
O187	O	1.266613	-0.088477	0.499988
O188	O	1.516613	0.161523	0.749988
N189	N	0.670551	-0.574359	0.000008
N190	N	0.920551	-0.324359	0.250008
N191	N	1.170551	-0.074359	0.500008
N192	N	1.420551	0.175641	0.750008
C193	C	0.618982	-0.537581	0.000003
C194	C	0.868982	-0.287581	0.250003
C195	C	1.118982	-0.037581	0.500003
C196	C	1.368982	0.212419	0.750003
O197	O	0.574452	-0.562281	-0.000001
O198	O	0.824452	-0.312281	0.249999
O199	O	1.074452	-0.062281	0.499999
O200	O	1.324452	0.187719	0.749999
C201	C	0.619695	-0.478182	0.000003
C202	C	0.869695	-0.228182	0.250003
C203	C	1.119695	0.021818	0.500003
C204	C	1.369695	0.271818	0.750003
C205	C	0.671974	-0.455559	0.000015
C206	C	0.921974	-0.205559	0.250015
C207	C	1.171974	0.044441	0.500015
C208	C	1.421974	0.294441	0.750015
C209	C	0.775814	-0.469709	0.000028
C210	C	1.025814	-0.219709	0.250028
C211	C	1.275814	0.030291	0.500028
C212	C	1.525814	0.280291	0.750028
C213	C	0.776525	-0.410313	0.000035
C214	C	1.026525	-0.160313	0.250035
C215	C	1.276525	0.089687	0.500035
C216	C	1.526525	0.339687	0.750035
C217	C	0.724961	-0.373540	0.000032
C218	C	0.974961	-0.123540	0.250032
C219	C	1.224961	0.126460	0.500032
C220	C	1.474961	0.376460	0.750032
C221	C	0.672685	-0.396163	0.000022
C222	C	0.922685	-0.146163	0.250022
C223	C	1.172685	0.103837	0.500022
C224	C	1.422685	0.353837	0.750022
C225	C	0.568127	-0.441406	-0.000007
C226	C	0.818127	-0.191406	0.249993
C227	C	1.068127	0.058594	0.499993
C228	C	1.318127	0.308594	0.749993
C229	C	0.568843	-0.382003	-0.000008
C230	C	0.818843	-0.132003	0.249992
C231	C	1.068843	0.117997	0.499992
C232	C	1.318843	0.367997	0.749992
C233	C	0.621123	-0.359381	0.000004
C234	C	0.871123	-0.109381	0.250004
C235	C	1.121123	0.140619	0.500004
C236	C	1.371123	0.390619	0.750004
C237	C	0.621832	-0.299994	0.000026
C238	C	0.871832	-0.049994	0.250026
C239	C	1.121832	0.200006	0.500026
C240	C	1.371832	0.450006	0.750026
N241	N	0.674109	-0.277368	0.000029
N242	N	0.924109	-0.027368	0.250029
N243	N	1.174109	0.222632	0.500029
N244	N	1.424109	0.472632	0.750029
C245	C	0.725673	-0.314141	0.000033
C246	C	0.975673	-0.064141	0.250033
C247	C	1.225673	0.185859	0.500033
C248	C	1.475673	0.435859	0.750033
C249	C	0.617491	-0.662324	0.000001
C250	C	0.867491	-0.412324	0.250001
C251	C	1.117491	-0.162324	0.500001
C252	C	1.367491	0.087676	0.750001
C253	C	0.616778	-0.721722	0.000006
C254	C	0.866778	-0.471722	0.250006
C255	C	1.116778	-0.221722	0.500006
C256	C	1.366778	0.028278	0.750006
C257	C	0.720623	-0.735869	0.000014
C258	C	0.970623	-0.485869	0.250014
C259	C	1.220623	-0.235869	0.500014
C260	C	1.470623	0.014131	0.750014
C261	C	0.721335	-0.676470	0.000014
C262	C	0.971335	-0.426470	0.250014
C263	C	1.221335	-0.176470	0.500014
C264	C	1.471335	0.073530	0.750014
C265	C	0.669767	-0.639698	0.000004
C266	C	0.919767	-0.389698	0.250004
C267	C	1.169767	-0.139698	0.500004
C268	C	1.419767	0.110302	0.750004
C269	C	0.727163	-0.189404	0.000048
C270	C	0.977163	0.060596	0.250048
C271	C	1.227163	0.310596	0.500048
C272	C	1.477163	0.560596	0.750048
C273	C	0.727869	-0.130002	0.000059
C274	C	0.977869	0.119998	0.250059
C275	C	1.227869	0.369998	0.500059
C276	C	1.477869	0.619998	0.750059
C277	C	0.624025	-0.115860	0.000047
C278	C	0.874025	0.134140	0.250047
C279	C	1.124025	0.384140	0.500047
C280	C	1.374025	0.634140	0.750047
C281	C	0.623318	-0.175257	0.000041
C282	C	0.873318	0.074743	0.250041
C283	C	1.123318	0.324743	0.500041
C284	C	1.373318	0.574743	0.750041
C285	C	0.674891	-0.212028	0.000039
C286	C	0.924891	0.037972	0.250039
C287	C	1.174891	0.287972	0.500039
C288	C	1.424891	0.537972	0.750039
O289	O	0.578069	-0.263215	0.000047
O290	O	0.828069	-0.013215	0.250047
O291	O	1.078069	0.236785	0.500047
O292	O	1.328069	0.486785	0.750047
O293	O	0.770196	-0.289433	0.000027
O294	O	1.020196	-0.039433	0.250027
O295	O	1.270196	0.210567	0.500027
O296	O	1.520196	0.460567	0.750027
C297	C	0.776472	0.069389	0.000040
C298	C	1.026472	0.319389	0.250040
C299	C	1.276472	0.569389	0.500040
C300	C	1.526472	0.819389	0.750040
C301	C	0.839689	0.070155	0.000039
C302	C	1.089689	0.320155	0.250039
C303	C	1.339689	0.570155	0.500039
C304	C	1.589689	0.820155	0.750039
C305	C	0.667577	0.178283	0.000016
C306	C	0.917577	0.428283	0.250016
C307	C	1.167577	0.678283	0.500016
C308	C	1.417577	0.928283	0.750016
C309	C	0.668343	0.241500	0.000005
C310	C	0.918343	0.491500	0.250005
C311	C	1.168343	0.741500	0.500005
C312	C	1.418343	0.991500	0.750005
N313	N	0.672306	0.074132	0.179197
N314	N	0.922306	0.324132	0.429197
N315	N	1.172306	0.574132	0.679197
N316	N	1.422306	0.824132	0.929197
N317	N	0.672346	0.074135	-0.179130
N318	N	0.922346	0.324135	0.070870
N319	N	1.172346	0.574135	0.320870
N320	N	1.422346	0.824135	0.570870
C321	C	0.706646	0.108501	0.218797
C322	C	0.956646	0.358501	0.468797
C323	C	1.206646	0.608501	0.718797
C324	C	1.456646	0.858501	0.968797
C325	C	0.706655	0.108499	0.298044
C326	C	0.956655	0.358499	0.548044
C327	C	1.206655	0.608499	0.798044
C328	C	1.456655	0.858499	1.048044
C329	C	0.672314	0.074135	0.337689
C330	C	0.922314	0.324135	0.587689
C331	C	1.172314	0.574135	0.837689
C332	C	1.422314	0.824135	1.087689
C333	C	0.637972	0.039758	0.298079
C334	C	0.887972	0.289758	0.548079
C335	C	1.137972	0.539758	0.798079
C336	C	1.387972	0.789758	1.048079
C337	C	0.637968	0.039757	0.218833
C338	C	0.887968	0.289757	0.468833
C339	C	1.137968	0.539757	0.718833
C340	C	1.387968	0.789757	0.968833
N341	N	0.622440	0.072862	0.462125
N342	N	0.872440	0.322862	0.712125
N343	N	1.122440	0.572862	0.962125
N344	N	1.372440	0.822862	1.212125
N345	N	0.622445	0.072866	0.537406
N346	N	0.872445	0.322866	0.787406
N347	N	1.122445	0.572866	1.037406
N348	N	1.372445	0.822866	1.287406
C349	C	0.672324	0.074137	0.576453
C350	C	0.922324	0.324137	0.826453
C351	C	1.172324	0.574137	1.076453
C352	C	1.422324	0.824137	1.326453
N353	N	0.722199	0.075413	0.537376
N354	N	0.972199	0.325413	0.787376
N355	N	1.222199	0.575413	1.037376
N356	N	1.472199	0.825413	1.287376
N357	N	0.722193	0.075412	0.462089
N358	N	0.972193	0.325412	0.712089
N359	N	1.222193	0.575412	0.962089
N360	N	1.472193	0.825412	1.212089
C361	C	0.672314	0.074133	0.423618
C362	C	0.922314	0.324133	0.673618
C363	C	1.172314	0.574133	0.923618
C364	C	1.422314	0.824133	1.173618
C365	C	0.706677	0.108506	0.701982
C366	C	0.956677	0.358506	0.951982
C367	C	1.206677	0.608506	1.201982
C368	C	1.456677	0.858506	1.451982
C369	C	0.706687	0.108500	0.781231
C370	C	0.956687	0.358500	1.031231
C371	C	1.206687	0.608500	1.281231
C372	C	1.456687	0.858500	1.531231
C373	C	0.637999	0.039763	0.781265
C374	C	0.887999	0.289763	1.031265
C375	C	1.137999	0.539763	1.281265
C376	C	1.387999	0.789763	1.531265
C377	C	0.637994	0.039765	0.702017
C378	C	0.887994	0.289765	0.952017
C379	C	1.137994	0.539765	1.202017
C380	C	1.387994	0.789765	1.452017
C381	C	0.672332	0.074140	0.662381
C382	C	0.922332	0.324140	0.912381
C383	C	1.172332	0.574140	1.162381
C384	C	1.422332	0.824140	1.412381
H385	H	-0.167631	0.164417	0.000019
H386	H	0.082369	0.414417	0.250019
H387	H	0.332369	0.664417	0.500019
H388	H	0.582369	0.914417	0.750019
H389	H	0.770443	-0.111587	0.000070
H390	H	1.020443	0.138413	0.250070
H391	H	1.270443	0.388413	0.500070
H392	H	1.520443	0.638413	0.750070
H393	H	0.138359	-0.072637	0.000066
H394	H	0.388359	0.177363	0.250066
H395	H	0.638359	0.427363	0.500066
H396	H	0.888359	0.677363	0.750066
Br397	Br	0.532246	-0.044145	0.000039
Br398	Br	0.782246	0.205855	0.250039
Br399	Br	1.032246	0.455855	0.500039
Br400	Br	1.282246	0.705855	0.750039
Br401	Br	0.497171	-0.472092	-0.000026
Br402	Br	0.747171	-0.222092	0.249974
Br403	Br	0.997171	0.027908	0.499974
Br404	Br	1.247171	0.277908	0.749974
H405	H	0.610028	0.011780	0.669775
H406	H	0.860028	0.261780	0.919775
H407	H	1.110028	0.511780	1.169775
H408	H	1.360028	0.761780	1.419775
Br409	Br	0.753233	0.155166	0.165008
Br410	Br	1.003233	0.405166	0.415008
Br411	Br	1.253233	0.655166	0.665008
Br412	Br	1.503233	0.905166	0.915008
H413	H	-0.141954	-0.023984	0.000051
H414	H	0.108046	0.226016	0.250051
H415	H	0.358046	0.476016	0.500051
H416	H	0.608046	0.726016	0.750051
Br417	Br	0.591370	-0.006883	0.351880
Br418	Br	0.841370	0.243117	0.601880
Br419	Br	1.091370	0.493117	0.851880
Br420	Br	1.341370	0.743117	1.101880
Br421	Br	0.753300	0.155144	0.834976
Br422	Br	1.003300	0.405144	1.084976
Br423	Br	1.253300	0.655144	1.334976
Br424	Br	1.503300	0.905144	1.584976
H425	H	0.206274	0.220904	0.000027
H426	H	0.456274	0.470904	0.250027
H427	H	0.706274	0.720904	0.500027
H428	H	0.956274	0.970904	0.750027
Br429	Br	0.591358	-0.006889	0.165086
Br430	Br	0.841358	0.243111	0.415086
Br431	Br	1.091358	0.493111	0.665086
Br432	Br	1.341358	0.743111	0.915086
H433	H	0.734637	0.136496	0.669709
H434	H	0.984637	0.386496	0.919709
H435	H	1.234637	0.636496	1.169709
H436	H	1.484637	0.886496	1.419709
Br437	Br	0.591401	-0.006885	0.835059
Br438	Br	0.841401	0.243115	1.085059
Br439	Br	1.091401	0.493115	1.335059
Br440	Br	1.341401	0.743115	1.585059
Br441	Br	0.753264	0.155145	0.351799
Br442	Br	1.003264	0.405145	0.601799
Br443	Br	1.253264	0.655145	0.851799
Br444	Br	1.503264	0.905145	1.101799
Br445	Br	-0.014242	-0.050696	0.000070
Br446	Br	0.235758	0.199304	0.250070
Br447	Br	0.485758	0.449304	0.500070
Br448	Br	0.735758	0.699304	0.750070
H449	H	0.580747	-0.193677	0.000053
H450	H	0.830747	0.056323	0.250053
H451	H	1.080747	0.306323	0.500053
H452	H	1.330747	0.556323	0.750053
Br453	Br	0.266065	-0.099344	0.000073
Br454	Br	0.516065	0.150656	0.250073
Br455	Br	0.766065	0.400656	0.500073
Br456	Br	1.016065	0.650656	0.750073
H457	H	0.404515	-0.017447	0.000042
H458	H	0.654515	0.232553	0.250042
H459	H	0.904515	0.482553	0.500042
H460	H	1.154515	0.732553	0.750042
Br461	Br	0.498876	0.200635	-0.000019
Br462	Br	0.748876	0.450635	0.249981
Br463	Br	0.998876	0.700635	0.499981
Br464	Br	1.248876	0.950635	0.749981
Br465	Br	0.797156	-0.239299	0.000045
Br466	Br	1.047156	0.010701	0.250045
Br467	Br	1.297156	0.260701	0.500045
Br468	Br	1.547156	0.510701	0.750045
H469	H	0.575496	-0.632386	-0.000000
H470	H	0.825496	-0.382386	0.250000
H471	H	1.075496	-0.132386	0.500000
H472	H	1.325496	0.117614	0.750000
H473	H	0.819097	-0.391900	0.000041
H474	H	1.069097	-0.141900	0.250041
H475	H	1.319097	0.108100	0.500041
H476	H	1.569097	0.358100	0.750041
H477	H	0.378846	0.170964	0.000013
H478	H	0.628846	0.420964	0.250013
H479	H	0.878846	0.670964	0.500013
H480	H	1.128846	0.920964	0.750013
Br481	Br	0.078560	0.247605	0.000045
Br482	Br	0.328560	0.497605	0.250045
Br483	Br	0.578560	0.747605	0.500045
Br484	Br	0.828560	0.997605	0.750045
Br485	Br	-0.047580	0.194093	0.000009
Br486	Br	0.202420	0.444093	0.250009
Br487	Br	0.452420	0.694093	0.500009
Br488	Br	0.702420	0.944093	0.750009
Br489	Br	0.845804	-0.519605	0.000032
Br490	Br	1.095804	-0.269605	0.250032
Br491	Br	1.345804	-0.019605	0.500032
Br492	Br	1.595804	0.230395	0.750032
H493	H	0.582043	-0.085909	0.000047
H494	H	0.832043	0.164091	0.250047
H495	H	1.082043	0.414091	0.500047
H496	H	1.332043	0.664091	0.750047
H497	H	0.762610	-0.765821	0.000013
H498	H	1.012610	-0.515821	0.250013
H499	H	1.262610	-0.265821	0.500013
H500	H	1.512610	-0.015821	0.750013
Br501	Br	0.545825	-0.752416	0.000009
Br502	Br	0.795825	-0.502416	0.250009
Br503	Br	1.045825	-0.252416	0.500009
Br504	Br	1.295825	-0.002416	0.750009
Br505	Br	0.792288	-0.645774	0.000031
Br506	Br	1.042288	-0.395774	0.250031
Br507	Br	1.292288	-0.145774	0.500031
Br508	Br	1.542288	0.104226	0.750031
Br509	Br	0.498854	-0.332101	-0.000024
Br510	Br	0.748854	-0.082101	0.249976
Br511	Br	0.998854	0.167899	0.499976
Br512	Br	1.248854	0.417899	0.749976
