data_functionalizedCrystal
_audit_creation_method	'MofGen! by Chris Wilmer'
_symmetry_space_group_name_H-M	'P1'
_symmetry_Int_Tables_number	1
_symmetry_cell_setting	triclinic
loop_
_symmetry_equiv_pos_as_xyz
  x,y,z
_cell_length_a	18.101398
_cell_length_b	21.295417
_cell_length_c	18.101389
_cell_angle_alpha	90.022566
_cell_angle_beta	90.024327
_cell_angle_gamma	90.025773
loop_
_atom_site_label
_atom_site_type_symbol
_atom_site_fract_x
_atom_site_fract_y
_atom_site_fract_z
Zn1	Zn	1.132124	-0.250755	0.418817
Zn2	Zn	1.632124	0.249245	0.918817
Zn3	Zn	1.132021	-0.356008	0.294967
Zn4	Zn	1.632021	0.143992	0.794967
Zn5	Zn	1.008283	-0.250748	0.294979
Zn6	Zn	1.508283	0.249252	0.794979
Zn7	Zn	1.008235	-0.355981	0.418755
Zn8	Zn	1.508235	0.144019	0.918755
O9	O	1.070166	-0.303373	0.356880
O10	O	1.570166	0.196627	0.856880
O11	O	1.235743	-0.264731	0.402409
O12	O	1.735743	0.235269	0.902409
O13	O	1.115584	-0.342054	0.191335
O14	O	1.615584	0.157946	0.691335
O15	O	1.024774	-0.162660	0.311437
O16	O	1.524774	0.337340	0.811437
O17	O	1.235668	-0.342060	0.311417
O18	O	1.735668	0.157940	0.811417
O19	O	1.115759	-0.162664	0.402421
O20	O	1.615759	0.337336	0.902421
O21	O	1.024674	-0.264720	0.191344
O22	O	1.524674	0.235280	0.691344
O23	O	0.904644	-0.264694	0.311377
O24	O	1.404644	0.235306	0.811377
O25	O	1.024692	-0.342014	0.522397
O26	O	1.524692	0.157986	1.022397
O27	O	0.904609	-0.342008	0.402315
O28	O	1.404609	0.157992	0.902315
O29	O	1.115713	-0.264705	0.522442
O30	O	1.615713	0.235295	1.022442
O31	O	1.115538	-0.444094	0.311357
O32	O	1.615538	0.055906	0.811357
O33	O	1.024592	-0.444074	0.402304
O34	O	1.524592	0.055926	0.902304
C35	C	0.877755	-0.303348	0.356841
C36	C	1.377755	0.196652	0.856841
C37	C	0.795441	-0.303352	0.356842
C38	C	1.295441	0.196648	0.856842
C39	C	0.496350	-0.303391	0.356904
C40	C	0.996350	0.196609	0.856904
C41	C	0.527673	-0.254504	0.299967
C42	C	1.027673	0.245496	0.799967
C43	C	0.613291	-0.254635	0.299724
C44	C	1.113291	0.245365	0.799724
C45	C	0.644733	-0.303371	0.356873
C46	C	1.144733	0.196629	0.856873
C47	C	0.613615	-0.369679	0.335543
C48	C	1.113615	0.130321	0.835543
C49	C	0.527970	-0.369407	0.335147
C50	C	1.027970	0.130593	0.835147
C51	C	0.527965	-0.286547	0.435305
C52	C	1.027965	0.213453	0.935305
C53	C	0.613615	-0.285070	0.434877
C54	C	1.113615	0.214930	0.934877
C55	C	0.728592	-0.303364	0.356857
C56	C	1.228592	0.196636	0.856857
C57	C	0.412491	-0.303403	0.356919
C58	C	0.912491	0.196597	0.856919
C59	C	1.070069	-0.466925	0.356839
C60	C	1.570069	0.033075	0.856839
C61	C	1.070095	-0.536893	0.356846
C62	C	1.570095	-0.036893	0.856846
C63	C	1.117492	-0.569749	0.309538
C64	C	1.617492	-0.069749	0.809538
C65	C	1.117527	-0.635491	0.309555
C66	C	1.617527	-0.135491	0.809555
C67	C	1.070151	-0.668375	0.356871
C68	C	1.570151	-0.168375	0.856871
C69	C	1.022751	-0.635511	0.404188
C70	C	1.522751	-0.135511	0.904188
C71	C	1.022722	-0.569770	0.404175
C72	C	1.522722	-0.069770	0.904175
N73	N	1.005367	-0.771637	0.362504
N74	N	1.505367	-0.271637	0.862504
N75	N	1.005396	-0.834089	0.362512
N76	N	1.505396	-0.334089	0.862512
C77	C	1.070234	-0.866450	0.356914
C78	C	1.570234	-0.366450	0.856914
N79	N	1.135044	-0.834001	0.351293
N80	N	1.635044	-0.334001	0.851293
N81	N	1.135014	-0.771543	0.351282
N82	N	1.635014	-0.271543	0.851282
C83	C	1.070177	-0.739661	0.356891
C84	C	1.570177	-0.239661	0.856891
C85	C	1.117673	-0.970592	0.309622
C86	C	1.617673	-0.470592	0.809622
C87	C	1.117709	-1.036335	0.309644
C88	C	1.617709	-0.536335	0.809644
C89	C	1.022926	-1.036354	0.404273
C90	C	1.522926	-0.536354	0.904273
C91	C	1.022897	-0.970612	0.404255
C92	C	1.522897	-0.470612	0.904255
C93	C	1.070269	-0.937734	0.356925
C94	C	1.570269	-0.437734	0.856925
C95	C	1.263328	-0.303399	0.356919
C96	C	1.763328	0.196601	0.856919
C97	C	1.345642	-0.303410	0.356935
C98	C	1.845642	0.196590	0.856935
C99	C	1.070209	-0.303357	0.550042
C100	C	1.570209	0.196643	1.050042
C101	C	1.070227	-0.303350	0.632356
C102	C	1.570227	0.196650	1.132356
C103	C	1.070283	-0.139183	0.356937
C104	C	1.570283	0.360817	0.856937
C105	C	1.070334	-0.069215	0.356961
C106	C	1.570334	0.430785	0.856961
C107	C	1.070166	-0.303344	0.164469
C108	C	1.570166	0.196656	0.664469
C109	C	1.070291	-0.303173	0.082155
C110	C	1.570291	0.196827	0.582155
C111	C	1.070270	-0.303232	0.931447
C112	C	1.570270	0.196768	1.431447
C113	C	1.012805	-0.351719	0.900093
C114	C	1.512805	0.148281	1.400093
C115	C	1.012960	-0.351944	0.814475
C116	C	1.512960	0.148056	1.314475
C117	C	1.070248	-0.303291	0.783064
C118	C	1.570248	0.196709	1.283064
C119	C	1.148274	-0.321303	0.814168
C120	C	1.648274	0.178697	1.314168
C121	C	1.147953	-0.321621	0.899813
C122	C	1.647953	0.178379	1.399813
C123	C	1.050388	-0.236626	0.899877
C124	C	1.550388	0.263374	1.399877
C125	C	1.048652	-0.237011	0.814226
C126	C	1.548652	0.262989	1.314226
C127	C	1.070240	-0.303323	0.699205
C128	C	1.570240	0.196677	1.199205
C129	C	1.070283	-0.303202	1.015306
C130	C	1.570283	0.196798	1.515306
H131	H	0.507959	-0.383693	0.277832
H132	H	1.007959	0.116307	0.777832
N133	N	0.499132	-0.269082	0.223461
N134	N	0.999132	0.230918	0.723461
H135	H	0.519517	-0.237463	0.187226
H136	H	1.019517	0.262537	0.687226
H137	H	0.443398	-0.266909	0.223405
H138	H	0.943398	0.233091	0.723405
N139	N	0.640390	-0.269396	0.222777
N140	N	1.140390	0.230604	0.722777
H141	H	0.696184	-0.269542	0.222299
H142	H	1.196184	0.230458	0.722299
H143	H	0.621588	-0.236488	0.187288
H144	H	1.121588	0.263512	0.687288
H145	H	0.507249	-0.407065	0.374809
H146	H	1.007249	0.092935	0.874809
N147	N	1.100049	-0.186616	0.785912
N148	N	1.600049	0.313384	1.285912
H149	H	1.084825	-0.144600	0.806842
H150	H	1.584825	0.355400	1.306842
H151	H	1.097433	-0.185130	0.730206
H152	H	1.597433	0.314870	1.230206
H153	H	1.156067	-0.542982	0.271002
H154	H	1.656067	-0.042982	0.771002
H155	H	0.984178	-0.662290	0.442715
H156	H	1.484178	-0.162290	0.942715
N157	N	0.640561	-0.419220	0.388769
N158	N	1.140561	0.080780	0.888769
H159	H	0.673281	-0.399110	0.427310
H160	H	1.173281	0.100890	0.927310
H161	H	0.669569	-0.452060	0.360875
H162	H	1.169569	0.047940	0.860875
N163	N	0.935926	-0.336935	0.927340
N164	N	1.435926	0.163065	1.427340
H165	H	0.937599	-0.298666	0.960276
H166	H	1.437599	0.201334	1.460276
H167	H	0.916171	-0.373883	0.956195
H168	H	1.416171	0.126117	1.456195
N169	N	0.971598	-0.534328	0.455200
N170	N	1.471598	-0.034328	0.955200
H171	H	0.941591	-0.565133	0.485181
H172	H	1.441591	-0.065133	0.985181
H173	H	0.937332	-0.507092	0.425012
H174	H	1.437332	-0.007092	0.925012
H175	H	0.984355	-1.063127	0.442802
H176	H	1.484355	-0.563127	0.942802
H177	H	0.506392	-0.239037	0.454697
H178	H	1.006392	0.260963	0.954697
H179	H	1.156249	-0.943822	0.271085
H180	H	1.656249	-0.443822	0.771085
N181	N	1.206508	-0.275995	0.787216
N182	N	1.706508	0.224005	1.287216
H183	H	1.245168	-0.299625	0.758154
H184	H	1.745168	0.200375	1.258154
H185	H	1.230504	-0.254731	0.830962
H186	H	1.730504	0.245269	1.330962
N187	N	1.030030	-0.416723	0.928572
N188	N	1.530030	0.083277	1.428572
H189	H	1.074893	-0.414900	0.961699
H190	H	1.574893	0.085100	1.461699
H191	H	1.040253	-0.445607	0.885511
H192	H	1.540253	0.054393	1.385511
N193	N	0.971768	-0.935166	0.455271
N194	N	1.471768	-0.435166	0.955271
H195	H	0.983240	-0.946573	0.508199
H196	H	1.483240	-0.446573	1.008199
H197	H	0.918888	-0.946664	0.443651
H198	H	1.418888	-0.446664	0.943651
H199	H	0.635030	-0.384213	0.278847
H200	H	1.135030	0.115787	0.778847
N201	N	0.936330	-0.336986	0.786608
N202	N	1.436330	0.163014	1.286608
H203	H	0.902143	-0.330189	0.829960
H204	H	1.402143	0.169811	1.329960
H205	H	0.917560	-0.373112	0.755678
H206	H	1.417560	0.126888	1.255678
H207	H	1.156310	-1.063086	0.271122
H208	H	1.656310	-0.563086	0.771122
N209	N	1.030355	-0.417343	0.787349
N210	N	1.530355	0.082657	1.287349
H211	H	1.080528	-0.430498	0.806225
H212	H	1.580528	0.069502	1.306225
H213	H	1.030481	-0.417731	0.731556
H214	H	1.530481	0.082269	1.231556
N215	N	1.170279	-0.386114	0.926286
N216	N	1.670279	0.113886	1.426286
H217	H	1.180234	-0.414070	0.882320
H218	H	1.680234	0.085930	1.382320
H219	H	1.129081	-0.404691	0.956903
H220	H	1.629081	0.095309	1.456903
N221	N	0.976333	-0.214885	0.928466
N222	N	1.476333	0.285115	1.428466
H223	H	0.954921	-0.247997	0.962178
H224	H	1.454921	0.252003	1.462178
H225	H	0.941751	-0.207693	0.885499
H226	H	1.441751	0.292307	1.385499
N227	N	1.206598	-0.276885	0.927296
N228	N	1.706598	0.223115	1.427296
H229	H	1.256539	-0.290777	0.908567
H230	H	1.756539	0.209223	1.408567
H231	H	1.206782	-0.276764	0.983090
H232	H	1.706782	0.223236	1.483090
N233	N	1.170989	-0.385113	0.785762
N234	N	1.670989	0.114887	1.285762
H235	H	1.133752	-0.417572	0.802155
H236	H	1.633752	0.082428	1.302155
H237	H	1.221276	-0.396228	0.806092
H238	H	1.721276	0.103772	1.306092
N239	N	0.972596	-0.219010	0.787296
N240	N	1.472596	0.280990	1.287296
H241	H	0.952208	-0.253640	0.755043
H242	H	1.452208	0.246360	1.255043
H243	H	0.975847	-0.178859	0.757797
H244	H	1.475847	0.321141	1.257797
N245	N	1.105819	-0.188767	0.926735
N246	N	1.605819	0.311233	1.426735
H247	H	1.156864	-0.201001	0.909434
H248	H	1.656864	0.298999	1.409434
H249	H	1.104906	-0.187189	0.982491
H250	H	1.604906	0.312811	1.482491
N251	N	0.641169	-0.189504	0.317428
N252	N	1.141169	0.310496	0.817428
H253	H	0.597822	-0.160450	0.325461
H254	H	1.097822	0.339550	0.825461
H255	H	0.672066	-0.173537	0.274952
H256	H	1.172066	0.326463	0.774952
H257	H	0.633959	-0.236275	0.450961
H258	H	1.133959	0.263725	0.950961
H259	H	0.507102	-0.205183	0.313191
H260	H	1.007102	0.294817	0.813191
N261	N	0.641958	-0.328799	0.494088
N262	N	1.141958	0.171201	0.994088
H263	H	0.697667	-0.326598	0.495922
H264	H	1.197667	0.173402	0.995922
H265	H	0.626091	-0.373186	0.482434
H266	H	1.126091	0.126814	0.982434
N267	N	0.501138	-0.333700	0.491515
N268	N	1.001138	0.166300	0.991515
H269	H	0.518427	-0.377080	0.477048
H270	H	1.018427	0.122920	0.977048
H271	H	0.445383	-0.332923	0.493361
H272	H	0.945383	0.167077	0.993361
N273	N	1.168651	-0.670940	0.258530
N274	N	1.668651	-0.170940	0.758530
H275	H	1.198657	-0.640136	0.228546
H276	H	1.698657	-0.140136	0.728546
H277	H	1.138531	-0.698253	0.224237
H278	H	1.638531	-0.198253	0.724237
