data_functionalizedCrystal
_audit_creation_method	'MofGen! by Chris Wilmer'
_symmetry_space_group_name_H-M	'P1'
_symmetry_Int_Tables_number	1
_symmetry_cell_setting	triclinic
loop_
_symmetry_equiv_pos_as_xyz
  x,y,z
_cell_length_a	14.044220
_cell_length_b	10.868271
_cell_length_c	11.792254
_cell_angle_alpha	89.994692
_cell_angle_beta	88.693738
_cell_angle_gamma	90.000690
loop_
_atom_site_label
_atom_site_type_symbol
_atom_site_fract_x
_atom_site_fract_y
_atom_site_fract_z
O1	O	1.259124	-0.102193	0.273770
O2	O	1.592457	0.231141	0.607103
O3	O	1.925790	0.564474	0.940437
O4	O	0.983103	-0.102224	0.263891
O5	O	1.316437	0.231110	0.597224
O6	O	1.649770	0.564443	0.930558
O7	O	1.127806	-0.102199	0.104289
O8	O	1.461139	0.231135	0.437622
O9	O	1.794472	0.564468	0.770956
O10	O	1.114422	-0.102218	0.433372
O11	O	1.447755	0.231116	0.766705
O12	O	1.781088	0.564449	1.100038
O13	O	1.127794	0.102446	0.104281
O14	O	1.461127	0.435779	0.437614
O15	O	1.794460	0.769113	0.770948
O16	O	0.983091	0.102421	0.263883
O17	O	1.316425	0.435754	0.597216
O18	O	1.649758	0.769088	0.930550
O19	O	1.259112	0.102452	0.273762
O20	O	1.592445	0.435785	0.607095
O21	O	1.925778	0.769119	0.940429
Zn22	Zn	1.121100	0.134928	0.268821
Zn23	Zn	1.454433	0.468262	0.602155
Zn24	Zn	1.787766	0.801595	0.935488
Zn25	Zn	1.121115	-0.134700	0.268832
Zn26	Zn	1.454449	0.198633	0.602165
Zn27	Zn	1.787782	0.531967	0.935498
O28	O	1.114410	0.102427	0.433364
O29	O	1.447743	0.435760	0.766697
O30	O	1.781076	0.769094	1.100030
C31	C	0.947761	0.000095	0.259563
C32	C	1.281094	0.333428	0.592896
C33	C	1.614427	0.666761	0.926229
C34	C	0.842468	0.000083	0.246664
C35	C	1.175801	0.333416	0.579997
C36	C	1.509135	0.666750	0.913330
N37	N	1.121096	0.318942	0.268814
N38	N	1.454429	0.652276	0.602147
N39	N	1.787762	0.985609	0.935481
N40	N	1.121127	-0.318714	0.268831
N41	N	1.454460	0.014619	0.602164
N42	N	1.787793	0.347953	0.935497
C43	C	0.649685	0.000109	0.223082
C44	C	0.983018	0.333442	0.556415
C45	C	1.316351	0.666775	0.889748
C46	C	0.592525	0.000109	0.314566
C47	C	0.925858	0.333442	0.647900
C48	C	1.259192	0.666775	0.981233
C49	C	0.485254	0.000123	0.301445
C50	C	0.818587	0.333456	0.634778
C51	C	1.151920	0.666790	0.968112
C52	C	0.756966	0.000095	0.236201
C53	C	1.090299	0.333428	0.569535
C54	C	1.423633	0.666761	0.902868
C55	C	1.294455	0.000131	0.278090
C56	C	1.627788	0.333464	0.611424
C57	C	1.961121	0.666798	0.944757
C58	C	1.399747	0.000135	0.290989
C59	C	1.733080	0.333468	0.624323
C60	C	2.066414	0.666801	0.957656
C61	C	1.126956	0.000123	0.061915
C62	C	1.460290	0.333457	0.395249
C63	C	1.793623	0.666790	0.728582
C64	C	1.124433	0.000122	-0.064335
C65	C	1.457766	0.333455	0.268999
C66	C	1.791100	0.666788	0.602332
C67	C	1.121110	0.569948	0.268829
C68	C	1.454444	0.903282	0.602162
C69	C	1.787777	1.236615	0.935495
C70	C	1.121099	0.430271	0.268824
C71	C	1.454433	0.763604	0.602157
C72	C	1.787766	1.096938	0.935490
C73	C	1.122383	0.000117	-0.166864
C74	C	1.455716	0.333450	0.166470
C75	C	1.789049	0.666784	0.499803
C76	C	1.119819	0.000106	-0.295491
C77	C	1.453152	0.333439	0.037842
C78	C	1.786485	0.666772	0.371176
C79	C	1.115259	0.000102	0.475738
C80	C	1.448592	0.333436	0.809071
C81	C	1.781925	0.666769	1.142404
C82	C	1.117782	0.000096	0.601988
C83	C	1.451116	0.333429	0.935321
C84	C	1.784449	0.666762	1.268654
H85	H	0.624152	0.000098	0.402743
H86	H	0.957486	0.333431	0.736077
H87	H	1.290819	0.666764	1.069410
F88	F	0.608348	0.000119	0.107835
F89	F	0.941681	0.333452	0.441168
F90	F	1.275014	0.666786	0.774502
