data_functionalizedCrystal
_audit_creation_method	'MofGen! by Chris Wilmer'
_symmetry_space_group_name_H-M	'P1'
_symmetry_Int_Tables_number	1
_symmetry_cell_setting	triclinic
loop_
_symmetry_equiv_pos_as_xyz
  x,y,z
_cell_length_a	12.759401
_cell_length_b	25.639239
_cell_length_c	12.759393
_cell_angle_alpha	89.962948
_cell_angle_beta	89.981504
_cell_angle_gamma	90.038847
loop_
_atom_site_label
_atom_site_type_symbol
_atom_site_fract_x
_atom_site_fract_y
_atom_site_fract_z
Zn1	Zn	1.606080	-0.208118	-0.593941
Zn2	Zn	1.605901	-0.295564	-0.418245
Zn3	Zn	1.430382	-0.208145	-0.418281
Zn4	Zn	1.430297	-0.295524	-0.593886
O5	O	1.518165	-0.251838	-0.506088
O6	O	1.753078	-0.219723	-0.570643
O7	O	1.582579	-0.283996	-0.271228
O8	O	1.453799	-0.134976	-0.441621
O9	O	1.752946	-0.283970	-0.441559
O10	O	1.582884	-0.134956	-0.570678
O11	O	1.453626	-0.219770	-0.271255
O12	O	1.283350	-0.219731	-0.441567
O13	O	1.453655	-0.283901	-0.740914
O14	O	1.283288	-0.283928	-0.570584
O15	O	1.582802	-0.219684	-0.740955
O16	O	1.582496	-0.368724	-0.441505
O17	O	1.453481	-0.368695	-0.570549
C18	C	1.245198	-0.251828	-0.506074
C19	C	1.128421	-0.251837	-0.506093
C20	C	1.073554	-0.285318	-0.573160
C21	C	0.963830	-0.285324	-0.573172
C22	C	0.963850	-0.218368	-0.439039
C23	C	1.073572	-0.218359	-0.439033
C24	C	1.128404	-0.318796	-0.640220
C25	C	1.073536	-0.352280	-0.707292
C26	C	0.963812	-0.352286	-0.707303
C27	C	0.908955	-0.318809	-0.640242
C28	C	1.517989	-0.387680	-0.506040
C29	C	1.518009	-0.445795	-0.506055
C30	C	1.585519	-0.806160	-0.439010
C31	C	1.585560	-0.860765	-0.439024
O32	O	1.642775	-0.889004	-0.381967
N33	N	1.518350	-0.888077	-0.506158
C34	C	1.451103	-0.860782	-0.573289
O35	O	1.393940	-0.889027	-0.630394
C36	C	1.451068	-0.806179	-0.573280
C37	C	1.518275	-0.778869	-0.506134
C38	C	1.652721	-0.778851	-0.371870
C39	C	1.652678	-0.724250	-0.371855
C40	C	1.585434	-0.696959	-0.438980
C41	C	1.518232	-0.724269	-0.506119
C42	C	1.383827	-0.778885	-0.640416
C43	C	1.383799	-0.724278	-0.640401
C44	C	1.451005	-0.696968	-0.573256
C45	C	1.450946	-0.642377	-0.573228
N46	N	1.518155	-0.615065	-0.506094
C47	C	1.585399	-0.642356	-0.438970
C48	C	1.451182	-0.975453	-0.573306
C49	C	1.451210	-1.030055	-0.573311
C50	C	1.585669	-1.030034	-0.439046
C51	C	1.585634	-0.975430	-0.439037
C52	C	1.518391	-0.948140	-0.506172
C53	C	1.585305	-0.527691	-0.438943
C54	C	1.585253	-0.473086	-0.438930
C55	C	1.450799	-0.473111	-0.573198
C56	C	1.450846	-0.527712	-0.573207
C57	C	1.518108	-0.555000	-0.506076
O58	O	1.393762	-0.614103	-0.630258
O59	O	1.642562	-0.614104	-0.381885
C60	C	1.792198	-0.251848	-0.506103
C61	C	1.908975	-0.251852	-0.506109
C62	C	1.518239	-0.251785	-0.780122
C63	C	1.518270	-0.251763	-0.896898
C64	C	1.518371	-0.115465	-0.506159
C65	C	1.518459	-0.057351	-0.506190
C66	C	1.585526	-0.218322	-0.951783
C67	C	1.585551	-0.218303	-1.061507
C68	C	1.451061	-0.285170	-1.061452
C69	C	1.451032	-0.285186	-0.951730
C70	C	1.652765	-0.184898	-0.896952
C71	C	1.720027	-0.151455	-0.951837
C72	C	1.720052	-0.151436	-1.061561
C73	C	1.652815	-0.184860	-1.116400
C74	C	1.518152	-0.251853	-0.233121
C75	C	1.518325	-0.251728	-0.116345
H76	H	0.819611	-0.318813	-0.640266
H77	H	1.396319	-0.312383	-1.106111
C78	C	1.378195	-0.321525	-0.891986
C79	C	1.437629	-0.355033	-0.828955
C80	C	1.370568	-0.388510	-0.773887
H81	H	1.338131	-0.341485	-0.940223
H82	H	1.332460	-0.301541	-0.849131
H83	H	1.483346	-0.375015	-0.871805
H84	H	1.477691	-0.335087	-0.780698
H85	H	1.324833	-0.368526	-0.731032
H86	H	1.330507	-0.408466	-0.822132
H87	H	1.410884	-0.411245	-0.731107
H88	H	0.919177	-0.191112	-0.384440
H89	H	1.652828	-0.184836	-1.205745
C90	C	1.378106	-1.059730	-0.646030
C91	C	1.310799	-1.091126	-0.586499
C92	C	1.243435	-1.118463	-0.653459
H93	H	1.418162	-1.081034	-0.691872
H94	H	1.337993	-1.035668	-0.685983
H95	H	1.350907	-1.115185	-0.546564
H96	H	1.270720	-1.069835	-0.540660
H97	H	1.203323	-1.094401	-0.693412
H98	H	1.283500	-1.139764	-0.699297
H99	H	1.197753	-1.139765	-0.613077
H100	H	1.217746	-0.318795	-0.640216
C101	C	1.658474	-0.557335	-0.366238
C102	C	1.725834	-0.588609	-0.425793
C103	C	1.793263	-0.615916	-0.358856
H104	H	1.618468	-0.578720	-0.320399
H105	H	1.698546	-0.533256	-0.326283
H106	H	1.685767	-0.612685	-0.465731
H107	H	1.765863	-0.567237	-0.471630
H108	H	1.833335	-0.591837	-0.318900
H109	H	1.753249	-0.637298	-0.313019
H110	H	1.838981	-0.637135	-0.399254
C111	C	1.378333	-0.945798	-0.646319
C112	C	1.437753	-0.914405	-0.713731
C113	C	1.370684	-0.887088	-0.781015
H114	H	1.332540	-0.924493	-0.606209
H115	H	1.338332	-0.969871	-0.686359
H116	H	1.477736	-0.890335	-0.673696
H117	H	1.483543	-0.935697	-0.753864
H118	H	1.330683	-0.911162	-0.821054
H119	H	1.324895	-0.865786	-0.740896
H120	H	1.410991	-0.865789	-0.826768
H121	H	1.118208	-0.379532	-0.761897
C122	C	0.904375	-0.388607	-0.780295
C123	C	0.931141	-0.377293	-0.884284
C124	C	0.876421	-0.410748	-0.951550
H125	H	0.831156	-0.383851	-0.770842
H126	H	0.922336	-0.423734	-0.764846
H127	H	0.913173	-0.342174	-0.899727
H128	H	1.004350	-0.382052	-0.893769
H129	H	0.894382	-0.445876	-0.936101
H130	H	0.803206	-0.405990	-0.942088
H131	H	0.894582	-0.403080	-1.022113
C132	C	1.132961	-0.181994	-0.366091
C133	C	1.061444	-0.152692	-0.307334
C134	C	1.116115	-0.119193	-0.240118
H135	H	1.175810	-0.159187	-0.406240
H136	H	1.175699	-0.201957	-0.320187
H137	H	1.018724	-0.132731	-0.353233
H138	H	1.018592	-0.175486	-0.267165
H139	H	1.158853	-0.139156	-0.194214
H140	H	1.158963	-0.096389	-0.280275
H141	H	1.067600	-0.099311	-0.200237
H142	H	1.707407	-0.702018	-0.317183
C143	C	1.658342	-0.443530	-0.365988
C144	C	1.717259	-0.479122	-0.307231
C145	C	1.784607	-0.451917	-0.240039
H146	H	1.618281	-0.422267	-0.320074
H147	H	1.704139	-0.422201	-0.406187
H148	H	1.671468	-0.500442	-0.267035
H149	H	1.757342	-0.500387	-0.353116
H150	H	1.830404	-0.430588	-0.280238
H151	H	1.744538	-0.430655	-0.194133
H152	H	1.824598	-0.476062	-0.200172
C153	C	1.793012	-0.115040	-1.121014
C154	C	1.770230	-0.063313	-1.094330
C155	C	1.837434	-0.029772	-1.149064
H156	H	1.783470	-0.119742	-1.194231
H157	H	1.863603	-0.122669	-1.103008
H158	H	1.699656	-0.055687	-1.112344
H159	H	1.779779	-0.058595	-1.021123
H160	H	1.908025	-0.037401	-1.131058
H161	H	1.827887	-0.034479	-1.222278
H162	H	1.821993	0.005328	-1.130959
H163	H	1.707485	-0.801065	-0.317210
H164	H	1.640427	-1.052264	-0.384394
C165	C	1.658432	-0.945755	-0.366011
C166	C	1.598966	-0.914470	-0.298594
C167	C	1.665994	-0.887134	-0.231299
H168	H	1.704199	-0.924375	-0.406112
H169	H	1.698462	-0.969817	-0.325976
H170	H	1.558954	-0.890411	-0.338626
H171	H	1.553201	-0.935837	-0.258470
H172	H	1.706024	-0.911196	-0.191263
H173	H	1.711758	-0.865757	-0.271408
H174	H	1.625656	-0.865908	-0.185542
H175	H	1.329095	-0.801111	-0.695088
H176	H	1.396125	-0.549949	-0.627886
C177	C	1.310677	-0.694744	-0.713337
C178	C	1.251820	-0.730352	-0.772119
C179	C	1.184441	-0.703166	-0.839307
H180	H	1.350713	-0.673404	-0.759234
H181	H	1.264843	-0.673493	-0.673134
H182	H	1.297647	-0.751594	-0.812319
H183	H	1.211762	-0.751693	-0.726249
H184	H	1.138608	-0.681915	-0.799104
H185	H	1.224486	-0.681827	-0.885197
H186	H	1.144492	-0.727322	-0.879191
C187	C	1.377627	-0.443505	-0.645956
C188	C	1.273689	-0.456833	-0.622997
C189	C	1.206262	-0.429564	-0.690001
H190	H	1.392845	-0.452398	-0.716596
H191	H	1.387164	-0.407069	-0.636325
H192	H	1.264157	-0.493260	-0.632637
H193	H	1.258438	-0.447938	-0.552369
H194	H	1.215799	-0.393128	-0.680370
H195	H	1.221490	-0.438459	-0.760637
H196	H	1.135733	-0.438599	-0.674426
C197	C	1.652854	-0.184822	-0.777823
C198	C	1.726113	-0.148385	-0.741548
C199	C	1.726215	-0.148297	-0.631814
H200	H	1.670996	-0.218536	-0.752852
H201	H	1.585083	-0.175753	-0.752963
H202	H	1.793870	-0.157457	-0.766397
H203	H	1.707988	-0.114665	-0.766490
H204	H	1.658444	-0.139228	-0.606954
H205	H	1.744355	-0.182014	-0.606853
H206	H	1.775913	-0.123573	-0.607187
H207	H	1.774763	-0.124238	-0.907179
