data_functionalizedCrystal
_audit_creation_method	'MofGen! by Chris Wilmer'
_symmetry_space_group_name_H-M	'P1'
_symmetry_Int_Tables_number	1
_symmetry_cell_setting	triclinic
loop_
_symmetry_equiv_pos_as_xyz
  x,y,z
_cell_length_a	9.798715
_cell_length_b	16.992694
_cell_length_c	16.992695
_cell_angle_alpha	90.668223
_cell_angle_beta	89.996563
_cell_angle_gamma	90.001906
loop_
_atom_site_label
_atom_site_type_symbol
_atom_site_fract_x
_atom_site_fract_y
_atom_site_fract_z
O1	O	0.113321	-1.050850	-0.166915
O2	O	0.446655	-0.717516	0.166419
O3	O	0.779988	-0.384183	0.499752
O4	O	0.113361	-0.822450	-0.165084
O5	O	0.446695	-0.489116	0.168250
O6	O	0.780028	-0.155783	0.501583
O7	O	0.113331	-0.935734	-0.051799
O8	O	0.446664	-0.602401	0.281534
O9	O	0.779997	-0.269067	0.614868
O10	O	0.113352	-0.937565	-0.280199
O11	O	0.446685	-0.604232	0.053134
O12	O	0.780019	-0.270899	0.386467
O13	O	-0.113652	-0.935725	-0.051798
O14	O	0.219682	-0.602392	0.281535
O15	O	0.553015	-0.269058	0.614868
O16	O	-0.113621	-0.822441	-0.165083
O17	O	0.219713	-0.489107	0.168251
O18	O	0.553046	-0.155774	0.501584
O19	O	-0.113661	-1.050841	-0.166914
O20	O	0.219672	-0.717507	0.166419
O21	O	0.553006	-0.384174	0.499753
Zn22	Zn	-0.149679	-0.936639	-0.165998
Zn23	Zn	0.183654	-0.603306	0.167335
Zn24	Zn	0.516988	-0.269973	0.500668
Zn25	Zn	0.149380	-0.936651	-0.165999
Zn26	Zn	0.482713	-0.603318	0.167334
Zn27	Zn	0.816046	-0.269984	0.500667
O28	O	-0.113630	-0.937556	-0.280198
O29	O	0.219703	-0.604223	0.053135
O30	O	0.553036	-0.270890	0.386468
C31	C	-0.000125	-0.793085	-0.162727
C32	C	0.333209	-0.459752	0.170606
C33	C	0.666542	-0.126418	0.503939
C34	C	-0.000110	-0.705600	-0.155699
C35	C	0.333224	-0.372267	0.177635
C36	C	0.666557	-0.038934	0.510968
C37	C	-0.000160	-0.933374	-0.022439
C38	C	0.333173	-0.600041	0.310895
C39	C	0.666507	-0.266707	0.644228
C40	C	-0.000158	-0.926345	0.065046
C41	C	0.333175	-0.593012	0.398379
C42	C	0.666508	-0.259678	0.731713
N43	N	-0.353779	-0.936637	-0.165997
N44	N	-0.020446	-0.603304	0.167336
N45	N	0.312888	-0.269970	0.500669
C46	C	-0.421569	-0.984190	-0.118211
C47	C	-0.088235	-0.650857	0.215123
C48	C	0.245098	-0.317523	0.548456
C49	C	-0.578731	-0.984202	-0.118209
C50	C	-0.245398	-0.650869	0.215125
C51	C	0.087935	-0.317536	0.548458
N52	N	0.353479	-0.936659	-0.165994
N53	N	0.686813	-0.603326	0.167339
N54	N	1.020146	-0.269993	0.500672
C55	C	-0.000172	-1.080205	-0.169270
C56	C	0.333161	-0.746872	0.164063
C57	C	0.666495	-0.413539	0.497397
C58	C	-0.000178	-1.167690	-0.176299
C59	C	0.333155	-0.834357	0.157034
C60	C	0.666489	-0.501023	0.490368
C61	C	-0.000104	-0.659610	-0.223517
C62	C	0.333229	-0.326276	0.109817
C63	C	0.666562	0.007057	0.443150
C64	C	-0.000124	-0.577409	-0.216908
C65	C	0.333210	-0.244076	0.116426
C66	C	0.666543	0.089258	0.449759
C67	C	-0.000139	-0.541201	-0.142480
C68	C	0.333195	-0.207867	0.190853
C69	C	0.666528	0.125466	0.524187
C70	C	-0.000148	-0.587198	-0.074657
C71	C	0.333185	-0.253864	0.258676
C72	C	0.666519	0.079469	0.592010
C73	C	-0.000138	-0.669397	-0.081267
C74	C	0.333195	-0.336063	0.252067
C75	C	0.666528	-0.002730	0.585400
C76	C	-0.000178	-0.295886	-0.115086
C77	C	0.333156	0.037447	0.218248
C78	C	0.666489	0.370780	0.551581
C79	C	-0.000183	-0.213681	-0.108481
C80	C	0.333150	0.119652	0.224852
C81	C	0.666483	0.452986	0.558186
C82	C	-0.000162	-0.203898	-0.250732
C83	C	0.333172	0.129435	0.082601
C84	C	0.666505	0.462769	0.415934
C85	C	-0.000144	-0.286099	-0.257336
C86	C	0.333190	0.047234	0.075998
C87	C	0.666523	0.380568	0.409331
C88	C	-0.000160	-0.332089	-0.189512
C89	C	0.333173	0.001244	0.143821
C90	C	0.666506	0.334578	0.477154
N91	N	-0.000154	-0.457178	-0.135723
N92	N	0.333179	-0.123845	0.197610
N93	N	0.666512	0.209488	0.530944
N94	N	-0.000154	-0.416110	-0.196270
N95	N	0.333179	-0.082776	0.137063
N96	N	0.666512	0.250557	0.470396
C97	C	-0.000137	-0.939917	-0.309559
C98	C	0.333197	-0.606583	0.023774
C99	C	0.666530	-0.273250	0.357108
C100	C	-0.000129	-0.946945	-0.397044
C101	C	0.333204	-0.613612	-0.063710
C102	C	0.666537	-0.280279	0.269623
C103	C	-0.000172	-0.994163	0.111037
C104	C	0.333162	-0.660830	0.444370
C105	C	0.666495	-0.327496	0.777704
C106	C	-0.000158	-0.987554	0.193238
C107	C	0.333176	-0.654221	0.526571
C108	C	0.666509	-0.320887	0.859904
C109	C	-0.000140	-0.913127	0.229446
C110	C	0.333194	-0.579793	0.562779
C111	C	0.666527	-0.246460	0.896113
C112	C	-0.000122	-0.845303	0.183449
C113	C	0.333211	-0.511970	0.516782
C114	C	0.666544	-0.178637	0.850116
C115	C	-0.000127	-0.851913	0.101250
C116	C	0.333207	-0.518580	0.434583
C117	C	0.666540	-0.185246	0.767916
C118	C	-0.000116	-0.885732	0.474760
C119	C	0.333217	-0.552399	0.808094
C120	C	0.666550	-0.219065	1.141427
C121	C	-0.000116	-0.879127	0.556966
C122	C	0.333217	-0.545794	0.890299
C123	C	0.666551	-0.212461	1.223632
C124	C	-0.000149	-1.021379	0.566749
C125	C	0.333185	-0.688045	0.900082
C126	C	0.666518	-0.354712	1.233415
C127	C	-0.000161	-1.027982	0.484547
C128	C	0.333172	-0.694649	0.817881
C129	C	0.666506	-0.361315	1.151214
C130	C	-0.000136	-0.960159	0.438558
C131	C	0.333197	-0.626826	0.771891
C132	C	0.666530	-0.293492	1.105224
N133	N	-0.000130	-0.906369	0.313468
N134	N	0.333204	-0.573036	0.646801
N135	N	0.666537	-0.239703	0.980135
N136	N	-0.000137	-0.966917	0.354537
N137	N	0.333197	-0.633583	0.687870
N138	N	0.666530	-0.300250	1.021204
H139	H	-0.363257	-1.024890	-0.077297
H140	H	-0.029924	-0.691557	0.256037
H141	H	0.303410	-0.358224	0.589370
H142	H	-0.000097	-0.830505	0.437325
H143	H	0.333237	-0.497172	0.770658
H144	H	0.666570	-0.163839	1.103992
H145	H	-0.000171	-1.042779	0.230680
H146	H	0.333162	-0.709446	0.564014
H147	H	0.666495	-0.376112	0.897347
Br148	Br	-0.000112	-0.514995	-0.308951
Br149	Br	0.333221	-0.181662	0.024382
Br150	Br	0.666555	0.151672	0.357716
Br151	Br	-0.675888	-1.052069	-0.050022
Br152	Br	-0.342555	-0.718736	0.283311
Br153	Br	-0.009221	-0.385403	0.616645
H154	H	-0.412092	-0.895931	-0.206905
H155	H	-0.078759	-0.562598	0.126428
H156	H	0.254574	-0.229264	0.459762
H157	H	-0.000091	-0.689084	-0.284124
H158	H	0.333242	-0.355751	0.049210
H159	H	0.666576	-0.022417	0.382543
Br160	Br	-0.000215	-1.095177	0.061905
Br161	Br	0.333118	-0.761844	0.395239
Br162	Br	0.666451	-0.428510	0.728572
H163	H	-0.000116	-0.315574	-0.317942
H164	H	0.333218	0.017760	0.015391
H165	H	0.666551	0.351093	0.348724
H166	H	-0.000194	-0.184203	-0.047870
H167	H	0.333139	0.149130	0.285463
H168	H	0.666473	0.482463	0.618797
H169	H	-0.588233	-0.895948	-0.206912
H170	H	-0.254900	-0.562615	0.126422
H171	H	0.078433	-0.229281	0.459755
Br172	Br	-0.000141	-0.141480	-0.342773
Br173	Br	0.333193	0.191854	-0.009439
Br174	Br	0.666526	0.525187	0.323894
H175	H	-0.000192	-0.333322	-0.059859
H176	H	0.333141	0.000012	0.273475
H177	H	0.666474	0.333345	0.606808
Br178	Br	-0.000182	-0.538059	0.026353
Br179	Br	0.333151	-0.204725	0.359687
Br180	Br	0.666485	0.128608	0.693020
Br181	Br	-0.000157	-0.731814	0.010776
Br182	Br	0.333176	-0.398481	0.344109
Br183	Br	0.666509	-0.065148	0.677442
Br184	Br	-0.000141	-1.128995	0.435413
Br185	Br	0.333192	-0.795661	0.768747
Br186	Br	0.666525	-0.462328	1.102080
H187	H	-0.000166	-1.076596	0.604202
H188	H	0.333167	-0.743263	0.937535
H189	H	0.666501	-0.409930	1.270869
Br190	Br	-0.000106	-0.778112	0.606105
Br191	Br	0.333227	-0.444778	0.939438
Br192	Br	0.666561	-0.111445	1.272772
H193	H	-0.000099	-0.784703	0.212936
H194	H	0.333234	-0.451369	0.546270
H195	H	0.666567	-0.118036	0.879603
H196	H	-0.000116	-0.796688	0.063804
H197	H	0.333218	-0.463355	0.397138
H198	H	0.666551	-0.130022	0.730471
