data_functionalizedCrystal
_audit_creation_method	'MofGen! by Chris Wilmer'
_symmetry_space_group_name_H-M	'P1'
_symmetry_Int_Tables_number	1
_symmetry_cell_setting	triclinic
loop_
_symmetry_equiv_pos_as_xyz
  x,y,z
_cell_length_a	17.699077
_cell_length_b	11.792254
_cell_length_c	16.176319
_cell_angle_alpha	89.993043
_cell_angle_beta	89.993140
_cell_angle_gamma	83.739587
loop_
_atom_site_label
_atom_site_type_symbol
_atom_site_fract_x
_atom_site_fract_y
_atom_site_fract_z
O1	O	1.004851	0.143494	-0.068736
O2	O	1.504851	0.643494	0.431264
O3	O	0.784572	0.162174	-0.068740
O4	O	1.284572	0.662174	0.431260
O5	O	0.900052	-0.012400	-0.068732
O6	O	1.400052	0.487600	0.431268
O7	O	0.889371	0.318068	-0.068744
O8	O	1.389371	0.818068	0.431256
O9	O	0.900036	-0.012411	0.068761
O10	O	1.400036	0.487589	0.568761
O11	O	0.784556	0.162163	0.068753
O12	O	1.284556	0.662163	0.568753
O13	O	1.004835	0.143483	0.068757
O14	O	1.504835	0.643483	0.568757
Cu15	Cu	0.894694	0.152822	0.081309
Cu16	Cu	1.394694	0.652822	0.581309
Cu17	Cu	0.894713	0.152835	-0.081292
Cu18	Cu	1.394713	0.652835	0.418708
O19	O	0.889355	0.318057	0.068749
O20	O	1.389355	0.818057	0.568749
C21	C	0.756363	0.161500	0.000006
C22	C	1.256363	0.661500	0.500006
C23	C	0.672334	0.159496	0.000005
C24	C	1.172334	0.659496	0.500005
C25	C	0.632853	0.158545	0.074953
C26	C	1.132853	0.658545	0.574953
C27	C	0.553900	0.156643	0.074954
C28	C	1.053900	0.656643	0.574954
C29	C	0.514429	0.155700	0.000006
C30	C	1.014429	0.655700	0.500006
C31	C	0.553916	0.156648	-0.074949
C32	C	1.053916	0.656648	0.425051
C33	C	0.632868	0.158541	-0.074949
C34	C	1.132868	0.658541	0.425051
C35	C	0.235512	0.149010	-0.074950
C36	C	0.735512	0.649010	0.425050
C37	C	0.156554	0.147120	-0.074944
C38	C	0.656554	0.647120	0.425056
C39	C	0.156544	0.147112	0.074953
C40	C	0.656544	0.647112	0.574953
C41	C	0.235496	0.149006	0.074953
C42	C	0.735496	0.649006	0.574953
C43	C	0.274977	0.149947	-0.000001
C44	C	0.774977	0.649947	0.499999
C45	C	0.360586	0.152007	-0.000001
C46	C	0.860586	0.652007	0.499999
C47	C	0.428821	0.153649	0.000005
C48	C	0.928821	0.653649	0.500005
C49	C	0.899371	-0.054688	0.000014
C50	C	1.399371	0.445312	0.500014
C51	C	0.897357	-0.180677	0.000013
C52	C	1.397357	0.319323	0.500013
C53	C	0.895721	-0.282994	0.000011
C54	C	1.395721	0.217006	0.500011
C55	C	0.893675	-0.411356	0.000003
C56	C	1.393675	0.088644	0.500003
C57	C	1.033043	0.144156	0.000009
C58	C	1.533043	0.644156	0.500009
C59	C	1.117072	0.146161	0.000005
C60	C	1.617072	0.646161	0.500005
C61	C	0.890036	0.360345	0.000001
C62	C	1.390036	0.860345	0.500001
C63	C	0.892050	0.486333	-0.000004
C64	C	1.392050	0.986333	0.499996
N65	N	0.894686	0.152812	0.195675
N66	N	1.394686	0.652812	0.695675
N67	N	0.894727	0.152836	-0.195657
N68	N	1.394727	0.652836	0.304343
C69	C	0.945836	0.075542	0.238942
C70	C	1.445836	0.575542	0.738942
C71	C	0.945840	0.075541	0.325489
C72	C	1.445840	0.575541	0.825489
C73	C	0.894697	0.152816	0.368767
C74	C	1.394697	0.652816	0.868767
C75	C	0.843541	0.230089	0.325493
C76	C	1.343541	0.730089	0.825493
C77	C	0.843534	0.230084	0.238948
C78	C	1.343534	0.730084	0.738948
C79	C	0.843567	0.230110	0.674522
C80	C	1.343567	0.730110	1.174522
C81	C	0.843579	0.230112	0.761073
C82	C	1.343579	0.730112	1.261073
C83	C	0.945873	0.075567	0.761063
C84	C	1.445873	0.575567	1.261063
C85	C	0.945866	0.075562	0.674518
C86	C	1.445866	0.575562	1.174518
C87	C	0.894708	0.152831	0.631251
C88	C	1.394708	0.652831	1.131251
C89	C	0.894704	0.152830	0.537407
C90	C	1.394704	0.652830	1.037407
C91	C	0.894704	0.152823	0.462610
C92	C	1.394704	0.652823	0.962610
H93	H	0.665013	0.159317	-0.135979
H94	H	1.165013	0.659317	0.364021
H95	H	0.987526	0.012647	0.796300
H96	H	1.487526	0.512647	1.296300
H97	H	0.987514	0.012642	0.639284
H98	H	1.487514	0.512642	1.139284
O99	O	0.995546	0.000367	0.197034
O100	O	1.495546	0.500367	0.697034
C101	C	1.097039	-0.152885	0.206169
C102	C	1.597039	0.347115	0.706169
C103	C	1.040772	-0.067823	0.253729
C104	C	1.540772	0.432177	0.753729
H105	H	1.133630	-0.208022	0.251986
H106	H	1.633630	0.291978	0.751986
H107	H	1.064168	-0.209603	0.165688
H108	H	1.564168	0.290397	0.665688
H109	H	1.135012	-0.103937	0.165613
H110	H	1.635012	0.396063	0.665613
H111	H	1.002786	-0.116677	0.294330
H112	H	1.502786	0.383323	0.794330
H113	H	1.073691	-0.011106	0.294158
H114	H	1.573691	0.488894	0.794158
O115	O	0.118333	0.146150	-0.147827
O116	O	0.618333	0.646150	0.352173
C117	C	0.126665	0.146413	-0.296511
C118	C	0.626665	0.646413	0.203489
C119	C	0.170048	0.147483	-0.214037
C120	C	0.670048	0.647483	0.285963
H121	H	0.168456	0.147515	-0.350063
H122	H	0.668456	0.647515	0.149937
H123	H	0.096324	0.066115	-0.300304
H124	H	0.596324	0.566115	0.199696
H125	H	0.083083	0.224907	-0.300217
H126	H	0.583083	0.724907	0.199783
H127	H	0.213666	0.069044	-0.210276
H128	H	0.713666	0.569044	0.289724
H129	H	0.200337	0.227833	-0.210279
H130	H	0.700337	0.727833	0.289721
H131	H	0.987490	0.012621	0.360718
H132	H	1.487490	0.512621	0.860718
H133	H	0.801930	0.293041	0.796309
H134	H	1.301930	0.793041	1.296309
H135	H	0.801914	0.293027	0.639301
H136	H	1.301914	0.793027	1.139301
H137	H	0.521774	0.155872	-0.135973
H138	H	1.021774	0.655872	0.364027
O139	O	0.793933	0.305112	0.367659
O140	O	1.293933	0.805112	0.867659
C141	C	0.748578	0.373576	0.500988
C142	C	1.248578	0.873576	1.000988
C143	C	0.804811	0.288564	0.453342
C144	C	1.304811	0.788564	0.953342
H145	H	0.757343	0.360211	0.570271
H146	H	1.257343	0.860211	1.070271
H147	H	0.758811	0.464486	0.484018
H148	H	1.258811	0.964486	0.984018
H149	H	0.687907	0.358912	0.483940
H150	H	1.187907	0.858912	0.983940
H151	H	0.865504	0.303124	0.470365
H152	H	1.365504	0.803124	0.970365
H153	H	0.794512	0.197684	0.470317
H154	H	1.294512	0.697684	0.970317
H155	H	0.801882	0.293003	0.203720
H156	H	1.301882	0.793003	0.703720
H157	H	0.521760	0.155850	0.135985
H158	H	1.021760	0.655850	0.635985
O159	O	0.671079	0.159406	0.147833
O160	O	1.171079	0.659406	0.647833
C161	C	0.662722	0.159255	0.296516
C162	C	1.162722	0.659255	0.796516
C163	C	0.619342	0.158257	0.214037
C164	C	1.119342	0.658257	0.714037
H165	H	0.620909	0.158351	0.350063
H166	H	1.120909	0.658351	0.850063
H167	H	0.706267	0.080725	0.300322
H168	H	1.206267	0.580725	0.800322
H169	H	0.693105	0.239519	0.300218
H170	H	1.193105	0.739519	0.800218
H171	H	0.588913	0.078046	0.210279
H172	H	1.088913	0.578046	0.710279
H173	H	0.575840	0.236841	0.210266
H174	H	1.075840	0.736841	0.710266
H175	H	0.124390	0.146341	0.135984
H176	H	0.624390	0.646341	0.635984
O177	O	0.273819	0.149717	0.147779
O178	O	0.773819	0.649717	0.647779
C179	C	0.306099	0.052024	0.275922
C180	C	0.806099	0.552024	0.775922
C181	C	0.262679	0.051069	0.193467
C182	C	0.762679	0.551069	0.693467
H183	H	0.297095	-0.027711	0.312891
H184	H	0.797095	0.472289	0.812891
H185	H	0.369325	0.053468	0.263098
H186	H	0.869325	0.553468	0.763098
H187	H	0.283977	0.131080	0.312848
H188	H	0.783977	0.631080	0.812848
H189	H	0.284737	-0.027974	0.156500
H190	H	0.784737	0.472026	0.656500
H191	H	0.199459	0.049686	0.206350
H192	H	0.699459	0.549686	0.706350
O193	O	0.273923	0.150090	-0.147706
O194	O	0.773923	0.650090	0.352294
C195	C	0.354849	0.250558	-0.234741
C196	C	0.854849	0.750558	0.265259
C197	C	0.311396	0.249462	-0.152302
C198	C	0.811396	0.749462	0.347698
H199	H	0.385144	0.330904	-0.238491
H200	H	0.885144	0.830904	0.261509
H201	H	0.398460	0.172103	-0.238507
H202	H	0.898460	0.672103	0.261493
H203	H	0.313060	0.249510	-0.288288
H204	H	0.813060	0.749510	0.211712
H205	H	0.353128	0.250550	-0.098708
H206	H	0.853128	0.750550	0.401292
H207	H	0.267774	0.327910	-0.148608
H208	H	0.767774	0.827910	0.351392
