data_functionalizedCrystal
_audit_creation_method	'MofGen! by Chris Wilmer'
_symmetry_space_group_name_H-M	'P1'
_symmetry_Int_Tables_number	1
_symmetry_cell_setting	triclinic
loop_
_symmetry_equiv_pos_as_xyz
  x,y,z
_cell_length_a	11.169417
_cell_length_b	12.759400
_cell_length_c	12.759393
_cell_angle_alpha	89.968436
_cell_angle_beta	89.981660
_cell_angle_gamma	90.015563
loop_
_atom_site_label
_atom_site_type_symbol
_atom_site_fract_x
_atom_site_fract_y
_atom_site_fract_z
Zn1	Zn	1.834908	-0.418180	-0.593977
Zn2	Zn	1.834788	-0.593899	-0.418297
Zn3	Zn	1.634200	-0.418237	-0.418317
Zn4	Zn	1.634187	-0.593820	-0.593939
O5	O	1.734521	-0.506034	-0.506132
O6	O	2.002842	-0.441498	-0.570680
O7	O	1.808134	-0.570654	-0.271279
O8	O	1.660880	-0.271208	-0.441643
O9	O	2.002754	-0.570598	-0.441609
O10	O	1.808340	-0.271166	-0.570699
O11	O	1.660763	-0.441596	-0.271293
O12	O	1.466248	-0.441519	-0.441606
O13	O	1.660858	-0.570464	-0.740965
O14	O	1.466239	-0.570519	-0.570635
O15	O	1.808327	-0.441422	-0.740993
O16	O	1.808122	-0.740909	-0.441572
O17	O	1.660741	-0.740851	-0.570616
C18	C	1.422696	-0.506018	-0.506119
C19	C	1.289296	-0.506036	-0.506138
C20	C	1.734449	-0.779001	-0.506111
C21	C	1.734529	-0.895778	-0.506136
C22	C	1.811355	-0.950635	-0.439018
C23	C	1.811429	-1.060359	-0.439050
C24	C	1.657840	-1.060359	-0.573323
C25	C	1.657773	-0.950637	-0.573295
C26	C	1.888111	-0.895776	-0.371859
C27	C	1.964943	-0.950633	-0.304734
C28	C	1.965016	-1.060357	-0.304767
C29	C	1.888258	-1.115224	-0.371924
C30	C	2.047563	-0.506051	-0.506147
C31	C	2.180963	-0.506058	-0.506153
C32	C	1.734605	-0.505928	-0.780166
C33	C	1.734640	-0.505883	-0.896943
C34	C	1.734625	-0.232000	-0.506177
C35	C	1.734669	-0.115224	-0.506197
C36	C	1.811438	-0.438684	-0.951821
C37	C	1.811467	-0.438646	-1.061545
C38	C	1.657896	-0.573014	-1.061503
C39	C	1.657863	-0.573046	-0.951781
C40	C	1.888216	-0.371520	-0.896983
C41	C	1.965021	-0.304317	-0.951861
C42	C	1.965050	-0.304279	-1.061585
C43	C	1.888273	-0.371444	-1.116431
C44	C	1.734506	-0.506064	-0.233165
C45	C	1.734703	-0.505813	-0.116389
H46	H	1.888056	-0.806433	-0.371822
H47	H	2.027523	-0.249627	-0.907198
H48	H	1.595388	-0.627697	-1.106167
H49	H	1.595346	-1.105040	-0.627998
C50	C	2.049376	-0.890285	-0.230868
C51	C	2.039666	-0.905480	-0.111429
C52	C	2.124103	-0.845134	-0.037563
C53	C	2.218250	-0.769592	-0.083135
C54	C	2.227964	-0.754393	-0.202580
C55	C	2.143527	-0.814739	-0.276447
H56	H	1.969970	-0.961404	-0.077689
H57	H	2.116912	-0.856386	0.050859
H58	H	2.280755	-0.724920	-0.028454
H59	H	2.297660	-0.698469	-0.236321
H60	H	2.150718	-0.803487	-0.364868
C61	C	1.573399	-0.646967	-0.891395
C62	C	1.436966	-0.638391	-0.906459
C63	C	1.352502	-0.712310	-0.846067
C64	C	1.404472	-0.794805	-0.770611
C65	C	1.540912	-0.803385	-0.755544
C66	C	1.625376	-0.729466	-0.815936
H67	H	1.398489	-0.577320	-0.962318
H68	H	1.251500	-0.705958	-0.857221
H69	H	1.341947	-0.849525	-0.725906
H70	H	1.579390	-0.864456	-0.699685
H71	H	1.726379	-0.735818	-0.804782
H72	H	2.027580	-0.249551	-1.106264
H73	H	2.027585	-1.105019	-0.250118
H74	H	1.888334	-1.204569	-0.371953
H75	H	1.595215	-0.905972	-0.627950
H76	H	1.888289	-0.371396	-1.205776
H77	H	1.888204	-0.371546	-0.807640
