data_functionalizedCrystal
_audit_creation_method	'MofGen! by Chris Wilmer'
_symmetry_space_group_name_H-M	'P1'
_symmetry_Int_Tables_number	1
_symmetry_cell_setting	triclinic
loop_
_symmetry_equiv_pos_as_xyz
  x,y,z
_cell_length_a	16.992694
_cell_length_b	16.992695
_cell_length_c	7.540329
_cell_angle_alpha	89.996072
_cell_angle_beta	90.002664
_cell_angle_gamma	90.668223
loop_
_atom_site_label
_atom_site_type_symbol
_atom_site_fract_x
_atom_site_fract_y
_atom_site_fract_z
O1	O	1.050849	0.166915	-0.147262
O2	O	0.822449	0.165084	-0.147314
O3	O	0.935733	0.051800	-0.147274
O4	O	0.937564	0.280200	-0.147302
O5	O	0.935726	0.051798	0.147691
O6	O	0.822442	0.165082	0.147651
O7	O	1.050842	0.166913	0.147703
Cu8	Cu	0.936641	0.165998	0.174610
Cu9	Cu	0.936650	0.166000	-0.174221
O10	O	0.937557	0.280198	0.147663
C11	C	0.793085	0.162727	0.000162
C12	C	0.705600	0.155699	0.000142
C13	C	0.659610	0.223517	0.000135
C14	C	0.577409	0.216908	0.000161
C15	C	0.541201	0.142480	0.000180
C16	C	0.587198	0.074657	0.000192
C17	C	0.669397	0.081267	0.000180
C18	C	0.295886	0.115086	0.000231
C19	C	0.213681	0.108481	0.000238
C20	C	0.203898	0.250732	0.000210
C21	C	0.286099	0.257336	0.000187
C22	C	0.332089	0.189512	0.000208
N23	N	0.457178	0.135723	0.000200
N24	N	0.416110	0.196270	0.000201
C25	C	0.933374	0.022439	0.000208
C26	C	0.926345	-0.065046	0.000206
C27	C	0.994163	-0.111037	0.000223
C28	C	0.987554	-0.193238	0.000205
C29	C	0.913127	-0.229446	0.000182
C30	C	0.845303	-0.183449	0.000159
C31	C	0.851913	-0.101250	0.000165
C32	C	0.885732	-0.474760	0.000151
C33	C	0.879127	-0.556966	0.000151
C34	C	1.021379	-0.566749	0.000193
C35	C	1.027982	-0.484547	0.000209
C36	C	0.960159	-0.438558	0.000177
N37	N	0.906369	-0.313468	0.000169
N38	N	0.966917	-0.354537	0.000178
C39	C	1.080205	0.169270	0.000223
C40	C	1.167690	0.176299	0.000231
C41	C	0.939917	0.309559	0.000178
C42	C	0.946945	0.397044	0.000168
N43	N	0.936641	0.165996	0.419958
N44	N	0.936656	0.165996	-0.419569
H45	H	0.689084	0.284124	0.000118
H46	H	1.042779	-0.230680	0.000223
N47	N	1.074441	-0.071991	0.000259
H48	H	1.080360	-0.038097	-0.109075
H49	H	1.080298	-0.038154	0.109684
N50	N	0.798847	-0.596019	0.000108
H51	H	0.804954	-0.655070	0.000119
H52	H	0.768936	-0.579517	0.109442
N53	N	0.325137	0.337617	0.000178
H54	H	0.359029	0.343534	0.109514
H55	H	0.358975	0.343485	-0.109245
N56	N	0.345472	0.041930	0.000228
H57	H	0.379791	0.041498	-0.109119
H58	H	0.379751	0.041534	0.109641
N59	N	0.548140	-0.005616	0.000234
H60	H	0.514249	-0.011531	-0.109104
H61	H	0.589793	-0.047530	0.000312
N62	N	0.765025	-0.222495	0.000147
H63	H	0.735083	-0.206048	-0.109204
H64	H	0.771191	-0.281537	0.000222
H65	H	0.706842	0.026042	0.000184
H66	H	1.076596	-0.604202	0.000216
H67	H	0.539966	0.272133	0.000153
N68	N	0.154296	0.323881	0.000190
H69	H	0.096729	0.308403	0.000202
H70	H	0.166533	0.356094	0.109531
H71	H	1.088589	-0.455073	0.000228
N72	N	0.812583	-0.425163	0.000124
H73	H	0.764433	-0.460576	0.000118
H74	H	0.812223	-0.390848	0.109471
H75	H	0.184203	0.047870	0.000252
H76	H	0.796688	-0.063804	0.000150
