data_functionalizedCrystal
_audit_creation_method	'MofGen! by Chris Wilmer'
_symmetry_space_group_name_H-M	'P1'
_symmetry_Int_Tables_number	1
_symmetry_cell_setting	triclinic
loop_
_symmetry_equiv_pos_as_xyz
  x,y,z
_cell_length_a	17.052862
_cell_length_b	15.698487
_cell_length_c	17.052862
_cell_angle_alpha	70.265441
_cell_angle_beta	92.606806
_cell_angle_gamma	50.258795
loop_
_atom_site_label
_atom_site_type_symbol
_atom_site_fract_x
_atom_site_fract_y
_atom_site_fract_z
Zr1	Zr	0.908859	0.644535	0.030302
O2	O	0.780697	0.822246	-0.097858
O3	O	0.948148	0.466823	0.069587
O4	O	0.973998	0.589668	-0.072013
O5	O	0.734454	0.742682	0.155441
O6	O	1.126477	0.546388	-0.051623
O7	O	0.754846	0.699401	0.043742
O8	O	1.080236	0.326641	0.201673
O9	O	0.780696	0.962429	-0.097855
O10	O	1.078697	0.507619	0.101561
O11	O	0.949685	0.572218	0.169704
O12	O	0.980121	0.716852	0.002989
O13	O	0.851109	0.781451	0.071132
Zr14	Zr	1.119523	0.644535	0.240967
Zr15	Zr	1.152045	0.575508	0.062820
Zr16	Zr	0.876336	0.713561	0.208448
Zr17	Zr	0.908858	0.868109	0.030306
Zr18	Zr	1.119524	0.420961	0.240963
O19	O	1.080234	0.822247	0.201682
O20	O	1.126477	0.724100	-0.051620
O21	O	0.734454	0.920394	0.155444
O22	O	1.247685	0.466823	0.369126
O23	O	1.293928	0.368676	0.115825
O24	O	0.901905	0.564970	0.322889
O25	O	1.293927	0.546388	0.115828
O26	O	1.054383	0.699402	0.343281
O27	O	0.901904	0.742682	0.322892
O28	O	1.273535	0.589668	0.227527
O29	O	0.973997	0.907562	-0.072007
O30	O	1.054385	0.381508	0.343276
O31	O	1.247686	0.326641	0.369124
O32	O	1.273537	0.271774	0.227521
O33	O	0.754845	1.017296	0.043748
O34	O	0.948146	0.962429	0.069596
O35	O	1.048261	0.572218	0.268280
O36	O	1.177272	0.507619	0.200137
O37	O	1.078696	0.716852	0.101565
O38	O	0.949685	0.781451	0.169708
C39	C	0.710001	0.730876	0.094958
C40	C	0.606762	0.760180	0.081153
C41	C	1.014192	0.364877	0.135629
C42	C	1.014193	0.269964	0.135628
C43	C	0.521577	0.405900	0.248055
C44	C	0.618578	0.378362	0.261022
C45	C	0.615630	0.473814	0.216057
C46	C	0.515669	0.596809	0.158121
C47	C	0.418660	0.624347	0.145147
C48	C	0.512712	0.692261	0.113148
C49	C	0.412752	0.815256	0.055212
C50	C	0.315753	0.842790	0.042241
C51	C	0.318702	0.747338	0.087207
C52	C	0.609722	0.664723	0.126122
C53	C	0.506804	0.883170	0.023214
C54	C	0.409803	0.910708	0.010246
C55	C	1.014187	0.096188	0.135642
C56	C	1.014187	0.192890	0.135636
C57	C	1.318380	0.558194	0.176310
C58	C	1.421619	0.528890	0.190115
C59	C	1.054872	0.558193	-0.087200
C60	C	1.068678	0.528889	-0.162828
C61	C	1.014190	0.924193	0.135639
C62	C	1.014189	1.019106	0.135641
C63	C	0.901757	0.883171	-0.581832
C64	C	0.888778	0.910708	-0.510778
C65	C	0.933752	0.815256	-0.423788
C66	C	0.991707	0.692261	-0.407857
C67	C	1.004679	0.664723	-0.478919
C68	C	1.036675	0.596809	-0.320874
C69	C	1.094629	0.473814	-0.304943
C70	C	1.107600	0.446281	-0.375999
C71	C	1.062626	0.541733	-0.462990
C72	C	1.023702	0.624347	-0.249813
C73	C	1.126625	0.405899	-0.146899
C74	C	1.139604	0.378362	-0.217953
C75	C	0.973510	0.730877	0.358469
C76	C	0.959703	0.760181	0.434097
C77	C	1.318381	0.278536	0.176305
C78	C	1.421621	0.154319	0.190109
C79	C	0.973511	0.451219	0.358464
C80	C	0.959705	0.385609	0.434090
C81	C	1.277701	0.364878	0.399140
C82	C	1.367134	0.269965	0.488571
C83	C	0.750681	0.924192	-0.127871
C84	C	0.661248	1.019105	-0.217302
C85	C	0.710000	1.010534	0.094963
C86	C	0.606761	1.134751	0.081160
C87	C	1.054870	0.837851	-0.087195
C88	C	1.068676	0.903460	-0.162821
C89	C	1.418649	0.095983	0.145128
C90	C	1.515648	-0.020724	0.158080
C91	C	1.615615	-0.079095	0.216018
C92	C	1.618584	-0.020749	0.260999
C93	C	1.521588	0.095959	0.248042
C94	C	1.004675	0.354802	0.521068
C95	C	0.991697	0.293171	0.592133
C96	C	0.933755	0.262341	0.576219
C97	C	0.888779	0.293156	0.489232
C98	C	0.901751	0.354794	0.418168
C99	C	1.476485	0.191670	0.495000
C100	C	1.560527	0.102496	0.579025
C101	C	1.535216	0.091613	0.656619
C102	C	1.425853	0.169919	0.650187
C103	C	1.341813	0.259097	0.566163
C104	C	0.551897	1.097411	-0.223732
C105	C	0.467854	1.186612	-0.307756
C106	C	0.493166	1.197500	-0.385351
C107	C	0.602529	1.119188	-0.378918
C108	C	0.686569	1.029995	-0.294895
C109	C	0.609734	1.193094	0.126133
C110	C	0.512739	1.309817	0.113162
C111	C	0.412772	1.368191	0.055222
C112	C	0.409802	1.309842	0.010243
C113	C	0.506796	1.193125	0.023210
C114	C	1.126625	0.934269	-0.146879
C115	C	1.139619	0.995901	-0.217928
C116	C	1.094656	1.026731	-0.304920
C117	C	1.036705	0.995915	-0.320860
C118	C	1.023719	0.934276	-0.249811
H119	H	0.691101	0.564581	0.173300
H120	H	0.694615	0.451385	0.226618
H121	H	1.524022	0.143445	0.284678
Br122	Br	0.274136	1.077625	-0.068376
H123	H	1.051856	0.379897	0.534042
Br124	Br	0.636862	1.133977	-0.484234
H125	H	0.775607	0.966234	-0.289670
H126	H	1.186804	1.020987	-0.204932
Br127	Br	1.052746	0.251360	0.710177
H128	H	1.105237	1.076921	-0.362765
H129	H	0.515178	1.357307	0.149795
H130	H	1.000099	1.021026	-0.391698
Br131	Br	1.187657	0.892443	-0.028827
H132	H	0.691122	1.145577	0.173319
H133	H	1.405259	0.161044	0.713376
H134	H	0.424725	1.270132	-0.453762
H135	H	0.504360	1.145628	-0.013413
Br136	Br	0.281145	1.526595	0.037634
Br137	Br	0.810147	0.251306	0.467649
Br138	Br	1.193408	0.365344	0.557454
H139	H	1.497115	0.200512	0.431828
H140	H	0.976527	0.909200	-0.262805
Br141	Br	0.274122	1.389078	-0.068385
H142	H	0.699962	0.278215	0.308184
H143	H	0.976513	0.724491	-0.262793
Br144	Br	0.319445	1.292875	-0.316464
Br145	Br	0.525571	0.276369	0.309063
H146	H	1.154781	0.346133	-0.363023
H147	H	1.694588	-0.174128	0.226561
H148	H	0.239719	0.769754	0.076656
H149	H	0.504400	0.960894	-0.013403
Br150	Br	0.916140	0.852629	-0.327356
Br151	Br	0.810088	1.077634	-0.532406
Br152	Br	0.180095	1.009708	-0.036395
H153	H	0.865139	0.960876	-0.652662
H154	H	1.186790	0.278219	-0.204994
Br155	Br	1.080241	0.504364	-0.559426
Br156	Br	0.916160	0.178689	0.672675
H157	H	1.337262	0.143501	0.097940
H158	H	1.163242	0.328175	-0.076069
H159	H	1.513209	-0.068214	0.121447
H160	H	1.699991	-0.068293	0.308172
Br161	Br	0.840716	0.396591	0.300128
Br162	Br	0.517515	1.082657	-0.118438
H163	H	1.649569	0.038743	0.584247
H164	H	1.603657	0.018993	0.725031
