data_functionalizedCrystal
_audit_creation_method	'MofGen! by Chris Wilmer'
_symmetry_space_group_name_H-M	'P1'
_symmetry_Int_Tables_number	1
_symmetry_cell_setting	triclinic
loop_
_symmetry_equiv_pos_as_xyz
  x,y,z
_cell_length_a	18.050591
_cell_length_b	12.594516
_cell_length_c	12.594510
_cell_angle_alpha	90.031906
_cell_angle_beta	89.971513
_cell_angle_gamma	89.987941
loop_
_atom_site_label
_atom_site_type_symbol
_atom_site_fract_x
_atom_site_fract_y
_atom_site_fract_z
Zn1	Zn	1.135411	0.423763	-0.602037
Zn2	Zn	1.135331	0.601791	-0.424065
Zn3	Zn	1.011214	0.423815	-0.424048
Zn4	Zn	1.011204	0.601688	-0.601977
O5	O	1.073290	0.512764	-0.513032
O6	O	1.239325	0.447401	-0.578461
O7	O	1.118838	0.578247	-0.275117
O8	O	1.027726	0.274862	-0.447677
O9	O	1.239267	0.578197	-0.447705
O10	O	1.118973	0.274824	-0.578444
O11	O	1.027649	0.447489	-0.275104
O12	O	0.907288	0.447388	-0.447619
O13	O	1.027710	0.578021	-0.750931
O14	O	0.907281	0.578071	-0.578342
O15	O	1.118964	0.447301	-0.750975
O16	O	1.118829	0.750723	-0.447647
O17	O	1.027633	0.750647	-0.578358
C18	C	0.880338	0.512725	-0.512973
C19	C	0.797792	0.512733	-0.512973
C20	C	1.073241	0.789305	-0.513021
C21	C	1.073289	0.907611	-0.513052
C22	C	1.073345	0.512644	-0.790653
C23	C	1.073368	0.512592	-0.908958
C24	C	0.598324	0.441586	-0.442049
C25	C	0.548916	0.538673	-0.415866
C26	C	0.646662	0.512766	-0.513021
C27	C	0.548988	0.415713	-0.539202
C28	C	0.500677	0.512788	-0.513065
C29	C	0.598341	0.609903	-0.486787
C30	C	0.598418	0.486878	-0.610168
C31	C	0.549032	0.584032	-0.584021
C32	C	0.730760	0.512751	-0.512993
C33	C	0.416580	0.512814	-0.513094
C34	C	1.266996	0.512805	-0.513091
C35	C	1.349541	0.512822	-0.513117
C36	C	1.073359	0.235144	-0.513065
C37	C	1.073389	0.116838	-0.513080
C38	C	1.023682	0.976861	-0.584096
C39	C	1.005586	1.047734	-0.486971
C40	C	1.091453	1.047537	-0.610195
C41	C	1.055156	0.976926	-0.415875
C42	C	1.141054	0.976722	-0.539165
C43	C	1.122984	1.047563	-0.441972
C44	C	1.123019	0.441472	-1.048999
C45	C	1.141151	0.538595	-0.978184
C46	C	1.055269	0.415481	-0.978201
C47	C	1.091567	0.609733	-1.048929
C48	C	1.005653	0.486554	-1.048953
C49	C	1.023759	0.583743	-0.978170
C50	C	1.073278	0.512808	-0.236491
C51	C	1.073399	0.512560	-0.118186
H52	H	0.619967	0.381456	-0.381965
H53	H	0.981784	0.643943	-0.947268
H54	H	1.106971	0.691863	-1.079868
H55	H	0.948391	0.464508	-1.080063
H56	H	1.106775	1.078554	-0.692336
H57	H	1.039948	0.333369	-0.947130
H58	H	1.039767	0.946037	-0.333712
H59	H	0.620177	0.464936	-0.692280
H60	H	1.165026	0.381416	-1.080097
H61	H	1.198429	0.560610	-0.947095
C62	C	0.519703	0.304818	-0.569097
N63	N	0.497649	0.221289	-0.591607
C64	C	0.519537	0.568271	-0.304905
N65	N	0.497409	0.590557	-0.221328
C66	C	1.218389	0.934532	-0.569045
N67	N	1.276635	0.902747	-0.591565
H68	H	0.981657	0.945817	-0.644088
C69	C	0.627504	0.720829	-0.456760
N70	N	0.649471	0.804374	-0.434139
H71	H	0.948324	1.078950	-0.464907
H72	H	0.527525	0.644305	-0.644059
H73	H	1.164977	1.078411	-0.381835
