data_functionalizedCrystal
_audit_creation_method	'MofGen! by Chris Wilmer'
_symmetry_space_group_name_H-M	'P1'
_symmetry_Int_Tables_number	1
_symmetry_cell_setting	triclinic
loop_
_symmetry_equiv_pos_as_xyz
  x,y,z
_cell_length_a	16.959455
_cell_length_b	18.215405
_cell_length_c	18.215399
_cell_angle_alpha	90.027541
_cell_angle_beta	89.976715
_cell_angle_gamma	89.979087
loop_
_atom_site_label
_atom_site_type_symbol
_atom_site_fract_x
_atom_site_fract_y
_atom_site_fract_z
Zn1	Zn	-1.208402	-0.293027	0.416186
Zn2	Zn	-0.708402	0.206973	0.916186
Zn3	Zn	-1.208309	-0.416099	0.293120
Zn4	Zn	-0.708309	0.083901	0.793120
Zn5	Zn	-1.076221	-0.293047	0.293126
Zn6	Zn	-0.576221	0.206953	0.793126
Zn7	Zn	-1.076189	-0.416053	0.416138
Zn8	Zn	-0.576189	0.083947	0.916138
O9	O	-1.142280	-0.354556	0.354642
O10	O	-0.642280	0.145444	0.854642
O11	O	-1.319001	-0.309364	0.399879
O12	O	-0.819001	0.190636	0.899879
O13	O	-1.190761	-0.399803	0.190137
O14	O	-0.690761	0.100197	0.690137
O15	O	-1.093807	-0.190060	0.309472
O16	O	-0.593807	0.309940	0.809472
O17	O	-1.318932	-0.399784	0.309463
O18	O	-0.818932	0.100216	0.809463
O19	O	-1.190921	-0.190046	0.399884
O20	O	-0.690921	0.309954	0.899884
O21	O	-1.093717	-0.309397	0.190141
O22	O	-0.593717	0.190603	0.690141
O23	O	-0.965606	-0.309353	0.309426
O24	O	-0.465606	0.190647	0.809426
O25	O	-1.093753	-0.399706	0.519128
O26	O	-0.593753	0.100294	1.019128
O27	O	-0.965583	-0.399725	0.399802
O28	O	-0.465583	0.100275	0.899802
O29	O	-1.190890	-0.309320	0.519164
O30	O	-0.690890	0.190680	1.019164
O31	O	-1.190731	-0.519077	0.309417
O32	O	-0.690731	-0.019077	0.809417
O33	O	-1.093663	-0.519043	0.399797
O34	O	-0.593663	-0.019043	0.899797
C35	C	-0.936914	-0.354536	0.354610
C36	C	-0.436914	0.145464	0.854610
C37	C	-0.849057	-0.354545	0.354613
C38	C	-0.349057	0.145455	0.854613
C39	C	-0.807772	-0.307425	0.307632
C40	C	-0.307772	0.192575	0.807632
C41	C	-0.807789	-0.401670	0.401602
C42	C	-0.307789	0.098330	0.901602
C43	C	-0.725243	-0.401678	0.401610
C44	C	-0.225243	0.098322	0.901610
C45	C	-0.683958	-0.354557	0.354629
C46	C	-0.183958	0.145443	0.854629
C47	C	-0.725219	-0.307430	0.307640
C48	C	-0.225219	0.192570	0.807640
C49	C	-0.683977	-0.448799	0.448603
C50	C	-0.183977	0.051201	0.948603
C51	C	-0.601426	-0.448808	0.448613
C52	C	-0.101426	0.051192	0.948613
C53	C	-0.560139	-0.401691	0.401628
C54	C	-0.060139	0.098309	0.901628
C55	C	-0.601405	-0.354562	0.354637
C56	C	-0.101405	0.145438	0.854637
C57	C	-0.560119	-0.307441	0.307655
C58	C	-0.060119	0.192559	0.807655
C59	C	-0.601383	-0.260316	0.260660
C60	C	-0.101383	0.239684	0.760660
C61	C	-0.683932	-0.260312	0.260655
C62	C	-0.183932	0.239688	0.760655
C63	C	-0.477590	-0.401694	0.401633
C64	C	0.022410	0.098306	0.901633
C65	C	-0.477566	-0.307446	0.307663
C66	C	0.022434	0.192554	0.807663
C67	C	-1.142205	-0.545763	0.354617
C68	C	-0.642205	-0.045763	0.854617
C69	C	-1.142245	-0.627562	0.354631
C70	C	-0.642245	-0.127562	0.854631
C71	C	-1.142329	-0.354506	0.546595
C72	C	-0.642329	0.145494	1.046595
C73	C	-1.142349	-0.354484	0.628394
C74	C	-0.642349	0.145516	1.128394
C75	C	-0.348449	-0.354574	0.354666
C76	C	0.151551	0.145426	0.854666
C77	C	-0.436305	-0.354574	0.354652
C78	C	0.063695	0.145426	0.854652
C79	C	-1.192835	-0.815687	0.401772
C80	C	-0.692835	-0.315687	0.901772
C81	C	-1.192864	-0.892546	0.401786
C82	C	-0.692864	-0.392546	0.901786
C83	C	-1.091823	-0.892674	0.307559
C84	C	-0.591823	-0.392674	0.807559
C85	C	-1.091791	-0.815816	0.307549
C86	C	-0.591791	-0.315816	0.807549
C87	C	-1.142302	-0.777325	0.354655
C88	C	-0.642302	-0.277325	0.854655
C89	C	-1.142362	-0.931041	0.354678
C90	C	-0.642362	-0.431041	0.854678
C91	C	-1.142393	-1.014375	0.354693
C92	C	-0.642393	-0.514375	0.854693
C93	C	-1.142270	-0.693986	0.354641
C94	C	-0.642270	-0.193986	0.854641
C95	C	-1.142378	-0.162604	0.354684
C96	C	-0.642378	0.337396	0.854684
C97	C	-1.142420	-0.080805	0.354702
C98	C	-0.642420	0.419195	0.854702
C99	C	-1.142278	-0.354554	0.163436
C100	C	-0.642278	0.145446	0.663436
C101	C	-1.142411	-0.354368	0.081638
C102	C	-0.642411	0.145632	0.581638
C103	C	-1.192946	-0.307376	0.816608
C104	C	-0.692946	0.192624	1.316608
C105	C	-1.192956	-0.307355	0.893467
C106	C	-0.692956	0.192645	1.393467
C107	C	-1.091808	-0.401478	0.893419
C108	C	-0.591808	0.098522	1.393419
C109	C	-1.091795	-0.401496	0.816561
C110	C	-0.591795	0.098504	1.316561
C111	C	-1.142369	-0.354445	0.778158
C112	C	-0.642369	0.145555	1.278158
C113	C	-1.142391	-0.354407	0.931874
C114	C	-0.642391	0.145593	1.431874
C115	C	-1.142401	-0.354384	1.015208
C116	C	-0.642401	0.145616	1.515208
C117	C	-1.142358	-0.354467	0.694819
C118	C	-0.642358	0.145533	1.194819
H119	H	-0.567758	-0.221947	0.222412
H120	H	-0.067758	0.278053	0.722412
Br121	Br	-1.023142	-0.465374	0.764374
Br122	Br	-0.523142	0.034626	1.264374
H123	H	-0.841373	-0.269058	0.269368
H124	H	-0.341373	0.230942	0.769368
Br125	Br	-0.421542	-0.243499	0.243894
Br126	Br	0.078458	0.256501	0.743894
H127	H	-1.233963	-0.784349	0.440129
H128	H	-0.733963	-0.284349	0.940129
Br129	Br	-0.739937	-0.196359	0.196884
Br130	Br	-0.239937	0.303641	0.696884
Br131	Br	-1.023274	-0.944916	0.243635
Br132	Br	-0.523274	-0.444916	0.743635
Br133	Br	-1.261580	-0.243521	0.764491
Br134	Br	-0.761580	0.256479	1.264491
Br135	Br	-0.863819	-0.465621	0.465354
Br136	Br	-0.363819	0.034379	0.965354
Br137	Br	-0.740009	-0.512757	0.512345
Br138	Br	-0.240009	-0.012757	1.012345
Br139	Br	-1.023196	-0.763749	0.243607
Br140	Br	-0.523196	-0.263749	0.743607
H141	H	-1.050634	-0.439787	0.924696
H142	H	-0.550634	0.060213	1.424696
Br143	Br	-0.545431	-0.512764	0.512389
Br144	Br	-0.045431	-0.012764	1.012389
Br145	Br	-0.421592	-0.465638	0.465414
Br146	Br	0.078408	0.034362	0.965414
H147	H	-1.234012	-0.923777	0.440155
H148	H	-0.734012	-0.423777	0.940155
H149	H	-1.234139	-0.269025	0.924769
H150	H	-0.734139	0.230975	1.424769
