data_functionalizedCrystal
_audit_creation_method	'MofGen! by Chris Wilmer'
_symmetry_space_group_name_H-M	'P1'
_symmetry_Int_Tables_number	1
_symmetry_cell_setting	triclinic
loop_
_symmetry_equiv_pos_as_xyz
  x,y,z
_cell_length_a	11.026607
_cell_length_b	19.288865
_cell_length_c	9.482899
_cell_angle_alpha	80.697918
_cell_angle_beta	78.627193
_cell_angle_gamma	84.138868
loop_
_atom_site_label
_atom_site_type_symbol
_atom_site_fract_x
_atom_site_fract_y
_atom_site_fract_z
O1	O	1.589571	-0.299153	0.120964
O2	O	1.236447	-0.266055	0.120958
O3	O	1.423217	-0.182766	0.120932
O4	O	1.402801	-0.382442	0.120990
O5	O	1.461187	-0.165783	-0.120865
O6	O	1.274417	-0.249072	-0.120839
O7	O	1.627541	-0.282170	-0.120834
Cu8	Cu	1.454446	-0.264071	-0.142915
Cu9	Cu	1.409542	-0.284154	0.143039
O10	O	1.440771	-0.365459	-0.120808
C11	C	1.210255	-0.251458	0.000058
C12	C	1.075641	-0.233256	0.000055
C13	C	1.441546	-0.148314	0.000029
C14	C	1.439577	-0.070960	0.000016
N15	N	1.486038	-0.249945	-0.344039
C16	C	1.001558	-0.283515	0.000070
C17	C	0.862427	-0.264704	0.000067
C18	C	1.653733	-0.296768	0.000069
C19	C	1.788346	-0.314970	0.000082
C20	C	1.422441	-0.399911	0.000098
C21	C	1.424409	-0.477266	0.000121
C22	C	1.549164	-0.040162	0.000011
C23	C	1.547308	0.032519	0.000034
C24	C	1.435865	0.074401	0.000033
C25	C	1.326262	0.043594	0.000047
C26	C	1.328118	-0.029086	0.000038
C27	C	1.361557	0.199748	-0.084665
C28	C	1.359707	0.272427	-0.084665
C29	C	1.430134	0.298570	0.000066
C30	C	1.502435	0.252025	0.084778
C31	C	1.504291	0.179345	0.084770
C32	C	1.433839	0.153210	0.000043
C33	C	1.537716	0.408176	0.000087
C34	C	1.535854	0.480857	0.000119
C35	C	1.314807	0.491932	0.000117
C36	C	1.316669	0.419251	0.000100
C37	C	1.428128	0.377378	0.000078
N38	N	1.377960	-0.298275	0.344164
C39	C	1.418861	-0.279979	0.583771
C40	C	1.445147	-0.268237	0.416350
H41	H	1.041137	-0.340470	0.000078
H42	H	1.238877	-0.054161	0.000042
C43	C	0.809789	-0.188720	-0.000251
C44	C	0.868919	-0.147051	-0.124677
C45	C	0.820449	-0.077056	-0.125028
H46	H	0.823286	-0.172089	0.083965
H47	H	0.723297	-0.186135	-0.000330
H48	H	0.955390	-0.149633	-0.124585
H49	H	0.855427	-0.163660	-0.208913
H50	H	0.733957	-0.074471	-0.125106
H51	H	0.833948	-0.060432	-0.040806
H52	H	0.860552	-0.048776	-0.209455
C53	C	1.666241	0.066076	-0.000210
C54	C	1.691133	0.116238	-0.124591
C55	C	1.800673	0.147170	-0.124858
H56	H	1.732996	0.030808	-0.000297
H57	H	1.656895	0.088314	0.084067
H58	H	1.700487	0.094002	-0.208845
H59	H	1.624407	0.151520	-0.124530
H60	H	1.791327	0.169407	-0.040581
H61	H	1.867419	0.111896	-0.124941
H62	H	1.817570	0.181212	-0.209241
C63	C	1.275302	-0.344209	0.426736
C64	C	1.218443	-0.369654	0.327687
C65	C	1.123883	-0.411977	0.403699
H66	H	1.215505	-0.317157	0.486106
H67	H	1.309535	-0.382721	0.486105
H68	H	1.184209	-0.331148	0.268343
H69	H	1.278207	-0.396717	0.268315
H70	H	1.158116	-0.450489	0.463067
H71	H	1.064094	-0.384920	0.463065
H72	H	1.085300	-0.429252	0.336505
C73	C	1.588581	-0.204062	0.572854
C74	C	1.594239	-0.201518	0.423319
C75	C	1.688677	-0.159248	0.346721
H76	H	1.665696	-0.223368	0.597560
H77	H	1.571674	-0.157800	0.597609
H78	H	1.611154	-0.247770	0.398574
H79	H	1.517147	-0.182206	0.398570
H80	H	1.671770	-0.112987	0.371476
H81	H	1.765785	-0.178558	0.371438
H82	H	1.692520	-0.157511	0.245254
C83	C	1.582596	0.128837	0.177010
C84	C	1.543160	0.137007	0.323426
C85	C	1.615250	0.090485	0.408448
H86	H	1.667233	0.138772	0.147423
H87	H	1.573592	0.081795	0.164969
H88	H	1.552175	0.184039	0.335460
H89	H	1.458533	0.127067	0.353056
H90	H	1.606246	0.043443	0.396407
H91	H	1.699883	0.100424	0.378849
H92	H	1.588495	0.096018	0.507802
C93	C	0.841314	-0.390887	0.000207
C94	C	0.968769	-0.394460	0.000255
C95	C	1.017600	-0.464384	0.000403
H96	H	0.827933	-0.407507	-0.084073
H97	H	0.801371	-0.419275	0.084579
H98	H	1.008699	-0.366082	-0.084109
H99	H	0.982185	-0.377854	0.084528
H100	H	0.977657	-0.492772	0.084774
H101	H	1.004210	-0.480998	-0.083878
H102	H	1.104080	-0.466818	0.000449
C103	C	1.023014	-0.157296	0.000262
C104	C	1.043123	-0.133095	0.124635
C105	C	0.994679	-0.063120	0.124867
H106	H	0.936507	-0.154652	0.000337
H107	H	1.063040	-0.128883	-0.084020
H108	H	1.003093	-0.161500	0.208896
H109	H	1.129619	-0.135721	0.124587
H110	H	1.034705	-0.034708	0.040584
H111	H	0.908174	-0.060484	0.124937
H112	H	1.008326	-0.046689	0.209245
H113	H	1.628471	0.374080	0.000076
H114	H	1.639922	-0.074251	-0.000002
C115	C	1.578680	0.280427	0.176990
C116	C	1.499768	0.318193	0.277276
C117	C	1.569959	0.344361	0.362252
H118	H	1.636521	0.310667	0.116096
H119	H	1.621970	0.242313	0.227523
H120	H	1.456499	0.356301	0.226746
H121	H	1.441928	0.287967	0.338201
H122	H	1.613249	0.306247	0.412785
H123	H	1.627797	0.374598	0.301347
H124	H	1.516427	0.369982	0.430314
H125	H	1.625096	0.505930	0.000123
H126	H	1.224066	0.526031	0.000124
H127	H	1.300828	0.310318	-0.153635
H128	H	1.227433	0.394176	0.000096
C129	C	1.284873	0.171456	-0.176552
C130	C	1.159362	0.191962	-0.132389
C131	C	1.088687	0.165919	-0.217004
H132	H	1.296172	0.121508	-0.164492
H133	H	1.310761	0.189840	-0.275976
H134	H	1.133483	0.173574	-0.032990
H135	H	1.148026	0.241905	-0.144455
H136	H	1.114575	0.184303	-0.316428
H137	H	1.099995	0.115972	-0.204938
H138	H	1.003522	0.179833	-0.187061
C139	C	1.205317	0.089131	0.000271
C140	C	1.178281	0.122448	0.124653
C141	C	1.066880	0.164409	0.124907
H142	H	1.140197	0.060457	0.000347
H143	H	1.213220	0.123680	-0.084005
H144	H	1.170369	0.087904	0.208907
H145	H	1.243371	0.151135	0.124603
H146	H	1.074783	0.198958	0.040631
H147	H	1.001769	0.135729	0.124980
H148	H	1.048527	0.187024	0.209291
H149	H	1.341892	-0.314389	0.645910
H150	H	1.522129	-0.233831	0.354214
