data_functionalizedCrystal
_audit_creation_method	'MofGen! by Chris Wilmer'
_symmetry_space_group_name_H-M	'P1'
_symmetry_Int_Tables_number	1
_symmetry_cell_setting	triclinic
loop_
_symmetry_equiv_pos_as_xyz
  x,y,z
_cell_length_a	11.026607
_cell_length_b	10.723024
_cell_length_c	9.798715
_cell_angle_alpha	90.001978
_cell_angle_beta	89.996711
_cell_angle_gamma	83.473057
loop_
_atom_site_label
_atom_site_type_symbol
_atom_site_fract_x
_atom_site_fract_y
_atom_site_fract_z
O1	O	1.614520	-0.523503	-0.113489
O2	O	2.114520	-0.023503	0.386511
O3	O	1.260718	-0.463891	-0.113491
O4	O	1.760718	0.036109	0.386509
O5	O	1.445780	-0.313882	-0.113485
O6	O	1.945780	0.186118	0.386515
O7	O	1.429458	-0.673512	-0.113495
O8	O	1.929458	-0.173512	0.386505
O9	O	1.445766	-0.313879	0.113498
O10	O	1.945766	0.186121	0.613498
O11	O	1.260704	-0.463888	0.113492
O12	O	1.760704	0.036112	0.613492
O13	O	1.614506	-0.523499	0.113494
O14	O	2.114506	-0.023499	0.613494
Zn15	Zn	1.437603	-0.493693	0.149531
Zn16	Zn	1.937603	0.006307	0.649531
Zn17	Zn	1.437621	-0.493698	-0.149528
Zn18	Zn	1.937621	0.006302	0.350472
O19	O	1.429444	-0.673508	0.113487
O20	O	1.929444	-0.173508	0.613487
C21	C	1.215408	-0.452892	0.000000
C22	C	1.715408	0.047108	0.500000
C23	C	1.080422	-0.420109	-0.000001
C24	C	1.580422	0.079891	0.499999
C25	C	1.007369	-0.510629	-0.000004
C26	C	1.507369	-0.010629	0.499996
C27	C	0.867853	-0.476748	-0.000005
C28	C	1.367853	0.023252	0.499995
C29	C	1.444585	-0.267125	0.000005
C30	C	1.944585	0.232875	0.500005
C31	C	1.441032	-0.127803	0.000000
C32	C	1.941032	0.372197	0.500000
C33	C	1.659816	-0.534498	-0.000000
C34	C	2.159816	-0.034498	0.500000
C35	C	1.794803	-0.567282	-0.000008
C36	C	2.294803	-0.067282	0.499992
C37	C	1.430639	-0.720266	-0.000005
C38	C	1.930639	-0.220266	0.499995
C39	C	1.434193	-0.859587	-0.000009
C40	C	1.934193	-0.359587	0.499991
N41	N	1.437599	-0.493691	0.353631
N42	N	1.937599	0.006309	0.853631
C43	C	1.544583	-0.075171	-0.000001
C44	C	2.044583	0.424829	0.499999
C45	C	1.540912	0.068824	-0.000006
C46	C	2.040912	0.568824	0.499994
N47	N	1.437634	-0.493692	-0.353628
N48	N	1.937634	0.006308	0.146372
C49	C	1.515302	-0.430355	0.421410
C50	C	2.015302	0.069645	0.921410
C51	C	1.515321	-0.430355	0.578573
C52	C	2.015321	0.069645	1.078573
H53	H	0.835541	-0.669869	-0.000002
H54	H	1.335541	-0.169869	0.499998
Cl55	Cl	1.617716	-0.346291	0.331375
Cl56	Cl	2.117716	0.153709	0.831375
Cl57	Cl	1.017525	-0.261728	0.000014
Cl58	Cl	1.517525	0.238272	0.500014
H59	H	1.349660	-0.066260	-0.000009
H60	H	1.849660	0.433740	0.499991
Cl61	Cl	1.618041	-0.346640	0.668558
Cl62	Cl	2.118041	0.153360	1.168558
Cl63	Cl	1.334924	-0.577425	0.556396
Cl64	Cl	1.834924	-0.077425	1.056396
H65	H	1.048115	-0.613209	0.000001
H66	H	1.548115	-0.113209	0.500001
Cl67	Cl	0.804962	-0.318360	0.000009
Cl68	Cl	1.304962	0.181640	0.500009
Cl69	Cl	1.685660	-0.170180	-0.000009
Cl70	Cl	2.185660	0.329820	0.499991
Cl71	Cl	1.677785	0.138754	0.000003
Cl72	Cl	2.177785	0.638754	0.500003
Cl73	Cl	1.297314	0.070491	0.000003
Cl74	Cl	1.797314	0.570491	0.500003
H75	H	1.371085	-0.547910	0.411953
H76	H	1.871085	-0.047910	0.911953
