data_functionalizedCrystal
_audit_creation_method	'MofGen! by Chris Wilmer'
_symmetry_space_group_name_H-M	'P1'
_symmetry_Int_Tables_number	1
_symmetry_cell_setting	triclinic
loop_
_symmetry_equiv_pos_as_xyz
  x,y,z
_cell_length_a	15.455322
_cell_length_b	10.967904
_cell_length_c	16.974813
_cell_angle_alpha	96.708221
_cell_angle_beta	89.012554
_cell_angle_gamma	104.819883
loop_
_atom_site_label
_atom_site_type_symbol
_atom_site_fract_x
_atom_site_fract_y
_atom_site_fract_z
O1	O	-0.330029	-1.680586	0.095177
O2	O	-0.276034	-1.313166	0.108366
O3	O	-0.296413	-1.506502	-0.012963
O4	O	-0.309650	-1.487250	0.216506
O5	O	-0.150983	-1.495445	-0.006052
O6	O	-0.130604	-1.302109	0.115276
O7	O	-0.184600	-1.669529	0.102087
Cu8	Cu	-0.144323	-1.484809	0.109313
Cu9	Cu	-0.316310	-1.497886	0.101141
O10	O	-0.164221	-1.476193	0.223416
C11	C	-0.196259	-1.260613	0.111385
C12	C	-0.175222	-1.120494	0.110077
N13	N	-0.023358	-1.475621	0.115060
C14	C	-0.241180	-1.063753	0.105914
C15	C	-0.219440	-0.918933	0.104561
C16	C	0.013373	-1.557785	0.063535
C17	C	0.104912	-1.550848	0.067888
C18	C	0.159718	-1.461752	0.123772
C19	C	0.122982	-1.379579	0.175300
C20	C	0.031445	-1.386511	0.170942
C21	C	0.434452	-1.431833	0.142561
C22	C	0.525994	-1.424910	0.146917
C23	C	0.507918	-1.596178	0.039504
C24	C	0.416380	-1.603107	0.035154
C25	C	0.379653	-1.520930	0.086679
N26	N	0.253285	-1.454662	0.128225
N27	N	0.286088	-1.528015	0.082222
N28	N	0.562724	-1.507074	0.095391
C29	C	-0.221498	-1.500036	-0.038865
C30	C	-0.214940	-1.497227	-0.126343
C31	C	-0.264373	-0.722081	0.099073
C32	C	-0.285407	-0.862196	0.100398
C33	C	-0.291132	-1.501937	-0.171202
C34	C	-0.284967	-1.499289	-0.253396
C35	C	-0.202609	-1.491940	-0.290730
C36	C	-0.126410	-1.487225	-0.245864
C37	C	-0.132575	-1.489864	-0.163671
C38	C	-0.175668	-1.483393	-0.536145
C39	C	-0.169509	-1.480759	-0.618345
C40	C	-0.328066	-1.492820	-0.625871
C41	C	-0.334225	-1.495466	-0.543677
C42	C	-0.258025	-1.490745	-0.498818
N43	N	-0.196305	-1.489237	-0.374745
N44	N	-0.264329	-1.493438	-0.414803
C45	C	-0.239138	-1.482660	0.249319
C46	C	-0.245701	-1.485469	0.336796
H47	H	-0.146871	-0.860301	0.107129
C48	C	-0.008962	-1.296131	0.227623
C49	C	0.051311	-1.198171	0.289121
C50	C	0.010907	-1.107783	0.345801
C51	C	-0.089770	-1.115356	0.340983
C52	C	-0.150049	-1.213320	0.279481
C53	C	-0.109644	-1.303707	0.222801
H54	H	0.125843	-1.192562	0.292691
H55	H	0.055529	-1.035264	0.391329
H56	H	-0.119680	-1.048445	0.382940
H57	H	-0.224581	-1.218929	0.275912
H58	H	-0.154267	-1.376227	0.177274
C59	C	-0.091850	-1.478226	-0.486814
C60	C	-0.009866	-1.363407	-0.485878
C61	C	0.073956	-1.358248	-0.436546
C62	C	0.075795	-1.467907	-0.388150
C63	C	-0.006192	-1.582734	-0.389084
C64	C	-0.090015	-1.587894	-0.438416
H65	H	-0.011224	-1.282223	-0.521705
H66	H	0.134649	-1.273244	-0.435854
H67	H	0.137845	-1.464088	-0.351631
H68	H	-0.004834	-1.663918	-0.353257
H69	H	-0.150707	-1.672897	-0.439108
C70	C	-0.381729	-1.510021	-0.130140
C71	C	-0.392046	-1.403998	-0.065530
C72	C	-0.482644	-1.412077	-0.024470
C73	C	-0.562926	-1.526180	-0.048020
C74	C	-0.552612	-1.632212	-0.112634
C75	C	-0.462013	-1.624132	-0.153694
H76	H	-0.332614	-1.319524	-0.048093
H77	H	-0.490279	-1.333585	0.023362
H78	H	-0.629993	-1.532161	-0.017626
H79	H	-0.612044	-1.716685	-0.130071
H80	H	-0.454379	-1.702625	-0.201526
C81	C	-0.048762	-1.484686	-0.114323
C82	C	-0.046919	-1.594333	-0.065918
C83	C	0.036898	-1.589148	-0.016571
C84	C	0.118873	-1.474314	-0.015629
C85	C	0.117033	-1.364658	-0.064036
C86	C	0.033216	-1.369844	-0.113383
H87	H	-0.107604	-1.679347	-0.066614
H88	H	0.038260	-1.670323	0.019263
H89	H	0.180919	-1.470476	0.020900
H90	H	0.177718	-1.279645	-0.063341
H91	H	0.031854	-1.288669	-0.149217
H92	H	-0.102658	-1.061857	0.112644
C93	C	0.548321	-1.686559	-0.017177
C94	C	0.622894	-1.632264	-0.074383
C95	C	0.663295	-1.722647	-0.131070
C96	C	0.629123	-1.867325	-0.130550
C97	C	0.554546	-1.921628	-0.073342
C98	C	0.514145	-1.831245	-0.016655
H99	H	0.648193	-1.525158	-0.074770
H100	H	0.718502	-1.682447	-0.173420
H101	H	0.659031	-1.934232	-0.172513
H102	H	0.529246	-2.028734	-0.072955
H103	H	0.458937	-1.871445	0.025694
C104	C	-0.368785	-1.504482	-0.302737
C105	C	-0.450752	-1.619325	-0.303679
C106	C	-0.534577	-1.624518	-0.353017
C107	C	-0.536435	-1.514868	-0.401414
C108	C	-0.454465	-1.400015	-0.400475
C109	C	-0.370640	-1.394822	-0.351136
H110	H	-0.449380	-1.700503	-0.267850
H111	H	-0.595257	-1.709540	-0.353712
H112	H	-0.598487	-1.518712	-0.437938
H113	H	-0.455838	-1.318838	-0.436303
H114	H	-0.309961	-1.309801	-0.350441
C115	C	-0.339213	-1.142957	0.102452
C116	C	-0.399235	-1.144038	0.030765
C117	C	-0.497270	-1.223240	0.027303
C118	C	-0.535283	-1.301360	0.095529
C119	C	-0.475260	-1.300282	0.167221
C120	C	-0.377225	-1.221080	0.170683
H121	H	-0.371097	-1.086206	-0.019744
H122	H	-0.541703	-1.224038	-0.025769
H123	H	-0.607855	-1.359990	0.092966
H124	H	-0.503399	-1.358114	0.217730
H125	H	-0.332793	-1.220282	0.223755
H126	H	-0.357977	-0.920825	0.097840
H127	H	-0.401290	-1.501452	-0.513286
H128	H	-0.390103	-1.496662	-0.662404
C129	C	-0.078910	-1.472615	-0.659425
C130	C	0.001342	-1.358463	-0.635886
C131	C	0.091933	-1.350298	-0.676974
C132	C	0.102273	-1.456287	-0.741601
C133	C	0.022019	-1.570447	-0.765143
C134	C	-0.068573	-1.578612	-0.724055
H135	H	-0.006310	-1.279996	-0.588043
H136	H	0.151343	-1.265788	-0.659546
H137	H	0.169334	-1.450243	-0.772016
H138	H	0.029670	-1.648914	-0.812986
H139	H	-0.127983	-1.663122	-0.741483
H140	H	0.371758	-1.675656	-0.010351
C141	C	-0.046908	-1.655794	0.002060
C142	C	-0.006499	-1.746166	-0.054620
C143	C	-0.066777	-1.844174	-0.116098
C144	C	-0.167465	-1.851810	-0.120896
C145	C	-0.207879	-1.761435	-0.064214
C146	C	-0.147601	-1.663426	-0.002736
H147	H	0.068041	-1.740516	-0.051070
H148	H	-0.036858	-1.911076	-0.158057
H149	H	-0.212086	-1.924361	-0.166405
H150	H	-0.282419	-1.767084	-0.067764
H151	H	-0.177520	-1.596525	0.039224
H152	H	-0.059351	-1.481234	-0.276267
H153	H	0.404556	-1.364923	0.184517
H154	H	0.134818	-1.617752	0.025932
H155	H	0.570614	-1.352353	0.192428
H156	H	0.167611	-1.307029	0.220799
