data_functionalizedCrystal
_audit_creation_method	'MofGen! by Chris Wilmer'
_symmetry_space_group_name_H-M	'P1'
_symmetry_Int_Tables_number	1
_symmetry_cell_setting	triclinic
loop_
_symmetry_equiv_pos_as_xyz
  x,y,z
_cell_length_a	27.732048
_cell_length_b	27.732048
_cell_length_c	26.809956
_cell_angle_alpha	90.000636
_cell_angle_beta	89.996742
_cell_angle_gamma	97.357345
loop_
_atom_site_label
_atom_site_type_symbol
_atom_site_fract_x
_atom_site_fract_y
_atom_site_fract_z
O1	O	0.640931	-0.057510	-0.041421
O2	O	0.500138	-0.066256	-0.041436
O3	O	0.574907	0.008514	-0.041419
O4	O	0.566162	-0.132280	-0.041439
O5	O	0.574893	0.008502	0.041541
O6	O	0.500123	-0.066267	0.041523
O7	O	0.640917	-0.057522	0.041539
Zn8	Zn	0.570518	-0.061896	0.054702
Zn9	Zn	0.570536	-0.061881	-0.054600
O10	O	0.566147	-0.132291	0.041521
C11	C	0.482124	-0.066078	0.000041
C12	C	0.428469	-0.065525	0.000036
C13	C	0.089654	-0.106229	0.000051
C14	C	-0.112006	-0.104178	0.000056
O15	O	-0.143262	-0.141398	0.000073
N16	N	-0.131130	-0.059843	0.000062
C17	C	-0.099835	-0.016017	0.000069
O18	O	-0.120728	0.021740	0.000079
C19	C	0.101824	-0.018068	0.000068
C20	C	0.120944	-0.062407	0.000057
C21	C	0.108775	-0.150563	0.000042
C22	C	0.159187	-0.151076	0.000038
C23	C	0.190477	-0.107253	0.000044
C24	C	0.171356	-0.062919	0.000054
C25	C	0.133117	0.025757	0.000079
C26	C	0.183535	0.025240	0.000080
C27	C	0.202655	-0.019098	0.000069
C28	C	0.253059	-0.019609	0.000056
N29	N	0.272183	-0.063944	0.000050
C30	C	0.240892	-0.107766	0.000044
C31	C	-0.205709	-0.014943	0.000069
C32	C	-0.256124	-0.014430	0.000068
C33	C	-0.268291	-0.102591	0.000056
C34	C	-0.217876	-0.103104	0.000053
C35	C	-0.186585	-0.059278	0.000063
C36	C	0.346761	-0.108839	0.000036
C37	C	0.397178	-0.109347	0.000030
C38	C	0.409341	-0.021186	0.000044
C39	C	0.358929	-0.020678	0.000048
C40	C	0.327639	-0.064508	0.000045
O41	O	0.284343	0.017592	0.000045
O42	O	0.261794	-0.145518	0.000045
C43	C	0.039242	-0.105716	0.000055
C44	C	0.020120	-0.061382	0.000065
C45	C	0.051411	-0.017560	0.000071
C46	C	-0.030294	-0.060869	0.000065
C47	C	-0.061585	-0.104691	0.000059
C48	C	-0.042461	-0.149026	0.000053
C49	C	0.007951	-0.149539	0.000049
C50	C	0.032287	0.026775	0.000077
C51	C	-0.018125	0.027284	0.000080
C52	C	-0.049416	-0.016538	0.000074
C53	C	0.574716	0.026515	0.000062
C54	C	0.574164	0.080170	0.000066
C55	C	0.658931	-0.057699	0.000060
C56	C	0.712586	-0.058252	0.000062
C57	C	0.566338	-0.150292	0.000039
C58	C	0.566891	-0.203947	0.000031
N59	N	0.570509	-0.061906	0.129298
C60	C	0.614867	0.418985	0.000045
C61	C	0.612816	0.620645	0.000038
O62	O	0.650037	0.651900	0.000021
N63	N	0.568481	0.639768	0.000034
C64	C	0.524656	0.608474	0.000028
O65	O	0.486899	0.629367	0.000019
C66	C	0.526707	0.406815	0.000031
C67	C	0.571045	0.387694	0.000041
C68	C	0.659202	0.399864	0.000054
C69	C	0.659714	0.349452	0.000059
C70	C	0.615892	0.318161	0.000054
C71	C	0.571557	0.337282	0.000045
C72	C	0.482882	0.375521	0.000022
C73	C	0.483399	0.325104	0.000021
C74	C	0.527737	0.305983	0.000031
C75	C	0.528247	0.255580	0.000045
N76	N	0.572583	0.236456	0.000050
C77	C	0.616405	0.267747	0.000054
C78	C	0.523582	0.714348	0.000027
C79	C	0.523069	0.764762	0.000027
C80	C	0.611230	0.776930	0.000036
C81	C	0.611742	0.726514	0.000040
C82	C	0.567917	0.695224	0.000031
C83	C	0.617477	0.161878	0.000064
C84	C	0.617986	0.111461	0.000071
C85	C	0.529825	0.099298	0.000059
C86	C	0.529316	0.149710	0.000055
C87	C	0.573147	0.180999	0.000056
O88	O	0.491047	0.224296	0.000057
O89	O	0.654156	0.246844	0.000053
C90	C	0.614355	0.469397	0.000041
C91	C	0.570021	0.488518	0.000032
C92	C	0.526198	0.457228	0.000027
C93	C	0.569508	0.538933	0.000032
C94	C	0.613330	0.570223	0.000036
C95	C	0.657665	0.551100	0.000041
C96	C	0.658177	0.500688	0.000045
C97	C	0.481863	0.476351	0.000023
C98	C	0.481355	0.526764	0.000019
C99	C	0.525177	0.558054	0.000023
N100	N	0.570549	-0.061867	-0.129196
C101	C	0.603640	-0.028781	0.473932
C102	C	0.603652	-0.028774	0.682810
O103	O	0.631801	-0.000613	0.709820
N104	N	0.570539	-0.061870	0.708925
C105	C	0.537419	-0.094969	0.682818
O106	O	0.509252	-0.123116	0.709824
C107	C	0.537406	-0.094974	0.473941
C108	C	0.570524	-0.061878	0.447829
C109	C	0.636755	0.004312	0.447819
C110	C	0.636754	0.004308	0.395603
C111	C	0.603637	-0.028789	0.369500
C112	C	0.570522	-0.061882	0.395612
C113	C	0.504284	-0.128070	0.447835
C114	C	0.504283	-0.128067	0.395613
C115	C	0.537401	-0.094972	0.369500
C116	C	0.537405	-0.094983	0.317293
N117	N	0.570517	-0.061887	0.291177
C118	C	0.603633	-0.028790	0.317281
C119	C	0.537429	-0.094965	0.792481
C120	C	0.537433	-0.094964	0.844700
C121	C	0.603665	-0.028768	0.844689
C122	C	0.603663	-0.028772	0.792469
C123	C	0.570542	-0.061868	0.766366
C124	C	0.603628	-0.028801	0.207623
C125	C	0.603625	-0.028809	0.155402
C126	C	0.537392	-0.095003	0.155418
C127	C	0.537396	-0.094997	0.207635
C128	C	0.570516	-0.061892	0.233735
O129	O	0.509266	-0.123126	0.290250
O130	O	0.631789	-0.000640	0.290266
C131	C	0.603642	-0.028777	0.526149
C132	C	0.570527	-0.061870	0.552261
C133	C	0.537410	-0.094968	0.526158
C134	C	0.570531	-0.061870	0.604480
C135	C	0.603647	-0.028773	0.630584
C136	C	0.636759	0.004324	0.604468
C137	C	0.636758	0.004320	0.552252
C138	C	0.504298	-0.128064	0.552273
C139	C	0.504303	-0.128058	0.604489
C140	C	0.537419	-0.094961	0.630593
H141	H	0.083302	-0.186251	0.000038
H142	H	0.630630	-0.001820	0.865951
H143	H	-0.271687	0.021674	0.000069
O144	O	0.635783	0.003458	0.767142
C145	C	0.664742	0.087721	0.751243
C146	C	0.628331	0.051263	0.779934
H147	H	0.658737	0.126379	0.761583
H148	H	0.659069	0.082102	0.709426
H149	H	0.703405	0.081667	0.761507
H150	H	0.589654	0.057295	0.769712
H151	H	0.634047	0.056891	0.821744
H152	H	0.654093	0.095896	0.000080
O153	O	0.487214	0.068966	0.000073
C154	C	0.399716	0.062203	0.000015
C155	C	0.447937	0.096611	0.000018
H156	H	0.367948	0.084541	-0.000040
H157	H	0.397709	0.038303	0.034741
H158	H	0.397794	0.038289	-0.034696
H159	H	0.449891	0.120556	0.034706
H160	H	0.449923	0.120478	-0.034730
H161	H	0.447710	0.299629	0.000014
H162	H	0.630595	-0.001859	0.134142
O163	O	0.660022	0.192316	0.000134
C164	C	0.710621	0.256271	0.043135
C165	C	0.662418	0.221836	0.043108
H166	H	0.712579	0.280140	0.077881
H167	H	0.712605	0.280211	0.008440
H168	H	0.742384	0.233927	0.043119
H169	H	0.630628	0.244141	0.043142
H170	H	0.660477	0.197895	0.077801
H171	H	0.510471	-0.121919	0.865958
H172	H	0.646911	0.802415	0.000040
H173	H	0.694282	0.485125	0.000053
O174	O	0.700190	0.581569	0.000022
C175	C	0.738459	0.664634	0.000046
C176	C	0.690268	0.630180	0.000060
H177	H	0.730454	0.703943	0.000088
H178	H	0.760309	0.657760	-0.034678
H179	H	0.760296	0.657700	0.034758
H180	H	0.668393	0.637093	-0.034628
H181	H	0.668456	0.637061	0.034808
H182	H	0.321291	-0.144530	0.000035
O183	O	0.026581	-0.192577	0.000104
C184	C	0.076407	-0.244349	0.043080
C185	C	0.055354	-0.195585	0.043076
H186	H	0.099667	-0.246801	0.077824
H187	H	0.099737	-0.246795	0.008383
H188	H	0.045371	-0.275572	0.043051
H189	H	0.086359	-0.164334	0.043123
H190	H	0.032011	-0.193181	0.077770
H191	H	0.057760	0.062462	0.000083
O192	O	0.505162	-0.127097	0.232983
C193	C	0.420899	-0.156009	0.248943
C194	C	0.457356	-0.119627	0.220217
H195	H	0.382240	-0.149989	0.238624
H196	H	0.426544	-0.150318	0.290755
H197	H	0.426928	-0.194682	0.238689
H198	H	0.451350	-0.080940	0.230429
H199	H	0.451703	-0.125360	0.178412
O200	O	0.701762	0.430274	-0.000029
C201	C	0.752360	0.494269	-0.042980
C202	C	0.704144	0.459854	-0.042958
H203	H	0.754297	0.518200	-0.077679
H204	H	0.784148	0.471957	-0.043006
H205	H	0.754315	0.518152	-0.008244
H206	H	0.702142	0.435964	-0.077688
H207	H	0.672378	0.482195	-0.042906
O208	O	0.505271	-0.127217	0.130078
C209	C	0.476286	-0.211462	0.114114
C210	C	0.512700	-0.175036	0.142836
H211	H	0.482273	-0.250132	0.124427
H212	H	0.481976	-0.205816	0.072302
H213	H	0.437625	-0.205400	0.124377
H214	H	0.551377	-0.181076	0.132616
H215	H	0.506968	-0.180691	0.184642
H216	H	0.477335	-0.155012	0.625747
H217	H	0.117558	0.061861	0.000088
O218	O	0.505237	-0.127167	0.767206
C219	C	0.439529	-0.192806	0.772743
C220	C	0.475966	-0.156370	0.801425
H221	H	0.415847	-0.216420	0.800396
H222	H	0.460188	-0.216848	0.748307
H223	H	0.415555	-0.172098	0.748285
H224	H	0.499949	-0.177039	0.825910
H225	H	0.455277	-0.132330	0.825830
H226	H	0.663725	0.031269	0.530995
H227	H	0.209009	0.060929	0.000089
O228	O	0.668907	0.036542	0.629776
C229	C	0.697832	0.120792	0.645784
C230	C	0.661412	0.084358	0.617080
H231	H	0.691778	0.159459	0.635538
H232	H	0.736513	0.114805	0.635511
H233	H	0.692145	0.115080	0.687588
H234	H	0.667054	0.090048	0.575269
H235	H	0.622744	0.090354	0.627395
O236	O	-0.298643	-0.145192	0.000119
C237	C	-0.324505	-0.220369	0.043113
C238	C	-0.290094	-0.172151	0.043094
H239	H	-0.317612	-0.242175	0.077860
H240	H	-0.317592	-0.242243	0.008418
H241	H	-0.363816	-0.212369	0.043091
H242	H	-0.250770	-0.180107	0.043134
H243	H	-0.297049	-0.150292	0.077786
H244	H	0.174750	-0.187180	0.000029
O245	O	-0.199362	-0.146204	-0.000020
C246	C	-0.194321	-0.221694	-0.043026
C247	C	-0.215325	-0.172903	-0.043000
H248	H	-0.207211	-0.243290	-0.077777
H249	H	-0.207256	-0.243368	-0.008335
H250	H	-0.152914	-0.214528	-0.042999
H251	H	-0.256732	-0.180025	-0.043045
H252	H	-0.202352	-0.151245	-0.077688
H253	H	0.487892	0.688875	0.000020
O254	O	0.472110	-0.160265	0.526998
C255	C	0.406403	-0.225905	0.532533
C256	C	0.442837	-0.189467	0.561216
H257	H	0.382719	-0.249518	0.560186
H258	H	0.427063	-0.249947	0.508101
H259	H	0.382430	-0.205199	0.508072
H260	H	0.466819	-0.210134	0.585705
H261	H	0.422146	-0.165425	0.585617
H262	H	0.446777	0.391080	0.000011
H263	H	-0.067947	-0.184708	0.000046
O264	O	-0.175296	0.027619	0.000162
C265	C	-0.111301	0.078199	0.043125
C266	C	-0.145721	0.029986	0.043092
H267	H	-0.087374	0.080124	0.077825
H268	H	-0.133610	0.109990	0.043159
H269	H	-0.087416	0.080161	0.008390
H270	H	-0.169614	0.027976	0.077821
H271	H	-0.123384	-0.001782	0.043032
O272	O	0.479986	0.783310	-0.000066
C273	C	0.404473	0.788298	-0.043042
C274	C	0.453253	0.767273	-0.043001
H275	H	0.382841	0.775333	-0.077746
H276	H	0.411599	0.829708	-0.043073
H277	H	0.382851	0.775391	-0.008311
H278	H	0.474899	0.780143	-0.077726
H279	H	0.446093	0.725866	-0.042943
O280	O	0.340327	0.022378	-0.000034
C281	C	0.290442	0.074116	-0.042978
C282	C	0.311481	0.025343	-0.042960
H283	H	0.267108	0.076525	-0.077674
H284	H	0.321448	0.105369	-0.043008
H285	H	0.267167	0.076546	-0.008239
H286	H	0.334750	0.022865	-0.077693
H287	H	0.280452	-0.005887	-0.042903
H288	H	0.434827	0.014492	0.000047
H289	H	0.493213	0.165279	0.000061
H290	H	0.477317	-0.155019	0.469089
O291	O	0.472091	-0.160267	0.370335
C292	C	0.406376	-0.225901	0.375862
C293	C	0.442813	-0.189469	0.404550
H294	H	0.382689	-0.249513	0.403513
H295	H	0.427035	-0.249944	0.351428
H296	H	0.382407	-0.205189	0.351402
H297	H	0.466791	-0.210141	0.429038
H298	H	0.422124	-0.165426	0.428952
O299	O	0.438238	0.545254	-0.000012
C300	C	0.350850	0.527850	-0.000002
C301	C	0.399642	0.506848	0.000028
H302	H	0.319632	0.496810	0.000041
H303	H	0.348379	0.551126	-0.034732
H304	H	0.348420	0.551169	0.034705
H305	H	0.402105	0.483508	-0.034655
H306	H	0.402092	0.483600	0.034781
H307	H	-0.033688	0.063392	0.000085
H308	H	0.695819	0.333889	0.000065
H309	H	0.446177	0.450879	0.000018
O310	O	0.635847	0.003376	0.232895
C311	C	0.701519	0.069051	0.227358
C312	C	0.665065	0.032632	0.198676
H313	H	0.725145	0.092721	0.199704
H314	H	0.725547	0.048378	0.251792
H315	H	0.680826	0.093039	0.251819
H316	H	0.685719	0.008635	0.174188
H317	H	0.641038	0.053336	0.174274
H318	H	0.412743	-0.145454	0.000021
O319	O	0.668939	0.036508	0.370318
C320	C	0.734646	0.102149	0.375837
C321	C	0.698215	0.065713	0.404530
H322	H	0.758332	0.125765	0.403485
H323	H	0.713983	0.126189	0.351408
H324	H	0.758618	0.081441	0.351373
H325	H	0.674234	0.086382	0.429022
H326	H	0.718908	0.041674	0.428928
H327	H	0.647846	0.710950	0.000047
O328	O	0.668862	0.036511	0.473194
C329	C	0.679672	0.102589	0.532162
C330	C	0.643251	0.066159	0.503454
H331	H	0.658980	0.126562	0.556643
H332	H	0.703329	0.126273	0.504543
H333	H	0.703674	0.081876	0.556582
H334	H	0.619217	0.086833	0.479034
H335	H	0.619628	0.042476	0.531100
