data_functionalizedCrystal
_audit_creation_method	'MofGen! by Chris Wilmer'
_symmetry_space_group_name_H-M	'P1'
_symmetry_Int_Tables_number	1
_symmetry_cell_setting	triclinic
loop_
_symmetry_equiv_pos_as_xyz
  x,y,z
_cell_length_a	6.817900
_cell_length_b	15.300992
_cell_length_c	15.301140
_cell_angle_alpha	94.939617
_cell_angle_beta	104.177739
_cell_angle_gamma	104.175078
loop_
_atom_site_label
_atom_site_type_symbol
_atom_site_fract_x
_atom_site_fract_y
_atom_site_fract_z
V1	V	-4.037890	-0.125369	-0.281418
V2	V	-3.537890	0.374631	0.218582
O3	O	-4.021624	0.005396	-0.275781
O4	O	-3.521624	0.505396	0.224219
O5	O	-3.992762	-0.247982	-0.279762
O6	O	-3.492762	0.252018	0.220238
O7	O	-3.992778	-0.123716	-0.404031
O8	O	-3.492778	0.376284	0.095969
O9	O	-4.021609	-0.119729	-0.150652
O10	O	-3.521609	0.380271	0.349348
V11	V	-4.520668	-0.109695	-0.265745
V12	V	-4.020668	0.390305	0.234255
O13	O	-4.300783	-0.159750	-0.315799
O14	O	-3.800783	0.340250	0.184201
O15	O	-4.707973	-0.075314	-0.231364
O16	O	-4.207973	0.424686	0.268636
O17	O	-4.342590	0.012917	-0.267400
O18	O	-3.842590	0.512917	0.232600
O19	O	-4.654331	-0.240461	-0.271381
O20	O	-4.154331	0.259539	0.228619
O21	O	-4.654347	-0.115335	-0.396511
O22	O	-4.154347	0.384665	0.103489
O23	O	-4.342574	-0.111348	-0.143131
O24	O	-3.842574	0.388652	0.356869
C25	C	-3.838453	-0.277863	-0.275392
C26	C	-3.338453	0.222137	0.224608
C27	C	-3.882864	-0.378103	-0.274855
C28	C	-3.382864	0.121897	0.225145
C29	C	-3.860873	-0.412139	-0.191999
C30	C	-3.360873	0.087861	0.308001
C31	C	-3.902622	-0.506325	-0.191498
C32	C	-3.402622	-0.006325	0.308502
C33	C	-3.966348	-0.566473	-0.273853
C34	C	-3.466348	-0.066473	0.226147
C35	C	-3.988346	-0.532432	-0.356716
C36	C	-3.488346	-0.032432	0.143284
C37	C	-3.946611	-0.438248	-0.357216
C38	C	-3.446611	0.061752	0.142784
C39	C	-4.075326	-0.728741	-0.355667
C40	C	-3.575326	-0.228741	0.144333
C41	C	-4.117059	-0.822932	-0.355166
C42	C	-3.617059	-0.322932	0.144834
C43	C	-4.031337	-0.796818	-0.189949
C44	C	-3.531337	-0.296818	0.310051
C45	C	-3.989602	-0.702634	-0.190449
C46	C	-3.489602	-0.202634	0.309551
C47	C	-4.011599	-0.668599	-0.273312
C48	C	-3.511599	-0.168599	0.226688
C49	C	-3.838471	-0.119349	-0.433909
C50	C	-3.338471	0.380651	0.066091
C51	C	-3.882892	-0.118809	-0.534147
C52	C	-3.382892	0.381191	-0.034147
C53	C	-4.086122	-0.123070	-0.585843
C54	C	-3.586122	0.376930	-0.085843
C55	C	-4.127848	-0.122562	-0.680028
C56	C	-3.627848	0.377438	-0.180028
C57	C	-3.966344	-0.117800	-0.722516
C58	C	-3.466344	0.382200	-0.222516
C59	C	-3.763096	-0.113536	-0.670813
C60	C	-3.263096	0.386464	-0.170813
C61	C	-3.721369	-0.114037	-0.576629
C62	C	-3.221369	0.385963	-0.076629
C63	C	-3.850081	-0.112493	-0.867123
C64	C	-3.350081	0.387507	-0.367123
C65	C	-3.891810	-0.111993	-0.961313
C66	C	-3.391810	0.388007	-0.461313
C67	C	-4.256559	-0.121018	-0.970522
C68	C	-3.756559	0.378982	-0.470522
C69	C	-4.214833	-0.121519	-0.876338
C70	C	-3.714833	0.378481	-0.376338
C71	C	-4.011588	-0.117257	-0.824641
C72	C	-3.511588	0.382743	-0.324641
C73	C	-4.160241	0.042794	-0.271768
C74	C	-3.660241	0.542794	0.228232
C75	C	-4.095068	0.143032	-0.272311
C76	C	-3.595068	0.643032	0.227689
C77	C	-4.160223	-0.115718	-0.113249
C78	C	-3.660223	0.384282	0.386751
C79	C	-4.095040	-0.116254	-0.013009
C80	C	-3.595040	0.383746	0.486991
H81	H	-4.168945	-0.871903	-0.422227
H82	H	-3.668945	-0.371903	0.077773
H83	H	-4.293332	-0.126027	-0.722114
H84	H	-3.793332	0.373973	-0.222114
H85	H	-4.422051	-0.124490	-1.012618
H86	H	-3.922051	0.375510	-0.512618
H87	H	-4.093274	-0.701035	-0.423143
H88	H	-3.593274	-0.201035	0.076857
H89	H	-3.808967	-0.363170	-0.124935
H90	H	-3.308967	0.136830	0.375065
H91	H	-3.760294	-0.108109	-0.995903
H92	H	-3.260294	0.391891	-0.495903
H93	H	-4.346350	-0.125404	-0.841748
H94	H	-3.846350	0.374596	-0.341748
H95	H	-3.684563	-0.108989	-0.825029
H96	H	-3.184563	0.391011	-0.325029
H97	H	-3.884717	-0.534032	-0.124029
H98	H	-3.384717	-0.034032	0.375971
H99	H	-4.040249	-0.581413	-0.423771
H100	H	-3.540249	-0.081413	0.076229
H101	H	-3.964542	-0.410539	-0.424687
H102	H	-3.464542	0.089461	0.075313
H103	H	-3.631597	-0.109652	-0.705413
H104	H	-3.131597	0.390348	-0.205413
H105	H	-4.217646	-0.126954	-0.551258
H106	H	-3.717646	0.373046	-0.051258
H107	H	-3.555870	-0.110545	-0.534535
H108	H	-3.055870	0.389455	-0.034535
H109	H	-3.937702	-0.653662	-0.123388
H110	H	-3.437702	-0.153662	0.376612
H111	H	-4.013419	-0.824533	-0.122479
H112	H	-3.513419	-0.324533	0.377521
