data_functionalizedCrystal
_audit_creation_method	'MofGen! by Chris Wilmer'
_symmetry_space_group_name_H-M	'P1'
_symmetry_Int_Tables_number	1
_symmetry_cell_setting	triclinic
loop_
_symmetry_equiv_pos_as_xyz
  x,y,z
_cell_length_a	27.731994
_cell_length_b	16.992701
_cell_length_c	16.053802
_cell_angle_alpha	87.243340
_cell_angle_beta	87.447974
_cell_angle_gamma	93.356008
loop_
_atom_site_label
_atom_site_type_symbol
_atom_site_fract_x
_atom_site_fract_y
_atom_site_fract_z
O1	O	-0.100535	1.042449	-0.069409
O2	O	-0.099412	0.814178	-0.069410
O3	O	-0.029882	0.935425	-0.069422
O4	O	-0.170065	0.921201	-0.069397
O5	O	-0.033692	0.928752	0.069437
O6	O	-0.103222	0.807504	0.069449
O7	O	-0.104345	1.035775	0.069450
Zn8	Zn	-0.104388	0.920580	0.091497
Zn9	Zn	-0.099368	0.929373	-0.091457
O10	O	-0.173875	0.914528	0.069462
C11	C	-0.099871	0.781646	0.000019
C12	C	-0.095558	0.694656	0.000018
C13	C	-0.066575	0.206057	0.000010
C14	C	-0.070632	0.287792	0.000016
C15	C	-0.116313	0.318768	0.000020
C16	C	-0.157940	0.268002	0.000027
C17	C	-0.153882	0.186268	0.000027
C18	C	-0.133128	0.562156	0.000025
C19	C	-0.137182	0.643897	0.000023
C20	C	-0.049873	0.663681	0.000013
C21	C	-0.045820	0.581945	0.000008
C22	C	-0.087447	0.531186	0.000019
N23	N	-0.120460	0.402315	0.000023
N24	N	-0.083299	0.447640	0.000022
C25	C	-0.189990	0.918156	0.000036
C26	C	-0.243685	0.919035	0.000045
C27	C	-0.574564	0.928212	-0.075684
C28	C	-0.776367	0.931555	-0.075696
O29	O	-0.800693	0.935115	-0.140070
N30	N	-0.803676	0.928332	-0.000004
C31	C	-0.780533	0.924279	0.075696
O32	O	-0.808391	0.921623	0.140076
C33	C	-0.578731	0.920942	0.075707
C34	C	-0.551424	0.924157	0.000011
C35	C	-0.547257	0.931428	-0.151375
C36	C	-0.496810	0.930588	-0.151371
C37	C	-0.473670	0.926532	-0.075676
C38	C	-0.500977	0.923317	0.000014
C39	C	-0.555588	0.916894	0.151407
C40	C	-0.505134	0.916062	0.151403
C41	C	-0.477827	0.919277	0.075706
C42	C	-0.427389	0.918421	0.075713
N43	N	-0.400079	0.921644	0.000021
C44	C	-0.423219	0.925699	-0.075674
C45	C	-0.886481	0.926030	0.075685
C46	C	-0.936931	0.926862	0.075682
C47	C	-0.932762	0.934140	-0.075711
C48	C	-0.882311	0.933302	-0.075707
C49	C	-0.859171	0.929252	-0.000007
C50	C	-0.317276	0.923934	-0.075660
C51	C	-0.266825	0.923091	-0.075649
C52	C	-0.270999	0.915817	0.075743
C53	C	-0.321446	0.916657	0.075733
C54	C	-0.344583	0.920718	0.000025
O55	O	-0.403030	0.914872	0.140053
O56	O	-0.395351	0.928373	-0.140044
C57	C	-0.625012	0.929052	-0.075688
C58	C	-0.652319	0.925837	0.000003
C59	C	-0.629178	0.921781	0.075697
C60	C	-0.702769	0.926670	0.000000
C61	C	-0.725909	0.930725	-0.075694
C62	C	-0.698600	0.933948	-0.151386
C63	C	-0.648152	0.933108	-0.151382
C64	C	-0.656488	0.918558	0.151389
C65	C	-0.706935	0.919398	0.151379
C66	C	-0.730076	0.923453	0.075685
C67	C	-0.013767	0.931797	0.000002
C68	C	0.039928	0.930918	-0.000013
C69	C	-0.103885	1.068307	0.000019
C70	C	-0.108199	1.155298	0.000014
N71	N	-0.107815	0.914585	0.216358
N72	N	-0.095939	0.935374	-0.216318
C73	C	-0.078241	0.966195	0.260046
C74	C	-0.080643	0.962008	0.347454
C75	C	-0.112620	0.906215	0.391170
C76	C	-0.142195	0.854600	0.347476
C77	C	-0.139790	0.858783	0.260070
C78	C	-0.123109	0.887942	0.652582
C79	C	-0.125512	0.883765	0.739994
C80	C	-0.063959	0.991172	0.739966
C81	C	-0.061560	0.995353	0.652558
C82	C	-0.091132	0.943736	0.608871
N83	N	-0.115077	0.901936	0.480515
N84	N	-0.088673	0.948011	0.519528
H85	H	-0.167023	0.520837	0.000031
H86	H	-0.195134	0.293228	0.000036
C87	C	-0.199130	0.131286	-0.000014
C88	C	-0.240004	0.175906	-0.000034
C89	C	-0.281696	0.125286	-0.000080
H90	H	-0.200761	0.096646	0.048397
H91	H	-0.198058	0.101329	-0.048456
H92	H	-0.241076	0.205850	0.048404
H93	H	-0.238390	0.210544	-0.048441
H94	H	-0.280624	0.095328	-0.048522
H95	H	-0.283321	0.090647	0.048332
H96	H	-0.309433	0.155553	-0.000101
C97	C	-0.171926	0.802881	0.212526
C98	C	-0.201740	0.846658	0.162318
C99	C	-0.231344	0.795184	0.118501
H100	H	-0.191359	0.769036	0.250983
H101	H	-0.152347	0.772122	0.178390
H102	H	-0.221317	0.877404	0.196450
H103	H	-0.182320	0.880501	0.123845
H104	H	-0.211765	0.764425	0.084365
H105	H	-0.250774	0.761342	0.156964
H106	H	-0.251573	0.824879	0.084424
H107	H	-0.959161	0.924229	0.137322
H108	H	-0.008622	0.556731	0.000004
C109	C	-0.016935	0.172581	0.000046
C110	C	0.018648	0.234531	0.000066
C111	C	0.064382	0.203726	0.000112
H112	H	-0.012138	0.143447	-0.048365
H113	H	-0.014843	0.138802	0.048488
H114	H	0.016557	0.268296	-0.048372
H115	H	0.013867	0.263670	0.048473
H116	H	0.066474	0.169947	0.048554
H117	H	0.069174	0.174593	-0.048300
H118	H	0.088530	0.245753	0.000133
C119	C	-0.723704	0.938185	-0.233602
C120	C	-0.713022	0.872713	-0.279256
C121	C	-0.736144	0.876586	-0.354990
H122	H	-0.712677	0.985213	-0.264805
H123	H	-0.757667	0.938182	-0.222801
H124	H	-0.679066	0.872724	-0.290059
H125	H	-0.724050	0.825676	-0.248078
H126	H	-0.770107	0.876583	-0.344189
H127	H	-0.725115	0.923616	-0.386185
H128	H	-0.728903	0.832162	-0.385972
H129	H	-0.729165	0.916772	0.213026
C130	C	-0.618490	0.936440	-0.233544
C131	C	-0.592252	0.868714	-0.237984
C132	C	-0.564930	0.871753	-0.313667
H133	H	-0.596760	0.981935	-0.236776
H134	H	-0.639489	0.938935	-0.278644
H135	H	-0.571255	0.866227	-0.192897
H136	H	-0.613969	0.823208	-0.234767
H137	H	-0.585929	0.874247	-0.358767
H138	H	-0.543203	0.917250	-0.316892
H139	H	-0.547128	0.825798	-0.316693
C140	C	-0.031766	1.047168	0.787294
C141	C	0.016790	1.036077	0.766018
C142	C	0.046463	1.087652	0.809593
H143	H	-0.037711	1.036742	0.845623
H144	H	-0.038625	1.100111	0.772943
H145	H	0.023646	0.983147	0.780375
H146	H	0.022750	1.046510	0.707697
H147	H	0.039604	1.140594	0.795241
H148	H	0.040514	1.077221	0.867920
H149	H	0.079411	1.080138	0.795157
H150	H	-0.036737	0.329118	0.000015
H151	H	-0.151554	0.838329	0.775584
H152	H	-0.147189	0.845914	0.617019
H153	H	-0.244594	0.925706	-0.137294
H154	H	-0.035521	1.040784	0.616966
H155	H	-0.637652	0.915258	0.213030
H156	H	-0.336109	0.927242	-0.137309
C157	C	-0.467235	0.933987	-0.233625
C158	C	-0.481097	0.868956	-0.279318
C159	C	-0.453873	0.872078	-0.355105
H160	H	-0.433863	0.932881	-0.222921
H161	H	-0.472746	0.981324	-0.264752
H162	H	-0.475582	0.821632	-0.248198
H163	H	-0.514465	0.870050	-0.290044
H164	H	-0.459384	0.919415	-0.386232
H165	H	-0.420502	0.870974	-0.344393
H166	H	-0.463277	0.827961	-0.386121
H167	H	-0.566093	0.934733	-0.213018
C168	C	-0.852749	0.936827	-0.157980
C169	C	-0.883819	0.940566	-0.224264
C170	C	-0.856607	0.943819	-0.300069
H171	H	-0.834902	0.890948	-0.161236
H172	H	-0.831066	0.982390	-0.161187
H173	H	-0.905494	0.895007	-0.221059
H174	H	-0.901667	0.986443	-0.221036
H175	H	-0.834923	0.989382	-0.303277
H176	H	-0.838761	0.897938	-0.303317
H177	H	-0.877683	0.946363	-0.345052
H178	H	-0.951612	0.937437	-0.137344
C179	C	-0.861454	0.921583	0.157967
C180	C	-0.896175	0.918916	0.224244
C181	C	-0.873141	0.914805	0.300055
H182	H	-0.839939	0.966806	0.161244
H183	H	-0.843796	0.875365	0.161163
H184	H	-0.913825	0.965129	0.221050
H185	H	-0.917691	0.873695	0.220996
H186	H	-0.855483	0.868587	0.303250
H187	H	-0.851628	0.960029	0.303323
H188	H	-0.896696	0.912988	0.345033
H189	H	-0.577812	0.914284	0.213048
H190	H	-0.486296	0.912765	0.213049
H191	H	-0.343682	0.914008	0.137371
C192	C	-0.043473	1.026800	0.212737
C193	C	-0.018079	1.071086	0.269711
C194	C	0.013960	1.126915	0.226163
H195	H	-0.061133	1.060914	0.178629
H196	H	-0.021299	1.000511	0.178666
H197	H	-0.040251	1.097373	0.303768
H198	H	-0.000410	1.036994	0.303821
H199	H	0.036134	1.100626	0.192092
H200	H	-0.003703	1.161023	0.192056
H201	H	0.031197	1.156965	0.264813
C202	C	-0.186806	0.677433	-0.000095
C203	C	-0.210206	0.655002	-0.071516
C204	C	-0.255920	0.685876	-0.071648
H205	H	-0.183323	0.733379	-0.000142
H206	H	-0.205432	0.657631	0.048309
H207	H	-0.191585	0.674808	-0.119907
H208	H	-0.213702	0.599061	-0.071484
H209	H	-0.274545	0.666074	-0.023243
H210	H	-0.252431	0.741821	-0.071693
H211	H	-0.271804	0.670655	-0.120102
H212	H	-0.168230	0.809168	0.383075
C213	C	-0.048476	1.017922	0.394926
C214	C	-0.018638	0.974155	0.445098
C215	C	0.011006	1.025639	0.488830
H216	H	-0.068012	1.048712	0.429084
H217	H	-0.029063	1.051738	0.356393
H218	H	-0.038049	0.940353	0.483626
H219	H	0.000908	0.943367	0.410961
H220	H	0.030419	1.059455	0.450297
H221	H	-0.008533	1.056427	0.522983
H222	H	0.031258	0.995951	0.522870
C223	C	-0.004718	0.718890	-0.000122
C224	C	-0.002539	0.769839	-0.071550
C225	C	0.039050	0.820715	-0.071694
H226	H	0.023106	0.688838	-0.000166
H227	H	-0.005815	0.748906	0.048277
H228	H	-0.001438	0.739827	-0.119937
H229	H	-0.030353	0.799909	-0.071521
H230	H	0.037953	0.850731	-0.023295
H231	H	0.066870	0.790656	-0.071736
H232	H	0.040532	0.855295	-0.120153
H233	H	-0.252149	0.912512	0.137371
