data_functionalizedCrystal
_audit_creation_method	'MofGen! by Chris Wilmer'
_symmetry_space_group_name_H-M	'P1'
_symmetry_Int_Tables_number	1
_symmetry_cell_setting	triclinic
loop_
_symmetry_equiv_pos_as_xyz
  x,y,z
_cell_length_a	19.288864
_cell_length_b	15.625429
_cell_length_c	18.366186
_cell_angle_alpha	71.916618
_cell_angle_beta	89.977106
_cell_angle_gamma	83.707361
loop_
_atom_site_label
_atom_site_type_symbol
_atom_site_fract_x
_atom_site_fract_y
_atom_site_fract_z
O1	O	0.921734	0.112464	-0.090473
O2	O	0.719524	0.127635	-0.094428
O3	O	0.826029	-0.011211	-0.057795
O4	O	0.815229	0.251309	-0.127105
O5	O	0.826011	-0.011217	0.063306
O6	O	0.719506	0.127628	0.026673
O7	O	0.921716	0.112457	0.030628
Zn8	Zn	0.820608	0.120041	0.047878
Zn9	Zn	0.820632	0.120050	-0.111678
O10	O	0.815211	0.251302	-0.006004
C11	C	0.693637	0.127143	-0.033742
C12	C	0.616529	0.125678	-0.033336
C13	C	0.572108	0.207146	-0.054857
C14	C	0.499657	0.205769	-0.054501
C15	C	0.471629	0.122920	-0.032639
C16	C	0.516059	0.041441	-0.011111
C17	C	0.588509	0.042820	-0.011460
C18	C	0.363152	0.057793	-0.057895
C19	C	0.290703	0.056418	-0.057552
C20	C	0.248169	0.118663	-0.031559
C21	C	0.278090	0.182299	-0.005923
C22	C	0.350541	0.183678	-0.006272
C23	C	0.393069	0.121415	-0.032258
C24	C	0.125187	0.198644	-0.052695
C25	C	0.052734	0.197264	-0.052334
C26	C	0.069138	0.032933	-0.008950
C27	C	0.141589	0.034316	-0.009305
C28	C	0.169609	0.117174	-0.031181
C29	C	0.825530	-0.044800	0.011621
C30	C	0.824062	-0.144874	0.038040
C31	C	0.819264	-0.473990	-0.205108
C32	C	0.817881	-0.568025	-0.180261
C33	C	0.817861	-0.568019	-0.048245
C34	C	0.819247	-0.473983	-0.073081
C35	C	0.819948	-0.426976	-0.151513
C36	C	0.819931	-0.426968	-0.019486
C37	C	0.821314	-0.332939	-0.044320
C38	C	0.822012	-0.285925	-0.122749
C39	C	0.821330	-0.332947	-0.176347
C40	C	0.819226	-0.473976	0.058946
C41	C	0.819910	-0.426961	0.112541
C42	C	0.821298	-0.332932	0.087708
C43	C	0.821996	-0.285918	0.009279
C44	C	0.821980	-0.285910	0.141306
C45	C	0.823362	-0.191882	0.116472
C46	C	0.823378	-0.191889	-0.015555
C47	C	0.947603	0.112948	-0.030059
C48	C	1.024711	0.114414	-0.030470
C49	C	0.815710	0.284891	-0.075423
C50	C	0.817178	0.384966	-0.101846
N51	N	0.820597	0.120035	0.156771
N52	N	0.820649	0.120050	-0.220569
C53	C	0.867773	0.058584	0.211084
C54	C	0.867777	0.058580	0.287313
C55	C	0.820612	0.120042	0.309222
C56	C	0.773428	0.181497	0.254898
C57	C	0.773420	0.181494	0.178673
C58	C	0.811592	0.202185	0.408296
C59	C	0.811605	0.202190	0.484520
C60	C	0.820632	0.120053	0.544326
C61	C	0.829661	0.037908	0.527901
C62	C	0.829654	0.037905	0.451675
C63	C	0.820615	0.120053	0.391874
C64	C	0.867815	0.058593	0.681297
C65	C	0.867815	0.058588	0.757528
C66	C	0.773469	0.181513	0.725109
C67	C	0.773466	0.181511	0.648882
C68	C	0.820643	0.120052	0.626980
H69	H	0.148002	0.266112	-0.070497
C70	C	0.003871	0.286890	-0.075999
N71	N	-0.032933	0.354399	-0.093822
C72	C	0.409934	-0.010683	-0.086496
N73	N	0.445168	-0.062256	-0.108038
H74	H	0.821906	-0.294672	-0.240214
C75	C	0.820037	-0.422278	-0.291388
N76	N	0.820618	-0.383328	-0.356371
H77	H	0.821402	-0.324196	0.205165
C78	C	0.823533	-0.182491	-0.150066
N79	N	0.824681	-0.104583	-0.170642
H80	H	0.046318	-0.034524	0.008805
C81	C	0.824118	-0.140163	0.175429
N82	N	0.824687	-0.101208	0.219838
C83	C	0.817109	-0.619735	-0.239228
N84	N	0.816520	-0.658681	-0.283641
C85	C	0.919703	-0.009031	0.817279
N86	N	0.958783	-0.059968	0.862285
C87	C	0.839590	-0.052450	0.593684
N88	N	0.847069	-0.120505	0.643235
C89	C	0.839576	-0.052453	0.433610
N90	N	0.847046	-0.120512	0.420003
H91	H	0.817289	-0.606305	0.015614
H92	H	0.818093	-0.550539	0.079163
C93	C	0.819137	-0.478679	0.198814
N94	N	0.818557	-0.517633	0.263797
H95	H	0.906227	0.008547	0.663465
C96	C	0.721587	0.249123	0.749203
N97	N	0.682509	0.300049	0.767355
H98	H	0.906194	0.008538	0.331544
C99	C	0.801666	0.292550	0.502581
N100	N	0.794175	0.360612	0.516182
H101	H	0.177757	-0.032025	0.008216
C102	C	0.919662	-0.009032	0.187000
N103	N	0.958743	-0.059963	0.168859
C104	C	0.257797	-0.013588	-0.085745
N105	N	0.233014	-0.066322	-0.106978
H106	H	0.243460	0.232985	0.015244
H107	H	0.735054	0.231553	0.604655
C108	C	0.801661	0.292548	0.342514
N109	N	0.794182	0.360607	0.292968
H110	H	0.735024	0.231539	0.272740
H111	H	0.594917	0.274615	-0.072671
C112	C	0.450785	0.295394	-0.078185
N113	N	0.413978	0.362900	-0.096028
H114	H	0.735003	0.231535	0.134448
H115	H	0.374900	0.235490	0.014605
H116	H	0.493233	-0.026016	0.006679
H117	H	0.624677	-0.023523	0.006065
H118	H	0.823954	-0.153614	-0.079422
