data_functionalizedCrystal
_audit_creation_method	'MofGen! by Chris Wilmer'
_symmetry_space_group_name_H-M	'P1'
_symmetry_Int_Tables_number	1
_symmetry_cell_setting	triclinic
loop_
_symmetry_equiv_pos_as_xyz
  x,y,z
_cell_length_a	15.944499
_cell_length_b	15.944551
_cell_length_c	15.072220
_cell_angle_alpha	89.997918
_cell_angle_beta	89.984913
_cell_angle_gamma	83.488174
loop_
_atom_site_label
_atom_site_type_symbol
_atom_site_fract_x
_atom_site_fract_y
_atom_site_fract_z
O1	O	1.114562	0.108120	-0.073838
O2	O	0.870006	0.121521	-0.073828
O3	O	0.998962	-0.007456	-0.073825
O4	O	0.985606	0.237096	-0.073840
O5	O	0.998930	-0.007448	0.073740
O6	O	0.869974	0.121528	0.073737
O7	O	1.114530	0.108127	0.073728
Zn8	Zn	0.992247	0.114829	0.097161
Zn9	Zn	0.992289	0.114819	-0.097262
O10	O	0.985574	0.237104	0.073725
C11	C	0.838695	0.120976	-0.000044
C12	C	0.745447	0.119331	-0.000040
C13	C	0.453911	0.194263	-0.000058
C14	C	0.514956	0.155308	-0.072815
C15	C	0.409810	0.113355	-0.000060
C16	C	0.514910	0.155294	0.072673
C17	C	0.574719	0.116296	-0.000049
C18	C	0.469627	0.074377	-0.072877
C19	C	0.469575	0.074374	0.072676
C20	C	0.530603	0.035360	-0.000098
C21	C	0.314810	0.111663	-0.000068
C22	C	0.669718	0.117981	-0.000048
C23	C	0.998392	-0.038746	-0.000042
C24	C	0.996729	-0.131992	-0.000042
C25	C	0.912823	-0.346833	-0.000051
C26	C	0.951771	-0.407854	0.072706
C27	C	0.993722	-0.302717	-0.000048
C28	C	0.951821	-0.407844	-0.072781
C29	C	0.990811	-0.467629	-0.000059
C30	C	1.032692	-0.362510	0.072769
C31	C	1.032731	-0.362494	-0.072784
C32	C	1.071737	-0.423497	-0.000010
C33	C	0.995397	-0.207715	-0.000042
C34	C	0.989143	-0.562630	-0.000059
C35	C	1.145840	0.108672	-0.000058
C36	C	1.239089	0.110317	-0.000068
C37	C	0.986144	0.268394	-0.000060
C38	C	0.987806	0.361640	-0.000066
N39	N	0.992224	0.114835	0.229850
N40	N	0.992318	0.114807	-0.229951
C41	C	0.992287	0.114816	0.589052
C42	C	0.923054	0.183598	0.551443
C43	C	0.923212	0.183849	0.448618
C44	C	0.992255	0.114825	0.410848
C45	C	1.079901	0.133956	0.448134
C46	C	1.079513	0.134445	0.550992
C47	C	0.974656	0.026700	0.551159
C48	C	0.972645	0.027288	0.448295
C49	C	0.992243	0.114829	0.310134
C50	C	0.992305	0.114814	0.689765
H51	H	0.449445	0.040184	0.134192
C52	C	0.885541	0.007674	0.415381
N53	N	0.819933	-0.007096	0.390586
C54	C	0.542011	0.201545	0.155769
N55	N	0.562419	0.236387	0.218354
C56	C	0.905526	-0.435011	0.155805
N57	N	0.870690	-0.455464	0.218392
C58	C	0.822110	-0.301812	0.000052
N59	N	0.753787	-0.267899	0.000135
H60	H	1.095808	0.197486	0.422360
C61	C	1.042860	-0.042450	0.584020
N62	N	1.094231	-0.094528	0.608776
H63	H	0.912133	0.008301	0.577153
H64	H	1.066867	-0.342523	0.134346
H65	H	1.095049	0.198708	0.574969
H66	H	1.138946	-0.456668	0.000029
C67	C	1.078934	-0.335307	-0.155891
N68	N	1.113729	-0.314828	-0.218494
H69	H	0.917607	-0.427918	-0.134296
C70	C	0.835195	0.168467	0.414561
N71	N	0.768895	0.156888	0.388915
C72	C	1.151221	0.069361	0.584600
N73	N	1.205239	0.020352	0.609911
H74	H	0.857694	0.172389	0.576208
C75	C	0.408877	0.284971	-0.000161
N76	N	0.374955	0.353290	-0.000244
C77	C	1.151167	0.068080	0.415078
N78	N	1.204843	0.018461	0.390178
H79	H	0.449662	0.040185	-0.134456
C80	C	0.542133	0.201540	-0.155908
N81	N	0.562603	0.236369	-0.218489
H82	H	0.563780	-0.031846	-0.000132
C83	C	0.938052	0.271441	0.586342
N84	N	0.949352	0.337604	0.612628
C85	C	0.938428	0.272187	0.415355
N86	N	0.949893	0.338726	0.390303
C87	C	1.036357	-0.045098	0.413586
N88	N	1.084356	-0.099617	0.387450
