data_functionalizedCrystal
_audit_creation_method	'MofGen! by Chris Wilmer'
_symmetry_space_group_name_H-M	'P1'
_symmetry_Int_Tables_number	1
_symmetry_cell_setting	triclinic
loop_
_symmetry_equiv_pos_as_xyz
  x,y,z
_cell_length_a	19.077236
_cell_length_b	14.909042
_cell_length_c	19.076919
_cell_angle_alpha	90.890210
_cell_angle_beta	90.112677
_cell_angle_gamma	88.878557
loop_
_atom_site_label
_atom_site_type_symbol
_atom_site_fract_x
_atom_site_fract_y
_atom_site_fract_z
Zn1	Zn	1.073563	-0.325968	0.426503
Zn2	Zn	1.573563	0.174032	0.926503
Zn3	Zn	1.084945	-0.469875	0.302799
Zn4	Zn	1.584945	0.030125	0.802799
Zn5	Zn	0.960756	-0.325497	0.304304
Zn6	Zn	1.460756	0.174503	0.804304
Zn7	Zn	0.963326	-0.481855	0.415021
Zn8	Zn	1.463326	0.018145	0.915021
O9	O	1.020647	-0.400799	0.362157
O10	O	1.520647	0.099201	0.862157
O11	O	1.173181	-0.340241	0.414269
O12	O	1.673181	0.159759	0.914269
O13	O	1.072159	-0.445513	0.204892
O14	O	1.572159	0.054487	0.704892
O15	O	0.969882	-0.199898	0.325949
O16	O	1.469882	0.300102	0.825949
O17	O	1.181543	-0.445969	0.323384
O18	O	1.681543	0.054031	0.823384
O19	O	1.052760	-0.200244	0.415728
O20	O	1.552760	0.299756	0.915728
O21	O	0.980919	-0.339439	0.205998
O22	O	1.480919	0.160561	0.705998
O23	O	0.862989	-0.351055	0.314815
O24	O	1.362989	0.148945	0.814815
O25	O	0.974261	-0.466387	0.514651
O26	O	1.474261	0.033613	1.014651
O27	O	0.864877	-0.465931	0.396159
O28	O	1.364877	0.034069	0.896159
O29	O	1.055251	-0.351858	0.523087
O30	O	1.555251	0.148142	1.023087
O31	O	1.074651	-0.597126	0.312251
O32	O	1.574651	-0.097126	0.812251
O33	O	0.985297	-0.605928	0.394700
O34	O	1.485297	-0.105928	0.894700
C35	C	0.838495	-0.409742	0.354405
C36	C	1.338495	0.090258	0.854405
C37	C	0.760569	-0.413591	0.351104
C38	C	1.260569	0.086409	0.851104
C39	C	0.719608	-0.360447	0.396937
C40	C	1.219608	0.139553	0.896937
C41	C	0.646389	-0.364059	0.393829
C42	C	1.146389	0.135941	0.893829
C43	C	0.614132	-0.420819	0.344892
C44	C	1.114132	0.079181	0.844892
C45	C	0.655099	-0.473965	0.299055
C46	C	1.155099	0.026035	0.799055
C47	C	0.728316	-0.470349	0.302159
C48	C	1.228316	0.029651	0.802159
C49	C	0.395622	-0.437525	0.330523
C50	C	0.895622	0.062475	0.830523
C51	C	0.322398	-0.441139	0.327424
C52	C	0.822398	0.058861	0.827424
C53	C	0.313694	-0.331231	0.422198
C54	C	0.813694	0.168769	0.922198
C55	C	0.386913	-0.327623	0.425301
C56	C	0.886913	0.172377	0.925301
C57	C	0.427873	-0.380766	0.379461
C58	C	0.927873	0.119234	0.879461
N59	N	0.539291	-0.424514	0.341716
N60	N	1.039291	0.075486	0.841716
N61	N	0.502713	-0.377065	0.382634
N62	N	1.002713	0.122935	0.882634
C63	C	1.031506	-0.634110	0.352082
C64	C	1.531506	-0.134110	0.852082
C65	C	1.036215	-0.733919	0.347798
C66	C	1.536215	-0.233919	0.847798
C67	C	0.951936	-0.930702	0.425522
C68	C	1.451936	-0.430702	0.925522
C69	C	0.956358	-1.024482	0.421499
C70	C	1.456358	-0.524482	0.921499
C71	C	1.049477	-1.015262	0.335727
C72	C	1.549477	-0.515262	0.835727
C73	C	1.045055	-0.921482	0.339750
C74	C	1.545055	-0.421482	0.839750
C75	C	0.996284	-0.879205	0.384649
C76	C	1.496284	-0.379205	0.884649
C77	C	0.991866	-0.785423	0.388675
C78	C	1.491866	-0.285423	0.888675
C79	C	1.084980	-0.776205	0.302900
C80	C	1.584980	-0.276205	0.802900
C81	C	1.089402	-0.869985	0.298877
C82	C	1.589402	-0.369985	0.798877
C83	C	1.203512	-0.391821	0.369940
C84	C	1.703512	0.108179	0.869940
C85	C	1.281437	-0.387995	0.373257
C86	C	1.781437	0.112005	0.873257
C87	C	1.013773	-0.410511	0.545018
C88	C	1.513773	0.089489	1.045018
C89	C	1.010843	-0.414650	0.622942
C90	C	1.510843	0.085350	1.122942
C91	C	1.009765	-0.166577	0.372287
C92	C	1.509765	0.333423	0.872287
C93	C	1.005127	-0.066765	0.376604
C94	C	1.505127	0.433235	0.876604
C95	C	1.027533	-0.391058	0.180012
C96	C	1.527533	0.108942	0.680012
C97	C	1.030586	-0.386659	0.102105
C98	C	1.530586	0.113341	0.602105
C99	C	1.051633	-0.356968	0.663945
C100	C	1.551633	0.143032	1.163945
C101	C	1.048871	-0.360854	0.737163
C102	C	1.548871	0.139146	1.237163
C103	C	1.005324	-0.422427	0.769377
C104	C	1.505324	0.077573	1.269377
C105	C	0.964530	-0.480112	0.728370
C106	C	1.464530	0.019888	1.228370
C107	C	0.967288	-0.476221	0.655153
C108	C	1.467288	0.023779	1.155153
C109	C	0.992550	-0.440453	0.987880
C110	C	1.492550	0.059547	1.487880
C111	C	0.989797	-0.444342	1.061102
C112	C	1.489797	0.055658	1.561102
C113	C	1.074137	-0.325082	1.069890
C114	C	1.574137	0.174918	1.569890
C115	C	1.076895	-0.321200	0.996672
C116	C	1.576895	0.178800	1.496672
C117	C	1.036098	-0.378882	0.955671
C118	C	1.536098	0.121118	1.455671
N119	N	1.002502	-0.426402	0.844218
N120	N	1.502502	0.073598	1.344218
N121	N	1.038917	-0.374901	0.880832
N122	N	1.538917	0.125099	1.380832
H123	H	0.628830	-0.520177	0.259206
H124	H	1.128830	-0.020177	0.759206
O125	O	0.772502	-0.527668	0.252727
O126	O	1.272502	-0.027668	0.752727
H127	H	0.737772	-0.567751	0.218180
H128	H	1.237772	-0.067751	0.718180
H129	H	1.087096	-0.306831	0.637721
H130	H	1.587096	0.193169	1.137721
H131	H	1.107351	-0.278120	1.103281
H132	H	1.607351	0.221880	1.603281
O133	O	1.102073	-1.060892	0.287313
O134	O	1.602073	-0.560892	0.787313
H135	H	1.091325	-1.040621	0.232534
H136	H	1.591325	-0.540621	0.732534
H137	H	0.952155	-0.751003	0.425237
H138	H	1.452155	-0.251003	0.925237
H139	H	0.912229	-0.896280	0.462086
H140	H	1.412229	-0.396280	0.962086
H141	H	0.613041	-0.320785	0.431153
H142	H	1.113041	0.179215	0.931153
O143	O	0.908530	-1.080030	0.465585
O144	O	1.408530	-0.580030	0.965585
H145	H	0.873879	-1.034873	0.497484
H146	H	1.373879	-0.534873	0.997484
H147	H	0.954334	-0.494484	1.087329
H148	H	1.454334	0.005516	1.587329
H149	H	0.413171	-0.281406	0.465153
H150	H	0.913171	0.218594	0.965153
O151	O	1.092873	-0.298644	0.781384
O152	O	1.592873	0.201356	1.281384
H153	H	1.058119	-0.256258	0.815376
H154	H	1.558119	0.243742	1.315376
O155	O	1.132821	-0.720660	0.258817
O156	O	1.632821	-0.220660	0.758817
H157	H	1.123773	-0.736369	0.202499
H158	H	1.623773	-0.236369	0.702499
H159	H	1.112357	-0.271063	0.970448
H160	H	1.612357	0.228937	1.470448
H161	H	0.959342	-0.487434	0.954506
H162	H	1.459342	0.012566	1.454506
H163	H	1.129108	-0.904419	0.262320
H164	H	1.629108	-0.404419	0.762320
O165	O	0.917555	-0.546520	0.763110
O166	O	1.417555	-0.046520	1.263110
H167	H	0.922493	-0.539541	0.820911
H168	H	1.422493	-0.039541	1.320911
O169	O	0.439791	-0.494847	0.281085
O170	O	0.939791	0.005153	0.781085
H171	H	0.496124	-0.482794	0.291455
H172	H	0.996124	0.017206	0.791455
O173	O	0.923285	-0.538423	0.610924
O174	O	1.423285	-0.038423	1.110924
H175	H	0.892541	-0.581893	0.645624
H176	H	1.392541	-0.081893	1.145624
H177	H	0.280336	-0.287964	0.459518
H178	H	0.780336	0.212036	0.959518
O179	O	0.754399	-0.299220	0.449715
O180	O	1.254399	0.200780	0.949715
H181	H	0.713612	-0.262865	0.481057
H182	H	1.213612	0.237135	0.981057
H183	H	0.296138	-0.487365	0.287573
H184	H	0.796138	0.012635	0.787573
