data_functionalizedCrystal
_audit_creation_method	'MofGen! by Chris Wilmer'
_symmetry_space_group_name_H-M	'P1'
_symmetry_Int_Tables_number	1
_symmetry_cell_setting	triclinic
loop_
_symmetry_equiv_pos_as_xyz
  x,y,z
_cell_length_a	17.699077
_cell_length_b	15.995292
_cell_length_c	16.776229
_cell_angle_alpha	89.996541
_cell_angle_beta	89.993415
_cell_angle_gamma	83.374596
loop_
_atom_site_label
_atom_site_type_symbol
_atom_site_fract_x
_atom_site_fract_y
_atom_site_fract_z
O1	O	1.004237	0.105864	-0.066272
O2	O	0.783879	0.119646	-0.066275
O3	O	0.900105	-0.009148	-0.066275
O4	O	0.888011	0.234658	-0.066272
O5	O	0.900089	-0.009156	0.066302
O6	O	0.783863	0.119638	0.066301
O7	O	1.004222	0.105856	0.066305
Zn8	Zn	0.894040	0.112746	0.087352
Zn9	Zn	0.894060	0.112756	-0.087323
O10	O	0.887996	0.234651	0.066304
C11	C	0.755673	0.119149	0.000013
C12	C	0.671653	0.117670	0.000011
C13	C	0.632176	0.116969	0.072279
C14	C	0.553231	0.115566	0.072280
C15	C	0.513764	0.114870	0.000012
C16	C	0.553247	0.115569	-0.072262
C17	C	0.632191	0.116966	-0.072262
C18	C	0.234875	0.109934	-0.072264
C19	C	0.155926	0.108539	-0.072258
C20	C	0.155916	0.108534	0.072279
C21	C	0.234860	0.109931	0.072279
C22	C	0.274336	0.110625	0.000005
C23	C	0.359937	0.112145	0.000005
C24	C	0.428164	0.113356	0.000011
C25	C	0.899605	-0.040347	0.000012
C26	C	0.898129	-0.133297	0.000006
C27	C	0.892704	-0.471024	0.000013
C28	C	0.976593	-0.447884	0.000310
C29	C	0.978188	-0.351212	0.000008
C30	C	0.895396	-0.303474	0.000010
C31	C	0.853465	-0.332484	-0.075696
C32	C	0.852455	-0.429272	-0.075757
C33	C	0.850724	-0.429135	0.075008
C34	C	0.853833	-0.332649	0.076005
C35	C	0.896913	-0.208781	0.000005
C36	C	0.891185	-0.565717	0.000012
C37	C	1.032427	0.106353	0.000015
C38	C	1.116448	0.107832	0.000011
C39	C	0.888496	0.265849	0.000016
C40	C	0.889972	0.358799	0.000017
N41	N	0.894032	0.112738	0.206564
N42	N	0.894075	0.112757	-0.206534
C43	C	0.945512	0.055732	0.248281
C44	C	0.945517	0.055731	0.331733
C45	C	0.894043	0.112742	0.373466
C46	C	0.842557	0.169751	0.331743
C47	C	0.842550	0.169747	0.248293
C48	C	0.842585	0.169767	0.668290
C49	C	0.842597	0.169769	0.751747
C50	C	0.945551	0.055751	0.751731
C51	C	0.945544	0.055747	0.668280
C52	C	0.894056	0.112753	0.626564
C53	C	0.894051	0.112752	0.536076
C54	C	0.894051	0.112747	0.463953
H55	H	0.664303	0.117542	0.131129
H56	H	1.011028	-0.332258	0.054276
H57	H	0.123794	0.107972	-0.131111
H58	H	0.267008	0.110497	-0.131113
H59	H	0.800679	0.216195	0.785725
H60	H	0.521107	0.114996	-0.131104
H61	H	0.664332	0.117538	-0.131110
H62	H	0.877136	-0.457281	0.132392
H63	H	0.521094	0.114981	0.131128
H64	H	0.884365	-0.314150	0.132012
H65	H	1.008921	-0.475951	0.054602
H66	H	0.790947	-0.443696	-0.079186
H67	H	1.008754	-0.476965	-0.053676
H68	H	0.792541	-0.300491	-0.078510
H69	H	0.881507	-0.456145	-0.132349
H70	H	0.266989	0.110502	0.131127
H71	H	0.793403	-0.299555	0.080578
H72	H	0.788976	-0.442998	0.075518
H73	H	0.123765	0.107965	0.131127
H74	H	1.011234	-0.332872	-0.054354
H75	H	0.800662	0.216185	0.634332
H76	H	0.987431	0.009310	0.214307
H77	H	0.882596	-0.312480	-0.132037
H78	H	0.800643	0.216167	0.365727
H79	H	0.987435	0.009311	0.365699
H80	H	0.987461	0.009327	0.634303
H81	H	0.987474	0.009331	0.785705
H82	H	0.800628	0.216167	0.214327
