data_functionalizedCrystal
_audit_creation_method	'MofGen! by Chris Wilmer'
_symmetry_space_group_name_H-M	'P1'
_symmetry_Int_Tables_number	1
_symmetry_cell_setting	triclinic
loop_
_symmetry_equiv_pos_as_xyz
  x,y,z
_cell_length_a	23.096457
_cell_length_b	20.919151
_cell_length_c	20.919292
_cell_angle_alpha	60.191315
_cell_angle_beta	93.153483
_cell_angle_gamma	58.213384
loop_
_atom_site_label
_atom_site_type_symbol
_atom_site_fract_x
_atom_site_fract_y
_atom_site_fract_z
Zr1	Zr	0.514551	0.741728	-0.125049
O2	O	0.409563	0.883105	-0.235092
O3	O	0.551895	0.600354	-0.085894
O4	O	0.537795	0.741729	-0.227276
O5	O	0.428917	0.741728	0.011649
O6	O	0.633077	0.741726	-0.227279
O7	O	0.423664	0.741730	-0.093709
O8	O	0.658300	0.488832	0.025630
O9	O	0.403695	0.994622	-0.241259
O10	O	0.632696	0.658500	-0.075746
O11	O	0.565509	0.658500	0.002883
O12	O	0.548908	0.824951	-0.163577
O13	O	0.481721	0.824952	-0.084948
Zr14	Zr	0.674895	0.741720	0.042982
Zr15	Zr	0.666516	0.741724	-0.125052
Zr16	Zr	0.522930	0.741724	0.042985
Zr17	Zr	0.505191	0.919585	-0.134885
Zr18	Zr	0.684255	0.563863	0.052818
O19	O	0.637551	0.883094	0.003826
O20	O	0.625637	0.883099	-0.235097
O21	O	0.421477	0.883100	0.003831
O22	O	0.779883	0.600343	0.153025
O23	O	0.767969	0.600348	-0.085898
O24	O	0.563809	0.600349	0.153029
O25	O	0.760529	0.741720	-0.093716
O26	O	0.651651	0.741719	0.145209
O27	O	0.556369	0.741722	0.145211
O28	O	0.765782	0.741718	0.011642
O29	O	0.524486	0.994619	-0.241262
O30	O	0.664960	0.488829	0.159194
O31	O	0.785751	0.488826	0.159192
O32	O	0.779091	0.488829	0.025627
O33	O	0.410355	0.994619	-0.107694
O34	O	0.531146	0.994616	-0.107697
O35	O	0.640538	0.658497	0.081509
O36	O	0.707725	0.658496	0.002880
O37	O	0.623937	0.824948	-0.084951
O38	O	0.556750	0.824948	-0.006322
C39	C	0.606431	0.519252	-0.028731
C40	C	0.610405	0.443747	-0.024555
C41	C	0.553648	0.469735	-0.084046
C42	C	0.557382	0.398803	-0.080151
C43	C	0.617870	0.301885	-0.016761
C44	C	0.674631	0.275897	0.042733
C45	C	0.670900	0.346828	0.038834
C46	C	0.632072	0.084644	-0.001917
C47	C	0.635798	0.013713	0.001979
C48	C	0.518548	0.136624	-0.120907
C49	C	0.514820	0.207551	-0.124797
C50	C	0.571584	0.181558	-0.065306
C51	C	0.621686	0.229380	-0.012776
C52	C	0.567769	0.254062	-0.069294
C53	C	0.404639	0.741729	-0.041029
C54	C	0.340126	0.741731	-0.041028
C55	C	0.306928	0.741739	-0.099075
C56	C	0.246316	0.741731	-0.099074
C57	C	0.218895	0.741733	-0.041034
C58	C	0.252103	0.741719	0.017024
C59	C	0.312719	0.741718	0.017026
N60	N	0.098564	0.795988	-0.026463
N61	N	0.040981	0.795991	-0.026470
C62	C	0.036266	0.741733	-0.041038
N63	N	0.091303	0.687485	-0.055613
N64	N	0.148889	0.687486	-0.055610
C65	C	0.153169	0.741733	-0.041030
C66	C	-0.062654	0.741731	-0.099087
C67	C	-0.123264	0.741716	-0.099081
C68	C	-0.117480	0.741715	0.017013
C69	C	-0.056867	0.741720	0.017011
C70	C	-0.029460	0.741732	-0.041044
C71	C	0.784807	0.741719	-0.041038
C72	C	0.849320	0.741717	-0.041039
C73	C	0.584242	0.741728	-0.251219
C74	C	0.580685	0.741730	-0.322554
C75	C	0.583015	0.964196	-0.053337
C76	C	0.579042	1.039701	-0.057512
C77	C	0.631505	0.741730	-0.356068
C78	C	0.628165	0.741723	-0.423090
C79	C	0.574001	0.741722	-0.456601
C80	C	0.523179	0.741719	-0.423080
C81	C	0.526523	0.741720	-0.356055
C82	C	0.561282	0.741715	-0.658968
C83	C	0.557941	0.741718	-0.725999
C84	C	0.662929	0.741720	-0.726004
C85	C	0.666265	0.741726	-0.658981
C86	C	0.615445	0.741718	-0.625464
C87	C	0.570585	0.741718	-0.525110
C88	C	0.618866	0.741715	-0.556952
C89	C	0.605204	0.741720	0.169151
C90	C	0.608761	0.741718	0.240486
C91	C	0.796515	0.519247	-0.028735
C92	C	0.865002	0.443740	-0.024561
C93	C	0.616912	0.519248	0.181455
C94	C	0.624442	0.443742	0.256965
C95	C	0.806996	0.519243	0.181450
C96	C	0.879040	0.443734	0.256959
C97	C	0.382450	0.964205	-0.263518
C98	C	0.310406	1.039714	-0.339027
C99	C	0.392931	0.964201	-0.053333
C100	C	0.324444	1.039708	-0.057507
C101	C	0.572534	0.964200	-0.263522
C102	C	0.565004	1.039707	-0.339032
C103	C	0.857999	0.408283	-0.063649
C104	C	0.922342	0.337347	-0.059744
C105	C	0.993688	0.301863	-0.016744
C106	C	1.000689	0.337327	0.022346
C107	C	0.936346	0.408267	0.018435
C108	C	0.667144	0.408281	0.333475
C109	C	0.674217	0.337345	0.404431
C110	C	0.638592	0.301865	0.398876
C111	C	0.595886	0.337333	0.322358
C112	C	0.588809	0.408273	0.251403
C113	C	0.947949	0.408275	0.251376
C114	C	1.015647	0.337337	0.322318
C115	C	1.014433	0.301855	0.398843
C116	C	0.945516	0.337321	0.404424
C117	C	0.877820	0.408263	0.333483
C118	C	0.241496	1.075182	-0.333444
C119	C	0.173797	1.146142	-0.404387
C120	C	0.175011	1.181628	-0.480912
C121	C	0.243929	1.146156	-0.486493
C122	C	0.311626	1.075203	-0.415551
C123	C	0.331446	1.075172	-0.018425
C124	C	0.267101	1.146129	-0.022351
C125	C	0.195755	1.181614	-0.065353
C126	C	0.188755	1.146147	-0.104439
C127	C	0.253099	1.075197	-0.100519
C128	C	0.600638	1.075163	-0.333451
C129	C	0.593576	1.146100	-0.404394
C130	C	0.550876	1.181584	-0.480918
C131	C	0.515242	1.146120	-0.486498
C132	C	0.522308	1.075179	-0.415555
H133	H	0.678293	0.063468	0.046525
Cl134	Cl	-0.015133	0.741717	0.089983
H135	H	0.117689	1.175011	-0.399826
H136	H	0.143369	1.239387	-0.068539
Cl137	Cl	0.638374	1.190674	-0.397361
Cl138	Cl	0.791194	0.452826	0.340517
Cl139	Cl	0.750676	0.154056	0.122422
Cl140	Cl	0.462633	0.741714	-0.313921
H141	H	1.046074	0.244098	-0.013565
H142	H	1.069561	0.244089	0.456601
Cl143	Cl	0.244284	1.030615	-0.149649
Cl144	Cl	0.742257	0.314155	0.113623
H145	H	0.696155	0.437161	0.338013
Cl146	Cl	1.090387	0.292705	0.076404
Cl147	Cl	0.647498	0.212681	0.488085
Cl148	Cl	1.102276	0.292761	0.315282
Cl149	Cl	0.949495	0.452872	0.155181
Cl150	Cl	0.654323	1.030569	-0.237258
H151	H	0.244908	1.175058	-0.548809
H152	H	0.944539	0.308422	0.466741
H153	H	0.670936	0.150461	0.038836
H154	H	0.240494	1.046293	-0.271139
Cl155	Cl	0.341387	0.741748	-0.172052
H156	H	0.272816	1.174994	0.009482
Cl157	Cl	0.535128	0.452837	0.155223
H158	H	0.545129	1.239348	-0.538678
Cl159	Cl	0.398253	1.030616	-0.422584
Cl160	Cl	0.551107	0.292718	0.315388
Cl161	Cl	0.421130	1.030581	0.035636
H162	H	0.942058	0.437127	0.050271
Cl163	Cl	0.727910	0.292769	0.500614
Cl164	Cl	0.461556	1.190747	-0.582707
Cl165	Cl	-0.164996	0.741718	-0.172056
H166	H	0.511165	0.419972	-0.128594
H167	H	0.119883	1.239403	-0.538671
H168	H	0.130656	1.175051	-0.139451
Cl169	Cl	0.204575	0.741742	-0.172055
H170	H	0.472336	0.157777	-0.169342
H171	H	0.493286	1.046318	-0.420111
H172	H	0.504386	0.548648	-0.135657
H173	H	0.685056	-0.065206	0.053602
Cl174	Cl	0.438771	0.329390	-0.204486
H175	H	0.518522	0.332976	-0.120908
Cl176	Cl	0.217635	0.741716	0.089992
H177	H	0.339749	0.741712	0.064296
H178	H	-0.139804	0.741711	0.064274
Cl179	Cl	-0.028194	0.741739	-0.172065
H180	H	0.799911	0.437173	-0.098674
H181	H	0.675609	0.741736	-0.328792
H182	H	0.710370	0.741726	-0.631698
Cl183	Cl	0.726816	0.741725	-0.768140
Cl184	Cl	0.692056	0.741722	-0.465223
H185	H	0.513830	0.741719	-0.753281
H186	H	0.519901	0.741711	-0.631685
Cl187	Cl	0.913524	0.292774	-0.108886
Cl188	Cl	0.686958	0.741711	-0.514822
Cl189	Cl	0.455089	0.741712	-0.465202
H190	H	0.526482	0.741720	-0.552401
