data_functionalizedCrystal
_audit_creation_method	'MofGen! by Chris Wilmer'
_symmetry_space_group_name_H-M	'P1'
_symmetry_Int_Tables_number	1
_symmetry_cell_setting	triclinic
loop_
_symmetry_equiv_pos_as_xyz
  x,y,z
_cell_length_a	21.395364
_cell_length_b	25.639240
_cell_length_c	21.395356
_cell_angle_alpha	89.963811
_cell_angle_beta	89.983542
_cell_angle_gamma	90.028522
loop_
_atom_site_label
_atom_site_type_symbol
_atom_site_fract_x
_atom_site_fract_y
_atom_site_fract_z
Zn1	Zn	0.957800	-0.208221	-0.354226
Zn2	Zn	1.291134	0.125113	-0.020893
Zn3	Zn	1.624467	0.458446	0.312441
Zn4	Zn	0.957714	-0.295655	-0.249434
Zn5	Zn	1.291047	0.037678	0.083900
Zn6	Zn	1.624380	0.371012	0.417233
Zn7	Zn	0.853030	-0.208229	-0.249463
Zn8	Zn	1.186363	0.125104	0.083871
Zn9	Zn	1.519697	0.458438	0.417204
Zn10	Zn	0.852981	-0.295620	-0.354174
Zn11	Zn	1.186314	0.037713	-0.020841
Zn12	Zn	1.519647	0.371046	0.312493
O13	O	0.905381	-0.251931	-0.301824
O14	O	1.238715	0.081402	0.031509
O15	O	1.572048	0.414735	0.364843
O16	O	1.045467	-0.219830	-0.340335
O17	O	1.378800	0.113503	-0.007001
O18	O	1.712133	0.446837	0.326332
O19	O	0.943812	-0.284076	-0.161760
O20	O	1.277145	0.049258	0.171574
O21	O	1.610478	0.382591	0.504907
O22	O	0.866985	-0.135063	-0.263394
O23	O	1.200318	0.198271	0.069940
O24	O	1.533652	0.531604	0.403273
O25	O	1.045403	-0.284068	-0.263344
O26	O	1.378736	0.049266	0.069989
O27	O	1.712070	0.382599	0.403322
O28	O	0.943959	-0.135056	-0.340363
O29	O	1.277292	0.198277	-0.007029
O30	O	1.610626	0.531610	0.326304
O31	O	0.866901	-0.219844	-0.161781
O32	O	1.200234	0.113489	0.171552
O33	O	1.533568	0.446822	0.504886
O34	O	0.765346	-0.219811	-0.263343
O35	O	1.098679	0.113523	0.069990
O36	O	1.432012	0.446856	0.403323
O37	O	0.866901	-0.284009	-0.441859
O38	O	1.200234	0.049325	-0.108526
O39	O	1.533567	0.382658	0.224808
O40	O	0.765309	-0.284017	-0.340274
O41	O	1.098643	0.049317	-0.006941
O42	O	1.431976	0.382650	0.326392
O43	O	0.943911	-0.219796	-0.441897
O44	O	1.277245	0.113537	-0.108564
O45	O	1.610578	0.446870	0.224770
O46	O	0.943764	-0.368816	-0.263294
O47	O	1.277097	-0.035482	0.070039
O48	O	1.610430	0.297851	0.403373
O49	O	0.866817	-0.368790	-0.340246
O50	O	1.200150	-0.035457	-0.006913
O51	O	1.533484	0.297877	0.326420
C52	C	0.742594	-0.251911	-0.301807
C53	C	1.075927	0.081422	0.031527
C54	C	1.409260	0.414756	0.364860
C55	C	0.672952	-0.251915	-0.301814
C56	C	1.006286	0.081418	0.031519
C57	C	1.339619	0.414751	0.364853
C58	C	0.171189	-0.218562	-0.341987
C59	C	0.504522	0.114772	-0.008654
C60	C	0.837855	0.448105	0.324680
C61	C	0.236624	-0.218558	-0.341987
C62	C	0.569957	0.114776	-0.008654
C63	C	0.903291	0.448109	0.324680
C64	C	0.269314	-0.251947	-0.301838
C65	C	0.602647	0.081386	0.031495
C66	C	0.935981	0.414719	0.364828
C67	C	0.236563	-0.285353	-0.261698
C68	C	0.569897	0.047981	0.071635
C69	C	0.903230	0.381314	0.404969
C70	C	0.171129	-0.285359	-0.261704
C71	C	0.504462	0.047974	0.071630
C72	C	0.837796	0.381307	0.404963
C73	C	0.372958	-0.256004	-0.245370
C74	C	0.706292	0.077330	0.087963
C75	C	1.039625	0.410663	0.421296
C76	C	0.438391	-0.255994	-0.245364
C77	C	0.771725	0.077340	0.087970
C78	C	1.105058	0.410673	0.421303
C79	C	0.471135	-0.251930	-0.301821
C80	C	0.804468	0.081404	0.031512
C81	C	1.137801	0.414737	0.364846
C82	C	0.438437	-0.247865	-0.358287
C83	C	0.771771	0.085468	-0.024953
C84	C	1.105104	0.418801	0.308380
C85	C	0.373003	-0.247872	-0.358293
C86	C	0.706336	0.085461	-0.024959
C87	C	1.039670	0.418795	0.308374
C88	C	0.340266	-0.251944	-0.301828
C89	C	0.673600	0.081389	0.031506
C90	C	1.006933	0.414723	0.364839
C91	C	0.574830	-0.218525	-0.341962
C92	C	0.908164	0.114808	-0.008628
C93	C	1.241497	0.448142	0.324705
C94	C	0.640267	-0.218525	-0.341962
C95	C	0.973600	0.114809	-0.008629
C96	C	1.306934	0.448142	0.324704
C97	C	0.640205	-0.285317	-0.261668
C98	C	0.973538	0.048016	0.071665
C99	C	1.306871	0.381350	0.404999
C100	C	0.574769	-0.285320	-0.261673
C101	C	0.908103	0.048013	0.071661
C102	C	1.241436	0.381347	0.404994
C103	C	0.542086	-0.251921	-0.301819
C104	C	0.875419	0.081412	0.031515
C105	C	1.208753	0.414746	0.364848
C106	C	0.905293	-0.387774	-0.301775
C107	C	1.238626	-0.054440	0.031558
C108	C	1.571959	0.278893	0.364892
C109	C	0.905312	-0.445888	-0.301775
C110	C	1.238645	-0.112555	0.031558
C111	C	1.571979	0.220779	0.364892
C112	C	0.945482	-0.806209	-0.341974
C113	C	1.278815	-0.472876	-0.008641
C114	C	1.612148	-0.139543	0.324692
C115	C	0.945500	-0.860813	-0.341987
C116	C	1.278833	-0.527480	-0.008654
C117	C	1.612167	-0.194147	0.324680
O118	O	0.979548	-0.889015	-0.376115
O119	O	1.312882	-0.555681	-0.042782
O120	O	1.646215	-0.222348	0.290551
N121	N	0.905468	-0.888170	-0.301885
N122	N	1.238801	-0.554837	0.031449
N123	N	1.572135	-0.221504	0.364782
C124	C	0.865411	-0.860920	-0.261772
C125	C	1.198744	-0.527587	0.071562
C126	C	1.532077	-0.194253	0.404895
O127	O	0.831362	-0.889203	-0.227663
O128	O	1.164695	-0.555870	0.105670
O129	O	1.498028	-0.222536	0.439004
C130	C	0.865389	-0.806317	-0.261762
C131	C	1.198723	-0.472983	0.071571
C132	C	1.532056	-0.139650	0.404904
C133	C	0.905428	-0.778963	-0.301863
C134	C	1.238762	-0.445629	0.031470
C135	C	1.572095	-0.112296	0.364804
C136	C	0.985517	-0.778855	-0.382072
C137	C	1.318850	-0.445522	-0.048739
C138	C	1.652184	-0.112189	0.284595
C139	C	0.985499	-0.724255	-0.382058
C140	C	1.318832	-0.390921	-0.048725
C141	C	1.652166	-0.057588	0.284609
C142	C	0.945446	-0.697008	-0.341947
C143	C	1.278779	-0.363675	-0.008613
C144	C	1.612113	-0.030341	0.324720
C145	C	0.905411	-0.724362	-0.301849
C146	C	1.238744	-0.391029	0.031484
C147	C	1.572077	-0.057695	0.364818
C148	C	0.825329	-0.779067	-0.221653
C149	C	1.158663	-0.445734	0.111680
C150	C	1.491996	-0.112401	0.445014
C151	C	0.825311	-0.724460	-0.221648
C152	C	1.158644	-0.391127	0.111686
C153	C	1.491978	-0.057794	0.445019
C154	C	0.865350	-0.697106	-0.261748
C155	C	1.198684	-0.363773	0.071585
C156	C	1.532017	-0.030440	0.404919
C157	C	0.865340	-0.642515	-0.261724
C158	C	1.198673	-0.309182	0.071609
C159	C	1.532006	0.024152	0.404943
N160	N	0.905372	-0.615158	-0.301826
N161	N	1.238705	-0.281825	0.031507
N162	N	1.572038	0.051508	0.364840
C163	C	0.945425	-0.642405	-0.341938
C164	C	1.278758	-0.309071	-0.008604
C165	C	1.612091	0.024262	0.324729
C166	C	0.865457	-0.975590	-0.261795
C167	C	1.198791	-0.642257	0.071539
C168	C	1.532124	-0.308924	0.404872
C169	C	0.865481	-1.030193	-0.261800
C170	C	1.198815	-0.696859	0.071533
C171	C	1.532148	-0.363526	0.404867
C172	C	0.945570	-1.030083	-0.342016
C173	C	1.278903	-0.696749	-0.008683
C174	C	1.612237	-0.363416	0.324650
C175	C	0.945549	-0.975479	-0.342007
C176	C	1.278882	-0.642146	-0.008674
C177	C	1.612216	-0.308813	0.324659
C178	C	0.905489	-0.948234	-0.301897
C179	C	1.238823	-0.614900	0.031437
C180	C	1.572156	-0.281567	0.364770
C181	C	0.945385	-0.527740	-0.341905
C182	C	1.278718	-0.194406	-0.008572
C183	C	1.612051	0.138927	0.324761
C184	C	0.945365	-0.473134	-0.341886
C185	C	1.278699	-0.139801	-0.008553
C186	C	1.612032	0.193532	0.324780
C187	C	0.865274	-0.473249	-0.261673
C188	C	1.198608	-0.139916	0.071661
C189	C	1.531941	0.193417	0.404994
C190	C	0.865296	-0.527850	-0.261689
C191	C	1.198629	-0.194517	0.071644
C192	C	1.531963	0.138817	0.404978
C193	C	0.905353	-0.555094	-0.301811
C194	C	1.238687	-0.221760	0.031523
C195	C	1.572020	0.111573	0.364856
O196	O	0.831307	-0.614279	-0.227615
O197	O	1.164640	-0.280946	0.105718
O198	O	1.497974	0.052388	0.439052
O199	O	0.979462	-0.614115	-0.376046
O200	O	1.312796	-0.280782	-0.042713
O201	O	1.646129	0.052552	0.290620
C202	C	1.068804	-0.251952	-0.301842
C203	C	1.402138	0.081382	0.031491
C204	C	1.735471	0.414715	0.364825
C205	C	1.138446	-0.251960	-0.301850
C206	C	1.471779	0.081373	0.031484
C207	C	1.805112	0.414706	0.364817
C208	C	0.905410	-0.251898	-0.465247
C209	C	1.238744	0.081436	-0.131914
C210	C	1.572077	0.414769	0.201419
C211	C	0.905423	-0.251883	-0.534889
C212	C	1.238756	0.081450	-0.201555
C213	C	1.572089	0.414783	0.131778
C214	C	0.905487	-0.115558	-0.301887
C215	C	1.238820	0.217775	0.031446
C216	C	1.572154	0.551108	0.364780
C217	C	0.905532	-0.057444	-0.301914
C218	C	1.238866	0.275889	0.031419
C219	C	1.572199	0.609223	0.364753
C220	C	0.945581	-0.218365	-1.036706
C221	C	1.278914	0.114969	-0.703373
C222	C	1.612248	0.448302	-0.370039
C223	C	0.945576	-0.218377	-0.971271
C224	C	1.278909	0.114956	-0.637937
C225	C	1.612243	0.448289	-0.304604
C226	C	0.905476	-0.251814	-0.938527
C227	C	1.238810	0.081520	-0.605194
C228	C	1.572143	0.414853	-0.271861
C229	C	0.865390	-0.285249	-0.971225
C230	C	1.198723	0.048084	-0.637892
C231	C	1.532057	0.381417	-0.304558
C232	C	0.865401	-0.285240	-1.036659
C233	C	1.198734	0.048094	-0.703326
C234	C	1.532067	0.381427	-0.369992
C235	C	0.849007	-0.255951	-0.834851
C236	C	1.182340	0.077383	-0.501517
C237	C	1.515674	0.410716	-0.168184
C238	C	0.848996	-0.255957	-0.769418
C239	C	1.182329	0.077376	-0.436084
C240	C	1.515662	0.410710	-0.102751
C241	C	0.905444	-0.251847	-0.736706
C242	C	1.238778	0.081486	-0.403373
C243	C	1.572111	0.414820	-0.070040
C244	C	0.961906	-0.247720	-0.769436
C245	C	1.295240	0.085613	-0.436103
C246	C	1.628573	0.418947	-0.102770
C247	C	0.961917	-0.247710	-0.834870
C248	C	1.295250	0.085623	-0.501537
C249	C	1.628583	0.418956	-0.168204
C250	C	0.905461	-0.251828	-0.867575
C251	C	1.238794	0.081505	-0.534242
C252	C	1.572127	0.414838	-0.200908
C253	C	0.945526	-0.218430	-0.633064
C254	C	1.278859	0.114904	-0.299731
C255	C	1.612192	0.448237	0.033602
C256	C	0.945522	-0.218446	-0.567628
C257	C	1.278855	0.114887	-0.234294
C258	C	1.612189	0.448221	0.099039
C259	C	0.865330	-0.285315	-0.567583
C260	C	1.198664	0.048018	-0.234250
C261	C	1.531997	0.381351	0.099084
C262	C	0.865340	-0.285302	-0.633018
C263	C	1.198673	0.048031	-0.299685
C264	C	1.532006	0.381365	0.033648
C265	C	0.905437	-0.251856	-0.665755
C266	C	1.238770	0.081477	-0.332422
C267	C	1.572103	0.414810	0.000912
C268	C	0.905388	-0.251927	-0.139037
C269	C	1.238722	0.081406	0.194297
C270	C	1.572055	0.414740	0.527630
C271	C	0.905497	-0.251794	-0.069396
C272	C	1.238831	0.081539	0.263938
C273	C	1.572164	0.414873	0.597271
H274	H	0.263288	-0.191358	-0.374671
H275	H	0.596622	0.141975	-0.041338
H276	H	0.929955	0.475309	0.291996
H277	H	0.465008	-0.259300	-0.199386
H278	H	0.798342	0.074034	0.133948
H279	H	1.131675	0.407367	0.467281
Cl280	Cl	0.331802	-0.261121	-0.174389
Cl281	Cl	0.665135	0.072212	0.158944
Cl282	Cl	0.998469	0.405545	0.492278
H283	H	0.978216	-0.191153	-0.944649
H284	H	1.311550	0.142180	-0.611316
H285	H	1.644883	0.475513	-0.277983
H286	H	0.832683	-0.312542	-0.540924
H287	H	1.166016	0.020791	-0.207591
H288	H	1.499349	0.354125	0.125742
H289	H	0.792725	-0.801329	-0.188999
H290	H	1.126059	-0.467996	0.144335
H291	H	1.459392	-0.134663	0.477668
Cl292	Cl	0.479593	-0.242749	-0.429266
Cl293	Cl	0.812926	0.090584	-0.095933
Cl294	Cl	1.146260	0.423917	0.237400
Cl295	Cl	0.277658	-0.327330	-0.211228
Cl296	Cl	0.610991	0.006003	0.122106
Cl297	Cl	0.944325	0.339336	0.455439
H298	H	0.832884	-1.052460	-0.229139
H299	H	1.166217	-0.719126	0.104194
H300	H	1.499551	-0.385793	0.437527
Cl301	Cl	0.331900	-0.242767	-0.429275
Cl302	Cl	0.665233	0.090566	-0.095941
Cl303	Cl	0.998566	0.423899	0.237392
H304	H	0.792688	-0.702279	-0.188985
H305	H	1.126021	-0.368946	0.144348
H306	H	1.459354	-0.035613	0.477681
H307	H	0.978182	-1.052277	-0.374678
H308	H	1.311516	-0.718943	-0.041345
H309	H	1.644849	-0.385610	0.291988
H310	H	0.977999	-0.549915	-0.374581
H311	H	1.311332	-0.216582	-0.041247
H312	H	1.644666	0.116751	0.292086
Cl313	Cl	0.129964	-0.327347	-0.211238
Cl314	Cl	0.463298	0.005986	0.122096
Cl315	Cl	0.796631	0.339319	0.455429
Cl316	Cl	0.681295	-0.327297	-0.211200
Cl317	Cl	1.014628	0.006036	0.122134
Cl318	Cl	1.347961	0.339369	0.455467
H319	H	0.832698	-0.550123	-0.229031
H320	H	1.166031	-0.216789	0.104302
H321	H	1.499365	0.116544	0.437636
H322	H	0.832697	-0.312521	-0.659635
H323	H	1.166030	0.020812	-0.326301
H324	H	1.499363	0.354145	0.007032
H325	H	0.548110	-0.312515	-0.228985
H326	H	0.881443	0.020819	0.104348
H327	H	1.214776	0.354152	0.437681
H328	H	1.018100	-0.701986	-0.414713
H329	H	1.351434	-0.368653	-0.081380
H330	H	1.684767	-0.035320	0.251954
H331	H	1.007890	-0.244351	-0.861516
H332	H	1.341223	0.088982	-0.528183
H333	H	1.674557	0.422315	-0.194850
H334	H	0.144582	-0.191368	-0.374680
H335	H	0.477915	0.141966	-0.041346
H336	H	0.811249	0.475299	0.291987
H337	H	0.977972	-0.450864	-0.374541
H338	H	1.311305	-0.117531	-0.041207
H339	H	1.644639	0.215802	0.292126
H340	H	0.832838	-0.953410	-0.229127
H341	H	1.166171	-0.620076	0.104207
H342	H	1.499505	-0.286743	0.437540
Cl343	Cl	0.815005	-0.327269	-1.077757
Cl344	Cl	1.148339	0.006065	-0.744424
Cl345	Cl	1.481672	0.339398	-0.411090
Cl346	Cl	1.032876	-0.242563	-0.728321
Cl347	Cl	1.366210	0.090770	-0.394988
Cl348	Cl	1.699543	0.424104	-0.061655
H349	H	0.803021	-0.259317	-0.742774
H350	H	1.136354	0.074016	-0.409441
H351	H	1.469688	0.407350	-0.076107
H352	H	0.832665	-0.451057	-0.229012
H353	H	1.165999	-0.117723	0.104321
H354	H	1.499332	0.215610	0.437654
H355	H	1.018133	-0.801034	-0.414739
H356	H	1.351466	-0.467700	-0.081406
H357	H	1.684800	-0.134367	0.251928
H358	H	0.978152	-0.953211	-0.374661
H359	H	1.311485	-0.619878	-0.041327
H360	H	1.644818	-0.286544	0.292006
Cl361	Cl	0.996013	-0.176340	-1.077857
Cl362	Cl	1.329347	0.156994	-0.744524
Cl363	Cl	1.662680	0.490327	-0.411191
H364	H	0.978175	-0.191196	-0.659720
H365	H	1.311508	0.142137	-0.326386
H366	H	1.644841	0.475471	0.006947
Cl367	Cl	0.995921	-0.176420	-0.526531
Cl368	Cl	1.329255	0.156914	-0.193198
Cl369	Cl	1.662588	0.490247	0.140135
Cl370	Cl	0.778035	-0.261110	-0.875966
Cl371	Cl	1.111368	0.072223	-0.542633
Cl372	Cl	1.444702	0.405556	-0.209300
H373	H	0.832742	-0.312474	-0.944561
H374	H	1.166075	0.020859	-0.611228
H375	H	1.499408	0.354192	-0.277894
H376	H	0.548218	-0.191330	-0.374651
H377	H	0.881551	0.142004	-0.041317
H378	H	1.214885	0.475337	0.292016
H379	H	0.666925	-0.191329	-0.374652
H380	H	1.000258	0.142005	-0.041318
H381	H	1.333592	0.475338	0.292015
