data_functionalizedCrystal
_audit_creation_method	'MofGen! by Chris Wilmer'
_symmetry_space_group_name_H-M	'P1'
_symmetry_Int_Tables_number	1
_symmetry_cell_setting	triclinic
loop_
_symmetry_equiv_pos_as_xyz
  x,y,z
_cell_length_a	25.639243
_cell_length_b	25.639239
_cell_length_c	25.639233
_cell_angle_alpha	89.981253
_cell_angle_beta	90.001040
_cell_angle_gamma	89.958085
loop_
_atom_site_label
_atom_site_type_symbol
_atom_site_fract_x
_atom_site_fract_y
_atom_site_fract_z
Zn1	Zn	0.799225	0.208169	0.295448
Zn2	Zn	0.799149	0.295588	0.208012
Zn3	Zn	0.711801	0.208174	0.208044
Zn4	Zn	0.711746	0.295581	0.295434
O5	O	0.755480	0.251878	0.251734
O6	O	0.872380	0.219767	0.283841
O7	O	0.787553	0.283997	0.134851
O8	O	0.723453	0.135008	0.219657
O9	O	0.872324	0.283993	0.219603
O10	O	0.787683	0.135005	0.283872
O11	O	0.723379	0.219774	0.134874
O12	O	0.638629	0.219767	0.219644
O13	O	0.723360	0.283980	0.368601
O14	O	0.638589	0.283984	0.283849
O15	O	0.787630	0.219760	0.368611
O16	O	0.787499	0.368752	0.219590
O17	O	0.723286	0.368747	0.283818
C18	C	0.755392	0.387721	0.251710
C19	C	0.755403	0.445835	0.251718
C20	C	0.619638	0.251876	0.251749
C21	C	0.561524	0.251887	0.251768
C22	C	0.891853	0.251881	0.251720
C23	C	0.949967	0.251882	0.251714
C24	C	1.310365	0.218449	0.285200
C25	C	1.364970	0.218451	0.285205
O26	O	1.393236	0.190027	0.313663
N27	N	1.392250	0.251888	0.251760
C28	C	1.364923	0.285331	0.218312
O29	O	1.393141	0.313773	0.189865
C30	C	1.310320	0.285331	0.218310
C31	C	1.283042	0.251888	0.251753
C32	C	1.283088	0.185009	0.318641
C33	C	1.228487	0.185007	0.318635
C34	C	1.201164	0.218445	0.285189
C35	C	1.228442	0.251886	0.251747
C36	C	1.282994	0.318776	0.184865
C37	C	1.228387	0.318774	0.184866
C38	C	1.201109	0.285330	0.218309
C39	C	1.146518	0.285322	0.218295
N40	N	1.119238	0.251884	0.251739
C41	C	1.146561	0.218446	0.285186
C42	C	1.479594	0.285327	0.218319
C43	C	1.534196	0.285324	0.218318
C44	C	1.534239	0.218445	0.285213
C45	C	1.479636	0.218445	0.285211
C46	C	1.452313	0.251889	0.251764
C47	C	1.031896	0.218444	0.285171
C48	C	0.977290	0.218443	0.285161
C49	C	0.977252	0.285324	0.218269
C50	C	1.031853	0.285323	0.218277
C51	C	1.059173	0.251881	0.251732
O52	O	1.118217	0.313733	0.189853
O53	O	1.118336	0.190014	0.313633
C54	C	0.755497	0.251869	0.388107
C55	C	0.755504	0.251865	0.446221
C56	C	0.755583	0.115505	0.251770
C57	C	0.755627	0.057391	0.251785
C58	C	0.789004	0.806188	0.218347
C59	C	0.789024	0.860792	0.218354
O60	O	0.817502	0.889021	0.189956
N61	N	0.755572	0.888117	0.251769
C62	C	0.722102	0.860835	0.285182
O63	O	0.693651	0.889090	0.313605
C64	C	0.722085	0.806231	0.285178
C65	C	0.755535	0.778909	0.251757
C66	C	0.822452	0.778866	0.184930
C67	C	0.822431	0.724265	0.184923
C68	C	0.788962	0.696987	0.218332
C69	C	0.755514	0.724309	0.251750
C70	C	0.688617	0.778950	0.318593
C71	C	0.688603	0.724343	0.318586
C72	C	0.722053	0.697021	0.285166
C73	C	0.722024	0.642430	0.285152
N74	N	0.755475	0.615105	0.251737
C75	C	0.788944	0.642384	0.218328
C76	C	0.722141	0.975505	0.285191
C77	C	0.722155	1.030107	0.285193
C78	C	0.789078	1.030061	0.218366
C79	C	0.789061	0.975458	0.218361
C80	C	0.755593	0.948180	0.251776
C81	C	0.788897	0.527719	0.218314
C82	C	0.788872	0.473113	0.218308
C83	C	0.721951	0.473164	0.285137
C84	C	0.721974	0.527765	0.285141
C85	C	0.755452	0.555041	0.251728
O86	O	0.693562	0.614167	0.313538
O87	O	0.817396	0.614121	0.189915
C88	C	0.755494	0.251849	0.115892
C89	C	0.755588	0.251706	0.057778
C90	C	0.789012	0.218326	0.806595
C91	C	0.789019	0.218311	0.861200
O92	O	0.817466	0.189857	0.889446
N93	N	0.755562	0.251742	0.888504
C94	C	0.722093	0.285186	0.861201
O95	O	0.693636	0.313620	0.889440
C96	C	0.722084	0.285197	0.806598
C97	C	0.755547	0.251768	0.779296
C98	C	0.822472	0.184899	0.779294
C99	C	0.822466	0.184914	0.724693
C100	C	0.789000	0.218356	0.697394
C101	C	0.755541	0.251783	0.724696
C102	C	0.688613	0.318638	0.779296
C103	C	0.688607	0.318647	0.724689
C104	C	0.722069	0.285217	0.697388
C105	C	0.722070	0.285241	0.642796
N106	N	0.755526	0.251810	0.615492
C107	C	0.788992	0.218368	0.642791
C108	C	0.722113	0.285159	0.975872
C109	C	0.722124	0.285150	1.030474
C110	C	0.789049	0.218275	1.030469
C111	C	0.789041	0.218286	0.975866
C112	C	0.755570	0.251728	0.948568
C113	C	0.788977	0.218403	0.528126
C114	C	0.788970	0.218423	0.473520
C115	C	0.722043	0.285296	0.473531
C116	C	0.722052	0.285278	0.528131
C117	C	0.755521	0.251827	0.555427
O118	O	0.693635	0.313679	0.614516
O119	O	0.817439	0.189934	0.614546
H120	H	0.955084	0.191207	0.312394
Cl121	Cl	0.942893	0.327359	0.176223
Cl122	Cl	1.445251	0.327369	0.176262
Cl123	Cl	1.317272	0.360814	0.142811
H124	H	1.457430	0.191212	0.312443
H125	H	1.556495	0.191217	0.312447
Cl126	Cl	0.679973	0.327334	0.439202
Cl127	Cl	1.194042	0.360824	0.142819
H128	H	1.054134	0.191212	0.312414
H129	H	1.305329	0.157778	0.345881
H130	H	1.556401	0.312552	0.191080
H131	H	0.694699	0.450945	0.312337
H132	H	0.816221	0.191200	0.451294
H133	H	1.206283	0.157775	0.345871
H134	H	0.849714	0.157691	0.702469
H135	H	1.054063	0.312551	0.191040
H136	H	0.816159	0.549920	0.191107
H137	H	0.816111	0.450869	0.191091
Cl138	Cl	0.831108	0.176258	0.941550
Cl139	Cl	0.864555	0.142858	0.813603
Cl140	Cl	0.864493	0.689926	0.142914
H141	H	0.849709	0.801070	0.157724
H142	H	0.816300	0.953216	0.191147
H143	H	0.816298	0.191043	1.052706
Cl144	Cl	0.831153	1.064365	0.176363
Cl145	Cl	0.680096	1.064448	0.327203
H146	H	0.694857	0.312394	0.953649
H147	H	0.694883	0.953298	0.312400
Cl148	Cl	0.680063	0.327186	1.064789
H149	H	0.661376	0.801186	0.345806
H150	H	0.661350	0.702136	0.345799
Cl151	Cl	0.679911	0.562113	0.327145
Cl152	Cl	0.831051	0.176348	0.562433
Cl153	Cl	0.646544	0.360668	0.813605
Cl154	Cl	0.679987	0.327307	0.562454
Cl155	Cl	0.646526	0.360690	0.690375
