data_functionalizedCrystal
_audit_creation_method	'MofGen! by Chris Wilmer'
_symmetry_space_group_name_H-M	'P1'
_symmetry_Int_Tables_number	1
_symmetry_cell_setting	triclinic
loop_
_symmetry_equiv_pos_as_xyz
  x,y,z
_cell_length_a	10.723023
_cell_length_b	11.792254
_cell_length_c	9.198806
_cell_angle_alpha	89.996642
_cell_angle_beta	89.996513
_cell_angle_gamma	84.333073
loop_
_atom_site_label
_atom_site_type_symbol
_atom_site_fract_x
_atom_site_fract_y
_atom_site_fract_z
O1	O	1.656775	0.159187	-0.120878
O2	O	1.293583	0.174426	-0.120885
O3	O	1.483984	0.001656	-0.120871
O4	O	1.466374	0.331957	-0.120892
O5	O	1.483969	0.001656	0.120914
O6	O	1.293568	0.174425	0.120900
O7	O	1.656760	0.159187	0.120907
Cu8	Cu	1.475162	0.166806	0.142980
Cu9	Cu	1.475180	0.166806	-0.142958
O10	O	1.466358	0.331956	0.120893
C11	C	1.247079	0.173317	0.000007
C12	C	1.108533	0.169999	0.000005
C13	C	1.046757	0.168520	0.125256
C14	C	0.903563	0.165091	0.125257
C15	C	1.482868	-0.040637	0.000021
C16	C	1.479547	-0.166658	0.000020
C17	C	1.476849	-0.269000	0.000014
C18	C	1.473476	-0.397394	0.000001
C19	C	1.703264	0.160296	0.000012
C20	C	1.841810	0.163613	0.000004
C21	C	1.467475	0.374250	-0.000002
C22	C	1.470796	0.500270	-0.000010
N23	N	1.475159	0.166805	0.344094
N24	N	1.475194	0.166799	-0.344072
C25	C	1.555104	0.093944	0.416297
C26	C	1.555123	0.093940	0.583709
H27	H	1.099880	0.169786	0.232487
C28	C	1.036787	0.168288	-0.144865
H29	H	1.094114	0.169655	-0.223446
H30	H	0.976934	0.233145	-0.150267
H31	H	0.995067	0.100991	-0.150268
H32	H	0.850436	0.163826	0.232488
H33	H	1.623530	0.031563	0.354176
H34	H	0.894927	0.164892	-0.107233
C35	C	1.647586	0.009665	0.667580
H36	H	1.635462	0.020712	0.769096
H37	H	1.731030	0.022445	0.642688
H38	H	1.633289	-0.066163	0.642714
C39	C	1.382725	0.251078	0.572074
H40	H	1.332587	0.296793	0.639100
H41	H	1.330407	0.209921	0.512705
H42	H	1.428143	0.298534	0.512690
H43	H	1.406725	0.229177	0.406218
