data_functionalizedCrystal
_audit_creation_method	'MofGen! by Chris Wilmer'
_symmetry_space_group_name_H-M	'P1'
_symmetry_Int_Tables_number	1
_symmetry_cell_setting	triclinic
loop_
_symmetry_equiv_pos_as_xyz
  x,y,z
_cell_length_a	16.109301
_cell_length_b	16.109301
_cell_length_c	15.186229
_cell_angle_alpha	90.001120
_cell_angle_beta	89.996478
_cell_angle_gamma	83.461481
loop_
_atom_site_label
_atom_site_type_symbol
_atom_site_fract_x
_atom_site_fract_y
_atom_site_fract_z
O1	O	1.103131	0.106866	-0.073219
O2	O	0.861069	0.120165	-0.073220
O3	O	0.988750	-0.007516	-0.073224
O4	O	0.975450	0.234546	-0.073215
O5	O	0.988741	-0.007517	0.073233
O6	O	0.861060	0.120164	0.073237
O7	O	1.103122	0.106865	0.073238
Zn8	Zn	0.982089	0.113514	0.096491
Zn9	Zn	0.982101	0.113516	-0.096473
O10	O	0.975441	0.234545	0.073242
C11	C	0.830090	0.119626	0.000009
C12	C	0.737794	0.118011	0.000008
C13	C	0.988206	-0.038491	0.000002
C14	C	0.986591	-0.130786	-0.000008
C15	C	1.134101	0.107404	0.000008
C16	C	1.226397	0.109019	0.000003
N17	N	0.982087	0.113512	0.228184
C18	C	1.448669	0.037011	0.000004
C19	C	1.535389	0.038535	0.000008
C20	C	1.515515	0.190024	0.000009
C21	C	1.428796	0.188499	0.000012
C22	C	1.395376	0.111990	0.000005
C23	C	1.568815	0.115039	0.000005
C24	C	1.662841	0.116692	0.000009
C25	C	1.301344	0.110337	0.000003
C26	C	0.975984	0.265521	0.000015
C27	C	0.977600	0.357816	0.000018
C28	C	0.905592	0.580088	0.000005
C29	C	0.907116	0.666809	-0.000002
C30	C	1.058605	0.646934	0.000003
C31	C	1.057080	0.560216	0.000003
C32	C	0.980571	0.526795	0.000009
C33	C	0.983620	0.700234	0.000002
C34	C	0.985273	0.794260	-0.000005
C35	C	0.978917	0.432763	0.000014
C36	C	1.038643	0.056995	0.453905
C37	C	1.038645	0.056994	0.546094
C38	C	0.925545	0.170034	0.546107
C39	C	0.925539	0.170031	0.453919
C40	C	0.982093	0.113513	0.407820
C41	C	0.982101	0.113514	0.592198
C42	C	0.982103	0.113513	0.692154
C43	C	0.982090	0.113513	0.307858
N44	N	0.982107	0.113515	0.771835
H45	H	1.578778	-0.022520	0.000008
H46	H	1.421461	-0.025287	0.000001
O47	O	1.547844	0.264413	0.000045
C48	C	1.482207	0.330265	0.000025
H49	H	1.423304	0.306975	0.027758
H50	H	1.469928	0.353387	-0.070239
C51	C	1.579008	0.431031	0.023391
C52	C	1.506665	0.402427	0.057461
H53	H	1.594095	0.475545	0.058816
H54	H	1.623230	0.386666	0.023401
H55	H	1.568767	0.450293	-0.035161
H56	H	1.516910	0.383155	0.116007
H57	H	1.462445	0.446790	0.057462
H58	H	1.084692	0.010971	0.583614
H59	H	0.879486	0.216055	0.416395
H60	H	1.118140	0.516822	0.000003
H61	H	1.385402	0.249560	0.000016
O62	O	0.831347	0.547484	0.000040
C63	C	0.846075	0.459516	0.000020
H64	H	0.910957	0.439131	0.027754
H65	H	0.842062	0.435376	-0.070244
C66	C	0.700250	0.448607	0.023384
C67	C	0.779936	0.423570	0.057455
H68	H	0.659451	0.426432	0.058809
H69	H	0.690326	0.507873	0.023395
H70	H	0.696918	0.428488	-0.035168
H71	H	0.783270	0.443697	0.116001
H72	H	0.789859	0.364306	0.057455
O73	O	0.834204	0.718459	0.000037
C74	C	0.766354	0.670361	0.000018
H75	H	0.787472	0.605634	0.027749
H76	H	0.742907	0.664188	-0.070245
C77	C	0.669446	0.793095	0.023392
C78	C	0.695382	0.713598	0.057458
H79	H	0.625665	0.819766	0.058820
H80	H	0.715158	0.825500	0.023401
H81	H	0.649913	0.787940	-0.035160
H82	H	0.714924	0.718755	0.116004
H83	H	0.649672	0.681195	0.057460
H84	H	1.120896	0.674156	0.000007
O85	O	1.093603	0.002010	0.409260
C86	C	1.143528	-0.047860	0.469709
H87	H	1.109445	-0.048804	0.535428
H88	H	1.205281	-0.020849	0.479505
C89	C	1.202545	-0.136389	0.353014
C90	C	1.160681	-0.137554	0.433729
H91	H	1.213130	-0.191716	0.330820
H92	H	1.168912	-0.102789	0.312288
H93	H	1.254001	-0.113875	0.361189
H94	H	1.109222	-0.160057	0.425552
H95	H	1.194306	-0.171160	0.474454
O96	O	0.870698	0.224908	0.591026
C97	C	0.882815	0.212781	0.682276
H98	H	0.948921	0.181724	0.694858
H99	H	0.835772	0.171070	0.708447
C100	C	0.789108	0.335975	0.714150
C101	C	0.870303	0.297837	0.729604
H102	H	0.781387	0.388440	0.743346
H103	H	0.780941	0.344144	0.652674
H104	H	0.749915	0.301208	0.735960
H105	H	0.909495	0.332599	0.707785
H106	H	0.878476	0.289676	0.791079
