data_functionalizedCrystal
_audit_creation_method	'MofGen! by Chris Wilmer'
_symmetry_space_group_name_H-M	'P1'
_symmetry_Int_Tables_number	1
_symmetry_cell_setting	triclinic
loop_
_symmetry_equiv_pos_as_xyz
  x,y,z
_cell_length_a	14.519709
_cell_length_b	27.732048
_cell_length_c	13.596369
_cell_angle_alpha	89.989067
_cell_angle_beta	90.000291
_cell_angle_gamma	83.161400
loop_
_atom_site_label
_atom_site_type_symbol
_atom_site_fract_x
_atom_site_fract_y
_atom_site_fract_z
O1	O	1.222766	0.063362	-0.081675
O2	O	1.472766	0.313362	0.168325
O3	O	1.722766	0.563362	0.418325
O4	O	1.972766	0.813362	0.668325
O5	O	0.954159	0.070824	-0.081706
O6	O	1.204159	0.320824	0.168294
O7	O	1.454159	0.570824	0.418294
O8	O	1.704159	0.820824	0.668294
O9	O	1.096805	-0.003264	-0.081671
O10	O	1.346805	0.246736	0.168329
O11	O	1.596805	0.496736	0.418329
O12	O	1.846805	0.746736	0.668329
O13	O	1.080120	0.137450	-0.081710
O14	O	1.330120	0.387450	0.168290
O15	O	1.580120	0.637450	0.418290
O16	O	1.830120	0.887450	0.668290
O17	O	1.096791	-0.003268	0.081912
O18	O	1.346791	0.246732	0.331912
O19	O	1.596791	0.496732	0.581912
O20	O	1.846791	0.746732	0.831912
O21	O	0.954145	0.070820	0.081877
O22	O	1.204145	0.320820	0.331877
O23	O	1.454145	0.570820	0.581877
O24	O	1.704145	0.820820	0.831877
O25	O	1.222752	0.063358	0.081908
O26	O	1.472752	0.313358	0.331908
O27	O	1.722752	0.563358	0.581908
O28	O	1.972752	0.813358	0.831908
Zn29	Zn	1.088446	0.067088	0.107865
Zn30	Zn	1.338446	0.317088	0.357865
Zn31	Zn	1.588446	0.567088	0.607865
Zn32	Zn	1.838446	0.817088	0.857865
Zn33	Zn	1.088465	0.067094	-0.107663
Zn34	Zn	1.338465	0.317094	0.142337
Zn35	Zn	1.588465	0.567094	0.392337
Zn36	Zn	1.838465	0.817094	0.642337
O37	O	1.080106	0.137446	0.081873
O38	O	1.330106	0.387446	0.331873
O39	O	1.580106	0.637446	0.581873
O40	O	1.830106	0.887446	0.831873
C41	C	0.919799	0.070474	0.000082
C42	C	1.169799	0.320474	0.250082
C43	C	1.419799	0.570474	0.500082
C44	C	1.669799	0.820474	0.750082
C45	C	0.817435	0.069432	0.000071
C46	C	1.067435	0.319432	0.250071
C47	C	1.317435	0.569432	0.500071
C48	C	1.567435	0.819432	0.750071
C49	C	0.442606	0.065596	0.000116
C50	C	0.692606	0.315596	0.250116
C51	C	0.942606	0.565596	0.500116
C52	C	1.192606	0.815596	0.750116
C53	C	0.546896	0.066661	0.000103
C54	C	0.796896	0.316661	0.250103
C55	C	1.046896	0.566661	0.500103
C56	C	1.296896	0.816661	0.750103
C57	C	0.630018	0.067514	0.000093
C58	C	0.880018	0.317514	0.250093
C59	C	1.130018	0.567514	0.500093
C60	C	1.380018	0.817514	0.750093
C61	C	0.734314	0.068579	0.000081
C62	C	0.984314	0.318579	0.250081
C63	C	1.234314	0.568579	0.500081
C64	C	1.484314	0.818579	0.750081
C65	C	1.096448	-0.021274	0.000124
C66	C	1.346448	0.228726	0.250124
C67	C	1.596448	0.478726	0.500124
C68	C	1.846448	0.728726	0.750124
C69	C	1.095393	-0.074934	0.000132
C70	C	1.345393	0.175066	0.250132
C71	C	1.595393	0.425066	0.500132
C72	C	1.845393	0.675066	0.750132
C73	C	1.173048	-0.413378	0.000090
C74	C	1.423048	-0.163378	0.250090
C75	C	1.673048	0.086622	0.500090
C76	C	1.923048	0.336622	0.750090
C77	C	1.169135	-0.615057	0.000076
C78	C	1.419135	-0.365057	0.250076
C79	C	1.669135	-0.115057	0.500076
C80	C	1.919135	0.134943	0.750076
O81	O	1.240145	-0.645973	0.000041
O82	O	1.490145	-0.395973	0.250041
O83	O	1.740145	-0.145973	0.500041
O84	O	1.990145	0.104027	0.750041
N85	N	1.084552	-0.634585	0.000067
N86	N	1.334552	-0.384585	0.250067
N87	N	1.584552	-0.134585	0.500067
N88	N	1.834552	0.115415	0.750067
C89	C	1.000941	-0.603690	0.000055
C90	C	1.250941	-0.353690	0.250055
C91	C	1.500941	-0.103690	0.500055
C92	C	1.750941	0.146310	0.750055
O93	O	0.928909	-0.624927	0.000037
O94	O	1.178909	-0.374927	0.250037
O95	O	1.428909	-0.124927	0.500037
O96	O	1.678909	0.125073	0.750037
C97	C	1.004855	-0.402012	0.000062
C98	C	1.254855	-0.152012	0.250062
C99	C	1.504855	0.097988	0.500062
C100	C	1.754855	0.347988	0.750062
C101	C	1.089444	-0.382487	0.000081
C102	C	1.339444	-0.132487	0.250081
C103	C	1.589444	0.117513	0.500081
C104	C	1.839444	0.367513	0.750081
C105	C	1.257630	-0.393853	0.000108
C106	C	1.507630	-0.143853	0.250108
C107	C	1.757630	0.106147	0.500108
C108	C	2.007630	0.356147	0.750108
C109	C	1.258607	-0.343436	0.000117
C110	C	1.508607	-0.093436	0.250117
C111	C	1.758607	0.156564	0.500117
C112	C	2.008607	0.406564	0.750117
C113	C	1.175003	-0.312545	0.000108
C114	C	1.425003	-0.062545	0.250108
C115	C	1.675003	0.187455	0.500108
C116	C	1.925003	0.437455	0.750108
C117	C	1.090421	-0.332071	0.000090
C118	C	1.340421	-0.082071	0.250090
C119	C	1.590421	0.167929	0.500090
C120	C	1.840421	0.417929	0.750090
C121	C	0.921246	-0.371118	0.000043
C122	C	1.171246	-0.121118	0.250043
C123	C	1.421246	0.128882	0.500043
C124	C	1.671246	0.378882	0.750043
C125	C	0.922232	-0.320696	0.000043
C126	C	1.172232	-0.070696	0.250043
C127	C	1.422232	0.179304	0.500043
C128	C	1.672232	0.429304	0.750043
C129	C	1.006820	-0.301171	0.000062
C130	C	1.256820	-0.051171	0.250062
C131	C	1.506820	0.198829	0.500062
C132	C	1.756820	0.448829	0.750062
C133	C	1.007794	-0.250763	0.000090
C134	C	1.257794	-0.000763	0.250090
C135	C	1.507794	0.249237	0.500090
C136	C	1.757794	0.499237	0.750090
N137	N	1.092377	-0.231235	0.000099
N138	N	1.342377	0.018765	0.250099
N139	N	1.592377	0.268765	0.500099
N140	N	1.842377	0.518765	0.750099
C141	C	1.175981	-0.262126	0.000108
C142	C	1.425981	-0.012126	0.250108
C143	C	1.675981	0.237874	0.500108
C144	C	1.925981	0.487874	0.750108
C145	C	0.998893	-0.709574	0.000053
C146	C	1.248893	-0.459574	0.250053
C147	C	1.498893	-0.209574	0.500053
C148	C	1.748893	0.040426	0.750053
C149	C	0.997914	-0.759993	0.000053
C150	C	1.247914	-0.509993	0.250053
C151	C	1.497914	-0.259993	0.500053
C152	C	1.747914	-0.009993	0.750053
C153	C	1.166108	-0.771356	0.000072
C154	C	1.416108	-0.521356	0.250072
C155	C	1.666108	-0.271356	0.500072
C156	C	1.916108	-0.021356	0.750072
C157	C	1.167086	-0.720936	0.000079
C158	C	1.417086	-0.470936	0.250079
C159	C	1.667086	-0.220936	0.500079
C160	C	1.917086	0.029064	0.750079
C161	C	1.083476	-0.690045	0.000062
C162	C	1.333476	-0.440045	0.250062
C163	C	1.583476	-0.190045	0.500062
C164	C	1.833476	0.059955	0.750062
C165	C	1.178028	-0.156247	0.000128
C166	C	1.428028	0.093753	0.250128
C167	C	1.678028	0.343753	0.500128
C168	C	1.928028	0.593753	0.750128
C169	C	1.178998	-0.105825	0.000141
C170	C	1.428998	0.144175	0.250141
C171	C	1.678998	0.394175	0.500141
C172	C	1.928998	0.644175	0.750141
C173	C	1.010804	-0.094466	0.000116
C174	C	1.260804	0.155534	0.250116
C175	C	1.510804	0.405534	0.500116
C176	C	1.760804	0.655534	0.750116
C177	C	1.009833	-0.144883	0.000109
C178	C	1.259833	0.105117	0.250109
C179	C	1.509833	0.355117	0.500109
C180	C	1.759833	0.605117	0.750109
C181	C	1.093453	-0.175773	0.000111
C182	C	1.343453	0.074227	0.250111
C183	C	1.593453	0.324227	0.500111
C184	C	1.843453	0.574227	0.750111
O185	O	0.936822	-0.219818	0.000114
O186	O	1.186822	0.030182	0.250114
O187	O	1.436822	0.280182	0.500114
O188	O	1.686822	0.530182	0.750114
O189	O	1.248004	-0.240879	0.000104
O190	O	1.498004	0.009121	0.250104
O191	O	1.748004	0.259121	0.500104
O192	O	1.998004	0.509121	0.750104
C193	C	1.172071	-0.463795	0.000081
C194	C	1.422071	-0.213795	0.250081
C195	C	1.672071	0.036205	0.500081
C196	C	1.922071	0.286205	0.750081
C197	C	1.087489	-0.483320	0.000063
C198	C	1.337489	-0.233320	0.250063
C199	C	1.587489	0.016680	0.500063
C200	C	1.837489	0.266680	0.750063
C201	C	1.003885	-0.452429	0.000054
C202	C	1.253885	-0.202429	0.250054
C203	C	1.503885	0.047571	0.500054
C204	C	1.753885	0.297571	0.750054
C205	C	1.086510	-0.533740	0.000063
C206	C	1.336510	-0.283740	0.250063
C207	C	1.586510	-0.033740	0.500063
C208	C	1.836510	0.216260	0.750063
C209	C	1.170115	-0.564631	0.000072
C210	C	1.420115	-0.314631	0.250072
C211	C	1.670115	-0.064631	0.500072
C212	C	1.920115	0.185369	0.750072
C213	C	1.254698	-0.545103	0.000081
C214	C	1.504698	-0.295103	0.250081
C215	C	1.754698	-0.045103	0.500081
C216	C	2.004698	0.204897	0.750081
C217	C	1.255675	-0.494686	0.000090
C218	C	1.505675	-0.244686	0.250090
C219	C	1.755675	0.005314	0.500090
C220	C	2.005675	0.255314	0.750090
C221	C	0.919302	-0.471957	0.000046
C222	C	1.169302	-0.221957	0.250046
C223	C	1.419302	0.028043	0.500046
C224	C	1.669302	0.278043	0.750046
C225	C	0.918331	-0.522375	0.000038
C226	C	1.168331	-0.272375	0.250038
C227	C	1.418331	-0.022375	0.500038
C228	C	1.668331	0.227625	0.750038
C229	C	1.001936	-0.553266	0.000047
C230	C	1.251936	-0.303266	0.250047
C231	C	1.501936	-0.053266	0.500047
C232	C	1.751936	0.196734	0.750047
C233	C	1.257113	0.063708	0.000119
C234	C	1.507113	0.313708	0.250119
C235	C	1.757113	0.563708	0.500119
C236	C	2.007113	0.813708	0.750119
C237	C	1.359476	0.064750	0.000123
C238	C	1.609476	0.314750	0.250123
C239	C	1.859476	0.564750	0.500123
C240	C	2.109476	0.814750	0.750123
C241	C	1.080464	0.155456	0.000077
C242	C	1.330464	0.405456	0.250077
C243	C	1.580464	0.655456	0.500077
C244	C	1.830464	0.905456	0.750077
C245	C	1.081518	0.209116	0.000062
C246	C	1.331518	0.459116	0.250062
C247	C	1.581518	0.709116	0.500062
C248	C	1.831518	0.959116	0.750062
N249	N	1.088441	0.067085	0.254957
N250	N	1.338441	0.317085	0.504957
N251	N	1.588441	0.567085	0.754957
N252	N	1.838441	0.817085	1.004957
N253	N	1.088478	0.067094	-0.254754
N254	N	1.338478	0.317094	-0.004754
N255	N	1.588478	0.567094	0.245246
N256	N	1.838478	0.817094	0.495246
C257	C	1.088464	0.067094	0.656248
C258	C	1.338464	0.317094	0.906248
C259	C	1.588464	0.567094	1.156248
C260	C	1.838464	0.817094	1.406248
C261	C	1.088454	0.067093	0.544596
C262	C	1.338454	0.317093	0.794596
C263	C	1.588454	0.567093	1.044596
C264	C	1.838454	0.817093	1.294596
C265	C	1.088453	0.067090	0.455606
C266	C	1.338453	0.317090	0.705606
C267	C	1.588453	0.567090	0.955606
C268	C	1.838453	0.817090	1.205606
C269	C	1.088442	0.067088	0.343947
C270	C	1.338442	0.317088	0.593947
C271	C	1.588442	0.567088	0.843947
C272	C	1.838442	0.817088	1.093947
H273	H	1.247882	-0.089931	0.000158
H274	H	1.497882	0.160069	0.250158
H275	H	1.747882	0.410069	0.500158
H276	H	1.997882	0.660069	0.750158
H277	H	0.852365	-0.387006	0.000022
H278	H	1.102365	-0.137006	0.250022
H279	H	1.352365	0.112994	0.500022
H280	H	1.602365	0.362994	0.750022
H281	H	0.929034	-0.775885	0.000055
H282	H	1.179034	-0.525885	0.250055
H283	H	1.429034	-0.275885	0.500055
H284	H	1.679034	-0.025885	0.750055
H285	H	0.942736	-0.069306	0.000113
H286	H	1.192736	0.180694	0.250113
H287	H	1.442736	0.430694	0.500113
H288	H	1.692736	0.680694	0.750113
H289	H	1.235965	-0.705043	0.000094
H290	H	1.485965	-0.455043	0.250094
H291	H	1.735965	-0.205043	0.500094
H292	H	1.985965	0.044957	0.750094
H293	H	1.325714	-0.419000	0.000112
H294	H	1.575714	-0.169000	0.250112
H295	H	1.825714	0.081000	0.500112
H296	H	2.075714	0.331000	0.750112
H297	H	1.322771	-0.570263	0.000093
H298	H	1.572771	-0.320263	0.250093
H299	H	1.822771	-0.070263	0.500093
H300	H	2.072771	0.179737	0.750093
H301	H	0.851220	-0.446810	0.000036
H302	H	1.101220	-0.196810	0.250036
H303	H	1.351220	0.053190	0.500036
H304	H	1.601220	0.303190	0.750036
H305	H	1.246119	-0.181392	0.000126
H306	H	1.496119	0.068608	0.250126
H307	H	1.746119	0.318608	0.500126
H308	H	1.996119	0.568608	0.750126
H309	H	1.234182	-0.796516	0.000080
H310	H	1.484182	-0.546516	0.250080
H311	H	1.734182	-0.296516	0.500080
H312	H	1.984182	-0.046516	0.750080
H313	H	1.327488	-0.327544	0.000128
H314	H	1.577488	-0.077544	0.250128
H315	H	1.827488	0.172456	0.500128
H316	H	2.077488	0.422456	0.750128
H317	H	1.324556	-0.478794	0.000105
H318	H	1.574556	-0.228794	0.250105
H319	H	1.824556	0.021206	0.500105
H320	H	2.074556	0.271206	0.750105
H321	H	0.930803	-0.684426	0.000040
H322	H	1.180803	-0.434426	0.250040
H323	H	1.430803	-0.184426	0.500040
H324	H	1.680803	0.065574	0.750040
H325	H	0.854144	-0.295547	0.000027
H326	H	1.104144	-0.045547	0.250027
H327	H	1.354144	0.204453	0.500027
H328	H	1.604144	0.454453	0.750027
H329	H	0.849444	-0.538266	0.000031
H330	H	1.099444	-0.288266	0.250031
H331	H	1.349444	-0.038266	0.500031
H332	H	1.599444	0.211734	0.750031
H333	H	0.940955	-0.160781	0.000120
H334	H	1.190955	0.089219	0.250120
H335	H	1.440955	0.339219	0.500120
H336	H	1.690955	0.589219	0.750120
