data_functionalizedCrystal
_audit_creation_method	'MofGen! by Chris Wilmer'
_symmetry_space_group_name_H-M	'P1'
_symmetry_Int_Tables_number	1
_symmetry_cell_setting	triclinic
loop_
_symmetry_equiv_pos_as_xyz
  x,y,z
_cell_length_a	42.795305
_cell_length_b	42.779662
_cell_length_c	42.790242
_cell_angle_alpha	90.003484
_cell_angle_beta	120.005041
_cell_angle_gamma	59.988063
loop_
_atom_site_label
_atom_site_type_symbol
_atom_site_fract_x
_atom_site_fract_y
_atom_site_fract_z
O1	O	0.275778	-0.266550	0.490088
O2	O	0.211760	-0.221068	0.380638
O3	O	0.275758	-0.221079	0.444636
O4	O	0.211781	-0.266539	0.426090
O5	O	0.223774	-0.169082	0.444636
O6	O	0.159776	-0.169071	0.380638
O7	O	0.223794	-0.214553	0.490088
Zn8	Zn	0.183532	-0.183556	0.435363
Zn9	Zn	0.252023	-0.252064	0.435363
O10	O	0.159797	-0.214542	0.426090
C11	C	0.051265	-0.079402	0.130389
C12	C	0.069890	-0.098296	0.111404
C13	C	-0.005346	-0.022775	0.073797
C14	C	0.013366	-0.041755	0.054897
C15	C	0.051248	-0.079384	0.073790
C16	C	0.013382	-0.041773	0.111411
C17	C	0.096106	-0.114012	0.266874
C18	C	0.116827	-0.131842	0.305525
C19	C	0.155559	-0.169130	0.324910
C20	C	0.178032	-0.188462	0.366819
C21	C	0.173567	-0.188588	0.305641
C22	C	0.152843	-0.170760	0.266993
C23	C	0.114111	-0.133470	0.247609
C24	C	0.153155	-0.171068	0.039217
C25	C	0.173985	-0.189006	0.021400
C26	C	0.156093	-0.169653	-0.015872
C27	C	0.178678	-0.189096	-0.035191
C28	C	0.117365	-0.132360	-0.035328
C29	C	0.096531	-0.114425	-0.017514
C30	C	0.114433	-0.133784	0.019762
C31	C	-0.131588	0.113748	0.039253
C32	C	-0.167342	0.152415	0.021445
C33	C	-0.185287	0.171819	-0.015828
C34	C	-0.224053	0.213744	-0.035138
C35	C	-0.167474	0.152558	-0.035290
C36	C	-0.131720	0.113893	-0.017480
C37	C	-0.113782	0.094490	0.019791
C38	C	0.091644	-0.114140	0.205702
C39	C	0.073735	-0.098732	0.172297
C40	C	-0.044111	0.019148	0.054489
C41	C	-0.075013	0.052565	0.039098
C42	C	0.073837	-0.098830	0.054474
C43	C	0.091842	-0.114332	0.039077
C44	C	0.384390	-0.022878	0.463513
C45	C	0.422265	-0.041866	0.463777
C46	C	0.384402	-0.079490	0.463513
C47	C	0.422278	-0.098392	0.463777
C48	C	0.440987	-0.079491	0.463513
C49	C	0.365766	-0.041865	0.463777
C50	C	0.282456	0.113644	0.453267
C51	C	0.261614	0.152305	0.450370
C52	C	0.279491	0.171699	0.448915
C53	C	0.256890	0.213621	0.445767
C54	C	0.318212	0.152428	0.450361
C55	C	0.339054	0.113768	0.453263
C56	C	0.321174	0.094376	0.454716
C57	C	0.567203	-0.114061	0.453266
C58	C	0.602953	-0.131879	0.450369
C59	C	0.620892	-0.169162	0.448913
C60	C	0.659649	-0.188483	0.445766
C61	C	0.603081	-0.188627	0.450359
C62	C	0.567338	-0.170811	0.453263
C63	C	0.549399	-0.133524	0.454714
C64	C	0.282506	-0.114056	0.453266
C65	C	0.261674	-0.131872	0.450364
C66	C	0.279564	-0.169156	0.448910
C67	C	0.256977	-0.188475	0.445762
C68	C	0.318282	-0.188620	0.450354
C69	C	0.339111	-0.170802	0.453255
C70	C	0.321222	-0.133520	0.454714
C71	C	0.343774	0.052456	0.457859
C72	C	0.361789	0.019042	0.460366
C73	C	0.361816	-0.098807	0.460366
C74	C	0.343812	-0.114205	0.457859
C75	C	0.479744	-0.098809	0.460366
C76	C	0.510639	-0.114208	0.457859
C77	C	0.051175	-0.412752	0.407213
C78	C	0.069798	-0.393763	0.406949
C79	C	-0.005424	-0.356140	0.407213
C80	C	0.013284	-0.337238	0.406949
C81	C	0.051160	-0.356139	0.407213
C82	C	0.013299	-0.393765	0.406949
C83	C	0.096010	-0.549274	0.417460
C84	C	0.116727	-0.587935	0.420357
C85	C	0.155452	-0.607329	0.421812
C86	C	0.177922	-0.649251	0.424960
C87	C	0.173457	-0.588058	0.420365
C88	C	0.152736	-0.549398	0.417463
C89	C	0.114011	-0.530006	0.416010
C90	C	0.153052	-0.321568	0.417460
C91	C	0.173880	-0.303749	0.420357
C92	C	0.155993	-0.266467	0.421813
C93	C	0.178575	-0.247145	0.424959
C94	C	0.117271	-0.247002	0.420367
C95	C	0.096440	-0.264817	0.417463
C96	C	0.114337	-0.302105	0.416012
C97	C	-0.131639	-0.321575	0.417459
C98	C	-0.167385	-0.303759	0.420361
C99	C	-0.185326	-0.266475	0.421816
C100	C	-0.224083	-0.247156	0.424964
C101	C	-0.167516	-0.247010	0.420371
C102	C	-0.131770	-0.264828	0.417471
C103	C	-0.113836	-0.302110	0.416012
C104	C	0.091548	-0.488086	0.412867
C105	C	0.073641	-0.454671	0.410360
C106	C	-0.044181	-0.336823	0.410360
C107	C	-0.075076	-0.321425	0.412867
C108	C	0.073745	-0.336820	0.410360
C109	C	0.091748	-0.321421	0.412867
O110	O	0.763232	-0.266549	0.426089
O111	O	0.672342	-0.221085	0.444636
O112	O	0.672328	-0.221076	0.380638
O113	O	0.763245	-0.266558	0.490087
O114	O	0.672317	-0.169080	0.380638
O115	O	0.672331	-0.169089	0.444636
O116	O	0.763221	-0.214553	0.426089
Zn117	Zn	0.717775	-0.183566	0.435362
Zn118	Zn	0.717788	-0.252072	0.435363
O119	O	0.763235	-0.214562	0.490087
O120	O	-0.327654	0.337046	-0.061187
O121	O	-0.236739	0.227559	-0.015748
O122	O	-0.236750	0.291571	-0.015739
O123	O	-0.327643	0.273033	-0.061197
O124	O	-0.236765	0.291588	-0.067724
O125	O	-0.236754	0.227575	-0.067734
O126	O	-0.327669	0.337062	-0.113172
Zn127	Zn	-0.282214	0.282321	-0.098707
Zn128	Zn	-0.282194	0.282299	-0.030214
O129	O	-0.327658	0.273050	-0.113182
O130	O	0.211642	0.336926	0.426090
O131	O	0.275657	0.227445	0.444636
O132	O	0.211644	0.291470	0.380638
O133	O	0.275655	0.272901	0.490088
O134	O	0.159673	0.291469	0.380639
O135	O	0.223686	0.227444	0.444637
O136	O	0.159671	0.336925	0.426090
Zn137	Zn	0.183427	0.282185	0.435364
Zn138	Zn	0.251901	0.282185	0.435363
O139	O	0.223684	0.272900	0.490088
O140	O	0.159896	-0.169176	-0.067784
O141	O	0.223881	-0.214618	-0.113237
O142	O	0.159896	-0.214623	-0.113245
O143	O	0.223881	-0.169172	-0.067776
O144	O	0.211890	-0.266633	-0.061268
O145	O	0.275875	-0.266629	-0.061260
O146	O	0.211890	-0.221187	-0.015806
Zn147	Zn	0.252137	-0.252166	-0.030280
Zn148	Zn	0.183634	-0.183639	-0.098763
O149	O	0.275875	-0.221183	-0.015798
C150	C	0.440891	-0.412812	0.796939
C151	C	0.422177	-0.393828	0.815836
C152	C	0.384281	-0.356190	0.740342
C153	C	0.365653	-0.337292	0.759325
C154	C	0.384293	-0.356200	0.796939
C155	C	0.422165	-0.393818	0.759324
C156	C	0.567140	-0.549337	0.831499
C157	C	0.602899	-0.588002	0.849313
C158	C	0.620843	-0.607402	0.886587
C159	C	0.659610	-0.649326	0.905902
C160	C	0.603027	-0.588135	0.906048
C161	C	0.567275	-0.549473	0.888235
C162	C	0.549332	-0.530074	0.850959
C163	C	0.339508	-0.321646	0.888617
C164	C	0.318801	-0.303830	0.906557
C165	C	0.280068	-0.266545	0.887219
C166	C	0.257610	-0.247227	0.906665
C167	C	0.262045	-0.247073	0.849940
C168	C	0.282755	-0.264885	0.832003
C169	C	0.321488	-0.302176	0.851346
C170	C	0.339446	-0.321597	0.603858
C171	C	0.318723	-0.303774	0.565205
C172	C	0.279990	-0.266486	0.545816
C173	C	0.257519	-0.247159	0.503906
C174	C	0.261980	-0.247026	0.565080
C175	C	0.282702	-0.264851	0.603731
C176	C	0.321439	-0.302137	0.623118
C177	C	0.510561	-0.488151	0.831646
C178	C	0.479659	-0.454735	0.816252
C179	C	0.361812	-0.336865	0.698433
C180	C	0.343904	-0.321461	0.665028
C181	C	0.361838	-0.336885	0.816388
C182	C	0.343940	-0.321489	0.831892
C183	C	0.384307	-0.022820	0.073786
C184	C	0.365678	-0.041804	0.054890
C185	C	0.440916	-0.079441	0.130384
C186	C	0.422202	-0.098339	0.111402
C187	C	0.384319	-0.079431	0.073787
C188	C	0.422190	-0.041814	0.111401
C189	C	0.339472	0.113704	0.039223
C190	C	0.318753	0.152368	0.021409
C191	C	0.280021	0.171768	-0.015866
C192	C	0.257549	0.213692	-0.035181
C193	C	0.262011	0.152502	-0.035325
C194	C	0.282733	0.113840	-0.017512
C195	C	0.321465	0.094441	0.019764
C196	C	0.282405	-0.113985	-0.017888
C197	C	0.261572	-0.131800	-0.035828
C198	C	0.279462	-0.169085	-0.016489
C199	C	0.256875	-0.188403	-0.035934
C200	C	0.318192	-0.188557	0.020790
C201	C	0.339028	-0.170745	0.038726
C202	C	0.321127	-0.133454	0.019383
C203	C	0.567164	-0.114033	0.266867
C204	C	0.602919	-0.131857	0.305520
C205	C	0.620862	-0.169143	0.324910
C206	C	0.659628	-0.188470	0.366820
C207	C	0.603047	-0.188603	0.305647
C208	C	0.567292	-0.170778	0.266996
C209	C	0.549355	-0.133493	0.247608
C210	C	0.343930	0.052519	0.039077
C211	C	0.361839	0.019102	0.054472
C212	C	0.479683	-0.098766	0.172292
C213	C	0.510585	-0.114170	0.205698
C214	C	0.361728	-0.098746	0.054339
C215	C	0.343721	-0.114142	0.038836
C216	C	1.051245	-0.356461	0.796939
C217	C	1.069884	-0.394089	0.815835
C218	C	0.994646	-0.356449	0.740341
C219	C	1.013372	-0.394077	0.759323
C220	C	1.051255	-0.413072	0.796938
C221	C	1.013362	-0.337552	0.759325
C222	C	1.096035	-0.264771	0.831503
C223	C	1.116743	-0.246831	0.849318
C224	C	1.155475	-0.266183	0.886592
C225	C	1.177935	-0.246736	0.905907
C226	C	1.173497	-0.303475	0.906051
C227	C	1.152785	-0.321410	0.888238
C228	C	1.114053	-0.302057	0.850962
C229	C	1.153202	-0.549607	0.888613
C230	C	1.174046	-0.588271	0.906552
C231	C	1.156167	-0.607662	0.887213
C232	C	1.178766	-0.649584	0.906658
C233	C	1.117437	-0.588384	0.849934
C234	C	1.096591	-0.549721	0.831998
C235	C	1.114480	-0.530334	0.851342
C236	C	0.868388	-0.264723	0.603858
C237	C	0.832633	-0.246773	0.565205
C238	C	0.814701	-0.266113	0.545815
C239	C	0.775934	-0.246653	0.503905
C240	C	0.832527	-0.303403	0.565078
C241	C	0.868282	-0.321352	0.603729
C242	C	0.886208	-0.302007	0.623117
C243	C	1.091600	-0.321509	0.831648
C244	C	1.073701	-0.337013	0.816253
C245	C	0.955880	-0.336988	0.698433
C246	C	0.924978	-0.321474	0.665027
C247	C	1.073857	-0.454994	0.816386
C248	C	1.091874	-0.488410	0.831889
C249	C	0.051181	0.310431	0.074088
C250	C	0.069820	0.310684	0.111704
C251	C	-0.005403	0.310430	0.074088
C252	C	0.013322	0.310683	0.111704
C253	C	0.051198	0.310413	0.130688
C254	C	0.013305	0.310701	0.055190
C255	C	0.095951	0.300212	-0.017595
C256	C	0.116653	0.297321	-0.035536
C257	C	0.155378	0.295861	-0.016196
C258	C	0.177831	0.292719	-0.035644
C259	C	0.173399	0.297296	0.021086
C260	C	0.152695	0.300192	0.039022
C261	C	0.113969	0.301651	0.019680
C262	C	0.153141	0.300123	0.267177
C263	C	0.173985	0.297214	0.305829
C264	C	0.156114	0.295751	0.325221
C265	C	0.178714	0.292591	0.367131
C266	C	0.117391	0.297202	0.305955
C267	C	0.096544	0.300119	0.267302
C268	C	0.114425	0.301577	0.247916
C269	C	-0.131637	0.300207	-0.017595
C270	C	-0.167384	0.297309	-0.035534
C271	C	-0.185308	0.295848	-0.016194
C272	C	-0.224066	0.292704	-0.035643
C273	C	-0.167482	0.297281	0.021085
C274	C	-0.131735	0.300177	0.039023
C275	C	-0.113818	0.301643	0.019678
C276	C	0.091523	0.304788	0.039133
C277	C	0.073630	0.307290	0.054638
C278	C	-0.044161	0.307287	0.054638
C279	C	-0.075056	0.304784	0.039133
C280	C	0.073801	0.307253	0.172598
C281	C	0.091819	0.304735	0.206004
O282	O	0.159798	0.337008	-0.113223
O283	O	0.223822	0.227521	-0.067775
O284	O	0.159824	0.291532	-0.067770
O285	O	0.223796	0.272997	-0.113228
O286	O	0.211808	0.291523	-0.015788
O287	O	0.275806	0.227512	-0.015792
O288	O	0.211781	0.336999	-0.061241
Zn289	Zn	0.252047	0.282254	-0.030263
Zn290	Zn	0.183557	0.282266	-0.098752
O291	O	0.275779	0.272988	-0.061245
C292	C	-0.615606	0.254208	-0.259362
C293	C	-0.634228	0.253937	-0.240378
C294	C	-0.559005	0.254191	-0.202762
C295	C	-0.577712	0.253920	-0.183864
C296	C	-0.615588	0.254190	-0.202761
C297	C	-0.577730	0.253938	-0.240378
C298	C	-0.660447	0.264499	-0.395851
C299	C	-0.681166	0.267408	-0.434503
C300	C	-0.719892	0.268868	-0.453893
C301	C	-0.742363	0.272030	-0.495804
C302	C	-0.737895	0.267415	-0.434627
C303	C	-0.717173	0.264501	-0.395976
C304	C	-0.678447	0.263043	-0.376588
C305	C	-0.717478	0.264425	-0.168197
C306	C	-0.738305	0.267317	-0.150381
C307	C	-0.720416	0.268762	-0.113106
C308	C	-0.742997	0.271903	-0.093788
C309	C	-0.681694	0.267310	-0.093646
C310	C	-0.660863	0.264412	-0.111458
C311	C	-0.678762	0.262972	-0.148738
C312	C	-0.432788	0.264432	-0.168199
C313	C	-0.397041	0.267330	-0.150386
C314	C	-0.379099	0.268773	-0.113109
C315	C	-0.340342	0.271917	-0.093794
C316	C	-0.396908	0.267322	-0.093650
C317	C	-0.432655	0.264426	-0.111465
C318	C	-0.450590	0.262978	-0.148740
C319	C	-0.655983	0.259886	-0.334678
C320	C	-0.638074	0.257368	-0.301271
C321	C	-0.520247	0.257333	-0.183448
C322	C	-0.489351	0.259837	-0.168052
C323	C	-0.638173	0.257331	-0.183447
C324	C	-0.656175	0.259833	-0.168051
H325	H	0.167732	-0.186834	0.069567
C326	C	0.443376	-0.140106	0.131991
N327	N	0.459323	-0.171563	0.147497
H328	H	0.332758	-0.218916	0.036536
C329	C	0.216056	-0.609394	0.421971
N330	N	0.248146	-0.625465	0.423184
H331	H	0.167701	0.301313	0.251394
H332	H	0.064911	-0.248966	0.416281
H333	H	-0.382298	0.268497	-0.063297
H334	H	-0.664705	0.253514	-0.255620
C335	C	0.215995	0.295691	0.042356
N336	N	0.248080	0.294482	0.058379
H337	H	0.370984	-0.351959	0.619640
H338	H	0.267830	-0.083624	-0.033642
H339	H	0.267894	0.097858	0.454451
C340	C	0.547700	-0.192188	0.245808
N341	N	0.532945	-0.208316	0.229849
H342	H	0.332765	0.168221	0.449179
H343	H	0.437851	-0.026571	0.126639
C344	C	0.216477	-0.325165	0.421957
N345	N	0.248564	-0.341297	0.423165
C346	C	0.622513	-0.110448	0.326706
N347	N	0.637273	-0.094323	0.342663
H348	H	0.065015	0.301303	0.251618
H349	H	0.617450	-0.116028	0.449190
H350	H	0.552602	-0.083702	0.454450
H351	H	-0.117057	0.301411	-0.033353
H352	H	0.370636	-0.186654	0.454431
H353	H	-0.182088	0.168359	-0.065641
C354	C	-0.112132	0.092707	-0.038892
N355	N	-0.097378	0.076750	-0.055020
C356	C	0.216580	0.295613	0.327019
N357	N	0.248663	0.294405	0.342979
C358	C	0.097728	0.295598	0.327283
N359	N	0.082919	0.294388	0.343349
C360	C	1.053436	-0.243483	0.790496
N361	N	1.021355	-0.227452	0.759608
H362	H	0.617657	-0.218965	0.321436
H363	H	0.268080	-0.249029	0.801651
C364	C	0.338626	-0.325251	0.947560
N365	N	0.353559	-0.341386	0.978445
H366	H	0.437851	-0.409079	0.846742
H367	H	0.437827	-0.409062	0.744084
C368	C	0.547406	-0.528002	0.790496
N369	N	0.532541	-0.511932	0.759613
C370	C	-0.662012	0.268897	-0.052642
N371	N	-0.647190	0.270095	-0.021758
C372	C	0.219439	-0.206058	0.828667
N373	N	0.187346	-0.175165	0.812644
H374	H	-0.181882	-0.319611	0.421539
H375	H	0.101977	0.296153	-0.065890
C376	C	0.887885	-0.362369	0.624917
N377	N	0.902649	-0.393263	0.640876
C378	C	-0.187200	0.295675	0.042361
N379	N	-0.202052	0.294465	0.058385
H380	H	0.102703	-0.216643	0.421547
C381	C	0.443445	-0.140155	0.464350
N382	N	0.459388	-0.171609	0.464782
C383	C	0.622816	-0.229639	0.448762
N384	N	0.637679	-0.260530	0.447556
C385	C	-0.187251	-0.205996	0.421970
N386	N	-0.202116	-0.175105	0.423173
H387	H	0.371010	0.097913	0.069574
C388	C	-0.556576	0.253368	-0.260968
N389	N	-0.540643	0.252936	-0.276474
C390	C	-0.780900	0.268919	-0.171791
N391	N	-0.812984	0.270127	-0.187918
H392	H	0.552841	-0.186662	0.454442
C393	C	-0.377455	0.268926	-0.171793
N394	N	-0.362700	0.270126	-0.187918
C395	C	-0.452520	0.262844	-0.209203
N396	N	-0.467384	0.261649	-0.240088
C397	C	-0.112133	0.301758	0.080029
N398	N	-0.097369	0.302950	0.110914
H399	H	-0.769424	0.268602	-0.450416
C400	C	0.324471	-0.295525	0.738736
N401	N	0.293455	-0.264067	0.723231
C402	C	-0.736978	0.262904	-0.374787
N403	N	-0.751898	0.261704	-0.358828
H404	H	-0.447152	0.263243	-0.095618
H405	H	-0.628915	0.263311	-0.380068
C406	C	-0.556539	0.253330	-0.142109
N407	N	-0.540590	0.252883	-0.110660
C408	C	0.172518	0.301771	0.080028
N409	N	0.187451	0.302958	0.110916
H410	H	0.552560	-0.083673	0.251084
H411	H	0.102163	-0.115996	0.321210
H412	H	0.817923	-0.319150	0.549289
C413	C	-0.737165	0.262836	-0.209201
N414	N	-0.751991	0.261640	-0.240085
H415	H	0.100371	-0.129214	0.126641
C416	C	-0.618273	0.262817	-0.090051
N417	N	-0.586194	0.261617	-0.073928
C418	C	1.216101	-0.324759	0.947052
N419	N	1.248192	-0.340792	0.977934
H420	H	1.065057	-0.534027	0.801647
C421	C	0.338538	-0.325182	0.544018
N422	N	0.353464	-0.341307	0.528060
H423	H	0.205101	-0.218948	0.321427
H424	H	-0.666506	0.268592	-0.450187
H425	H	0.617400	-0.603686	0.833465
H426	H	0.167506	-0.186605	0.251307
H427	H	0.332846	-0.218978	0.449166
C428	C	1.111066	-0.414691	0.857587
N429	N	1.142084	-0.430209	0.889034
H430	H	-0.002388	-0.306323	0.406522
C431	C	0.443420	-0.021273	0.464353
N432	N	0.459353	-0.005763	0.464786
C433	C	0.219020	0.173501	0.448773
N434	N	0.186936	0.189465	0.447570
H435	H	0.205517	-0.219369	0.037244
C436	C	0.262891	-0.243441	0.624919
N437	N	0.247969	-0.227314	0.640878
H438	H	-0.002277	-0.026536	0.126655
C439	C	0.547678	-0.528284	0.909640
N440	N	0.532914	-0.512326	0.925762
C441	C	-0.007808	-0.021149	0.013146
N442	N	-0.023756	-0.005630	-0.018300
H443	H	-0.181842	0.168095	0.037295
H444	H	0.064478	-0.533488	0.416276
C445	C	-0.111853	0.092407	0.080254
N446	N	-0.096987	0.076333	0.111137
C447	C	0.622775	-0.609474	0.947052
N448	N	0.637651	-0.625546	0.977939
C449	C	0.053350	0.301821	-0.038876
N450	N	0.021263	0.303034	-0.054904
C451	C	0.888109	-0.243444	0.625182
N452	N	0.902966	-0.227419	0.641245
H453	H	0.371046	-0.352007	0.904369
H454	H	0.335281	-0.026615	0.464191
H455	H	0.333420	0.168052	0.037255
H456	H	1.102066	-0.216469	0.833472
H457	H	1.167459	-0.351772	0.904085
H458	H	0.100271	-0.409006	0.406517
H459	H	0.230439	-0.216664	0.549290
C460	C	-0.007753	-0.414411	0.406525
N461	N	-0.023574	-0.429979	0.406261
H462	H	-0.117273	-0.248976	0.416293
H463	H	0.064570	-0.083650	0.251096
H464	H	0.102793	-0.116603	-0.065678
H465	H	0.064998	-0.084063	-0.033358
C466	C	-0.007830	0.311250	0.132294
N467	N	-0.023761	0.311677	0.147802
H468	H	0.335195	-0.026553	0.023984
H469	H	0.230476	0.168300	-0.065674
C470	C	0.219085	-0.110459	0.448776
N471	N	0.187007	-0.094331	0.447582
H472	H	0.268067	0.098155	-0.033359
H473	H	0.230039	-0.115943	-0.066179
C474	C	0.262823	-0.073043	0.454867
N475	N	0.247998	-0.042152	0.456070
C476	C	0.172737	-0.362580	0.415859
N477	N	0.187562	-0.393471	0.414653
C478	C	0.381644	0.092574	0.454853
N479	N	0.413723	0.076611	0.456048
C480	C	0.172540	-0.528203	0.415870
N481	N	0.187457	-0.512238	0.414671
C482	C	0.992212	-0.414666	0.738733
N483	N	0.976276	-0.430174	0.723226
C484	C	-0.111910	-0.362587	0.415859
N485	N	-0.097047	-0.393478	0.414655
H486	H	0.100302	0.311100	0.126946
C487	C	0.381625	-0.192163	0.079731
N488	N	0.413709	-0.208294	0.110618
H489	H	0.102065	-0.603623	0.421534
C490	C	0.992196	-0.295789	0.738734
N491	N	0.976256	-0.264334	0.723225
C492	C	0.813026	-0.205754	0.544019
N493	N	0.798256	-0.174857	0.528063
H494	H	1.167769	-0.533824	0.904366
C495	C	1.216648	-0.609473	0.947554
N496	N	1.248738	-0.625443	0.978438
H497	H	1.102876	-0.604172	0.834189
H498	H	-0.181894	0.296140	-0.065888
C499	C	-0.007865	0.311286	0.013437
N500	N	-0.023809	0.311727	-0.018011
