data_functionalizedCrystal
_audit_creation_method	'MofGen! by Chris Wilmer'
_symmetry_space_group_name_H-M	'P1'
_symmetry_Int_Tables_number	1
_symmetry_cell_setting	triclinic
loop_
_symmetry_equiv_pos_as_xyz
  x,y,z
_cell_length_a	6.817900
_cell_length_b	14.858565
_cell_length_c	10.992410
_cell_angle_alpha	93.421726
_cell_angle_beta	108.764651
_cell_angle_gamma	104.523916
loop_
_atom_site_label
_atom_site_type_symbol
_atom_site_fract_x
_atom_site_fract_y
_atom_site_fract_z
V1	V	-4.092572	-0.128670	-0.400951
O2	O	-4.073418	0.006183	-0.392950
O3	O	-4.048847	-0.255131	-0.398564
O4	O	-4.070498	-0.126691	-0.575658
O5	O	-4.051617	-0.123146	-0.214630
V6	V	-4.572183	-0.112540	-0.378623
O7	O	-4.362412	-0.164052	-0.449931
O8	O	-4.752541	-0.077158	-0.329643
O9	O	-4.392702	0.013921	-0.381010
O10	O	-4.708735	-0.247393	-0.386624
O11	O	-4.730535	-0.118064	-0.564944
O12	O	-4.371051	-0.114519	-0.203916
C13	C	-3.894134	-0.285959	-0.392330
C14	C	-3.939846	-0.389343	-0.391542
C15	C	-3.921750	-0.122120	-0.618230
C16	C	-3.985016	-0.121339	-0.761056
C17	C	-4.107159	-0.767914	-0.388676
C18	C	-4.060599	-0.662584	-0.389473
C19	C	-4.023503	-0.578632	-0.390108
C20	C	-3.976941	-0.473295	-0.390907
C21	C	-3.853338	-0.114218	-0.956160
C22	C	-3.787586	-0.115417	-0.807680
C23	C	-4.167585	-0.213035	-0.838416
C24	C	-4.232035	-0.212224	-0.986980
C25	C	-4.139712	-0.034667	-0.948454
C26	C	-4.069076	-0.034232	-0.799440
C27	C	-4.210757	0.044745	-0.387241
C28	C	-4.144285	0.148127	-0.388037
C29	C	-4.183140	-0.119093	-0.161337
C30	C	-4.099112	-0.119870	-0.018510
H31	H	-3.747318	-0.047832	-0.974804
O32	O	-4.031276	0.048423	-0.972652
C33	C	-4.179784	0.096701	-1.035217
H34	H	-4.346055	0.044278	-1.085384
H35	H	-4.123973	0.134588	-1.110607
H36	H	-4.189411	0.150274	-0.960253
O37	O	-4.099634	-0.290092	-0.807993
C38	C	-3.887313	-0.261424	-0.716805
H39	H	-3.805083	-0.185956	-0.723688
H40	H	-3.792385	-0.309663	-0.738335
H41	H	-3.892781	-0.265473	-0.614656
O42	O	-3.706543	-0.189358	-0.778171
C43	C	-3.491734	-0.155909	-0.690741
H44	H	-3.420636	-0.079600	-0.699829
H45	H	-3.391493	-0.200642	-0.714561
H46	H	-3.489369	-0.160438	-0.587135
H47	H	-4.412693	-0.220197	-1.029634
O48	O	-4.352506	-0.038513	-0.997007
C49	C	-4.387050	0.038222	-0.933521
H50	H	-4.252653	0.064608	-0.834840
H51	H	-4.549627	0.014850	-0.919210
H52	H	-4.386806	0.097257	-0.995176
O53	O	-3.623919	-0.036664	-0.743967
C54	C	-3.693421	0.043632	-0.774183
H55	H	-3.833894	0.024989	-0.870813
H56	H	-3.554251	0.101581	-0.781899
H57	H	-3.748316	0.069256	-0.694273
H58	H	-4.316672	-0.220679	-0.809634
O59	O	-4.238546	-0.032738	-0.760461
C60	C	-4.184773	0.050891	-0.674013
H61	H	-4.001487	0.079390	-0.627731
H62	H	-4.257527	0.035616	-0.594850
H63	H	-4.251821	0.105290	-0.729551
H64	H	-3.818088	-0.175437	-1.004323
O65	O	-3.912028	0.046786	-0.736899
C66	C	-3.989301	0.124507	-0.772050
H67	H	-4.127302	0.102794	-0.869784
H68	H	-3.852869	0.183840	-0.779930
H69	H	-4.050216	0.149734	-0.694864
O70	O	-4.200309	-0.289082	-1.042528
C71	C	-4.049450	-0.259983	-1.105204
H72	H	-4.046658	-0.186224	-1.129367
H73	H	-4.097762	-0.310794	-1.198700
H74	H	-3.881944	-0.259401	-1.038229
