data_functionalizedCrystal
_audit_creation_method	'MofGen! by Chris Wilmer'
_symmetry_space_group_name_H-M	'P1'
_symmetry_Int_Tables_number	1
_symmetry_cell_setting	triclinic
loop_
_symmetry_equiv_pos_as_xyz
  x,y,z
_cell_length_a	14.044220
_cell_length_b	10.489741
_cell_length_c	12.503572
_cell_angle_alpha	93.559494
_cell_angle_beta	86.164750
_cell_angle_gamma	88.864026
loop_
_atom_site_label
_atom_site_type_symbol
_atom_site_fract_x
_atom_site_fract_y
_atom_site_fract_z
O1	O	1.265220	0.300990	-0.089205
O2	O	1.765220	0.800990	0.410795
O3	O	0.989177	0.289883	-0.089232
O4	O	1.489177	0.789883	0.410768
O5	O	1.133479	0.110477	-0.089211
O6	O	1.633479	0.610477	0.410789
O7	O	1.120918	0.480397	-0.089225
O8	O	1.620918	0.980397	0.410775
O9	O	1.122627	0.123993	0.089429
O10	O	1.622627	0.623993	0.589429
O11	O	0.978325	0.303400	0.089408
O12	O	1.478325	0.803400	0.589408
O13	O	1.254368	0.314507	0.089436
O14	O	1.754368	0.814507	0.589436
Cu15	Cu	1.115355	0.310188	0.105733
Cu16	Cu	1.615355	0.810188	0.605733
Cu17	Cu	1.128189	0.294203	-0.105530
Cu18	Cu	1.628189	0.794203	0.394470
O19	O	1.110065	0.493914	0.089415
O20	O	1.610065	0.993914	0.589415
C21	C	0.948403	0.291780	0.000085
C22	C	1.448403	0.791780	0.500085
C23	C	0.843079	0.277280	0.000074
C24	C	1.343079	0.777280	0.500074
C25	C	0.650235	0.250773	0.000097
C26	C	1.150235	0.750773	0.500097
C27	C	0.593304	0.353611	0.000097
C28	C	1.093304	0.853611	0.500097
C29	C	0.485999	0.338862	0.000110
C30	C	0.985999	0.838862	0.500110
C31	C	0.757550	0.265520	0.000084
C32	C	1.257550	0.765520	0.500084
C33	C	1.127104	0.069607	0.000108
C34	C	1.627104	0.569607	0.500108
C35	C	1.124266	-0.072311	0.000106
C36	C	1.624266	0.427689	0.500106
C37	C	1.032451	-0.149764	0.000089
C38	C	1.532451	0.350236	0.500089
C39	C	1.070473	-0.230823	0.088172
C40	C	1.570473	0.269177	0.588172
C41	C	1.081194	-0.244122	-0.087953
C42	C	1.581194	0.255878	0.412047
C43	C	1.162321	-0.151494	0.088262
C44	C	1.662321	0.348506	0.588262
C45	C	1.173035	-0.164791	-0.087943
C46	C	1.673035	0.335209	0.412057
C47	C	1.211122	-0.245814	0.000162
C48	C	1.711122	0.254186	0.500162
C49	C	1.295142	0.312610	0.000116
C50	C	1.795142	0.812610	0.500116
C51	C	1.400466	0.327110	0.000120
C52	C	1.900466	0.827110	0.500120
C53	C	1.116440	0.534783	0.000093
C54	C	1.616440	1.034783	0.500093
C55	C	1.119279	0.676700	0.000088
C56	C	1.619279	1.176700	0.500088
N57	N	1.106335	0.321431	0.254324
N58	N	1.606335	0.821431	0.754324
N59	N	1.137217	0.282950	-0.254121
N60	N	1.637217	0.782950	0.245879
C61	C	1.093067	0.337981	0.473438
C62	C	1.593067	0.837981	0.973438
C63	C	1.150482	0.266404	0.526773
C64	C	1.650482	0.766404	1.026773
C65	C	1.143099	0.275613	0.648695
C66	C	1.643099	0.775613	1.148695
C67	C	1.100449	0.328774	0.351504
C68	C	1.600449	0.828774	0.851504
H69	H	0.625152	0.452730	0.000088
H70	H	1.125152	0.952730	0.500088
H71	H	0.618389	0.151662	0.000106
H72	H	1.118389	0.651662	0.500106
Cl73	Cl	1.008622	0.443268	0.544305
Cl74	Cl	1.508622	0.943268	1.044305
Cl75	Cl	0.915893	-0.084918	0.000207
Cl76	Cl	1.415893	0.415082	0.500207
Cl77	Cl	1.215261	-0.089113	0.203363
Cl78	Cl	1.715261	0.410887	0.703363
Cl79	Cl	1.003511	-0.276089	0.203134
Cl80	Cl	1.503511	0.223911	0.703134
H81	H	1.286677	-0.287570	0.000218
H82	H	1.786677	0.212430	0.500218
H83	H	1.046857	-0.284662	-0.162428
H84	H	1.546857	0.215338	0.337572
Cl85	Cl	1.239950	-0.119475	-0.202911
Cl86	Cl	1.739950	0.380525	0.297089
Cl87	Cl	1.235300	0.161646	0.455905
Cl88	Cl	1.735300	0.661646	0.955905
