data_functionalizedCrystal
_audit_creation_method	'MofGen! by Chris Wilmer'
_symmetry_space_group_name_H-M	'P1'
_symmetry_Int_Tables_number	1
_symmetry_cell_setting	triclinic
loop_
_symmetry_equiv_pos_as_xyz
  x,y,z
_cell_length_a	29.839131
_cell_length_b	29.839135
_cell_length_c	29.839125
_cell_angle_alpha	89.984249
_cell_angle_beta	90.013540
_cell_angle_gamma	89.956471
loop_
_atom_site_label
_atom_site_type_symbol
_atom_site_fract_x
_atom_site_fract_y
_atom_site_fract_z
Zn1	Zn	-0.178894	-0.686719	0.254063
Zn2	Zn	0.321106	-0.186719	0.754063
Zn3	Zn	-0.254006	-0.686651	0.178939
Zn4	Zn	0.245994	-0.186651	0.678939
Zn5	Zn	-0.178894	-0.611602	0.178941
Zn6	Zn	0.321106	-0.111602	0.678941
Zn7	Zn	-0.254001	-0.611549	0.254035
Zn8	Zn	0.245999	-0.111549	0.754035
O9	O	-0.216449	-0.649130	0.216495
O10	O	0.283551	-0.149130	0.716495
O11	O	-0.188861	-0.749577	0.244109
O12	O	0.311139	-0.249577	0.744109
O13	O	-0.244045	-0.676689	0.116072
O14	O	0.255955	-0.176689	0.616072
O15	O	-0.116027	-0.621617	0.188919
O16	O	0.383973	-0.121617	0.688919
O17	O	-0.244045	-0.749527	0.188915
O18	O	0.255955	-0.249527	0.688915
O19	O	-0.116027	-0.676805	0.244111
O20	O	0.383973	-0.176805	0.744111
O21	O	-0.188860	-0.621550	0.116074
O22	O	0.311140	-0.121550	0.616074
O23	O	-0.188854	-0.548727	0.188892
O24	O	0.311146	-0.048727	0.688892
O25	O	-0.244035	-0.621527	0.316906
O26	O	0.255965	-0.121527	0.816906
O27	O	-0.244035	-0.548689	0.244063
O28	O	0.255965	-0.048689	0.744063
O29	O	-0.188855	-0.676754	0.316927
O30	O	0.311145	-0.176754	0.816927
O31	O	-0.316873	-0.676638	0.188888
O32	O	0.183127	-0.176638	0.688888
O33	O	-0.316868	-0.621461	0.244061
O34	O	0.183132	-0.121461	0.744061
C35	C	-0.216444	-0.532407	0.216475
C36	C	0.283556	-0.032407	0.716475
C37	C	-0.216453	-0.482473	0.216477
C38	C	0.283547	0.017527	0.716477
C39	C	-0.187752	-0.172853	0.245274
C40	C	0.312248	0.327147	0.745274
C41	C	-0.187753	0.014820	0.245286
C42	C	0.312247	0.514820	0.745286
O43	O	-0.163343	0.039066	0.269750
O44	O	0.336657	0.539066	0.769750
N45	N	-0.216441	0.038312	0.216508
N46	N	0.283559	0.538312	0.716508
C47	C	-0.245129	0.014883	0.187723
C48	C	0.254871	0.514883	0.687723
O49	O	-0.269526	0.039170	0.163242
O50	O	0.230474	0.539170	0.663242
C51	C	-0.245125	-0.172789	0.187709
C52	C	0.254875	0.327211	0.687709
C53	C	-0.216439	-0.196279	0.216492
C54	C	0.283561	0.303721	0.716492
C55	C	-0.159067	-0.196342	0.274055
C56	C	0.340933	0.303658	0.774055
C57	C	-0.159069	-0.243257	0.274053
C58	C	0.340931	0.256743	0.774053
C59	C	-0.187756	-0.266684	0.245271
C60	C	0.312244	0.233316	0.745271
C61	C	-0.216440	-0.243194	0.216491
C62	C	0.283560	0.256806	0.716491
C63	C	-0.273811	-0.196218	0.158922
C64	C	0.226189	0.303782	0.658922
C65	C	-0.273806	-0.243139	0.158920
C66	C	0.226194	0.256861	0.658920
C67	C	-0.245120	-0.266628	0.187703
C68	C	0.254880	0.233372	0.687703
C69	C	-0.245129	-0.313536	0.187707
C70	C	0.254871	0.186464	0.687707
N71	N	-0.216441	-0.337028	0.216485
N72	N	0.283559	0.162972	0.716485
C73	C	-0.187754	-0.313601	0.245267
C74	C	0.312246	0.186399	0.745267
C75	C	-0.245129	0.113413	0.187733
C76	C	0.254871	0.613413	0.687733
C77	C	-0.245131	0.160331	0.187737
C78	C	0.254869	0.660331	0.687737
C79	C	-0.187754	0.160266	0.245300
C80	C	0.312246	0.660266	0.745300
C81	C	-0.187755	0.113347	0.245298
C82	C	0.312245	0.613347	0.745298
C83	C	-0.216441	0.089922	0.216511
C84	C	0.283559	0.589922	0.716511
C85	C	-0.187760	-0.412127	0.245262
C86	C	0.312240	0.087873	0.745262
C87	C	-0.187766	-0.459047	0.245259
C88	C	0.312234	0.040953	0.745259
C89	C	-0.245141	-0.458977	0.187695
C90	C	0.254859	0.041023	0.687695
C91	C	-0.245137	-0.412062	0.187699
C92	C	0.254863	0.087938	0.687699
C93	C	-0.216443	-0.388638	0.216484
C94	C	0.283557	0.111362	0.716484
O95	O	-0.269522	-0.337810	0.163252
O96	O	0.230478	0.162190	0.663252
O97	O	-0.163353	-0.337897	0.269737
O98	O	0.336647	0.162103	0.769737
C99	C	-0.187750	-0.125937	0.245276
C100	C	0.312250	0.374063	0.745276
C101	C	-0.216435	-0.102448	0.216495
C102	C	0.283565	0.397552	0.716495
C103	C	-0.245121	-0.125874	0.187713
C104	C	0.254879	0.374126	0.687713
C105	C	-0.216436	-0.055530	0.216499
C106	C	0.283564	0.444470	0.716499
C107	C	-0.187750	-0.032104	0.245281
C108	C	0.312250	0.467896	0.745281
C109	C	-0.159062	-0.055596	0.274059
C110	C	0.340938	0.444404	0.774059
C111	C	-0.159063	-0.102511	0.274058
C112	C	0.340937	0.397489	0.774058
C113	C	-0.273810	-0.102382	0.158935
C114	C	0.226190	0.397618	0.658935
C115	C	-0.273806	-0.055467	0.158939
C116	C	0.226194	0.444533	0.658939
C117	C	-0.245119	-0.032041	0.187721
C118	C	0.254881	0.467959	0.687721
C119	C	-0.333171	-0.649048	0.216481
C120	C	0.166829	-0.149048	0.716481
C121	C	-0.383106	-0.649054	0.216490
C122	C	0.116894	-0.149054	0.716490
C123	C	-0.739706	-0.620418	0.245221
C124	C	-0.239706	-0.120418	0.745221
C125	C	-0.552033	-0.620358	0.245207
C126	C	-0.052033	-0.120358	0.745207
O127	O	-0.527780	-0.595913	0.269627
O128	O	-0.027780	-0.095913	0.769627
N129	N	-0.528551	-0.649102	0.216503
N130	N	-0.028551	-0.149102	0.716503
C131	C	-0.551990	-0.677864	0.187803
C132	C	-0.051990	-0.177864	0.687803
O133	O	-0.527710	-0.702314	0.163392
O134	O	-0.027710	-0.202314	0.663392
C135	C	-0.739662	-0.677926	0.187820
C136	C	-0.239662	-0.177926	0.687820
C137	C	-0.763142	-0.649177	0.216522
C138	C	-0.263142	-0.149177	0.716522
C139	C	-0.763186	-0.591672	0.273922
C140	C	-0.263186	-0.091672	0.773922
C141	C	-0.810102	-0.591685	0.273923
C142	C	-0.310102	-0.091685	0.773923
C143	C	-0.833537	-0.620445	0.245224
C144	C	-0.333537	-0.120445	0.745224
C145	C	-0.810057	-0.649190	0.216524
C146	C	-0.310057	-0.149190	0.716524
C147	C	-0.763100	-0.706690	0.159122
C148	C	-0.263100	-0.206690	0.659122
C149	C	-0.810021	-0.706703	0.159130
C150	C	-0.310021	-0.206703	0.659130
C151	C	-0.833501	-0.677955	0.187832
C152	C	-0.333501	-0.177955	0.687832
C153	C	-0.880408	-0.677963	0.187826
C154	C	-0.380408	-0.177963	0.687826
N155	N	-0.903891	-0.649220	0.216530
N156	N	-0.403891	-0.149220	0.716530
C157	C	-0.880455	-0.620460	0.245229
C158	C	-0.380455	-0.120460	0.745229
C159	C	-0.453459	-0.677829	0.187796
C160	C	0.046541	-0.177829	0.687796
C161	C	-0.406541	-0.677814	0.187791
C162	C	0.093459	-0.177814	0.687791
C163	C	-0.406588	-0.620308	0.245196
C164	C	0.093412	-0.120308	0.745196
C165	C	-0.453507	-0.620322	0.245198
C166	C	0.046493	-0.120322	0.745198
C167	C	-0.476941	-0.649086	0.216500
C168	C	0.023059	-0.149086	0.716500
C169	C	-0.978981	-0.620490	0.245230
C170	C	-0.478981	-0.120490	0.745230
C171	C	-1.025900	-0.620505	0.245228
C172	C	-0.525900	-0.120505	0.745228
C173	C	-1.025850	-0.678012	0.187824
C174	C	-0.525850	-0.178012	0.687824
C175	C	-0.978934	-0.677996	0.187825
C176	C	-0.478934	-0.177996	0.687825
C177	C	-0.955501	-0.649234	0.216531
C178	C	-0.455501	-0.149234	0.716531
O179	O	-0.904690	-0.702399	0.163423
O180	O	-0.404690	-0.202399	0.663423
O181	O	-0.904743	-0.596021	0.269644
O182	O	-0.404743	-0.096021	0.769644
C183	C	-0.692791	-0.620404	0.245220
C184	C	-0.192791	-0.120404	0.745220
C185	C	-0.669311	-0.649150	0.216519
C186	C	-0.169311	-0.149150	0.716519
C187	C	-0.692746	-0.677909	0.187820
C188	C	-0.192746	-0.177909	0.687820
C189	C	-0.622393	-0.649134	0.216515
C190	C	-0.122393	-0.149134	0.716515
C191	C	-0.598958	-0.620375	0.245214
C192	C	-0.098958	-0.120375	0.745214
C193	C	-0.622440	-0.591632	0.273918
C194	C	-0.122440	-0.091632	0.773918
C195	C	-0.669355	-0.591645	0.273919
C196	C	-0.169355	-0.091645	0.773919
C197	C	-0.669264	-0.706653	0.159116
C198	C	-0.169264	-0.206653	0.659116
C199	C	-0.622349	-0.706637	0.159117
C200	C	-0.122349	-0.206637	0.659117
C201	C	-0.598913	-0.677878	0.187816
C202	C	-0.098913	-0.177878	0.687816
C203	C	-0.099270	-0.649224	0.216518
C204	C	0.400730	-0.149224	0.716518
C205	C	-0.049336	-0.649264	0.216528
C206	C	0.450664	-0.149264	0.716528
C207	C	-0.216445	-0.649142	0.333673
C208	C	0.283555	-0.149142	0.833673
C209	C	-0.216443	-0.649147	0.383608
C210	C	0.283557	-0.149147	0.883608
C211	C	-0.216451	0.233692	0.216514
C212	C	0.283549	0.733692	0.716514
C213	C	-0.216444	0.183757	0.216519
C214	C	0.283556	0.683757	0.716519
C215	C	-0.216420	-0.649144	0.099772
C216	C	0.283580	-0.149144	0.599772
C217	C	-0.216296	-0.649226	0.049838
C218	C	0.283704	-0.149226	0.549838
C219	C	-0.187635	-0.677934	0.693265
C220	C	0.312365	-0.177934	1.193265
C221	C	-0.187597	-0.677956	0.880938
C222	C	0.312403	-0.177956	1.380938
O223	O	-0.163147	-0.702399	0.905214
O224	O	0.336853	-0.202399	1.405214
N225	N	-0.216323	-0.649207	0.904393
N226	N	0.283677	-0.149207	1.404393
C227	C	-0.245058	-0.620448	0.880927
C228	C	0.254942	-0.120448	1.380927
O229	O	-0.269486	-0.595991	0.905183
O230	O	0.230514	-0.095991	1.405183
C231	C	-0.245093	-0.620423	0.693254
C232	C	0.254907	-0.120423	1.193254
C233	C	-0.216369	-0.649178	0.669802
C234	C	0.283631	-0.149178	1.169802
C235	C	-0.158913	-0.706686	0.669812
C236	C	0.341087	-0.206686	1.169812
C237	C	-0.158925	-0.706682	0.622897
C238	C	0.341075	-0.206682	1.122897
C239	C	-0.187659	-0.677926	0.599434
C240	C	0.312341	-0.177926	1.099434
C241	C	-0.216381	-0.649174	0.622886
C242	C	0.283619	-0.149174	1.122886
C243	C	-0.273826	-0.591662	0.669789
C244	C	0.226174	-0.091662	1.169789
C245	C	-0.273832	-0.591658	0.622868
C246	C	0.226168	-0.091658	1.122868
C247	C	-0.245107	-0.620412	0.599415
C248	C	0.254893	-0.120412	1.099415
C249	C	-0.245126	-0.620414	0.552508
C250	C	0.254874	-0.120414	1.052508
N251	N	-0.216401	-0.649163	0.529053
N252	N	0.283599	-0.149163	1.029053
C253	C	-0.187667	-0.677919	0.552516
C254	C	0.312333	-0.177919	1.052516
C255	C	-0.245038	-0.620463	0.979457
C256	C	0.254962	-0.120463	1.479457
C257	C	-0.245029	-0.620469	1.026375
C258	C	0.254971	-0.120469	1.526375
C259	C	-0.187568	-0.677978	1.026383
C260	C	0.312432	-0.177978	1.526383
C261	C	-0.187579	-0.677973	0.979464
C262	C	0.312421	-0.177973	1.479464
C263	C	-0.216312	-0.649213	0.956002
C264	C	0.283688	-0.149213	1.456002
C265	C	-0.187694	-0.677909	0.453990
C266	C	0.312306	-0.177909	0.953990
C267	C	-0.187709	-0.677903	0.407070
C268	C	0.312291	-0.177903	0.907070
C269	C	-0.245169	-0.620393	0.407066
C270	C	0.254831	-0.120393	0.907066
C271	C	-0.245155	-0.620400	0.453982
C272	C	0.254845	-0.120400	0.953982
C273	C	-0.216414	-0.649159	0.477443
C274	C	0.283586	-0.149159	0.977443
O275	O	-0.269561	-0.595981	0.528203
O276	O	0.230439	-0.095981	1.028203
O277	O	-0.163235	-0.702365	0.528252
O278	O	0.336765	-0.202365	1.028252
C279	C	-0.187624	-0.677938	0.740180
C280	C	0.312376	-0.177938	1.240180
C281	C	-0.216346	-0.649186	0.763633
C282	C	0.283654	-0.149186	1.263633
C283	C	-0.245080	-0.620430	0.740170
C284	C	0.254920	-0.120430	1.240170
C285	C	-0.216338	-0.649193	0.810551
C286	C	0.283662	-0.149193	1.310551
C287	C	-0.187604	-0.677949	0.834014
C288	C	0.312396	-0.177949	1.334014
C289	C	-0.158878	-0.706699	0.810559
C290	C	0.341122	-0.206699	1.310559
C291	C	-0.158890	-0.706694	0.763643
C292	C	0.341110	-0.206694	1.263643
C293	C	-0.273805	-0.591681	0.763625
C294	C	0.226195	-0.091681	1.263625
C295	C	-0.273792	-0.591687	0.810540
C296	C	0.226208	-0.091687	1.310540
C297	C	-0.245058	-0.620444	0.834003
C298	C	0.254942	-0.120444	1.334003
H299	H	-0.297170	-0.177101	0.135483
H300	H	0.202830	0.322899	0.635483
H301	H	-0.472621	-0.596915	0.268573
H302	H	0.027379	-0.096915	0.768573
H303	H	-0.135500	-0.730109	0.744552
H304	H	0.364500	-0.230109	1.244552
F305	F	-0.157223	0.185205	0.275931
F306	F	0.342777	0.685205	0.775931
F307	F	-0.156987	-0.708583	1.051362
F308	F	0.343013	-0.208583	1.551362
H309	H	-0.268495	0.179452	0.164303
H310	H	0.231505	0.679452	0.664303
H311	H	-0.135484	-0.730114	0.829670
H312	H	0.364516	-0.230114	1.329670
F313	F	-0.835085	-0.561092	0.304478
F314	F	-0.335085	-0.061092	0.804478
H315	H	-0.297166	-0.262209	0.135477
H316	H	0.202834	0.237791	0.635477
F317	F	-0.597365	-0.737236	0.128564
F318	F	-0.097365	-0.237236	0.628564
F319	F	-0.275670	-0.483917	0.157065
F320	F	0.224330	0.016083	0.657065
F321	F	-0.275659	0.088488	0.157089
F322	F	0.224341	0.588488	0.657089
H323	H	-0.472535	-0.701253	0.164424
H324	H	0.027465	-0.201253	0.664424
H325	H	-0.268564	-0.596982	0.387954
H326	H	0.231436	-0.096982	0.887954
F327	F	-0.953944	-0.708585	0.157268
F328	F	-0.453944	-0.208585	0.657268
H329	H	-0.135703	-0.121632	0.297496
H330	H	0.364297	0.378368	0.797496
H331	H	-0.297187	-0.568273	0.829631
H332	H	0.202813	-0.068273	1.329631
F333	F	-0.304389	-0.561072	0.738660
F334	F	0.195611	-0.061072	1.238660
H335	H	-0.297170	-0.121451	0.135496
H336	H	0.202830	0.378549	0.635496
H337	H	-0.829099	-0.730128	0.135761
H338	H	-0.329099	-0.230128	0.635761
F339	F	-0.128533	-0.030656	0.304693
F340	F	0.371467	0.469344	0.804693
H341	H	-0.164405	-0.478170	0.268700
H342	H	0.335595	0.021830	0.768700
H343	H	-0.743989	-0.730100	0.135750
H344	H	-0.243989	-0.230100	0.635750
F345	F	-0.275680	-0.387062	0.157076
F346	F	0.224320	0.112938	0.657076
H347	H	-0.297225	-0.568232	0.603767
H348	H	0.202775	-0.068232	1.103767
F349	F	-0.304341	-0.030473	0.128302
F350	F	0.195659	0.469527	0.628302
F351	F	-0.275729	-0.589799	0.478943
F352	F	0.224271	-0.089799	0.978943
H353	H	-0.164394	-0.393061	0.268700
H354	H	0.335606	0.106939	0.768700
H355	H	-0.387427	-0.701218	0.164414
H356	H	0.112573	-0.201218	0.664414
H357	H	-1.044939	-0.701425	0.164457
H358	H	-0.544939	-0.201425	0.664457
F359	F	-0.157137	-0.708510	0.382113
F360	F	0.342863	-0.208510	0.882113
H361	H	-0.135709	-0.262378	0.297491
H362	H	0.364291	0.237622	0.797491
F363	F	-0.694339	-0.561048	0.304470
F364	F	-0.194339	-0.061048	0.804470
F365	F	-0.128532	-0.171417	0.304691
F366	F	0.371468	0.328583	0.804691
F367	F	-1.050887	-0.589906	0.275778
F368	F	-0.550887	-0.089906	0.775778
H369	H	-0.164395	0.094225	0.268734
H370	H	0.335605	0.594225	0.768734
F371	F	-0.954048	-0.589878	0.275782
F372	F	-0.454048	-0.089878	0.775782
F373	F	-0.738251	-0.561061	0.304471
F374	F	-0.238251	-0.061061	0.804471
F375	F	-0.597490	-0.561023	0.304460
F376	F	-0.097490	-0.061023	0.804460
H377	H	-0.387499	-0.596891	0.268563
H378	H	0.112501	-0.096891	0.768563
H379	H	-0.688340	-0.730073	0.135746
H380	H	-0.188340	-0.230073	0.635746
H381	H	-0.164289	-0.701326	0.473086
H382	H	0.335711	-0.201326	0.973086
H383	H	-0.135534	-0.730096	0.603806
H384	H	0.364466	-0.230096	1.103806
F385	F	-0.128332	-0.737299	0.694776
F386	F	0.371668	-0.237299	1.194776
H387	H	-0.164188	-0.701387	0.960373
H388	H	0.335812	-0.201387	1.460373
H389	H	-0.268424	-0.597059	1.045466
H390	H	0.231576	-0.097059	1.545466
F391	F	-0.275622	-0.589850	0.954493
F392	F	0.224378	-0.089850	1.454493
H393	H	-0.297216	-0.568247	0.688876
H394	H	0.202784	-0.068247	1.188876
