data_functionalizedCrystal
_audit_creation_method	'MofGen! by Chris Wilmer'
_symmetry_space_group_name_H-M	'P1'
_symmetry_Int_Tables_number	1
_symmetry_cell_setting	triclinic
loop_
_symmetry_equiv_pos_as_xyz
  x,y,z
_cell_length_a	16.992694
_cell_length_b	23.532407
_cell_length_c	16.053802
_cell_angle_alpha	92.544672
_cell_angle_beta	87.249047
_cell_angle_gamma	86.758451
loop_
_atom_site_label
_atom_site_type_symbol
_atom_site_fract_x
_atom_site_fract_y
_atom_site_fract_z
O1	O	1.042772	0.118472	-0.069339
O2	O	0.814498	0.117146	-0.069363
O3	O	0.935518	0.035219	-0.069335
O4	O	0.921752	0.200399	-0.069367
O5	O	0.928857	0.039709	0.069523
O6	O	0.807837	0.121636	0.069494
O7	O	1.036111	0.122961	0.069519
Zn8	Zn	0.920917	0.123011	0.091553
Zn9	Zn	0.929693	0.117096	-0.091397
O10	O	0.915091	0.204888	0.069490
C11	C	0.781969	0.117687	0.000063
C12	C	0.694964	0.112604	0.000054
C13	C	0.644342	0.161650	0.000045
C14	C	0.562592	0.156871	0.000058
C15	C	0.531466	0.103045	0.000073
C16	C	0.582095	0.053995	0.000084
C17	C	0.663843	0.058775	0.000078
C18	C	0.288022	0.083234	0.000099
C19	C	0.206267	0.078457	0.000103
C20	C	0.186770	0.181334	0.000078
C21	C	0.268521	0.186109	0.000066
C22	C	0.319142	0.137059	0.000082
N23	N	0.447905	0.098158	0.000083
N24	N	0.402702	0.141946	0.000078
C25	C	0.931837	0.016231	0.000096
C26	C	0.930783	-0.047038	0.000102
C27	C	0.995791	-0.442917	0.000063
C28	C	0.994812	-0.502366	0.000057
O29	O	1.055075	-0.536121	0.000033
N30	N	0.922865	-0.528562	0.000050
C31	C	0.851893	-0.495307	0.000041
O32	O	0.790607	-0.523048	0.000033
C33	C	0.852873	-0.435859	0.000041
C34	C	0.924824	-0.409666	0.000057
C35	C	1.067736	-0.416723	0.000078
C36	C	1.068715	-0.357278	0.000086
C37	C	0.997748	-0.324027	0.000079
C38	C	0.925803	-0.350221	0.000065
C39	C	0.781902	-0.402605	0.000026
C40	C	0.782889	-0.343154	0.000026
C41	C	0.854840	-0.316960	0.000042
C42	C	0.855814	-0.257525	0.000066
N43	N	0.927761	-0.231328	0.000073
C44	C	0.998728	-0.264579	0.000080
C45	C	0.849841	-0.620151	0.000038
C46	C	0.848860	-0.679598	0.000044
C47	C	0.991779	-0.686653	0.000058
C48	C	0.992759	-0.627205	0.000059
C49	C	0.921788	-0.593955	0.000045
C50	C	1.000777	-0.139740	0.000097
C51	C	1.001749	-0.080289	0.000109
C52	C	0.858831	-0.073240	0.000090
C53	C	0.857858	-0.132685	0.000083
C54	C	0.928838	-0.165934	0.000084
O55	O	0.795583	-0.223734	0.000087
O56	O	1.060004	-0.236831	0.000076
C57	C	1.068641	0.122420	0.000091
C58	C	1.155645	0.127503	0.000094
C59	C	0.918773	0.223877	0.000058
C60	C	0.919827	0.287146	0.000046
N61	N	0.914933	0.127048	0.216412
N62	N	0.935683	0.113055	-0.216256
C63	C	0.966445	0.092202	0.260118
C64	C	0.962267	0.095032	0.347524
C65	C	0.906579	0.132711	0.391222
C66	C	0.855061	0.167558	0.347510
C67	C	0.859236	0.164725	0.260106
C68	C	0.888340	0.145069	0.652627
C69	C	0.884170	0.147901	0.740038
C70	C	0.991376	0.075374	0.740045
C71	C	0.995550	0.072546	0.652640
C72	C	0.944029	0.107392	0.608935
N73	N	0.902308	0.135606	0.480565
N74	N	0.948296	0.104494	0.519594
H75	H	0.293858	0.229939	0.000044
H76	H	0.723313	-0.423922	0.000008
O77	O	1.060732	-0.718931	0.000204
C78	C	1.101012	-0.704232	0.072112
H79	H	1.057067	-0.684202	0.122378
H80	H	1.131617	-0.744155	0.096247
H81	H	1.146923	-0.672455	0.055858
H82	H	1.011796	0.061523	0.224545
H83	H	1.004212	0.066657	0.383109
O84	O	1.138637	-0.331871	-0.000055
C85	C	1.185318	-0.350880	-0.071958
H86	H	1.145641	-0.366771	-0.122225
H87	H	1.219544	-0.314170	-0.096096
H88	H	1.228516	-0.387070	-0.055697
H89	H	1.040895	0.041865	0.617062
O90	O	0.789971	-0.040851	0.000045
C91	C	0.806271	0.017235	0.000072
H92	H	0.869082	0.021468	-0.026202
H93	H	0.762950	0.040787	-0.040251
H94	H	0.799963	0.036420	0.066689
H95	H	0.180928	0.034624	0.000115
O96	O	0.787899	-0.158043	0.000034
C97	C	0.725472	-0.115943	0.000054
H98	H	0.748384	-0.075445	-0.026217
H99	H	0.677149	-0.131944	-0.040276
H100	H	0.700403	-0.106396	0.066668
H101	H	0.846391	0.173443	0.617050
O102	O	0.337078	0.035530	0.000074
C103	C	0.292071	-0.013000	0.000107
H104	H	0.232200	-0.002176	-0.026184
H105	H	0.324437	-0.048900	-0.040197
H106	H	0.283184	-0.027168	0.066729
O107	O	0.809274	0.198660	0.217684
C108	C	0.820537	0.256293	0.239033
H109	H	0.882139	0.260235	0.263051
H110	H	0.814042	0.282587	0.181543
H111	H	0.774539	0.272664	0.289767
O112	O	1.041333	0.041546	0.782630
C113	C	1.025723	0.052133	0.869145
H114	H	0.962673	0.070937	0.881086
H115	H	1.033194	0.010496	0.902376
H116	H	1.068679	0.083527	0.893932
H117	H	0.790270	-0.700919	0.000046
O118	O	0.829994	0.184512	0.782358
C119	C	0.785424	0.214667	0.725042
H120	H	0.787703	0.189269	0.662744
H121	H	0.721556	0.221285	0.750305
H122	H	0.810971	0.257832	0.715731
O123	O	0.801034	0.204146	0.390085
C124	C	0.808382	0.199167	0.476603
H125	H	0.870293	0.181139	0.488539
H126	H	0.797738	0.242957	0.509805
H127	H	0.763059	0.169380	0.501426
O128	O	0.551733	0.001751	0.000064
C129	C	0.468723	0.008048	0.000086
H130	H	0.450435	0.050750	-0.026212
H131	H	0.445811	-0.027923	-0.040219
H132	H	0.442800	0.006408	0.066705
H133	H	0.725094	-0.316084	0.000014
O134	O	1.136666	-0.449046	-0.000062
C135	C	1.143834	-0.485975	-0.071964
H136	H	1.105987	-0.467687	-0.122238
H137	H	1.208183	-0.490538	-0.096091
H138	H	1.123128	-0.529561	-0.055707
O139	O	1.069782	-0.171976	-0.000009
C140	C	1.116937	-0.161918	-0.071925
H141	H	1.098470	-0.118526	-0.095902
H142	H	1.181564	-0.162583	-0.055738
H143	H	1.108907	-0.196511	-0.122288
O144	O	0.137636	0.228989	-0.000079
C145	C	0.155132	0.259131	-0.071990
H146	H	0.185712	0.228724	-0.122252
H147	H	0.098103	0.278541	-0.096129
H148	H	0.195727	0.294503	-0.055741
H149	H	0.705059	0.018836	0.000085
O150	O	1.062678	-0.601794	-0.000082
C151	C	1.109364	-0.620803	-0.071982
H152	H	1.069692	-0.636700	-0.122249
H153	H	1.143586	-0.584091	-0.096122
H154	H	1.152567	-0.656989	-0.055716
H155	H	1.060343	-0.058966	0.000124
H156	H	0.669678	0.205481	0.000032
H157	H	0.521379	0.196809	0.000049
H158	H	0.792043	-0.593082	0.000034
