data_functionalizedCrystal
_audit_creation_method	'MofGen! by Chris Wilmer'
_symmetry_space_group_name_H-M	'P1'
_symmetry_Int_Tables_number	1
_symmetry_cell_setting	triclinic
loop_
_symmetry_equiv_pos_as_xyz
  x,y,z
_cell_length_a	12.759401
_cell_length_b	19.077068
_cell_length_c	12.759393
_cell_angle_alpha	92.261180
_cell_angle_beta	89.980163
_cell_angle_gamma	92.328499
loop_
_atom_site_label
_atom_site_type_symbol
_atom_site_fract_x
_atom_site_fract_y
_atom_site_fract_z
Zn1	Zn	1.589362	-0.280130	-0.610770
Zn2	Zn	1.582158	-0.397846	-0.442129
Zn3	Zn	1.413662	-0.280170	-0.435108
Zn4	Zn	1.406558	-0.397794	-0.617763
O5	O	1.497935	-0.338985	-0.526442
O6	O	1.735428	-0.295750	-0.588411
O7	O	1.559765	-0.382274	-0.294179
O8	O	1.442957	-0.181674	-0.452545
O9	O	1.730135	-0.382235	-0.464511
O10	O	1.572044	-0.181644	-0.581603
O11	O	1.435972	-0.295818	-0.289020
O12	O	1.265699	-0.295768	-0.459325
O13	O	1.430849	-0.382148	-0.763854
O14	O	1.260479	-0.382186	-0.593521
O15	O	1.565155	-0.295700	-0.758716
O16	O	1.552876	-0.496330	-0.471292
O17	O	1.423863	-0.496292	-0.600330
C18	C	1.224968	-0.338976	-0.526421
C19	C	1.108191	-0.338990	-0.526438
C20	C	1.050634	-0.384056	-0.596212
C21	C	0.940910	-0.384059	-0.596233
C22	C	0.946309	-0.293926	-0.456696
C23	C	1.056031	-0.293921	-0.456681
C24	C	1.486846	-0.521848	-0.537354
C25	C	1.482198	-0.600078	-0.542058
C26	C	1.547236	-0.636827	-0.477140
C27	C	1.542871	-0.710332	-0.481570
C28	C	1.473461	-0.747087	-0.550913
C29	C	1.408419	-0.710333	-0.615838
C30	C	1.412791	-0.636829	-0.611412
C31	C	1.453183	-0.966920	-0.571352
C32	C	1.448814	-1.040429	-0.575770
C33	C	1.583268	-1.040423	-0.441503
C34	C	1.587629	-0.966918	-0.437079
C35	C	1.522591	-0.930170	-0.502008
N36	N	1.468995	-0.822221	-0.555440
N37	N	1.527063	-0.855037	-0.497485
C38	C	1.771968	-0.338994	-0.526464
C39	C	1.888744	-0.338998	-0.526474
C40	C	1.498013	-0.338914	-0.800472
C41	C	1.498046	-0.338883	-0.917246
C42	C	1.509097	-0.155407	-0.515511
C43	C	1.513853	-0.077178	-0.510852
C44	C	1.433611	-0.293857	-0.969421
C45	C	1.433637	-0.293836	-1.079144
C46	C	1.562541	-0.383868	-1.084508
C47	C	1.562509	-0.383893	-0.974787
C48	C	1.497921	-0.339005	-0.253476
C49	C	1.498104	-0.338837	-0.136690
H50	H	1.102895	-0.257218	-0.399862
H51	H	1.351909	-0.740265	-0.672303
C52	C	1.719499	-0.732743	-0.431975
C53	C	1.614447	-0.750661	-0.410207
H54	H	1.763714	-0.757619	-0.387912
H55	H	1.734096	-0.744764	-0.503291
H56	H	1.731935	-0.683693	-0.419468
H57	H	1.602009	-0.799710	-0.422722
H58	H	1.599845	-0.738644	-0.338875
C59	C	1.720113	-0.974298	-0.304827
C60	C	1.663940	-0.926519	-0.360868
H61	H	1.767228	-0.949355	-0.257783
H62	H	1.672656	-1.003011	-0.266321
H63	H	1.758564	-1.002923	-0.352375
H64	H	1.625482	-0.897897	-0.313321
H65	H	1.711403	-0.897794	-0.399376
C66	C	1.034274	-0.473140	-0.734150
C67	C	1.107970	-0.433587	-0.672898
H68	H	1.069671	-0.503713	-0.781500
H69	H	0.989831	-0.500029	-0.689921
H70	H	0.993351	-0.442499	-0.772583
H71	H	1.148888	-0.464228	-0.634459
H72	H	1.152431	-0.406696	-0.717133
C73	C	1.599854	-0.614270	-0.297922
C74	C	1.623534	-0.596430	-0.400913
H75	H	1.646965	-0.589335	-0.250866
H76	H	1.529995	-0.602269	-0.281768
H77	H	1.606561	-0.663308	-0.291283
H78	H	1.616820	-0.547393	-0.407554
H79	H	1.693411	-0.608427	-0.417072
H80	H	1.400225	-0.937006	-0.624217
C81	C	1.636289	-1.153096	-0.388685
C82	C	1.654772	-1.080817	-0.370155
H83	H	1.680445	-1.178032	-0.344644
H84	H	1.565001	-1.165191	-0.373960
H85	H	1.650904	-1.165084	-0.460018
H86	H	1.640150	-1.068828	-0.298824
H87	H	1.726077	-1.068718	-0.384873
C88	C	0.817000	-0.393958	-0.738146
C89	C	0.877645	-0.433598	-0.672931
H90	H	0.777950	-0.424544	-0.785502
H91	H	0.770233	-0.367129	-0.696606
H92	H	0.861695	-0.363327	-0.776571
H93	H	0.832950	-0.464226	-0.634500
H94	H	0.924417	-0.460440	-0.714475
C95	C	1.424828	-0.199143	-1.196919
C96	C	1.362808	-0.244346	-1.136503
H97	H	1.381094	-0.168595	-1.232334
H98	H	1.472217	-0.172230	-1.152522
H99	H	1.463221	-0.225951	-1.246885
H100	H	1.324420	-0.217539	-1.086531
H101	H	1.315400	-0.271262	-1.180903
H102	H	1.392305	-1.070353	-0.632256
H103	H	1.359831	-0.606909	-0.664276
C104	C	1.306185	-0.204872	-0.975146
C105	C	1.362741	-0.244393	-0.906173
H106	H	1.262425	-0.174339	-0.936098
H107	H	1.353608	-0.177941	-1.016338
H108	H	1.264153	-0.235536	-1.019766
H109	H	1.404780	-0.213729	-0.861557
H110	H	1.315312	-0.271326	-0.864962
C111	C	1.619832	-0.423803	-1.255084
C112	C	1.633405	-0.433335	-1.147760
H113	H	1.663589	-0.454340	-1.294129
H114	H	1.548629	-0.434098	-1.273668
H115	H	1.638092	-0.376508	-1.270242
H116	H	1.615137	-0.480629	-1.132601
H117	H	1.704623	-0.423045	-1.129168
H118	H	0.903827	-0.257234	-0.399902
C119	C	1.689941	-0.472882	-0.991100
C120	C	1.633344	-0.433387	-0.917428
H121	H	1.733671	-0.503434	-0.955686
H122	H	1.642544	-0.499792	-1.035492
H123	H	1.732008	-0.442203	-1.032076
H124	H	1.591271	-0.464067	-0.876457
H125	H	1.680748	-0.406476	-0.873019
