data_functionalizedCrystal
_audit_creation_method	'MofGen! by Chris Wilmer'
_symmetry_space_group_name_H-M	'P1'
_symmetry_Int_Tables_number	1
_symmetry_cell_setting	triclinic
loop_
_symmetry_equiv_pos_as_xyz
  x,y,z
_cell_length_a	19.077105
_cell_length_b	15.297327
_cell_length_c	19.076919
_cell_angle_alpha	101.510342
_cell_angle_beta	90.076224
_cell_angle_gamma	97.818066
loop_
_atom_site_label
_atom_site_type_symbol
_atom_site_fract_x
_atom_site_fract_y
_atom_site_fract_z
Zn1	Zn	0.997096	-0.436205	-0.496821
Zn2	Zn	0.981405	-0.581179	-0.398060
Zn3	Zn	0.886008	-0.424127	-0.373052
Zn4	Zn	0.859303	-0.580636	-0.510742
O5	O	0.930953	-0.505537	-0.444669
O6	O	1.092606	-0.460719	-0.488360
O7	O	0.973359	-0.555519	-0.295787
O8	O	0.918487	-0.299557	-0.373179
O9	O	1.081077	-0.567231	-0.415800
O10	O	1.000103	-0.308431	-0.464111
O11	O	0.903272	-0.440133	-0.277414
O12	O	0.784875	-0.439605	-0.386678
O13	O	0.872972	-0.566304	-0.607851
O14	O	0.765254	-0.554592	-0.487838
O15	O	0.974208	-0.460192	-0.597623
O16	O	0.947464	-0.707279	-0.429299
O17	O	0.857757	-0.706880	-0.512086
C18	C	0.749760	-0.495730	-0.436055
C19	C	0.672241	-0.491557	-0.432390
C20	C	0.625617	-0.549547	-0.483277
C21	C	0.552781	-0.545614	-0.479834
C22	C	0.526571	-0.483695	-0.425502
C23	C	0.573201	-0.425698	-0.374613
C24	C	0.646036	-0.429627	-0.378058
C25	C	0.309833	-0.465511	-0.409558
C26	C	0.236992	-0.461589	-0.406115
C27	C	0.216578	-0.581504	-0.511338
C28	C	0.289415	-0.585431	-0.514776
C29	C	0.336039	-0.527431	-0.463889
N30	N	0.452121	-0.479676	-0.421981
N31	N	0.410488	-0.531447	-0.467414
C32	C	0.898028	-0.739796	-0.474933
C33	C	0.884005	-0.840018	-0.487907
C34	C	1.031451	-1.123247	-0.352197
C35	C	1.044626	-1.029084	-0.340004
C36	C	1.004472	-0.981812	-0.376979
C37	C	0.951141	-1.028714	-0.426149
C38	C	0.937961	-1.122886	-0.438339
C39	C	0.910982	-0.981452	-0.463121
C40	C	0.857651	-1.028353	-0.512291
C41	C	0.844474	-1.122517	-0.524480
C42	C	0.884628	-1.169788	-0.487505
C43	C	0.924162	-0.887280	-0.450930
C44	C	0.830672	-0.886919	-0.537073
C45	C	0.817497	-0.981082	-0.549266
C46	C	1.112853	-0.515383	-0.453317
C47	C	1.190368	-0.519579	-0.457002
C48	C	0.922362	-0.514535	-0.629112
C49	C	0.918700	-0.518369	-0.707711
C50	C	0.964025	-0.270365	-0.414303
C51	C	0.978118	-0.170148	-0.401362
C52	C	0.969686	-0.464926	-0.739314
C53	C	0.966238	-0.468525	-0.813165
C54	C	0.911807	-0.525572	-0.855413
C55	C	0.860816	-0.579017	-0.823806
C56	C	0.864262	-0.575413	-0.749955
C57	C	0.895847	-0.542271	-1.076853
C58	C	0.892406	-0.545873	-1.150709
C59	C	0.997828	-0.435379	-1.140063
C60	C	1.001271	-0.431784	-1.066212
C61	C	0.950279	-0.485225	-1.034610
N62	N	0.908282	-0.529254	-0.930901
N63	N	0.953801	-0.481538	-0.959123
C64	C	0.939560	-0.496511	-0.260936
C65	C	0.943392	-0.492430	-0.182311
H66	H	0.215656	-0.411156	-0.361874
C67	C	0.982827	-0.835695	-0.396850
C68	C	0.979125	-0.844465	-0.317872
C69	C	1.037795	-0.792881	-0.263790
C70	C	1.100167	-0.732526	-0.288686
C71	C	1.103870	-0.723753	-0.367668
C72	C	1.045201	-0.775337	-0.421750
H73	H	0.932952	-0.889145	-0.299439
H74	H	1.035053	-0.799375	-0.205322
H75	H	1.143598	-0.694340	-0.248650
H76	H	1.150044	-0.679073	-0.386100
H77	H	1.047943	-0.768843	-0.480218
H78	H	0.347786	-0.418290	-0.368118
C79	C	0.544372	-0.357586	-0.314845
C80	C	0.464257	-0.353265	-0.311049
C81	C	0.435429	-0.285153	-0.251278
C82	C	0.486717	-0.221363	-0.195304
C83	C	0.566838	-0.225682	-0.199099
C84	C	0.595665	-0.293794	-0.258869
H85	H	0.426286	-0.400488	-0.352486
H86	H	0.376119	-0.281956	-0.248470
H87	H	0.465378	-0.170943	-0.151059
H88	H	0.604808	-0.178459	-0.157662
H89	H	0.654975	-0.296991	-0.261678
C90	C	0.839736	-0.601043	-1.042111
C91	C	0.792836	-0.556507	-0.983711
C92	C	0.736711	-0.615274	-0.948971
C93	C	0.727485	-0.718577	-0.972630
C94	C	0.774385	-0.763119	-1.031033
C95	C	0.830511	-0.704352	-1.065773
H96	H	0.799665	-0.480031	-0.966194
H97	H	0.701992	-0.582301	-0.905737
H98	H	0.685937	-0.762080	-0.946914
H99	H	0.767557	-0.839595	-1.048550
H100	H	0.865229	-0.737325	-1.109007
C101	C	1.075612	-1.175247	-0.311528
C102	C	1.038945	-1.235703	-0.262944
C103	C	1.083107	-1.287706	-0.222271
C104	C	1.163937	-1.279252	-0.230181
C105	C	1.200608	-1.218794	-0.278766
C106	C	1.156446	-1.166791	-0.319440
H107	H	0.979106	-1.241964	-0.257087
H108	H	1.055960	-1.332461	-0.186304
H109	H	1.196629	-1.317748	-0.200072
H110	H	1.260447	-1.212533	-0.284624
H111	H	1.183593	-1.122036	-0.355406
H112	H	0.774074	-1.019283	-0.589301
C113	C	1.029562	-0.402172	-0.692843
C114	C	1.037809	-0.299861	-0.689492
C115	C	1.097685	-0.237103	-0.643023
C116	C	1.149314	-0.276655	-0.599905
C117	C	1.141069	-0.378972	-0.603255
C118	C	1.081193	-0.441730	-0.649724
H119	H	0.999588	-0.270576	-0.721412
H120	H	1.103788	-0.161361	-0.640544
H121	H	1.193638	-0.230198	-0.565506
H122	H	1.179290	-0.408256	-0.571335
H123	H	1.075090	-0.517472	-0.652203
C124	C	0.697327	-0.365837	-0.322083
C125	C	0.701438	-0.263098	-0.314275
C126	C	0.752730	-0.199302	-0.258302
C127	C	0.799911	-0.238245	-0.210137
C128	C	0.795801	-0.340990	-0.217944
C129	C	0.744509	-0.404786	-0.273917
H130	H	0.666511	-0.234265	-0.349931
H131	H	0.755772	-0.123243	-0.252523
H132	H	0.837880	-0.191019	-0.168702
H133	H	0.830728	-0.369822	-0.182288
H134	H	0.741467	-0.480844	-0.279696
C135	C	0.832546	-0.608658	-1.197189
C136	C	0.776468	-0.667465	-1.162435
C137	C	0.716622	-0.730264	-1.208918
C138	C	0.712853	-0.734256	-1.290155
C139	C	0.768932	-0.675447	-1.324914
C140	C	0.828778	-0.612648	-1.278431
H141	H	0.779257	-0.664512	-1.102295
H142	H	0.675109	-0.773799	-1.183187
H143	H	0.668551	-0.780743	-1.324565
H144	H	0.766144	-0.678400	-1.385055
H145	H	0.870292	-0.569114	-1.304162
C146	C	1.103290	-0.977495	-0.285924
C147	C	1.147462	-1.029485	-0.245255
C148	C	1.206131	-0.977895	-0.191174
C149	C	1.220629	-0.874315	-0.177762
C150	C	1.176455	-0.822319	-0.218432
C151	C	1.117786	-0.873909	-0.272513
H152	H	1.136731	-1.106167	-0.255183
H153	H	1.238831	-1.016387	-0.161067
H154	H	1.264059	-0.836125	-0.137728
H155	H	1.187186	-0.745638	-0.208505
H156	H	1.085087	-0.835417	-0.302620
C157	C	0.808183	-0.634207	-0.715188
C158	C	0.761294	-0.589698	-0.656765
C159	C	0.705213	-0.648492	-0.621998
C160	C	0.696020	-0.751795	-0.645653
C161	C	0.742911	-0.796309	-0.704079
C162	C	0.798992	-0.737515	-0.738847
H163	H	0.768097	-0.513223	-0.639251
H164	H	0.670501	-0.615539	-0.578747
H165	H	0.654506	-0.795317	-0.619916
H166	H	0.736108	-0.872784	-0.721593
H167	H	0.833703	-0.770468	-0.782097
C168	C	0.501491	-0.609409	-0.535805
C169	C	0.454316	-0.570467	-0.583976
C170	C	0.403024	-0.634265	-0.639949
C171	C	0.398906	-0.737004	-0.647750
C172	C	0.446083	-0.775951	-0.599577
C173	C	0.497375	-0.712153	-0.543605
H174	H	0.457362	-0.494409	-0.578203
H175	H	0.368101	-0.605433	-0.675609
H176	H	0.360937	-0.784231	-0.689183
H177	H	0.443036	-0.852009	-0.605350
H178	H	0.532298	-0.740985	-0.507944
C179	C	0.785805	-1.174106	-0.578562
C180	C	0.708601	-1.156672	-0.567296
C181	C	0.649932	-1.208258	-0.621378
C182	C	0.668467	-1.277279	-0.686727
C183	C	0.745675	-1.294716	-0.697996
C184	C	0.804344	-1.243130	-0.643914
H185	H	0.694877	-1.105575	-0.518918
H186	H	0.592777	-1.195349	-0.613036
H187	H	0.625036	-1.315466	-0.726762
H188	H	0.759398	-1.345813	-0.746374
H189	H	0.861498	-1.256039	-0.652256
C190	C	1.022325	-0.409734	-0.847923
C191	C	1.101043	-0.420893	-0.842496
C192	C	1.157132	-0.362096	-0.877252
C193	C	1.134503	-0.292140	-0.917435
C194	C	1.055781	-0.280979	-0.922865
C195	C	0.999692	-0.339776	-0.888109
H196	H	1.117798	-0.472680	-0.812748
H197	H	1.215408	-0.370358	-0.873232
H198	H	1.176024	-0.248615	-0.943164
H199	H	1.039026	-0.229191	-0.952613
H200	H	0.941417	-0.331513	-0.892128
H201	H	0.646951	-0.599971	-0.527518
H202	H	1.045597	-0.385332	-1.031818
H203	H	0.310749	-0.635854	-0.559018
H204	H	1.015202	-0.905140	-0.367047
H205	H	0.816495	-0.625463	-0.858210
H206	H	0.178609	-0.628722	-0.552768
H207	H	0.873905	-1.246463	-0.497431
H208	H	0.797974	-0.848431	-0.567180
H209	H	1.039343	-0.391869	-1.165801
