data_functionalizedCrystal
_audit_creation_method	'MofGen! by Chris Wilmer'
_symmetry_space_group_name_H-M	'P1'
_symmetry_Int_Tables_number	1
_symmetry_cell_setting	triclinic
loop_
_symmetry_equiv_pos_as_xyz
  x,y,z
_cell_length_a	6.394989
_cell_length_b	16.109301
_cell_length_c	15.186229
_cell_angle_alpha	90.005167
_cell_angle_beta	90.002838
_cell_angle_gamma	84.979596
loop_
_atom_site_label
_atom_site_type_symbol
_atom_site_fract_x
_atom_site_fract_y
_atom_site_fract_z
O1	O	-2.771399	-0.136204	-0.073223
O2	O	-2.163266	-0.143066	-0.073227
O3	O	-2.484038	-0.018781	-0.073216
O4	O	-2.450626	-0.260489	-0.073234
O5	O	-2.484017	-0.018779	0.073241
O6	O	-2.163244	-0.143064	0.073230
O7	O	-2.771378	-0.136202	0.073234
Zn8	Zn	-2.467308	-0.139632	0.096485
Zn9	Zn	-2.467336	-0.139635	-0.096478
O10	O	-2.450605	-0.260487	0.073223
C11	C	-2.482674	0.012210	0.000013
C12	C	-2.478617	0.104548	0.000014
C13	C	-2.451969	-0.291477	-0.000008
C14	C	-2.456027	-0.383815	-0.000015
N15	N	-2.467304	-0.139630	0.228178
C16	C	-2.085435	-0.141708	0.000006
C17	C	-1.849203	-0.137562	0.000010
N18	N	-2.467356	-0.139631	-0.228171
C19	C	-2.659522	0.324905	0.000001
C20	C	-2.655693	0.411666	-0.000006
C21	C	-2.275107	0.395821	-0.000005
C22	C	-2.278938	0.309061	-0.000004
C23	C	-2.471152	0.273606	0.000004
C24	C	-2.463492	0.447126	-0.000005
C25	C	-2.459339	0.541196	-0.000012
C26	C	-2.475306	0.179530	0.000010
C27	C	-2.609390	-0.084616	0.453906
C28	C	-2.609397	-0.084614	0.546095
C29	C	-2.325255	-0.194647	0.546095
C30	C	-2.325240	-0.194644	0.453907
C31	C	-2.467319	-0.139630	0.407815
C32	C	-2.467341	-0.139631	0.592192
C33	C	-2.467347	-0.139629	0.692148
C34	C	-2.467311	-0.139630	0.307852
H35	H	-2.809083	0.453431	-0.000010
H36	H	-2.209580	-0.239440	0.583632
H37	H	-2.118613	0.424699	-0.000009
C38	C	-2.765657	-0.024096	0.403204
C39	C	-2.921922	0.036422	0.453908
C40	C	-3.078189	0.096946	0.403210
C41	C	-3.078191	0.096954	0.301807
C42	C	-2.921920	0.036434	0.251096
C43	C	-2.765653	-0.024091	0.301795
H44	H	-2.921926	0.036418	0.528978
H45	H	-3.193871	0.141747	0.440750
H46	H	-3.193869	0.141758	0.264277
H47	H	-2.921916	0.036438	0.176027
H48	H	-2.649971	-0.068891	0.264255
C49	C	-2.168954	-0.255164	0.403198
C50	C	-2.012748	-0.315710	0.453892
C51	C	-1.856465	-0.376223	0.403183
C52	C	-1.856388	-0.376190	0.301779
C53	C	-2.012599	-0.315642	0.251080
C54	C	-2.168883	-0.255129	0.301789
H55	H	-2.012800	-0.315736	0.528962
H56	H	-1.740827	-0.421045	0.440714
H57	H	-1.740697	-0.420986	0.264241
H58	H	-2.012547	-0.315616	0.176010
H59	H	-2.284521	-0.210307	0.264258
H60	H	-2.816034	0.296041	0.000006
H61	H	-2.125535	0.267291	-0.000005
H62	H	-2.725081	-0.039816	0.583620
