data_functionalizedCrystal
_audit_creation_method	'MofGen! by Chris Wilmer'
_symmetry_space_group_name_H-M	'P1'
_symmetry_Int_Tables_number	1
_symmetry_cell_setting	triclinic
loop_
_symmetry_equiv_pos_as_xyz
  x,y,z
_cell_length_a	12.759395
_cell_length_b	16.120444
_cell_length_c	12.759387
_cell_angle_alpha	92.863078
_cell_angle_beta	89.982262
_cell_angle_gamma	92.926266
loop_
_atom_site_label
_atom_site_type_symbol
_atom_site_fract_x
_atom_site_fract_y
_atom_site_fract_z
Zn1	Zn	1.584960	-0.331857	-0.615144
Zn2	Zn	1.575909	-0.471296	-0.448359
Zn3	Zn	1.409260	-0.331901	-0.439487
Zn4	Zn	1.400308	-0.471230	-0.623997
O5	O	1.492609	-0.401571	-0.531747
O6	O	1.730780	-0.350363	-0.593028
O7	O	1.553762	-0.452851	-0.300164
O8	O	1.440101	-0.215230	-0.455370
O9	O	1.724130	-0.452809	-0.470492
O10	O	1.569187	-0.215197	-0.584424
O11	O	1.431325	-0.350438	-0.293646
O12	O	1.261052	-0.350374	-0.463955
O13	O	1.424844	-0.452696	-0.769841
O14	O	1.254475	-0.452739	-0.599514
O15	O	1.560506	-0.350299	-0.763337
O16	O	1.545081	-0.587953	-0.479076
O17	O	1.416068	-0.587904	-0.608117
C18	C	1.219643	-0.401555	-0.531733
C19	C	1.102865	-0.401568	-0.531753
C20	C	1.109759	-0.295063	-0.659578
C21	C	1.058344	-0.241821	-0.723500
C22	C	0.948622	-0.241836	-0.723514
C23	C	0.890311	-0.295097	-0.659597
C24	C	0.941726	-0.348339	-0.595675
C25	C	1.051451	-0.348320	-0.595671
C26	C	0.934832	-0.454838	-0.467846
C27	C	1.044555	-0.454828	-0.467836
C28	C	0.876522	-0.508098	-0.403930
C29	C	0.927936	-0.561346	-0.340012
C30	C	1.037665	-0.561329	-0.340002
C31	C	1.095969	-0.508070	-0.403915
C32	C	1.478650	-0.618179	-0.545543
C33	C	1.472774	-0.710845	-0.551480
C34	C	1.523348	-0.921790	-0.501174
C35	C	1.462065	-0.880501	-0.562331
C36	C	1.468025	-0.786095	-0.556292
C37	C	1.517389	-1.016204	-0.507212
C38	C	1.766641	-0.401588	-0.531762
C39	C	1.883418	-0.401596	-0.531768
C40	C	1.492686	-0.401485	-0.805775
C41	C	1.492719	-0.401448	-0.922549
C42	C	1.506652	-0.184117	-0.517920
C43	C	1.512636	-0.091452	-0.512028
C44	C	1.365235	-0.294798	-0.915780
C45	C	1.301513	-0.241457	-0.967255
C46	C	1.301547	-0.241427	-1.076975
C47	C	1.365306	-0.294746	-1.135223
C48	C	1.429028	-0.348087	-1.083748
C49	C	1.428990	-0.348110	-0.974025
C50	C	1.556505	-0.454740	-1.090517
C51	C	1.556478	-0.454767	-0.980797
C52	C	1.620264	-0.508059	-1.148765
C53	C	1.683993	-0.561398	-1.097289
C54	C	1.683958	-0.561425	-0.987563
C55	C	1.620200	-0.508109	-0.929322
C56	C	1.492597	-0.401597	-0.258781
C57	C	1.492783	-0.401398	-0.141992
H58	H	1.185312	-0.508048	-0.403907
O59	O	1.598766	-0.874702	-0.425812
H60	H	1.642748	-0.919510	-0.381941
O61	O	0.893166	-0.184405	-0.792450
H62	H	0.807074	-0.193361	-0.781710
O63	O	1.752746	-0.618909	-1.160109
H64	H	1.836123	-0.604635	-1.138148
H65	H	1.405123	-0.916052	-0.619225
O66	O	1.752696	-0.618951	-0.932042
H67	H	1.797040	-0.656012	-0.990981
H68	H	0.787180	-0.508104	-0.403943
H69	H	1.365210	-0.294811	-0.826440
O70	O	0.771967	-0.295109	-0.659598
H71	H	0.746012	-0.249139	-0.714783
O72	O	1.232756	-0.183947	-0.904426
H73	H	1.149379	-0.198229	-0.926381
H74	H	0.880451	-0.604703	-0.287972
H75	H	1.620169	-0.508123	-0.839982
O76	O	1.232826	-0.183893	-1.132506
H77	H	1.188489	-0.146818	-1.073575
O78	O	1.365384	-0.294724	-1.253564
H79	H	1.285075	-0.311554	-1.283600
O80	O	1.228103	-0.295049	-0.659560
H81	H	1.260012	-0.249067	-0.714735
O82	O	1.121233	-0.184374	-0.792434
H83	H	1.168837	-0.221732	-0.848188
O84	O	1.093120	-0.618754	-0.271055
H85	H	1.034136	-0.655790	-0.226621
O86	O	1.620345	-0.508032	-1.267106
H87	H	1.540035	-0.524855	-1.297146
