data_functionalizedCrystal
_audit_creation_method	'MofGen! by Chris Wilmer'
_symmetry_space_group_name_H-M	'P1'
_symmetry_Int_Tables_number	1
_symmetry_cell_setting	triclinic
loop_
_symmetry_equiv_pos_as_xyz
  x,y,z
_cell_length_a	10.654550
_cell_length_b	16.109304
_cell_length_c	9.730223
_cell_angle_alpha	90.001479
_cell_angle_beta	89.996251
_cell_angle_gamma	83.973770
loop_
_atom_site_label
_atom_site_type_symbol
_atom_site_fract_x
_atom_site_fract_y
_atom_site_fract_z
O1	O	1.666252	0.116770	-0.114393
O2	O	1.300622	0.127896	-0.114371
O3	O	1.493479	0.001362	-0.114383
O4	O	1.473395	0.243304	-0.114381
O5	O	1.493477	0.001365	0.114197
O6	O	1.300620	0.127899	0.114209
O7	O	1.666249	0.116773	0.114186
Zn8	Zn	1.483434	0.122337	0.150490
Zn9	Zn	1.483437	0.122332	-0.150674
O10	O	1.473392	0.243307	0.114199
C11	C	1.253834	0.127080	-0.000078
C12	C	1.114424	0.124636	-0.000069
C13	C	1.033929	0.199137	-0.000088
C14	C	0.902939	0.196836	-0.000112
C15	C	0.932953	0.045526	-0.000103
C16	C	1.063940	0.047828	-0.000070
C17	C	1.016600	0.286495	-0.000100
C18	C	0.885610	0.284194	-0.000123
C19	C	1.492664	-0.029616	-0.000096
C20	C	1.490223	-0.121926	-0.000106
C21	C	1.484585	-0.334299	-0.124699
C22	C	1.482280	-0.421033	-0.124698
C23	C	1.482283	-0.421026	0.124513
C24	C	1.484580	-0.334293	0.124510
C25	C	1.485737	-0.290932	-0.000100
C26	C	1.481135	-0.464399	-0.000096
C27	C	1.478636	-0.558440	-0.000093
C28	C	1.488234	-0.196885	-0.000103
C29	C	1.713037	0.117589	-0.000109
C30	C	1.852448	0.120033	-0.000127
C31	C	1.474208	0.274285	-0.000091
C32	C	1.476649	0.366595	-0.000090
N33	N	1.483442	0.122339	0.356026
N34	N	1.483440	0.122323	-0.356210
C35	C	1.568860	0.066329	0.427947
C36	C	1.568857	0.066319	0.571830
C37	C	1.398012	0.178336	0.571859
C38	C	1.398011	0.178342	0.427979
C39	C	1.667500	0.001659	0.427931
C40	C	1.667497	0.001649	0.571814
H41	H	1.045467	0.320662	0.095567
H42	H	1.051879	0.314310	-0.098787
H43	H	1.129476	-0.012838	-0.000034
H44	H	0.839580	0.310596	0.098561
Cl45	Cl	1.621641	-0.091579	0.640711
H46	H	1.763815	0.015894	0.610859
Cl47	Cl	1.480829	-0.475547	-0.281344
H48	H	0.891833	-0.017009	-0.000125
H49	H	1.485523	-0.298997	-0.226165
Cl50	Cl	1.807847	0.032932	0.359011
H51	H	0.843432	0.317108	-0.095791
Cl52	Cl	1.480830	-0.475543	0.281156
H53	H	1.485510	-0.298982	0.225979
H54	H	1.328445	0.223942	0.369423
H55	H	1.328456	0.223931	0.630458
H56	H	1.646923	-0.062244	0.388878
