data_functionalizedCrystal
_audit_creation_method	'MofGen! by Chris Wilmer'
_symmetry_space_group_name_H-M	'P1'
_symmetry_Int_Tables_number	1
_symmetry_cell_setting	triclinic
loop_
_symmetry_equiv_pos_as_xyz
  x,y,z
_cell_length_a	19.188930
_cell_length_b	27.732025
_cell_length_c	18.266242
_cell_angle_alpha	90.008162
_cell_angle_beta	89.977082
_cell_angle_gamma	82.889129
loop_
_atom_site_label
_atom_site_type_symbol
_atom_site_fract_x
_atom_site_fract_y
_atom_site_fract_z
O1	O	0.925757	0.060349	-0.061093
O2	O	0.722393	0.068472	-0.061040
O3	O	0.830400	-0.005968	-0.061090
O4	O	0.817751	0.134789	-0.061042
O5	O	0.830381	-0.005971	0.060672
O6	O	0.722375	0.068469	0.060722
O7	O	0.925739	0.060345	0.060669
Zn8	Zn	0.824054	0.064406	0.080028
Zn9	Zn	0.824078	0.064411	-0.080399
O10	O	0.817733	0.134785	0.060720
C11	C	0.696375	0.068207	-0.000152
C12	C	0.618876	0.067418	-0.000133
C13	C	0.830127	-0.023977	-0.000216
C14	C	0.829335	-0.077635	-0.000238
C15	C	0.573668	0.111097	-0.000130
C16	C	0.500849	0.110355	-0.000138
C17	C	0.473241	0.065931	-0.000165
C18	C	0.518458	0.022247	-0.000164
C19	C	0.591276	0.022990	-0.000148
N20	N	0.365487	0.031977	-0.041647
N21	N	0.296313	0.031274	-0.041663
C22	C	0.253847	0.063690	-0.000210
N23	N	0.283166	0.096843	0.041251
N24	N	0.352346	0.097547	0.041264
C25	C	0.394284	0.065121	-0.000181
C26	C	0.129680	0.106567	-0.000215
C27	C	0.056860	0.105823	-0.000218
C28	C	0.074471	0.017714	-0.000251
C29	C	0.147289	0.018459	-0.000240
C30	C	0.174889	0.062887	-0.000225
C31	C	0.823717	-0.460816	-0.066566
C32	C	0.826681	-0.259148	-0.066591
O33	O	0.827101	-0.233077	-0.123040
N34	N	0.827042	-0.233927	-0.000220
C35	C	0.826666	-0.259128	0.066161
O36	O	0.827048	-0.233049	0.122613
C37	C	0.823707	-0.460796	0.066185
C38	C	0.823339	-0.486013	-0.000190
C39	C	0.823350	-0.486033	-0.132936
C40	C	0.822605	-0.536447	-0.132929
C41	C	0.822227	-0.561644	-0.066553
C42	C	0.822594	-0.536426	-0.000183
C43	C	0.823336	-0.485996	0.132565
C44	C	0.822598	-0.536416	0.132565
C45	C	0.822230	-0.561633	0.066190
C46	C	0.821471	-0.612037	0.066199
N47	N	0.821110	-0.637257	-0.000171
C48	C	0.821488	-0.612060	-0.066547
C49	C	0.828219	-0.153249	0.066144
C50	C	0.828957	-0.102832	0.066138
C51	C	0.828974	-0.102856	-0.066614
C52	C	0.828230	-0.153273	-0.066607
C53	C	0.827858	-0.178469	-0.000226
C54	C	0.819923	-0.717933	-0.066528
C55	C	0.819175	-0.768351	-0.066515
C56	C	0.819162	-0.768323	0.066236
C57	C	0.819907	-0.717909	0.066224
C58	C	0.820289	-0.692716	-0.000164
O59	O	0.821059	-0.638139	0.122619
O60	O	0.821122	-0.638149	-0.122990
C61	C	0.824462	-0.410402	-0.066573
C62	C	0.824829	-0.385185	-0.000204
C63	C	0.824451	-0.410382	0.066172
C64	C	0.825567	-0.334768	-0.000209
C65	C	0.825945	-0.309572	-0.066585
C66	C	0.825585	-0.334792	-0.132956
C67	C	0.824840	-0.385206	-0.132949
C68	C	0.824811	-0.385161	0.132543
C69	C	0.825556	-0.334748	0.132531
C70	C	0.825934	-0.309551	0.066155
C71	C	0.951758	0.060610	-0.000220
C72	C	1.029257	0.061400	-0.000244
C73	C	0.818005	0.152795	-0.000156
C74	C	0.818797	0.206453	-0.000139
N75	N	0.824043	0.064402	0.189515
N76	N	0.824095	0.064411	-0.189886
C77	C	0.871884	0.031456	0.227801
C78	C	0.871888	0.031454	0.304446
C79	C	0.824059	0.064406	0.342802
C80	C	0.776209	0.097355	0.304506
C81	C	0.776201	0.097353	0.227863
N82	N	0.814705	0.107197	0.463150
N83	N	0.814717	0.107197	0.535958
C84	C	0.824078	0.064413	0.573724
N85	N	0.833441	0.021628	0.535932
N86	N	0.833433	0.021628	0.463117
C87	C	0.824061	0.064412	0.425909
C88	C	0.871926	0.031462	0.695118
C89	C	0.871926	0.031459	0.771764
C90	C	0.776250	0.097364	0.771823
C91	C	0.776247	0.097363	0.695178
C92	C	0.824089	0.064412	0.656830
H93	H	0.596134	0.147273	-0.000119
H94	H	0.464034	0.145925	-0.000133
F95	F	0.725332	0.132430	0.654427
F96	F	0.922798	-0.003613	0.186991
H97	H	0.824506	-0.405672	0.186595
H98	H	0.910880	0.004630	0.663894
F99	F	0.922843	-0.003611	0.812513
F100	F	0.489075	-0.025032	-0.000188
F101	F	0.829367	-0.076030	-0.137256
F102	F	0.725342	0.132431	0.812640
H103	H	0.051994	-0.018457	-0.000318
F104	F	0.195405	-0.028031	-0.000248
H105	H	0.628085	-0.012580	-0.000151
F106	F	0.824449	-0.412037	-0.203595
F107	F	0.818782	-0.795186	-0.137163
H108	H	0.825887	-0.314268	-0.187002
H109	H	0.152153	0.142743	-0.000192
H110	H	0.020052	0.141394	-0.000212
F111	F	0.922809	-0.003613	0.345200
F112	F	0.820330	-0.691127	-0.137185
H113	H	0.822310	-0.556975	-0.186978
H114	H	0.737243	0.124182	0.196689
H115	H	0.737264	0.124184	0.335739
H116	H	0.823660	-0.465524	-0.186990
F117	F	0.827840	-0.180106	-0.137251
H118	H	0.829243	-0.082303	0.120187
F119	F	0.827820	-0.180058	0.136800
H120	H	0.823643	-0.465473	0.186615
H121	H	0.822295	-0.556928	0.186622
H122	H	0.820178	-0.697374	0.120272
H123	H	0.818852	-0.788847	0.120278
H124	H	0.825848	-0.314220	0.186585
