data_functionalizedCrystal
_audit_creation_method	'MofGen! by Chris Wilmer'
_symmetry_space_group_name_H-M	'P1'
_symmetry_Int_Tables_number	1
_symmetry_cell_setting	triclinic
loop_
_symmetry_equiv_pos_as_xyz
  x,y,z
_cell_length_a	10.686154
_cell_length_b	19.805405
_cell_length_c	19.805399
_cell_angle_alpha	90.027486
_cell_angle_beta	85.649771
_cell_angle_gamma	94.406894
loop_
_atom_site_label
_atom_site_type_symbol
_atom_site_fract_x
_atom_site_fract_y
_atom_site_fract_z
Zn1	Zn	-1.929009	0.190043	-0.303456
Zn2	Zn	-1.928845	0.303238	-0.190275
Zn3	Zn	-1.718001	0.198751	-0.198951
Zn4	Zn	-1.717929	0.311887	-0.312088
O5	O	-1.823446	0.250980	-0.251193
O6	O	-2.105564	0.197794	-0.281199
O7	O	-1.900838	0.289402	-0.096711
O8	O	-1.746091	0.102875	-0.212832
O9	O	-2.105444	0.280958	-0.198045
O10	O	-1.901117	0.096477	-0.289612
O11	O	-1.745932	0.212636	-0.103085
O12	O	-1.541415	0.221023	-0.221203
O13	O	-1.745967	0.295700	-0.405658
O14	O	-1.541362	0.304144	-0.304324
O15	O	-1.901047	0.206181	-0.399316
O16	O	-1.900768	0.399106	-0.206415
O17	O	-1.745808	0.405461	-0.295911
C18	C	-1.495604	0.264467	-0.264642
C19	C	-1.355352	0.270253	-0.270412
C20	C	-1.823296	0.426842	-0.251172
C21	C	-1.823348	0.502072	-0.251180
C22	C	-1.152568	0.237433	-0.237687
C23	C	-1.292820	0.231644	-0.231920
C24	C	-1.904112	0.534081	-0.204623
C25	C	-1.904163	0.604768	-0.204638
C26	C	-1.823442	0.643443	-0.251208
C27	C	-1.742674	0.611429	-0.297770
C28	C	-1.742631	0.540744	-0.297758
C29	C	-1.742848	0.896495	-0.297822
C30	C	-1.742895	0.967185	-0.297830
C31	C	-1.904380	0.960519	-0.204703
C32	C	-1.904337	0.889834	-0.204690
C33	C	-1.823574	0.857825	-0.251255
C34	C	-1.823522	0.781179	-0.251238
C35	C	-1.823487	0.720089	-0.251222
C36	C	-1.823517	0.250934	-0.427732
C37	C	-1.823547	0.250915	-0.502963
C38	C	-1.823620	1.074430	-0.251236
C39	C	-1.823666	0.999196	-0.251275
C40	C	-1.904299	0.204300	-0.535006
C41	C	-1.904312	0.204280	-0.605694
C42	C	-1.823578	0.250878	-0.644338
C43	C	-1.742818	0.297495	-0.612290
C44	C	-1.742799	0.297511	-0.541604
C45	C	-1.742889	0.297429	-0.897361
C46	C	-1.742916	0.297410	-0.968052
C47	C	-1.904401	0.204197	-0.961451
C48	C	-1.904383	0.204214	-0.890765
C49	C	-1.823618	0.250828	-0.858724
C50	C	-1.823603	0.250849	-0.782076
C51	C	-1.823598	0.250861	-0.720984
C52	C	-1.823448	0.250973	-0.075337
C53	C	-1.823662	0.250792	-0.000096
H54	H	-1.346582	0.194163	-0.194551
O55	O	-1.655736	0.347752	-0.653971
H56	H	-1.599571	0.380164	-0.619812
O57	O	-1.991195	0.492367	-0.154403
H58	H	-1.934754	0.462533	-0.122245
H59	H	-1.301584	0.307742	-0.307779
O60	O	-1.991387	0.154044	-0.493329
H61	H	-1.934944	0.121940	-0.463439
H62	H	-1.677030	0.335464	-0.515516
H63	H	-1.970071	0.166323	-0.631780
H64	H	-1.970160	0.166240	-0.987548
H65	H	-1.969928	0.630826	-0.166726
H66	H	-1.677168	0.335358	-0.999514
H67	H	-1.970063	0.858346	-0.166767
H68	H	-1.677144	0.335394	-0.871281
O69	O	-1.991529	0.995039	-0.154495
H70	H	-1.978023	1.050688	-0.162333
O71	O	-1.655838	1.008904	-0.348065
H72	H	-1.599680	0.974772	-0.380448
H73	H	-1.970129	0.166271	-0.859304
H74	H	-1.677086	0.870440	-0.335735
H75	H	-1.676955	0.642924	-0.335691
H76	H	-1.676866	0.514682	-0.335670
