data_functionalizedCrystal
_audit_creation_method	'MofGen! by Chris Wilmer'
_symmetry_space_group_name_H-M	'P1'
_symmetry_Int_Tables_number	1
_symmetry_cell_setting	triclinic
loop_
_symmetry_equiv_pos_as_xyz
  x,y,z
_cell_length_a	12.645331
_cell_length_b	12.645330
_cell_length_c	12.645323
_cell_angle_alpha	90.024870
_cell_angle_beta	90.022676
_cell_angle_gamma	90.016671
loop_
_atom_site_label
_atom_site_type_symbol
_atom_site_fract_x
_atom_site_fract_y
_atom_site_fract_z
Zn1	Zn	1.620731	-0.422060	0.599446
Zn2	Zn	1.620613	-0.599348	0.422186
Zn3	Zn	1.443446	-0.422096	0.422191
Zn4	Zn	1.443428	-0.599279	0.599402
O5	O	1.532054	-0.510695	0.510806
O6	O	1.769063	-0.445591	0.575949
O7	O	1.597069	-0.575879	0.273840
O8	O	1.467020	-0.273744	0.445724
O9	O	1.768976	-0.575844	0.445717
O10	O	1.597271	-0.273717	0.575953
O11	O	1.466906	-0.445653	0.273843
O12	O	1.295096	-0.445585	0.445681
O13	O	1.466989	-0.575726	0.747755
O14	O	1.295083	-0.575761	0.575877
O15	O	1.597253	-0.445524	0.747788
O16	O	1.597052	-0.747686	0.445674
O17	O	1.466874	-0.747635	0.575873
C18	C	1.256625	-0.510670	0.510776
C19	C	1.138795	-0.510685	0.510788
C20	C	1.531977	-0.786125	0.510791
C21	C	1.532041	-0.903955	0.510821
C22	C	1.450484	-1.071531	0.592982
C23	C	1.450067	-0.948972	0.592717
C24	C	1.501796	-0.948549	0.399099
C25	C	1.501298	-1.071147	0.399597
C26	C	1.644342	-1.071047	0.539475
C27	C	1.643654	-0.948440	0.541918
C28	C	0.971204	-0.428415	0.429333
C29	C	1.093763	-0.428628	0.428974
C30	C	1.094274	-0.622359	0.480273
C31	C	0.971676	-0.621910	0.479717
C32	C	0.971645	-0.482344	0.623072
C33	C	1.094251	-0.479849	0.622448
C34	C	1.808560	-0.510722	0.510838
C35	C	1.926390	-0.510733	0.510851
C36	C	1.532132	-0.510614	0.787312
C37	C	1.532166	-0.510579	0.905142
C38	C	1.532161	-0.234190	0.510844
C39	C	1.532206	-0.116360	0.510861
C40	C	1.532038	-0.510701	0.235377
C41	C	1.532210	-0.510437	0.117547
C42	C	1.449964	-0.592103	1.072685
C43	C	1.450179	-0.592506	0.950125
C44	C	1.643865	-0.540899	0.949662
C45	C	1.643414	-0.541410	1.072260
C46	C	1.503724	-0.398278	1.072340
C47	C	1.501232	-0.398951	0.949733
H48	H	1.468990	-0.918818	0.675558
N49	N	1.727349	-0.466063	1.111584
H50	H	1.764481	-0.432666	1.049275
H51	H	1.780387	-0.506102	1.155877
N52	N	1.394338	-0.908021	0.366412
H53	H	1.375580	-0.937157	0.294427
H54	H	1.395862	-0.828228	0.363331
H55	H	1.468585	-0.674731	1.103504
H56	H	1.123444	-0.685331	0.537783
N57	N	1.392719	-1.109166	0.367501
H58	H	1.398458	-1.153694	0.301426
H59	H	1.345685	-1.046232	0.353217
H60	H	1.469234	-1.100944	0.676094
N61	N	1.574785	-0.314090	0.909179
H62	H	1.611360	-0.278765	0.970809
H63	H	1.532766	-0.259768	0.868429
H64	H	1.706788	-0.483299	0.920526
N65	N	1.676397	-0.648370	0.909026
H66	H	1.748369	-0.667176	0.938114
H67	H	1.679448	-0.646835	0.829232
H68	H	1.423691	-0.370640	1.103244
N69	N	1.340465	-0.567339	0.910267
H70	H	1.289094	-0.622339	0.937000
H71	H	1.340473	-0.567525	0.830399
H72	H	1.366935	-0.919736	0.573760
N73	N	0.930787	-0.376339	0.659843
H74	H	0.890229	-0.385559	0.728011
H75	H	0.882544	-0.345677	0.604065
H76	H	1.671932	-1.101891	0.619558
N77	N	1.339912	-0.567202	1.111694
H78	H	1.342296	-0.502745	1.158831
H79	H	1.311647	-0.629417	1.153012
N80	N	1.341050	-1.112452	0.568200
H81	H	1.344181	-1.159903	0.504009
H82	H	1.292367	-1.050889	0.553472
N83	N	1.673879	-0.909831	0.650828
H84	H	1.615525	-0.863714	0.679909
H85	H	1.741486	-0.867539	0.646271
N86	N	1.392352	-0.368649	0.911188
H87	H	1.363177	-0.426977	0.865032
H88	H	1.396991	-0.301040	0.868951
N89	N	0.930141	-0.453079	0.319922
H90	H	0.991541	-0.467799	0.271030
H91	H	0.888562	-0.390680	0.292455
N92	N	1.583068	-0.317678	1.110764
H93	H	1.637207	-0.353580	1.157227
H94	H	1.545358	-0.261094	1.152653
N95	N	0.932387	-0.705911	0.554911
H96	H	0.888034	-0.671958	0.611992
H97	H	0.994764	-0.743047	0.588200
N98	N	1.724992	-1.109442	0.460250
H99	H	1.727706	-1.189256	0.461496
H100	H	1.796830	-1.080006	0.479077
N101	N	0.933720	-0.653796	0.371051
H102	H	0.996629	-0.668010	0.323960
H103	H	0.889861	-0.594806	0.339853
N104	N	1.134851	-0.654804	0.372762
H105	H	1.176492	-0.722632	0.379320
H106	H	1.182022	-0.597273	0.343724
N107	N	1.576712	-1.110444	0.315786
H108	H	1.610129	-1.048123	0.278677
H109	H	1.536722	-1.154797	0.262708
N110	N	1.578133	-0.909935	0.315827
H111	H	1.633188	-0.863049	0.349805
H112	H	1.538277	-0.868445	0.260439
H113	H	1.707747	-0.917790	0.486462
H114	H	1.667560	-0.623400	1.100871
H115	H	1.123355	-0.397670	0.645458
N116	N	1.134845	-0.553474	0.707212
H117	H	1.214589	-0.549761	0.709830
H118	H	1.112147	-0.628228	0.690542
N119	N	1.133646	-0.318937	0.454299
H120	H	1.071586	-0.270010	0.465796
H121	H	1.177866	-0.292054	0.393488
N122	N	0.933266	-0.561741	0.703549
H123	H	0.958031	-0.634798	0.682846
H124	H	0.853454	-0.560438	0.706197
N125	N	0.932165	-0.318392	0.454379
H126	H	0.961838	-0.266803	0.401136
H127	H	0.956132	-0.297704	0.527725
H128	H	1.123041	-0.447391	0.345814
H129	H	1.468983	-0.675654	0.920811
