data_functionalizedCrystal
_audit_creation_method	'MofGen! by Chris Wilmer'
_symmetry_space_group_name_H-M	'P1'
_symmetry_Int_Tables_number	1
_symmetry_cell_setting	triclinic
loop_
_symmetry_equiv_pos_as_xyz
  x,y,z
_cell_length_a	10.654545
_cell_length_b	27.731996
_cell_length_c	9.130313
_cell_angle_alpha	89.989531
_cell_angle_beta	89.996934
_cell_angle_gamma	83.552233
loop_
_atom_site_label
_atom_site_type_symbol
_atom_site_fract_x
_atom_site_fract_y
_atom_site_fract_z
O1	O	1.664956	0.067877	-0.121806
O2	O	1.299202	0.074347	-0.121814
O3	O	1.493473	0.000784	-0.121778
O4	O	1.470686	0.141440	-0.121842
O5	O	1.493460	0.000782	0.121821
O6	O	1.299189	0.074345	0.121784
O7	O	1.664943	0.067875	0.121793
Cu8	Cu	1.482065	0.071110	0.144031
Cu9	Cu	1.482080	0.071112	-0.144053
O10	O	1.470672	0.141438	0.121757
C11	C	1.252418	0.073872	-0.000015
C12	C	1.113034	0.072452	-0.000017
C13	C	1.047551	0.071782	0.132770
C14	C	0.916589	0.070440	0.132770
C15	C	0.916604	0.070439	-0.132814
C16	C	1.047565	0.071778	-0.132814
C17	C	1.492998	-0.017227	0.000026
C18	C	1.491588	-0.070892	0.000041
C19	C	1.482725	-0.403662	-0.132816
C20	C	1.477371	-0.605354	-0.132842
O21	O	1.476630	-0.631428	-0.245772
N22	N	1.476698	-0.630576	-0.000058
C23	C	1.477357	-0.605372	0.132742
O24	O	1.476649	-0.631453	0.245683
C25	C	1.482702	-0.403681	0.132767
C26	C	1.483387	-0.378462	-0.000026
C27	C	1.483408	-0.378443	-0.265599
C28	C	1.484753	-0.328023	-0.265591
C29	C	1.485415	-0.302823	-0.132801
C30	C	1.484732	-0.328042	-0.000019
C31	C	1.483351	-0.378478	0.265566
C32	C	1.484684	-0.328052	0.265560
C33	C	1.485369	-0.302833	0.132767
C34	C	1.486739	-0.252423	0.132779
N35	N	1.487411	-0.227200	-0.000005
C36	C	1.486749	-0.252401	-0.132795
C37	C	1.474553	-0.711263	0.132720
C38	C	1.473219	-0.761686	0.132715
C39	C	1.473231	-0.761664	-0.132871
C40	C	1.474574	-0.711241	-0.132864
C41	C	1.475225	-0.686041	-0.000064
C42	C	1.489576	-0.146516	-0.132769
C43	C	1.490926	-0.096092	-0.132749
C44	C	1.490908	-0.096118	0.132835
C45	C	1.489564	-0.146538	0.132817
C46	C	1.488894	-0.171735	0.000003
O47	O	1.487466	-0.226317	0.245650
O48	O	1.487429	-0.226310	-0.245719
C49	C	1.481379	-0.454082	-0.132824
C50	C	1.480696	-0.479301	-0.000042
C51	C	1.481358	-0.454101	0.132748
C52	C	1.479362	-0.529724	-0.000048
C53	C	1.478700	-0.554924	-0.132838
C54	C	1.479372	-0.529702	-0.265622
C55	C	1.480717	-0.479282	-0.265614
C56	C	1.480686	-0.479323	0.265533
C57	C	1.479342	-0.529743	0.265514
C58	C	1.478680	-0.554943	0.132724
C59	C	1.711728	0.068351	-0.000009
C60	C	1.851111	0.069771	-0.000017
C61	C	1.471147	0.159449	-0.000051
C62	C	1.472557	0.213114	-0.000076
N63	N	1.482063	0.071108	0.346654
N64	N	1.482092	0.071111	-0.346675
C65	C	1.568115	0.038548	0.423322
C66	C	1.568127	0.038548	0.576658
C67	C	1.396032	0.103672	0.576646
C68	C	1.396015	0.103669	0.423312
H69	H	0.863278	0.069895	0.240899
O70	O	0.853092	0.069706	-0.261846
C71	C	0.900177	0.028254	-0.342633
H72	H	0.946694	-0.000588	-0.264926
H73	H	0.819109	0.013352	-0.402868
H74	H	0.972798	0.038479	-0.425429
H75	H	1.325935	0.130183	0.360885
O76	O	1.111298	0.072495	-0.261718
C77	C	1.171965	0.115062	-0.269699
H78	H	1.186551	0.129194	-0.154412
H79	H	1.267451	0.106604	-0.325888
H80	H	1.110954	0.143807	-0.335249
O81	O	1.651669	0.006854	0.650971
C82	C	1.632200	-0.041068	0.613564
H83	H	1.583786	-0.041182	0.502243
H84	H	1.727065	-0.064532	0.608313
H85	H	1.570008	-0.056240	0.699884
H86	H	1.485196	-0.307536	0.373704
O87	O	1.110965	0.072408	0.261893
C88	C	1.025074	0.071540	0.379093
H89	H	0.937228	0.055312	0.340166
H90	H	1.071350	0.048500	0.471975
H91	H	0.997191	0.110105	0.419909
O92	O	1.478882	-0.554273	0.394476
C93	C	1.586867	-0.588571	0.402447
H94	H	1.663347	-0.576953	0.327125
H95	H	1.623331	-0.590870	0.519907
H96	H	1.561244	-0.625624	0.366755
H97	H	1.491487	-0.075561	-0.240890
O98	O	1.491573	-0.071710	0.261953
C99	C	1.490631	-0.104775	0.379165
H100	H	1.529482	-0.142585	0.340268
H101	H	1.551960	-0.093069	0.472066
H102	H	1.389694	-0.105408	0.419944
H103	H	1.489018	-0.167073	0.240948
H104	H	1.489024	-0.167025	-0.240918
H105	H	1.472680	-0.782216	0.240848
H106	H	1.482865	-0.398955	-0.373739
H107	H	1.485306	-0.307494	-0.373725
H108	H	1.472693	-0.782190	-0.240994
O109	O	1.475172	-0.686816	-0.261988
C110	C	1.474339	-0.719879	-0.379183
H111	H	1.433619	-0.753955	-0.340247
H112	H	1.413740	-0.702442	-0.472062
H113	H	1.574980	-0.729975	-0.420007
O114	O	1.475257	-0.686866	0.261862
C115	C	1.474354	-0.719945	0.379042
H116	H	1.513164	-0.757752	0.340084
H117	H	1.535738	-0.708257	0.471916
H118	H	1.373434	-0.720574	0.419883
H119	H	1.481227	-0.458811	0.373669
O120	O	1.482442	-0.402928	0.394613
C121	C	1.373970	-0.385471	0.475357
H122	H	1.298323	-0.368039	0.397615
H123	H	1.336542	-0.416907	0.535620
H124	H	1.399330	-0.357354	0.558127
H125	H	1.481274	-0.458753	-0.373748
H126	H	1.478839	-0.550229	-0.373745
H127	H	1.638179	0.012034	0.360910
H128	H	1.325975	0.130183	0.639077
