data_functionalizedCrystal
_audit_creation_method	'MofGen! by Chris Wilmer'
_symmetry_space_group_name_H-M	'P1'
_symmetry_Int_Tables_number	1
_symmetry_cell_setting	triclinic
loop_
_symmetry_equiv_pos_as_xyz
  x,y,z
_cell_length_a	12.811457
_cell_length_b	19.188930
_cell_length_c	11.892095
_cell_angle_alpha	93.870839
_cell_angle_beta	91.498327
_cell_angle_gamma	83.596719
loop_
_atom_site_label
_atom_site_type_symbol
_atom_site_fract_x
_atom_site_fract_y
_atom_site_fract_z
O1	O	1.388764	0.096319	0.048354
O2	O	1.085364	0.105075	0.017247
O3	O	1.245818	-0.000872	0.033720
O4	O	1.228310	0.202266	0.031881
O5	O	1.232440	0.007948	0.220354
O6	O	1.071986	0.113895	0.203881
O7	O	1.375386	0.105139	0.234988
Zn8	Zn	1.221562	0.110917	0.249066
Zn9	Zn	1.239188	0.099297	0.003168
O10	O	1.214932	0.211086	0.218515
C11	C	1.039859	0.108724	0.106584
C12	C	0.924199	0.106448	0.094727
C13	C	0.692277	0.111775	0.275937
C14	C	0.583604	0.109637	0.264802
C15	C	0.598180	0.100029	0.061322
C16	C	0.706853	0.102167	0.072457
C17	C	0.753897	0.108041	0.179768
C18	C	0.862571	0.110185	0.190903
C19	C	0.877145	0.100571	-0.012576
C20	C	0.768472	0.098433	-0.023711
C21	C	1.238562	-0.022478	0.126982
C22	C	1.236859	-0.099999	0.126817
C23	C	1.331008	-0.143999	0.136475
C24	C	1.329410	-0.216839	0.136293
C25	C	1.233656	-0.245675	0.126475
C26	C	1.139494	-0.201666	0.116809
C27	C	1.141096	-0.128828	0.116980
N28	N	1.155910	-0.351397	0.182486
N29	N	1.154395	-0.420591	0.182326
C30	C	1.228825	-0.465133	0.125957
N31	N	1.304843	-0.437867	0.069768
N32	N	1.306360	-0.368667	0.069933
C33	C	1.231909	-0.324655	0.126288
C34	C	1.321249	-0.588115	0.135417
C35	C	1.319647	-0.660956	0.135228
C36	C	1.129728	-0.645781	0.115754
C37	C	1.131333	-0.572942	0.115933
C38	C	1.227096	-0.544113	0.125770
C39	C	1.420891	0.101489	0.145648
C40	C	1.536551	0.103765	0.157498
C41	C	1.222189	0.232692	0.125250
C42	C	1.223892	0.310212	0.125407
N43	N	1.209540	0.118848	0.416886
N44	N	1.251218	0.091361	-0.164651
C45	C	1.334873	0.036138	0.666401
C46	C	1.326477	0.041686	0.783881
C47	C	1.184348	0.135489	0.769328
C48	C	1.192744	0.129941	0.651848
C49	C	1.268010	0.080264	0.600389
C50	C	1.276410	0.074719	0.482907
C51	C	1.134277	0.168519	0.468356
C52	C	1.125881	0.174067	0.585835
H53	H	0.533436	0.112681	0.343112
C54	C	0.974243	-0.659792	0.003160
C55	C	1.024471	-0.677470	0.104957
H56	H	0.909263	-0.679361	-0.003511
H57	H	0.961725	-0.610120	0.001892
H58	H	1.017674	-0.677918	-0.057942
H59	H	0.981043	-0.659340	0.166059
H60	H	1.036985	-0.727152	0.106234
H61	H	1.123062	0.175930	0.811240
C62	C	1.049906	0.224226	0.759463
C63	C	1.043156	0.228673	0.642406
H64	H	0.998839	0.257943	0.794384
H65	H	1.037417	0.178454	0.777581
H66	H	1.118037	0.233278	0.785812
H67	H	0.975027	0.219615	0.616056
H68	H	1.055637	0.274455	0.624280
H69	H	0.900871	0.114972	0.278281
C70	C	0.666958	0.121060	0.475950
C71	C	0.743996	0.118232	0.393888
H72	H	0.698890	0.125042	0.548768
H73	H	0.616750	0.160651	0.466537
H74	H	0.633002	0.079398	0.468208
H75	H	0.777947	0.159897	0.401625
H76	H	0.794223	0.078638	0.403305
H77	H	1.061530	-0.225150	0.108812
H78	H	1.399225	-0.564641	0.143422
C79	C	0.953209	-0.121146	0.097715
C80	C	1.037598	-0.080458	0.106374
H81	H	0.889314	-0.091282	0.091176
H82	H	0.961198	-0.152935	0.032971
H83	H	0.951876	-0.146809	0.163139
H84	H	1.038936	-0.054800	0.040946
H85	H	1.029607	-0.048657	0.171125
C86	C	1.120684	0.257120	0.333879
C87	C	1.060777	0.217031	0.395794
H88	H	1.075311	0.287067	0.289080
H89	H	1.160656	0.284742	0.384135
H90	H	1.166701	0.226735	0.286416
H91	H	1.014765	0.247416	0.443263
H92	H	1.020787	0.189406	0.345532
C93	C	1.050203	0.099586	-0.085864
C94	C	0.944881	0.096467	-0.118295
H95	H	1.092018	0.097050	-0.151130
H96	H	1.056879	0.142533	-0.043082
H97	H	1.073143	0.061281	-0.041402
H98	H	0.921939	0.134775	-0.162751
H99	H	0.938200	0.053514	-0.161096
C100	C	1.487918	-0.700825	0.055851
C101	C	1.423148	-0.709322	0.145844
H102	H	1.551819	-0.730681	0.062412
H103	H	1.453313	-0.712716	-0.013253
H104	H	1.502563	-0.653315	0.057376
H105	H	1.408497	-0.756831	0.144314
H106	H	1.457761	-0.697435	0.214966
C107	C	0.438059	0.092476	-0.046084
C108	C	0.546456	0.093567	-0.056626
H109	H	0.406129	0.088490	-0.118902
H110	H	0.425400	0.053476	-0.005270
H111	H	0.409133	0.134728	-0.006945
H112	H	0.575384	0.051312	-0.095759
H113	H	0.559123	0.132570	-0.097458
H114	H	1.054665	-0.537116	0.108074
H115	H	1.337698	0.034272	0.441012
H116	H	1.408986	-0.120531	0.144481
C117	C	0.735450	0.149481	-0.201801
C118	C	0.716754	0.091982	-0.141663
H119	H	0.703526	0.145497	-0.274623
H120	H	0.706513	0.191720	-0.162655
H121	H	0.808993	0.150213	-0.208926
H122	H	0.643210	0.091252	-0.134532
H123	H	0.745687	0.049731	-0.180819
H124	H	1.406081	-0.252671	0.144154
H125	H	1.396164	-0.004306	0.624504
C126	C	1.467808	-0.051590	0.786461
C127	C	1.399977	-0.006818	0.856443
H128	H	1.513187	-0.081533	0.831261
H129	H	1.427826	-0.079217	0.736223
H130	H	1.508428	-0.024381	0.744452
H131	H	1.359351	-0.034027	0.898447
H132	H	1.439963	0.020811	0.906702
