data_functionalizedCrystal
_audit_creation_method	'MofGen! by Chris Wilmer'
_symmetry_space_group_name_H-M	'P1'
_symmetry_Int_Tables_number	1
_symmetry_cell_setting	triclinic
loop_
_symmetry_equiv_pos_as_xyz
  x,y,z
_cell_length_a	19.288864
_cell_length_b	17.766277
_cell_length_c	19.288874
_cell_angle_alpha	89.993108
_cell_angle_beta	83.138236
_cell_angle_gamma	89.976791
loop_
_atom_site_label
_atom_site_type_symbol
_atom_site_fract_x
_atom_site_fract_y
_atom_site_fract_z
O1	O	0.921356	-0.062836	0.086648
O2	O	1.254689	0.270497	0.419982
O3	O	1.588023	0.603830	0.753315
O4	O	0.719096	-0.062785	0.098337
O5	O	1.052429	0.270548	0.431670
O6	O	1.385763	0.603882	0.765004
O7	O	0.826067	-0.062806	-0.008637
O8	O	1.159400	0.270527	0.324696
O9	O	1.492733	0.603860	0.658029
O10	O	0.814385	-0.062815	0.193623
O11	O	1.147718	0.270518	0.526956
O12	O	1.481052	0.603851	0.860289
O13	O	0.826048	0.062382	-0.008643
O14	O	1.159381	0.395716	0.324691
O15	O	1.492715	0.729049	0.658024
O16	O	0.719077	0.062403	0.098332
O17	O	1.052410	0.395737	0.431665
O18	O	1.385744	0.729070	0.764998
O19	O	0.921337	0.062352	0.086643
O20	O	1.254671	0.395685	0.419976
O21	O	1.588004	0.729019	0.753310
Cu22	Cu	0.820206	0.073808	0.092487
Cu23	Cu	1.153539	0.407142	0.425820
Cu24	Cu	1.486872	0.740475	0.759153
Cu25	Cu	0.820228	-0.074241	0.092493
Cu26	Cu	1.153561	0.259092	0.425827
Cu27	Cu	1.486894	0.592425	0.759160
O28	O	0.814366	0.062373	0.193617
O29	O	1.147700	0.395707	0.526950
O30	O	1.481033	0.729040	0.860284
C31	C	0.693210	-0.000184	0.097958
C32	C	1.026543	0.333149	0.431292
C33	C	1.359877	0.666482	0.764625
C34	C	0.616106	-0.000164	0.096829
C35	C	0.949440	0.333169	0.430163
C36	C	1.282773	0.666502	0.763496
N37	N	0.820195	0.177939	0.092482
N38	N	1.153528	0.511272	0.425815
N39	N	1.486862	0.844605	0.759149
N40	N	0.820244	-0.178372	0.092493
N41	N	1.153577	0.154962	0.425826
N42	N	1.486910	0.488295	0.759159
C43	C	0.571412	-0.000179	0.159597
C44	C	0.904746	0.333154	0.492930
C45	C	1.238079	0.666488	0.826263
C46	C	0.498965	-0.000187	0.158536
C47	C	0.832299	0.333146	0.491869
C48	C	1.165632	0.666479	0.825203
C49	C	0.471215	-0.000196	0.094704
C50	C	0.804549	0.333137	0.428038
C51	C	1.137882	0.666471	0.761371
C52	C	0.515919	-0.000177	0.031928
C53	C	0.849253	0.333156	0.365262
C54	C	1.182586	0.666489	0.698595
C55	C	0.588365	-0.000161	0.032991
C56	C	0.921698	0.333172	0.366324
C57	C	1.255032	0.666505	0.699658
C58	C	0.362958	-0.044078	0.044527
C59	C	0.696292	0.289255	0.377861
C60	C	1.029625	0.622588	0.711194
C61	C	0.290514	-0.044099	0.043467
C62	C	0.623847	0.289235	0.376801
C63	C	0.957180	0.622568	0.710134
C64	C	0.247770	-0.000241	0.091425
C65	C	0.581103	0.333092	0.424758
C66	C	0.914436	0.666425	0.758091
C67	C	0.277478	0.043626	0.140454
C68	C	0.610811	0.376960	0.473787
C69	C	0.944144	0.710293	0.807120
C70	C	0.349923	0.043642	0.141516
C71	C	0.683256	0.376976	0.474849
C72	C	1.016590	0.710309	0.808183
C73	C	0.392661	-0.000213	0.093545
C74	C	0.725995	0.333121	0.426878
C75	C	1.059328	0.666454	0.760212
C76	C	0.124520	-0.000264	0.153046
C77	C	0.457853	0.333069	0.486380
C78	C	0.791186	0.666403	0.819713
C79	C	0.052072	-0.000268	0.151983
C80	C	0.385405	0.333066	0.485316
C81	C	0.718738	0.666399	0.818650
C82	C	0.069027	-0.000265	0.025374
C83	C	0.402361	0.333068	0.358707
C84	C	0.735694	0.666402	0.692040
C85	C	0.141474	-0.000254	0.026439
C86	C	0.474807	0.333079	0.359772
C87	C	0.808140	0.666413	0.693105
C88	C	0.169215	-0.000257	0.090277
C89	C	0.502549	0.333076	0.423610
C90	C	0.835882	0.666410	0.756944
C91	C	0.947223	-0.000250	0.087022
C92	C	1.280557	0.333083	0.420355
C93	C	1.613890	0.666416	0.753688
C94	C	1.024327	-0.000275	0.088151
C95	C	1.357660	0.333058	0.421484
C96	C	1.690994	0.666392	0.754817
C97	C	0.825680	-0.000212	-0.034516
C98	C	1.159014	0.333121	0.298817
C99	C	1.492347	0.666455	0.632150
C100	C	0.824549	-0.000212	-0.111619
C101	C	1.157882	0.333121	0.221714
C102	C	1.491215	0.666455	0.555047
C103	C	0.867577	0.217316	0.045137
C104	C	1.200910	0.550650	0.378470
C105	C	1.534244	0.883983	0.711804
C106	C	0.867581	0.296118	0.045134
C107	C	1.200914	0.629451	0.378467
C108	C	1.534248	0.962785	0.711800
C109	C	0.820210	0.335539	0.092487
C110	C	1.153543	0.668873	0.425821
C111	C	1.486876	1.002206	0.759154
C112	C	0.772819	0.296152	0.139836
C113	C	1.106152	0.629486	0.473169
C114	C	1.439485	0.962819	0.806503
C115	C	0.772811	0.217352	0.139833
C116	C	1.106145	0.550685	0.473167
C117	C	1.439478	0.884019	0.806500
C118	C	0.810913	0.460376	0.155775
C119	C	1.144246	0.793709	0.489108
C120	C	1.477580	1.127043	0.822441
C121	C	0.810925	0.539175	0.155778
C122	C	1.144259	0.872508	0.489112
C123	C	1.477592	1.205842	0.822445
C124	C	0.820228	0.578586	0.092496
C125	C	1.153562	0.911919	0.425829
C126	C	1.486895	1.245252	0.759162
C127	C	0.829534	0.539188	0.029207
C128	C	1.162867	0.872521	0.362540
C129	C	1.496200	1.205855	0.695873
C130	C	0.829526	0.460388	0.029204
C131	C	1.162860	0.793721	0.362537
C132	C	1.496193	1.127054	0.695870
C133	C	0.820212	0.420985	0.092495
C134	C	1.153545	0.754318	0.425829
C135	C	1.486879	1.087652	0.759162
C136	C	0.867617	0.703409	0.045143
C137	C	1.200950	1.036742	0.378477
C138	C	1.534284	1.370076	0.711810
C139	C	0.867616	0.782212	0.045139
C140	C	1.200950	1.115546	0.378472
C141	C	1.534283	1.448879	0.711806
C142	C	0.772857	0.782245	0.139848
C143	C	1.106191	1.115578	0.473181
C144	C	1.439524	1.448912	0.806514
C145	C	0.772855	0.703443	0.139846
C146	C	1.106188	1.036777	0.473179
C147	C	1.439522	1.370110	0.806512
C148	C	0.820238	0.664030	0.092494
C149	C	1.153572	0.997363	0.425828
C150	C	1.486905	1.330697	0.759161
C151	C	0.816413	0.068012	-0.667192
C152	C	1.149746	0.401345	-0.333858
C153	C	1.483079	0.734679	-0.000525
C154	C	0.817469	0.068016	-0.594744
C155	C	1.150802	0.401349	-0.261411
C156	C	1.484135	0.734682	0.071923
C157	C	0.818010	-0.000224	-0.558510
C158	C	1.151343	0.333109	-0.225176
C159	C	1.484677	0.666443	0.108157
C160	C	0.817478	-0.068472	-0.594727
C161	C	1.150811	0.264861	-0.261394
C162	C	1.484144	0.598194	0.071940
C163	C	0.816415	-0.068474	-0.667172
C164	C	1.149748	0.264859	-0.333839
C165	C	1.483082	0.598192	-0.000506
C166	C	0.860383	-0.052513	-0.449176
C167	C	1.193717	0.280820	-0.115843
C168	C	1.527050	0.614153	0.217491
C169	C	0.861450	-0.052509	-0.376733
C170	C	1.194784	0.280825	-0.043399
C171	C	1.528117	0.614158	0.289934
C172	C	0.821285	-0.000221	-0.335064
C173	C	1.154618	0.333112	-0.001730
C174	C	1.487952	0.666446	0.331603
C175	C	0.780061	0.052075	-0.365848
C176	C	1.113395	0.385408	-0.032515
C177	C	1.446728	0.718741	0.300819
C178	C	0.778999	0.052073	-0.438294
C179	C	1.112332	0.385406	-0.104960
C180	C	1.445665	0.718739	0.228373
C181	C	0.819162	-0.000229	-0.479955
C182	C	1.152495	0.333104	-0.146622
C183	C	1.485829	0.666437	0.186712
C184	C	0.822957	0.068027	-0.220298
C185	C	1.156290	0.401361	0.113035
C186	C	1.489624	0.734694	0.446368
C187	C	0.824009	0.068028	-0.147849
C188	C	1.157342	0.401362	0.185485
C189	C	1.490675	0.734695	0.518818
C190	C	0.824025	-0.068462	-0.147834
C191	C	1.157358	0.264872	0.185499
C192	C	1.490691	0.598205	0.518833
C193	C	0.822966	-0.068461	-0.220281
C194	C	1.156299	0.264873	0.113052
C195	C	1.489633	0.598206	0.446385
C196	C	0.822436	-0.000214	-0.256510
C197	C	1.155769	0.333119	0.076824
C198	C	1.489102	0.666453	0.410157
C199	C	0.814753	-0.000223	0.219496
C200	C	1.148086	0.333111	0.552829
C201	C	1.481419	0.666444	0.886163
C202	C	0.815884	-0.000228	0.296599
C203	C	1.149218	0.333106	0.629933
C204	C	1.482551	0.666439	0.963266
H205	H	0.593994	-0.000183	0.211579
H206	H	0.927328	0.333150	0.544912
H207	H	1.260661	0.666484	0.878246
H208	H	0.397755	-0.079797	0.005473
H209	H	0.731089	0.253537	0.338807
H210	H	1.064422	0.586870	0.672140
O211	O	0.818062	-0.142076	-0.555653
O212	O	1.151396	0.191257	-0.222319
O213	O	1.484729	0.524590	0.111014
H214	H	0.818897	-0.130611	-0.499194
H215	H	1.152231	0.202722	-0.165860
H216	H	1.485564	0.536055	0.167473
H217	H	0.462568	-0.000197	0.209651
H218	H	0.795902	0.333136	0.542984
H219	H	1.129235	0.666470	0.876317
O220	O	0.381973	0.090984	0.194366
O221	O	0.715306	0.424318	0.527700
O222	O	1.048639	0.757651	0.861033
H223	H	0.340086	0.121494	0.227528
H224	H	0.673419	0.454827	0.560861
H225	H	1.006753	0.788161	0.894195
O226	O	0.721758	0.660964	0.190919
O227	O	1.055091	0.994297	0.524252
O228	O	1.388425	1.327630	0.857585
H229	H	0.688821	0.701612	0.223852
H230	H	1.022155	1.034945	0.557185
H231	H	1.355488	1.368279	0.890518
O232	O	0.154444	-0.000252	0.221899
O233	O	0.487777	0.333081	0.555232
O234	O	0.821110	0.666414	0.888566
H235	H	0.187065	-0.051274	0.225422
H236	H	0.520399	0.282059	0.558755
H237	H	0.853732	0.615392	0.892088
H238	H	0.815980	0.123584	-0.696684
H239	H	1.149313	0.456917	-0.363351
H240	H	1.482647	0.790250	-0.030017
H241	H	0.906158	0.185228	0.006579
H242	H	1.239491	0.518562	0.339912
H243	H	1.572824	0.851895	0.673246
H244	H	0.803353	0.571246	0.207312
H245	H	1.136686	0.904580	0.540645
H246	H	1.470019	1.237913	0.873979
H247	H	0.824437	0.123599	-0.118368
H248	H	1.157770	0.456933	0.214965
H249	H	1.491104	0.790266	0.548298
H250	H	0.815984	-0.124045	-0.696653
H251	H	1.149317	0.209289	-0.363320
H252	H	1.482650	0.542622	-0.029987
H253	H	0.745434	0.094654	-0.463355
H254	H	1.078767	0.427987	-0.130022
H255	H	1.412100	0.761321	0.203311
H256	H	0.242677	0.079340	0.179505
H257	H	0.576010	0.412673	0.512838
H258	H	0.909343	0.746007	0.846171
H259	H	0.906166	0.328185	0.006578
H260	H	1.239500	0.661519	0.339911
H261	H	1.572833	0.994852	0.673245
O262	O	0.636578	-0.000145	-0.034711
O263	O	0.969911	0.333188	0.298623
O264	O	1.303245	0.666521	0.631956
H265	H	0.626771	-0.051173	-0.065268
H266	H	0.960104	0.282160	0.268066
H267	H	1.293437	0.615494	0.601399
H268	H	0.803325	0.428294	0.207310
H269	H	1.136659	0.761628	0.540644
H270	H	1.469992	1.094961	0.873977
H271	H	0.906198	0.814274	0.006581
H272	H	1.239532	1.147607	0.339915
H273	H	1.572865	1.480941	0.673248
H274	H	0.015682	-0.000275	0.203098
H275	H	0.349015	0.333058	0.536432
H276	H	0.682348	0.666392	0.869765
H277	H	0.734284	0.814341	0.178401
H278	H	1.067617	1.147675	0.511735
H279	H	1.400951	1.481008	0.845068
O280	O	0.736733	0.108479	-0.320921
O281	O	1.070067	0.441812	0.012412
O282	O	1.403400	0.775146	0.345746
H283	H	0.699007	0.078197	-0.282802
H284	H	1.032340	0.411530	0.050531
H285	H	1.365673	0.744863	0.383864
O286	O	0.039110	-0.000275	-0.043477
O287	O	0.372443	0.333059	0.289856
O288	O	0.705776	0.666392	0.623190
H289	H	-0.018776	-0.000292	-0.033672
H290	H	0.314558	0.333041	0.299661
H291	H	0.647891	0.666375	0.632995
O292	O	0.824609	-0.142067	-0.108765
O293	O	1.157942	0.191266	0.224568
O294	O	1.491275	0.524600	0.557901
H295	H	0.825440	-0.130603	-0.052306
H296	H	1.158773	0.202731	0.281028
H297	H	1.492107	0.536064	0.614361
O298	O	0.189687	-0.000245	-0.041261
O299	O	0.523020	0.333089	0.292073
O300	O	0.856354	0.666422	0.625406
H301	H	0.158222	-0.000257	-0.085827
H302	H	0.491556	0.333077	0.247507
H303	H	0.824889	0.666410	0.580840
H304	H	0.266331	-0.079822	0.003548
H305	H	0.599665	0.253512	0.336881
H306	H	0.932998	0.586845	0.670215
H307	H	0.493321	-0.000195	-0.020044
H308	H	0.826654	0.333139	0.313289
H309	H	1.159988	0.666472	0.646623
H310	H	0.817886	0.123586	-0.565255
H311	H	1.151219	0.456920	-0.231922
H312	H	1.484553	0.790253	0.101412
O313	O	0.822372	0.141631	-0.259380
O314	O	1.155706	0.474964	0.073953
O315	O	1.489039	0.808297	0.407287
H316	H	0.822904	0.189084	-0.222025
H317	H	1.156238	0.522418	0.111308
H318	H	1.489571	0.855751	0.444642
O319	O	0.839550	0.417891	-0.039051
O320	O	1.172883	0.751224	0.294282
O321	O	1.506217	1.084558	0.627616
H322	H	0.846015	0.458528	-0.083059
H323	H	1.179348	0.791861	0.250275
H324	H	1.512681	1.125195	0.583608
O325	O	0.839563	0.581681	-0.039057
O326	O	1.172896	0.915014	0.294277
O327	O	1.506230	1.248348	0.627610
H328	H	0.837995	0.643094	-0.028426
H329	H	1.171328	0.976428	0.304907
H330	H	1.504662	1.309761	0.638241
O331	O	0.918711	0.660890	-0.005933
O332	O	1.252045	0.994223	0.327400
O333	O	1.585378	1.327557	0.660733
H334	H	0.951652	0.701514	-0.038866
H335	H	1.284986	1.034847	0.294467
H336	H	1.618319	1.368181	0.627801
O337	O	0.822381	-0.142062	-0.259341
O338	O	1.155714	0.191271	0.073992
O339	O	1.489048	0.524605	0.407326
H340	H	0.822931	-0.189514	-0.221976
H341	H	1.156265	0.143819	0.111358
H342	H	1.489598	0.477152	0.444691
H343	H	0.734247	0.328253	0.178391
H344	H	1.067581	0.661586	0.511724
H345	H	1.400914	0.994920	0.845058
O346	O	0.905903	-0.108915	-0.343529
O347	O	1.239237	0.224419	-0.010195
O348	O	1.572570	0.557752	0.323138
H349	H	0.933641	-0.145286	-0.384671
H350	H	1.266974	0.188047	-0.051338
H351	H	1.600308	0.521381	0.281996
H352	H	0.734227	0.185290	0.178388
H353	H	1.067560	0.518624	0.511721
H354	H	1.400893	0.851957	0.845055
O355	O	0.903710	-0.108910	-0.494119
O356	O	1.237043	0.224424	-0.160785
O357	O	1.570377	0.557757	0.172548
H358	H	0.932562	-0.145263	-0.460545
H359	H	1.265895	0.188070	-0.127212
H360	H	1.599229	0.521404	0.206122
