data_functionalizedCrystal
_audit_creation_method	'MofGen! by Chris Wilmer'
_symmetry_space_group_name_H-M	'P1'
_symmetry_Int_Tables_number	1
_symmetry_cell_setting	triclinic
loop_
_symmetry_equiv_pos_as_xyz
  x,y,z
_cell_length_a	23.096457
_cell_length_b	18.426585
_cell_length_c	18.426585
_cell_angle_alpha	89.996118
_cell_angle_beta	119.999373
_cell_angle_gamma	60.003850
loop_
_atom_site_label
_atom_site_type_symbol
_atom_site_fract_x
_atom_site_fract_y
_atom_site_fract_z
Zr1	Zr	0.633702	-0.095156	-0.699160
O2	O	0.754488	-0.211033	-0.583283
O3	O	0.512916	-0.059638	-0.734680
O4	O	0.633697	-0.211030	-0.734684
O5	O	0.633711	0.059785	-0.583279
O6	O	0.633693	-0.211022	-0.854115
O7	O	0.633707	-0.059641	-0.583279
O8	O	0.417639	0.059791	-0.854108
O9	O	0.849766	-0.211028	-0.583286
O10	O	0.562594	-0.044478	-0.838962
O11	O	0.562600	0.044642	-0.749833
O12	O	0.704804	-0.133603	-0.749837
O13	O	0.704810	-0.044482	-0.660707
Zr14	Zr	0.633702	0.095327	-0.889639
Zr15	Zr	0.633696	-0.095143	-0.889639
Zr16	Zr	0.633709	0.095315	-0.699161
Zr17	Zr	0.785660	-0.095148	-0.699165
Zr18	Zr	0.481745	0.095319	-0.889634
O19	O	0.754488	0.059809	-0.854119
O20	O	0.754479	-0.211016	-0.854119
O21	O	0.754497	0.059791	-0.583283
O22	O	0.512916	0.211205	-1.005517
O23	O	0.512907	-0.059620	-1.005516
O24	O	0.512926	0.211187	-0.734681
O25	O	0.633693	-0.059614	-1.005520
O26	O	0.633707	0.211201	-0.854116
O27	O	0.633711	0.211193	-0.734685
O28	O	0.633697	0.059812	-1.005520
O29	O	0.849761	-0.211018	-0.734691
O30	O	0.417644	0.211190	-0.854109
O31	O	0.417639	0.211200	-1.005514
O32	O	0.417633	0.059801	-1.005514
O33	O	0.849771	-0.059630	-0.583286
O34	O	0.849766	-0.059620	-0.734691
O35	O	0.562600	0.133774	-0.838963
O36	O	0.562594	0.044654	-0.928093
O37	O	0.704804	-0.044471	-0.838967
O38	O	0.704810	0.044650	-0.749837
C39	C	0.443627	0.000076	-0.794394
C40	C	0.379117	0.000072	-0.794392
C41	C	0.633710	0.000070	-0.556140
C42	C	0.633713	0.000065	-0.475277
C43	C	0.633710	0.238335	-0.794400
C44	C	0.633713	0.319195	-0.794400
C45	C	0.348813	-0.046451	-0.840910
C46	C	0.288191	-0.046444	-0.840919
C47	C	0.257886	0.000075	-0.794392
C48	C	0.288194	0.046608	-0.747871
C49	C	0.348810	0.046607	-0.747871
N50	N	0.195493	-0.006381	-0.718677
N51	N	0.137912	-0.006385	-0.718679
C52	C	0.075254	0.000083	-0.794391
N53	N	0.072360	0.006537	-0.870100
N54	N	0.129949	0.006536	-0.870096
C55	C	0.192159	0.000082	-0.794387
C56	C	-0.020784	-0.046435	-0.840923
C57	C	-0.081411	-0.046421	-0.840934
C58	C	-0.081400	0.046625	-0.747878
C59	C	-0.020780	0.046617	-0.747875
C60	C	0.009527	0.000082	-0.794396
C61	C	0.823778	0.000096	-0.794406
C62	C	0.888288	0.000099	-0.794408
C63	C	0.633694	-0.238164	-0.794399
C64	C	0.633692	-0.319024	-0.794399
C65	C	0.633689	0.615310	-0.794402
C66	C	0.633692	0.532924	-0.794404
C67	C	0.633701	0.467255	-0.794402
C68	C	0.633704	0.384864	-0.794402
C69	C	0.633716	0.000064	-0.409606
C70	C	0.633713	0.000072	-0.327225
C71	C	0.633704	0.000082	-0.261567
C72	C	0.633700	0.000088	-0.179180
C73	C	0.633694	0.000099	-0.032659
C74	C	0.633692	0.000098	-0.113523
C75	C	0.443619	0.000091	-1.032653
C76	C	0.379106	0.000093	-1.113514
C77	C	0.443635	0.238325	-0.794394
C78	C	0.379128	0.319181	-0.794392
C79	C	0.443627	0.238341	-1.032654
C80	C	0.379117	0.319202	-1.113515
C81	C	0.823778	-0.238170	-0.556146
C82	C	0.888288	-0.319031	-0.475284
C83	C	0.823786	0.000080	-0.556146
C84	C	0.888298	0.000078	-0.475285
C85	C	0.823770	-0.238154	-0.794405
C86	C	0.888277	-0.319010	-0.794407
C87	C	0.348810	-0.046440	-1.104963
C88	C	0.288202	-0.046456	-1.180933
C89	C	0.257887	0.000067	-1.265454
C90	C	0.288189	0.046601	-1.274004
C91	C	0.348800	0.046612	-1.198035
C92	C	0.348835	0.403686	-0.840916
C93	C	0.288232	0.479667	-0.840911
C94	C	0.257919	0.471140	-0.794387
C95	C	0.288218	0.386626	-0.747857
C96	C	0.348824	0.310648	-0.747857
C97	C	0.348819	0.310656	-1.198021
C98	C	0.288214	0.386627	-1.274006
C99	C	0.257903	0.471143	-1.265483
C100	C	0.288207	0.479688	-1.180968
C101	C	0.348815	0.403718	-1.104985
C102	C	0.918593	-0.310485	-0.390778
C103	C	0.979217	-0.386455	-0.314793
C104	C	1.009531	-0.470972	-0.323316
C105	C	0.979223	-0.479517	-0.407831
C106	C	0.918604	-0.403547	-0.483814
C107	C	0.918601	0.046603	-0.483837
C108	C	0.979225	0.046598	-0.407867
C109	C	1.009543	0.000073	-0.323345
C110	C	0.979238	-0.046458	-0.314795
C111	C	0.918619	-0.046458	-0.390765
C112	C	0.918570	-0.310455	-0.840941
C113	C	0.979174	-0.386421	-0.840960
C114	C	1.009486	-0.470941	-0.794440
C115	C	0.979187	-0.479494	-0.747905
C116	C	0.918581	-0.403529	-0.747891
H117	H	0.373485	-0.084340	-0.878793
H118	H	0.208552	0.532995	-1.327361
H119	H	1.058836	-0.532789	-0.794458
H120	H	0.263497	0.084478	-1.342832
H121	H	1.003889	0.084493	-0.414846
H122	H	0.373459	0.084510	-1.205010
H123	H	0.263547	0.379654	-1.342815
H124	H	1.003913	-0.548339	-0.414760
H125	H	-0.106089	-0.084302	-0.878821
H126	H	0.003890	-0.084323	-0.878807
H127	H	0.893921	0.084496	-0.552651
H128	H	1.003877	-0.548321	-0.710029
H129	H	1.058903	0.000080	-0.261493
H130	H	0.208570	0.533014	-0.794394
H131	H	0.263529	0.379697	-0.709978
H132	H	0.003896	0.084498	-0.709991
H133	H	0.373492	-0.084335	-1.036148
H134	H	0.263516	0.084484	-0.709989
H135	H	0.263519	0.548511	-1.174042
H136	H	0.373508	0.410646	-0.878803
H137	H	0.263569	0.548474	-0.878805
H138	H	0.373481	0.241843	-0.709975
H139	H	0.208533	0.000052	-1.327306
H140	H	1.003837	-0.379439	-0.878853
H141	H	-0.106074	0.084501	-0.709994
H142	H	0.373489	0.241845	-1.204978
H143	H	0.893923	-0.410507	-0.709994
H144	H	0.373476	0.410689	-1.036179
H145	H	0.893914	-0.241674	-0.383822
H146	H	1.003883	-0.379481	-0.245985
H147	H	1.058891	-0.532824	-0.261439
H148	H	1.003932	-0.084338	-0.245968
H149	H	0.893948	-0.084342	-0.383789
H150	H	0.373484	0.084492	-0.709987
H151	H	0.893931	-0.410516	-0.552621
H152	H	0.263512	-0.084330	-0.878802
H153	H	0.263538	-0.084350	-1.173954
H154	H	0.893899	-0.241642	-0.878823
