data_functionalizedCrystal
_audit_creation_method	'MofGen! by Chris Wilmer'
_symmetry_space_group_name_H-M	'P1'
_symmetry_Int_Tables_number	1
_symmetry_cell_setting	triclinic
loop_
_symmetry_equiv_pos_as_xyz
  x,y,z
_cell_length_a	10.489716
_cell_length_b	11.026607
_cell_length_c	9.482900
_cell_angle_alpha	78.599815
_cell_angle_beta	80.615688
_cell_angle_gamma	83.442424
loop_
_atom_site_label
_atom_site_type_symbol
_atom_site_fract_x
_atom_site_fract_y
_atom_site_fract_z
O1	O	1.747323	-0.152544	-0.120879
O2	O	1.379673	-0.168677	-0.120884
O3	O	1.533027	0.016306	-0.120877
O4	O	1.593969	-0.337526	-0.120886
O5	O	1.501912	-0.021421	0.120914
O6	O	1.348558	-0.206403	0.120907
O7	O	1.716208	-0.190270	0.120912
Cu8	Cu	1.529542	-0.201781	0.142987
Cu9	Cu	1.566339	-0.157166	-0.142959
O10	O	1.562855	-0.375253	0.120904
C11	C	1.316317	-0.186328	0.000011
C12	C	1.173888	-0.182701	0.000009
C13	C	1.101169	-0.296137	0.000002
C14	C	0.995295	-0.254797	0.119226
C15	C	1.025972	-0.217575	-0.119161
C16	C	1.069878	-0.141423	0.119331
C17	C	1.100578	-0.104201	-0.119163
C18	C	0.994731	-0.062782	0.000090
C19	C	1.506227	0.042751	0.000017
C20	C	1.472714	0.177756	0.000011
C21	C	1.779565	-0.172619	0.000014
C22	C	1.921995	-0.176244	0.000006
C23	C	1.589655	-0.401698	0.000008
C24	C	1.623170	-0.536701	0.000004
N25	N	1.503671	-0.233161	0.344106
C26	C	1.565253	0.250761	0.000010
C27	C	1.530617	0.390296	0.000005
N28	N	1.592219	-0.125776	-0.344078
C29	C	1.558698	-0.166415	0.416308
C30	C	1.537184	-0.192533	0.583724
H31	H	1.147530	-0.394828	0.000111
F32	F	0.935273	-0.337941	0.250966
F33	F	1.702327	0.197441	0.000004
H34	H	1.440627	-0.309636	0.406233
F35	F	1.760252	0.409988	-0.000001
H36	H	1.621731	-0.089930	0.354183
H37	H	1.655256	-0.049287	0.593801
H38	H	0.948570	0.035953	0.000161
F39	F	1.095759	-0.099446	0.251209
F40	F	1.335642	0.231079	-0.000004
H41	H	1.146519	-0.040624	-0.219959
F42	F	0.999862	-0.259641	-0.250888
H43	H	1.474135	-0.269013	0.645845
H44	H	1.425743	0.431091	-0.000006
