data_functionalizedCrystal
_audit_creation_method	'MofGen! by Chris Wilmer'
_symmetry_space_group_name_H-M	'P1'
_symmetry_Int_Tables_number	1
_symmetry_cell_setting	triclinic
loop_
_symmetry_equiv_pos_as_xyz
  x,y,z
_cell_length_a	16.974800
_cell_length_b	10.654554
_cell_length_c	16.053802
_cell_angle_alpha	92.593619
_cell_angle_beta	91.074188
_cell_angle_gamma	83.937091
loop_
_atom_site_label
_atom_site_type_symbol
_atom_site_fract_x
_atom_site_fract_y
_atom_site_fract_z
O1	O	1.049954	0.160086	0.001546
O2	O	1.549954	0.660086	0.501546
O3	O	0.820597	0.179310	-0.013958
O4	O	1.320597	0.679310	0.486042
O5	O	0.940547	-0.013096	-0.005850
O6	O	1.440547	0.486904	0.494150
O7	O	0.930004	0.352493	-0.006561
O8	O	1.430004	0.852493	0.493439
O9	O	0.933944	-0.002550	0.132562
O10	O	1.433944	0.497450	0.632562
O11	O	0.813995	0.189857	0.124455
O12	O	1.313995	0.689857	0.624455
O13	O	1.043351	0.170633	0.139959
O14	O	1.543351	0.670633	0.639959
Zn15	Zn	0.927625	0.181919	0.154183
Zn16	Zn	1.427625	0.681919	0.654183
Zn17	Zn	0.936324	0.168023	-0.028182
Zn18	Zn	1.436324	0.668023	0.471818
O19	O	0.923402	0.363039	0.131851
O20	O	1.423402	0.863039	0.631851
C21	C	0.787928	0.183659	0.053263
C22	C	1.287928	0.683659	0.553263
C23	C	0.700420	0.180890	0.047348
C24	C	1.200420	0.680890	0.547348
C25	C	0.655714	0.185335	0.120019
C26	C	1.155714	0.685335	0.620019
C27	C	0.573493	0.182713	0.114463
C28	C	1.073493	0.682713	0.614463
C29	C	0.535978	0.175655	0.036235
C30	C	1.035978	0.675655	0.536235
C31	C	0.580690	0.171206	-0.036442
C32	C	1.080690	0.671206	0.463558
C33	C	0.662911	0.173819	-0.030885
C34	C	1.162911	0.673819	0.469115
C35	C	0.290461	0.167216	0.011526
C36	C	0.790461	0.667216	0.511526
C37	C	0.208234	0.164607	0.005975
C38	C	0.708234	0.664607	0.505975
C39	C	0.201043	0.176112	0.156880
C40	C	0.701043	0.676112	0.656880
C41	C	0.283265	0.178732	0.162430
C42	C	0.783265	0.678732	0.662430
C43	C	0.327970	0.174276	0.089753
C44	C	0.827970	0.674276	0.589753
N45	N	0.451934	0.172979	0.030554
N46	N	0.951934	0.672979	0.530554
N47	N	0.412013	0.176943	0.095435
N48	N	0.912013	0.676943	0.595435
C49	C	0.936471	-0.054613	0.063302
C50	C	1.436471	0.445387	0.563302
C51	C	0.934153	-0.194032	0.063139
C52	C	1.434153	0.305968	0.563139
C53	C	0.859169	-0.375802	0.058081
C54	C	1.359169	0.124198	0.558081
C55	C	0.861347	-0.244804	0.058220
C56	C	1.361347	0.255196	0.558220
C57	C	1.004786	-0.274266	0.067911
C58	C	1.504786	0.225734	0.567911
C59	C	1.002607	-0.405262	0.067766
C60	C	1.502607	0.094738	0.567766
C61	C	0.786357	-0.426566	0.053169
C62	C	1.286357	0.073434	0.553169
C63	C	0.715724	-0.346341	0.048396
C64	C	1.215724	0.153659	0.548396
C65	C	0.717902	-0.215343	0.048535
C66	C	1.217902	0.284657	0.548535
C67	C	0.790714	-0.164570	0.053447
C68	C	1.290714	0.335430	0.553447
C69	C	1.076021	0.166283	0.072736
C70	C	1.576021	0.666283	0.572736
C71	C	1.163529	0.169052	0.078646
C72	C	1.663529	0.669052	0.578646
C73	C	0.927478	0.404556	0.062698
C74	C	1.427478	0.904556	0.562698
C75	C	0.929796	0.543974	0.062855
C76	C	1.429796	1.043974	0.562855
N77	N	0.921693	0.191402	0.278642
N78	N	1.421693	0.691402	0.778642
N79	N	0.942261	0.158531	-0.152641
N80	N	1.442261	0.658531	0.347359
C81	C	0.972751	0.109562	0.325787
C82	C	1.472751	0.609562	0.825787
C83	C	0.968610	0.116208	0.412914
C84	C	1.468610	0.616208	0.912914
C85	C	0.913414	0.204700	0.452895
C86	C	1.413414	0.704700	0.952895
C87	C	0.862350	0.286544	0.405743
C88	C	1.362350	0.786544	0.905743
C89	C	0.866489	0.279891	0.318618
C90	C	1.366489	0.779891	0.818618
C91	C	0.895337	0.233722	0.713082
C92	C	1.395337	0.733722	1.213082
C93	C	0.891204	0.240371	0.800214
C94	C	1.391204	0.740371	1.300214
C95	C	0.997462	0.070032	0.807379
C96	C	1.497462	0.570032	1.307379
C97	C	1.001599	0.063393	0.720252
C98	C	1.501599	0.563393	1.220252
C99	C	0.950533	0.145232	0.673108
C100	C	1.450533	0.645232	1.173108
N101	N	0.909181	0.211497	0.541952
N102	N	1.409181	0.711497	1.041952
N103	N	0.954763	0.138428	0.584052
N104	N	1.454763	0.638428	1.084052
H105	H	0.164635	0.179738	0.216050
H106	H	0.664635	0.679738	0.716050
H107	H	0.660389	-0.150028	0.044640
H108	H	1.160389	0.349972	0.544640
H109	H	1.017701	0.037508	0.293241
H110	H	1.517701	0.537508	0.793241
H111	H	0.784576	-0.533230	0.053057
H112	H	1.284576	-0.033230	0.553057
H113	H	0.313804	0.184473	0.226132
H114	H	0.813804	0.684473	0.726132
N115	N	1.052532	-0.018243	0.858224
N116	N	1.552532	0.481757	1.358224
H117	H	1.109266	-0.004697	0.846833
H118	H	1.609266	0.495303	1.346833
H119	H	1.041470	-0.000561	0.919465
H120	H	1.541470	0.499439	1.419465
H121	H	0.817405	0.358592	0.438300
H122	H	1.317405	0.858592	0.938300
N123	N	0.831665	0.335807	0.843346
N124	N	1.331665	0.835807	1.343346
H125	H	0.860371	0.394300	0.881537
H126	H	1.360371	0.894300	1.381537
H127	H	0.799953	0.386557	0.800215
H128	H	1.299953	0.886557	1.300215
N129	N	1.023686	0.027963	0.463774
N130	N	1.523686	0.527963	0.963774
H131	H	1.057111	0.078890	0.502284
H132	H	1.557111	0.578890	1.002284
H133	H	0.991500	-0.024996	0.497829
H134	H	1.491500	0.475004	0.997829
N135	N	0.167781	0.156980	-0.078409
N136	N	0.667781	0.656980	0.421591
H137	H	0.139792	0.077863	-0.083669
H138	H	0.639792	0.577863	0.416331
H139	H	0.127903	0.233477	-0.084437
H140	H	0.627903	0.733477	0.415563
N141	N	1.061135	-0.032052	0.677136
N142	N	1.561135	0.467948	1.177136
H143	H	1.116426	-0.016185	0.696077
H144	H	1.616426	0.483815	1.196077
H145	H	1.050786	-0.120026	0.691675
H146	H	1.550786	0.379974	1.191675
N147	N	0.711130	0.169036	-0.109268
N148	N	1.211130	0.669036	0.390732
H149	H	0.768908	0.171758	-0.093878
H150	H	1.268908	0.671758	0.406122
H151	H	0.704294	0.088286	-0.142783
H152	H	1.204294	0.588286	0.357217
N153	N	1.083311	-0.219503	0.073226
N154	N	1.583311	0.280497	0.573226
H155	H	1.127725	-0.290203	0.076229
H156	H	1.627725	0.209797	0.576229
H157	H	1.089789	-0.169702	0.022188
H158	H	1.589789	0.330298	0.522188
N159	N	0.637196	-0.401096	0.043087
N160	N	1.137196	0.098904	0.543087
H161	H	0.646531	-0.496254	0.043725
H162	H	1.146531	0.003746	0.543725
H163	H	0.603811	-0.367848	0.092306
H164	H	1.103811	0.132152	0.592306
N165	N	0.793066	-0.023281	0.053586
N166	N	1.293066	0.476719	0.553586
H167	H	0.737275	0.019840	0.049811
H168	H	1.237275	0.519840	0.549811
H169	H	0.819336	0.006304	0.106836
H170	H	1.319336	0.506304	0.606836
H171	H	1.060119	-0.470583	0.071649
H172	H	1.560119	0.029417	0.571649
H173	H	0.853758	0.300361	0.674705
H174	H	1.353758	0.800361	1.174705
H175	H	0.537098	0.186312	0.173640
H176	H	1.037098	0.686312	0.673640
N177	N	0.811416	0.368154	0.267764
N178	N	1.311416	0.868154	0.767764
H179	H	0.775821	0.425224	0.306310
H180	H	1.275821	0.925224	0.806310
H181	H	0.843604	0.421044	0.233660
H182	H	1.343604	0.921044	0.733660
H183	H	0.326851	0.163583	-0.047653
H184	H	0.826851	0.663583	0.452347
N185	N	0.696173	0.192961	0.204395
N186	N	1.196173	0.692961	0.704395
H187	H	0.655373	0.195377	0.249588
H188	H	1.155373	0.695377	0.749588
H189	H	0.736098	0.116516	0.210392
H190	H	1.236098	0.616516	0.710392
H191	H	0.550140	0.165450	-0.100137
H192	H	1.050140	0.665450	0.399863
