data_functionalizedCrystal
_audit_creation_method	'MofGen! by Chris Wilmer'
_symmetry_space_group_name_H-M	'P1'
_symmetry_Int_Tables_number	1
_symmetry_cell_setting	triclinic
loop_
_symmetry_equiv_pos_as_xyz
  x,y,z
_cell_length_a	17.639044
_cell_length_b	17.637651
_cell_length_c	12.759393
_cell_angle_alpha	101.250165
_cell_angle_beta	78.795864
_cell_angle_gamma	92.197722
loop_
_atom_site_label
_atom_site_type_symbol
_atom_site_fract_x
_atom_site_fract_y
_atom_site_fract_z
Zn1	Zn	1.099801	-0.536948	0.153465
Zn2	Zn	1.074044	-0.663982	-0.049458
Zn3	Zn	0.972808	-0.511329	0.018883
Zn4	Zn	0.947138	-0.638278	0.167261
O5	O	1.023448	-0.587634	0.072538
O6	O	1.202643	-0.575278	0.092173
O7	O	1.060578	-0.643767	-0.187413
O8	O	1.011176	-0.408434	0.059563
O9	O	1.183719	-0.668609	-0.056914
O10	O	1.104478	-0.427256	0.158440
O11	O	0.986200	-0.531614	-0.137203
O12	O	0.863145	-0.506690	0.072940
O13	O	0.967426	-0.624801	0.312452
O14	O	0.844286	-0.599959	0.181952
O15	O	1.079587	-0.550354	0.302316
O16	O	1.035687	-0.766865	-0.043537
O17	O	0.942450	-0.747981	0.115685
C18	C	0.826164	-0.547756	0.136359
C19	C	0.741761	-0.530714	0.163684
C20	C	0.632634	-0.458181	0.279897
C21	C	0.711942	-0.474200	0.254213
C22	C	0.692277	-0.571229	0.098798
C23	C	0.612966	-0.555215	0.124466
C24	C	0.583151	-0.498691	0.215018
C25	C	0.563483	-0.595725	0.059587
C26	C	0.484178	-0.579715	0.085256
C27	C	0.454357	-0.523195	0.175805
C28	C	0.503847	-0.482681	0.240687
C29	C	0.593299	-0.652252	-0.030960
C30	C	0.543816	-0.692762	-0.095839
C31	C	0.464510	-0.676749	-0.070175
C32	C	0.434689	-0.620229	0.020374
C33	C	0.415021	-0.717263	-0.135057
C34	C	0.335716	-0.701253	-0.109387
C35	C	0.355384	-0.604219	0.046044
C36	C	0.983509	-0.784988	0.030172
C37	C	0.966492	-0.869431	0.012060
C38	C	1.153215	-1.195817	0.210302
C39	C	1.137201	-1.275159	0.193273
C40	C	1.040110	-1.255679	0.090161
C41	C	1.056119	-1.176334	0.107177
C42	C	1.112671	-1.146410	0.167250
C43	C	1.015575	-1.126928	0.064125
C44	C	1.031579	-1.047589	0.081145
C45	C	1.088127	-1.017658	0.141217
C46	C	1.128675	-1.067071	0.184270
C47	C	0.959019	-1.156853	0.004060
C48	C	0.918475	-1.107446	-0.038993
C49	C	0.934483	-1.028107	-0.021980
C50	C	0.991031	-0.998176	0.038092
C51	C	0.893935	-0.978694	-0.065032
C52	C	0.909940	-0.899355	-0.048012
C53	C	1.007036	-0.918837	0.055112
C54	C	1.221502	-0.627669	0.008467
C55	C	1.305901	-0.644729	-0.018836
C56	C	1.023516	-0.587568	0.346570
C57	C	1.023546	-0.587540	0.463347
C58	C	1.063563	-0.389514	0.115086
C59	C	1.080658	-0.305087	0.133217
C60	C	1.023434	-0.587654	-0.200431
C61	C	1.023595	-0.587498	-0.317209
C62	C	1.081956	-0.548772	0.512932
C63	C	1.081979	-0.548749	0.622656
C64	C	0.965180	-0.626267	0.633200
C65	C	0.965154	-0.626285	0.523480
C66	C	1.149391	-0.504021	0.506844
C67	C	1.149414	-0.503997	0.616568
H68	H	0.752231	-0.441206	0.307050
H69	H	1.145549	-0.442013	0.494805
H70	H	0.657876	-0.665274	-0.051870
H71	H	1.139671	-0.443849	0.669421
H72	H	0.872429	-1.131822	-0.087900
H73	H	0.568102	-0.738786	-0.169564
H74	H	0.994063	-1.280055	0.041254
F75	F	0.902978	-0.667534	0.470717
H76	H	0.917638	-0.657809	0.682174
H77	H	1.205040	-0.531637	0.623936
F78	F	1.188873	-1.035221	0.248192
H79	H	0.295425	-0.734242	-0.162217
F80	F	0.323651	-0.544051	0.142409
F81	F	1.104972	-0.933180	0.159653
H82	H	0.716563	-0.617252	0.025073
F83	F	1.213412	-1.163966	0.274224
H84	H	1.170210	-1.315382	0.228354
H85	H	0.945983	-1.221455	-0.009784
H86	H	0.439307	-0.763290	-0.208777
H87	H	0.847886	-1.003070	-0.113934
F88	F	1.216817	-0.546333	0.432817
H89	H	0.389781	-0.510163	0.196706
H90	H	0.479572	-0.436645	0.314413
H91	H	0.608359	-0.412145	0.353624
F92	F	1.067234	-0.886987	0.119034
F93	F	0.866791	-0.846771	-0.093837
