data_functionalizedCrystal
_audit_creation_method	'MofGen! by Chris Wilmer'
_symmetry_space_group_name_H-M	'P1'
_symmetry_Int_Tables_number	1
_symmetry_cell_setting	triclinic
loop_
_symmetry_equiv_pos_as_xyz
  x,y,z
_cell_length_a	19.188933
_cell_length_b	19.288865
_cell_length_c	17.766277
_cell_angle_alpha	89.989546
_cell_angle_beta	90.007983
_cell_angle_gamma	96.859092
loop_
_atom_site_label
_atom_site_type_symbol
_atom_site_fract_x
_atom_site_fract_y
_atom_site_fract_z
O1	O	0.926142	-0.086723	0.062578
O2	O	1.259476	0.246610	0.395911
O3	O	1.592809	0.579944	0.729244
O4	O	0.722830	-0.098395	0.062586
O5	O	1.056164	0.234938	0.395919
O6	O	1.389497	0.568271	0.729253
O7	O	0.830361	0.008571	0.062567
O8	O	1.163694	0.341904	0.395900
O9	O	1.497028	0.675237	0.729233
O10	O	0.818612	-0.193689	0.062597
O11	O	1.151945	0.139644	0.395930
O12	O	1.485278	0.472978	0.729264
O13	O	0.830342	0.008574	-0.062622
O14	O	1.163675	0.341907	0.270711
O15	O	1.497009	0.675240	0.604045
O16	O	0.722811	-0.098392	-0.062603
O17	O	1.056145	0.234941	0.270731
O18	O	1.389478	0.568275	0.604064
O19	O	0.926123	-0.086720	-0.062611
O20	O	1.259456	0.246613	0.270723
O21	O	1.592790	0.579947	0.604056
Cu22	Cu	0.824465	-0.092556	-0.074037
Cu23	Cu	1.157799	0.240778	0.259296
Cu24	Cu	1.491132	0.574111	0.592629
Cu25	Cu	0.824488	-0.092559	0.074013
Cu26	Cu	1.157821	0.240774	0.407346
Cu27	Cu	1.491155	0.574107	0.740679
O28	O	0.818592	-0.193686	-0.062592
O29	O	1.151926	0.139647	0.270742
O30	O	1.485259	0.472981	0.604075
C31	C	0.696810	-0.098015	-0.000008
C32	C	1.030143	0.235318	0.333326
C33	C	1.363476	0.568651	0.666659
C34	C	0.619305	-0.096880	-0.000005
C35	C	0.952639	0.236453	0.333328
C36	C	1.285972	0.569787	0.666662
C37	C	0.066061	-0.088779	0.068226
C38	C	0.399394	0.244555	0.401559
C39	C	0.732728	0.577888	0.734893
C40	C	0.138885	-0.089841	0.068229
C41	C	0.472219	0.243492	0.401562
C42	C	0.805552	0.576825	0.734896
C43	C	0.175292	-0.090374	-0.000011
C44	C	0.508625	0.242959	0.333322
C45	C	0.841958	0.576292	0.666656
C46	C	0.138870	-0.089827	-0.068259
C47	C	0.472204	0.243507	0.265074
C48	C	0.805537	0.576840	0.598408
C49	C	0.066049	-0.088757	-0.068260
C50	C	0.399382	0.244576	0.265073
C51	C	0.732715	0.577910	0.598406
N52	N	0.284301	-0.131577	-0.050799
N53	N	0.617634	0.201756	0.282534
N54	N	0.950968	0.535089	0.615868
N55	N	0.353478	-0.132595	-0.050793
N56	N	0.686812	0.200739	0.282540
N57	N	1.020145	0.534072	0.615873
C58	C	0.394700	-0.093595	-0.000012
C59	C	0.728034	0.239738	0.333322
C60	C	1.061367	0.573071	0.666655
N61	N	0.364130	-0.053549	0.050775
N62	N	0.697463	0.279785	0.384109
N63	N	1.030797	0.613118	0.717442
N64	N	0.294946	-0.052534	0.050772
N65	N	0.628279	0.280799	0.384105
N66	N	0.961612	0.614133	0.717438
C67	C	0.254255	-0.091534	-0.000017
C68	C	0.587588	0.241800	0.333316
C69	C	0.920922	0.575133	0.666649
C70	C	0.510078	-0.095290	0.068235
C71	C	0.843411	0.238043	0.401569
C72	C	1.176744	0.571377	0.734902
C73	C	0.582904	-0.096348	0.068236
C74	C	0.916237	0.236985	0.401569
C75	C	1.249571	0.570318	0.734902
C76	C	0.582887	-0.096341	-0.068254
C77	C	0.916220	0.236993	0.265079
C78	C	1.249553	0.570326	0.598412
C79	C	0.510063	-0.095275	-0.068253
C80	C	0.843396	0.238058	0.265081
C81	C	1.176730	0.571391	0.598414
C82	C	0.473662	-0.094754	-0.000006
C83	C	0.806996	0.238580	0.333328
C84	C	1.140329	0.571913	0.666661
C85	C	0.829973	0.034449	-0.000030
C86	C	1.163307	0.367782	0.333304
C87	C	1.496640	0.701115	0.666637
C88	C	0.828839	0.111552	-0.000036
C89	C	1.162172	0.444886	0.333297
C90	C	1.495505	0.778219	0.666630
C91	C	0.952144	-0.087100	-0.000016
C92	C	1.285477	0.246234	0.333318
C93	C	1.618810	0.579567	0.666651
C94	C	1.029648	-0.088235	-0.000013
C95	C	1.362981	0.245098	0.333320
C96	C	1.696315	0.578432	0.666653
C97	C	0.818980	-0.219564	0.000007
C98	C	1.152313	0.113769	0.333340
C99	C	1.485647	0.447103	0.666673
C100	C	0.820115	-0.296668	0.000018
C101	C	1.153448	0.036666	0.333351
C102	C	1.486782	0.369999	0.666685
N103	N	0.824455	-0.092553	-0.178168
N104	N	1.157788	0.240781	0.155166
N105	N	1.491121	0.574114	0.488499
C106	C	0.891933	0.156244	-0.000043
C107	C	1.225266	0.489577	0.333291
C108	C	1.558599	0.822910	0.666624
C109	C	0.890867	0.228691	-0.000031
C110	C	1.224200	0.562024	0.333303
C111	C	1.557533	0.895357	0.666636
C112	C	0.826703	0.256443	-0.000028
C113	C	1.160036	0.589777	0.333306
C114	C	1.493369	0.923110	0.666639
C115	C	0.763600	0.211742	-0.000017
C116	C	1.096933	0.545076	0.333316
C117	C	1.430267	0.878409	0.666650
C118	C	0.764668	0.139297	-0.000022
C119	C	1.098001	0.472630	0.333312
C120	C	1.431335	0.805964	0.666645
C121	C	0.776255	0.364736	-0.043876
C122	C	1.109589	0.698069	0.289457
C123	C	1.442922	1.031403	0.622790
C124	C	0.775190	0.437181	-0.043877
C125	C	1.108523	0.770514	0.289457
C126	C	1.441857	1.103847	0.622790
C127	C	0.823406	0.479889	-0.000011
C128	C	1.156739	0.813223	0.333323
C129	C	1.490073	1.146556	0.666656
C130	C	0.872699	0.450146	0.043846
C131	C	1.206032	0.783479	0.377179
C132	C	1.539366	1.116813	0.710513
C133	C	0.873767	0.377701	0.043842
C134	C	1.207100	0.711034	0.377175
C135	C	1.540434	1.044367	0.710508
C136	C	0.825537	0.334998	-0.000022
C137	C	1.158871	0.668331	0.333311
C138	C	1.492204	1.001664	0.666644
C139	C	0.885348	0.603137	-0.000003
C140	C	1.218682	0.936470	0.333331
C141	C	1.552015	1.269803	0.666664
C142	C	0.884279	0.675585	0.000014
C143	C	1.217613	1.008918	0.333347
C144	C	1.550946	1.342251	0.666680
C145	C	0.757011	0.658635	0.000020
C146	C	1.090345	0.991968	0.333353
C147	C	1.423678	1.325302	0.666686
C148	C	0.758082	0.586188	0.000011
C149	C	1.091415	0.919522	0.333344
C150	C	1.424749	1.252855	0.666677
C151	C	0.822252	0.558444	-0.000004
C152	C	1.155586	0.891777	0.333329
C153	C	1.488919	1.225110	0.666663
C154	C	0.866660	-0.134580	-0.217543
C155	C	1.199994	0.198753	0.115790
C156	C	1.533327	0.532087	0.449123
C157	C	0.866671	-0.134578	-0.296345
C158	C	1.200005	0.198755	0.036988
C159	C	1.533338	0.532089	0.370321
C160	C	0.824464	-0.092557	-0.335768
C161	C	1.157797	0.240776	-0.002435
C162	C	1.491130	0.574110	0.330898
C163	C	0.782255	-0.050521	-0.296383
C164	C	1.115589	0.282812	0.036950
C165	C	1.448922	0.616146	0.370284
C166	C	0.782251	-0.050519	-0.217583
C167	C	1.115584	0.282814	0.115751
C168	C	1.448917	0.616148	0.449084
C169	C	0.761526	-0.090795	-0.460626
C170	C	1.094859	0.242538	-0.127292
C171	C	1.428192	0.575872	0.206041
C172	C	0.761529	-0.090802	-0.539425
C173	C	1.094862	0.242531	-0.206091
C174	C	1.428195	0.575865	0.127242
C175	C	0.824478	-0.092559	-0.578815
C176	C	1.157811	0.240774	-0.245481
C177	C	1.491145	0.574108	0.087852
C178	C	0.887425	-0.094324	-0.539396
C179	C	1.220759	0.239010	-0.206063
C180	C	1.554092	0.572343	0.127271
C181	C	0.887421	-0.094322	-0.460596
C182	C	1.220754	0.239012	-0.127263
C183	C	1.554088	0.572345	0.206071
C184	C	0.824464	-0.092554	-0.421214
C185	C	1.157797	0.240779	-0.087881
C186	C	1.491131	0.574113	0.245453
C187	C	0.866699	-0.134586	-0.703636
C188	C	1.200033	0.198747	-0.370303
C189	C	1.533366	0.532080	-0.036970
C190	C	0.866712	-0.134579	-0.782440
C191	C	1.200045	0.198754	-0.449106
C192	C	1.533378	0.532087	-0.115773
C193	C	0.782289	-0.050526	-0.782476
C194	C	1.115623	0.282807	-0.449142
C195	C	1.448956	0.616140	-0.115809
C196	C	0.782283	-0.050529	-0.703674
C197	C	1.115617	0.282804	-0.370341
C198	C	1.448950	0.616137	-0.037007
C199	C	0.824487	-0.092563	-0.664259
C200	C	1.157820	0.240770	-0.330926
C201	C	1.491154	0.574104	0.002408
N202	N	0.824505	-0.092557	0.178143
N203	N	1.157838	0.240776	0.511476
N204	N	1.491171	0.574110	0.844810
H205	H	0.612551	-0.096786	0.123806
H206	H	0.945884	0.236547	0.457140
H207	H	1.279218	0.569881	0.790473
F208	F	0.924017	0.495594	0.090536
F209	F	1.257351	0.828928	0.423869
F210	F	1.590684	1.162261	0.757203
H211	H	0.747912	-0.016309	-0.671614
H212	H	1.081245	0.317024	-0.338281
H213	H	1.414579	0.650358	-0.004947
F214	F	0.911639	-0.179310	-0.824346
F215	F	1.244972	0.154024	-0.491013
F216	F	1.578305	0.487357	-0.157679
F217	F	0.027326	-0.088219	0.140861
F218	F	0.360659	0.245114	0.474194
F219	F	0.693992	0.578447	0.807527
F220	F	0.953643	0.573606	-0.000022
F221	F	1.286976	0.906940	0.333311
F222	F	1.620310	1.240273	0.666644
F223	F	0.951437	0.723149	0.000012
F224	F	1.284770	1.056483	0.333345
F225	F	1.618103	1.389816	0.666679
H226	H	0.710260	-0.089369	-0.428561
H227	H	1.043594	0.243965	-0.095228
H228	H	1.376927	0.577298	0.238106
H229	H	0.168517	-0.090259	-0.123821
H230	H	0.501851	0.243074	0.209513
H231	H	0.835184	0.576408	0.542846
F232	F	0.737337	-0.005797	-0.338341
F233	F	1.070670	0.327536	-0.005007
F234	F	1.404003	0.660869	0.328326
F235	F	0.688723	0.688166	0.000027
F236	F	1.022056	1.021500	0.333360
F237	F	1.355389	1.354833	0.666693
H238	H	0.735050	0.461391	-0.079583
H239	H	1.068383	0.794724	0.253750
H240	H	1.401717	1.128058	0.587084
F241	F	0.690928	0.538623	0.000014
F242	F	1.024261	0.871956	0.333348
F243	F	1.357594	1.205289	0.666681
H244	H	0.901029	-0.168804	-0.185457
H245	H	1.234362	0.164529	0.147877
H246	H	1.567695	0.497862	0.481210
H247	H	0.036401	-0.088317	-0.123830
H248	H	0.369734	0.245016	0.209503
H249	H	0.703068	0.578350	0.542836
F250	F	0.471336	-0.094731	0.140869
F251	F	0.804669	0.238603	0.474202
F252	F	1.138002	0.571936	0.807535
H253	H	0.612528	-0.096772	-0.123817
H254	H	0.945862	0.236561	0.209517
H255	H	1.279195	0.569895	0.542850
F256	F	0.737375	-0.005797	-0.824427
F257	F	1.070708	0.327536	-0.491094
F258	F	1.404042	0.660869	-0.157761
H259	H	0.736991	0.329968	-0.079601
H260	H	1.070324	0.663301	0.253732
H261	H	1.403657	0.996634	0.587065
H262	H	0.480415	-0.094835	-0.123820
H263	H	0.813748	0.238498	0.209513
H264	H	1.147081	0.571831	0.542846
F265	F	0.958023	0.276263	-0.000036
F266	F	1.291356	0.609596	0.333297
F267	F	1.624689	0.942930	0.666631
F268	F	0.695312	0.241280	-0.000009
F269	F	1.028646	0.574613	0.333324
F270	F	1.361979	0.907946	0.666658
F271	F	0.697512	0.091731	-0.000015
F272	F	1.030845	0.425065	0.333319
F273	F	1.364178	0.758398	0.666652
F274	F	0.911595	-0.179310	-0.338260
F275	F	1.244928	0.154023	-0.004927
F276	F	1.578261	0.487356	0.328406
F277	F	0.960229	0.126720	-0.000042
F278	F	1.293562	0.460053	0.333291
F279	F	1.626896	0.793387	0.666625
F280	F	0.926223	0.346048	0.090519
F281	F	1.259557	0.679381	0.423852
F282	F	1.592890	1.012714	0.757186
H283	H	0.938675	-0.095757	-0.428504
H284	H	1.272008	0.237576	-0.095171
H285	H	1.605341	0.570910	0.238162
F286	F	0.177647	-0.090421	0.140861
F287	F	0.510980	0.242912	0.474195
F288	F	0.844313	0.576246	0.807528
H289	H	0.747880	-0.016295	-0.185523
H290	H	1.081214	0.317039	0.147810
H291	H	1.414547	0.650372	0.481143
F292	F	0.954426	-0.096194	-0.581311
F293	F	1.287759	0.237139	-0.247978
F294	F	1.621093	0.570472	0.085355
F295	F	0.911628	-0.179309	-0.661685
F296	F	1.244961	0.154024	-0.328352
F297	F	1.578294	0.487357	0.004981
H298	H	0.710273	-0.089369	-0.571513
H299	H	1.043606	0.243965	-0.238180
H300	H	1.376940	0.577298	0.095154
