data_functionalizedCrystal
_audit_creation_method	'MofGen! by Chris Wilmer'
_symmetry_space_group_name_H-M	'P1'
_symmetry_Int_Tables_number	1
_symmetry_cell_setting	triclinic
loop_
_symmetry_equiv_pos_as_xyz
  x,y,z
_cell_length_a	27.731994
_cell_length_b	10.723023
_cell_length_c	9.798715
_cell_angle_alpha	89.996449
_cell_angle_beta	89.994641
_cell_angle_gamma	96.455819
loop_
_atom_site_label
_atom_site_type_symbol
_atom_site_fract_x
_atom_site_fract_y
_atom_site_fract_z
O1	O	-0.067789	1.654349	-0.113459
O2	O	-0.074278	1.290925	-0.113460
O3	O	-0.000705	1.483959	-0.113480
O4	O	-0.141362	1.461315	-0.113439
O5	O	-0.000705	1.483945	0.113502
O6	O	-0.074278	1.290910	0.113523
O7	O	-0.067789	1.654335	0.113523
Zn8	Zn	-0.071033	1.472620	0.149561
Zn9	Zn	-0.071034	1.472639	-0.149497
O10	O	-0.141362	1.461301	0.113544
C11	C	-0.073806	1.244438	0.000031
C12	C	-0.072393	1.105943	0.000029
C13	C	-0.070303	0.901055	0.117607
C14	C	-0.071763	1.044197	0.117611
C15	C	-0.159372	1.461773	0.000058
C16	C	-0.213037	1.463173	0.000073
C17	C	-0.545810	1.471997	-0.123715
C18	C	-0.747502	1.477318	-0.123735
O19	O	-0.773579	1.478066	-0.228961
N20	N	-0.772720	1.477971	-0.000008
C21	C	-0.747513	1.477302	0.123733
O22	O	-0.773590	1.477992	0.228970
C23	C	-0.545822	1.471990	0.123752
C24	C	-0.520607	1.471324	0.000016
C25	C	-0.520595	1.471332	-0.247440
C26	C	-0.470175	1.469995	-0.247434
C27	C	-0.444971	1.469323	-0.123703
C28	C	-0.470187	1.469987	0.000023
C29	C	-0.520615	1.471330	0.247492
C30	C	-0.470189	1.470005	0.247485
C31	C	-0.444974	1.469339	0.123750
C32	C	-0.394564	1.467977	0.123761
N33	N	-0.369345	1.467324	0.000033
C34	C	-0.394549	1.467997	-0.123698
C35	C	-0.853404	1.480088	0.123715
C36	C	-0.903826	1.481414	0.123710
C37	C	-0.903811	1.481432	-0.123759
C38	C	-0.853388	1.480097	-0.123753
C39	C	-0.828185	1.479435	-0.000013
C40	C	-0.288664	1.465188	-0.123676
C41	C	-0.238241	1.463846	-0.123658
C42	C	-0.238260	1.463834	0.123810
C43	C	-0.288679	1.465170	0.123793
C44	C	-0.313880	1.465851	0.000039
O45	O	-0.368455	1.467242	0.228932
O46	O	-0.368461	1.467334	-0.228920
C47	C	-0.596230	1.473334	-0.123721
C48	C	-0.621446	1.473998	0.000004
C49	C	-0.596242	1.473325	0.123735
C50	C	-0.671868	1.475324	-0.000000
C51	C	-0.697072	1.475996	-0.123732
C52	C	-0.671853	1.475343	-0.247459
C53	C	-0.621433	1.474006	-0.247453
C54	C	-0.621461	1.473978	0.247463
C55	C	-0.671880	1.475314	0.247446
C56	C	-0.697084	1.475987	0.123715
C57	C	0.017305	1.483487	0.000003
C58	C	0.070970	1.482087	-0.000021
C59	C	-0.068261	1.700822	0.000030
C60	C	-0.069674	1.839317	0.000023
N61	N	-0.071033	1.472617	0.353661
N62	N	-0.071030	1.472653	-0.353597
C63	C	-0.040005	1.553672	0.421429
C64	C	-0.040004	1.553692	0.578592
H65	H	-0.069764	0.847938	0.218272
N66	N	-0.212492	1.463157	-0.250070
N67	N	-0.235005	1.463758	-0.360532
H68	H	-0.216822	1.463272	-0.449809
N69	N	-0.006680	1.640742	0.651712
N70	N	-0.006724	1.640631	0.779277
H71	H	0.016813	1.702109	0.830922
H72	H	-0.097597	1.403259	0.588134
N73	N	-0.104350	1.385557	0.426825
N74	N	-0.088798	1.308358	0.506591
H75	H	-0.112328	1.246866	0.558262
H76	H	-0.071851	1.052858	-0.100644
H77	H	-0.070218	0.892432	-0.100642
N78	N	-0.006681	1.640695	0.348244
N79	N	-0.006728	1.640552	0.220679
H80	H	0.016809	1.702013	0.168992
H81	H	-0.309177	1.465744	-0.224448
H82	H	-0.924341	1.481971	-0.224506
N83	N	-0.444432	1.469350	-0.373847
N84	N	-0.445905	1.557500	-0.456675
H85	H	-0.427728	1.557053	-0.545965
N86	N	-0.072437	1.110811	0.243894
N87	N	-0.073620	1.226997	0.243720
H88	H	-0.074096	1.274048	0.332910
H89	H	-0.541110	1.471884	-0.348203
N90	N	-0.929589	1.482066	0.250091
N91	N	-0.961893	1.394819	0.277703
H92	H	-0.980087	1.395284	0.366963
H93	H	-0.832861	1.479553	-0.224509
N94	N	-0.827670	1.479418	0.250134
N95	N	-0.850198	1.480003	0.360585
H96	H	-0.832027	1.479528	0.449871
N97	N	-0.546364	1.471994	0.373888
N98	N	-0.544898	1.383864	0.456745
H99	H	-0.563082	1.384334	0.546021
H100	H	-0.449671	1.469466	0.348252
N101	N	-0.314434	1.465818	0.250194
N102	N	-0.291922	1.465202	0.360659
H103	H	-0.310108	1.465665	0.449934
H104	H	-0.600907	1.473464	-0.348211
N105	N	-0.212503	1.463138	0.250181
N106	N	-0.167483	1.461949	0.250152
H107	H	-0.149290	1.461464	0.339402
N108	N	-0.697610	1.476047	-0.373837
N109	N	-0.721578	1.564783	-0.401422
H110	H	-0.739771	1.565288	-0.490670
N111	N	-0.697635	1.475966	0.373849
N112	N	-0.696175	1.387829	0.456702
H113	H	-0.714363	1.388296	0.545972
N114	N	-0.595711	1.473294	0.373845
N115	N	-0.563407	1.560526	0.401471
H116	H	-0.545222	1.560037	0.490735
