data_functionalizedCrystal
_audit_creation_method	'MofGen! by Chris Wilmer'
_symmetry_space_group_name_H-M	'P1'
_symmetry_Int_Tables_number	1
_symmetry_cell_setting	triclinic
loop_
_symmetry_equiv_pos_as_xyz
  x,y,z
_cell_length_a	14.908783
_cell_length_b	21.295417
_cell_length_c	14.909227
_cell_angle_alpha	86.670613
_cell_angle_beta	83.584164
_cell_angle_gamma	93.320338
loop_
_atom_site_label
_atom_site_type_symbol
_atom_site_fract_x
_atom_site_fract_y
_atom_site_fract_z
Zn1	Zn	1.413382	-0.169936	-0.591768
Zn2	Zn	1.404515	-0.281665	-0.440382
Zn3	Zn	1.253266	-0.182846	-0.431667
Zn4	Zn	1.261949	-0.281616	-0.582957
O5	O	1.333278	-0.229016	-0.511693
O6	O	1.538879	-0.179375	-0.579021
O7	O	1.377107	-0.273980	-0.312555
O8	O	1.274584	-0.093040	-0.452944
O9	O	1.532364	-0.261462	-0.467798
O10	O	1.392220	-0.083555	-0.570570
O11	O	1.265985	-0.201379	-0.306152
O12	O	1.127745	-0.201331	-0.444401
O13	O	1.289381	-0.261377	-0.710797
O14	O	1.134124	-0.273896	-0.555554
O15	O	1.400639	-0.179327	-0.717270
O16	O	1.385525	-0.369753	-0.459255
O17	O	1.280783	-0.369716	-0.564005
C18	C	1.098090	-0.239009	-0.498076
C19	C	0.997476	-0.243299	-0.492272
C20	C	0.815205	-0.165985	-0.597358
C21	C	0.720670	-0.170013	-0.591908
C22	C	0.713869	-0.255379	-0.475917
C23	C	0.808404	-0.251351	-0.481367
C24	C	0.859069	-0.206653	-0.542091
C25	C	0.953606	-0.202628	-0.547546
C26	C	0.946803	-0.287992	-0.431550
C27	C	0.852268	-0.292020	-0.426100
C28	C	1.333160	-0.392574	-0.511641
C29	C	1.333194	-0.462541	-0.511654
C30	C	1.394416	-0.490411	-0.572941
C31	C	1.394450	-0.556151	-0.572965
C32	C	1.333269	-0.594019	-0.511686
C33	C	1.272035	-0.566141	-0.450395
C34	C	1.271998	-0.500402	-0.450378
N35	N	1.321857	-0.700949	-0.432072
N36	N	1.321898	-0.763398	-0.432091
C37	C	1.333377	-0.792087	-0.511733
N38	N	1.344831	-0.755968	-0.591360
N39	N	1.344795	-0.693513	-0.591340
C40	C	1.333303	-0.665302	-0.511698
C41	C	1.394639	-0.891240	-0.573052
C42	C	1.394666	-0.956982	-0.573077
C43	C	1.272256	-0.966971	-0.450499
C44	C	1.272224	-0.901230	-0.450481
C45	C	1.333421	-0.863369	-0.511757
C46	C	1.569385	-0.218984	-0.525364
C47	C	1.669999	-0.214709	-0.531190
C48	C	1.346968	-0.218907	-0.747796
C49	C	1.352801	-0.214599	-0.848409
C50	C	1.333422	-0.064817	-0.511767
C51	C	1.333484	0.005155	-0.511799
C52	C	1.418942	-0.165812	-0.993590
C53	C	1.413466	-0.169857	-0.899055
C54	C	1.297611	-0.255299	-0.892305
C55	C	1.303087	-0.251254	-0.986839
C56	C	1.363754	-0.206509	-1.037479
C57	C	1.369226	-0.202461	-1.132015
C58	C	1.253376	-0.287905	-1.125263
C59	C	1.247899	-0.291950	-1.030728
C60	C	1.319694	-0.239038	-0.276512
C61	C	1.314035	-0.243161	-0.175910
H62	H	0.856458	-0.129592	-0.646806
H63	H	1.208428	-0.321037	-1.161006
H64	H	1.458406	-0.136719	-0.863325
H65	H	1.222375	-0.878537	-0.400572
H66	H	1.248226	-0.291733	-0.851059
C67	C	1.461799	-0.586820	-0.640381
C68	C	1.530644	-0.630636	-0.605331
C69	C	1.597992	-0.661304	-0.672747
C70	C	1.596494	-0.648156	-0.775212
C71	C	1.527646	-0.604338	-0.810268
C72	C	1.460298	-0.573670	-0.742853
H73	H	1.531755	-0.640371	-0.529475
H74	H	1.648957	-0.693741	-0.646795
H75	H	1.646349	-0.670859	-0.825117
H76	H	1.526535	-0.594604	-0.886124
H77	H	1.409333	-0.541233	-0.768804
C78	C	1.435959	-0.153244	-1.187721
C79	C	1.510766	-0.174724	-1.256817
C80	C	1.577503	-0.125508	-1.312522
C81	C	1.569433	-0.054812	-1.299129
C82	C	1.494623	-0.033329	-1.230030
C83	C	1.427886	-0.082545	-1.174326
H84	H	1.516742	-0.227060	-1.266734
H85	H	1.632882	-0.141411	-1.363674
H86	H	1.618836	-0.018379	-1.340365
H87	H	1.488646	0.019007	-1.220113
H88	H	1.372507	-0.066642	-1.123174
C89	C	1.009341	-0.153461	-0.614336
C90	C	1.002330	-0.154846	-0.716479
C91	C	1.058063	-0.105676	-0.783269
C92	C	1.120807	-0.055120	-0.747915
C93	C	1.127821	-0.053733	-0.645767
C94	C	1.072088	-0.102904	-0.578977
H95	H	0.955881	-0.192272	-0.742655
H96	H	1.052870	-0.106703	-0.858886
H97	H	1.162063	-0.018721	-0.797357
H98	H	1.174270	-0.016307	-0.619591
H99	H	1.077281	-0.101877	-0.503360
H100	H	0.672601	-0.291763	-0.426469
C101	C	0.672419	-0.125279	-0.652706
C102	C	0.691406	-0.125563	-0.756347
C103	C	0.643155	-0.080826	-0.817147
C104	C	0.575918	-0.035805	-0.774305
C105	C	0.556928	-0.035519	-0.670658
C106	C	0.605179	-0.080256	-0.609858
H107	H	0.741182	-0.158892	-0.788067
H108	H	0.657213	-0.081038	-0.893874
H109	H	0.540199	-0.002688	-0.819312
H110	H	0.507152	-0.002191	-0.638939
H111	H	0.591121	-0.080044	-0.533132
H112	H	1.222436	-0.997802	-0.400610
H113	H	0.982527	-0.321111	-0.386554
C114	C	0.796531	-0.341187	-0.359310
C115	C	0.727422	-0.319648	-0.284564
C116	C	0.671687	-0.368818	-0.217775
C117	C	0.685061	-0.439526	-0.225733
C118	C	0.754174	-0.461068	-0.300482
C119	C	0.809909	-0.411898	-0.367271
H120	H	0.717518	-0.267303	-0.278670
H121	H	0.620525	-0.352871	-0.162441
H122	H	0.643802	-0.475924	-0.176292
H123	H	0.764077	-0.513413	-0.306376
H124	H	0.861071	-0.427845	-0.422605
C125	C	1.461716	-0.448764	-0.640356
C126	C	1.529052	-0.479427	-0.707782
C127	C	1.596347	-0.437778	-0.775203
C128	C	1.596306	-0.365467	-0.775198
C129	C	1.528967	-0.334801	-0.707769
C130	C	1.461672	-0.376449	-0.640348
H131	H	1.529085	-0.532959	-0.707789
H132	H	1.646196	-0.460480	-0.825118
H133	H	1.646121	-0.334637	-0.825107
H134	H	1.528934	-0.281269	-0.707763
H135	H	1.411824	-0.353748	-0.590433
H136	H	1.222220	-0.596977	-0.400503
H137	H	1.222142	-0.477710	-0.400470
C138	C	1.181179	-0.341171	-0.975014
C139	C	1.106374	-0.319700	-0.905909
C140	C	1.039657	-0.368923	-0.850194
C141	C	1.047744	-0.439617	-0.863584
C142	C	1.122552	-0.461092	-0.932693
C143	C	1.189270	-0.411869	-0.988408
H144	H	1.100385	-0.267364	-0.895994
H145	H	0.984279	-0.353025	-0.799035
H146	H	0.998356	-0.476055	-0.822341
H147	H	1.128542	-0.513428	-0.942608
H148	H	1.244648	-0.427767	-1.039567
H149	H	1.444466	-0.860412	-0.622949
H150	H	1.468331	-0.129373	-1.034820
H151	H	1.444520	-0.979672	-0.622988
