data_functionalizedCrystal
_audit_creation_method	'MofGen! by Chris Wilmer'
_symmetry_space_group_name_H-M	'P1'
_symmetry_Int_Tables_number	1
_symmetry_cell_setting	triclinic
loop_
_symmetry_equiv_pos_as_xyz
  x,y,z
_cell_length_a	6.817900
_cell_length_b	19.551136
_cell_length_c	19.551749
_cell_angle_alpha	96.352659
_cell_angle_beta	101.661913
_cell_angle_gamma	101.650842
loop_
_atom_site_label
_atom_site_type_symbol
_atom_site_fract_x
_atom_site_fract_y
_atom_site_fract_z
V1	V	-3.997194	-0.097410	-0.218204
O2	O	-3.994594	0.003928	-0.213696
O3	O	-3.939946	-0.192423	-0.217052
O4	O	-3.939989	-0.096242	-0.313215
O5	O	-3.994551	-0.092919	-0.116868
V6	V	-4.483110	-0.085249	-0.206042
O7	O	-4.253205	-0.124084	-0.244883
O8	O	-4.677296	-0.058575	-0.179364
O9	O	-4.317151	0.009764	-0.207194
O10	O	-4.603106	-0.186587	-0.210550
O11	O	-4.603150	-0.089740	-0.307379
O12	O	-4.317108	-0.086417	-0.111031
C13	C	-3.783079	-0.215574	-0.213698
C14	C	-3.817500	-0.293251	-0.213390
C15	C	-3.800387	-0.319526	-0.149212
C16	C	-3.832802	-0.392509	-0.148901
C17	C	-3.882291	-0.439215	-0.212770
C18	C	-3.899416	-0.412933	-0.276956
C19	C	-3.867021	-0.339951	-0.277266
C20	C	-3.842511	-0.560381	-0.259080
C21	C	-3.874892	-0.633361	-0.258767
C22	C	-3.982221	-0.664315	-0.211817
C23	C	-4.057132	-0.622279	-0.165168
C24	C	-4.024736	-0.549297	-0.165477
C25	C	-3.917424	-0.518352	-0.212441
C26	C	-4.000257	-0.769726	-0.147298
C27	C	-4.032686	-0.842712	-0.146990
C28	C	-4.099280	-0.863134	-0.275046
C29	C	-4.066870	-0.790150	-0.275353
C30	C	-4.017350	-0.743450	-0.211477
C31	C	-3.783134	-0.092885	-0.336362
C32	C	-3.817588	-0.092559	-0.414037
C33	C	-3.867021	-0.156430	-0.460726
C34	C	-3.899417	-0.156131	-0.533711
C35	C	-3.882336	-0.091956	-0.560002
C36	C	-3.832905	-0.028077	-0.513303
C37	C	-3.800531	-0.028378	-0.440320
C38	C	-3.791524	-0.040180	-0.665517
C39	C	-3.823887	-0.039881	-0.738498
C40	C	-3.982197	-0.091024	-0.785105
C41	C	-4.108121	-0.142478	-0.758722
C42	C	-4.075747	-0.142779	-0.685739
C43	C	-3.917438	-0.091622	-0.639138
C44	C	-4.066764	-0.154575	-0.910933
C45	C	-4.099171	-0.154274	-0.983919
C46	C	-4.032638	-0.026218	-0.963509
C47	C	-4.000252	-0.026522	-0.890525
C48	C	-4.017308	-0.090702	-0.864242
C49	C	-4.137360	0.032912	-0.210547
C50	C	-4.082177	0.110587	-0.210860
C51	C	-4.137306	-0.089776	-0.087880
C52	C	-4.082091	-0.090099	-0.010205
H53	H	-3.880965	-0.318560	-0.329529
O54	O	-4.172888	-0.655657	-0.114522
H55	H	-4.219515	-0.614166	-0.082134
O56	O	-3.952705	-0.225024	-0.584078
H57	H	-4.098101	-0.258412	-0.577635
O58	O	-3.794117	-0.678700	-0.309083
H59	H	-3.714085	-0.644919	-0.341794
O60	O	-3.747169	0.040516	-0.389958
H61	H	-3.866495	0.040832	-0.358886
O62	O	-4.152669	-0.913497	-0.343938
H63	H	-4.033353	-0.944580	-0.344250
O64	O	-3.885421	-0.225649	-0.432375
H65	H	-3.925251	-0.270013	-0.477108
O66	O	-4.211736	-0.198208	-0.657273
H67	H	-4.327336	-0.233699	-0.701935
O68	O	-4.085381	-0.761791	-0.344568
H69	H	-3.936579	-0.726359	-0.345164
H70	H	-3.818862	-0.413906	-0.096638
O71	O	-3.726731	-0.526995	-0.309718
H72	H	-3.680052	-0.568482	-0.342094
H73	H	-3.721343	0.002013	-0.759973
O74	O	-3.746953	-0.269155	-0.080320
H75	H	-3.740501	-0.299691	-0.035641
O76	O	-4.105424	-0.503949	-0.115141
H77	H	-4.185470	-0.537727	-0.082431
O78	O	-4.278894	-0.197643	-0.808978
H79	H	-4.280277	-0.188786	-0.864160
H80	H	-3.959987	0.025489	-0.852509
O81	O	-3.952799	-0.463302	-0.345846
H82	H	-3.972434	-0.518465	-0.334849
H83	H	-4.080655	-0.206835	-0.889532
O84	O	-4.152446	-0.223165	-1.034282
H85	H	-4.158827	-0.267840	-1.003740
O86	O	-4.014201	0.043002	-0.991854
H87	H	-4.045005	0.032483	-1.050447
O88	O	-3.620757	0.014982	-0.615249
H89	H	-3.538613	0.050801	-0.645854
H90	H	-3.819005	0.024174	-0.534714
H91	H	-4.018761	-0.864102	-0.094727
O92	O	-3.946871	-0.719350	-0.078409
H93	H	-3.940452	-0.749886	-0.033728
