data_functionalizedCrystal
_audit_creation_method	'MofGen! by Chris Wilmer'
_symmetry_space_group_name_H-M	'P1'
_symmetry_Int_Tables_number	1
_symmetry_cell_setting	triclinic
loop_
_symmetry_equiv_pos_as_xyz
  x,y,z
_cell_length_a	6.817900
_cell_length_b	11.102233
_cell_length_c	16.418042
_cell_angle_alpha	93.891614
_cell_angle_beta	103.389568
_cell_angle_gamma	108.604751
loop_
_atom_site_label
_atom_site_type_symbol
_atom_site_fract_x
_atom_site_fract_y
_atom_site_fract_z
V1	V	-4.051819	-0.176873	-0.261158
O2	O	-4.011990	0.007437	-0.256182
O3	O	-4.029002	-0.349687	-0.259376
O4	O	-4.002559	-0.174619	-0.375056
O5	O	-4.038617	-0.168844	-0.139701
V6	V	-4.532243	-0.154772	-0.246630
O7	O	-4.319874	-0.225353	-0.293026
O8	O	-4.714385	-0.106293	-0.214763
O9	O	-4.331853	0.018042	-0.248412
O10	O	-4.689469	-0.339082	-0.251606
O11	O	-4.662842	-0.162802	-0.368087
O12	O	-4.358297	-0.157027	-0.132732
C13	C	-3.880255	-0.391801	-0.255257
C14	C	-3.942881	-0.533082	-0.254560
C15	C	-4.214200	-0.738693	-0.257746
C16	C	-4.155360	-0.605946	-0.258407
C17	C	-3.789226	-0.592969	-0.250042
C18	C	-3.848063	-0.725712	-0.249375
C19	C	-4.425586	-0.746185	-0.262580
C20	C	-4.366747	-0.613438	-0.263241
C21	C	-3.846522	-0.168482	-0.402818
C22	C	-3.887699	-0.167783	-0.495930
C23	C	-4.165422	-0.172510	-0.714416
C24	C	-4.204091	-0.171842	-0.801903
C25	C	-3.837996	-0.159129	-0.793360
C26	C	-3.799324	-0.159788	-0.705874
C27	C	-3.963048	-0.166485	-0.666404
C28	C	-4.040388	-0.165158	-0.841379
C29	C	-4.082314	-0.164433	-0.936236
C30	C	-3.921119	-0.167208	-0.571540
C31	C	-4.143944	0.060149	-0.252529
C32	C	-4.060557	0.201428	-0.253232
C33	C	-4.177676	-0.163167	-0.104966
C34	C	-4.115737	-0.163860	-0.011853
H35	H	-4.489984	-0.770908	-0.205366
H36	H	-3.722938	-0.774456	-0.245683
F37	F	-3.663770	-0.152014	-0.835375
F38	F	-4.339669	-0.179633	-0.672412
F39	F	-4.579166	-0.822167	-0.343708
H40	H	-3.634515	-0.154872	-0.666780
F41	F	-4.419483	-0.178254	-0.852997
H42	H	-3.616213	-0.533630	-0.246902
F43	F	-4.384489	-0.543539	-0.186054
F44	F	-4.494735	-0.588631	-0.342869
