data_functionalizedCrystal
_audit_creation_method	'MofGen! by Chris Wilmer'
_symmetry_space_group_name_H-M	'P1'
_symmetry_Int_Tables_number	1
_symmetry_cell_setting	triclinic
loop_
_symmetry_equiv_pos_as_xyz
  x,y,z
_cell_length_a	25.639242
_cell_length_b	25.639239
_cell_length_c	25.639233
_cell_angle_alpha	89.981253
_cell_angle_beta	90.022166
_cell_angle_gamma	89.965787
loop_
_atom_site_label
_atom_site_type_symbol
_atom_site_fract_x
_atom_site_fract_y
_atom_site_fract_z
Zn1	Zn	0.799225	0.208277	0.295742
Zn2	Zn	1.049225	0.458277	0.545742
Zn3	Zn	1.299225	0.708277	0.795742
Zn4	Zn	1.549225	0.958277	1.045742
Zn5	Zn	0.799149	0.295696	0.208307
Zn6	Zn	1.049149	0.545696	0.458307
Zn7	Zn	1.299149	0.795696	0.708307
Zn8	Zn	1.549149	1.045696	0.958307
Zn9	Zn	0.711801	0.208269	0.208306
Zn10	Zn	0.961801	0.458269	0.458306
Zn11	Zn	1.211801	0.708269	0.708306
Zn12	Zn	1.461801	0.958269	0.958306
Zn13	Zn	0.711746	0.295676	0.295696
Zn14	Zn	0.961746	0.545676	0.545696
Zn15	Zn	1.211746	0.795676	0.795696
Zn16	Zn	1.461746	1.045676	1.045696
O17	O	0.755480	0.251979	0.252013
O18	O	1.005480	0.501979	0.502013
O19	O	1.255480	0.751979	0.752013
O20	O	1.505480	1.001979	1.002013
O21	O	0.872380	0.219884	0.284163
O22	O	1.122380	0.469884	0.534163
O23	O	1.372380	0.719884	0.784163
O24	O	1.622380	0.969884	1.034163
O25	O	0.787553	0.284103	0.135141
O26	O	1.037553	0.534103	0.385141
O27	O	1.287553	0.784103	0.635141
O28	O	1.537553	1.034103	0.885141
O29	O	0.723453	0.135105	0.219924
O30	O	0.973453	0.385105	0.469924
O31	O	1.223453	0.635105	0.719924
O32	O	1.473453	0.885105	0.969924
O33	O	0.872324	0.284111	0.219924
O34	O	1.122324	0.534111	0.469924
O35	O	1.372324	0.784111	0.719924
O36	O	1.622324	1.034111	0.969924
O37	O	0.787683	0.135111	0.284163
O38	O	1.037683	0.385111	0.534163
O39	O	1.287683	0.635111	0.784163
O40	O	1.537683	0.885111	1.034163
O41	O	0.723379	0.219871	0.135141
O42	O	0.973379	0.469871	0.385141
O43	O	1.223379	0.719871	0.635141
O44	O	1.473379	0.969871	0.885141
O45	O	0.638629	0.219853	0.219880
O46	O	0.888629	0.469853	0.469880
O47	O	1.138629	0.719853	0.719880
O48	O	1.388629	0.969853	0.969880
O49	O	0.723360	0.284078	0.368868
O50	O	0.973360	0.534078	0.618868
O51	O	1.223360	0.784078	0.868868
O52	O	1.473360	1.034078	1.118868
O53	O	0.638589	0.284070	0.284085
O54	O	0.888589	0.534070	0.534085
O55	O	1.138589	0.784070	0.784085
O56	O	1.388589	1.034070	1.034085
O57	O	0.787630	0.219866	0.368901
O58	O	1.037630	0.469866	0.618901
O59	O	1.287630	0.719866	0.868901
O60	O	1.537630	0.969866	1.118901
O61	O	0.787499	0.368858	0.219880
O62	O	1.037499	0.618858	0.469880
O63	O	1.287499	0.868858	0.719880
O64	O	1.537499	1.118858	0.969880
O65	O	0.723286	0.368844	0.284085
O66	O	0.973286	0.618844	0.534085
O67	O	1.223286	0.868844	0.784085
O68	O	1.473286	1.118844	1.034085
C69	C	0.619638	0.251959	0.251977
C70	C	0.869638	0.501959	0.501977
C71	C	1.119638	0.751959	0.751977
C72	C	1.369638	1.001959	1.001977
C73	C	0.561524	0.251963	0.251975
C74	C	0.811524	0.501963	0.501975
C75	C	1.061524	0.751963	0.751975
C76	C	1.311524	1.001963	1.001975
C77	C	0.755392	0.387822	0.251989
C78	C	1.005392	0.637822	0.501989
C79	C	1.255392	0.887822	0.751989
C80	C	1.505392	1.137822	1.001989
C81	C	0.755403	0.445936	0.251996
C82	C	1.005403	0.695936	0.501996
C83	C	1.255403	0.945936	0.751996
C84	C	1.505403	1.195936	1.001996
C85	C	0.201149	0.285473	0.285413
C86	C	0.451149	0.535473	0.535413
C87	C	0.701149	0.785473	0.785413
C88	C	0.951149	1.035473	1.035413
C89	C	0.146544	0.285477	0.285421
C90	C	0.396544	0.535477	0.535421
C91	C	0.646544	0.785477	0.785421
C92	C	0.896544	1.035477	1.035421
O93	O	0.118297	0.313943	0.313821
O94	O	0.368297	0.563943	0.563821
O95	O	0.618297	0.813943	0.813821
O96	O	0.868297	1.063943	1.063821
N97	N	0.119241	0.251994	0.252047
N98	N	0.369241	0.501994	0.502047
N99	N	0.619241	0.751994	0.752047
N100	N	0.869241	1.001994	1.002047
C101	C	0.146545	0.218502	0.218666
C102	C	0.396545	0.468502	0.468666
C103	C	0.646545	0.718502	0.718666
C104	C	0.896545	0.968502	0.968666
O105	O	0.118308	0.190022	0.190280
O106	O	0.368308	0.440022	0.440280
O107	O	0.618308	0.690022	0.690280
O108	O	0.868308	0.940022	0.940280
C109	C	0.201149	0.218496	0.218661
C110	C	0.451149	0.468496	0.468661
C111	C	0.701149	0.718496	0.718661
C112	C	0.951149	0.968496	0.968661
C113	C	0.228449	0.251985	0.252034
C114	C	0.478449	0.501985	0.502034
C115	C	0.728449	0.751985	0.752034
C116	C	0.978449	1.001985	1.002034
C117	C	0.228449	0.318959	0.318783
C118	C	0.478449	0.568959	0.568783
C119	C	0.728449	0.818959	0.818783
C120	C	0.978449	1.068959	1.068783
C121	C	0.283049	0.318956	0.318774
C122	C	0.533049	0.568956	0.568774
C123	C	0.783049	0.818956	0.818774
C124	C	1.033049	1.068956	1.068774
C125	C	0.310350	0.285468	0.285395
C126	C	0.560350	0.535468	0.535395
C127	C	0.810350	0.785468	0.785395
C128	C	1.060350	1.035468	1.035395
C129	C	0.283049	0.251983	0.252024
C130	C	0.533049	0.501983	0.502024
C131	C	0.783049	0.751983	0.752024
C132	C	1.033049	1.001983	1.002024
C133	C	0.228452	0.185002	0.185283
C134	C	0.478452	0.435002	0.435283
C135	C	0.728452	0.685002	0.685283
C136	C	0.978452	0.935002	0.935283
C137	C	0.283059	0.185000	0.185281
C138	C	0.533059	0.435000	0.435281
C139	C	0.783059	0.685000	0.685281
C140	C	1.033059	0.935000	0.935281
C141	C	0.310359	0.218488	0.218654
C142	C	0.560359	0.468488	0.468654
C143	C	0.810359	0.718488	0.718654
C144	C	1.060359	0.968488	0.968654
C145	C	0.364950	0.218492	0.218636
C146	C	0.614950	0.468492	0.468636
C147	C	0.864950	0.718492	0.718636
C148	C	1.114950	0.968492	0.968636
N149	N	0.392253	0.251974	0.252010
N150	N	0.642253	0.501974	0.502010
N151	N	0.892253	0.751974	0.752010
N152	N	1.142253	1.001974	1.002010
C153	C	0.364953	0.285463	0.285389
C154	C	0.614953	0.535463	0.535389
C155	C	0.864953	0.785463	0.785389
C156	C	1.114953	1.035463	1.035389
C157	C	0.031875	0.218515	0.218680
C158	C	0.281875	0.468515	0.468680
C159	C	0.531875	0.718515	0.718680
C160	C	0.781875	0.968515	0.968680
C161	C	-0.022728	0.218523	0.218683
C162	C	0.227272	0.468523	0.468683
C163	C	0.477272	0.718523	0.718683
C164	C	0.727272	0.968523	0.968683
C165	C	-0.022725	0.285497	0.285438
C166	C	0.227275	0.535497	0.535438
C167	C	0.477275	0.785497	0.785438
C168	C	0.727275	1.035497	1.035438
C169	C	0.031878	0.285492	0.285433
C170	C	0.281878	0.535492	0.535433
C171	C	0.531878	0.785492	0.785433
C172	C	0.781878	1.035492	1.035433
C173	C	0.059178	0.251998	0.252054
C174	C	0.309178	0.501998	0.502054
C175	C	0.559178	0.751998	0.752054
C176	C	0.809178	1.001998	1.002054
C177	C	0.479618	0.285455	0.285368
C178	C	0.729618	0.535455	0.535368
C179	C	0.979618	0.785455	0.785368
C180	C	1.229618	1.035455	1.035368
C181	C	0.534223	0.285451	0.285354
C182	C	0.784223	0.535451	0.535354
C183	C	1.034223	0.785451	0.785354
C184	C	1.284223	1.035451	1.035354
C185	C	0.534216	0.218475	0.218601
C186	C	0.784216	0.468475	0.468601
C187	C	1.034216	0.718475	0.718601
C188	C	1.284216	0.968475	0.968601
C189	C	0.479615	0.218481	0.218612
C190	C	0.729615	0.468481	0.468612
C191	C	0.979615	0.718481	0.718612
C192	C	1.229615	0.968481	0.968612
C193	C	0.452318	0.251972	0.252000
C194	C	0.702318	0.501972	0.502000
C195	C	0.952318	0.751972	0.752000
C196	C	1.202318	1.001972	1.002000
O197	O	0.393232	0.190038	0.190252
O198	O	0.643232	0.440038	0.440252
O199	O	0.893232	0.690038	0.690252
O200	O	1.143232	0.940038	0.940252
O201	O	0.393197	0.313933	0.313776
O202	O	0.643197	0.563933	0.563776
O203	O	0.893197	0.813933	0.813776
O204	O	1.143197	1.063933	1.063776
C205	C	0.755497	0.251970	0.388386
C206	C	1.005497	0.501970	0.638386
C207	C	1.255497	0.751970	0.888386
C208	C	1.505497	1.001970	1.138386
C209	C	0.755504	0.251966	0.446500
C210	C	1.005504	0.501966	0.696500
C211	C	1.255504	0.751966	0.946500
C212	C	1.505504	1.001966	1.196500
C213	C	0.891853	0.252000	0.252049
C214	C	1.141853	0.502000	0.502049
C215	C	1.391853	0.752000	0.752049
C216	C	1.641853	1.002000	1.002049
C217	C	0.949967	0.252009	0.252064
C218	C	1.199967	0.502009	0.502064
C219	C	1.449967	0.752009	0.752064
C220	C	1.699967	1.002009	1.002064
C221	C	0.755583	0.115606	0.252048
C222	C	1.005583	0.365606	0.502048
C223	C	1.255583	0.615606	0.752048
C224	C	1.505583	0.865606	1.002048
C225	C	0.755627	0.057492	0.252064
C226	C	1.005627	0.307492	0.502064
C227	C	1.255627	0.557492	0.752064
C228	C	1.505627	0.807492	1.002064
C229	C	0.789004	0.806294	0.218638
C230	C	1.039004	1.056294	0.468638
C231	C	1.289004	1.306294	0.718638
C232	C	1.539004	1.556294	0.968638
C233	C	0.789024	0.860898	0.218645
C234	C	1.039024	1.110898	0.468645
C235	C	1.289024	1.360898	0.718645
C236	C	1.539024	1.610898	0.968645
O237	O	0.817502	0.889131	0.190257
O238	O	1.067502	1.139131	0.440257
O239	O	1.317502	1.389131	0.690257
O240	O	1.567502	1.639131	0.940257
N241	N	0.755572	0.888218	0.252048
N242	N	1.005572	1.138218	0.502048
N243	N	1.255572	1.388218	0.752048
N244	N	1.505572	1.638218	1.002048
C245	C	0.722102	0.860932	0.285449
C246	C	0.972102	1.110932	0.535449
C247	C	1.222102	1.360932	0.785449
C248	C	1.472102	1.610932	1.035449
O249	O	0.693651	0.889184	0.313861
O250	O	0.943651	1.139184	0.563861
O251	O	1.193651	1.389184	0.813861
O252	O	1.443651	1.639184	1.063861
C253	C	0.722085	0.806328	0.285444
C254	C	0.972085	1.056328	0.535444
C255	C	1.222085	1.306328	0.785444
C256	C	1.472085	1.556328	1.035444
C257	C	0.755535	0.779011	0.252036
C258	C	1.005535	1.029011	0.502036
C259	C	1.255535	1.279011	0.752036
C260	C	1.505535	1.529011	1.002036
C261	C	0.822452	0.778976	0.185233
C262	C	1.072452	1.028976	0.435233
C263	C	1.322452	1.278976	0.685233
C264	C	1.572452	1.528976	0.935233
C265	C	0.822431	0.724376	0.185226
C266	C	1.072431	0.974376	0.435226
C267	C	1.322431	1.224376	0.685226
C268	C	1.572431	1.474376	0.935226
C269	C	0.788962	0.697093	0.218623
C270	C	1.038962	0.947093	0.468623
C271	C	1.288962	1.197093	0.718623
C272	C	1.538962	1.447093	0.968623
C273	C	0.755514	0.724410	0.252028
C274	C	1.005514	0.974410	0.502028
C275	C	1.255514	1.224410	0.752028
C276	C	1.505514	1.474410	1.002028
C277	C	0.688617	0.779042	0.318847
C278	C	0.938617	1.029042	0.568847
C279	C	1.188617	1.279042	0.818847
C280	C	1.438617	1.529042	1.068847
C281	C	0.688603	0.724435	0.318840
C282	C	0.938603	0.974435	0.568840
C283	C	1.188603	1.224435	0.818840
C284	C	1.438603	1.474435	1.068840
C285	C	0.722053	0.697118	0.285432
C286	C	0.972053	0.947118	0.535432
C287	C	1.222053	1.197118	0.785432
C288	C	1.472053	1.447118	1.035432
C289	C	0.722024	0.642527	0.285418
C290	C	0.972024	0.892527	0.535418
C291	C	1.222024	1.142527	0.785418
C292	C	1.472024	1.392527	1.035418
N293	N	0.755475	0.615206	0.252016
N294	N	1.005475	0.865206	0.502016
N295	N	1.255475	1.115206	0.752016
N296	N	1.505475	1.365206	1.002016
C297	C	0.788944	0.642490	0.218618
C298	C	1.038944	0.892490	0.468618
C299	C	1.288944	1.142490	0.718618
C300	C	1.538944	1.392490	0.968618
C301	C	0.722141	0.975602	0.285457
C302	C	0.972141	1.225602	0.535457
C303	C	1.222141	1.475602	0.785457
C304	C	1.472141	1.725602	1.035457
C305	C	0.722155	1.030204	0.285459
C306	C	0.972155	1.280204	0.535459
C307	C	1.222155	1.530204	0.785459
C308	C	1.472155	1.780204	1.035459
C309	C	0.789078	1.030167	0.218656
C310	C	1.039078	1.280167	0.468656
C311	C	1.289078	1.530167	0.718656
C312	C	1.539078	1.780167	0.968656
C313	C	0.789061	0.975564	0.218652
C314	C	1.039061	1.225564	0.468652
C315	C	1.289061	1.475564	0.718652
C316	C	1.539061	1.725564	0.968652
C317	C	0.755593	0.948282	0.252055
C318	C	1.005593	1.198282	0.502055
C319	C	1.255593	1.448282	0.752055
C320	C	1.505593	1.698282	1.002055
C321	C	0.788897	0.527824	0.218605
C322	C	1.038897	0.777824	0.468605
C323	C	1.288897	1.027824	0.718605
C324	C	1.538897	1.277824	0.968605
C325	C	0.788872	0.473219	0.218599
C326	C	1.038872	0.723219	0.468599
C327	C	1.288872	0.973219	0.718599
C328	C	1.538872	1.223219	0.968599
C329	C	0.721951	0.473261	0.285403
C330	C	0.971951	0.723261	0.535403
C331	C	1.221951	0.973261	0.785403
C332	C	1.471951	1.223261	1.035403
C333	C	0.721974	0.527862	0.285408
C334	C	0.971974	0.777862	0.535408
C335	C	1.221974	1.027862	0.785408
C336	C	1.471974	1.277862	1.035408
C337	C	0.755452	0.555142	0.252007
C338	C	1.005452	0.805142	0.502007
C339	C	1.255452	1.055142	0.752007
C340	C	1.505452	1.305142	1.002007
O341	O	0.693562	0.614260	0.313793
O342	O	0.943562	0.864260	0.563793
O343	O	1.193562	1.114260	0.813793
O344	O	1.443562	1.364260	1.063793
O345	O	0.817396	0.614231	0.190216
O346	O	1.067396	0.864231	0.440216
O347	O	1.317396	1.114231	0.690216
O348	O	1.567396	1.364231	0.940216
C349	C	0.755494	0.251951	0.116170
C350	C	1.005494	0.501951	0.366170
C351	C	1.255494	0.751951	0.616170
C352	C	1.505494	1.001951	0.866170
C353	C	0.755588	0.251807	0.058057
C354	C	1.005588	0.501807	0.308057
C355	C	1.255588	0.751807	0.558057
C356	C	1.505588	1.001807	0.808057
C357	C	0.789012	0.218432	0.806886
C358	C	1.039012	0.468432	1.056886
C359	C	1.289012	0.718432	1.306886
C360	C	1.539012	0.968432	1.556886
C361	C	0.789019	0.218417	0.861491
C362	C	1.039019	0.468417	1.111491
C363	C	1.289019	0.718417	1.361491
C364	C	1.539019	0.968417	1.611491
O365	O	0.817466	0.189967	0.889747
O366	O	1.067466	0.439967	1.139747
O367	O	1.317466	0.689967	1.389747
O368	O	1.567466	0.939967	1.639747
N369	N	0.755562	0.251844	0.888783
N370	N	1.005562	0.501844	1.138783
N371	N	1.255562	0.751844	1.388783
N372	N	1.505562	1.001844	1.638783
C373	C	0.722093	0.285283	0.861468
C374	C	0.972093	0.535283	1.111468
C375	C	1.222093	0.785283	1.361468
C376	C	1.472093	1.035283	1.611468
O377	O	0.693636	0.313713	0.889695
O378	O	0.943636	0.563713	1.139695
O379	O	1.193636	0.813713	1.389695
O380	O	1.443636	1.063713	1.639695
C381	C	0.722084	0.285294	0.806864
C382	C	0.972084	0.535294	1.056864
C383	C	1.222084	0.785294	1.306864
C384	C	1.472084	1.035294	1.556864
C385	C	0.755547	0.251870	0.779575
C386	C	1.005547	0.501870	1.029575
C387	C	1.255547	0.751870	1.279575
C388	C	1.505547	1.001870	1.529575
C389	C	0.822472	0.185009	0.779597
C390	C	1.072472	0.435009	1.029597
C391	C	1.322472	0.685009	1.279597
C392	C	1.572472	0.935009	1.529597
C393	C	0.822466	0.185025	0.724997
C394	C	1.072466	0.435025	0.974997
C395	C	1.322466	0.685025	1.224997
C396	C	1.572466	0.935025	1.474997
C397	C	0.789000	0.218462	0.697685
C398	C	1.039000	0.468462	0.947685
C399	C	1.289000	0.718462	1.197685
C400	C	1.539000	0.968462	1.447685
C401	C	0.755541	0.251885	0.724974
C402	C	1.005541	0.501885	0.974974
C403	C	1.255541	0.751885	1.224974
C404	C	1.505541	1.001885	1.474974
C405	C	0.688613	0.318731	0.779550
C406	C	0.938613	0.568731	1.029550
C407	C	1.188613	0.818731	1.279550
C408	C	1.438613	1.068731	1.529550
C409	C	0.688607	0.318739	0.724943
C410	C	0.938607	0.568739	0.974943
C411	C	1.188607	0.818739	1.224943
C412	C	1.438607	1.068739	1.474943
C413	C	0.722069	0.285314	0.697654
C414	C	0.972069	0.535314	0.947654
C415	C	1.222069	0.785314	1.197654
C416	C	1.472069	1.035314	1.447654
C417	C	0.722070	0.285338	0.643063
C418	C	0.972070	0.535338	0.893063
C419	C	1.222070	0.785338	1.143063
C420	C	1.472070	1.035338	1.393063
N421	N	0.755526	0.251912	0.615771
N422	N	1.005526	0.501912	0.865771
N423	N	1.255526	0.751912	1.115771
N424	N	1.505526	1.001912	1.365771
C425	C	0.788992	0.218474	0.643082
C426	C	1.038992	0.468474	0.893082
C427	C	1.288992	0.718474	1.143082
C428	C	1.538992	0.968474	1.393082
C429	C	0.722113	0.285256	0.976138
C430	C	0.972113	0.535256	1.226138
C431	C	1.222113	0.785256	1.476138
C432	C	1.472113	1.035256	1.726138
C433	C	0.722124	0.285247	1.030741
C434	C	0.972124	0.535247	1.280741
C435	C	1.222124	0.785247	1.530741
C436	C	1.472124	1.035247	1.780741
C437	C	0.789049	0.218381	1.030760
C438	C	1.039049	0.468381	1.280760
C439	C	1.289049	0.718381	1.530760
C440	C	1.539049	0.968381	1.780760
C441	C	0.789041	0.218392	0.976157
C442	C	1.039041	0.468392	1.226157
C443	C	1.289041	0.718392	1.476157
C444	C	1.539041	0.968392	1.726157
C445	C	0.755570	0.251829	0.948846
C446	C	1.005570	0.501829	1.198846
C447	C	1.255570	0.751829	1.448846
C448	C	1.505570	1.001829	1.698846
C449	C	0.788977	0.218509	0.528417
C450	C	1.038977	0.468509	0.778417
C451	C	1.288977	0.718509	1.028417
C452	C	1.538977	0.968509	1.278417
C453	C	0.788970	0.218529	0.473811
C454	C	1.038970	0.468529	0.723811
C455	C	1.288970	0.718529	0.973811
C456	C	1.538970	0.968529	1.223811
C457	C	0.722043	0.285393	0.473797
C458	C	0.972043	0.535393	0.723797
C459	C	1.222043	0.785393	0.973797
C460	C	1.472043	1.035393	1.223797
C461	C	0.722052	0.285375	0.528397
C462	C	0.972052	0.535375	0.778397
C463	C	1.222052	0.785375	1.028397
C464	C	1.472052	1.035375	1.278397
C465	C	0.755521	0.251929	0.555706
C466	C	1.005521	0.501929	0.805706
C467	C	1.255521	0.751929	1.055706
C468	C	1.505521	1.001929	1.305706
O469	O	0.693635	0.313773	0.614771
O470	O	0.943635	0.563773	0.864771
O471	O	1.193635	0.813773	1.114771
O472	O	1.443635	1.063773	1.364771
O473	O	0.817439	0.190044	0.614847
O474	O	1.067439	0.440044	0.864847
O475	O	1.317439	0.690044	1.114847
O476	O	1.567439	0.940044	1.364847
H477	H	0.556449	0.312723	0.312530
H478	H	0.806449	0.562723	0.562530
H479	H	1.056449	0.812723	0.812530
H480	H	1.306449	1.062723	1.062530
H481	H	0.694883	0.953392	0.312656
H482	H	0.944883	1.203392	0.562656
H483	H	1.194883	1.453392	0.812656
H484	H	1.444883	1.703392	1.062656
H485	H	0.054103	0.312760	0.312609
H486	H	0.304103	0.562760	0.562609
H487	H	0.554103	0.812760	0.812609
H488	H	0.804103	1.062760	1.062609
C489	C	0.825898	1.060183	0.181921
C490	C	1.075898	1.310183	0.431921
C491	C	1.325898	1.560183	0.681921
C492	C	1.575898	1.810183	0.931921
H493	H	0.845817	1.036096	0.162022
H494	H	1.095817	1.286096	0.412022
H495	H	1.345817	1.536096	0.662022
H496	H	1.595817	1.786096	0.912022
H497	H	0.848669	1.081454	0.201951
H498	H	1.098669	1.331454	0.451951
H499	H	1.348669	1.581454	0.701951
H500	H	1.598669	1.831454	0.951951
H501	H	0.805916	1.081513	0.159120
H502	H	1.055916	1.331513	0.409120
H503	H	1.305916	1.581513	0.659120
H504	H	1.555916	1.831513	0.909120
C505	C	-0.052754	0.181687	0.181973
C506	C	0.197246	0.431687	0.431973
C507	C	0.447246	0.681687	0.681973
C508	C	0.697246	0.931687	0.931973
H509	H	-0.089185	0.186483	0.186754
H510	H	0.160815	0.436483	0.436754
H511	H	0.410815	0.686483	0.686754
H512	H	0.660815	0.936483	0.936754
H513	H	-0.043778	0.146570	0.189691
H514	H	0.206222	0.396570	0.439691
H515	H	0.456222	0.646570	0.689691
H516	H	0.706222	0.896570	0.939691
H517	H	-0.043829	0.189287	0.146826
H518	H	0.206171	0.439287	0.396826
H519	H	0.456171	0.689287	0.646826
H520	H	0.706171	0.939287	0.896826
H521	H	0.661376	0.801275	0.346049
H522	H	0.911376	1.051275	0.596049
H523	H	1.161376	1.301275	0.846049
H524	H	1.411376	1.551275	1.096049
C525	C	0.825718	0.557825	0.181861
C526	C	1.075718	0.807825	0.431861
C527	C	1.325718	1.057825	0.681861
C528	C	1.575718	1.307825	0.931861
H529	H	0.845629	0.533729	0.161964
H530	H	1.095629	0.783729	0.411964
H531	H	1.345629	1.033729	0.661964
H532	H	1.595629	1.283729	0.911964
H533	H	0.848497	0.579097	0.201882
H534	H	1.098497	0.829097	0.451882
H535	H	1.348497	1.079097	0.701882
H536	H	1.598497	1.329097	0.951882
H537	H	0.805737	0.579153	0.159058
H538	H	1.055737	0.829153	0.409058
H539	H	1.305737	1.079153	0.659058
H540	H	1.555737	1.329153	0.909058
H541	H	0.694699	0.451039	0.312594
H542	H	0.944699	0.701039	0.562594
H543	H	1.194699	0.951039	0.812594
H544	H	1.444699	1.201039	1.062594
C545	C	0.061900	0.181676	0.181955
C546	C	0.311900	0.431676	0.431955
C547	C	0.561900	0.681676	0.681955
C548	C	0.811900	0.931676	0.931955
H549	H	0.037815	0.161742	0.162079
H550	H	0.287815	0.411742	0.412079
H551	H	0.537815	0.661742	0.662079
H552	H	0.787815	0.911742	0.912079
H553	H	0.083223	0.158920	0.201990
H554	H	0.333223	0.408920	0.451990
H555	H	0.583223	0.658920	0.701990
H556	H	0.833223	0.908920	0.951990
H557	H	0.083177	0.201644	0.159132
H558	H	0.333177	0.451644	0.409132
H559	H	0.583177	0.701644	0.659132
H560	H	0.833177	0.951644	0.909132
H561	H	0.694798	0.312619	0.451550
H562	H	0.944798	0.562619	0.701550
H563	H	1.194798	0.812619	0.951550
H564	H	1.444798	1.062619	1.201550
C565	C	0.859270	0.148252	0.694985
C566	C	1.109270	0.398252	0.944985
C567	C	1.359270	0.648252	1.194985
C568	C	1.609270	0.898252	1.444985
H569	H	0.879195	0.128335	0.719078
H570	H	1.129195	0.378335	0.969078
H571	H	1.379195	0.628335	1.219078
H572	H	1.629195	0.878335	1.469078
H573	H	0.882036	0.168255	0.673687
H574	H	1.132036	0.418255	0.923687
H575	H	1.382036	0.668255	1.173687
H576	H	1.632036	0.918255	1.423687
H577	H	0.839280	0.125469	0.673684
H578	H	1.089280	0.375469	0.923684
H579	H	1.339280	0.625469	1.173684
H580	H	1.589280	0.875469	1.423684
H581	H	0.457399	0.312726	0.312556
H582	H	0.707399	0.562726	0.562556
H583	H	0.957399	0.812726	0.812556
H584	H	1.207399	1.062726	1.062556
H585	H	0.816111	0.450979	0.191392
H586	H	1.066111	0.700979	0.441392
H587	H	1.316111	0.950979	0.691392
H588	H	1.566111	1.200979	0.941392
H589	H	0.305272	0.346225	0.345950
H590	H	0.555272	0.596225	0.595950
H591	H	0.805272	0.846225	0.845950
H592	H	1.055272	1.096225	1.095950
C593	C	0.685319	0.322018	1.060753
C594	C	0.935319	0.572018	1.310753
C595	C	1.185319	0.822018	1.560753
C596	C	1.435319	1.072018	1.810753
H597	H	0.665387	0.341930	1.036662
H598	H	0.915387	0.591930	1.286662
H599	H	1.165387	0.841930	1.536662
H600	H	1.415387	1.091930	1.786662
H601	H	0.705301	0.344798	1.082059
H602	H	0.955301	0.594798	1.332059
H603	H	1.205301	0.844798	1.582059
H604	H	1.455301	1.094798	1.832059
H605	H	0.662551	0.302006	1.082047
H606	H	0.912551	0.552006	1.332047
H607	H	1.162551	0.802006	1.582047
H608	H	1.412551	1.052006	1.832047
C609	C	0.198424	0.355800	0.355501
C610	C	0.448424	0.605800	0.605501
C611	C	0.698424	0.855800	0.855501
C612	C	0.948424	1.105800	1.105501
H613	H	0.161993	0.351011	0.350733
H614	H	0.411993	0.601011	0.600733
H615	H	0.661993	0.851011	0.850733
H616	H	0.911993	1.101011	1.100733
H617	H	0.207357	0.390914	0.347782
H618	H	0.457357	0.640914	0.597782
H619	H	0.707357	0.890914	0.847782
H620	H	0.957357	1.140914	1.097782
H621	H	0.207397	0.348196	0.390645
H622	H	0.457397	0.598196	0.640645
H623	H	0.707397	0.848196	0.890645
H624	H	0.957397	1.098196	1.140645
H625	H	0.661345	0.345963	0.702710
H626	H	0.911345	0.595963	0.952710
H627	H	1.161345	0.845963	1.202710
H628	H	1.411345	1.095963	1.452710
H629	H	0.849709	0.801185	0.158037
H630	H	1.099709	1.051185	0.408037
H631	H	1.349709	1.301185	0.658037
H632	H	1.599709	1.551185	0.908037
C633	C	0.825862	0.181601	1.060809
C634	C	1.075862	0.431601	1.310809
C635	C	1.325862	0.681601	1.560809
C636	C	1.575862	0.931601	1.810809
H637	H	0.821070	0.186381	1.097237
H638	H	1.071070	0.436381	1.347237
H639	H	1.321070	0.686381	1.597237
H640	H	1.571070	0.936381	1.847237
H641	H	0.860985	0.189261	1.051870
H642	H	1.110985	0.439261	1.301870
H643	H	1.360985	0.689261	1.551870
H644	H	1.610985	0.939261	1.801870
H645	H	0.818235	0.146469	1.051866
H646	H	1.068235	0.396469	1.301866
H647	H	1.318235	0.646469	1.551866
H648	H	1.568235	0.896469	1.801866
C649	C	0.859290	0.148228	0.809631
C650	C	1.109290	0.398228	1.059631
C651	C	1.359290	0.648228	1.309631
C652	C	1.609290	0.898228	1.559631
H653	H	0.879216	0.128330	0.785551
H654	H	1.129216	0.378330	1.035551
H655	H	1.379216	0.628330	1.285551
H656	H	1.629216	0.878330	1.535551
H657	H	0.839319	0.125434	0.830933
H658	H	1.089319	0.375434	1.080933
H659	H	1.339319	0.625434	1.330933
H660	H	1.589319	0.875434	1.580933
H661	H	0.882063	0.168231	0.830931
H662	H	1.132063	0.418231	1.080931
H663	H	1.382063	0.668231	1.330931
H664	H	1.632063	0.918231	1.580931
C665	C	-0.052762	0.322329	0.322160
C666	C	0.197238	0.572329	0.572160
C667	C	0.447238	0.822329	0.822160
C668	C	0.697238	1.072329	1.072160
H669	H	-0.089191	0.317529	0.317385
H670	H	0.160809	0.567529	0.567385
H671	H	0.410809	0.817529	0.817385
H672	H	0.660809	1.067529	1.067385
H673	H	-0.043840	0.357449	0.314448
H674	H	0.206160	0.607449	0.564448
H675	H	0.456160	0.857449	0.814448
H676	H	0.706160	1.107449	1.064448
H677	H	-0.043793	0.314723	0.357304
H678	H	0.206207	0.564723	0.607304
H679	H	0.456207	0.814723	0.857304
H680	H	0.706207	1.064723	1.107304
H681	H	0.556454	0.191211	0.191422
H682	H	0.806454	0.441211	0.441422
H683	H	1.056454	0.691211	0.691422
H684	H	1.306454	0.941211	0.941422
C685	C	0.651787	0.694428	0.355584
C686	C	0.901787	0.944428	0.605584
C687	C	1.151787	1.194428	0.855584
C688	C	1.401787	1.444428	1.105584
H689	H	0.631868	0.718521	0.375477
H690	H	0.881868	0.968521	0.625477
H691	H	1.131868	1.218521	0.875477
H692	H	1.381868	1.468521	1.125477
H693	H	0.671765	0.673098	0.378383
H694	H	0.921765	0.923098	0.628383
H695	H	1.171765	1.173098	0.878383
H696	H	1.421765	1.423098	1.128383
H697	H	0.629007	0.673159	0.335557
H698	H	0.879007	0.923159	0.585557
H699	H	1.129007	1.173159	0.835557
H700	H	1.379007	1.423159	1.085557
C701	C	0.685357	1.060248	0.322205
C702	C	0.935357	1.310248	0.572205
C703	C	1.185357	1.560248	0.822205
C704	C	1.435357	1.810248	1.072205
H705	H	0.665426	1.036174	0.342095
H706	H	0.915426	1.286174	0.592095
H707	H	1.165426	1.536174	0.842095
H708	H	1.415426	1.786174	1.092095
H709	H	0.662596	1.081581	0.302186
H710	H	0.912596	1.331581	0.552186
H711	H	1.162596	1.581581	0.802186
H712	H	1.412596	1.831581	1.052186
H713	H	0.705352	1.081517	0.345014
H714	H	0.955352	1.331517	0.595014
H715	H	1.205352	1.581517	0.845014
H716	H	1.455352	1.831517	1.095014
H717	H	0.816300	0.953325	0.191448
H718	H	1.066300	1.203325	0.441448
H719	H	1.316300	1.453325	0.691448
H720	H	1.566300	1.703325	0.941448
H721	H	0.694809	0.312597	0.550617
H722	H	0.944809	0.562597	0.800617
H723	H	1.194809	0.812597	1.050617
H724	H	1.444809	1.062597	1.300617
C725	C	0.685179	0.557912	0.322155
C726	C	0.935179	0.807912	0.572155
C727	C	1.185179	1.057912	0.822155
C728	C	1.435179	1.307912	1.072155
H729	H	0.665246	0.533840	0.342045
H730	H	0.915246	0.783840	0.592045
H731	H	1.165246	1.033840	0.842045
H732	H	1.415246	1.283840	1.092045
H733	H	0.662420	0.579249	0.302138
H734	H	0.912420	0.829249	0.552138
H735	H	1.162420	1.079249	0.802138
H736	H	1.412420	1.329249	1.052138
H737	H	0.705179	0.579177	0.344963
H738	H	0.955179	0.829177	0.594963
H739	H	1.205179	1.079177	0.844963
H740	H	1.455179	1.329177	1.094963
H741	H	0.206233	0.157734	0.158106
H742	H	0.456233	0.407734	0.408106
H743	H	0.706233	0.657734	0.658106
H744	H	0.956233	0.907734	0.908106
H745	H	0.816288	0.191174	0.953941
H746	H	1.066288	0.441174	1.203941
H747	H	1.316288	0.691174	1.453941
H748	H	1.566288	0.941174	1.703941
C749	C	0.685305	0.322051	0.946101
C750	C	0.935305	0.572051	1.196101
C751	C	1.185305	0.822051	1.446101
C752	C	1.435305	1.072051	1.696101
H753	H	0.665388	0.341959	0.970179
H754	H	0.915388	0.591959	1.220179
H755	H	1.165388	0.841959	1.470179
H756	H	1.415388	1.091959	1.720179
H757	H	0.662531	0.302062	0.924793
H758	H	0.912531	0.552062	1.174793
H759	H	1.162531	0.802062	1.424793
H760	H	1.412531	1.052062	1.674793
H761	H	0.705293	0.344841	0.924808
H762	H	0.955293	0.594841	1.174808
H763	H	1.205293	0.844841	1.424808
H764	H	1.455293	1.094841	1.674808
H765	H	0.816221	0.191310	0.451595
H766	H	1.066221	0.441310	0.701595
H767	H	1.316221	0.691310	0.951595
H768	H	1.566221	0.941310	1.201595
H769	H	0.849670	0.702137	0.158024
H770	H	1.099670	0.952137	0.408024
H771	H	1.349670	1.202137	0.658024
H772	H	1.599670	1.452137	0.908024
C773	C	0.313085	0.148155	0.148564
C774	C	0.563085	0.398155	0.398564
C775	C	0.813085	0.648155	0.648564
C776	C	1.063085	0.898155	0.898564
H777	H	0.289003	0.128216	0.128690
H778	H	0.539003	0.378216	0.378690
H779	H	0.789003	0.628216	0.628690
H780	H	1.039003	0.878216	0.878690
H781	H	0.334409	0.125404	0.168603
H782	H	0.584409	0.375404	0.418603
H783	H	0.834409	0.625404	0.668603
H784	H	1.084409	0.875404	0.918603
H785	H	0.334362	0.168120	0.125739
H786	H	0.584362	0.418120	0.375739
H787	H	0.834362	0.668120	0.625739
H788	H	1.084362	0.918120	0.875739
H789	H	0.816229	0.191272	0.550645
H790	H	1.066229	0.441272	0.800645
H791	H	1.316229	0.691272	1.050645
H792	H	1.566229	0.941272	1.300645
C793	C	0.651799	0.355494	0.809556
C794	C	0.901799	0.605494	1.059556
C795	C	1.151799	0.855494	1.309556
C796	C	1.401799	1.105494	1.559556
H797	H	0.631865	0.375401	0.785463
H798	H	0.881865	0.625401	1.035463
H799	H	1.131865	0.875401	1.285463
H800	H	1.381865	1.125401	1.535463
H801	H	0.671775	0.378279	0.830863
H802	H	0.921775	0.628279	1.080863
H803	H	1.171775	0.878279	1.330863
H804	H	1.421775	1.128279	1.580863
H805	H	0.629033	0.335479	0.830849
H806	H	0.879033	0.585479	1.080849
H807	H	1.129033	0.835479	1.330849
H808	H	1.379033	1.085479	1.580849
H809	H	0.457387	0.191213	0.191436
H810	H	0.707387	0.441213	0.441436
H811	H	0.957387	0.691213	0.691436
H812	H	1.207387	0.941213	0.941436
