data_functionalizedCrystal
_audit_creation_method	'MofGen! by Chris Wilmer'
_symmetry_space_group_name_H-M	'P1'
_symmetry_Int_Tables_number	1
_symmetry_cell_setting	triclinic
loop_
_symmetry_equiv_pos_as_xyz
  x,y,z
_cell_length_a	27.732064
_cell_length_b	27.732048
_cell_length_c	10.065875
_cell_angle_alpha	98.710990
_cell_angle_beta	81.333551
_cell_angle_gamma	82.646040
loop_
_atom_site_label
_atom_site_type_symbol
_atom_site_fract_x
_atom_site_fract_y
_atom_site_fract_z
O1	O	0.648033	0.050412	-0.113260
O2	O	1.148033	0.550412	0.386740
O3	O	0.507244	0.059146	-0.113318
O4	O	1.007244	0.559146	0.386682
O5	O	0.582009	-0.015616	-0.113261
O6	O	1.082009	0.484384	0.386739
O7	O	0.573268	0.125174	-0.113317
O8	O	1.073268	0.625174	0.386683
O9	O	0.567752	-0.001303	0.113717
O10	O	1.067752	0.498697	0.613717
O11	O	0.492987	0.073458	0.113660
O12	O	0.992987	0.573458	0.613660
O13	O	0.633776	0.064725	0.113718
O14	O	1.133776	0.564725	0.613718
Zn15	Zn	0.561118	0.071364	0.149726
Zn16	Zn	1.061118	0.571364	0.649726
Zn17	Zn	0.579902	0.052506	-0.149327
Zn18	Zn	1.079902	0.552506	0.350673
O19	O	0.559010	0.139486	0.113661
O20	O	1.059010	0.639486	0.613661
C21	C	0.482109	0.066117	0.000164
C22	C	0.982109	0.566117	0.500164
C23	C	0.428456	0.065560	0.000143
C24	C	0.928456	0.565560	0.500143
C25	C	0.051377	0.017598	0.000239
C26	C	0.551377	0.517598	0.500239
C27	C	0.253040	0.019642	0.000203
C28	C	0.753040	0.519642	0.500203
O29	O	0.284288	-0.017575	0.000269
O30	O	0.784288	0.482425	0.500269
N31	N	0.272169	0.063975	0.000179
N32	N	0.772169	0.563975	0.500179
C33	C	0.240878	0.107801	0.000174
C34	C	0.740878	0.607801	0.500174
O35	O	0.261775	0.145556	0.000167
O36	O	0.761775	0.645556	0.500167
C37	C	0.039216	0.105757	0.000220
C38	C	0.539216	0.605757	0.500220
C39	C	0.020091	0.061420	0.000230
C40	C	0.520091	0.561420	0.500230
C41	C	0.032252	-0.026734	0.000251
C42	C	0.532252	0.473266	0.500251
C43	C	-0.018161	-0.027245	0.000252
C44	C	0.481839	0.472755	0.500252
C45	C	-0.049447	0.016576	0.000243
C46	C	0.450553	0.516576	0.500243
C47	C	-0.030321	0.060909	0.000231
C48	C	0.469679	0.560909	0.500231
C49	C	0.007926	0.149582	0.000224
C50	C	0.507926	0.649582	0.500224
C51	C	-0.042493	0.149068	0.000239
C52	C	0.457507	0.649068	0.500239
C53	C	-0.061618	0.104731	0.000249
C54	C	0.438382	0.604731	0.500249
C55	C	-0.112020	0.104220	0.000223
C56	C	0.387980	0.604220	0.500223
N57	N	-0.131149	0.059887	0.000247
N58	N	0.368851	0.559887	0.500247
C59	C	-0.099863	0.016066	0.000257
C60	C	0.400137	0.516066	0.500257
C61	C	0.346754	0.108870	0.000147
C62	C	0.846754	0.608870	0.500147
C63	C	0.397170	0.109381	0.000133
C64	C	0.897170	0.609381	0.500133
C65	C	0.409328	0.021223	0.000165
C66	C	0.909328	0.521223	0.500165
C67	C	0.358912	0.020712	0.000169
C68	C	0.858912	0.520712	0.500169
C69	C	0.327625	0.064538	0.000171
C70	C	0.827625	0.564538	0.500171
C71	C	-0.205732	0.014996	0.000259
C72	C	0.294268	0.514996	0.500259
C73	C	-0.256149	0.014488	0.000255
C74	C	0.243851	0.514488	0.500255
C75	C	-0.268303	0.102647	0.000230
C76	C	0.231697	0.602647	0.500230
C77	C	-0.217890	0.103154	0.000227
C78	C	0.282110	0.603154	0.500227
C79	C	-0.186606	0.059325	0.000246
C80	C	0.313394	0.559325	0.500246
O81	O	-0.143298	0.141418	0.000173
O82	O	0.356702	0.641418	0.500173
O83	O	-0.120771	-0.021683	0.000294
O84	O	0.379229	0.478317	0.500294
C85	C	0.101790	0.018109	0.000238
C86	C	0.601790	0.518109	0.500238
C87	C	0.120915	0.062442	0.000226
C88	C	0.620915	0.562442	0.500226
C89	C	0.089629	0.106264	0.000217
C90	C	0.589629	0.606264	0.500217
C91	C	0.171331	0.062953	0.000212
C92	C	0.671331	0.562953	0.500212
C93	C	0.202617	0.019131	0.000222
C94	C	0.702617	0.519131	0.500222
C95	C	0.183488	-0.025201	0.000246
C96	C	0.683488	0.474799	0.500246
C97	C	0.133076	-0.025712	0.000247
C98	C	0.633076	0.474288	0.500247
C99	C	0.108758	0.150597	0.000193
C100	C	0.608758	0.650597	0.500193
C101	C	0.159171	0.151104	0.000190
C102	C	0.659171	0.651104	0.500190
C103	C	0.190457	0.107282	0.000200
C104	C	0.690457	0.607282	0.500200
C105	C	0.574697	-0.026466	0.000231
C106	C	1.074697	0.473534	0.500231
C107	C	0.574144	-0.080120	0.000242
C108	C	1.074144	0.419880	0.500242
C109	C	0.614850	-0.418936	0.000189
C110	C	1.114850	0.081064	0.500189
C111	C	0.612801	-0.620597	0.000169
C112	C	1.112801	-0.120597	0.500169
O113	O	0.650024	-0.651854	0.000125
O114	O	1.150024	-0.151854	0.500125
N115	N	0.568467	-0.639725	0.000152
N116	N	1.068467	-0.139725	0.500152
C117	C	0.524643	-0.608434	0.000131
C118	C	1.024643	-0.108434	0.500131
O119	O	0.486888	-0.629331	0.000102
O120	O	0.986888	-0.129331	0.500102
C121	C	0.526694	-0.406775	0.000141
C122	C	1.026694	0.093225	0.500141
C123	C	0.571030	-0.387649	0.000172
C124	C	1.071030	0.112351	0.500172
C125	C	0.659183	-0.399811	0.000219
C126	C	1.159183	0.100189	0.500219
C127	C	0.659694	-0.349398	0.000231
C128	C	1.159694	0.150602	0.500231
C129	C	0.615873	-0.318111	0.000214
C130	C	1.115873	0.181889	0.500214
C131	C	0.571541	-0.337237	0.000185
C132	C	1.071541	0.162763	0.500185
C133	C	0.482871	-0.375486	0.000110
C134	C	0.982871	0.124514	0.500110
C135	C	0.483388	-0.325068	0.000110
C136	C	0.983388	0.174932	0.500110
C137	C	0.527724	-0.305943	0.000140
C138	C	1.027724	0.194057	0.500140
C139	C	0.528232	-0.255537	0.000180
C140	C	1.028232	0.244463	0.500180
N141	N	0.572566	-0.236410	0.000197
N142	N	1.072566	0.263590	0.500197
C143	C	0.616386	-0.267696	0.000214
C144	C	1.116386	0.232304	0.500214
C145	C	0.523569	-0.714309	0.000129
C146	C	1.023569	-0.214309	0.500129
C147	C	0.523056	-0.764723	0.000129
C148	C	1.023056	-0.264723	0.500129
C149	C	0.611214	-0.776883	0.000164
C150	C	1.111214	-0.276883	0.500164
C151	C	0.611726	-0.726467	0.000174
C152	C	1.111726	-0.226467	0.500174
C153	C	0.567903	-0.695181	0.000146
C154	C	1.067903	-0.195181	0.500146
C155	C	0.617457	-0.161826	0.000241
C156	C	1.117457	0.338174	0.500241
C157	C	0.617964	-0.111407	0.000259
C158	C	1.117964	0.388593	0.500259
C159	C	0.529807	-0.099252	0.000217
C160	C	1.029807	0.400748	0.500217
C161	C	0.529299	-0.149666	0.000206
C162	C	1.029299	0.350334	0.500206
C163	C	0.573128	-0.180952	0.000213
C164	C	1.073128	0.319048	0.500213
O165	O	0.491030	-0.224253	0.000209
O166	O	0.991030	0.275747	0.500209
O167	O	0.654138	-0.246792	0.000213
O168	O	1.154138	0.253208	0.500213
C169	C	0.614339	-0.469349	0.000177
C170	C	1.114339	0.030651	0.500177
C171	C	0.570007	-0.488475	0.000147
C172	C	1.070007	0.011525	0.500147
C173	C	0.526186	-0.457188	0.000130
C174	C	1.026186	0.042812	0.500130
C175	C	0.569494	-0.538889	0.000147
C176	C	1.069494	-0.038889	0.500147
C177	C	0.613314	-0.570176	0.000164
C178	C	1.113314	-0.070176	0.500164
C179	C	0.657648	-0.551049	0.000181
C180	C	1.157648	-0.051049	0.500181
C181	C	0.658160	-0.500636	0.000194
C182	C	1.158160	-0.000636	0.500194
C183	C	0.481852	-0.476315	0.000113
C184	C	0.981852	0.023685	0.500113
C185	C	0.481344	-0.526729	0.000103
C186	C	0.981344	-0.026729	0.500103
C187	C	0.525165	-0.558016	0.000119
C188	C	1.025165	-0.058016	0.500119
C189	C	0.658911	0.057753	0.000233
C190	C	1.158911	0.557753	0.500233
C191	C	0.712564	0.058310	0.000245
C192	C	1.212564	0.558310	0.500245
C193	C	0.566323	0.150336	0.000165
C194	C	1.066323	0.650336	0.500165
C195	C	0.566877	0.203990	0.000145
C196	C	1.066877	0.703990	0.500145
N197	N	0.548301	0.084234	0.353822
N198	N	1.048301	0.584234	0.853822
N199	N	0.592722	0.039633	-0.353422
N200	N	1.092722	0.539633	0.146578
C201	C	0.575440	0.056981	0.421622
C202	C	1.075440	0.556981	0.921622
C203	C	0.565580	0.066889	0.578782
C204	C	1.065580	0.566889	1.078782
H205	H	-0.067965	0.184757	0.000247
H206	H	0.432035	0.684757	0.500247
O207	O	0.615885	0.016356	0.344400
O208	O	1.115885	0.516356	0.844400
H209	H	0.634262	-0.002103	0.417971
H210	H	1.134262	0.497897	0.917971
O211	O	0.217241	-0.072466	0.000261
O212	O	0.717241	0.427534	0.500261
H213	H	0.195476	-0.103384	0.000266
H214	H	0.695476	0.396616	0.500266
O215	O	0.434582	-0.442577	0.000111
O216	O	0.934582	0.057423	0.500111
H217	H	0.438506	-0.425144	-0.092399
H218	H	0.938506	0.074856	0.407601
O219	O	-0.171994	-0.032276	0.000283
O220	O	0.328006	0.467724	0.500283
H221	H	-0.142926	-0.039986	-0.092224
H222	H	0.357074	0.460014	0.407776
O223	O	0.476296	-0.680570	0.000118
O224	O	0.976296	-0.180570	0.500118
H225	H	0.480220	-0.663141	-0.092398
H226	H	0.980220	-0.163141	0.407602
H227	H	0.434810	-0.014459	0.000168
H228	H	0.934810	0.485541	0.500168
H229	H	0.412738	0.145483	0.000106
H230	H	0.912738	0.645483	0.500106
O231	O	0.179796	0.198928	0.000197
O232	O	0.679796	0.698928	0.500197
H233	H	0.149564	0.229313	0.000210
H234	H	0.649564	0.729313	0.500210
O235	O	0.525138	0.107520	0.656007
O236	O	1.025138	0.607520	1.156007
H237	H	0.532835	0.143413	0.628635
H238	H	1.032835	0.643413	1.128635
O239	O	0.065994	-0.074003	0.000259
O240	O	0.565994	0.425997	0.500259
H241	H	0.044216	-0.104912	0.000261
H242	H	0.544216	0.395088	0.500261
H243	H	0.623257	0.008962	0.588280
H244	H	1.123257	0.508962	1.088280
H245	H	0.517766	0.114899	0.412125
H246	H	1.017766	0.614899	0.912125
O247	O	-0.302056	0.149909	0.000221
O248	O	0.197944	0.649909	0.500221
H249	H	-0.280290	0.180826	0.000203
H250	H	0.219710	0.680826	0.500203
O251	O	-0.197259	0.150973	0.000203
O252	O	0.302741	0.650973	0.500203
H253	H	-0.180387	0.159145	0.092715
H254	H	0.319613	0.659145	0.592715
H255	H	0.447701	-0.299597	0.000085
H256	H	0.947701	0.200403	0.500085
H257	H	0.494129	-0.073769	0.000208
H258	H	0.994129	0.426231	0.500208
H259	H	0.343344	-0.015391	0.000178
H260	H	0.843344	0.484609	0.500178
O261	O	0.313011	0.156142	0.000139
O262	O	0.813011	0.656142	0.500139
H263	H	0.334789	0.187050	0.000107
H264	H	0.834789	0.687050	0.500107
H265	H	-0.271717	-0.021618	0.000259
H266	H	0.228283	0.478382	0.500259
O267	O	0.112452	-0.073532	0.000284
O268	O	0.612452	0.426468	0.500284
H269	H	0.130854	-0.100406	-0.092213
H270	H	0.630854	0.399594	0.407787
O271	O	0.075016	0.197864	0.000184
O272	O	0.575016	0.697864	0.500184
H273	H	0.087583	0.213261	-0.092344
H274	H	0.587583	0.713261	0.407656
O275	O	-0.038784	-0.075065	0.000298
O276	O	0.461216	0.424935	0.500298
H277	H	-0.020383	-0.101941	-0.092195
H278	H	0.479617	0.398059	0.407805
O279	O	0.028539	0.197408	0.000247
O280	O	0.528539	0.697408	0.500247
H281	H	0.021744	0.212623	-0.092252
H282	H	0.521744	0.712623	0.407748
O283	O	0.665786	-0.090780	0.000271
O284	O	1.165786	0.409220	0.500271
H285	H	0.696172	-0.121010	0.000261
H286	H	1.196172	0.378990	0.500261
O287	O	0.664727	-0.195565	0.000270
O288	O	1.164727	0.304435	0.500270
H289	H	0.695635	-0.173788	0.000309
H290	H	1.195635	0.326212	0.500309
H291	H	0.695797	-0.333832	0.000250
H292	H	1.195797	0.166168	0.500250
H293	H	0.694869	-0.425281	0.000227
H294	H	1.194869	0.074719	0.500227
H295	H	0.646895	-0.802366	0.000179
H296	H	1.146895	-0.302366	0.500179
O297	O	0.659546	-0.705841	0.000182
O298	O	1.159546	-0.205841	0.500182
H299	H	0.689929	-0.736072	0.000182
H300	H	1.189929	-0.236072	0.500182
H301	H	0.486952	-0.780288	0.000127
H302	H	0.986952	-0.280288	0.500127
O303	O	0.435052	-0.396107	0.000072
O304	O	0.935052	0.103893	0.500072
H305	H	0.404673	-0.365876	0.000044
H306	H	0.904673	0.134124	0.500044
H307	H	0.493195	-0.165236	0.000219
H308	H	0.993195	0.334764	0.500219
H309	H	0.693328	-0.576531	0.000201
H310	H	1.193328	-0.076531	0.500201
O311	O	0.705981	-0.480012	0.000200
O312	O	1.205981	0.019988	0.500200
H313	H	0.736363	-0.510245	0.000192
H314	H	1.236363	-0.010245	0.500192
H315	H	0.445237	-0.542294	0.000089
H316	H	0.945237	-0.042294	0.500089
