data_functionalizedCrystal
_audit_creation_method	'MofGen! by Chris Wilmer'
_symmetry_space_group_name_H-M	'P1'
_symmetry_Int_Tables_number	1
_symmetry_cell_setting	triclinic
loop_
_symmetry_equiv_pos_as_xyz
  x,y,z
_cell_length_a	23.532407
_cell_length_b	23.532407
_cell_length_c	9.730223
_cell_angle_alpha	89.994043
_cell_angle_beta	90.005152
_cell_angle_gamma	82.848678
loop_
_atom_site_label
_atom_site_type_symbol
_atom_site_fract_x
_atom_site_fract_y
_atom_site_fract_z
O1	O	0.755256	0.069132	-0.114132
O2	O	1.255256	0.569132	0.385868
O3	O	0.589393	0.079136	-0.114175
O4	O	1.089393	0.579136	0.385825
O5	O	0.677326	-0.008798	-0.114127
O6	O	1.177326	0.491202	0.385873
O7	O	0.667323	0.157066	-0.114180
O8	O	1.167323	0.657066	0.385820
O9	O	0.677325	-0.008796	0.114453
O10	O	1.177325	0.491204	0.614453
O11	O	0.589392	0.079138	0.114405
O12	O	1.089392	0.579138	0.614405
O13	O	0.755255	0.069135	0.114448
O14	O	1.255255	0.569135	0.614448
Zn15	Zn	0.672323	0.074137	0.150719
Zn16	Zn	1.172323	0.574137	0.650719
Zn17	Zn	0.672325	0.074134	-0.150445
Zn18	Zn	1.172325	0.574134	0.349555
O19	O	0.667322	0.157068	0.114400
O20	O	1.167322	0.657068	0.614400
C21	C	0.568176	0.078882	0.000110
C22	C	1.068176	0.578882	0.500110
C23	C	0.504959	0.078116	0.000095
C24	C	1.004959	0.578116	0.500095
C25	C	0.677071	-0.030013	0.000167
C26	C	1.177071	0.469987	0.500167
C27	C	0.676305	-0.093230	0.000177
C28	C	1.176305	0.406770	0.500177
C29	C	0.105856	0.125350	0.000143
C30	C	0.605856	0.625350	0.500143
C31	C	0.046456	0.124638	0.000151
C32	C	0.546456	0.624638	0.500151
O33	O	0.009711	0.168424	0.000187
O34	O	0.509711	0.668424	0.500187
N35	N	0.023830	0.072362	0.000166
N36	N	0.523830	0.572362	0.500166
C37	C	0.060607	0.020794	0.000185
C38	C	0.560607	0.520794	0.500185
O39	O	0.035908	-0.023737	0.000200
O40	O	0.535908	0.476263	0.500200
C41	C	0.120006	0.021506	0.000187
C42	C	0.620006	0.521506	0.500187
C43	C	0.142629	0.073785	0.000158
C44	C	0.642629	0.573785	0.500158
C45	C	0.128479	0.177625	0.000116
C46	C	0.628479	0.677625	0.500116
C47	C	0.187876	0.178336	0.000105
C48	C	0.687876	0.678336	0.500105
C49	C	0.224649	0.126772	0.000120
C50	C	0.724649	0.626772	0.500120
C51	C	0.202025	0.074497	0.000147
C52	C	0.702025	0.574497	0.500147
C53	C	0.156783	-0.030062	0.000216
C54	C	0.656783	0.469938	0.500216
C55	C	0.216185	-0.029345	0.000218
C56	C	0.716185	0.470655	0.500218
C57	C	0.238808	0.022934	0.000190
C58	C	0.738808	0.522934	0.500190
C59	C	0.298194	0.023643	0.000151
C60	C	0.798194	0.523643	0.500151
N61	N	0.320820	0.075920	0.000137
N62	N	0.820820	0.575920	0.500137
C63	C	0.284048	0.127484	0.000121
C64	C	0.784048	0.627484	0.500121
C65	C	-0.064135	0.019302	0.000185
C66	C	0.435865	0.519302	0.500185
C67	C	-0.123533	0.018589	0.000174
C68	C	0.376467	0.518589	0.500174
C69	C	-0.137680	0.122434	0.000143
C70	C	0.362320	0.622434	0.500143
C71	C	-0.078281	0.123146	0.000144
C72	C	0.421719	0.623146	0.500144
C73	C	-0.041509	0.071578	0.000171
C74	C	0.458491	0.571578	0.500171
C75	C	0.408784	0.128974	0.000097
C76	C	0.908784	0.628974	0.500097
C77	C	0.468186	0.129680	0.000080
C78	C	0.968186	0.629680	0.500080
C79	C	0.482329	0.025836	0.000119
C80	C	0.982329	0.525836	0.500119
C81	C	0.422932	0.025129	0.000128
C82	C	0.922932	0.525129	0.500128
C83	C	0.386160	0.076702	0.000122
C84	C	0.886160	0.576702	0.500122
O85	O	0.334974	-0.020119	0.000121
O86	O	0.834974	0.479881	0.500121
O87	O	0.308755	0.172007	0.000125
O88	O	0.808755	0.672007	0.500125
C89	C	0.723539	-0.492333	0.000114
C90	C	1.223539	0.007667	0.500114
C91	C	0.722827	-0.551733	0.000103
C92	C	1.222827	-0.051733	0.500103
O93	O	0.766613	-0.588478	0.000063
O94	O	1.266613	-0.088478	0.500063
N95	N	0.670551	-0.574359	0.000091
N96	N	1.170551	-0.074359	0.500091
C97	C	0.618983	-0.537582	0.000075
C98	C	1.118983	-0.037582	0.500075
O99	O	0.574452	-0.562281	0.000062
O100	O	1.074452	-0.062281	0.500062
C101	C	0.619695	-0.478182	0.000076
C102	C	1.119695	0.021818	0.500076
C103	C	0.671974	-0.455560	0.000102
C104	C	1.171974	0.044440	0.500102
C105	C	0.775814	-0.469710	0.000138
C106	C	1.275814	0.030290	0.500138
C107	C	0.776525	-0.410313	0.000152
C108	C	1.276525	0.089687	0.500152
C109	C	0.724961	-0.373540	0.000140
C110	C	1.224961	0.126460	0.500140
C111	C	0.672685	-0.396164	0.000115
C112	C	1.172685	0.103836	0.500115
C113	C	0.568127	-0.441406	0.000050
C114	C	1.068127	0.058594	0.500050
C115	C	0.568844	-0.382004	0.000050
C116	C	1.068844	0.117996	0.500050
C117	C	0.621123	-0.359381	0.000076
C118	C	1.121123	0.140619	0.500076
C119	C	0.621832	-0.299995	0.000117
C120	C	1.121832	0.200005	0.500117
N121	N	0.674109	-0.277368	0.000129
N122	N	1.174109	0.222632	0.500129
C123	C	0.725673	-0.314141	0.000141
C124	C	1.225673	0.185859	0.500141
C125	C	0.617491	-0.662324	0.000071
C126	C	1.117491	-0.162324	0.500071
C127	C	0.616778	-0.721722	0.000080
C128	C	1.116778	-0.221722	0.500080
C129	C	0.720623	-0.735869	0.000105
C130	C	1.220623	-0.235869	0.500105
C131	C	0.721335	-0.676470	0.000106
C132	C	1.221335	-0.176470	0.500106
C133	C	0.669767	-0.639698	0.000083
C134	C	1.169767	-0.139698	0.500083
C135	C	0.727163	-0.189405	0.000170
C136	C	1.227163	0.310595	0.500170
C137	C	0.727869	-0.130003	0.000188
C138	C	1.227869	0.369997	0.500188
C139	C	0.624025	-0.115860	0.000156
C140	C	1.124025	0.384140	0.500156
C141	C	0.623318	-0.175257	0.000144
C142	C	1.123318	0.324743	0.500144
C143	C	0.674891	-0.212029	0.000146
C144	C	1.174891	0.287971	0.500146
O145	O	0.578070	-0.263215	0.000151
O146	O	1.078070	0.236785	0.500151
O147	O	0.770196	-0.289433	0.000135
O148	O	1.270196	0.210567	0.500135
C149	C	0.776472	0.069388	0.000160
C150	C	1.276472	0.569388	0.500160
C151	C	0.839689	0.070154	0.000166
C152	C	1.339689	0.570154	0.500166
C153	C	0.667577	0.178283	0.000104
C154	C	1.167577	0.678283	0.500104
C155	C	0.668343	0.241500	0.000084
C156	C	1.168343	0.741500	0.500084
N157	N	0.672327	0.074138	0.356255
N158	N	1.172327	0.574138	0.856255
N159	N	0.672326	0.074127	-0.355982
N160	N	1.172326	0.574127	0.144018
C161	C	0.711273	0.035214	0.428202
C162	C	1.211273	0.535214	0.928202
C163	C	0.711272	0.035207	0.572085
C164	C	1.211272	0.535207	1.072085
C165	C	0.633375	0.113053	0.572061
C166	C	1.133375	0.613053	1.072061
C167	C	0.633374	0.113057	0.428181
C168	C	1.133374	0.613057	0.928181
C169	C	0.750225	-0.003705	0.356276
C170	C	1.250225	0.496295	0.856276
C171	C	0.789176	-0.042631	0.428224
C172	C	1.289176	0.457369	0.928224
C173	C	0.789174	-0.042638	0.572107
C174	C	1.289174	0.457362	1.072107
C175	C	0.750223	-0.003718	0.644042
C176	C	1.250223	0.496282	1.144042
H177	H	0.486602	0.172255	0.000056
H178	H	0.986602	0.672255	0.500056
C179	C	0.832012	-0.085457	0.651252
C180	C	1.332012	0.414543	1.151252
H181	H	0.826431	-0.079891	0.747244
H182	H	1.326431	0.420109	1.247244
H183	H	0.869984	-0.079462	0.627683
H184	H	1.369984	0.420538	1.127683
H185	H	0.826042	-0.123436	0.627667
H186	H	1.326042	0.376564	1.127667
H187	H	-0.059867	0.165717	0.000129
H188	H	0.440133	0.665717	0.500129
H189	H	0.098544	0.219617	0.000108
H190	H	0.598544	0.719617	0.500108
C191	C	0.131911	-0.087571	0.000266
C192	C	0.631911	0.412429	0.500266
H193	H	0.162326	-0.118173	0.000296
H194	H	0.662326	0.381827	0.500296
H195	H	0.109028	-0.090020	-0.079435
H196	H	0.609028	0.409980	0.420565
H197	H	0.109041	-0.090003	0.079996
H198	H	0.609041	0.409997	0.579996
C199	C	0.522786	-0.030880	0.000146
C200	C	1.022786	0.469120	0.500146
H201	H	0.561400	-0.022964	0.000153
H202	H	1.061400	0.477036	0.500153
H203	H	0.515960	-0.052339	-0.079548
H204	H	1.015960	0.447661	0.420452
H205	H	0.515963	-0.052324	0.079883
H206	H	1.015963	0.447676	0.579883
H207	H	0.769159	-0.219337	0.000166
H208	H	1.269159	0.280663	0.500166
C209	C	-0.148412	-0.038918	0.000192
C210	C	0.351588	0.461082	0.500192
H211	H	-0.117999	-0.069523	0.000209
H212	H	0.382001	0.430477	0.500209
H213	H	-0.171295	-0.041359	-0.079512
H214	H	0.328705	0.458641	0.420488
H215	H	-0.171282	-0.041355	0.079920
H216	H	0.328718	0.458645	0.579920
H217	H	0.770444	-0.111587	0.000213
H218	H	1.270444	0.388413	0.500213
H219	H	0.378852	0.170970	0.000096
H220	H	0.878852	0.670970	0.500096
C221	C	0.750217	-0.003727	0.802310
C222	C	1.250217	0.496273	1.302310
H223	H	0.721441	0.025025	0.834844
H224	H	1.221441	0.525025	1.334844
H225	H	0.786570	0.003881	0.834875
H226	H	1.286570	0.503881	1.334875
H227	H	0.742627	-0.040092	0.834852
H228	H	1.242627	0.459908	1.334852
H229	H	-0.167632	0.164421	0.000136
H230	H	0.332368	0.664421	0.500136
C231	C	0.832017	-0.085443	0.349107
C232	C	1.332017	0.414557	0.849107
H233	H	0.855208	-0.108629	0.412568
H234	H	1.355208	0.391371	0.912568
H235	H	0.855607	-0.065074	0.292985
H236	H	1.355607	0.434926	0.792985
H237	H	0.811664	-0.109047	0.292977
H238	H	1.311664	0.390953	0.792977
H239	H	0.762610	-0.765821	0.000110
H240	H	1.262610	-0.265821	0.500110
H241	H	0.601663	0.144741	0.630640
H242	H	1.101663	0.644741	1.130640
H243	H	0.574207	-0.740136	0.000082
H244	H	1.074207	-0.240136	0.500082
H245	H	0.206289	0.220908	0.000081
H246	H	0.706289	0.720908	0.500081
C247	C	0.256634	-0.086070	0.000245
C248	C	0.756634	0.413930	0.500245
H249	H	0.295252	-0.078163	0.000246
H250	H	0.795252	0.421837	0.500246
H251	H	0.249801	-0.107523	-0.079453
H252	H	0.749801	0.392477	0.420547
H253	H	0.249809	-0.107515	0.079979
H254	H	0.749809	0.392485	0.579979
H255	H	-0.034198	-0.022693	0.000195
H256	H	0.465802	0.477307	0.500195
H257	H	0.819097	-0.391900	0.000167
H258	H	1.319097	0.108100	0.500167
C259	C	0.590537	0.155875	0.349034
C260	C	1.090537	0.655875	0.849034
H261	H	0.567345	0.179059	0.412474
H262	H	1.067345	0.679059	0.912474
H263	H	0.566949	0.135509	0.292900
H264	H	1.066949	0.635509	0.792900
H265	H	0.610892	0.179482	0.292911
H266	H	1.110892	0.679482	0.792911
H267	H	0.404512	-0.017441	0.000131
H268	H	0.904512	0.482559	0.500131
H269	H	0.582043	-0.085909	0.000151
H270	H	1.082043	0.414091	0.500151
C271	C	0.832540	-0.510151	0.000162
C272	C	1.332540	-0.010151	0.500162
H273	H	0.863770	-0.488162	0.000188
H274	H	1.363770	0.011838	0.500188
H275	H	0.834431	-0.533618	-0.079543
H276	H	1.334431	-0.033618	0.420457
H277	H	0.834421	-0.533617	0.079889
H278	H	1.334421	-0.033617	0.579889
H279	H	0.763906	-0.658056	0.000126
H280	H	1.263906	-0.158056	0.500126
H281	H	0.575496	-0.632386	0.000064
H282	H	1.075496	-0.132386	0.500064
H283	H	0.750231	-0.003701	0.239120
H284	H	1.250231	0.496299	0.739120
H285	H	0.526850	-0.352066	0.000029
H286	H	1.026850	0.147934	0.500029
C287	C	0.510618	-0.466278	0.000010
C288	C	1.010618	0.033722	0.500010
H289	H	0.480016	-0.435863	-0.000015
H290	H	0.980016	0.064137	0.499985
H291	H	0.508171	-0.489161	0.079712
H292	H	1.008171	0.010839	0.579712
H293	H	0.508184	-0.489147	-0.079719
H294	H	1.008184	0.010853	0.420281
C295	C	0.565812	-0.200144	0.000112
C296	C	1.065812	0.299856	0.500112
H297	H	0.535205	-0.169733	0.000098
H298	H	1.035205	0.330267	0.500098
H299	H	0.563370	-0.223032	0.079806
H300	H	1.063370	0.276968	0.579806
H301	H	0.563381	-0.223009	-0.079625
H302	H	1.063381	0.276991	0.420375
