data_functionalizedCrystal
_audit_creation_method	'MofGen! by Chris Wilmer'
_symmetry_space_group_name_H-M	'P1'
_symmetry_Int_Tables_number	1
_symmetry_cell_setting	triclinic
loop_
_symmetry_equiv_pos_as_xyz
  x,y,z
_cell_length_a	11.169416
_cell_length_b	12.759401
_cell_length_c	11.169409
_cell_angle_alpha	89.979948
_cell_angle_beta	89.968635
_cell_angle_gamma	90.009193
loop_
_atom_site_label
_atom_site_type_symbol
_atom_site_fract_x
_atom_site_fract_y
_atom_site_fract_z
Zn1	Zn	-0.477741	1.606304	-0.678558
Zn2	Zn	-0.678481	1.606208	-0.477878
Zn3	Zn	-0.477807	1.430601	-0.477892
Zn4	Zn	-0.678377	1.430609	-0.678523
O5	O	-0.578101	1.518430	-0.578213
O6	O	-0.504385	1.753312	-0.651947
O7	O	-0.651933	1.582870	-0.309930
O8	O	-0.309849	1.453946	-0.504531
O9	O	-0.651868	1.753242	-0.504508
O10	O	-0.309800	1.583034	-0.651960
O11	O	-0.504499	1.453853	-0.309940
O12	O	-0.504398	1.283581	-0.504496
O13	O	-0.651691	1.453958	-0.846477
O14	O	-0.651755	1.283587	-0.651899
O15	O	-0.504284	1.583041	-0.846503
O16	O	-0.846417	1.582877	-0.504474
O17	O	-0.846340	1.453865	-0.651886
C18	C	-0.578073	1.245463	-0.578196
C19	C	-0.578090	1.128686	-0.578217
C20	C	-0.501441	1.073854	-0.655108
C21	C	-0.501464	0.964130	-0.655115
C22	C	-0.654796	0.964080	-0.501339
C23	C	-0.654766	1.073802	-0.501326
C24	C	-0.424765	1.128739	-0.731999
C25	C	-0.348110	1.073906	-0.808896
C26	C	-0.348133	0.964182	-0.808904
C27	C	-0.424811	0.909290	-0.732014
C28	C	-0.889926	1.518390	-0.578201
C29	C	-1.023326	1.518468	-0.578236
C30	C	-0.265059	1.518500	-0.578251
C31	C	-0.131659	1.518530	-0.578267
C32	C	-0.577968	1.518511	-0.891255
C33	C	-0.577911	1.518545	-1.024655
C34	C	-0.578131	1.792464	-0.578230
C35	C	-0.578143	1.909240	-0.578238
C36	C	-0.578148	1.518411	-0.266388
C37	C	-0.577866	1.518580	-0.132989
H38	H	-0.285708	0.919541	-0.871508
H39	H	-0.717181	1.118448	-0.438716
H40	H	-0.424737	1.218081	-0.732001
H41	H	-0.285674	1.118606	-0.871489
O42	O	-0.729245	0.910599	-0.426774
C43	C	-0.797200	0.741542	-0.358603
C44	C	-0.712841	0.801976	-0.443124
H45	H	-0.783949	0.653709	-0.371774
H46	H	-0.894020	0.763052	-0.379517
H47	H	-0.776024	0.763135	-0.261872
H48	H	-0.733909	0.780415	-0.539884
H49	H	-0.616046	0.780460	-0.422107
H50	H	-0.424797	0.819946	-0.732001
