data_functionalizedCrystal
_audit_creation_method	'MofGen! by Chris Wilmer'
_symmetry_space_group_name_H-M	'P1'
_symmetry_Int_Tables_number	1
_symmetry_cell_setting	triclinic
loop_
_symmetry_equiv_pos_as_xyz
  x,y,z
_cell_length_a	16.974885
_cell_length_b	16.992695
_cell_length_c	15.455301
_cell_angle_alpha	92.826871
_cell_angle_beta	89.355145
_cell_angle_gamma	87.023153
loop_
_atom_site_label
_atom_site_type_symbol
_atom_site_fract_x
_atom_site_fract_y
_atom_site_fract_z
O1	O	1.055361	0.099821	-0.001883
O2	O	1.555361	0.599821	0.498117
O3	O	0.826692	0.113236	0.014156
O4	O	1.326692	0.613236	0.514156
O5	O	0.940110	-0.007611	0.006194
O6	O	1.440110	0.492389	0.506194
O7	O	0.941944	0.220668	0.006079
O8	O	1.441944	0.720668	0.506079
O9	O	0.933554	-0.013714	-0.137609
O10	O	1.433554	0.486286	0.362391
O11	O	0.820137	0.107133	-0.129647
O12	O	1.320137	0.607133	0.370353
O13	O	1.048806	0.093718	-0.145686
O14	O	1.548806	0.593718	0.354314
Cu15	Cu	0.933873	0.099868	-0.150797
Cu16	Cu	1.433873	0.599868	0.349203
Cu17	Cu	0.941625	0.107086	0.019267
Cu18	Cu	1.441625	0.607086	0.519267
O19	O	0.935388	0.214564	-0.137724
O20	O	1.435388	0.714564	0.362276
C21	C	0.794020	0.109788	-0.055684
C22	C	1.294020	0.609788	0.444316
C23	C	0.706432	0.108599	-0.049540
C24	C	1.206432	0.608599	0.450460
C25	C	0.213795	0.102240	-0.006486
C26	C	0.713795	0.602240	0.493514
C27	C	0.296092	0.103357	-0.012270
C28	C	0.796092	0.603357	0.487730
C29	C	0.333659	0.100594	-0.093550
C30	C	0.833659	0.600594	0.406450
C31	C	0.288925	0.096706	-0.169051
C32	C	0.788925	0.596706	0.330949
C33	C	0.206629	0.095584	-0.163266
C34	C	0.706629	0.595584	0.336734
C35	C	0.579402	0.103589	-0.119256
C36	C	1.079402	0.603589	0.380744
C37	C	0.661703	0.104714	-0.125035
C38	C	1.161703	0.604714	0.374965
C39	C	0.668866	0.111363	0.031746
C40	C	1.168866	0.611363	0.531746
C41	C	0.586568	0.110245	0.037523
C42	C	1.086568	0.610245	0.537523
C43	C	0.541841	0.106353	-0.037977
C44	C	1.041841	0.606353	0.462023
N45	N	0.417780	0.101738	-0.099464
N46	N	0.917780	0.601738	0.400536
N47	N	0.457722	0.105204	-0.032063
N48	N	0.957722	0.605204	0.467937
C49	C	0.934473	-0.039865	-0.065542
C50	C	1.434473	0.460135	0.434458
C51	C	0.927436	-0.126881	-0.065048
C52	C	1.427436	0.373119	0.434952
C53	C	0.995334	-0.177399	-0.069811
C54	C	1.495334	0.322601	0.430189
C55	C	0.988718	-0.259158	-0.069339
C56	C	1.488718	0.240842	0.430661
C57	C	0.914203	-0.290398	-0.064109
C58	C	1.414203	0.209602	0.435891
C59	C	0.846300	-0.239873	-0.059343
C60	C	1.346300	0.260127	0.440657
C61	C	0.852917	-0.158116	-0.059809
C62	C	1.352917	0.341884	0.440191
C63	C	0.886776	-0.533883	-0.062174
C64	C	1.386776	-0.033883	0.437826
C65	C	0.880164	-0.615648	-0.061711
C66	C	1.380164	-0.115648	0.438289
C67	C	1.022583	-0.634926	-0.071705
C68	C	1.522583	-0.134926	0.428295
C69	C	1.029193	-0.553166	-0.072176
C70	C	1.529193	-0.053166	0.427824
C71	C	0.961291	-0.502649	-0.067405
C72	C	1.461291	-0.002649	0.432595
N73	N	0.907438	-0.373969	-0.063629
N74	N	1.407438	0.126031	0.436371
N75	N	0.968057	-0.419079	-0.067879
N76	N	1.468057	0.080921	0.432121
C77	C	1.081478	0.097165	-0.075844
C78	C	1.581478	0.597165	0.424156
C79	C	1.169066	0.098355	-0.081982
C80	C	1.669066	0.598355	0.418018
C81	C	0.941025	0.246819	-0.065986
C82	C	1.441025	0.746819	0.434014
C83	C	0.948062	0.333835	-0.066474
C84	C	1.448062	0.833835	0.433526
N85	N	0.928425	0.094791	-0.270411
N86	N	1.428425	0.594791	0.229589
C87	C	0.977159	0.140249	-0.319217
C88	C	1.477159	0.640249	0.180783
C89	C	0.973050	0.136404	-0.409737
C90	C	1.473050	0.636404	0.090263
C91	C	0.920202	0.087105	-0.451449
C92	C	1.420202	0.587105	0.048551
C93	C	0.871467	0.041642	-0.402637
C94	C	1.371467	0.541642	0.097363
C95	C	0.875581	0.045483	-0.312119
C96	C	1.375581	0.545483	0.187881
C97	C	0.902456	0.070534	-0.721788
C98	C	1.402456	0.570534	-0.221788
C99	C	0.898345	0.066698	-0.812313
C100	C	1.398345	0.566698	-0.312313
C101	C	0.999929	0.161460	-0.819407
C102	C	1.499929	0.661460	-0.319407
C103	C	1.004035	0.165300	-0.728886
C104	C	1.504035	0.665300	-0.228886
C105	C	0.955302	0.119834	-0.680082
C106	C	1.455302	0.619834	-0.180082
N107	N	0.915999	0.083176	-0.543975
N108	N	1.415999	0.583176	-0.043975
N109	N	0.959510	0.123759	-0.587558
N110	N	1.459510	0.623759	-0.087558
N111	N	0.947078	0.112157	0.138881
N112	N	1.447078	0.612157	0.638881
H113	H	0.170211	0.092428	-0.224743
H114	H	0.670211	0.592428	0.275257
H115	H	1.044008	-0.300287	-0.073220
H116	H	1.544008	0.199713	0.426780
H117	H	0.785628	-0.265315	-0.055080
H118	H	1.285628	0.234685	0.444920
C119	C	0.703028	0.101635	-0.214447
C120	C	1.203028	0.601635	0.285553
H121	H	0.664606	0.099139	-0.258585
H122	H	1.164606	0.599139	0.241415
H123	H	0.731860	0.147633	-0.219765
H124	H	1.231860	0.647633	0.280235
H125	H	0.738108	0.056212	-0.220154
H126	H	1.238108	0.556212	0.279846
H127	H	0.835896	0.008466	-0.272382
H128	H	1.335896	0.508466	0.227618
H129	H	0.542996	0.100408	-0.180735
H130	H	1.042996	0.600408	0.319265
H131	H	0.183214	0.104495	0.059700
H132	H	0.683214	0.604495	0.559700
C133	C	1.053535	0.211466	-0.873089
C134	C	1.553535	0.711466	-0.373089
H135	H	1.085594	0.241380	-0.835281
H136	H	1.585594	0.741380	-0.335281
H137	H	1.086180	0.177720	-0.910801
H138	H	1.586180	0.677720	-0.410801
H139	H	1.021901	0.246163	-0.906293
H140	H	1.521901	0.746163	-0.406293
C141	C	0.812089	-0.478321	-0.056926
C142	C	1.312089	0.021679	0.443074
H143	H	0.826697	-0.425153	-0.057940
H144	H	1.326697	0.074847	0.442060
H145	H	0.779456	-0.489887	-0.104942
H146	H	1.279456	0.010113	0.395058
H147	H	0.784040	-0.485634	-0.004641
H148	H	1.284040	0.014366	0.495359
H149	H	0.797627	-0.116984	-0.055930
H150	H	1.297627	0.383016	0.444070
C151	C	1.077300	-0.143038	-0.075567
C152	C	1.577300	0.356962	0.424433
H153	H	1.071518	-0.087111	-0.075171
H154	H	1.571518	0.412889	0.424829
H155	H	1.107761	-0.158267	-0.027396
H156	H	1.607761	0.341733	0.472604
H157	H	1.103183	-0.162532	-0.127697
H158	H	1.603183	0.337468	0.372303
H159	H	0.319518	0.094452	-0.235231
H160	H	0.819518	0.594452	0.264769
H161	H	0.862775	0.033511	-0.682063
H162	H	1.362775	0.533511	-0.182063
C163	C	1.111160	-0.518807	-0.077917
C164	C	1.611160	-0.018807	0.422083
H165	H	1.150652	-0.560604	-0.080677
H166	H	1.650652	-0.060604	0.419323
H167	H	1.114420	-0.489443	-0.128451
H168	H	1.614420	0.010557	0.371549
H169	H	1.118983	-0.485185	-0.028150
H170	H	1.618983	0.014815	0.471850
C171	C	1.097269	-0.690495	-0.076940
C172	C	1.597269	-0.190495	0.423060
H173	H	1.082659	-0.743662	-0.075905
H174	H	1.582659	-0.243662	0.424095
H175	H	1.125329	-0.683191	-0.129213
H176	H	1.625329	-0.183191	0.370787
H177	H	1.129892	-0.678922	-0.028912
H178	H	1.629892	-0.178922	0.471088
C179	C	0.813334	-0.012585	-0.448518
C180	C	1.313334	0.487415	0.051482
H181	H	0.817857	-0.008356	-0.509418
H182	H	1.317857	0.491644	-0.009418
H183	H	0.825273	-0.065643	-0.434479
H184	H	1.325273	0.434357	0.065521
H185	H	0.761000	0.002805	-0.429971
H186	H	1.261000	0.502805	0.070029
H187	H	0.855306	0.026553	-0.846272
H188	H	1.355306	0.526553	-0.346272
C189	C	0.798195	-0.650009	-0.055943
C190	C	1.298195	-0.150009	0.444057
H191	H	0.758702	-0.608214	-0.053158
H192	H	1.258702	-0.108214	0.446842
H193	H	0.790359	-0.683635	-0.105698
H194	H	1.290359	-0.183635	0.394302
H195	H	0.794953	-0.679370	-0.005399
H196	H	1.294953	-0.179370	0.494601
H197	H	0.332507	0.106515	0.049206
H198	H	0.832507	0.606515	0.549206
C199	C	1.035296	0.194475	-0.273341
C200	C	1.535296	0.694475	0.226659
H201	H	1.063737	0.220990	-0.315376
H202	H	1.563737	0.720990	0.184624
H203	H	1.006881	0.232165	-0.235924
H204	H	1.506881	0.732165	0.264076
H205	H	1.071151	0.163713	-0.240433
H206	H	1.571151	0.663713	0.259567
C207	C	1.026647	0.186416	-0.463423
C208	C	1.526647	0.686416	0.036577
H209	H	1.016635	0.177065	-0.523307
H210	H	1.516635	0.677065	-0.023307
H211	H	1.016046	0.240731	-0.447793
H212	H	1.516046	0.740731	0.052207
H213	H	1.080333	0.172296	-0.452299
H214	H	1.580333	0.672296	0.047701
C215	C	0.545252	0.113260	0.126931
C216	C	1.045252	0.613260	0.626931
H217	H	0.583679	0.115721	0.171066
H218	H	1.083679	0.615721	0.671066
H219	H	0.510156	0.158663	0.132687
H220	H	1.010156	0.658663	0.632687
H221	H	0.516440	0.067239	0.132204
H222	H	1.016440	0.567239	0.632204
C223	C	1.062171	0.219523	-0.683005
C224	C	1.562171	0.719523	-0.183005
H225	H	1.057637	0.215303	-0.622105
H226	H	1.557637	0.715303	-0.122105
H227	H	1.114503	0.204140	-0.701549
H228	H	1.614503	0.704140	-0.201549
H229	H	1.050226	0.272585	-0.697045
H230	H	1.550226	0.772585	-0.197045
C231	C	0.718067	0.115634	0.114789
C232	C	1.218067	0.615634	0.614789
H233	H	0.772460	0.115900	0.099706
H234	H	1.272460	0.615900	0.599706
H235	H	0.702918	0.162522	0.148174
H236	H	1.202918	0.662522	0.648174
H237	H	0.709185	0.071099	0.147714
H238	H	1.209185	0.571099	0.647714
