data_functionalizedCrystal
_audit_creation_method	'MofGen! by Chris Wilmer'
_symmetry_space_group_name_H-M	'P1'
_symmetry_Int_Tables_number	1
_symmetry_cell_setting	triclinic
loop_
_symmetry_equiv_pos_as_xyz
  x,y,z
_cell_length_a	14.908783
_cell_length_b	18.215405
_cell_length_c	18.215399
_cell_angle_alpha	89.971116
_cell_angle_beta	86.683271
_cell_angle_gamma	93.312937
loop_
_atom_site_label
_atom_site_type_symbol
_atom_site_fract_x
_atom_site_fract_y
_atom_site_fract_z
Zn1	Zn	1.379214	-0.228138	-0.481136
Zn2	Zn	1.379118	-0.351219	-0.358068
Zn3	Zn	1.228354	-0.235259	-0.350972
Zn4	Zn	1.228312	-0.358262	-0.473984
O5	O	1.303750	-0.293220	-0.416040
O6	O	1.505450	-0.238538	-0.470773
O7	O	1.359096	-0.335870	-0.254141
O8	O	1.248424	-0.131327	-0.368262
O9	O	1.505379	-0.328966	-0.380356
O10	O	1.359261	-0.126096	-0.463892
O11	O	1.248331	-0.250674	-0.248928
O12	O	1.102101	-0.257502	-0.361327
O13	O	1.248352	-0.340968	-0.577918
O14	O	1.102070	-0.347872	-0.451704
O15	O	1.359220	-0.245367	-0.583173
O16	O	1.359055	-0.455141	-0.373422
O17	O	1.248259	-0.460314	-0.458585
C18	C	1.069350	-0.304224	-0.404970
C19	C	0.969073	-0.308950	-0.400252
C20	C	1.303666	-0.484430	-0.416014
C21	C	1.303713	-0.566226	-0.416032
C22	C	1.361479	-0.828500	-0.465901
C23	C	1.361449	-0.751643	-0.465889
C24	C	1.246135	-0.757192	-0.366227
C25	C	1.246171	-0.834048	-0.366237
C26	C	1.303841	-0.869700	-0.416078
C27	C	1.303776	-0.715987	-0.416056
C28	C	1.303742	-0.632655	-0.416041
C29	C	1.303876	-0.953037	-0.416091
C30	C	0.780714	-0.223797	-0.485681
C31	C	0.686495	-0.228235	-0.481250
C32	C	0.686414	-0.322259	-0.386956
C33	C	0.780633	-0.317821	-0.391387
C34	C	0.827780	-0.268589	-0.440752
C35	C	0.922001	-0.264156	-0.445186
C36	C	0.921918	-0.358176	-0.350888
C37	C	0.827699	-0.362613	-0.346457
C38	C	1.539064	-0.282172	-0.427154
C39	C	1.639341	-0.277465	-0.431890
C40	C	1.303792	-0.293159	-0.607995
C41	C	1.303810	-0.293133	-0.689795
C42	C	1.303858	-0.101262	-0.416083
C43	C	1.303904	-0.019460	-0.416102
C44	C	1.246184	-0.248737	-0.875277
C45	C	1.246199	-0.248722	-0.952137
C46	C	1.361545	-0.337436	-0.957555
C47	C	1.361524	-0.337455	-0.880697
C48	C	1.303845	-0.293101	-0.839560
C49	C	1.303881	-0.293067	-0.993278
C50	C	1.303899	-0.293050	-1.076613
C51	C	1.303826	-0.293119	-0.756220
C52	C	1.303759	-0.293225	-0.224834
C53	C	1.303916	-0.293035	-0.143043
H54	H	1.408435	-0.857525	-0.506488
H55	H	0.789299	-0.402694	-0.306264
H56	H	0.648010	-0.362332	-0.346757
C57	C	1.182776	-0.199918	-0.991423
H58	H	1.148429	-0.173503	-0.955914
H59	H	1.143458	-0.229906	-1.019542
H60	H	1.217320	-0.166222	-1.023044
H61	H	1.408384	-0.718099	-0.506458
C62	C	1.182725	-0.199963	-0.830029
H63	H	1.148379	-0.173547	-0.862311
H64	H	1.217234	-0.166280	-0.801680
H65	H	1.143393	-0.229981	-0.798187
C66	C	1.424995	-0.386213	-1.002808
H67	H	1.416757	-0.379842	-1.053699
H68	H	1.411767	-0.436285	-0.989577
H69	H	1.485616	-0.372590	-0.993074
H70	H	0.960249	-0.394655	-0.314309
C71	C	1.182695	-0.717973	-0.311413
H72	H	1.190921	-0.666300	-0.318547
H73	H	1.195943	-0.729966	-0.262601
H74	H	1.122073	-0.733452	-0.319285
C75	C	1.424956	-0.386256	-0.841405
H76	H	1.459320	-0.412661	-0.876912
H77	H	1.390419	-0.419949	-0.809784
H78	H	1.464273	-0.356258	-0.813287
H79	H	1.199234	-0.867594	-0.325660
H80	H	0.960386	-0.224070	-0.485382
H81	H	0.819102	-0.183714	-0.525879
C82	C	0.634725	-0.178968	-0.530676
H83	H	0.676301	-0.149018	-0.560713
H84	H	0.597963	-0.148600	-0.500854
H85	H	0.597982	-0.208895	-0.560969
