data_functionalizedCrystal
_audit_creation_method	'MofGen! by Chris Wilmer'
_symmetry_space_group_name_H-M	'P1'
_symmetry_Int_Tables_number	1
_symmetry_cell_setting	triclinic
loop_
_symmetry_equiv_pos_as_xyz
  x,y,z
_cell_length_a	16.959454
_cell_length_b	16.959455
_cell_length_c	18.215399
_cell_angle_alpha	90.023285
_cell_angle_beta	89.976304
_cell_angle_gamma	89.981743
loop_
_atom_site_label
_atom_site_type_symbol
_atom_site_fract_x
_atom_site_fract_y
_atom_site_fract_z
Zn1	Zn	-0.314728	-1.208417	-0.416205
Zn2	Zn	0.185272	-0.708417	0.083795
Zn3	Zn	-0.446913	-1.208330	-0.293148
Zn4	Zn	0.053087	-0.708330	0.206852
Zn5	Zn	-0.314749	-1.076236	-0.293145
Zn6	Zn	0.185251	-0.576236	0.206855
Zn7	Zn	-0.446864	-1.076210	-0.416166
Zn8	Zn	0.053136	-0.576210	0.083834
O9	O	-0.380814	-1.142298	-0.354666
O10	O	0.119186	-0.642298	0.145334
O11	O	-0.332275	-1.319016	-0.399899
O12	O	0.167725	-0.819016	0.100101
O13	O	-0.429411	-1.190781	-0.190164
O14	O	0.070589	-0.690781	0.309836
O15	O	-0.204135	-1.093817	-0.309485
O16	O	0.295865	-0.593817	0.190515
O17	O	-0.429391	-1.318952	-0.309490
O18	O	0.070609	-0.818952	0.190510
O19	O	-0.204120	-1.190930	-0.399897
O20	O	0.295880	-0.690930	0.100103
O21	O	-0.332310	-1.093732	-0.190161
O22	O	0.167690	-0.593732	0.309839
O23	O	-0.332262	-0.965621	-0.309446
O24	O	0.167738	-0.465621	0.190554
O25	O	-0.429307	-1.093773	-0.519155
O26	O	0.070693	-0.593773	-0.019155
O27	O	-0.429327	-0.965603	-0.399829
O28	O	0.070673	-0.465603	0.100171
O29	O	-0.332227	-1.190905	-0.519184
O30	O	0.167773	-0.690905	-0.019184
O31	O	-0.557518	-1.190756	-0.309451
O32	O	-0.057518	-0.690756	0.190549
O33	O	-0.557482	-1.093689	-0.399832
O34	O	-0.057482	-0.593689	0.100168
C35	C	-0.380792	-0.936932	-0.354634
C36	C	0.119208	-0.436932	0.145366
C37	C	-0.380802	-0.849075	-0.354637
C38	C	0.119198	-0.349075	0.145363
C39	C	-0.330192	-0.807787	-0.307653
C40	C	0.169808	-0.307787	0.192347
C41	C	-0.431416	-0.807809	-0.401629
C42	C	0.068584	-0.307809	0.098371
C43	C	-0.431424	-0.725263	-0.401637
C44	C	0.068576	-0.225263	0.098363
C45	C	-0.380814	-0.683976	-0.354653
C46	C	0.119186	-0.183976	0.145347
C47	C	-0.330197	-0.725234	-0.307661
C48	C	0.169803	-0.225234	0.192339
C49	C	-0.482035	-0.683999	-0.448633
C50	C	0.017965	-0.183999	0.051367
C51	C	-0.482045	-0.601448	-0.448643
C52	C	0.017955	-0.101448	0.051357
C53	C	-0.431438	-0.560159	-0.401655
C54	C	0.068562	-0.060159	0.098345
C55	C	-0.380819	-0.601422	-0.354660
C56	C	0.119181	-0.101422	0.145340
C57	C	-0.330209	-0.560135	-0.307676
C58	C	0.169791	-0.060135	0.192324
C59	C	-0.279593	-0.601396	-0.260678
C60	C	0.220407	-0.101396	0.239322
C61	C	-0.279590	-0.683945	-0.260672
C62	C	0.220410	-0.183945	0.239328
C63	C	-0.431442	-0.477610	-0.401660
C64	C	0.068558	0.022390	0.098340
C65	C	-0.330214	-0.477581	-0.307684
C66	C	0.169786	0.022419	0.192316
C67	C	-0.586180	-1.142232	-0.354654
C68	C	-0.086180	-0.642232	0.145346
C69	C	-0.674036	-1.142276	-0.354673
C70	C	-0.174036	-0.642276	0.145327
C71	C	-1.045523	-1.091828	-0.401722
C72	C	-0.545523	-0.591828	0.098278
C73	C	-1.045501	-1.192988	-0.307685
C74	C	-0.545501	-0.692988	0.192315
C75	C	-0.962955	-1.192960	-0.307678
C76	C	-0.462955	-0.692960	0.192322
C77	C	-0.921689	-1.142365	-0.354693
C78	C	-0.421689	-0.642365	0.145307
C79	C	-0.962970	-1.091797	-0.401715
C80	C	-0.462970	-0.591797	0.098285
C81	C	-0.921668	-1.243521	-0.260652
C82	C	-0.421668	-0.743521	0.239348
C83	C	-0.839118	-1.243495	-0.260643
C84	C	-0.339118	-0.743495	0.239357
C85	C	-0.797850	-1.192903	-0.307662
C86	C	-0.297850	-0.692903	0.192338
C87	C	-0.839136	-1.142334	-0.354687
C88	C	-0.339136	-0.642334	0.145313
C89	C	-0.797870	-1.091739	-0.401702
C90	C	-0.297870	-0.591739	0.098298
C91	C	-0.839154	-1.041173	-0.448730
C92	C	-0.339154	-0.541173	0.051270
C93	C	-0.921702	-1.041205	-0.448735
C94	C	-0.421702	-0.541205	0.051265
C95	C	-0.715302	-1.192871	-0.307658
C96	C	-0.215302	-0.692871	0.192342
C97	C	-0.715317	-1.091708	-0.401695
C98	C	-0.215317	-0.591708	0.098305
C99	C	-0.174645	-1.142386	-0.354695
C100	C	0.325355	-0.642386	0.145305
C101	C	-0.086789	-1.142424	-0.354707
C102	C	0.413211	-0.642424	0.145293
C103	C	-0.380759	-1.142346	-0.546619
C104	C	0.119241	-0.642346	-0.046619
C105	C	-0.380736	-1.142367	-0.628418
C106	C	0.119264	-0.642367	-0.128418
C107	C	-0.380832	-0.348466	-0.354690
C108	C	0.119168	0.151534	0.145310
C109	C	-0.380832	-0.436323	-0.354676
C110	C	0.119168	0.063677	0.145324
C111	C	-0.330139	-1.192961	-0.816629
C112	C	0.169861	-0.692961	-0.316629
C113	C	-0.330116	-1.192971	-0.893487
C114	C	0.169884	-0.692971	-0.393487
C115	C	-0.431210	-1.091828	-0.893446
C116	C	0.068790	-0.591828	-0.393446
C117	C	-0.431229	-1.091815	-0.816588
C118	C	0.068771	-0.591815	-0.316588
C119	C	-0.380694	-1.142386	-0.778182
C120	C	0.119306	-0.642386	-0.278182
C121	C	-0.380653	-1.142409	-0.931898
C122	C	0.119347	-0.642409	-0.431898
C123	C	-0.380628	-1.142418	-1.015232
C124	C	0.119372	-0.642418	-0.515232
C125	C	-0.380718	-1.142376	-0.694843
C126	C	0.119282	-0.642376	-0.194843
C127	C	-0.380811	-1.142296	-0.163460
C128	C	0.119189	-0.642296	0.336540
C129	C	-0.380611	-1.142428	-0.081661
C130	C	0.119389	-0.642428	0.418339
H131	H	-0.238383	-0.567769	-0.222426
H132	H	0.261617	-0.067769	0.277574
F133	F	-0.671405	-1.037860	-0.451740
F134	F	-0.171405	-0.537860	0.048260
H135	H	-0.289002	-0.443970	-0.269422
H136	H	0.210998	0.056030	0.230578
H137	H	-0.955323	-1.000037	-0.487022
H138	H	-0.455323	-0.500037	0.012978
H139	H	-0.955273	-1.284708	-0.222369
H140	H	-0.455273	-0.784708	0.277631
H141	H	-0.472396	-1.050625	-0.785284
H142	H	0.027604	-0.550625	-0.285284
F143	F	-0.795188	-1.297316	-0.210596
F144	F	-0.295188	-0.797316	0.289404
F145	F	-1.089460	-1.038019	-0.451774
F146	F	-0.589460	-0.538019	0.048226
F147	F	-0.225723	-0.727864	-0.210660
F148	F	0.274277	-0.227864	0.289340
H149	H	-0.681692	-1.234037	-0.269364
H150	H	-0.181692	-0.734037	0.230636
F151	F	-0.276354	-1.246782	-0.775756
F152	F	0.223646	-0.746782	-0.275756
F153	F	-0.535905	-0.727944	-0.498623
F154	F	-0.035905	-0.227944	0.001377
H155	H	-0.472355	-1.050656	-0.924726
H156	H	0.027645	-0.550656	-0.424726
H157	H	-0.288948	-1.234153	-0.924787
H158	H	0.211052	-0.734153	-0.424787
F159	F	-0.795227	-0.987324	-0.498762
F160	F	-0.295227	-0.487324	0.001238
H161	H	-0.288984	-0.841386	-0.269386
H162	H	0.211016	-0.341386	0.230614
F163	F	-0.535916	-0.557542	-0.498661
F164	F	-0.035916	-0.057542	0.001339
F165	F	-0.485302	-0.433700	-0.451680
F166	F	0.014698	0.066300	0.048320
F167	F	-0.485279	-0.851752	-0.451626
F168	F	0.014721	-0.351752	0.048374
H169	H	-1.079104	-1.234176	-0.269403
H170	H	-0.579104	-0.734176	0.230597
