data_functionalizedCrystal
_audit_creation_method	'MofGen! by Chris Wilmer'
_symmetry_space_group_name_H-M	'P1'
_symmetry_Int_Tables_number	1
_symmetry_cell_setting	triclinic
loop_
_symmetry_equiv_pos_as_xyz
  x,y,z
_cell_length_a	6.817900
_cell_length_b	12.200863
_cell_length_c	10.992410
_cell_angle_alpha	92.441369
_cell_angle_beta	108.764651
_cell_angle_gamma	107.143441
loop_
_atom_site_label
_atom_site_type_symbol
_atom_site_fract_x
_atom_site_fract_y
_atom_site_fract_z
V1	V	-4.105850	-0.158712	-0.400724
O2	O	-4.072780	0.007627	-0.392961
O3	O	-4.075174	-0.314700	-0.398112
O4	O	-4.083571	-0.156271	-0.575434
O5	O	-4.064325	-0.151899	-0.214412
V6	V	-4.583796	-0.138816	-0.378424
O7	O	-4.379341	-0.202356	-0.449641
O8	O	-4.760503	-0.095173	-0.329506
O9	O	-4.391265	0.017171	-0.381035
O10	O	-4.734263	-0.305156	-0.386186
O11	O	-4.742718	-0.145630	-0.564736
O12	O	-4.382868	-0.141258	-0.203713
C13	C	-3.923642	-0.352727	-0.391824
C14	C	-3.980022	-0.480248	-0.390853
C15	C	-4.083210	-0.713725	-0.389087
C16	C	-4.025781	-0.583802	-0.390070
C17	C	-3.934351	-0.150633	-0.618014
C18	C	-3.997537	-0.149669	-0.760842
C19	C	-3.865124	-0.140887	-0.955958
C20	C	-3.799496	-0.142364	-0.807476
C21	C	-4.189568	-0.262775	-0.838039
C22	C	-4.253934	-0.261775	-0.986604
C23	C	-4.143289	-0.042761	-0.948392
C24	C	-4.072609	-0.042225	-0.799379
C25	C	-4.206140	0.055192	-0.387320
C26	C	-4.128999	0.182712	-0.388299
C27	C	-4.195430	-0.146899	-0.161126
C28	C	-4.111482	-0.147857	-0.018298
H29	H	-3.752254	-0.059000	-0.974720
O30	O	-3.726834	-0.233837	-0.778035
C31	C	-3.894861	-0.337931	-0.845089
H32	H	-4.060477	-0.323679	-0.870910
H33	H	-3.889888	-0.408584	-0.780661
H34	H	-3.870088	-0.365705	-0.937916
O35	O	-3.830990	-0.231070	-1.013371
C36	C	-4.028774	-0.300413	-1.109704
H37	H	-4.172996	-0.287014	-1.087448
H38	H	-4.040396	-0.395617	-1.110800
H39	H	-4.032865	-0.274683	-1.208760
H40	H	-3.933782	0.041445	-0.746952
H41	H	-4.322056	-0.046872	-0.989236
H42	H	-4.234161	-0.341351	-1.032940
H43	H	-4.044920	0.043129	-0.968680
O44	O	-4.470536	-0.273728	-1.037472
C45	C	-4.595030	-0.379551	-1.013176
H46	H	-4.496421	-0.441949	-0.996805
H47	H	-4.753055	-0.419115	-1.100180
H48	H	-4.636286	-0.363159	-0.922901
O49	O	-3.627703	-0.045225	-0.743902
C50	C	-3.688918	0.053820	-0.774260
H51	H	-3.831315	0.030824	-0.870858
H52	H	-3.543769	0.125299	-0.782079
H53	H	-3.741169	0.085426	-0.694395
O54	O	-4.368186	-0.274091	-0.803477
C55	C	-4.312587	-0.279951	-0.669352
H56	H	-4.164033	-0.310681	-0.634551
H57	H	-4.456771	-0.343587	-0.651101
H58	H	-4.272003	-0.190326	-0.613947
O59	O	-4.130193	-0.357991	-0.807448
C60	C	-4.275078	-0.428834	-0.753683
H61	H	-4.354826	-0.374112	-0.712000
H62	H	-4.180323	-0.468992	-0.672961
H63	H	-4.407239	-0.500684	-0.832610
O64	O	-4.242316	-0.040782	-0.760609
C65	C	-4.421293	-0.142797	-0.820140
H66	H	-4.406564	-0.179916	-0.912518
H67	H	-4.580574	-0.121670	-0.845686
H68	H	-4.421467	-0.209294	-0.750358
