data_functionalizedCrystal
_audit_creation_method	'MofGen! by Chris Wilmer'
_symmetry_space_group_name_H-M	'P1'
_symmetry_Int_Tables_number	1
_symmetry_cell_setting	triclinic
loop_
_symmetry_equiv_pos_as_xyz
  x,y,z
_cell_length_a	15.944551
_cell_length_b	11.792241
_cell_length_c	10.868271
_cell_angle_alpha	89.994719
_cell_angle_beta	90.000173
_cell_angle_gamma	83.846077
loop_
_atom_site_label
_atom_site_type_symbol
_atom_site_fract_x
_atom_site_fract_y
_atom_site_fract_z
O1	O	1.115184	0.146380	-0.102194
O2	O	1.615184	0.646380	0.397806
O3	O	0.870716	0.164428	-0.102225
O4	O	1.370716	0.664428	0.397775
O5	O	0.998883	-0.009815	-0.102200
O6	O	1.498883	0.490185	0.397800
O7	O	0.987018	0.320623	-0.102219
O8	O	1.487018	0.820623	0.397781
O9	O	0.998872	-0.009822	0.102444
O10	O	1.498872	0.490178	0.602444
O11	O	0.870706	0.164421	0.102420
O12	O	1.370706	0.664421	0.602420
O13	O	1.115174	0.146374	0.102450
O14	O	1.615174	0.646374	0.602450
Zn15	Zn	0.992938	0.155396	0.134927
Zn16	Zn	1.492938	0.655396	0.634927
Zn17	Zn	0.992952	0.155405	-0.134701
Zn18	Zn	1.492952	0.655405	0.365299
O19	O	0.987007	0.320617	0.102426
O20	O	1.487007	0.820617	0.602426
C21	C	0.998132	-0.052104	0.000122
C22	C	1.498132	0.447896	0.500122
C23	C	0.995901	-0.178099	0.000120
C24	C	1.495901	0.321901	0.500120
C25	C	0.839414	0.163675	0.000093
C26	C	1.339414	0.663675	0.500093
C27	C	0.746157	0.161429	0.000082
C28	C	1.246157	0.661429	0.500082
C29	C	0.991799	-0.408777	0.000099
C30	C	1.491799	0.091223	0.500099
C31	C	0.994079	-0.280411	0.000110
C32	C	1.494079	0.219589	0.500110
C33	C	0.530789	0.048056	0.000112
C34	C	1.030789	0.548056	0.500112
C35	C	0.470012	0.100706	-0.100791
C36	C	0.970012	0.600706	0.399209
C37	C	0.575413	0.157365	0.000097
C38	C	1.075413	0.657365	0.500097
C39	C	0.470024	0.100725	0.100972
C40	C	0.970024	0.600725	0.600972
C41	C	0.410483	0.153432	0.000116
C42	C	0.910483	0.653432	0.500116
C43	C	0.515864	0.210045	-0.100890
C44	C	1.015864	0.710045	0.399110
C45	C	0.515882	0.210049	0.100964
C46	C	1.015882	0.710049	0.600964
C47	C	0.455123	0.262778	0.000036
C48	C	0.955123	0.762778	0.500036
C49	C	0.670426	0.159628	0.000084
C50	C	1.170426	0.659628	0.500084
C51	C	0.315471	0.151178	0.000120
C52	C	0.815471	0.651178	0.500120
C53	C	1.146476	0.147126	0.000129
C54	C	1.646476	0.647126	0.500129
C55	C	1.239733	0.149372	0.000133
C56	C	1.739733	0.649372	0.500133
C57	C	0.987758	0.362905	0.000101
C58	C	1.487758	0.862905	0.500101
C59	C	0.989989	0.488900	0.000094
C60	C	1.489989	0.988900	0.500094
N61	N	0.992935	0.155389	0.318941
N62	N	1.492935	0.655389	0.818941
N63	N	0.992962	0.155403	-0.318716
N64	N	1.492962	0.655403	0.181284
C65	C	0.992948	0.155403	0.569947
C66	C	1.492948	0.655403	1.069947
C67	C	0.992938	0.155399	0.430269
C68	C	1.492938	0.655399	0.930269
H69	H	0.563713	-0.042662	-0.000007
H70	H	1.063713	0.457338	0.499993
C71	C	0.599748	0.198411	0.284912
C72	C	1.099748	0.698411	0.784912
C73	C	0.543350	0.272406	0.216117
C74	C	1.043350	0.772406	0.716117
H75	H	0.616710	0.236906	0.356004
H76	H	1.116710	0.736906	0.856004
H77	H	0.572917	0.133828	0.309136
H78	H	1.072917	0.633828	0.809136
H79	H	0.647872	0.174334	0.236251
H80	H	1.147872	0.674334	0.736251
H81	H	0.495222	0.296477	0.264775
H82	H	0.995222	0.796477	0.764775
H83	H	0.570180	0.337010	0.191895
H84	H	1.070180	0.837010	0.691895
C85	C	0.481137	-0.074119	-0.215754
C86	C	0.981137	0.425881	0.284246
C87	C	0.442578	0.038300	-0.215941
C88	C	0.942578	0.538300	0.284059
H89	H	0.464197	-0.112650	-0.286836
H90	H	0.964197	0.387350	0.213164
H91	H	0.540676	-0.073747	-0.216211
H92	H	1.040676	0.426253	0.283789
H93	H	0.464675	-0.112206	-0.144094
H94	H	0.964675	0.387794	0.355906
H95	H	0.459045	0.076391	-0.287597
H96	H	0.959045	0.576391	0.212403
H97	H	0.383025	0.037934	-0.215495
H98	H	0.883025	0.537934	0.284505
H99	H	0.536065	0.256247	-0.186289
H100	H	1.036065	0.756247	0.313711
H101	H	0.422374	0.353590	-0.000026
H102	H	0.922374	0.853590	0.499974
H103	H	0.449724	0.054469	0.186275
H104	H	0.949724	0.554469	0.686275
