data_functionalizedCrystal
_audit_creation_method	'MofGen! by Chris Wilmer'
_symmetry_space_group_name_H-M	'P1'
_symmetry_Int_Tables_number	1
_symmetry_cell_setting	triclinic
loop_
_symmetry_equiv_pos_as_xyz
  x,y,z
_cell_length_a	17.077402
_cell_length_b	10.686220
_cell_length_c	17.077396
_cell_angle_alpha	94.351283
_cell_angle_beta	89.972472
_cell_angle_gamma	94.405256
loop_
_atom_site_label
_atom_site_type_symbol
_atom_site_fract_x
_atom_site_fract_y
_atom_site_fract_z
Zn1	Zn	-0.220326	1.929045	-0.351899
Zn2	Zn	-0.351608	1.928893	-0.220643
Zn3	Zn	-0.230437	1.718035	-0.230705
Zn4	Zn	-0.361640	1.717981	-0.361919
O5	O	-0.291003	1.823489	-0.291292
O6	O	-0.229311	2.105600	-0.326083
O7	O	-0.335568	1.900881	-0.112132
O8	O	-0.119244	1.746112	-0.246799
O9	O	-0.325764	2.105489	-0.229650
O10	O	-0.111816	1.901140	-0.335840
O11	O	-0.246543	1.745965	-0.119525
O12	O	-0.256270	1.541453	-0.256516
O13	O	-0.342861	1.746020	-0.470435
O14	O	-0.352665	1.541413	-0.352918
O15	O	-0.239039	1.901088	-0.463074
O16	O	-0.462790	1.900829	-0.239366
O17	O	-0.470160	1.745873	-0.343161
C18	C	-0.494957	1.823363	-0.291274
C19	C	-0.582203	1.823425	-0.291288
C20	C	-0.306654	1.495649	-0.306897
C21	C	-0.313368	1.355397	-0.313591
C22	C	-0.619260	1.904104	-0.337694
C23	C	-0.701238	1.904157	-0.337708
C24	C	-0.746157	1.823536	-0.291311
C25	C	-0.709095	1.742849	-0.244903
C26	C	-0.627119	1.742790	-0.244894
C27	C	-0.879959	1.742978	-0.244925
C28	C	-0.961941	1.743038	-0.244933
C29	C	-0.954078	1.904345	-0.337738
C30	C	-0.872102	1.904287	-0.337729
C31	C	-0.835045	1.823600	-0.291320
C32	C	-0.086251	1.823649	-0.291325
C33	C	0.001002	1.823717	-0.291339
C34	C	-0.290941	1.823565	-0.496032
C35	C	-0.290915	1.823597	-0.583281
C36	C	-0.275291	2.152608	-0.275626
C37	C	-0.268595	2.292860	-0.268951
C38	C	-0.236850	1.904344	-0.620439
C39	C	-0.236823	1.904359	-0.702418
C40	C	-0.290866	1.823633	-0.747238
C41	C	-0.344933	1.742878	-0.710075
C42	C	-0.344956	1.742857	-0.628097
C43	C	-0.344883	1.742929	-0.880943
C44	C	-0.344862	1.742951	-0.962926
C45	C	-0.236751	1.904430	-0.955264
C46	C	-0.236774	1.904410	-0.873286
C47	C	-0.290842	1.823656	-0.836128
C48	C	-0.291004	1.823485	-0.087344
C49	C	-0.290797	1.823697	-0.000084
H50	H	-0.582692	1.969760	-0.375472
H51	H	-0.225127	1.346615	-0.225610
H52	H	-0.731405	1.969864	-0.375490
H53	H	-0.356845	1.301636	-0.356930
O54	O	-0.178562	1.991413	-0.572098
H55	H	-0.140958	2.047554	-0.611713
O56	O	-0.757536	1.655886	-0.194860
H57	H	-0.740782	1.677570	-0.132231
O58	O	-0.178516	1.991456	-0.742499
H59	H	-0.140949	2.047600	-0.697560
H60	H	-0.192772	1.970151	-0.836795
O61	O	-0.403137	1.655857	-1.011268
H62	H	-0.394038	1.669447	-1.074514
O63	O	-0.178425	1.991522	-0.995334
H64	H	-0.187478	1.977964	-1.059869
H65	H	-0.998512	1.677384	-0.207156
H66	H	-0.849791	1.677270	-0.207136
H67	H	-0.388900	1.677150	-0.850693
O68	O	-0.823647	1.991267	-0.387750
H69	H	-0.863185	2.047385	-0.420022
H70	H	-0.596949	1.677092	-0.207106
O71	O	-0.403216	1.655799	-0.758417
H72	H	-0.463799	1.677374	-0.741640
O73	O	-0.994039	1.991365	-0.387803
H74	H	-1.058589	1.977852	-0.380026
O75	O	-0.403258	1.655751	-0.588014
H76	H	-0.440834	1.599620	-0.632951
