data_functionalizedCrystal
_audit_creation_method	'MofGen! by Chris Wilmer'
_symmetry_space_group_name_H-M	'P1'
_symmetry_Int_Tables_number	1
_symmetry_cell_setting	triclinic
loop_
_symmetry_equiv_pos_as_xyz
  x,y,z
_cell_length_a	19.288864
_cell_length_b	13.101039
_cell_length_c	19.288865
_cell_angle_alpha	86.654591
_cell_angle_beta	83.136245
_cell_angle_gamma	93.359745
loop_
_atom_site_label
_atom_site_type_symbol
_atom_site_fract_x
_atom_site_fract_y
_atom_site_fract_z
O1	O	0.925197	0.085556	0.082787
O2	O	1.425197	0.585556	0.582787
O3	O	0.722933	0.085487	0.094479
O4	O	1.222933	0.585487	0.594479
O5	O	0.829908	0.085503	-0.012497
O6	O	1.329908	0.585503	0.487503
O7	O	0.818221	0.085540	0.189762
O8	O	1.318221	0.585540	0.689762
O9	O	0.822233	-0.084928	-0.004809
O10	O	1.322233	0.415072	0.495191
O11	O	0.715258	-0.084944	0.102167
O12	O	1.215258	0.415056	0.602167
O13	O	0.917521	-0.084875	0.090475
O14	O	1.417521	0.415125	0.590475
Zn15	Zn	0.815171	-0.111969	0.097541
Zn16	Zn	1.315171	0.388031	0.597541
Zn17	Zn	0.825283	0.112581	0.087412
Zn18	Zn	1.325283	0.612581	0.587412
O19	O	0.810546	-0.084891	0.197450
O20	O	1.310546	0.415109	0.697450
C21	C	0.693218	0.000263	0.097947
C22	C	1.193218	0.500263	0.597947
C23	C	0.616114	0.000236	0.096819
C24	C	1.116114	0.500236	0.596819
N25	N	0.808274	-0.265219	0.104454
N26	N	1.308274	0.234781	0.604454
C27	C	0.571419	0.000263	0.159586
C28	C	1.071419	0.500263	0.659586
C29	C	0.498972	0.000274	0.158524
C30	C	0.998972	0.500274	0.658524
C31	C	0.471225	0.000278	0.094692
C32	C	0.971225	0.500278	0.594692
C33	C	0.515929	0.000245	0.031918
C34	C	1.015929	0.500245	0.531918
C35	C	0.588374	0.000224	0.032981
C36	C	1.088374	0.500224	0.532981
C37	C	0.365653	0.060013	0.041818
C38	C	0.865653	0.560013	0.541818
C39	C	0.293210	0.060041	0.040757
C40	C	0.793210	0.560041	0.540757
C41	C	0.247782	0.000340	0.091410
C42	C	0.747782	0.500340	0.591410
C43	C	0.274805	-0.059376	0.143135
C44	C	0.774805	0.440624	0.643135
C45	C	0.347250	-0.059397	0.144198
C46	C	0.847250	0.440603	0.644198
C47	C	0.392672	0.000301	0.093532
C48	C	0.892672	0.500301	0.593532
C49	C	0.124531	0.000378	0.153030
C50	C	0.624531	0.500378	0.653030
C51	C	0.052083	0.000383	0.151967
C52	C	0.552083	0.500383	0.651967
C53	C	0.069043	0.000364	0.025357
C54	C	0.569043	0.500364	0.525357
C55	C	0.141489	0.000349	0.026423
C56	C	0.641489	0.500349	0.526423
C57	C	0.169228	0.000361	0.090261
C58	C	0.669228	0.500361	0.590261
C59	C	0.798891	-0.474263	0.113865
C60	C	1.298891	0.025737	0.613865
C61	C	0.841566	-0.525132	0.071085
C62	C	1.341566	-0.025132	0.571085
C63	C	0.836345	-0.641451	0.076322
C64	C	1.336345	-0.141451	0.576322
C65	C	0.804111	-0.357933	0.108629
C66	C	1.304111	0.142067	0.608629
C67	C	0.947236	0.000352	0.087006
C68	C	1.447236	0.500352	0.587006
C69	C	1.024341	0.000385	0.088134
C70	C	1.524341	0.500385	0.588134
C71	C	0.825694	0.000284	-0.034529
C72	C	1.325694	0.500284	0.465471
C73	C	0.824565	0.000275	-0.111632
C74	C	1.324565	0.500275	0.388368
N75	N	0.832186	0.265831	0.080494
N76	N	1.332186	0.765831	0.580494
C77	C	0.887334	0.000291	-0.156329
C78	C	1.387334	0.500291	0.343671
C79	C	0.886274	0.000307	-0.228777
C80	C	1.386274	0.500307	0.271223
C81	C	0.822441	0.000286	-0.256524
C82	C	1.322441	0.500286	0.243476
C83	C	0.759664	0.000276	-0.211817
C84	C	1.259664	0.500276	0.288183
C85	C	0.760726	0.000270	-0.139371
C86	C	1.260726	0.500270	0.360629
C87	C	0.769572	-0.059429	-0.362117
C88	C	1.269572	0.440571	0.137883
C89	C	0.768512	-0.059430	-0.434562
C90	C	1.268512	0.440570	0.065438
C91	C	0.819162	0.000308	-0.479970
C92	C	1.319162	0.500308	0.020030
C93	C	0.870883	0.060033	-0.452926
C94	C	1.370883	0.560033	0.047074
C95	C	0.871945	0.060028	-0.380481
C96	C	1.371945	0.560028	0.119519
C97	C	0.821282	0.000293	-0.335078
C98	C	1.321282	0.500293	0.164922
C99	C	0.880786	0.000343	-0.603224
C100	C	1.380786	0.500343	-0.103224
C101	C	0.879723	0.000365	-0.675673
C102	C	1.379723	0.500365	-0.175673
C103	C	0.753111	0.000323	-0.658711
C104	C	1.253111	0.500323	-0.158711
C105	C	0.754176	0.000311	-0.586264
C106	C	1.254176	0.500311	-0.086264
C107	C	0.818015	0.000316	-0.558525
C108	C	1.318015	0.500316	-0.058525
C109	C	0.814760	0.000330	0.219482
C110	C	1.314760	0.500330	0.719482
C111	C	0.815890	0.000346	0.296585
C112	C	1.315890	0.500346	0.796585
H113	H	0.593999	0.000275	0.211567
H114	H	1.093999	0.500275	0.711567
Cl115	Cl	0.904293	-0.457501	0.008731
Cl116	Cl	1.404293	0.042499	0.508731
H117	H	0.701137	0.000311	-0.681302
H118	H	1.201137	0.500311	-0.181302
H119	H	0.493333	0.000263	-0.020056
H120	H	0.993333	0.500263	0.479944
H121	H	0.758438	-0.518066	0.154420
H122	H	1.258438	-0.018066	0.654420
Cl123	Cl	0.967589	0.000326	-0.121462
Cl124	Cl	1.467589	0.500326	0.378538
H125	H	0.462574	0.000294	0.209638
H126	H	0.962574	0.500294	0.709638
H127	H	0.937389	0.000324	-0.265177
H128	H	1.437389	0.500324	0.234823
Cl129	Cl	0.197680	0.000321	-0.052489
Cl130	Cl	0.697680	0.500321	0.447511
H131	H	0.914057	0.108660	-0.358465
H132	H	1.414057	0.608660	0.141535
H133	H	0.369249	-0.108023	0.186312
H134	H	0.869249	0.391977	0.686312
Cl135	Cl	0.934561	0.135140	-0.510004
Cl136	Cl	1.434561	0.635140	-0.010004
Cl137	Cl	0.961038	0.000343	-0.568348
Cl138	Cl	1.461038	0.500343	-0.068348
H139	H	0.930839	0.000384	-0.712066
H140	H	1.430839	0.500384	-0.212066
Cl141	Cl	0.675262	0.000286	-0.530070
Cl142	Cl	1.175262	0.500286	-0.030070
Cl143	Cl	0.159407	0.000383	0.233282
Cl144	Cl	0.659407	0.500383	0.733282
Cl145	Cl	0.644565	0.000190	-0.045933
Cl146	Cl	1.144565	0.500190	0.454067
Cl147	Cl	0.703494	-0.134516	-0.468553
Cl148	Cl	1.203494	0.365484	0.031447
Cl149	Cl	-0.004107	0.000412	0.230881
Cl150	Cl	0.495893	0.500412	0.730881
H151	H	0.271213	0.108669	-0.001357
H152	H	0.771213	0.608669	0.498643
Cl153	Cl	0.705892	-0.134539	-0.305039
Cl154	Cl	1.205892	0.365461	0.194961
H155	H	0.046455	0.000431	-0.026619
H156	H	0.546455	0.500431	0.473381
H157	H	0.237819	-0.107991	0.184380
H158	H	0.737819	0.392009	0.684380
Cl159	Cl	0.422756	0.135074	-0.021866
Cl160	Cl	0.922756	0.635074	0.478134
Cl161	Cl	0.679417	0.000258	-0.246698
Cl162	Cl	1.179417	0.500258	0.253302
H163	H	0.709611	0.000257	-0.102978
H164	H	1.209611	0.500257	0.397022
