data_functionalizedCrystal
_audit_creation_method	'MofGen! by Chris Wilmer'
_symmetry_space_group_name_H-M	'P1'
_symmetry_Int_Tables_number	1
_symmetry_cell_setting	triclinic
loop_
_symmetry_equiv_pos_as_xyz
  x,y,z
_cell_length_a	15.944551
_cell_length_b	15.944551
_cell_length_c	14.750779
_cell_angle_alpha	77.355667
_cell_angle_beta	102.647229
_cell_angle_gamma	83.498738
loop_
_atom_site_label
_atom_site_type_symbol
_atom_site_fract_x
_atom_site_fract_y
_atom_site_fract_z
O1	O	1.096314	0.126533	-0.079730
O2	O	0.851758	0.139895	-0.079754
O3	O	0.980716	0.010937	-0.079733
O4	O	0.967356	0.255491	-0.079751
O5	O	1.017171	-0.025514	0.079924
O6	O	0.888213	0.103444	0.079902
O7	O	1.132768	0.090082	0.079926
Zn8	Zn	1.016279	0.090976	0.105263
Zn9	Zn	0.968248	0.139001	-0.105091
O10	O	1.003811	0.219040	0.079905
C11	C	0.838691	0.121116	0.000071
C12	C	0.745443	0.119455	0.000062
C13	C	0.530592	0.035545	0.000087
C14	C	0.451597	0.092481	-0.078635
C15	C	0.574720	0.116445	0.000074
C16	C	0.487561	0.056562	0.078774
C17	C	0.409811	0.113531	0.000089
C18	C	0.496938	0.173418	-0.078713
C19	C	0.532925	0.137472	0.078766
C20	C	0.453943	0.194470	0.000025
C21	C	0.669720	0.118122	0.000064
C22	C	0.314810	0.111862	0.000092
C23	C	0.998389	-0.038582	0.000095
C24	C	0.996727	-0.131829	0.000096
C25	C	0.912818	-0.346680	0.000074
C26	C	0.969755	-0.425671	0.078798
C27	C	0.993718	-0.302553	0.000088
C28	C	0.933833	-0.389717	-0.078610
C29	C	0.990805	-0.467463	0.000077
C30	C	1.050693	-0.380330	0.078877
C31	C	1.014743	-0.344353	-0.078602
C32	C	1.071744	-0.423331	0.000141
C33	C	0.995394	-0.207552	0.000096
C34	C	0.989136	-0.562464	0.000076
C35	C	1.145835	0.108862	0.000099
C36	C	1.239082	0.110524	0.000102
C37	C	0.986137	0.268560	0.000074
C38	C	0.987798	0.361808	0.000068
N39	N	1.049065	0.058199	0.248824
N40	N	0.935469	0.171771	-0.248652
C41	C	0.843903	0.263275	0.600608
C42	C	0.866883	0.240313	0.701111
C43	C	0.981099	0.126162	0.701093
C44	C	0.958125	0.149112	0.600588
C45	C	0.889527	0.217670	0.550354
C46	C	1.003749	0.103507	0.550333
C47	C	0.980780	0.126459	0.449837
C48	C	0.912187	0.195015	0.399596
C49	C	0.866558	0.240621	0.449857
C50	C	1.072351	0.034954	0.600569
C51	C	1.117976	-0.010651	0.550315
C52	C	1.095003	0.012296	0.449817
C53	C	1.026409	0.080853	0.399575
C54	C	1.140632	-0.033310	0.399555
C55	C	1.117663	-0.010358	0.299059
C56	C	1.003440	0.103804	0.299079
H57	H	0.568252	0.156465	0.145318
Br58	Br	0.398655	0.306502	-0.000051
Br59	Br	0.504889	0.255759	-0.189762
Br60	Br	1.074197	0.033126	0.769274
Br61	Br	0.881019	0.226171	0.263206
Br62	Br	0.773447	0.333654	0.381677
H63	H	0.482671	0.007137	0.145325
Br64	Br	1.179588	-0.072248	0.230853
Br65	Br	1.211074	-0.103687	0.618495
H66	H	0.788037	0.319095	0.559706
H67	H	0.845686	-0.313389	0.000146
H68	H	0.950734	-0.460973	0.145347
H69	H	1.100094	-0.375551	0.145505
Br70	Br	1.183776	-0.478618	0.000219
Br71	Br	0.586081	-0.076346	-0.000027
H72	H	1.033734	-0.309028	-0.145154
Br73	Br	1.233737	-0.126338	0.467739
H74	H	0.884408	-0.394597	-0.145170
H75	H	0.947575	0.159624	0.258176
H76	H	0.829725	0.277457	0.742024
H77	H	1.091053	0.016273	0.682400
H78	H	0.416292	0.073458	-0.145184
