data_functionalizedCrystal
_audit_creation_method	'MofGen! by Chris Wilmer'
_symmetry_space_group_name_H-M	'P1'
_symmetry_Int_Tables_number	1
_symmetry_cell_setting	triclinic
loop_
_symmetry_equiv_pos_as_xyz
  x,y,z
_cell_length_a	21.295420
_cell_length_b	21.295417
_cell_length_c	21.395356
_cell_angle_alpha	90.027507
_cell_angle_beta	90.016531
_cell_angle_gamma	90.027953
loop_
_atom_site_label
_atom_site_type_symbol
_atom_site_fract_x
_atom_site_fract_y
_atom_site_fract_z
Zn1	Zn	0.962308	-0.250667	0.354256
Zn2	Zn	0.962227	-0.355932	0.249475
Zn3	Zn	0.857046	-0.250677	0.249492
Zn4	Zn	0.857002	-0.355899	0.354215
O5	O	0.909646	-0.303294	0.301859
O6	O	1.050387	-0.264640	0.340366
O7	O	0.948259	-0.341987	0.161799
O8	O	0.871062	-0.162587	0.263414
O9	O	1.050327	-0.341978	0.263384
O10	O	0.948397	-0.162579	0.340383
O11	O	0.870983	-0.264657	0.161812
O12	O	0.768951	-0.264626	0.263374
O13	O	0.870987	-0.341922	0.441898
O14	O	0.768919	-0.341932	0.340313
O15	O	0.948355	-0.264609	0.441928
O16	O	0.948216	-0.444017	0.263344
O17	O	0.870908	-0.443993	0.340296
C18	C	0.746094	-0.303277	0.301841
C19	C	0.676126	-0.303285	0.301848
C20	C	0.176668	-0.343621	0.341883
C21	C	0.242410	-0.343622	0.341876
C22	C	0.275287	-0.303308	0.301879
C23	C	0.242415	-0.263003	0.261874
C24	C	0.176674	-0.263008	0.261877
N25	N	0.378527	-0.248191	0.297167
N26	N	0.440979	-0.248188	0.297168
C27	C	0.473362	-0.303291	0.301866
N28	N	0.440933	-0.358398	0.306575
N29	N	0.378476	-0.358400	0.306578
C30	C	0.346572	-0.303298	0.301871
C31	C	0.577511	-0.343597	0.341858
C32	C	0.643254	-0.343598	0.341847
C33	C	0.643258	-0.262974	0.261848
C34	C	0.577516	-0.262978	0.261856
C35	C	0.544646	-0.303289	0.301864
C36	C	0.909566	-0.466846	0.301828
C37	C	0.909589	-0.536814	0.301835
C38	C	0.949834	-0.569619	0.341941
C39	C	0.949857	-0.635362	0.341957
C40	C	0.909640	-0.668296	0.301855
C41	C	0.869387	-0.635483	0.261745
C42	C	0.869361	-0.569741	0.261735
N43	N	0.904888	-0.771555	0.247021
N44	N	0.904916	-0.834006	0.247032
C45	C	0.909714	-0.866371	0.301883
N46	N	0.914494	-0.833925	0.356723
N47	N	0.914469	-0.771467	0.356712
C48	C	0.909663	-0.739582	0.301861
C49	C	0.949985	-0.970462	0.342010
C50	C	0.950003	-1.036206	0.342026
C51	C	0.869536	-1.036325	0.261809
C52	C	0.869515	-0.970583	0.261798
C53	C	0.909743	-0.937655	0.301897
C54	C	1.073836	-0.303312	0.301878
C55	C	1.143804	-0.303319	0.301886
C56	C	0.909675	-0.303261	0.465283
C57	C	0.909687	-0.303247	0.534924
C58	C	0.909744	-0.139104	0.301905
C59	C	0.909785	-0.069136	0.301924
C60	C	0.909653	-0.303282	0.139072
C61	C	0.909763	-0.303118	0.069431
C62	C	0.949995	-0.343381	1.036714
C63	C	0.949984	-0.343401	0.971279
C64	C	0.909747	-0.303147	0.938562
C65	C	0.869507	-0.262882	0.971287
C66	C	0.869515	-0.262868	1.036721
C67	C	0.904798	-0.246455	0.834909
C68	C	0.904794	-0.246468	0.769476
C69	C	0.909719	-0.303192	0.736742
C70	C	0.914660	-0.359904	0.769448
C71	C	0.914668	-0.359889	0.834882
C72	C	0.909734	-0.303158	0.867610
C73	C	0.949941	-0.343479	0.633072
C74	C	0.949925	-0.343500	0.567636
C75	C	0.869452	-0.262976	0.567645
C76	C	0.869464	-0.262960	0.633081
C77	C	0.909712	-0.303211	0.665790
H78	H	0.550758	-0.230157	0.229288
H79	H	0.982624	-0.662078	0.374624
Cl80	Cl	0.818825	-0.676885	0.211335
H81	H	0.550747	-0.376421	0.374434
Cl82	Cl	0.684582	-0.212299	0.211559
H83	H	0.982767	-0.376158	1.063342
H84	H	0.836753	-0.230080	1.063359
H85	H	0.149909	-0.376448	0.374458
Cl86	Cl	0.898587	-0.175174	0.728366
H87	H	0.149917	-0.230188	0.229307
Cl88	Cl	0.818875	-0.212350	0.674212
Cl89	Cl	0.818976	-1.077722	0.211396
H90	H	0.269173	-0.376441	0.374448
H91	H	0.670011	-0.376421	0.374415
H92	H	0.982589	-0.542812	0.374594
H93	H	0.836588	-0.543030	0.229075
Cl94	Cl	1.000553	-0.929064	0.392422
Cl95	Cl	0.920854	-0.431218	0.728304
H96	H	0.836745	-0.230108	0.944645
H97	H	0.836746	-0.943871	0.229137
H98	H	0.982755	-0.376180	0.944636
Cl99	Cl	0.898921	-0.175112	0.876054
H100	H	0.269187	-0.230181	0.229307
Cl101	Cl	1.000595	-1.077448	0.392458
H102	H	0.918690	-0.406066	0.861509
Cl103	Cl	1.000536	-0.394080	0.674196
H104	H	0.982684	-0.376292	0.540999
H105	H	0.836688	-0.230202	0.541008
