data_functionalizedCrystal
_audit_creation_method	'MofGen! by Chris Wilmer'
_symmetry_space_group_name_H-M	'P1'
_symmetry_Int_Tables_number	1
_symmetry_cell_setting	triclinic
loop_
_symmetry_equiv_pos_as_xyz
  x,y,z
_cell_length_a	21.395362
_cell_length_b	12.759400
_cell_length_c	21.395355
_cell_angle_alpha	90.013847
_cell_angle_beta	90.043940
_cell_angle_gamma	90.030564
loop_
_atom_site_label
_atom_site_type_symbol
_atom_site_fract_x
_atom_site_fract_y
_atom_site_fract_z
Zn1	Zn	0.957929	-0.417943	0.354606
Zn2	Zn	1.457929	0.082057	0.854606
Zn3	Zn	0.957861	-0.593607	0.249837
Zn4	Zn	1.457861	-0.093607	0.749837
Zn5	Zn	0.853144	-0.417992	0.249807
Zn6	Zn	1.353144	0.082008	0.749807
Zn7	Zn	0.853143	-0.593629	0.354542
Zn8	Zn	1.353143	-0.093629	0.854542
O9	O	0.905519	-0.505793	0.302198
O10	O	1.405519	-0.005793	0.802198
O11	O	1.045598	-0.441215	0.340747
O12	O	1.545598	0.058785	0.840747
O13	O	0.943942	-0.570323	0.162155
O14	O	1.443942	-0.070323	0.662155
O15	O	0.867073	-0.270964	0.263723
O16	O	1.367073	0.229036	0.763723
O17	O	1.045548	-0.570275	0.263774
O18	O	1.545548	-0.070275	0.763774
O19	O	0.944058	-0.270928	0.340719
O20	O	1.444058	0.229072	0.840719
O21	O	0.867007	-0.441299	0.162133
O22	O	1.367007	0.058701	0.662133
O23	O	0.765466	-0.441320	0.263661
O24	O	1.265466	0.058680	0.763661
O25	O	0.867071	-0.570312	0.442228
O26	O	1.367071	-0.070312	0.942228
O27	O	0.765465	-0.570360	0.340609
O28	O	1.265465	-0.070360	0.840609
O29	O	0.944057	-0.441236	0.442275
O30	O	1.444057	0.058764	0.942275
O31	O	0.943941	-0.740631	0.263712
O32	O	1.443941	-0.240631	0.763712
O33	O	0.867005	-0.740647	0.340638
O34	O	1.367005	-0.240647	0.840638
C35	C	0.742732	-0.505848	0.302125
C36	C	1.242732	-0.005848	0.802125
C37	C	0.673090	-0.505897	0.302109
C38	C	1.173090	-0.005897	0.802109
C39	C	0.640393	-0.573177	0.342116
C40	C	1.140393	-0.073177	0.842116
C41	C	0.574958	-0.573152	0.342144
C42	C	1.074958	-0.073152	0.842144
C43	C	0.542222	-0.505857	0.302154
C44	C	1.042222	-0.005857	0.802154
C45	C	0.574927	-0.438564	0.262144
C46	C	1.074927	0.061436	0.762144
C47	C	0.640361	-0.438584	0.262122
C48	C	1.140361	0.061416	0.762122
C49	C	0.438496	-0.497393	0.245748
C50	C	0.938496	0.002607	0.745748
C51	C	0.373063	-0.497380	0.245769
C52	C	0.873063	0.002620	0.745769
C53	C	0.340401	-0.505788	0.302223
C54	C	0.840401	-0.005788	0.802223
C55	C	0.373181	-0.514231	0.358657
C56	C	0.873181	-0.014231	0.858657
C57	C	0.438615	-0.514251	0.358635
C58	C	0.938615	-0.014251	0.858635
C59	C	0.471270	-0.505827	0.302174
C60	C	0.971270	-0.005827	0.802174
C61	C	0.236752	-0.573044	0.342263
C62	C	0.736752	-0.073044	0.842263
C63	C	0.171315	-0.573011	0.342292
C64	C	0.671315	-0.073011	0.842292
C65	C	0.171286	-0.438428	0.262287
C66	C	0.671286	0.061572	0.762287
C67	C	0.236721	-0.438456	0.262264
C68	C	0.736721	0.061544	0.762264
C69	C	0.269450	-0.505769	0.302251
C70	C	0.769450	-0.005769	0.802251
C71	C	0.905482	-0.778760	0.302185
C72	C	1.405482	-0.278760	0.802185
C73	C	0.905523	-0.895537	0.302200
C74	C	1.405523	-0.395537	0.802200
C75	C	0.945629	-0.950355	0.262189
C76	C	1.445629	-0.450355	0.762189
C77	C	0.945667	-1.060079	0.262209
C78	C	1.445667	-0.560079	0.762209
C79	C	0.865490	-1.060156	0.342252
C80	C	1.365490	-0.560156	0.842252
C81	C	0.865455	-0.950434	0.342235
C82	C	1.365455	-0.450434	0.842235
C83	C	0.985697	-0.895458	0.222154
C84	C	1.485697	-0.395458	0.722154
C85	C	1.025805	-0.950277	0.182139
C86	C	1.525805	-0.450277	0.682139
C87	C	1.025843	-1.060001	0.182159
C88	C	1.525843	-0.560001	0.682159
C89	C	0.985774	-1.114906	0.222193
C90	C	1.485774	-0.614906	0.722193
C91	C	1.068943	-0.505738	0.302271
C92	C	1.568943	-0.005738	0.802271
C93	C	1.138584	-0.505714	0.302303
C94	C	1.638584	-0.005714	0.802303
C95	C	0.905571	-0.505771	0.465621
C96	C	1.405571	-0.005771	0.965621
C97	C	0.905593	-0.505762	0.535263
C98	C	1.405593	-0.005762	1.035263
C99	C	0.905574	-0.231759	0.302225
C100	C	1.405574	0.268241	0.802225
C101	C	0.905597	-0.114983	0.302236
C102	C	1.405597	0.385017	0.802236
C103	C	0.905503	-0.505738	0.139410
C104	C	1.405503	-0.005738	0.639410
C105	C	0.905603	-0.505451	0.069770
C106	C	1.405603	-0.005451	0.569770
C107	C	0.945678	-0.438550	0.568001
C108	C	1.445678	0.061450	1.068001
C109	C	0.945678	-0.438504	0.633437
C110	C	1.445678	0.061496	1.133437
C111	C	0.905598	-0.505691	0.666131
C112	C	1.405598	-0.005691	1.166131
C113	C	0.865505	-0.572908	0.633384
C114	C	1.365505	-0.072908	1.133384
C115	C	0.865503	-0.572944	0.567950
C116	C	1.365503	-0.072944	1.067950
C117	C	0.900638	-0.600292	0.769799
C118	C	1.400638	-0.100292	1.269799
C119	C	0.900645	-0.600258	0.835232
C120	C	1.400645	-0.100258	1.335232
C121	C	0.905602	-0.505580	0.867952
C122	C	1.405602	-0.005580	1.367952
C123	C	0.910566	-0.410932	0.835230
C124	C	1.410566	0.089068	1.335230
C125	C	0.910563	-0.410968	0.769796
C126	C	1.410563	0.089032	1.269796
C127	C	0.905596	-0.505659	0.737083
C128	C	1.405596	-0.005659	1.237083
C129	C	0.945688	-0.438312	0.971643
C130	C	1.445688	0.061688	1.471643
C131	C	0.945683	-0.438265	1.037080
C132	C	1.445683	0.061735	1.537080
C133	C	0.865514	-0.572678	1.037026
C134	C	1.365514	-0.072678	1.537026
C135	C	0.865516	-0.572716	0.971591
C136	C	1.365516	-0.072716	1.471591
C137	C	0.905607	-0.505534	0.938903
C138	C	1.405607	-0.005534	1.438903
H139	H	0.667037	-0.627988	0.374678
H140	H	1.167037	-0.127988	0.874678
H141	H	0.832875	-0.627372	1.063645
H142	H	1.332875	-0.127372	1.563645
H143	H	0.832858	-0.627675	0.541295
H144	H	1.332858	-0.127675	1.041295
H145	H	0.144633	-0.383631	0.229729
H146	H	0.644633	0.116369	0.729729
H147	H	0.914603	-0.333836	0.861869
H148	H	1.414603	0.166164	1.361869
N149	N	0.539680	-0.645718	0.385297
N150	N	1.039680	-0.145718	0.885297
H151	H	0.570343	-0.688362	0.410625
H152	H	1.070343	-0.188362	0.910625
H153	H	0.512483	-0.694261	0.359747
H154	H	1.012483	-0.194261	0.859747
H155	H	0.832871	-0.627608	0.660008
H156	H	1.332871	-0.127608	1.160008
H157	H	1.058505	-1.104632	0.149581
H158	H	1.558505	-0.604632	0.649581
H159	H	0.465301	-0.521123	0.404585
H160	H	0.965301	-0.021123	0.904585
H161	H	0.346379	-0.490512	0.199817
H162	H	0.846379	0.009488	0.699817
H163	H	0.985668	-0.806115	0.222132
H164	H	1.485668	-0.306115	0.722132
H165	H	0.832867	-1.104869	0.374845
H166	H	1.332867	-0.604869	0.874845
N167	N	0.988924	-0.365854	0.936381
N168	N	1.488924	0.134146	1.436381
H169	H	1.014315	-0.323260	0.967053
H170	H	1.514315	0.176740	1.467053
H171	H	0.963429	-0.317260	0.909208
H172	H	1.463429	0.182740	1.409208
H173	H	0.896434	-0.677371	0.743165
H174	H	1.396434	-0.177371	1.243165
H175	H	0.832878	-0.627454	0.944935
H176	H	1.332878	-0.127454	1.444935
H177	H	0.144694	-0.627796	0.374875
H178	H	0.644694	-0.127796	0.874875
N179	N	0.988908	-0.365749	1.072394
N180	N	1.488908	0.134251	1.572394
H181	H	1.014301	-0.323196	1.041755
H182	H	1.514301	0.176804	1.541755
H183	H	1.017895	-0.408480	1.099574
H184	H	1.517895	0.091520	1.599574
N185	N	1.069027	-0.891066	0.138968
N186	N	1.569027	-0.391066	0.638968
H187	H	1.062918	-0.813239	0.145026
H188	H	1.562918	-0.313239	0.645026
H189	H	1.059305	-0.910303	0.094211
H190	H	1.559305	-0.410303	0.594211
N191	N	0.985819	-1.233251	0.222208
N192	N	1.485819	-0.733251	0.722208
H193	H	0.942852	-1.259769	0.210640
H194	H	1.442852	-0.759769	0.710640
H195	H	0.997351	-1.259545	0.265215
H196	H	1.497351	-0.759545	0.765215
N197	N	0.822203	-0.891298	0.385392
N198	N	1.322203	-0.391298	0.885392
H199	H	0.796822	-0.942723	0.410753
H200	H	1.296822	-0.442723	0.910753
H201	H	0.793206	-0.845844	0.359845
H202	H	1.293206	-0.345844	0.859845
H203	H	0.263344	-0.383674	0.229683
H204	H	0.763344	0.116326	0.729683
H205	H	0.263401	-0.627849	0.374827
H206	H	0.763401	-0.127849	0.874827
N207	N	0.337964	-0.523307	0.419552
N208	N	0.837964	-0.023307	0.919552
H209	H	0.291538	-0.522008	0.411006
H210	H	0.791538	-0.022008	0.911006
H211	H	0.349462	-0.462625	0.447622
H212	H	0.849462	0.037375	0.947622
H213	H	0.978322	-0.383844	0.541391
H214	H	1.478322	0.116156	1.041391
H215	H	0.914603	-0.333903	0.743157
H216	H	1.414603	0.166097	1.243157
N217	N	0.473721	-0.488319	0.184855
N218	N	0.973721	0.011681	0.684855
H219	H	0.443028	-0.482977	0.149109
H220	H	0.943028	0.017023	0.649109
H221	H	0.500836	-0.552327	0.178964
H222	H	1.000836	-0.052327	0.678964
H223	H	0.978318	-0.383766	0.660098
H224	H	1.478318	0.116234	1.160098
N225	N	0.895291	-0.702334	0.870523
N226	N	1.395291	-0.202334	1.370523
H227	H	0.933460	-0.712167	0.897697
H228	H	1.433460	-0.212167	1.397697
H229	H	0.892122	-0.762253	0.839829
H230	H	1.392122	-0.262253	1.339829
N231	N	0.539624	-0.365993	0.219004
N232	N	1.039624	0.134007	0.719004
H233	H	0.493210	-0.376197	0.225083
H234	H	0.993210	0.123803	0.725083
H235	H	0.551012	-0.382253	0.174239
H236	H	1.051012	0.117747	0.674239
H237	H	0.666983	-0.383793	0.229543
H238	H	1.166983	0.116207	0.729543
