data_functionalizedCrystal
_audit_creation_method	'MofGen! by Chris Wilmer'
_symmetry_space_group_name_H-M	'P1'
_symmetry_Int_Tables_number	1
_symmetry_cell_setting	triclinic
loop_
_symmetry_equiv_pos_as_xyz
  x,y,z
_cell_length_a	23.532407
_cell_length_b	23.532407
_cell_length_c	9.730223
_cell_angle_alpha	89.997949
_cell_angle_beta	89.987127
_cell_angle_gamma	97.151287
loop_
_atom_site_label
_atom_site_type_symbol
_atom_site_fract_x
_atom_site_fract_y
_atom_site_fract_z
O1	O	0.069135	-0.755259	-0.114143
O2	O	0.569135	-0.255259	0.385857
O3	O	0.079138	-0.589395	-0.114187
O4	O	0.579138	-0.089395	0.385813
O5	O	-0.008795	-0.677328	-0.114125
O6	O	0.491205	-0.177328	0.385875
O7	O	0.157068	-0.667325	-0.114205
O8	O	0.657068	-0.167325	0.385795
O9	O	-0.008798	-0.677323	0.114454
O10	O	0.491202	-0.177323	0.614454
O11	O	0.079136	-0.589390	0.114393
O12	O	0.579136	-0.089390	0.614393
O13	O	0.069132	-0.755253	0.114437
O14	O	0.569132	-0.255253	0.614437
Zn15	Zn	0.074134	-0.672320	0.150707
Zn16	Zn	0.574134	-0.172320	0.650707
Zn17	Zn	0.074137	-0.672328	-0.150457
Zn18	Zn	0.574137	-0.172328	0.349543
O19	O	0.157066	-0.667320	0.114375
O20	O	0.657066	-0.167320	0.614375
C21	C	0.078882	-0.568176	0.000098
C22	C	0.578882	-0.068176	0.500098
C23	C	0.078116	-0.504959	0.000083
C24	C	0.578116	-0.004959	0.500083
C25	C	-0.030013	-0.677071	0.000171
C26	C	0.469987	-0.177071	0.500171
C27	C	-0.093230	-0.676305	0.000192
C28	C	0.406770	-0.176305	0.500192
C29	C	0.069388	-0.776472	0.000149
C30	C	0.569388	-0.276472	0.500149
C31	C	0.070154	-0.839689	0.000154
C32	C	0.570154	-0.339689	0.500154
C33	C	-0.359397	-0.621110	0.000092
C34	C	0.140603	-0.121110	0.500092
C35	C	-0.299997	-0.621821	0.000102
C36	C	0.200003	-0.121821	0.500102
O37	O	-0.263252	-0.578035	0.000047
O38	O	0.236748	-0.078035	0.500047
N39	N	-0.277371	-0.674097	0.000132
N40	N	0.222629	-0.174097	0.500132
C41	C	-0.314148	-0.725666	0.000137
C42	C	0.185852	-0.225666	0.500137
O43	O	-0.289449	-0.770196	0.000162
O44	O	0.210551	-0.270196	0.500162
C45	C	-0.373547	-0.724954	0.000116
C46	C	0.126453	-0.224954	0.500116
C47	C	-0.396170	-0.672674	0.000101
C48	C	0.103830	-0.172674	0.500101
C49	C	-0.382020	-0.568834	0.000074
C50	C	0.117980	-0.068834	0.500074
C51	C	-0.441417	-0.568123	0.000066
C52	C	0.058583	-0.068123	0.500066
C53	C	-0.478189	-0.619687	0.000075
C54	C	0.021811	-0.119687	0.500075
C55	C	-0.455566	-0.671963	0.000093
C56	C	0.044434	-0.171963	0.500093
C57	C	-0.410324	-0.776521	0.000111
C58	C	0.089676	-0.276521	0.500111
C59	C	-0.469726	-0.775805	0.000090
C60	C	0.030274	-0.275805	0.500090
C61	C	-0.492349	-0.723525	0.000074
C62	C	0.007651	-0.223525	0.500074
C63	C	-0.551735	-0.722816	0.000093
C64	C	-0.051735	-0.222816	0.500093
N65	N	-0.574361	-0.670539	0.000064
N66	N	-0.074361	-0.170539	0.500064
C67	C	-0.537589	-0.618975	0.000055
C68	C	-0.037589	-0.118975	0.500055
C69	C	-0.189406	-0.727157	0.000178
C70	C	0.310594	-0.227157	0.500178
C71	C	-0.130008	-0.727870	0.000208
C72	C	0.369992	-0.227870	0.500208
C73	C	-0.115861	-0.624025	0.000171
C74	C	0.384139	-0.124025	0.500171
C75	C	-0.175260	-0.623313	0.000151
C76	C	0.324740	-0.123313	0.500151
C77	C	-0.212032	-0.674881	0.000148
C78	C	0.287968	-0.174881	0.500148
C79	C	-0.662325	-0.617486	0.000039
C80	C	-0.162325	-0.117486	0.500039
C81	C	-0.721727	-0.616779	0.000036
C82	C	-0.221727	-0.116779	0.500036
C83	C	-0.735869	-0.720623	0.000066
C84	C	-0.235869	-0.220623	0.500066
C85	C	-0.676473	-0.721330	0.000076
C86	C	-0.176473	-0.221330	0.500076
C87	C	-0.639701	-0.669757	0.000057
C88	C	-0.139701	-0.169757	0.500057
O89	O	-0.588514	-0.766579	0.000143
O90	O	-0.088514	-0.266579	0.500143
O91	O	-0.562296	-0.574452	0.000012
O92	O	-0.062296	-0.074452	0.500012
C93	C	0.178283	-0.667577	0.000075
C94	C	0.678283	-0.167577	0.500075
C95	C	0.241500	-0.668343	0.000045
C96	C	0.741500	-0.168343	0.500045
C97	C	0.125350	-0.105856	0.000122
C98	C	0.625350	0.394144	0.500122
C99	C	0.124638	-0.046456	0.000131
C100	C	0.624638	0.453544	0.500131
O101	O	0.168424	-0.009711	0.000160
O102	O	0.668424	0.490289	0.500160
N103	N	0.072362	-0.023830	0.000154
N104	N	0.572362	0.476170	0.500154
C105	C	0.020794	-0.060607	0.000182
C106	C	0.520794	0.439393	0.500182
O107	O	-0.023737	-0.035908	0.000203
O108	O	0.476263	0.464092	0.500203
C109	C	0.021506	-0.120006	0.000183
C110	C	0.521506	0.379994	0.500183
C111	C	0.073785	-0.142629	0.000146
C112	C	0.573785	0.357371	0.500146
C113	C	0.177625	-0.128480	0.000087
C114	C	0.677625	0.371520	0.500087
C115	C	0.178336	-0.187876	0.000076
C116	C	0.678336	0.312124	0.500076
C117	C	0.126772	-0.224649	0.000100
C118	C	0.626772	0.275351	0.500100
C119	C	0.074496	-0.202025	0.000135
C120	C	0.574496	0.297975	0.500135
C121	C	-0.030062	-0.156783	0.000221
C122	C	0.469938	0.343217	0.500221
C123	C	-0.029345	-0.216185	0.000223
C124	C	0.470655	0.283815	0.500223
C125	C	0.022934	-0.238808	0.000186
C126	C	0.522934	0.261192	0.500186
C127	C	0.023643	-0.298194	0.000148
C128	C	0.523643	0.201806	0.500148
N129	N	0.075920	-0.320821	0.000125
N130	N	0.575920	0.179179	0.500125
C131	C	0.127484	-0.284048	0.000101
C132	C	0.627484	0.215952	0.500101
C133	C	0.019302	0.064135	0.000182
C134	C	0.519302	0.564135	0.500182
C135	C	0.018589	0.123533	0.000171
C136	C	0.518589	0.623533	0.500171
C137	C	0.122434	0.137680	0.000123
C138	C	0.622434	0.637680	0.500123
C139	C	0.123146	0.078281	0.000124
C140	C	0.623146	0.578281	0.500124
C141	C	0.071578	0.041509	0.000159
C142	C	0.571578	0.541509	0.500159
C143	C	0.128974	-0.408784	0.000076
C144	C	0.628974	0.091216	0.500076
C145	C	0.129680	-0.468186	0.000059
C146	C	0.629680	0.031814	0.500059
C147	C	0.025836	-0.482329	0.000114
C148	C	0.525836	0.017671	0.500114
C149	C	0.025129	-0.422932	0.000124
C150	C	0.525129	0.077068	0.500124
C151	C	0.076702	-0.386160	0.000110
C152	C	0.576702	0.113840	0.500110
O153	O	-0.020119	-0.334974	0.000124
O154	O	0.479881	0.165026	0.500124
O155	O	0.172007	-0.308756	0.000097
O156	O	0.672007	0.191244	0.500097
N157	N	0.074131	-0.672320	0.356243
N158	N	0.574131	-0.172320	0.856243
N159	N	0.074135	-0.672333	-0.355994
N160	N	0.574135	-0.172333	0.144006
C161	C	0.035210	-0.711269	0.428196
C162	C	0.535210	-0.211269	0.928196
C163	C	0.035210	-0.711275	0.572079
C164	C	0.535210	-0.211275	1.072079
C165	C	0.113057	-0.633379	0.572043
C166	C	0.613057	-0.133379	1.072043
C167	C	0.113054	-0.633371	0.428163
C168	C	0.613054	-0.133371	0.928163
H169	H	-0.632392	-0.575489	0.000023
H170	H	-0.132392	-0.075489	0.500023
H171	H	0.144748	-0.601669	0.630614
H172	H	0.644748	-0.101669	1.130614
H173	H	0.003517	-0.742991	0.630660
H174	H	0.503517	-0.242991	1.130660
H175	H	0.219617	-0.098544	0.000072
H176	H	0.719617	0.401456	0.500072
C177	C	-0.007106	-0.753446	0.349971
C178	C	0.492894	-0.253446	0.849971
C179	C	-0.041805	-0.723284	0.267419
C180	C	0.458195	-0.223284	0.767419
C181	C	-0.080802	-0.762112	0.195347
C182	C	0.419198	-0.262112	0.695347
H183	H	-0.030340	-0.776645	0.413308
H184	H	0.469660	-0.276645	0.913308
H185	H	0.013216	-0.777041	0.293718
H186	H	0.513216	-0.277041	0.793718
H187	H	-0.062126	-0.699699	0.323667
H188	H	0.437874	-0.199699	0.823667
H189	H	-0.018587	-0.700087	0.204057
H190	H	0.481413	-0.200087	0.704057
H191	H	-0.060480	-0.785706	0.139094
H192	H	0.439520	-0.285706	0.639094
H193	H	-0.104032	-0.785309	0.258694
H194	H	0.395968	-0.285309	0.758694
H195	H	-0.104347	-0.741652	0.139317
H196	H	0.395653	-0.241652	0.639317
H197	H	-0.017441	-0.404512	0.000134
H198	H	0.482559	0.095488	0.500134
H199	H	-0.499664	-0.817799	0.000081
H200	H	0.000336	-0.317799	0.500081
C201	C	-0.652018	-0.778149	0.000021
C202	C	-0.152018	-0.278149	0.500021
C203	C	-0.696939	-0.823154	-0.000005
C204	C	-0.196939	-0.323154	0.499995
C205	C	-0.674438	-0.875503	-0.000095
C206	C	-0.174438	-0.375503	0.499905
H207	H	-0.629154	-0.780669	0.079705
H208	H	-0.129154	-0.280669	0.579705
H209	H	-0.629153	-0.780614	-0.079728
H210	H	-0.129153	-0.280614	0.420272
H211	H	-0.719794	-0.820689	0.079735
H212	H	-0.219794	-0.320689	0.579735
H213	H	-0.719807	-0.820652	-0.079683
H214	H	-0.219807	-0.320652	0.420317
H215	H	-0.651573	-0.877969	-0.079843
H216	H	-0.151573	-0.377969	0.420157
H217	H	-0.651574	-0.878018	0.079590
H218	H	-0.151574	-0.378018	0.579590
H219	H	-0.704913	-0.906045	-0.000125
H220	H	-0.204913	-0.406045	0.499875
H221	H	0.165717	0.059866	0.000102
H222	H	0.665717	0.559866	0.500102
H223	H	0.144748	-0.601651	0.369574
H224	H	0.644748	-0.101651	0.869574
C225	C	-0.746177	-0.559956	-0.000057
C226	C	-0.246177	-0.059956	0.499943
C227	C	-0.701255	-0.514953	-0.000105
C228	C	-0.201255	-0.014953	0.499895
C229	C	-0.723754	-0.462602	-0.000212
C230	C	-0.223754	0.037398	0.499788
H231	H	-0.769055	-0.557434	0.079627
H232	H	-0.269055	-0.057434	0.579627
H233	H	-0.769028	-0.557491	-0.079805
H234	H	-0.269028	-0.057491	0.420195
H235	H	-0.678413	-0.517417	0.079635
H236	H	-0.178413	-0.017417	0.579635
H237	H	-0.678374	-0.517457	-0.079783
H238	H	-0.178374	-0.017457	0.420217
H239	H	-0.746605	-0.460137	-0.079960
H240	H	-0.246605	0.039863	0.420040
H241	H	-0.746631	-0.460086	0.079473
H242	H	-0.246631	0.039914	0.579473
H243	H	-0.693278	-0.432061	-0.000257
H244	H	-0.193278	0.067939	0.499743
C245	C	-0.465862	-0.511302	-0.000036
C246	C	0.034138	-0.011302	0.499964
C247	C	-0.420936	-0.466303	-0.000081
C248	C	0.079064	0.033697	0.499919
C249	C	-0.443428	-0.413949	-0.000199
C250	C	0.056572	0.086051	0.499801
H251	H	-0.488742	-0.508776	0.079644
H252	H	0.011258	-0.008776	0.579644
H253	H	-0.488711	-0.508836	-0.079788
H254	H	0.011289	-0.008836	0.420212
H255	H	-0.398097	-0.468769	0.079663
H256	H	0.101903	0.031231	0.579663
H257	H	-0.398053	-0.468811	-0.079755
H258	H	0.101947	0.031189	0.420245
H259	H	-0.466277	-0.411483	-0.079951
H260	H	0.033723	0.088517	0.420049
H261	H	-0.466307	-0.411429	0.079482
H262	H	0.033693	0.088571	0.579482
H263	H	-0.412949	-0.383412	-0.000242
H264	H	0.087051	0.116588	0.499758
C265	C	-0.038231	0.147980	0.000264
C266	C	0.461769	0.647980	0.500264
C267	C	-0.083232	0.103055	0.000315
C268	C	0.416768	0.603055	0.500315
C269	C	-0.135584	0.125551	0.000427
C270	C	0.364416	0.625551	0.500427
H271	H	-0.040750	0.170852	-0.079420
H272	H	0.459250	0.670852	0.420580
H273	H	-0.040701	0.170837	0.080012
H274	H	0.459299	0.670837	0.580012
H275	H	-0.080762	0.080208	-0.079425
H276	H	0.419238	0.580208	0.420575
H277	H	-0.080731	0.080180	0.079993
H278	H	0.419269	0.580180	0.579993
H279	H	-0.138055	0.148408	0.080176
H280	H	0.361945	0.648408	0.580176
H281	H	-0.138098	0.148423	-0.079258
H282	H	0.361902	0.648423	0.420742
H283	H	-0.166124	0.095074	0.000475
H284	H	0.333876	0.595074	0.500475
H285	H	-0.765820	-0.762606	0.000080
H286	H	-0.265820	-0.262606	0.500080
C287	C	0.185028	-0.368962	-0.000022
C288	C	0.685028	0.131038	0.499978
C289	C	0.230955	-0.401498	-0.000095
C290	C	0.730955	0.098502	0.499905
C291	C	0.282601	-0.364834	-0.000216
C292	C	0.782601	0.135166	0.499784
H293	H	0.186998	-0.345484	0.079666
H294	H	0.686998	0.154516	0.579666
H295	H	0.186942	-0.345503	-0.079766
H296	H	0.686942	0.154497	0.420234
H297	H	0.229043	-0.424947	0.079641
H298	H	0.729043	0.075053	0.579641
H299	H	0.229005	-0.424975	-0.079778
H300	H	0.729005	0.075025	0.420222
H301	H	0.284514	-0.341375	-0.079959
H302	H	0.784514	0.158625	0.420041
H303	H	0.284564	-0.341358	0.079474
H304	H	0.784564	0.158642	0.579474
H305	H	0.313768	-0.386904	-0.000278
H306	H	0.813768	0.113096	0.499722
H307	H	-0.072634	-0.138374	0.000252
H308	H	0.427366	0.361626	0.500252
H309	H	0.220908	-0.206289	0.000045
H310	H	0.720908	0.293711	0.500045
H311	H	-0.085909	-0.582038	0.000165
H312	H	0.414091	-0.082038	0.500165
C313	C	-0.036647	0.024146	-0.000020
C314	C	0.463353	0.524146	0.499980
C315	C	-0.039266	-0.010375	-0.117603
C316	C	0.460734	0.489625	0.382397
C317	C	-0.090794	-0.047221	-0.117826
C318	C	0.409206	0.452779	0.382174
H319	H	-0.067927	0.046061	-0.000080
H320	H	0.432073	0.546061	0.499920
H321	H	-0.038540	0.000644	0.079649
H322	H	0.461460	0.500644	0.579649
H323	H	-0.037379	0.013125	-0.197251
H324	H	0.462621	0.513125	0.302749
H325	H	-0.007998	-0.032302	-0.117568
H326	H	0.492002	0.467698	0.382432
H327	H	-0.092686	-0.070723	-0.038157
H328	H	0.407314	0.429277	0.461843
H329	H	-0.122069	-0.025301	-0.117882
H330	H	0.377931	0.474699	0.382118
H331	H	-0.092575	-0.070651	-0.197597
H332	H	0.407425	0.429349	0.302403
C333	C	-0.085397	-0.256015	0.000182
C334	C	0.414603	0.243985	0.500182
C335	C	-0.131328	-0.223483	0.000178
C336	C	0.368672	0.276517	0.500178
C337	C	-0.182970	-0.260153	0.000115
C338	C	0.317030	0.239847	0.500115
H339	H	-0.087362	-0.279498	0.079867
H340	H	0.412638	0.220502	0.579867
H341	H	-0.087310	-0.279468	-0.079565
H342	H	0.412690	0.220532	0.420435
H343	H	-0.129416	-0.200040	0.079917
H344	H	0.370584	0.299960	0.579917
H345	H	-0.129382	-0.200001	-0.079501
H346	H	0.370618	0.299999	0.420499
H347	H	-0.184883	-0.283606	-0.079632
H348	H	0.315117	0.216394	0.420368
H349	H	-0.184929	-0.283634	0.079801
H350	H	0.315071	0.216366	0.579801
H351	H	-0.214140	-0.238086	0.000100
H352	H	0.285860	0.261914	0.500100
H353	H	-0.016146	-0.512280	0.000129
H354	H	0.483854	-0.012280	0.500129
H355	H	-0.193674	-0.580742	0.000143
H356	H	0.306326	-0.080742	0.500143
C357	C	-0.342074	-0.512861	-0.000214
C358	C	0.157926	-0.012861	0.499786
C359	C	-0.307550	-0.510221	-0.117816
C360	C	0.192450	-0.010221	0.382184
C361	C	-0.270755	-0.458660	-0.118126
C362	C	0.229245	0.041340	0.381874
H363	H	-0.318567	-0.510920	0.079414
H364	H	0.181433	-0.010920	0.579414
H365	H	-0.364044	-0.481615	-0.000302
H366	H	0.135956	0.018385	0.499698
H367	H	-0.285582	-0.541458	-0.117715
H368	H	0.214418	-0.041458	0.382285
H369	H	-0.331041	-0.512152	-0.197462
H370	H	0.168959	-0.012152	0.302538
H371	H	-0.292724	-0.427414	-0.118214
H372	H	0.207276	0.072586	0.381786
H373	H	-0.247252	-0.456723	-0.038494
H374	H	0.252748	0.043277	0.461506
H375	H	-0.247329	-0.456859	-0.197923
H376	H	0.252671	0.043141	0.302077
C377	C	-0.229234	-0.783211	0.000267
C378	C	0.270766	-0.283211	0.500267
C379	C	-0.196699	-0.829139	0.000335
C380	C	0.303301	-0.329139	0.500335
C381	C	-0.233365	-0.880783	0.000434
C382	C	0.266635	-0.380783	0.500434
H383	H	-0.252703	-0.785181	-0.079427
H384	H	0.247297	-0.285181	0.420573
H385	H	-0.252702	-0.785122	0.080006
H386	H	0.247298	-0.285122	0.580006
H387	H	-0.173241	-0.827229	-0.079395
H388	H	0.326759	-0.327229	0.420605
H389	H	-0.173231	-0.827188	0.080023
H390	H	0.326769	-0.327188	0.580023
H391	H	-0.256833	-0.882694	0.080173
H392	H	0.243167	-0.382694	0.580173
H393	H	-0.256832	-0.882747	-0.079261
H394	H	0.243168	-0.382747	0.420739
H395	H	-0.211295	-0.911951	0.000493
H396	H	0.288705	-0.411951	0.500493
H397	H	0.164421	0.167632	0.000110
H398	H	0.664421	0.667632	0.500110
C399	C	-0.385883	-0.833342	0.000053
C400	C	0.114117	-0.333342	0.500053
C401	C	-0.430811	-0.878340	0.000012
C402	C	0.069189	-0.378340	0.500012
C403	C	-0.408321	-0.930695	-0.000062
C404	C	0.091679	-0.430695	0.499938
H405	H	-0.363026	-0.835866	0.079746
H406	H	0.136974	-0.335866	0.579746
H407	H	-0.363013	-0.835813	-0.079686
H408	H	0.136987	-0.335813	0.420314
H409	H	-0.453672	-0.875870	0.079743
H410	H	0.046328	-0.375870	0.579743
H411	H	-0.453673	-0.875835	-0.079675
H412	H	0.046327	-0.375835	0.420325
H413	H	-0.385451	-0.933165	-0.079800
H414	H	0.114549	-0.433165	0.420200
H415	H	-0.385463	-0.933213	0.079633
H416	H	0.114537	-0.433213	0.579633
H417	H	-0.438801	-0.961232	-0.000102
H418	H	0.061199	-0.461232	0.499898
H419	H	0.172255	-0.486602	0.000028
H420	H	0.672255	0.013398	0.500028
H421	H	-0.111594	-0.770441	0.000243
H422	H	0.388406	-0.270441	0.500243
