data_functionalizedCrystal
_audit_creation_method	'MofGen! by Chris Wilmer'
_symmetry_space_group_name_H-M	'P1'
_symmetry_Int_Tables_number	1
_symmetry_cell_setting	triclinic
loop_
_symmetry_equiv_pos_as_xyz
  x,y,z
_cell_length_a	19.288864
_cell_length_b	8.559649
_cell_length_c	18.366186
_cell_angle_alpha	89.994914
_cell_angle_beta	89.977106
_cell_angle_gamma	76.457456
loop_
_atom_site_label
_atom_site_type_symbol
_atom_site_fract_x
_atom_site_fract_y
_atom_site_fract_z
O1	O	0.910987	0.199404	-0.060777
O2	O	0.707328	0.226304	-0.060726
O3	O	0.827100	-0.019877	-0.060756
O4	O	0.791215	0.445585	-0.060748
O5	O	0.827083	-0.019889	0.060344
O6	O	0.707311	0.226292	0.060373
O7	O	0.910970	0.199392	0.060322
Zn8	Zn	0.809137	0.212840	0.079575
Zn9	Zn	0.809160	0.212856	-0.079979
O10	O	0.791198	0.445573	0.060351
C11	C	0.681488	0.225432	-0.000170
C12	C	0.604519	0.222834	-0.000151
C13	C	0.552314	0.367282	-0.000161
C14	C	0.479994	0.364841	-0.000169
C15	C	0.459883	0.217944	-0.000182
C16	C	0.512099	0.073477	-0.000169
C17	C	0.584417	0.075922	-0.000154
C18	C	0.357630	0.102471	-0.042635
C19	C	0.285312	0.100032	-0.042655
C20	C	0.236829	0.210396	-0.000226
C21	C	0.260670	0.323227	0.042213
C22	C	0.332989	0.325672	0.042228
C23	C	0.381467	0.215276	-0.000198
C24	C	0.106205	0.352207	-0.000243
C25	C	0.033884	0.349760	-0.000247
C26	C	0.065991	0.058393	-0.000254
C27	C	0.138310	0.060844	-0.000244
C28	C	0.158412	0.207756	-0.000241
C29	C	0.829811	-0.079432	-0.000208
C30	C	0.837906	-0.256871	-0.000214
C31	C	0.936810	0.200264	-0.000235
C32	C	1.013778	0.202862	-0.000259
C33	C	0.788487	0.505129	-0.000198
C34	C	0.780392	0.682567	-0.000197
N35	N	0.809127	0.212828	0.188466
N36	N	0.809177	0.212855	-0.188870
C37	C	0.862174	0.103873	0.226553
C38	C	0.862179	0.103866	0.302781
C39	C	0.809141	0.212842	0.340919
C40	C	0.756084	0.321805	0.302822
C41	C	0.756077	0.321799	0.226596
C42	C	0.792272	0.358486	0.461683
C43	C	0.792284	0.358494	0.537908
C44	C	0.809160	0.212862	0.576026
C45	C	0.826039	0.067214	0.537910
C46	C	0.826032	0.067207	0.461684
C47	C	0.809143	0.212860	0.423573
C48	C	0.862216	0.103889	0.696769
C49	C	0.862216	0.103880	0.772998
C50	C	0.756124	0.321833	0.773037
C51	C	0.756121	0.321829	0.696809
C52	C	0.809171	0.212858	0.658680
H53	H	0.265906	0.008165	-0.077214
C54	C	0.698436	0.439970	0.814394
C55	C	0.631547	0.414415	0.795901
C56	C	0.578386	0.523196	0.833996
H57	H	0.700188	0.546679	0.801926
H58	H	0.705988	0.424363	0.865255
H59	H	0.623997	0.430035	0.745052
H60	H	0.629771	0.307727	0.808372
H61	H	0.585938	0.507589	0.884856
H62	H	0.580145	0.629898	0.821524
H63	H	0.532997	0.505862	0.821459
H64	H	0.049617	-0.061214	-0.000311
C65	C	0.706432	-0.205766	-0.000296
C66	C	0.669455	-0.234465	-0.062580
C67	C	0.601317	-0.131632	-0.062692
H68	H	0.710530	-0.097319	-0.000339
H69	H	0.681188	-0.225014	0.041919
H70	H	0.694692	-0.215204	-0.104784
H71	H	0.665338	-0.342891	-0.062551
H72	H	0.576074	-0.150880	-0.020477
H73	H	0.605422	-0.023192	-0.062733
H74	H	0.576218	-0.151100	-0.104947
H75	H	0.839781	-0.051375	0.568945
H76	H	0.893342	-0.340776	-0.000222
C77	C	0.919805	-0.014628	0.185288
C78	C	0.966252	-0.110078	0.234966
C79	C	1.019343	-0.219274	0.196977
H80	H	0.945731	0.042512	0.155530
H81	H	0.898383	-0.081117	0.155586
H82	H	0.987673	-0.043596	0.264655
H83	H	0.940348	-0.167252	0.264726
H84	H	0.997921	-0.285764	0.167275
H85	H	1.045263	-0.162122	0.167220
H86	H	1.050860	-0.284060	0.230677
C87	C	0.919916	-0.014117	0.655355
C88	C	0.957904	0.070867	0.611619
C89	C	1.011088	-0.037761	0.573482
H90	H	0.898610	-0.080618	0.625553
H91	H	0.951541	-0.078938	0.688960
H92	H	0.926284	0.135660	0.578019
H93	H	0.979225	0.137362	0.641403
H94	H	1.042713	-0.102581	0.607087
H95	H	0.989776	-0.104256	0.543684
H96	H	1.036873	0.019885	0.543808
H97	H	0.905378	0.015138	0.333798
C98	C	0.698468	0.439890	0.655411
C99	C	0.660465	0.354994	0.611687
C100	C	0.607341	0.463701	0.573548
H101	H	0.719827	0.506319	0.625602
H102	H	0.666841	0.504776	0.689015
H103	H	0.692087	0.290135	0.578087
H104	H	0.639090	0.288571	0.641478
H105	H	0.575714	0.528587	0.607151
H106	H	0.628707	0.530124	0.543742
H107	H	0.581546	0.406115	0.543881
C108	C	0.195027	-0.095938	-0.000095
C109	C	0.237439	-0.103075	0.062224
C110	C	0.289688	-0.247494	0.062392
H111	H	0.224002	-0.101184	-0.042271
H112	H	0.172722	-0.183825	-0.000066
H113	H	0.259743	-0.015213	0.062188
H114	H	0.208485	-0.097857	0.104410
H115	H	0.267384	-0.335381	0.062421
H116	H	0.318658	-0.252727	0.020213
H117	H	0.318467	-0.252363	0.104677
C118	C	0.773810	0.516664	0.579244
C119	C	0.704714	0.600675	0.560746
C120	C	0.687666	0.746383	0.598814
H121	H	0.806727	0.579285	0.566758
H122	H	0.776189	0.495888	0.630109
H123	H	0.702341	0.621457	0.509893
H124	H	0.671782	0.538102	0.573234
H125	H	0.690045	0.725606	0.649679
H126	H	0.720588	0.808990	0.586325
H127	H	0.640781	0.803395	0.586274
H128	H	0.839773	-0.051384	0.430653
C129	C	0.919898	-0.014491	0.814222
C130	C	0.966363	-0.109885	0.764510
C131	C	1.019515	-0.218930	0.802459
H132	H	0.898554	-0.081048	0.843975
H133	H	0.945788	0.042815	0.843925
H134	H	0.940476	-0.167187	0.734819
H135	H	0.987725	-0.043373	0.734755
H136	H	1.045405	-0.161624	0.832163
H137	H	0.998164	-0.285475	0.832212
H138	H	1.051051	-0.283657	0.768736
C139	C	0.774093	0.516668	0.420335
C140	C	0.822835	0.608309	0.438831
C141	C	0.806120	0.754017	0.400748
H142	H	0.727260	0.574140	0.432812
H143	H	0.776537	0.495868	0.369473
H144	H	0.820385	0.629113	0.489682
H145	H	0.869672	0.550887	0.426353
H146	H	0.808564	0.733216	0.349886
H147	H	0.759286	0.811474	0.413228
H148	H	0.839193	0.816207	0.413287
H149	H	-0.008622	0.467392	-0.000250
H150	H	0.712899	0.410533	0.333877
C151	C	0.698548	0.440367	0.185278
C152	C	0.701446	0.597380	0.203798
C153	C	0.648469	0.706651	0.165742
H154	H	0.653065	0.423496	0.197761
H155	H	0.706139	0.424870	0.134412
H156	H	0.693850	0.612871	0.254652
H157	H	0.746918	0.614302	0.191312
H158	H	0.656059	0.691154	0.114876
H159	H	0.602989	0.689766	0.178229
H160	H	0.650432	0.813196	0.178297
C161	C	0.423408	0.521850	-0.000223
C162	C	0.456492	0.651029	-0.000236
C163	C	0.404391	0.795688	-0.000299
H164	H	0.394473	0.527189	0.041987
H165	H	0.394564	0.527022	-0.042479
H166	H	0.485324	0.645859	0.042015
H167	H	0.485423	0.645743	-0.042443
H168	H	0.375547	0.800860	-0.042555
H169	H	0.375459	0.801010	0.041911
H170	H	0.426831	0.883353	-0.000315
H171	H	0.352397	0.417538	0.076786
C172	C	0.208063	0.442989	0.088336
C173	C	0.227839	0.422727	0.161697
C174	C	0.179363	0.533033	0.204170
H175	H	0.161582	0.425377	0.082282
H176	H	0.208256	0.549183	0.073444
H177	H	0.227639	0.316559	0.176584
H178	H	0.274312	0.440354	0.167773
H179	H	0.179556	0.639227	0.189278
H180	H	0.132885	0.515411	0.198111
H181	H	0.192778	0.519311	0.253949
C182	C	0.127938	0.511817	-0.000344
C183	C	0.100680	0.599146	-0.062635
C184	C	0.120676	0.746193	-0.062747
H185	H	0.178471	0.492810	-0.000375
H186	H	0.109446	0.571351	0.041866
H187	H	0.119175	0.539625	-0.104834
H188	H	0.050148	0.618196	-0.062617
H189	H	0.102184	0.805727	-0.020537
H190	H	0.171209	0.727170	-0.062776
H191	H	0.102179	0.805469	-0.105007
C192	C	0.410147	-0.017432	-0.088788
C193	C	0.373788	-0.116720	-0.125978
C194	C	0.422140	-0.227170	-0.168508
H195	H	0.445477	-0.081189	-0.058278
H196	H	0.432274	0.038761	-0.122931
H197	H	0.351673	-0.172909	-0.091839
H198	H	0.338461	-0.053008	-0.156501
H199	H	0.444266	-0.170977	-0.202651
H200	H	0.457467	-0.290915	-0.137993
H201	H	0.397476	-0.294540	-0.193752
H202	H	0.568676	0.486909	-0.000160
H203	H	0.495719	-0.046127	-0.000190
H204	H	0.626924	-0.041708	-0.000147
