data_functionalizedCrystal
_audit_creation_method	'MofGen! by Chris Wilmer'
_symmetry_space_group_name_H-M	'P1'
_symmetry_Int_Tables_number	1
_symmetry_cell_setting	triclinic
loop_
_symmetry_equiv_pos_as_xyz
  x,y,z
_cell_length_a	29.839134
_cell_length_b	29.839131
_cell_length_c	29.839125
_cell_angle_alpha	90.017709
_cell_angle_beta	90.021980
_cell_angle_gamma	90.036281
loop_
_atom_site_label
_atom_site_type_symbol
_atom_site_fract_x
_atom_site_fract_y
_atom_site_fract_z
Zn1	Zn	0.686720	-0.178978	0.254125
Zn2	Zn	1.020053	0.154355	0.587458
Zn3	Zn	1.353386	0.487689	0.920792
Zn4	Zn	0.686652	-0.254090	0.178995
Zn5	Zn	1.019985	0.079243	0.512328
Zn6	Zn	1.353318	0.412577	0.845662
Zn7	Zn	0.611602	-0.178968	0.178995
Zn8	Zn	0.944936	0.154365	0.512328
Zn9	Zn	1.278269	0.487699	0.845661
Zn10	Zn	0.611550	-0.254075	0.254083
Zn11	Zn	0.944883	0.079258	0.587417
Zn12	Zn	1.278217	0.412592	0.920750
O13	O	0.649131	-0.216528	0.216549
O14	O	0.982464	0.116806	0.549883
O15	O	1.315798	0.450139	0.883216
O16	O	0.749578	-0.188952	0.244176
O17	O	1.082911	0.144381	0.577510
O18	O	1.416244	0.477715	0.910843
O19	O	0.676690	-0.244127	0.116128
O20	O	1.010023	0.089206	0.449461
O21	O	1.343356	0.422540	0.782794
O22	O	0.621617	-0.116102	0.188978
O23	O	0.954950	0.217231	0.522311
O24	O	1.288284	0.550564	0.855645
O25	O	0.749528	-0.244137	0.188979
O26	O	1.082861	0.089197	0.522312
O27	O	1.416195	0.422530	0.855645
O28	O	0.676805	-0.116109	0.244176
O29	O	1.010139	0.217224	0.577509
O30	O	1.343472	0.550557	0.910843
O31	O	0.621551	-0.188935	0.116127
O32	O	0.954885	0.144398	0.449461
O33	O	1.288218	0.477731	0.782794
O34	O	0.548728	-0.188921	0.188938
O35	O	0.882062	0.144413	0.522271
O36	O	1.215395	0.477746	0.855604
O37	O	0.621528	-0.244111	0.316956
O38	O	0.954861	0.089222	0.650289
O39	O	1.288195	0.422556	0.983623
O40	O	0.548690	-0.244101	0.244105
O41	O	0.882023	0.089232	0.577438
O42	O	1.215357	0.422565	0.910772
O43	O	0.676755	-0.188937	0.316987
O44	O	1.010088	0.144396	0.650320
O45	O	1.343421	0.477729	0.983653
O46	O	0.676639	-0.316955	0.188938
O47	O	1.009972	0.016378	0.522272
O48	O	1.343306	0.349712	0.855605
O49	O	0.621462	-0.316944	0.244105
O50	O	0.954796	0.016389	0.577439
O51	O	1.288129	0.349723	0.910772
C52	C	0.532408	-0.216509	0.216517
C53	C	0.865742	0.116825	0.549850
C54	C	1.199075	0.450158	0.883184
C55	C	0.482474	-0.216511	0.216514
C56	C	0.815807	0.116822	0.549847
C57	C	1.149141	0.450155	0.883181
C58	C	0.172820	-0.245303	0.245240
C59	C	0.506153	0.088031	0.578573
C60	C	0.839487	0.421364	0.911907
C61	C	-0.014853	-0.245315	0.245260
C62	C	0.318480	0.088018	0.578593
C63	C	0.651814	0.421351	0.911927
O64	O	-0.039127	-0.269774	0.269665
O65	O	0.294207	0.063560	0.602998
O66	O	0.627540	0.396893	0.936331
N67	N	-0.038311	-0.216544	0.216583
N68	N	0.295022	0.116789	0.549917
N69	N	0.628356	0.450123	0.883250
C70	C	-0.014848	-0.187766	0.187902
C71	C	0.318485	0.145568	0.521235
C72	C	0.651819	0.478901	0.854568
O73	O	-0.039107	-0.163291	0.163514
O74	O	0.294226	0.170042	0.496848
O75	O	0.627560	0.503376	0.830181
C76	C	0.172824	-0.187751	0.187884
C77	C	0.506157	0.145582	0.521218
C78	C	0.839491	0.478916	0.854551
C79	C	0.196280	-0.216527	0.216560
C80	C	0.529613	0.116806	0.549893
C81	C	0.862946	0.450139	0.883226
C82	C	0.196276	-0.274076	0.273913
C83	C	0.529609	0.059257	0.607247
C84	C	0.862942	0.392590	0.940580
C85	C	0.243191	-0.274075	0.273906
C86	C	0.576525	0.059259	0.607240
C87	C	0.909858	0.392592	0.940573
C88	C	0.266651	-0.245299	0.245226
C89	C	0.599984	0.088034	0.578559
C90	C	0.933318	0.421367	0.911893
C91	C	0.243195	-0.216526	0.216553
C92	C	0.576529	0.116808	0.549886
C93	C	0.909862	0.450141	0.883219
C94	C	0.196286	-0.158971	0.159205
C95	C	0.529620	0.174363	0.492539
C96	C	0.862953	0.507696	0.825872
C97	C	0.243207	-0.158969	0.159204
C98	C	0.576541	0.174365	0.492538
C99	C	0.909874	0.507698	0.825871
C100	C	0.266663	-0.187745	0.187880
C101	C	0.599996	0.145588	0.521213
C102	C	0.933330	0.478922	0.854546
C103	C	0.313570	-0.187749	0.187865
C104	C	0.646904	0.145585	0.521199
C105	C	0.980237	0.478918	0.854532
N106	N	0.337029	-0.216520	0.216542
N107	N	0.670362	0.116814	0.549875
N108	N	1.003695	0.450147	0.883209
C109	C	0.313569	-0.245295	0.245222
C110	C	0.646902	0.088038	0.578556
C111	C	0.980235	0.421372	0.911889
C112	C	-0.113379	-0.187776	0.187912
C113	C	0.219955	0.145557	0.521246
C114	C	0.553288	0.478891	0.854579
C115	C	-0.160297	-0.187780	0.187916
C116	C	0.173037	0.145553	0.521249
C117	C	0.506370	0.478887	0.854583
C118	C	-0.160298	-0.245329	0.245275
C119	C	0.173035	0.088004	0.578608
C120	C	0.506368	0.421337	0.911942
C121	C	-0.113380	-0.245327	0.245269
C122	C	0.219954	0.088006	0.578602
C123	C	0.553287	0.421339	0.911935
C124	C	-0.089921	-0.216547	0.216589
C125	C	0.243413	0.116786	0.549922
C126	C	0.576746	0.450119	0.883256
C127	C	0.412095	-0.245290	0.245205
C128	C	0.745428	0.088044	0.578538
C129	C	1.078761	0.421377	0.911872
C130	C	0.459014	-0.245287	0.245194
C131	C	0.792348	0.088047	0.578528
C132	C	1.125681	0.421380	0.911861
C133	C	0.459012	-0.187736	0.187837
C134	C	0.792345	0.145597	0.521170
C135	C	1.125678	0.478931	0.854504
C136	C	0.412096	-0.187740	0.187846
C137	C	0.745430	0.145593	0.521179
C138	C	1.078763	0.478926	0.854513
C139	C	0.388639	-0.216519	0.216534
C140	C	0.721972	0.116815	0.549867
C141	C	1.055306	0.450148	0.883200
O142	O	0.337873	-0.163299	0.163477
O143	O	0.671206	0.170034	0.496810
O144	O	1.004540	0.503367	0.830144
O145	O	0.337836	-0.269759	0.269613
O146	O	0.671169	0.063574	0.602946
O147	O	1.004502	0.396908	0.936280
C148	C	0.125905	-0.245304	0.245247
C149	C	0.459238	0.088029	0.578580
C150	C	0.792571	0.421362	0.911914
C151	C	0.102449	-0.216531	0.216574
C152	C	0.435782	0.116803	0.549907
C153	C	0.769116	0.450136	0.883240
C154	C	0.125909	-0.187755	0.187893
C155	C	0.459242	0.145578	0.521227
C156	C	0.792575	0.478911	0.854560
C157	C	0.055531	-0.216535	0.216577
C158	C	0.388864	0.116798	0.549911
C159	C	0.722198	0.450132	0.883244
C160	C	0.032071	-0.245310	0.245258
C161	C	0.365405	0.088023	0.578591
C162	C	0.698738	0.421356	0.911924
C163	C	0.055529	-0.274082	0.273934
C164	C	0.388863	0.059252	0.607268
C165	C	0.722196	0.392585	0.940601
C166	C	0.102445	-0.274080	0.273927
C167	C	0.435778	0.059253	0.607261
C168	C	0.769112	0.392587	0.940594
C169	C	0.102451	-0.158984	0.159217
C170	C	0.435784	0.174349	0.492550
C171	C	0.769117	0.507682	0.825883
C172	C	0.055535	-0.158989	0.159226
C173	C	0.388868	0.174345	0.492559
C174	C	0.722202	0.507678	0.825892
C175	C	0.032075	-0.187764	0.187906
C176	C	0.365409	0.145569	0.521239
C177	C	0.698742	0.478903	0.854573
C178	C	0.649050	-0.333250	0.216527
C179	C	0.982383	0.000083	0.549861
C180	C	1.315717	0.333416	0.883194
C181	C	0.649056	-0.383185	0.216533
C182	C	0.982390	-0.049851	0.549866
C183	C	1.315723	0.283482	0.883199
C184	C	0.677914	-0.692821	0.187866
C185	C	1.011247	-0.359488	0.521199
C186	C	1.344580	-0.026155	0.854533
C187	C	0.677969	-0.880494	0.187883
C188	C	1.011303	-0.547161	0.521217
C189	C	1.344636	-0.213828	0.854550
O190	O	0.702441	-0.904753	0.163493
O191	O	1.035774	-0.571420	0.496826
O192	O	1.369107	-0.238087	0.830159
N193	N	0.649224	-0.903970	0.216583
N194	N	0.982557	-0.570636	0.549917
N195	N	1.315891	-0.237303	0.883250
C196	C	0.620465	-0.880524	0.245283
C197	C	0.953799	-0.547191	0.578616
C198	C	1.287132	-0.213857	0.911950
O199	O	0.596020	-0.904798	0.269698
O200	O	0.929354	-0.571464	0.603031
O201	O	1.262687	-0.238131	0.936365
C202	C	0.620412	-0.692852	0.245268
C203	C	0.953746	-0.359519	0.578601
C204	C	1.287079	-0.026185	0.911934
C205	C	0.649156	-0.669379	0.216563
C206	C	0.982489	-0.336045	0.549896
C207	C	1.315823	-0.002712	0.883229
C208	C	0.706656	-0.669348	0.159164
C209	C	1.039989	-0.336015	0.492497
C210	C	1.373322	-0.002681	0.825830
C211	C	0.706640	-0.622433	0.159158
C212	C	1.039973	-0.289099	0.492491
C213	C	1.373306	0.044234	0.825824
C214	C	0.677882	-0.598990	0.187854
C215	C	1.011215	-0.265657	0.521188
C216	C	1.344549	0.067676	0.854521
C217	C	0.649140	-0.622463	0.216557
C218	C	0.982474	-0.289130	0.549890
C219	C	1.315807	0.044203	0.883223
C220	C	0.591656	-0.669407	0.273969
C221	C	0.924989	-0.336074	0.607303
C222	C	1.258323	-0.002740	0.940636
C223	C	0.591646	-0.622486	0.273964
C224	C	0.924979	-0.289153	0.607297
C225	C	1.258313	0.044181	0.940630
C226	C	0.620390	-0.599013	0.245259
C227	C	0.953723	-0.265680	0.578592
C228	C	1.287057	0.067654	0.911925
C229	C	0.620367	-0.552106	0.245248
C230	C	0.953700	-0.218772	0.578581
C231	C	1.287033	0.114561	0.911914
N232	N	0.649112	-0.528630	0.216548
N233	N	0.982445	-0.195297	0.549881
N234	N	1.315778	0.138037	0.883214
C235	C	0.677869	-0.552072	0.187851
C236	C	1.011203	-0.218739	0.521184
C237	C	1.344536	0.114594	0.854518
C238	C	0.620494	-0.979055	0.245289
C239	C	0.953828	-0.645721	0.578622
C240	C	1.287161	-0.312388	0.911955
C241	C	0.620507	-1.025973	0.245292
C242	C	0.953840	-0.692639	0.578625
C243	C	1.287174	-0.359306	0.911959
C244	C	0.678012	-1.025939	0.187893
C245	C	1.011345	-0.692606	0.521226
C246	C	1.344678	-0.359273	0.854559
C247	C	0.677996	-0.979021	0.187887
C248	C	1.011330	-0.645687	0.521221
C249	C	1.344663	-0.312354	0.854554
C250	C	0.649239	-0.955579	0.216589
C251	C	0.982573	-0.622246	0.549922
C252	C	1.315906	-0.288913	0.883255
C253	C	0.677834	-0.453547	0.187841
C254	C	1.011167	-0.120213	0.521174
C255	C	1.344500	0.213120	0.854507
C256	C	0.677814	-0.406627	0.187836
C257	C	1.011147	-0.073294	0.521169
C258	C	1.344481	0.260040	0.854503
C259	C	0.620311	-0.406664	0.245237
C260	C	0.953644	-0.073331	0.578570
C261	C	1.286978	0.260002	0.911903
C262	C	0.620329	-0.453580	0.245240
C263	C	0.953662	-0.120246	0.578573
C264	C	1.286996	0.213087	0.911907
C265	C	0.649094	-0.477020	0.216540
C266	C	0.982427	-0.143686	0.549874
C267	C	1.315761	0.189647	0.883207
O268	O	0.595912	-0.527818	0.269629
O269	O	0.929245	-0.194484	0.602962
O270	O	1.262578	0.138849	0.936296
O271	O	0.702318	-0.527791	0.163447
O272	O	1.035651	-0.194457	0.496780
O273	O	1.368984	0.138876	0.830114
C274	C	0.677930	-0.739737	0.187872
C275	C	1.011263	-0.406403	0.521205
C276	C	1.344596	-0.073070	0.854538
C277	C	0.649188	-0.763210	0.216574
C278	C	0.982521	-0.429876	0.549907
C279	C	1.315855	-0.096543	0.883241
C280	C	0.620430	-0.739767	0.245271
C281	C	0.953764	-0.406434	0.578604
C282	C	1.287097	-0.073101	0.911937
C283	C	0.649200	-0.810128	0.216578
C284	C	0.982534	-0.476794	0.549911
C285	C	1.315867	-0.143461	0.883244
C286	C	0.677958	-0.833570	0.187881
C287	C	1.011291	-0.500237	0.521214
C288	C	1.344625	-0.166903	0.854548
C289	C	0.706703	-0.810094	0.159181
C290	C	1.040037	-0.476761	0.492514
C291	C	1.373370	-0.143428	0.825848
C292	C	0.706687	-0.763179	0.159175
C293	C	1.040021	-0.429846	0.492508
C294	C	1.373354	-0.096512	0.825842
C295	C	0.591685	-0.763243	0.273971
C296	C	0.925018	-0.429910	0.607304
C297	C	1.258352	-0.096576	0.940637
C298	C	0.591703	-0.810158	0.273974
C299	C	0.925036	-0.476825	0.607307
C300	C	1.258370	-0.143492	0.940640
C301	C	0.620461	-0.833601	0.245277
C302	C	0.953794	-0.500267	0.578611
C303	C	1.287127	-0.166934	0.911944
C304	C	0.766309	-0.216547	0.216582
C305	C	1.099643	0.116786	0.549916
C306	C	1.432976	0.450120	0.883249
C307	C	0.816244	-0.216555	0.216596
C308	C	1.149577	0.116778	0.549930
C309	C	1.482910	0.450111	0.883263
C310	C	0.649143	-0.216524	0.333728
C311	C	0.982476	0.116810	0.667061
C312	C	1.315810	0.450143	1.000395
C313	C	0.649148	-0.216522	0.383662
C314	C	0.982482	0.116811	0.716996
C315	C	1.315815	0.450145	1.050329
C316	C	0.649225	-0.099349	0.216582
C317	C	0.982558	0.233984	0.549915
C318	C	1.315891	0.567317	0.883248
C319	C	0.649265	-0.049415	0.216595
C320	C	0.982598	0.283918	0.549929
C321	C	1.315931	0.617252	0.883262
C322	C	0.649145	-0.216499	0.099827
C323	C	0.982478	0.116834	0.433160
C324	C	1.315811	0.450167	0.766494
C325	C	0.649227	-0.216374	0.049893
C326	C	0.982560	0.116959	0.383226
C327	C	1.315893	0.450292	0.716560
C328	C	0.677935	-0.187718	0.693325
C329	C	1.011268	0.145615	1.026658
C330	C	1.344602	0.478949	1.359991
C331	C	0.677957	-0.187680	0.880998
C332	C	1.011291	0.145654	1.214331
C333	C	1.344624	0.478987	1.547665
O334	O	0.702399	-0.163232	0.905279
O335	O	1.035733	0.170101	1.238612
O336	O	1.369066	0.503435	1.571946
N337	N	0.649208	-0.216402	0.904448
N338	N	0.982541	0.116932	1.237781
N339	N	1.315875	0.450265	1.571114
C340	C	0.620449	-0.245133	0.880976
C341	C	0.953782	0.088200	1.214310
C342	C	1.287115	0.421533	1.547643
O343	O	0.595993	-0.269559	0.905228
O344	O	0.929326	0.063774	1.238561
O345	O	1.262659	0.397108	1.571895
C346	C	0.620424	-0.245169	0.693304
C347	C	0.953758	0.088164	1.026637
C348	C	1.287091	0.421498	1.359971
C349	C	0.649179	-0.216448	0.669857
C350	C	0.982512	0.116885	1.003190
C351	C	1.315846	0.450218	1.336523
C352	C	0.706687	-0.158999	0.669877
C353	C	1.040020	0.174334	1.003211
C354	C	1.373354	0.507667	1.336544
C355	C	0.706683	-0.159011	0.622962
C356	C	1.040016	0.174323	0.956295
C357	C	1.373349	0.507656	1.289629
C358	C	0.677927	-0.187741	0.599494
C359	C	1.011260	0.145592	0.932827
C360	C	1.344593	0.478926	1.266160
C361	C	0.649175	-0.216460	0.622941
C362	C	0.982508	0.116874	0.956274
C363	C	1.315842	0.450207	1.289608
C364	C	0.591663	-0.273898	0.669833
C365	C	0.924997	0.059435	1.003167
C366	C	1.258330	0.392769	1.336500
C367	C	0.591659	-0.273903	0.622912
C368	C	0.924992	0.059430	0.956246
C369	C	1.258326	0.392763	1.289579
C370	C	0.620414	-0.245183	0.599465
C371	C	0.953747	0.088151	0.932798
C372	C	1.287080	0.421484	1.266132
C373	C	0.620415	-0.245202	0.552558
C374	C	0.953748	0.088132	0.885891
C375	C	1.287081	0.421465	1.219224
N376	N	0.649164	-0.216480	0.529108
N377	N	0.982498	0.116854	0.862441
N378	N	1.315831	0.450187	1.195774
C379	C	0.677920	-0.187749	0.552576
C380	C	1.011254	0.145584	0.885909
C381	C	1.344587	0.478917	1.219243
C382	C	0.620464	-0.245113	0.979507
C383	C	0.953797	0.088220	1.312840
C384	C	1.287131	0.421554	1.646173
C385	C	0.620471	-0.245105	1.026425
C386	C	0.953804	0.088229	1.359758
C387	C	1.287137	0.421562	1.693091
C388	C	0.677979	-0.187650	1.026443
C389	C	1.011312	0.145683	1.359777
C390	C	1.344645	0.479016	1.693110
C391	C	0.677974	-0.187661	0.979524
C392	C	1.011308	0.145672	1.312858
C393	C	1.344641	0.479005	1.646191
C394	C	0.649214	-0.216391	0.956057
C395	C	0.982547	0.116942	1.289390
C396	C	1.315880	0.450276	1.622724
C397	C	0.677910	-0.187776	0.454050
C398	C	1.011243	0.145557	0.787383
C399	C	1.344576	0.478891	1.120717
C400	C	0.677904	-0.187792	0.407130
C401	C	1.011238	0.145542	0.740464
C402	C	1.344571	0.478875	1.073797
C403	C	0.620395	-0.245244	0.407116
C404	C	0.953728	0.088089	0.740449
C405	C	1.287061	0.421423	1.073783
C406	C	0.620401	-0.245230	0.454032
C407	C	0.953735	0.088103	0.787365
C408	C	1.287068	0.421436	1.120698
C409	C	0.649161	-0.216493	0.477497
C410	C	0.982494	0.116840	0.810831
C411	C	1.315827	0.450174	1.144164
O412	O	0.595982	-0.269633	0.528248
O413	O	0.929315	0.063700	0.861581
O414	O	1.262649	0.397034	1.194914
O415	O	0.702366	-0.163320	0.528316
O416	O	1.035699	0.170013	0.861650
O417	O	1.369032	0.503346	1.194983
C418	C	0.677939	-0.187706	0.740240
C419	C	1.011273	0.145627	1.073574
C420	C	1.344606	0.478960	1.406907
C421	C	0.649187	-0.216425	0.763688
C422	C	0.982521	0.116908	1.097021
C423	C	1.315854	0.450242	1.430354
C424	C	0.620431	-0.245155	0.740219
C425	C	0.953765	0.088178	1.073553
C426	C	1.287098	0.421511	1.406886
C427	C	0.649194	-0.216417	0.810605
C428	C	0.982527	0.116917	1.143939
C429	C	1.315861	0.450250	1.477272
C430	C	0.677950	-0.187686	0.834074
C431	C	1.011283	0.145647	1.167407
C432	C	1.344617	0.478980	1.500740
C433	C	0.706699	-0.158964	0.810624
C434	C	1.040033	0.174369	1.143957
C435	C	1.373366	0.507702	1.477291
C436	C	0.706695	-0.158976	0.763708
C437	C	1.040029	0.174357	1.097042
C438	C	1.373362	0.507691	1.430375
C439	C	0.591682	-0.273877	0.763669
C440	C	0.925015	0.059456	1.097002
C441	C	1.258349	0.392789	1.430336
C442	C	0.591689	-0.273864	0.810585
C443	C	0.925022	0.059470	1.143918
C444	C	1.258355	0.392803	1.477251
C445	C	0.620445	-0.245133	0.834053
C446	C	0.953778	0.088200	1.167386
C447	C	1.287111	0.421533	1.500719
H448	H	0.177197	-0.135539	0.135854
H449	H	0.510530	0.197794	0.469187
H450	H	0.843863	0.531128	0.802520
C451	C	0.699979	-1.040441	0.111851
C452	C	1.033312	-0.707108	0.445185
C453	C	1.366645	-0.373775	0.778518
C454	C	0.709626	-1.051730	0.156365
C455	C	1.042959	-0.718397	0.489698
C456	C	1.376292	-0.385063	0.823032
H457	H	0.719495	-1.056372	0.092395
H458	H	1.052829	-0.723039	0.425729
H459	H	1.386162	-0.389706	0.759062
H460	H	0.704100	-1.009147	0.107727
H461	H	1.037433	-0.675814	0.441060
H462	H	1.370766	-0.342481	0.774393
H463	H	0.669800	-1.048156	0.105242
H464	H	1.003133	-0.714823	0.438575
H465	H	1.336466	-0.381490	0.771909
H466	H	0.739804	-1.044012	0.162975
H467	H	1.073137	-0.710679	0.496309
H468	H	1.406471	-0.377345	0.829642
H469	H	0.705508	-1.083031	0.160492
H470	H	1.038842	-0.749698	0.493825
H471	H	1.372175	-0.416364	0.827158
H472	H	-0.179390	-0.164352	0.164561
H473	H	0.153943	0.168981	0.497894
H474	H	0.487276	0.502315	0.831228
H475	H	0.392998	-0.164309	0.164496
H476	H	0.726331	0.169024	0.497829
H477	H	1.059664	0.502357	0.831162
H478	H	0.568229	-0.603402	0.297337
H479	H	0.901562	-0.270069	0.630670
H480	H	1.234896	0.063264	0.964004
H481	H	0.121538	-0.297512	0.297278
H482	H	0.454872	0.035821	0.630611
H483	H	0.788205	0.369154	0.963945
C484	C	0.566108	-0.299432	0.550983
C485	C	0.899441	0.033901	0.884317
C486	C	1.232775	0.367235	1.217650
C487	C	0.560044	-0.305485	0.597117
C488	C	0.893378	0.027848	0.930450
C489	C	1.226711	0.361181	1.263784
H490	H	0.546589	-0.318928	0.535060
H491	H	0.879922	0.014405	0.868394
H492	H	1.213255	0.347739	1.201727
H493	H	0.596282	-0.306017	0.543304
H494	H	0.929616	0.027316	0.876637
H495	H	1.262949	0.360650	1.209971
H496	H	0.559557	-0.269246	0.543298
H497	H	0.892890	0.064087	0.876632
H498	H	1.226224	0.397420	1.209965
H499	H	0.566598	-0.335670	0.604803
H500	H	0.899932	-0.002337	0.938136
H501	H	1.233265	0.330996	1.271470
H502	H	0.529863	-0.298903	0.604800
H503	H	0.863196	0.034430	0.938133
H504	H	1.196530	0.367763	1.271466
H505	H	0.701388	-0.164274	0.960437
H506	H	1.034721	0.169060	1.293770
H507	H	1.368055	0.502393	1.627103
H508	H	0.730110	-0.135588	0.744622
H509	H	1.063443	0.197745	1.077955
H510	H	1.396777	0.531078	1.411288
C511	C	0.041039	-0.350189	0.295687
C512	C	0.374373	-0.016856	0.629021
C513	C	0.707706	0.316478	0.962354
C514	C	0.029737	-0.305711	0.305463
C515	C	0.363070	0.027623	0.638796
C516	C	0.696403	0.360956	0.972129
H517	H	0.025112	-0.369712	0.315151
H518	H	0.358446	-0.036378	0.648484
H519	H	0.691779	0.296955	0.981818
H520	H	0.072334	-0.354306	0.299792
H521	H	0.405667	-0.020973	0.633125
H522	H	0.739001	0.312360	0.966459
H523	H	0.033329	-0.356715	0.265491
H524	H	0.366663	-0.023382	0.598824
H525	H	0.699996	0.309952	0.932158
H526	H	0.037450	-0.299184	0.335658
H527	H	0.370783	0.034150	0.668992
H528	H	0.704116	0.367483	1.002325
H529	H	-0.001565	-0.301591	0.301362
H530	H	0.331768	0.031742	0.634695
H531	H	0.665102	0.365075	0.968028
H532	H	0.568248	-0.297285	0.688916
H533	H	0.901582	0.036048	1.022249
H534	H	1.234915	0.369381	1.355583
C535	C	0.614062	-0.506325	0.305668
C536	C	0.947395	-0.172991	0.639001
C537	C	1.280728	0.160342	0.972334
C538	C	0.588732	-0.479387	0.276788
C539	C	0.922065	-0.146054	0.610121
C540	C	1.255399	0.187280	0.943455
H541	H	0.594556	-0.522257	0.325144
H542	H	0.927889	-0.188923	0.658477
H543	H	1.261223	0.144410	0.991811
H544	H	0.633611	-0.487993	0.322870
H545	H	0.966944	-0.154659	0.656203
H546	H	1.300278	0.178674	0.989536
H547	H	0.631191	-0.526999	0.288574
H548	H	0.964525	-0.193666	0.621907
H549	H	1.297858	0.139667	0.955241
H550	H	0.571605	-0.458710	0.293882
H551	H	0.904938	-0.125377	0.627215
H552	H	1.238271	0.207956	0.960549
H553	H	0.569175	-0.497721	0.259585
H554	H	0.902508	-0.164387	0.592918
H555	H	1.235841	0.168946	0.926251
C556	C	0.703509	-0.162122	1.098377
C557	C	1.036843	0.171211	1.431710
C558	C	1.370176	0.504544	1.765044
C559	C	0.709582	-0.156063	1.052245
C560	C	1.042916	0.177270	1.385579
C561	C	1.376249	0.510604	1.718912
H562	H	0.723015	-0.142618	1.114307
H563	H	1.056348	0.190716	1.447640
H564	H	1.389681	0.524049	1.780973
H565	H	0.710069	-0.192302	1.106062
H566	H	1.043402	0.141032	1.439395
H567	H	1.376736	0.474365	1.772728
H568	H	0.673326	-0.155549	1.106049
H569	H	1.006659	0.177785	1.439383
H570	H	1.339993	0.511118	1.772716
H571	H	0.739765	-0.162640	1.044572
H572	H	1.073098	0.170693	1.377906
H573	H	1.406432	0.504027	1.711239
H574	H	0.703026	-0.125877	1.044558
H575	H	1.036359	0.207457	1.377891
H576	H	1.369692	0.540790	1.711224
H577	H	0.597097	-1.045080	0.268662
H578	H	0.930430	-0.711747	0.601996
H579	H	1.263763	-0.378414	0.935329
H580	H	0.036441	-0.135556	0.135871
H581	H	0.369775	0.197777	0.469204
H582	H	0.703108	0.531111	0.802537
H583	H	0.568292	-0.829266	0.297349
H584	H	0.901626	-0.495933	0.630682
H585	H	1.234959	-0.162599	0.964015
C586	C	0.734659	-0.411314	0.131100
C587	C	1.067993	-0.077981	0.464433
C588	C	1.401326	0.255352	0.797767
C589	C	0.709413	-0.380826	0.156283
C590	C	1.042747	-0.047493	0.489617
C591	C	1.376080	0.285841	0.822950
H592	H	0.754169	-0.395386	0.111624
H593	H	1.087502	-0.062053	0.444957
H594	H	1.420835	0.271281	0.778291
H595	H	0.715103	-0.429639	0.113897
H596	H	1.048437	-0.096305	0.447231
H597	H	1.381770	0.237028	0.780564
H598	H	0.751833	-0.429590	0.150701
H599	H	1.085167	-0.096256	0.484034
H600	H	1.418500	0.237077	0.817368
H601	H	0.692237	-0.362553	0.136682
H602	H	1.025570	-0.029219	0.470016
H603	H	1.358903	0.304114	0.803349
H604	H	0.728972	-0.362494	0.173487
H605	H	1.062305	-0.029161	0.506820
H606	H	1.395638	0.304173	0.840154
H607	H	0.597076	-0.959972	0.268661
H608	H	0.930409	-0.626638	0.601995
H609	H	1.263742	-0.293305	0.935328
H610	H	0.478121	-0.164309	0.164485
H611	H	0.811455	0.169024	0.497818
H612	H	1.144788	0.502358	0.831152
C613	C	0.155179	-0.152649	0.098787
C614	C	0.488512	0.180684	0.432120
C615	C	0.821846	0.514018	0.765454
C616	C	0.128234	-0.127354	0.127687
C617	C	0.461567	0.205979	0.461020
C618	C	0.794900	0.539313	0.794353
H619	H	0.171097	-0.133121	0.079321
H620	H	0.504430	0.200213	0.412654
H621	H	0.837763	0.533546	0.745988
H622	H	0.136854	-0.172196	0.081575
H623	H	0.470187	0.161137	0.414909
H624	H	0.803521	0.494471	0.748242
H625	H	0.175866	-0.169779	0.115867
H626	H	0.509200	0.163554	0.449201
H627	H	0.842533	0.496887	0.782534
H628	H	0.107544	-0.110226	0.110606
H629	H	0.440877	0.223107	0.443940
H630	H	0.774211	0.556441	0.777273
H631	H	0.146560	-0.107799	0.144900
H632	H	0.479894	0.225534	0.478233
H633	H	0.813227	0.558867	0.811567
C634	C	-0.118100	-0.130894	0.131214
C635	C	0.215233	0.202439	0.464547
C636	C	0.548567	0.535773	0.797880
C637	C	-0.087597	-0.156141	0.156381
C638	C	0.245737	0.177192	0.489715
C639	C	0.579070	0.510526	0.823048
H640	H	-0.102184	-0.111367	0.111745
H641	H	0.231150	0.221966	0.445079
H642	H	0.564483	0.555300	0.778412
H643	H	-0.136379	-0.113743	0.150822
H644	H	0.196954	0.219591	0.484155
H645	H	0.530287	0.552924	0.817488
H646	H	-0.136419	-0.150451	0.114000
H647	H	0.196914	0.182882	0.447333
H648	H	0.530247	0.516215	0.780666
H649	H	-0.069279	-0.136584	0.173598
H650	H	0.264054	0.196750	0.506931
H651	H	0.597387	0.530083	0.840265
H652	H	-0.069309	-0.173294	0.136771
H653	H	0.264024	0.160040	0.470104
H654	H	0.597357	0.493373	0.803438
C655	C	0.738304	-0.506234	0.181671
C656	C	1.071638	-0.172901	0.515004
C657	C	1.404971	0.160433	0.848337
C658	C	0.709459	-0.479302	0.156297
C659	C	1.042792	-0.145969	0.489630
C660	C	1.376126	0.187365	0.822963
H661	H	0.757831	-0.522130	0.162196
H662	H	1.091164	-0.188797	0.495529
H663	H	1.424497	0.144536	0.828863
H664	H	0.721192	-0.526936	0.198754
H665	H	1.054525	-0.193602	0.532088
H666	H	1.387859	0.139731	0.865421
H667	H	0.755458	-0.487899	0.201265
H668	H	1.088792	-0.154566	0.534598
H669	H	1.422125	0.178768	0.867932
H670	H	0.692303	-0.497638	0.136705
H671	H	1.025636	-0.164304	0.470038
H672	H	1.358969	0.169029	0.803371
H673	H	0.726573	-0.458598	0.139205
H674	H	1.059907	-0.125265	0.472539
H675	H	1.393240	0.208069	0.805872
H676	H	0.596984	-0.268637	0.388000
H677	H	0.930317	0.064696	0.721333
H678	H	1.263650	0.398030	1.054666
C679	C	0.763487	-0.627127	0.102430
C680	C	1.096820	-0.293794	0.435764
C681	C	1.430154	0.039539	0.769097
C682	C	0.738243	-0.596635	0.127611
C683	C	1.071576	-0.263302	0.460944
C684	C	1.404910	0.070032	0.794277
H685	H	0.783002	-0.611202	0.082957
H686	H	1.116335	-0.277869	0.416291
H687	H	1.449668	0.055465	0.749624
H688	H	0.743930	-0.645448	0.085225
H689	H	1.077264	-0.312115	0.418558
H690	H	1.410597	0.021219	0.751892
H691	H	0.780655	-0.645406	0.122033
H692	H	1.113989	-0.312073	0.455367
H693	H	1.447322	0.021261	0.788700
H694	H	0.721072	-0.578358	0.108008
H695	H	1.054405	-0.245025	0.441341
H696	H	1.387739	0.088308	0.774674
H697	H	0.757802	-0.578306	0.144817
H698	H	1.091135	-0.244973	0.478151
H699	H	1.424469	0.088360	0.811484
C700	C	0.767144	-0.722013	0.153021
C701	C	1.100478	-0.388679	0.486355
C702	C	1.433811	-0.055346	0.819688
C703	C	0.738301	-0.695092	0.127633
C704	C	1.071634	-0.361759	0.460966
C705	C	1.404968	-0.028426	0.794299
H706	H	0.786691	-0.737896	0.133557
H707	H	1.120025	-0.404563	0.466890
H708	H	1.453358	-0.071229	0.800223
H709	H	0.750032	-0.742726	0.170091
H710	H	1.083366	-0.409392	0.503425
H711	H	1.416699	-0.076059	0.836758
H712	H	0.784277	-0.703671	0.172629
H713	H	1.117610	-0.370338	0.505962
H714	H	1.450943	-0.037005	0.839296
H715	H	0.721166	-0.713434	0.108027
H716	H	1.054500	-0.380101	0.441361
H717	H	1.387833	-0.046768	0.774694
H718	H	0.755415	-0.674377	0.110555
H719	H	1.088748	-0.341044	0.443888
H720	H	1.422082	-0.007710	0.777222
H721	H	0.262285	-0.297506	0.297258
H722	H	0.595618	0.035827	0.630591
H723	H	0.928951	0.369160	0.963924
H724	H	0.478110	-0.268721	0.268545
H725	H	0.811443	0.064612	0.601879
H726	H	1.144776	0.397945	0.935212
H727	H	0.701321	-0.164403	0.388042
H728	H	1.034655	0.168930	0.721375
H729	H	1.367988	0.502263	1.054708
C730	C	0.531233	-0.722217	0.280169
C731	C	0.864566	-0.388883	0.613503
C732	C	1.197899	-0.055550	0.946836
C733	C	0.560063	-0.695201	0.305527
C734	C	0.893397	-0.361868	0.638860
C735	C	1.226730	-0.028535	0.972193
H736	H	0.511727	-0.738138	0.299654
H737	H	0.845061	-0.404805	0.632988
H738	H	1.178394	-0.071472	0.966321
H739	H	0.548357	-0.742896	0.263084
H740	H	0.881691	-0.409563	0.596417
H741	H	1.215024	-0.076229	0.929751
H742	H	0.514056	-0.703935	0.260577
H743	H	0.847389	-0.370602	0.593910
H744	H	1.180722	-0.037268	0.927243
H745	H	0.577243	-0.713484	0.325117
H746	H	0.910576	-0.380150	0.658450
H747	H	1.243910	-0.046817	0.991784
H748	H	0.542937	-0.674520	0.322620
H749	H	0.876270	-0.341186	0.655953
H750	H	1.209604	-0.007853	0.989286
H751	H	0.730115	-0.135573	0.829740
H752	H	1.063448	0.197761	1.163073
H753	H	1.396782	0.531094	1.496407
C754	C	0.734759	-0.130991	0.449343
C755	C	1.068092	0.202343	0.782676
C756	C	1.401425	0.535676	1.116009
C757	C	0.709525	-0.156191	0.479839
C758	C	1.042858	0.177143	0.813172
C759	C	1.376191	0.510476	1.146506
H760	H	0.754279	-0.111495	0.465265
H761	H	1.087613	0.221838	0.798598
H762	H	1.420946	0.555171	1.131931
H763	H	0.715196	-0.113808	0.431041
H764	H	1.048529	0.219525	0.764375
H765	H	1.381863	0.552859	1.097708
H766	H	0.751920	-0.150580	0.431045
H767	H	1.085253	0.182753	0.764378
H768	H	1.418587	0.516087	1.097712
H769	H	0.692361	-0.136602	0.498135
H770	H	1.025694	0.196732	0.831468
H771	H	1.359027	0.530065	1.164801
H772	H	0.729090	-0.173375	0.498148
H773	H	1.062423	0.159959	0.831482
H774	H	1.395757	0.493292	1.164815
C775	C	0.563624	-0.301893	1.021682
C776	C	0.896958	0.031440	1.355015
C777	C	1.230291	0.364773	1.688349
C778	C	0.588865	-0.276678	1.052195
C779	C	0.922199	0.056655	1.385528
C780	C	1.255532	0.389988	1.718861
H781	H	0.544109	-0.321382	1.037591
H782	H	0.877442	0.011951	1.370924
H783	H	1.210776	0.345284	1.704258
H784	H	0.583183	-0.319083	1.003387
H785	H	0.916516	0.014250	1.336721
H786	H	1.249850	0.347583	1.670054
H787	H	0.546457	-0.282313	1.003379
H788	H	0.879790	0.051020	1.336712
H789	H	1.213124	0.384353	1.670046
H790	H	0.606036	-0.296258	1.070496
H791	H	0.939369	0.037075	1.403829
H792	H	1.272702	0.370408	1.737162
H793	H	0.569305	-0.259487	1.070497
H794	H	0.902638	0.073846	1.403831
H795	H	1.235971	0.407180	1.737164
C796	C	0.684270	-0.926279	0.127456
C797	C	1.017604	-0.592946	0.460789
C798	C	1.350937	-0.259612	0.794122
C799	C	0.709594	-0.953221	0.156336
C800	C	1.042927	-0.619888	0.489669
C801	C	1.376261	-0.286555	0.823003
H802	H	0.703779	-0.910356	0.107975
H803	H	1.037113	-0.577022	0.441309
H804	H	1.370446	-0.243689	0.774642
H805	H	0.667149	-0.905601	0.144545
H806	H	1.000482	-0.572268	0.477879
H807	H	1.333816	-0.238934	0.811212
H808	H	0.664713	-0.944610	0.110254
H809	H	0.998046	-0.611277	0.443587
H810	H	1.331380	-0.277944	0.776921
H811	H	0.729149	-0.934890	0.173540
H812	H	1.062482	-0.601556	0.506873
H813	H	1.395816	-0.268223	0.840207
H814	H	0.726723	-0.973902	0.139244
H815	H	1.060056	-0.640568	0.472578
H816	H	1.393390	-0.307235	0.805911
H817	H	0.730104	-0.135601	0.688980
H818	H	1.063437	0.197732	1.022314
H819	H	1.396770	0.531066	1.355647
H820	H	0.596895	-0.387570	0.268600
H821	H	0.930229	-0.054237	0.601933
H822	H	1.263562	0.279097	0.935267
C823	C	0.767164	-0.862789	0.153034
C824	C	1.100498	-0.529456	0.486367
C825	C	1.433831	-0.196123	0.819701
C826	C	0.738329	-0.835861	0.127645
C827	C	1.071662	-0.502527	0.460978
C828	C	1.404996	-0.169194	0.794312
H829	H	0.786694	-0.878693	0.133569
H830	H	1.120027	-0.545360	0.466902
H831	H	1.453360	-0.212026	0.800235
H832	H	0.750045	-0.883484	0.170119
H833	H	1.083378	-0.550151	0.503452
H834	H	1.416712	-0.216817	0.836785
H835	H	0.784315	-0.844451	0.172628
H836	H	1.117649	-0.511117	0.505961
H837	H	1.450982	-0.177784	0.839295
H838	H	0.721175	-0.854199	0.108053
H839	H	1.054509	-0.520866	0.441387
H840	H	1.387842	-0.187533	0.774720
H841	H	0.755450	-0.815163	0.110552
H842	H	1.088783	-0.481830	0.443886
H843	H	1.422117	-0.148497	0.777219
H844	H	0.730093	-0.744071	0.135801
H845	H	1.063427	-0.410737	0.469134
H846	H	1.396760	-0.077404	0.802468
C847	C	0.614160	-0.305558	0.926741
C848	C	0.947493	0.027775	1.260074
C849	C	1.280826	0.361109	1.593408
C850	C	0.588850	-0.276698	0.953716
C851	C	0.922183	0.056635	1.287049
C852	C	1.255516	0.389968	1.620382
H853	H	0.594642	-0.325056	0.910819
H854	H	0.927975	0.008277	1.244152
H855	H	1.261309	0.341610	1.577486
H856	H	0.633721	-0.322737	0.945047
H857	H	0.967055	0.010596	1.278380
H858	H	1.300388	0.343929	1.611713
H859	H	0.631275	-0.288451	0.906058
H860	H	0.964609	0.044882	1.239391
H861	H	1.297942	0.378216	1.572724
H862	H	0.571737	-0.293805	0.974401
H863	H	0.905070	0.039528	1.307734
H864	H	1.238403	0.372861	1.641068
H865	H	0.569280	-0.259517	0.935408
H866	H	0.902614	0.073816	1.268741
H867	H	1.235947	0.407149	1.602075
H868	H	0.596991	-0.268621	0.473123
H869	H	0.930325	0.064712	0.806457
H870	H	1.263658	0.398045	1.139790
C871	C	0.763521	-0.102216	0.627708
C872	C	1.096854	0.231118	0.961041
C873	C	1.430187	0.564451	1.294374
C874	C	0.738286	-0.127434	0.597193
C875	C	1.071619	0.205899	0.930526
C876	C	1.404952	0.539232	1.263859
H877	H	0.783029	-0.082718	0.611800
H878	H	1.116362	0.250616	0.945133
H879	H	1.449695	0.583949	1.278467
H880	H	0.780692	-0.121789	0.646007
H881	H	1.114025	0.211544	0.979340
H882	H	1.447358	0.544877	1.312673
H883	H	0.743955	-0.085030	0.646006
H884	H	1.077288	0.248303	0.979339
H885	H	1.410621	0.581636	1.312673
H886	H	0.757852	-0.144622	0.578896
H887	H	1.091185	0.188711	0.912230
H888	H	1.424519	0.522045	1.245563
H889	H	0.721114	-0.107858	0.578886
H890	H	1.054447	0.225475	0.912219
H891	H	1.387780	0.558809	1.245553
H892	H	-0.179407	-0.268759	0.268628
H893	H	0.153926	0.064574	0.601961
H894	H	0.487260	0.397907	0.935294
H895	H	0.568268	-0.744160	0.297340
H896	H	0.901601	-0.410826	0.630673
H897	H	1.234934	-0.077493	0.964006
H898	H	0.568274	-0.297256	0.829671
H899	H	0.901607	0.036077	1.163005
H900	H	1.234941	0.369411	1.496338
H901	H	0.568265	-0.297274	0.744566
H902	H	0.901599	0.036059	1.077899
H903	H	1.234932	0.369393	1.411233
C904	C	0.359368	-0.251634	0.305641
C905	C	0.692702	0.081700	0.638974
C906	C	1.026035	0.415033	0.972307
C907	C	0.386314	-0.276924	0.276737
C908	C	0.719647	0.056410	0.610070
C909	C	1.052981	0.389743	0.943404
H910	H	0.343455	-0.271165	0.325107
H911	H	0.676788	0.062168	0.658440
H912	H	1.010122	0.395502	0.991773
H913	H	0.338682	-0.234504	0.288567
H914	H	0.672015	0.098829	0.621900
H915	H	1.005349	0.432163	0.955233
H916	H	0.377696	-0.232086	0.322856
H917	H	0.711030	0.101247	0.656189
H918	H	1.044363	0.434581	0.989523
H919	H	0.367986	-0.296469	0.259519
H920	H	0.701319	0.036864	0.592853
H921	H	1.034652	0.370197	0.926186
H922	H	0.407003	-0.294061	0.293813
H923	H	0.740336	0.039272	0.627146
H924	H	1.073669	0.372606	0.960480
C925	C	0.200999	-0.330964	0.330601
C926	C	0.534333	0.002369	0.663935
C927	C	0.867666	0.335703	0.997268
C928	C	0.170494	-0.305713	0.305440
C929	C	0.503827	0.027620	0.638773
C930	C	0.837161	0.360954	0.972106
H931	H	0.185084	-0.350500	0.350061
H932	H	0.518417	-0.017167	0.683395
H933	H	0.851751	0.316167	1.016728
H934	H	0.219314	-0.311413	0.347820
H935	H	0.552648	0.021920	0.681153
H936	H	0.885981	0.355253	1.014486
H937	H	0.219283	-0.348110	0.310986
H938	H	0.552616	-0.014777	0.644319
H939	H	0.885949	0.318557	0.977652
H940	H	0.152213	-0.288564	0.325055
H941	H	0.485546	0.044769	0.658389
H942	H	0.818879	0.378102	0.991722
H943	H	0.152171	-0.325266	0.288220
H944	H	0.485505	0.008067	0.621554
H945	H	0.818838	0.341401	0.954887
H946	H	-0.094285	-0.268759	0.268619
H947	H	0.239048	0.064575	0.601953
H948	H	0.572382	0.397908	0.935286
H949	H	0.262305	-0.135529	0.135852
H950	H	0.595638	0.197804	0.469185
H951	H	0.928972	0.531137	0.802519
