data_functionalizedCrystal
_audit_creation_method	'MofGen! by Chris Wilmer'
_symmetry_space_group_name_H-M	'P1'
_symmetry_Int_Tables_number	1
_symmetry_cell_setting	triclinic
loop_
_symmetry_equiv_pos_as_xyz
  x,y,z
_cell_length_a	12.759395
_cell_length_b	19.121063
_cell_length_c	12.759387
_cell_angle_alpha	92.402374
_cell_angle_beta	89.982262
_cell_angle_gamma	92.468690
loop_
_atom_site_label
_atom_site_type_symbol
_atom_site_fract_x
_atom_site_fract_y
_atom_site_fract_z
Zn1	Zn	1.588317	-0.279570	-0.611764
Zn2	Zn	1.580677	-0.397040	-0.443559
Zn3	Zn	1.412618	-0.279608	-0.436107
Zn4	Zn	1.405075	-0.396984	-0.619198
O5	O	1.496672	-0.338301	-0.527657
O6	O	1.734324	-0.295161	-0.589459
O7	O	1.558343	-0.381501	-0.295552
O8	O	1.442278	-0.181319	-0.453178
O9	O	1.728711	-0.381465	-0.465880
O10	O	1.571364	-0.181291	-0.582233
O11	O	1.434870	-0.295224	-0.290077
O12	O	1.264597	-0.295170	-0.460386
O13	O	1.429423	-0.381370	-0.765231
O14	O	1.259055	-0.381406	-0.594903
O15	O	1.564050	-0.295107	-0.759769
O16	O	1.551029	-0.495317	-0.473088
O17	O	1.422015	-0.495276	-0.602129
C18	C	1.223705	-0.338287	-0.527643
C19	C	1.106928	-0.338298	-0.527663
C20	C	1.112744	-0.248574	-0.656573
C21	C	1.060791	-0.203721	-0.721037
C22	C	0.951068	-0.203733	-0.721051
C23	C	0.893296	-0.248602	-0.656591
C24	C	0.945249	-0.293456	-0.592128
C25	C	1.054975	-0.293440	-0.592123
C26	C	0.939434	-0.383175	-0.463214
C27	C	1.049156	-0.383167	-0.463204
C28	C	0.881662	-0.428044	-0.398755
C29	C	0.933615	-0.472902	-0.334295
C30	C	1.043344	-0.472888	-0.334285
C31	C	1.101109	-0.428020	-0.398740
C32	C	1.484903	-0.520780	-0.539247
C33	C	1.479965	-0.598846	-0.544241
C34	C	1.544867	-0.635519	-0.479457
C35	C	1.540229	-0.708870	-0.484160
C36	C	1.470682	-0.745546	-0.553641
C37	C	1.405777	-0.708868	-0.618431
C38	C	1.410421	-0.635518	-0.613733
C39	C	1.453300	-0.967015	-0.571189
C40	C	1.448659	-1.040369	-0.575880
C41	C	1.583113	-1.040367	-0.441609
C42	C	1.587747	-0.967016	-0.436913
C43	C	1.522846	-0.930344	-0.501707
C44	C	1.465937	-0.820523	-0.558447
C45	C	1.527597	-0.855368	-0.496905
C46	C	1.770704	-0.338315	-0.527672
C47	C	1.887480	-0.338321	-0.527678
C48	C	1.496748	-0.338228	-0.801686
C49	C	1.496780	-0.338197	-0.918461
C50	C	1.508515	-0.155108	-0.516045
C51	C	1.513561	-0.077043	-0.511096
C52	C	1.368217	-0.248351	-0.912778
C53	C	1.303956	-0.203413	-0.964796
C54	C	1.303989	-0.203388	-1.074516
C55	C	1.368288	-0.248306	-1.132221
C56	C	1.432549	-0.293243	-1.080202
C57	C	1.432512	-0.293262	-0.970479
C58	C	1.561105	-0.383092	-1.085886
C59	C	1.561079	-0.383115	-0.976165
C60	C	1.625404	-0.428011	-1.143590
C61	C	1.689672	-0.472945	-1.091572
C62	C	1.689637	-0.472968	-0.981845
C63	C	1.625340	-0.428053	-0.924147
C64	C	1.496660	-0.338322	-0.254691
C65	C	1.496844	-0.338155	-0.137904
H66	H	1.190451	-0.428001	-0.398733
N67	N	1.368310	-0.248291	-1.250562
H68	H	1.317839	-0.213012	-1.274759
H69	H	1.441257	-0.235406	-1.276103
H70	H	1.400453	-0.937162	-0.623945
N71	N	1.231086	-0.248559	-0.656561
H72	H	1.255232	-0.283781	-0.605943
H73	H	1.256626	-0.261507	-0.729456
N74	N	1.368190	-0.248376	-0.794438
H75	H	1.441092	-0.235481	-0.767200
H76	H	1.317664	-0.213108	-0.765860
H77	H	1.601495	-0.605662	-0.422874
N78	N	1.330767	-0.748422	-0.693377
H79	H	1.337669	-0.800453	-0.686521
H80	H	1.256552	-0.735648	-0.676140
N81	N	1.234672	-0.154929	-1.130633
H82	H	1.254226	-0.104750	-1.108375
H83	H	1.244488	-0.161797	-1.208879
H84	H	0.908768	-0.167206	-0.773536
H85	H	1.625421	-0.427990	-1.232930
N86	N	1.759004	-0.521396	-1.153806
H87	H	1.749265	-0.514566	-1.231207
H88	H	1.834743	-0.510480	-1.133950
N89	N	1.610231	-0.748426	-0.414287
H90	H	1.654987	-0.714062	-0.369553
H91	H	1.565558	-0.778911	-0.367586
N92	N	0.763320	-0.428048	-0.398765
H93	H	0.736083	-0.441023	-0.471629
H94	H	0.734686	-0.463268	-0.348103
H95	H	1.741970	-0.509560	-0.939498
N96	N	1.123095	-0.155334	-0.790571
H97	H	1.103311	-0.166315	-0.866302
H98	H	1.107193	-0.105158	-0.771116
H99	H	1.625309	-0.428065	-0.834807
N100	N	1.390919	-0.860086	-0.633374
H101	H	1.316667	-0.847374	-0.616173
H102	H	1.408089	-0.847258	-0.707608
N103	N	0.774954	-0.248606	-0.656607
H104	H	0.745427	-0.296803	-0.678860
H105	H	0.749418	-0.235608	-0.583730
N106	N	0.871299	-0.521283	-0.264773
H107	H	0.823690	-0.553869	-0.309457
H108	H	0.920921	-0.549653	-0.223945
H109	H	1.085638	-0.509411	-0.281787
H110	H	1.644378	-0.937155	-0.380336
H111	H	1.584226	-0.825505	-0.440338
H112	H	1.392038	-1.070229	-0.632478
N113	N	1.653106	-1.079919	-0.371723
H114	H	1.639613	-1.131951	-0.385237
H115	H	1.728948	-1.067049	-0.387311
H116	H	1.357572	-0.605659	-0.666488
H117	H	1.251603	-0.166844	-0.917801
