data_functionalizedCrystal
_audit_creation_method	'MofGen! by Chris Wilmer'
_symmetry_space_group_name_H-M	'P1'
_symmetry_Int_Tables_number	1
_symmetry_cell_setting	triclinic
loop_
_symmetry_equiv_pos_as_xyz
  x,y,z
_cell_length_a	13.897448
_cell_length_b	12.759401
_cell_length_c	13.897441
_cell_angle_alpha	90.020302
_cell_angle_beta	89.969401
_cell_angle_gamma	89.986705
loop_
_atom_site_label
_atom_site_type_symbol
_atom_site_fract_x
_atom_site_fract_y
_atom_site_fract_z
Zn1	Zn	-0.384097	-1.606236	-0.545370
Zn2	Zn	-0.545419	-1.606120	-0.384071
Zn3	Zn	-0.384127	-1.430537	-0.384090
Zn4	Zn	-0.545340	-1.430517	-0.545325
O5	O	-0.464746	-1.518352	-0.464714
O6	O	-0.405518	-1.753241	-0.523985
O7	O	-0.524069	-1.582789	-0.249092
O8	O	-0.249142	-1.453900	-0.405510
O9	O	-0.524040	-1.753156	-0.405479
O10	O	-0.249120	-1.582985	-0.524002
O11	O	-0.405569	-1.453788	-0.249105
O12	O	-0.405492	-1.283513	-0.405467
O13	O	-0.523905	-1.453866	-0.680313
O14	O	-0.523934	-1.283499	-0.523926
O15	O	-0.405441	-1.582966	-0.680346
O16	O	-0.680390	-1.582769	-0.405436
O17	O	-0.680332	-1.453755	-0.523908
C18	C	-0.464708	-1.245385	-0.464694
C19	C	-0.464715	-1.128608	-0.464708
C20	C	-0.403125	-0.964054	-0.526512
C21	C	-0.403112	-1.073778	-0.526508
C22	C	-0.526342	-1.073709	-0.402915
C23	C	-0.526359	-0.963987	-0.402925
C24	C	-0.715360	-1.518276	-0.464686
C25	C	-0.822574	-1.518339	-0.464706
C26	C	-1.018869	-1.518449	-0.464767
C27	C	-0.909637	-1.518385	-0.464736
C28	C	-0.213153	-1.518458	-0.464763
C29	C	-0.105939	-1.518503	-0.464784
C30	C	-0.464661	-1.518427	-0.716307
C31	C	-0.464624	-1.518459	-0.823521
C32	C	-0.464770	-0.792386	-0.464729
C33	C	-0.464745	-0.909162	-0.464722
C34	C	-0.464559	-1.518487	-1.019816
C35	C	-0.464598	-1.518468	-0.910584
C36	C	-0.464761	-1.518339	-0.214100
C37	C	-0.464526	-1.518510	-0.106886
H38	H	-0.576542	-0.919293	-0.352607
O39	O	-0.592778	-1.132845	-0.336251
H40	H	-0.641894	-1.182864	-0.379327
O41	O	-0.336647	-1.132978	-0.593155
H42	H	-0.346991	-1.218487	-0.582777
O43	O	-0.336683	-0.904916	-0.593169
H44	H	-0.293840	-0.961525	-0.636141
