data_functionalizedCrystal
_audit_creation_method	'MofGen! by Chris Wilmer'
_symmetry_space_group_name_H-M	'P1'
_symmetry_Int_Tables_number	1
_symmetry_cell_setting	triclinic
loop_
_symmetry_equiv_pos_as_xyz
  x,y,z
_cell_length_a	12.759401
_cell_length_b	13.897447
_cell_length_c	12.759393
_cell_angle_alpha	89.972435
_cell_angle_beta	90.019196
_cell_angle_gamma	89.978378
loop_
_atom_site_label
_atom_site_type_symbol
_atom_site_fract_x
_atom_site_fract_y
_atom_site_fract_z
Zn1	Zn	1.606214	0.383963	0.594001
Zn2	Zn	2.106214	0.883963	1.094001
Zn3	Zn	1.606087	0.545288	0.418329
Zn4	Zn	2.106087	1.045288	0.918329
Zn5	Zn	1.430514	0.384010	0.418340
Zn6	Zn	1.930514	0.884010	0.918340
Zn7	Zn	1.430485	0.545219	0.593970
Zn8	Zn	1.930485	1.045219	1.093970
O9	O	1.518325	0.464620	0.506160
O10	O	2.018325	0.964620	1.006160
O11	O	1.753218	0.405373	0.570706
O12	O	2.253218	0.905373	1.070706
O13	O	1.582756	0.523942	0.271309
O14	O	2.082756	1.023942	0.771309
O15	O	1.453887	0.249022	0.441661
O16	O	1.953887	0.749022	0.941661
O17	O	1.753125	0.523897	0.441640
O18	O	2.253125	1.023897	0.941640
O19	O	1.582973	0.248988	0.570718
O20	O	2.082973	0.748988	1.070718
O21	O	1.453763	0.405452	0.271318
O22	O	1.953763	0.905452	0.771318
O23	O	1.283489	0.405385	0.441630
O24	O	1.783489	0.905385	0.941630
O25	O	1.453836	0.523780	0.740995
O26	O	1.953836	1.023780	1.240995
O27	O	1.283468	0.523825	0.570664
O28	O	1.783468	1.023825	1.070664
O29	O	1.582944	0.405306	0.741018
O30	O	2.082944	0.905306	1.241018
O31	O	1.582727	0.680260	0.441610
O32	O	2.082727	1.180260	0.941610
O33	O	1.453713	0.680210	0.570652
O34	O	1.953713	1.180210	1.070652
C35	C	1.245357	0.464603	0.506145
C36	C	1.745357	0.964603	1.006145
C37	C	1.128581	0.464620	0.506164
C38	C	1.628581	0.964620	1.006164
C39	C	1.518231	0.715234	0.506149
C40	C	2.018231	1.215234	1.006149
C41	C	1.518288	0.822448	0.506179
C42	C	2.018288	1.322448	1.006179
C43	C	1.073768	0.403015	0.573472
C44	C	1.573768	0.903015	1.073472
C45	C	0.964044	0.403025	0.573479
C46	C	1.464044	0.903025	1.073479
C47	C	0.963955	0.526252	0.438866
C48	C	1.463955	1.026252	0.938866
C49	C	1.073677	0.526236	0.438855
C50	C	1.573677	1.026236	0.938855
C51	C	1.518336	0.909518	0.506208
C52	C	2.018336	1.409518	1.006208
C53	C	1.518406	1.018751	0.506241
C54	C	2.018406	1.518751	1.006241
C55	C	1.792358	0.464637	0.506176
C56	C	2.292358	0.964637	1.006176
C57	C	1.909135	0.464645	0.506182
C58	C	2.409135	0.964645	1.006182
C59	C	1.518401	0.464530	0.780194
C60	C	2.018401	0.964530	1.280194
C61	C	1.518434	0.464492	0.896970
C62	C	2.018434	0.964492	1.396970
C63	C	1.518439	1.213027	0.506207
C64	C	2.018439	1.713027	1.006207
C65	C	1.518468	1.105813	0.506262
C66	C	2.018468	1.605813	1.006262
C67	C	1.518309	0.464640	0.233193
C68	C	2.018309	0.964640	0.733193
C69	C	1.518480	0.464406	0.116417
C70	C	2.018480	0.964406	0.616417
C71	C	1.585628	0.526118	1.061563
C72	C	2.085628	1.026118	1.561563
C73	C	1.585602	0.526164	0.951839
C74	C	2.085602	1.026164	1.451839
C75	C	1.451279	0.402777	0.951831
C76	C	1.951279	0.902777	1.451831
C77	C	1.451300	0.402737	1.061553
C78	C	1.951300	0.902737	1.561553
H79	H	1.118468	0.352840	0.628276
H80	H	1.618468	0.852840	1.128276
C81	C	1.659492	0.594031	0.891505
C82	C	2.159492	1.094031	1.391505
N83	N	1.715156	0.645146	0.846063
N84	N	2.215156	1.145146	1.346063
C85	C	1.377432	0.334843	1.121896
C86	C	1.877432	0.834843	1.621896
N87	N	1.321797	0.283707	1.167345
N88	N	1.821797	0.783707	1.667345
H89	H	1.118307	0.576403	0.384039
H90	H	1.618307	1.076403	0.884039
H91	H	1.640329	0.576334	1.106230
H92	H	2.140329	1.076334	1.606230
C93	C	1.377402	0.334929	0.891472
C94	C	1.877402	0.834929	1.391472
N95	N	1.321762	0.283819	0.846010
N96	N	1.821762	0.783819	1.346010
C97	C	0.903755	0.335258	0.647527
C98	C	1.403755	0.835258	1.147527
N99	N	0.858346	0.284214	0.703303
N100	N	1.358346	0.784214	1.203303
H101	H	0.919239	0.576419	0.384067
H102	H	1.419239	1.076419	0.884067
