data_functionalizedCrystal
_audit_creation_method	'MofGen! by Chris Wilmer'
_symmetry_space_group_name_H-M	'P1'
_symmetry_Int_Tables_number	1
_symmetry_cell_setting	triclinic
loop_
_symmetry_equiv_pos_as_xyz
  x,y,z
_cell_length_a	12.645330
_cell_length_b	14.908571
_cell_length_c	14.908308
_cell_angle_alpha	89.824947
_cell_angle_beta	93.270481
_cell_angle_gamma	93.285920
loop_
_atom_site_label
_atom_site_type_symbol
_atom_site_fract_x
_atom_site_fract_y
_atom_site_fract_z
Zn1	Zn	-0.553227	-1.345316	-0.587609
Zn2	Zn	-0.053227	-0.845316	-0.087609
Zn3	Zn	-0.720906	-1.353903	-0.437258
Zn4	Zn	-0.220906	-0.853903	0.062742
Zn5	Zn	-0.532865	-1.203631	-0.428606
Zn6	Zn	-0.032865	-0.703631	0.071394
Zn7	Zn	-0.719646	-1.194931	-0.578909
Zn8	Zn	-0.219646	-0.694931	-0.078909
O9	O	-0.631661	-1.274445	-0.508096
O10	O	-0.131661	-0.774445	-0.008096
O11	O	-0.584518	-1.472282	-0.574926
O12	O	-0.084518	-0.972282	-0.074926
O13	O	-0.687967	-1.341204	-0.310285
O14	O	-0.187967	-0.841204	0.189715
O15	O	-0.387223	-1.222473	-0.449718
O16	O	0.112777	-0.722473	0.050282
O17	O	-0.707711	-1.478590	-0.464464
O18	O	-0.207711	-0.978590	0.035536
O19	O	-0.402183	-1.326569	-0.566537
O20	O	0.097817	-0.826569	-0.066537
O21	O	-0.549815	-1.230799	-0.303929
O22	O	-0.049815	-0.730799	0.196071
O23	O	-0.548593	-1.076650	-0.441282
O24	O	-0.048593	-0.576650	0.058718
O25	O	-0.705565	-1.207645	-0.705889
O26	O	-0.205565	-0.707645	-0.205889
O27	O	-0.685821	-1.070259	-0.551710
O28	O	-0.185821	-0.570259	-0.051710
O29	O	-0.583297	-1.318133	-0.712280
O30	O	-0.083297	-0.818133	-0.212280
O31	O	-0.869081	-1.332768	-0.456028
O32	O	-0.369081	-0.832768	0.043972
O33	O	-0.868156	-1.215971	-0.560099
O34	O	-0.368156	-0.715971	-0.060099
C35	C	-0.614862	-1.040829	-0.494614
C36	C	-0.114862	-0.540829	0.005386
C37	C	-0.607702	-0.940886	-0.488867
C38	C	-0.107702	-0.440886	0.011133
C39	C	-0.907085	-1.274380	-0.508079
C40	C	-0.407085	-0.774380	-0.008079
C41	C	-1.024921	-1.274433	-0.508107
C42	C	-0.524921	-0.774433	-0.008107
C43	C	-0.646562	-1.260961	-0.742622
C44	C	-0.146562	-0.760961	-0.242622
C45	C	-0.652912	-1.255214	-0.842563
C46	C	-0.152912	-0.755214	-0.342563
C47	C	-1.191981	-1.201231	-0.573809
C48	C	-0.691981	-0.701231	-0.073809
C49	C	-1.069382	-1.200890	-0.573564
C50	C	-0.569382	-0.700890	-0.073564
C51	C	-1.061620	-1.254254	-0.411871
C52	C	-0.561620	-0.754254	0.088129
C53	C	-1.184216	-1.253808	-0.412269
C54	C	-0.684216	-0.753808	0.087731
C55	C	-1.200403	-1.368282	-0.537898
C56	C	-0.700403	-0.868282	-0.037898
C57	C	-1.077886	-1.367579	-0.539936
C58	C	-0.577886	-0.867579	-0.039936
C59	C	-0.355164	-1.274534	-0.508133
C60	C	0.144836	-0.774534	-0.008133
C61	C	-0.237338	-1.274571	-0.508149
C62	C	0.262662	-0.774571	-0.008149
C63	C	-0.648527	-1.508974	-0.521631
C64	C	-0.148527	-1.008974	-0.021631
C65	C	-0.655714	-1.608916	-0.527399
C66	C	-0.155714	-1.108916	-0.027399
C67	C	-0.737343	-0.746483	-0.592903
C68	C	-0.237343	-0.246483	-0.092903
C69	C	-0.730619	-0.652577	-0.587507
C70	C	-0.230619	-0.152577	-0.087507
C71	C	-0.587526	-0.659166	-0.472684
C72	C	-0.087526	-0.159166	0.027316
C73	C	-0.594249	-0.753072	-0.478080
C74	C	-0.094249	-0.253072	0.021920
C75	C	-0.669162	-0.796727	-0.538191
C76	C	-0.169162	-0.296727	-0.038191
C77	C	-0.675890	-0.890635	-0.543582
C78	C	-0.175890	-0.390635	-0.043582
C79	C	-0.532792	-0.897222	-0.428764
C80	C	-0.032792	-0.397222	0.071236
C81	C	-0.526068	-0.803316	-0.423368
C82	C	-0.026068	-0.303316	0.076632
C83	C	-0.537502	-1.359465	-1.037020
C84	C	-0.037502	-0.859465	-0.537020
C85	C	-0.543464	-1.354068	-1.130923
C86	C	-0.043464	-0.854068	-0.630923
C87	C	-0.670794	-1.239021	-1.124275
C88	C	-0.170794	-0.739021	-0.624275
C89	C	-0.664831	-1.244418	-1.030371
C90	C	-0.164831	-0.744418	-0.530371
C91	C	-0.598184	-1.304642	-0.986747
C92	C	-0.098184	-0.804642	-0.486747
C93	C	-0.592227	-1.310043	-0.892842
C94	C	-0.092227	-0.810043	-0.392842
C95	C	-0.719550	-1.194992	-0.886195
C96	C	-0.219550	-0.694992	-0.386195
C97	C	-0.725513	-1.189595	-0.980099
C98	C	-0.225513	-0.689595	-0.480099
C99	C	-0.616745	-1.287929	-0.274485
C100	C	-0.116745	-0.787929	0.225515
C101	C	-0.610109	-1.293850	-0.174555
C102	C	-0.110109	-0.793850	0.325445
H103	H	-1.044868	-1.212881	-0.644752
H104	H	-0.544868	-0.712881	-0.144752
H105	H	-0.537961	-1.359082	-0.857325
H106	H	-0.037961	-0.859082	-0.357325
Br107	Br	-0.815954	-1.107863	-1.039311
Br108	Br	-0.315954	-0.607863	-0.539311
Br109	Br	-0.839019	-0.805735	-0.674465
Br110	Br	-0.339019	-0.305735	-0.174465
Br111	Br	-1.233435	-1.085970	-0.540649
Br112	Br	-0.733435	-0.585970	-0.040649
H113	H	-0.725054	-1.189989	-1.159810
H114	H	-0.225054	-0.689989	-0.659810
Br115	Br	-0.823149	-0.584390	-0.661766
Br116	Br	-0.323149	-0.084390	-0.161766
H117	H	-0.477276	-0.938141	-0.384212
H118	H	0.022724	-0.438141	0.115788
Br119	Br	-0.461102	-1.428470	-1.199149
Br120	Br	0.038898	-0.928470	-0.699149
H121	H	-0.526530	-0.623606	-0.423751
H122	H	-0.026530	-0.123606	0.076249
H123	H	-0.768965	-1.150354	-0.845253
H124	H	-0.268965	-0.650354	-0.345253
H125	H	-1.227037	-1.213061	-0.645218
H126	H	-0.727037	-0.713061	-0.145218
H127	H	-0.465075	-0.767759	-0.374431
H128	H	0.034925	-0.267759	0.125569
H129	H	-0.483240	-1.408506	-1.001501
H130	H	0.016760	-0.908506	-0.501501
H131	H	-1.034056	-1.131307	-0.553424
H132	H	-0.534056	-0.631307	-0.053424
H133	H	-1.213914	-1.305205	-0.361385
H134	H	-0.713914	-0.805205	0.138615
Br135	Br	-1.221532	-1.139904	-0.371326
Br136	Br	-0.721532	-0.639904	0.128674
H137	H	-1.032568	-1.306221	-0.361372
H138	H	-0.532568	-0.806221	0.138628
H139	H	-1.024731	-1.186661	-0.386976
H140	H	-0.524731	-0.686661	0.113024
Br141	Br	-0.777559	-0.949881	-0.625154
Br142	Br	-0.277559	-0.449881	-0.125154
Br143	Br	-1.039045	-1.393112	-0.658029
Br144	Br	-0.539045	-0.893112	-0.158029
Br145	Br	-1.028293	-1.462725	-0.466766
Br146	Br	-0.528293	-0.962725	0.033234
Br147	Br	-1.249521	-1.459245	-0.458317
Br148	Br	-0.749521	-0.959245	0.041683
Br149	Br	-1.261842	-1.400747	-0.653355
Br150	Br	-0.761842	-0.900747	-0.153355
