data_functionalizedCrystal
_audit_creation_method	'MofGen! by Chris Wilmer'
_symmetry_space_group_name_H-M	'P1'
_symmetry_Int_Tables_number	1
_symmetry_cell_setting	triclinic
loop_
_symmetry_equiv_pos_as_xyz
  x,y,z
_cell_length_a	29.839125
_cell_length_b	10.685972
_cell_length_c	10.685594
_cell_angle_alpha	99.061614
_cell_angle_beta	85.638309
_cell_angle_gamma	94.388956
loop_
_atom_site_label
_atom_site_type_symbol
_atom_site_fract_x
_atom_site_fract_y
_atom_site_fract_z
Zn1	Zn	-0.315757	-1.901760	0.356925
Zn2	Zn	-0.245982	-1.885404	0.569156
Zn3	Zn	-0.235281	-1.689524	0.373168
Zn4	Zn	-0.315726	-1.673213	0.585380
O5	O	-0.278186	-1.787475	0.471157
O6	O	-0.310992	-2.077215	0.371491
O7	O	-0.181695	-1.859401	0.543165
O8	O	-0.241491	-1.731349	0.193383
O9	O	-0.259729	-2.065198	0.527415
O10	O	-0.300616	-1.887278	0.181449
O11	O	-0.173833	-1.715489	0.399174
O12	O	-0.241461	-1.509736	0.414906
O13	O	-0.378597	-1.703549	0.555068
O14	O	-0.300563	-1.497752	0.570817
O15	O	-0.378620	-1.871462	0.387223
O16	O	-0.259699	-1.843585	0.748938
O17	O	-0.310939	-1.687689	0.760858
C18	C	-0.269848	-1.457688	0.496386
C19	C	-0.266292	-1.316601	0.507209
C20	C	-0.395365	-1.787510	0.471143
C21	C	-0.445300	-1.787525	0.471137
C22	C	-0.754955	-1.875059	0.383521
C23	C	-0.942627	-1.875131	0.383408
O24	O	-0.966903	-1.949452	0.309042
N25	N	-0.966081	-1.787720	0.470784
C26	C	-0.942614	-1.700279	0.558190
O27	O	-0.966868	-1.625924	0.632497
C28	C	-0.754942	-1.700203	0.558296
C29	C	-0.731491	-1.787628	0.470922
C30	C	-0.731504	-1.962476	0.296154
C31	C	-0.684589	-1.962462	0.296188
C32	C	-0.661125	-1.875031	0.383589
C33	C	-0.684576	-1.787614	0.470956
C34	C	-0.731475	-1.612758	0.645694
C35	C	-0.684554	-1.612745	0.645711
C36	C	-0.661103	-1.700170	0.558337
C37	C	-0.614197	-1.700169	0.558390
N38	N	-0.590744	-1.787580	0.471014
C39	C	-0.614208	-1.875011	0.383613
C40	C	-1.041144	-1.700327	0.558129
C41	C	-1.088062	-1.700347	0.558104
C42	C	-1.088072	-1.875197	0.383321
C43	C	-1.041154	-1.875182	0.383353
C44	C	-1.017690	-1.787738	0.470753
C45	C	-0.515683	-1.874975	0.383691
C46	C	-0.468764	-1.874957	0.383736
C47	C	-0.468758	-1.700103	0.558514
C48	C	-0.515673	-1.700125	0.558475
C49	C	-0.539134	-1.787566	0.471052
O50	O	-0.589893	-1.625878	0.632709
O51	O	-0.589944	-1.949337	0.309299
C52	C	-0.801870	-1.875074	0.383488
C53	C	-0.825321	-1.787657	0.470855
C54	C	-0.801857	-1.700226	0.558256
C55	C	-0.872239	-1.787677	0.470830
C56	C	-0.895703	-1.875108	0.383429
C57	C	-0.872249	-1.962519	0.296053
C58	C	-0.825334	-1.962505	0.296087
C59	C	-0.825311	-1.612815	0.645632
C60	C	-0.872226	-1.612837	0.645592
C61	C	-0.895690	-1.700268	0.558191
C62	C	-0.161463	-1.787520	0.471074
C63	C	-0.111526	-1.787779	0.470704
C64	C	-0.286487	-1.762126	0.800953
C65	C	-0.290057	-1.751398	0.942033
C66	C	-0.286556	-1.118551	0.445823
C67	C	-0.290116	-1.259637	0.435005
C68	C	-0.269864	-1.812958	0.140071
C69	C	-0.266317	-1.823817	-0.001019
H70	H	-0.313232	-1.318804	0.364900
H71	H	-0.534768	-1.628948	0.629632
H72	H	-0.243264	-1.894032	0.939808
H73	H	-0.665500	-2.033651	0.225037
Cl74	Cl	-0.439251	-1.590192	0.668380
H75	H	-0.243171	-1.257428	0.577310
Cl76	Cl	-0.439286	-1.984872	0.273889
H77	H	-0.534779	-1.946174	0.312500
Cl78	Cl	-0.655060	-1.502806	0.755591
Cl79	Cl	-0.760994	-2.072420	0.186278
H80	H	-0.313115	-1.681189	1.001213
H81	H	-1.022063	-1.946369	0.312204
Cl82	Cl	-1.117578	-1.985108	0.273444
H83	H	-1.107152	-1.629170	0.629266
H84	H	-1.022044	-1.629120	0.629309
Cl85	Cl	-0.760945	-1.502849	0.755546
H86	H	-0.806245	-2.033695	0.224938
H87	H	-0.891362	-2.033712	0.224892
H88	H	-0.891316	-1.541646	0.716754
H89	H	-0.806211	-1.541618	0.716807
