data_functionalizedCrystal
_audit_creation_method	'MofGen! by Chris Wilmer'
_symmetry_space_group_name_H-M	'P1'
_symmetry_Int_Tables_number	1
_symmetry_cell_setting	triclinic
loop_
_symmetry_equiv_pos_as_xyz
  x,y,z
_cell_length_a	16.109295
_cell_length_b	13.596369
_cell_length_c	14.519731
_cell_angle_alpha	90.006971
_cell_angle_beta	96.425980
_cell_angle_gamma	89.997603
loop_
_atom_site_label
_atom_site_type_symbol
_atom_site_fract_x
_atom_site_fract_y
_atom_site_fract_z
O1	O	-1.103349	0.081727	0.118517
O2	O	-0.770016	0.415060	0.451850
O3	O	-0.436682	0.748393	0.785183
O4	O	-0.861313	0.081744	0.133274
O5	O	-0.527980	0.415077	0.466607
O6	O	-0.194646	0.748410	0.799941
O7	O	-0.988739	0.081726	-0.008356
O8	O	-0.655406	0.415059	0.324978
O9	O	-0.322072	0.748392	0.658311
O10	O	-0.975923	0.081744	0.260146
O11	O	-0.642590	0.415078	0.593480
O12	O	-0.309256	0.748411	0.926813
O13	O	-0.988726	-0.081857	-0.008363
O14	O	-0.655393	0.251476	0.324970
O15	O	-0.322060	0.584809	0.658304
O16	O	-0.861300	-0.081839	0.133267
O17	O	-0.527967	0.251494	0.466600
O18	O	-0.194634	0.584827	0.799933
O19	O	-1.103336	-0.081856	0.118509
O20	O	-0.770003	0.251477	0.451843
O21	O	-0.436670	0.584810	0.785176
Zn22	Zn	-0.982316	-0.107820	0.125887
Zn23	Zn	-0.648983	0.225513	0.459220
Zn24	Zn	-0.315650	0.558847	0.792553
Zn25	Zn	-0.982333	0.107707	0.125897
Zn26	Zn	-0.649000	0.441041	0.459230
Zn27	Zn	-0.315666	0.774374	0.792563
O28	O	-0.975910	-0.081838	0.260139
O29	O	-0.642577	0.251495	0.593472
O30	O	-0.309244	0.584828	0.926806
C31	C	-0.830331	-0.000046	0.132674
C32	C	-0.496997	0.333287	0.466007
C33	C	-0.163664	0.666621	0.799340
C34	C	-0.738032	-0.000040	0.130884
C35	C	-0.404698	0.333294	0.464217
C36	C	-0.071365	0.666627	0.797551
C37	C	-0.515903	-0.000044	0.210762
C38	C	-0.182569	0.333289	0.544095
C39	C	0.150764	0.666622	0.877429
C40	C	-0.429179	-0.000051	0.209073
C41	C	-0.095846	0.333283	0.542407
C42	C	0.237488	0.666616	0.875740
C43	C	-0.448751	-0.000058	0.041037
C44	C	-0.115417	0.333275	0.374371
C45	C	0.217916	0.666608	0.707704
C46	C	-0.535473	-0.000059	0.042727
C47	C	-0.202139	0.333274	0.376060
C48	C	0.131194	0.666607	0.709394
C49	C	-0.569046	-0.000047	0.127592
C50	C	-0.235713	0.333286	0.460925
C51	C	0.097621	0.666619	0.794259
C52	C	-0.395600	-0.000052	0.124214
C53	C	-0.062267	0.333281	0.457547
C54	C	0.271066	0.666614	0.790880
C55	C	-0.301571	-0.000059	0.122382
C56	C	0.031762	0.333274	0.455716
C57	C	0.365096	0.666608	0.789049
C58	C	-0.663082	-0.000043	0.129424
C59	C	-0.329748	0.333291	0.462757
C60	C	0.003585	0.666624	0.796091
N61	N	-0.982311	-0.254912	0.125879
N62	N	-0.648978	0.078421	0.459213
N63	N	-0.315644	0.411755	0.792546
C64	C	-0.982332	-0.656203	0.125898
C65	C	-0.648999	-0.322870	0.459231
C66	C	-0.315665	0.010464	0.792564
C67	C	-0.982324	-0.544552	0.125896
C68	C	-0.648990	-0.211218	0.459229
C69	C	-0.315657	0.122115	0.792562
C70	C	-0.982322	-0.455561	0.125889
C71	C	-0.648988	-0.122228	0.459223
C72	C	-0.315655	0.211106	0.792556
C73	C	-0.982313	-0.343903	0.125886
C74	C	-0.648979	-0.010569	0.459219
C75	C	-0.315646	0.322764	0.792553
C76	C	-0.134318	-0.000064	0.119115
C77	C	0.199015	0.333270	0.452449
C78	C	0.532349	0.666603	0.785782
C79	C	-0.226615	-0.000060	0.120922
C80	C	0.106719	0.333273	0.454255
C81	C	0.440052	0.666607	0.787588
C82	C	-0.988132	-0.000066	-0.042717
C83	C	-0.654799	0.333267	0.290616
C84	C	-0.321465	0.666601	0.623949
C85	C	-0.986333	-0.000066	-0.145094
C86	C	-0.652999	0.333267	0.188240
C87	C	-0.319666	0.666600	0.521573
N88	N	-0.982345	0.254799	0.125897
N89	N	-0.649012	0.588133	0.459230
N90	N	-0.315678	0.921466	0.792563
C91	C	-0.984870	-0.000064	-0.228235
C92	C	-0.651537	0.333269	0.105099
C93	C	-0.318204	0.666603	0.438432
C94	C	-0.983043	-0.000056	-0.332540
C95	C	-0.649710	0.333277	0.000794
C96	C	-0.316377	0.666610	0.334127
C97	C	-0.981593	-0.000050	-0.415675
C98	C	-0.648260	0.333283	-0.082342
C99	C	-0.314927	0.666617	0.250991
C100	C	-0.979767	-0.000044	-0.519987
C101	C	-0.646433	0.333289	-0.186654
C102	C	-0.313100	0.666622	0.146680
C103	C	-0.976517	-0.000045	0.294501
C104	C	-0.643184	0.333289	0.627834
C105	C	-0.309850	0.666622	0.961167
C106	C	-0.978317	-0.000038	0.396877
C107	C	-0.644983	0.333296	0.730210
C108	C	-0.311650	0.666629	1.063544
H109	H	-0.385912	-0.000050	0.276799
H110	H	-0.052579	0.333283	0.610132
H111	H	0.280754	0.666616	0.943465
C112	C	-0.411817	-0.000059	-0.052306
C113	C	-0.078483	0.333275	0.281027
C114	C	0.254850	0.666608	0.614361
H115	H	-0.352557	-0.000047	-0.041402
H116	H	-0.019223	0.333286	0.291931
H117	H	0.314110	0.666620	0.625265
H118	H	-0.430046	-0.057103	-0.086558
H119	H	-0.096713	0.276230	0.246775
H120	H	0.236621	0.609563	0.580108
H121	H	-0.430054	0.056994	-0.086541
H122	H	-0.096721	0.390327	0.246793
H123	H	0.236613	0.723661	0.580126
C124	C	-0.593938	-0.000061	-0.048762
C125	C	-0.260605	0.333272	0.284572
C126	C	0.072729	0.666605	0.617905
H127	H	-0.650394	-0.000071	-0.035599
H128	H	-0.317061	0.333262	0.297734
H129	H	0.016272	0.666596	0.631068
H130	H	-0.583752	0.056981	-0.083558
H131	H	-0.250419	0.390315	0.249775
H132	H	0.082915	0.723648	0.583108
H133	H	-0.583745	-0.057116	-0.083562
H134	H	-0.250412	0.276218	0.249772
H135	H	0.082922	0.609551	0.583105
C136	C	-0.552831	-0.000042	0.304109
C137	C	-0.219498	0.333292	0.637442
C138	C	0.113835	0.666625	0.970775
H139	H	-0.508757	-0.000050	0.353399
H140	H	-0.175424	0.333283	0.686732
H141	H	0.157910	0.666617	1.020065
H142	H	-0.586257	0.057002	0.308269
H143	H	-0.252923	0.390335	0.641602
H144	H	0.080410	0.723669	0.974936
H145	H	-0.586251	-0.057095	0.308254
H146	H	-0.252918	0.276238	0.641587
H147	H	0.080415	0.609572	0.974920
