data_functionalizedCrystal
_audit_creation_method	'MofGen! by Chris Wilmer'
_symmetry_space_group_name_H-M	'P1'
_symmetry_Int_Tables_number	1
_symmetry_cell_setting	triclinic
loop_
_symmetry_equiv_pos_as_xyz
  x,y,z
_cell_length_a	19.121063
_cell_length_b	17.638336
_cell_length_c	17.640968
_cell_angle_alpha	65.689241
_cell_angle_beta	81.648500
_cell_angle_gamma	81.674337
loop_
_atom_site_label
_atom_site_type_symbol
_atom_site_fract_x
_atom_site_fract_y
_atom_site_fract_z
Zn1	Zn	-0.388313	1.338582	-0.735764
Zn2	Zn	0.111687	1.838582	-0.235764
Zn3	Zn	-0.523556	1.305199	-0.603323
Zn4	Zn	-0.023556	1.805199	-0.103323
Zn5	Zn	-0.388276	1.172903	-0.570148
Zn6	Zn	0.111724	1.672903	-0.070148
Zn7	Zn	-0.484544	1.196871	-0.711728
Zn8	Zn	0.015456	1.696871	-0.211728
O9	O	-0.446172	1.253389	-0.655241
O10	O	0.053828	1.753389	-0.155241
O11	O	-0.422595	1.448827	-0.742138
O12	O	0.077405	1.948827	-0.242138
O13	O	-0.521922	1.263648	-0.484243
O14	O	-0.021922	1.763648	0.015757
O15	O	-0.291393	1.198821	-0.588292
O16	O	0.208607	1.698821	-0.088292
O17	O	-0.521958	1.424300	-0.644834
O18	O	-0.021958	1.924300	-0.144834
O19	O	-0.291420	1.320545	-0.709970
O20	O	0.208580	1.820545	-0.209970
O21	O	-0.422533	1.166450	-0.459869
O22	O	0.077467	1.666450	0.040131
O23	O	-0.384704	1.061409	-0.564986
O24	O	0.115296	1.561409	-0.064986
O25	O	-0.455468	1.239672	-0.829596
O26	O	0.044532	1.739672	-0.329596
O27	O	-0.455432	1.079019	-0.669005
O28	O	0.044568	1.579019	-0.169005
O29	O	-0.384767	1.343786	-0.847255
O30	O	0.115233	1.843786	-0.347255
O31	O	-0.615270	1.286889	-0.621528
O32	O	-0.115270	1.786889	-0.121528
O33	O	-0.586608	1.207301	-0.701173
O34	O	-0.086608	1.707301	-0.201173
C35	C	-0.415831	1.040481	-0.610788
C36	C	0.084169	1.540481	-0.110788
C37	C	-0.402865	0.949401	-0.591791
C38	C	0.097135	1.449401	-0.091791
C39	C	-0.347687	0.811857	-0.510936
C40	C	0.152313	1.311857	-0.010936
C41	C	-0.359875	0.897441	-0.528794
C42	C	0.140125	1.397441	-0.028794
C43	C	-0.433689	0.915790	-0.636953
C44	C	0.066311	1.415790	-0.136953
C45	C	-0.421510	0.830205	-0.619102
C46	C	0.078490	1.330205	-0.119102
C47	C	-0.378508	0.778245	-0.556094
C48	C	0.121492	1.278245	-0.056094
C49	C	-0.452331	0.796594	-0.664259
C50	C	0.047669	1.296594	-0.164259
C51	C	-0.440151	0.711017	-0.646413
C52	C	0.059849	1.211017	-0.146413
C53	C	-0.397149	0.659051	-0.583409
C54	C	0.102851	1.159051	-0.083409
C55	C	-0.366327	0.692668	-0.538247
C56	C	0.133673	1.192668	-0.038247
C57	C	-0.495329	0.848556	-0.727272
C58	C	0.004671	1.348556	-0.227272
C59	C	-0.526151	0.814944	-0.772429
C60	C	-0.026151	1.314944	-0.272429
C61	C	-0.513974	0.729365	-0.754578
C62	C	-0.013974	1.229365	-0.254578
C63	C	-0.470972	0.677400	-0.691575
C64	C	0.029028	1.177400	-0.191575
C65	C	-0.544795	0.695748	-0.799740
C66	C	-0.044795	1.195748	-0.299740
C67	C	-0.532615	0.610172	-0.781894
C68	C	-0.032615	1.110172	-0.281894
C69	C	-0.458791	0.591823	-0.673728
C70	C	0.041209	1.091823	-0.173728
C71	C	-0.626061	1.246099	-0.662365
C72	C	-0.126061	1.746099	-0.162365
C73	C	-0.703025	1.243062	-0.665455
C74	C	-0.203025	1.743062	-0.165455
C75	C	-0.754082	1.283122	-0.625492
C76	C	-0.254082	1.783122	-0.125492
C77	C	-0.826397	1.280270	-0.628405
C78	C	-0.326397	1.780270	-0.128405
C79	C	-0.847654	1.237354	-0.671276
C80	C	-0.347654	1.737354	-0.171276
C81	C	-0.796591	1.197293	-0.711244
C82	C	-0.296591	1.697293	-0.211244
C83	C	-0.724277	1.200150	-0.708336
C84	C	-0.224277	1.700150	-0.208336
C85	C	-1.065248	1.226658	-0.682133
C86	C	-0.565248	1.726658	-0.182133
C87	C	-1.137568	1.223803	-0.685036
C88	C	-0.637568	1.723803	-0.185036
C89	C	-1.167369	1.306781	-0.602198
C90	C	-0.667369	1.806781	-0.102198
C91	C	-1.095053	1.309630	-0.599289
C92	C	-0.595053	1.809630	-0.099289
C93	C	-1.043996	1.269573	-0.639261
C94	C	-0.543996	1.769573	-0.139261
C95	C	-0.921571	1.234437	-0.674252
C96	C	-0.421571	1.734437	-0.174252
C97	C	-0.970081	1.272496	-0.636290
C98	C	-0.470081	1.772496	-0.136290
C99	C	-0.265582	1.260733	-0.648111
C100	C	0.234418	1.760733	-0.148111
C101	C	-0.188625	1.263862	-0.645073
C102	C	0.311375	1.763862	-0.145073
C103	C	-0.415770	1.298126	-0.868992
C104	C	0.084230	1.798126	-0.368992
C105	C	-0.402814	1.317191	-0.960080
C106	C	0.097186	1.817191	-0.460080
C107	C	-0.476632	1.467128	-0.699868
C108	C	0.023368	1.967128	-0.199868
C109	C	-0.489612	1.558211	-0.718885
C110	C	0.010388	2.058211	-0.218885
C111	C	-0.544265	1.108888	-1.213694
C112	C	-0.044265	1.608888	-0.713694
C113	C	-0.532084	1.126820	-1.299288
C114	C	-0.032084	1.626820	-0.799288
C115	C	-0.458470	1.235225	-1.317664
C116	C	0.041530	1.735225	-0.817664
C117	C	-0.470641	1.217300	-1.232069
C118	C	0.029359	1.717300	-0.732069
C119	C	-0.513540	1.154131	-1.180090
C120	C	-0.013540	1.654131	-0.680090
C121	C	-0.439916	1.262543	-1.198466
C122	C	0.060084	1.762543	-0.698466
C123	C	-0.452090	1.244621	-1.112879
C124	C	0.047910	1.744621	-0.612879
C125	C	-0.494988	1.181458	-1.060895
C126	C	0.005012	1.681458	-0.560895
C127	C	-0.525714	1.136210	-1.094503
C128	C	-0.025714	1.636210	-0.594503
C129	C	-0.397022	1.325715	-1.250447
C130	C	0.102978	1.825715	-0.750447
C131	C	-0.366297	1.370958	-1.216843
C132	C	0.133703	1.870958	-0.716843
C133	C	-0.378466	1.353033	-1.131254
C134	C	0.121534	1.853033	-0.631254
C135	C	-0.421365	1.289869	-1.079270
C136	C	0.078635	1.789869	-0.579270
C137	C	-0.347741	1.398280	-1.097646
C138	C	0.152259	1.898280	-0.597646
C139	C	-0.359915	1.380359	-1.012059
C140	C	0.140085	1.880359	-0.512059
C141	C	-0.433539	1.271948	-0.993683
C142	C	0.066461	1.771948	-0.493683
C143	C	-0.476414	1.208875	-0.442329
C144	C	0.023586	1.708875	0.057671
C145	C	-0.489197	1.189977	-0.351267
C146	C	0.010803	1.689977	0.148733
H147	H	-0.423774	0.549514	-0.622420
H148	H	0.076226	1.049514	-0.122420
Cl149	Cl	-0.948300	1.180485	-0.728145
Cl150	Cl	-0.448300	1.680485	-0.228145
Cl151	Cl	-0.890581	1.330637	-0.578166
Cl152	Cl	-0.390581	1.830637	-0.078166
Cl153	Cl	-1.068337	1.363598	-0.545406
Cl154	Cl	-0.568337	1.863598	-0.045406
H155	H	-0.468699	0.958108	-0.688256
H156	H	0.031301	1.458108	-0.188256
Cl157	Cl	-1.231558	1.357142	-0.551958
Cl158	Cl	-0.731558	1.857142	-0.051958
Cl159	Cl	-1.001072	1.176298	-0.732382
Cl160	Cl	-0.501072	1.676298	-0.232382
Cl161	Cl	-1.164288	1.169834	-0.738923
Cl162	Cl	-0.664288	1.669834	-0.238923
Cl163	Cl	-0.823313	1.143347	-0.765146
Cl164	Cl	-0.323313	1.643347	-0.265146
H165	H	-0.952772	1.307442	-0.601388
H166	H	-0.452772	1.807442	-0.101388
H167	H	-0.682706	1.167530	-0.740880
H168	H	-0.182706	1.667530	-0.240880
H169	H	-0.504903	1.166871	-0.991206
H170	H	-0.004903	1.666871	-0.491206
Cl171	Cl	-0.404544	1.314636	-1.383016
Cl172	Cl	0.095456	1.814636	-0.883016
H173	H	-0.387228	0.589371	-0.568883
H174	H	0.112772	1.089371	-0.068883
H175	H	-0.334766	0.924805	-0.492023
H176	H	0.165234	1.424805	0.007977
Cl177	Cl	-0.312371	1.450368	-1.282195
Cl178	Cl	0.187629	1.950368	-0.782195
Cl179	Cl	-0.510645	0.956140	-0.749705
Cl180	Cl	-0.010645	1.456140	-0.249705
Cl181	Cl	-0.312278	0.627337	-0.459023
Cl182	Cl	0.187722	1.127337	0.040977
H183	H	-0.468452	1.220491	-0.951354
H184	H	0.031548	1.720491	-0.451354
Cl185	Cl	-0.580214	0.880271	-0.851631
Cl186	Cl	-0.080214	1.380271	-0.351631
H187	H	-0.312670	0.769547	-0.459628
H188	H	0.187330	1.269547	0.040372
H189	H	-0.579802	0.738068	-0.851047
H190	H	-0.079802	1.238068	-0.351047
Cl191	Cl	-0.381721	1.348247	-1.358044
Cl192	Cl	0.118279	1.848247	-0.858044
H193	H	-0.557710	0.582805	-0.818668
H194	H	-0.057710	1.082805	-0.318668
H195	H	-0.736782	1.318064	-0.590578
H196	H	-0.236782	1.818064	-0.090578
Cl197	Cl	-0.570713	1.069933	-1.341528
Cl198	Cl	-0.070713	1.569933	-0.841528
Cl199	Cl	-0.579637	1.056790	-1.029150
Cl200	Cl	-0.079637	1.556790	-0.529150
H201	H	-0.579178	1.057431	-1.171365
H202	H	-0.079178	1.557431	-0.671365
H203	H	-0.312819	1.449717	-1.139980
H204	H	0.187181	1.949717	-0.639980
Cl205	Cl	-0.321292	1.437239	-0.969811
Cl206	Cl	0.178708	1.937239	-0.469811
