data_functionalizedCrystal
_audit_creation_method	'MofGen! by Chris Wilmer'
_symmetry_space_group_name_H-M	'P1'
_symmetry_Int_Tables_number	1
_symmetry_cell_setting	triclinic
loop_
_symmetry_equiv_pos_as_xyz
  x,y,z
_cell_length_a	12.759401
_cell_length_b	16.120484
_cell_length_c	12.759393
_cell_angle_alpha	92.864008
_cell_angle_beta	89.979062
_cell_angle_gamma	92.926992
loop_
_atom_site_label
_atom_site_type_symbol
_atom_site_fract_x
_atom_site_fract_y
_atom_site_fract_z
Zn1	Zn	1.584985	-0.331832	-0.615183
Zn2	Zn	1.575933	-0.471268	-0.448395
Zn3	Zn	1.409280	-0.331877	-0.439521
Zn4	Zn	1.400336	-0.471209	-0.624029
O5	O	1.492634	-0.401546	-0.531782
O6	O	1.730804	-0.350334	-0.593070
O7	O	1.553781	-0.452820	-0.300200
O8	O	1.440119	-0.215205	-0.455406
O9	O	1.724154	-0.452777	-0.470532
O10	O	1.569208	-0.215173	-0.584465
O11	O	1.431342	-0.350410	-0.293680
O12	O	1.261073	-0.350354	-0.463984
O13	O	1.424875	-0.452678	-0.769874
O14	O	1.254502	-0.452721	-0.599541
O15	O	1.560535	-0.350278	-0.763375
O16	O	1.545108	-0.587925	-0.479110
O17	O	1.416098	-0.587883	-0.608147
C18	C	1.219667	-0.401536	-0.531760
C19	C	1.102889	-0.401552	-0.531777
C20	C	1.044628	-0.454936	-0.602261
C21	C	0.934904	-0.454939	-0.602282
C22	C	0.941712	-0.348172	-0.461326
C23	C	1.051434	-0.348166	-0.461311
C24	C	0.783089	-0.484854	-0.728051
C25	C	0.724823	-0.538250	-0.798527
C26	C	0.755203	-0.619612	-0.819663
C27	C	0.843846	-0.647593	-0.770310
C28	C	0.902106	-0.594200	-0.699827
C29	C	0.871728	-0.512828	-0.678709
C30	C	1.203250	-0.318259	-0.335542
C31	C	1.261512	-0.264871	-0.265053
C32	C	1.231134	-0.183508	-0.243905
C33	C	1.142488	-0.155530	-0.293240
C34	C	1.084226	-0.208919	-0.363729
C35	C	1.114611	-0.290280	-0.384878
C36	C	1.478679	-0.618154	-0.545574
C37	C	1.472805	-0.710820	-0.551509
C38	C	1.462088	-0.880481	-0.562368
C39	C	1.523367	-0.921772	-0.501213
C40	C	1.517404	-1.016177	-0.507255
C41	C	1.468050	-0.786067	-0.556327
C42	C	1.766666	-0.401557	-0.531804
C43	C	1.883442	-0.401562	-0.531814
C44	C	1.492717	-0.401466	-0.805810
C45	C	1.492753	-0.401432	-0.922585
C46	C	1.506671	-0.184093	-0.517959
C47	C	1.512653	-0.091427	-0.512068
C48	C	1.563397	-0.348104	-0.974064
C49	C	1.563417	-0.348068	-1.083786
C50	C	1.422146	-0.454696	-1.090540
C51	C	1.422122	-0.454727	-0.980820
C52	C	1.607337	-0.249705	-1.227491
C53	C	1.677997	-0.196384	-1.278974
C54	C	1.781330	-0.183600	-1.242567
C55	C	1.814023	-0.224149	-1.154680
C56	C	1.743368	-0.277476	-1.103203
C57	C	1.640022	-0.290244	-1.139607
C58	C	1.378212	-0.553091	-0.837113
C59	C	1.307561	-0.606423	-0.785634
C60	C	1.204226	-0.619216	-0.822039
C61	C	1.171536	-0.578681	-0.909931
C62	C	1.242187	-0.525350	-0.961410
C63	C	1.345521	-0.512556	-0.924997
C64	C	1.492614	-0.401566	-0.258816
C65	C	1.492797	-0.401365	-0.142027
H66	H	0.868566	-0.713849	-0.787517
H67	H	0.974276	-0.616982	-0.659644
H68	H	1.651369	-0.163370	-1.350532
N69	N	0.886212	-0.290615	-0.385300
H70	H	0.807862	-0.298728	-0.395993
H71	H	0.904538	-0.303540	-0.311069
N72	N	0.988619	-0.178741	-0.416949
H73	H	0.956321	-0.224909	-0.464810
H74	H	0.935783	-0.161616	-0.362090
N75	N	1.598789	-0.874687	-0.425845
H76	H	1.638855	-0.915398	-0.385872
H77	H	1.649629	-0.838493	-0.466384
H78	H	1.523194	-0.260103	-1.257136
H79	H	1.405150	-0.916029	-0.619256
N80	N	1.639572	-0.290624	-0.911250
H81	H	1.684326	-0.256835	-0.960516
H82	H	1.599289	-0.252053	-0.863266
N83	N	1.778615	-0.321212	-1.008419
H84	H	1.854802	-0.305027	-0.993167
H85	H	1.734490	-0.304515	-0.945872
H86	H	1.898170	-0.213741	-1.125050
H87	H	1.838862	-0.140184	-1.284492
N88	N	1.109709	-0.067776	-0.270431
H89	H	1.160069	-0.038200	-0.218293
H90	H	1.110565	-0.037154	-0.337599
N91	N	1.345953	-0.512163	-1.153350
H92	H	1.356683	-0.504049	-1.230670
H93	H	1.358437	-0.571716	-1.137967
N94	N	0.692358	-0.677208	-0.895669
H95	H	0.631595	-0.647139	-0.923721
H96	H	0.738794	-0.695450	-0.955744
N97	N	1.060084	-0.592468	-0.949213
H98	H	1.045516	-0.653395	-0.969103
H99	H	1.010029	-0.574508	-0.892112
H100	H	1.215562	-0.492345	-1.032977
N101	N	1.489667	-0.539285	-0.797838
H102	H	1.539796	-0.557188	-0.854906
H103	H	1.504124	-0.478352	-0.777931
H104	H	1.146707	-0.662650	-0.780121
H105	H	1.334190	-0.639435	-0.714076
H106	H	0.652651	-0.515460	-0.838710
N107	N	1.100128	-0.512513	-0.678261
H108	H	1.046566	-0.546330	-0.722916
H109	H	1.147861	-0.478621	-0.724788
N110	N	1.236023	-0.406019	-0.358338
H111	H	1.177468	-0.446681	-0.338264
H112	H	1.251560	-0.414460	-0.435646
H113	H	0.758353	-0.418600	-0.710858
H114	H	1.278576	-0.140042	-0.186498
H115	H	1.333692	-0.287658	-0.224881
