data_functionalizedCrystal
_audit_creation_method	'MofGen! by Chris Wilmer'
_symmetry_space_group_name_H-M	'P1'
_symmetry_Int_Tables_number	1
_symmetry_cell_setting	triclinic
loop_
_symmetry_equiv_pos_as_xyz
  x,y,z
_cell_length_a	17.077404
_cell_length_b	12.759400
_cell_length_c	17.077396
_cell_angle_alpha	90.024901
_cell_angle_beta	90.019501
_cell_angle_gamma	90.014870
loop_
_atom_site_label
_atom_site_type_symbol
_atom_site_fract_x
_atom_site_fract_y
_atom_site_fract_z
Zn1	Zn	1.200100	-0.418260	0.443862
Zn2	Zn	1.200026	-0.593961	0.312604
Zn3	Zn	1.068831	-0.418297	0.312610
Zn4	Zn	1.068818	-0.593898	0.443828
O5	O	1.134444	-0.506104	0.378226
O6	O	1.309937	-0.441578	0.426463
O7	O	1.182597	-0.570700	0.202758
O8	O	1.086281	-0.271271	0.330038
O9	O	1.309882	-0.570664	0.330028
O10	O	1.182723	-0.271244	0.426468
O11	O	1.086209	-0.441641	0.202762
O12	O	0.958983	-0.441580	0.330005
O13	O	1.086258	-0.570558	0.553680
O14	O	0.958973	-0.570594	0.426410
O15	O	1.182710	-0.441517	0.553705
O16	O	1.182584	-0.740973	0.329995
O17	O	1.086187	-0.740927	0.426404
C18	C	0.930496	-0.506085	0.378205
C19	C	0.843246	-0.506102	0.378214
C20	C	0.802271	-0.573381	0.428332
C21	C	0.720291	-0.573383	0.428344
C22	C	0.679287	-0.506111	0.378234
C23	C	0.720267	-0.438825	0.328115
C24	C	0.802246	-0.438818	0.328107
C25	C	0.549397	-0.438846	0.328133
C26	C	0.467412	-0.438854	0.328140
C27	C	0.467442	-0.573410	0.428371
C28	C	0.549421	-0.573404	0.428363
C29	C	0.590396	-0.506119	0.378242
C30	C	1.134397	-0.779071	0.378212
C31	C	1.134449	-0.895848	0.378233
C32	C	1.184645	-0.950606	0.428487
C33	C	1.184689	-1.060330	0.428508
C34	C	1.084340	-1.060528	0.328014
C35	C	1.084292	-0.950806	0.327998
C36	C	1.212748	-1.210169	0.521132
C37	C	1.262956	-1.264931	0.571379
C38	C	1.339527	-1.229224	0.583495
C39	C	1.365906	-1.138757	0.545352
C40	C	1.315703	-1.084001	0.495099
C41	C	1.239120	-1.119706	0.482999
C42	C	1.056241	-0.800965	0.235372
C43	C	1.006041	-0.746207	0.185115
C44	C	0.929468	-0.781912	0.172991
C45	C	0.903092	-0.872382	0.211120
C46	C	0.953292	-0.927140	0.261377
C47	C	1.029864	-0.891428	0.273502
C48	C	1.339188	-0.506124	0.378248
C49	C	1.426438	-0.506132	0.378258
C50	C	1.134491	-0.506026	0.582971
C51	C	1.134511	-0.505993	0.670220
C52	C	1.134512	-0.232071	0.378257
C53	C	1.134541	-0.115294	0.378271
C54	C	1.134442	-0.506105	0.174278
C55	C	1.134573	-0.505842	0.087029
C56	C	1.184736	-0.438796	0.711225
C57	C	1.184745	-0.438761	0.793205
C58	C	1.134534	-0.505930	0.834180
C59	C	1.084304	-0.573130	0.793170
C60	C	1.084291	-0.573159	0.711191
C61	C	1.084335	-0.573066	0.964040
C62	C	1.084349	-0.573039	1.046025
C63	C	1.184790	-0.438669	1.046055
C64	C	1.184777	-0.438698	0.964076
C65	C	1.134548	-0.505900	0.923071
H66	H	0.686875	-0.384046	0.287318
F67	F	1.238248	-0.367149	1.089695
H68	H	1.225668	-0.384010	0.930716
F69	F	0.593003	-0.367232	0.274790
F70	F	0.845854	-0.367209	0.274766
H71	H	0.434029	-0.384062	0.287346
F72	F	1.238024	-0.892119	0.481953
F73	F	1.030961	-1.119028	0.274555
F74	F	0.423833	-0.645009	0.481723
H75	H	0.888596	-0.737318	0.132065
H76	H	0.835651	-0.628165	0.469134
H77	H	1.027525	-0.672544	0.154064
F78	F	1.137741	-0.762959	0.248271
H79	H	1.043418	-0.627815	0.826538
F80	F	1.030902	-0.644518	1.089631
H81	H	1.043421	-0.627773	0.930656
F82	F	1.238183	-0.367311	0.667624
F83	F	1.392961	-1.287510	0.636971
H84	H	0.686933	-0.628169	0.469154
F85	F	0.593059	-0.645009	0.481690
F86	F	0.821596	-0.910391	0.198213
H87	H	1.225645	-0.384045	0.826588
H88	H	1.337181	-1.010346	0.464043
H89	H	1.428262	-1.109698	0.555214
F90	F	1.131246	-1.248168	0.508253
H91	H	1.043385	-0.627867	0.677806
F92	F	0.925217	-1.023426	0.301961
H93	H	1.241470	-1.338590	0.602435
