data_functionalizedCrystal
_audit_creation_method	'MofGen! by Chris Wilmer'
_symmetry_space_group_name_H-M	'P1'
_symmetry_Int_Tables_number	1
_symmetry_cell_setting	triclinic
loop_
_symmetry_equiv_pos_as_xyz
  x,y,z
_cell_length_a	19.121102
_cell_length_b	19.121063
_cell_length_c	17.640968
_cell_angle_alpha	81.648500
_cell_angle_beta	75.906509
_cell_angle_gamma	90.126902
loop_
_atom_site_label
_atom_site_type_symbol
_atom_site_fract_x
_atom_site_fract_y
_atom_site_fract_z
Zn1	Zn	1.155930	-0.236710	-0.513729
Zn2	Zn	1.127102	-0.375734	-0.386826
Zn3	Zn	1.012858	-0.255438	-0.375595
Zn4	Zn	1.033556	-0.348991	-0.513200
O5	O	1.082361	-0.304218	-0.447337
O6	O	1.251131	-0.258506	-0.501817
O7	O	1.091220	-0.378806	-0.274638
O8	O	1.035239	-0.155619	-0.389440
O9	O	1.229951	-0.360647	-0.408581
O10	O	1.140353	-0.141860	-0.490927
O11	O	1.007286	-0.290425	-0.266387
O12	O	0.916578	-0.264493	-0.388927
O13	O	1.070516	-0.315067	-0.623968
O14	O	0.931785	-0.333227	-0.490025
O15	O	1.160423	-0.232575	-0.624357
O16	O	1.111290	-0.469521	-0.408068
O17	O	1.042562	-0.449873	-0.500915
C18	C	1.076066	-0.484933	-0.455671
C19	C	1.073443	-0.562241	-0.459265
C20	C	0.898505	-0.297990	-0.438200
C21	C	0.819853	-0.295340	-0.434311
C22	C	1.108037	-0.608761	-0.412657
C23	C	1.105575	-0.681399	-0.416043
C24	C	1.068514	-0.707516	-0.466033
C25	C	1.033920	-0.660990	-0.512646
C26	C	1.036387	-0.588353	-0.509264
C27	C	1.059278	-0.926321	-0.478664
C28	C	1.056812	-0.998964	-0.482041
C29	C	1.128468	-1.019368	-0.385438
C30	C	1.130928	-0.946729	-0.382057
C31	C	1.096337	-0.900209	-0.428674
C32	C	1.065995	-0.781763	-0.469493
C33	C	1.098861	-0.825963	-0.425217
C34	C	0.790821	-0.329961	-0.485043
C35	C	0.716921	-0.327461	-0.481392
C36	C	0.672053	-0.290343	-0.427004
C37	C	0.701090	-0.255717	-0.376269
C38	C	0.774990	-0.258214	-0.379925
C39	C	0.448527	-0.281006	-0.413341
C40	C	0.374622	-0.278514	-0.409687
C41	C	0.390458	-0.350257	-0.514812
C42	C	0.464358	-0.352753	-0.518459
C43	C	0.493390	-0.318125	-0.467727
C44	C	0.596514	-0.287788	-0.423269
C45	C	0.568928	-0.320676	-0.471467
C46	C	1.266935	-0.310471	-0.456511
C47	C	1.345590	-0.313135	-0.460420
C48	C	1.120994	-0.268749	-0.653668
C49	C	1.137457	-0.253634	-0.741594
C50	C	1.088703	-0.122796	-0.438990
C51	C	1.091406	-0.045484	-0.435433
C52	C	0.957578	-0.418676	-1.029759
C53	C	0.973063	-0.404465	-1.112379
C54	C	1.066676	-0.318573	-1.112774
C55	C	1.051196	-0.332774	-1.030152
C56	C	0.996647	-0.382827	-0.988651
C57	C	1.090266	-0.296926	-0.989044
C58	C	1.074790	-0.311129	-0.906430
C59	C	1.020245	-0.361181	-0.864923
C60	C	0.981172	-0.397031	-0.906037
C61	C	1.144818	-0.246876	-1.030547
C62	C	1.183887	-0.211028	-0.989439
C63	C	1.168409	-0.225227	-0.906822
C64	C	1.113863	-0.275279	-0.865316
C65	C	1.207482	-0.189377	-0.865709
C66	C	1.192006	-0.203581	-0.783094
C67	C	1.098388	-0.289482	-0.782702
C68	C	1.043921	-0.339501	-0.241809
C69	C	1.027602	-0.354425	-0.153882
H70	H	1.133744	-0.719273	-0.378089
C71	C	1.016461	-1.027374	-0.536188
C72	C	0.961309	-1.075286	-0.491045
C73	C	0.924117	-1.101464	-0.540892
H74	H	1.048921	-1.050715	-0.573352
H75	H	0.996169	-0.989287	-0.563451
H76	H	0.981600	-1.113367	-0.463795
H77	H	0.928833	-1.051962	-0.453883
H78	H	0.903825	-1.063376	-0.568155
H79	H	0.956582	-1.124801	-0.578053
H80	H	0.886688	-1.133969	-0.510269
C81	C	1.025873	-0.810209	-0.523816
C82	C	1.073987	-0.844504	-0.578469
C83	C	1.037053	-0.870728	-0.628517
H84	H	1.005612	-0.772170	-0.551169
H85	H	0.988446	-0.842785	-0.493335
H86	H	1.111401	-0.811930	-0.608946
H87	H	1.094250	-0.882552	-0.551138
H88	H	0.999625	-0.903305	-0.598036
H89	H	1.016793	-0.832686	-0.655865
H90	H	1.069691	-0.894006	-0.665600
C91	C	1.171242	-0.918508	-0.327770
C92	C	1.201030	-0.974794	-0.287693
C93	C	1.238180	-0.948822	-0.237685
H94	H	1.138770	-0.895232	-0.290549
H95	H	1.208720	-0.885991	-0.358259
H96	H	1.163556	-1.007299	-0.257206
H97	H	1.233512	-0.998075	-0.324894
H98	H	1.275659	-0.916305	-0.268174
H99	H	1.205703	-0.925547	-0.200469
H100	H	1.258401	-0.987007	-0.210492
C101	C	1.243216	-0.156781	-1.034467
C102	C	1.308940	-0.177758	-1.018555
C103	C	1.363609	-0.127806	-1.060026
H104	H	1.232053	-0.111997	-1.018300
H105	H	1.246888	-0.153462	-1.089568
H106	H	1.305267	-0.181069	-0.963466
H107	H	1.320125	-0.222534	-1.034724
H108	H	1.367282	-0.124486	-1.115127
H109	H	1.352439	-0.083025	-1.043856
H110	H	1.408210	-0.142035	-1.049241
C111	C	0.993803	-0.689429	-0.566977
C112	C	1.041915	-0.723727	-0.621630
C113	C	1.004980	-0.749941	-0.671684
H114	H	0.973549	-0.651385	-0.594331
H115	H	0.956371	-0.722002	-0.536501
H116	H	1.079334	-0.691156	-0.652103
H117	H	1.062171	-0.761780	-0.594298
H118	H	0.967548	-0.782514	-0.641207
H119	H	0.984728	-0.711893	-0.699032
H120	H	1.037617	-0.773221	-0.708767
C121	C	1.234291	-0.164638	-0.738345
C122	C	1.186895	-0.126871	-0.686857
C123	C	1.225824	-0.091001	-0.645612
H124	H	1.268997	-0.132743	-0.774797
H125	H	1.258135	-0.197824	-0.708827
H126	H	1.163063	-0.093688	-0.716373
H127	H	1.152188	-0.158749	-0.650389
H128	H	1.249667	-0.124187	-0.616094
H129	H	1.260528	-0.059109	-0.682070
H130	H	1.193671	-0.065377	-0.610668
H131	H	1.111091	-0.277822	-1.146575
C132	C	1.161623	-0.231602	-1.120250
C133	C	1.182460	-0.293738	-1.151530
C134	C	1.197936	-0.279696	-1.234161
H135	H	1.199722	-0.196697	-1.139183
H136	H	1.119878	-0.214841	-1.136153
H137	H	1.224200	-0.310489	-1.135635
H138	H	1.144370	-0.328651	-1.132620
H139	H	1.156191	-0.262936	-1.250063
H140	H	1.236034	-0.244791	-1.253085
H141	H	1.212069	-0.321855	-1.255394
H142	H	1.156631	-1.057252	-0.347487
H143	H	0.941244	-0.433661	-1.145846
H144	H	0.913142	-0.459417	-0.995965
H145	H	0.827348	-0.360189	-0.529330
H146	H	1.251900	-0.148629	-0.899512
H147	H	1.008218	-0.550476	-0.547218
C148	C	1.148340	-0.580542	-0.358359
C149	C	1.178124	-0.636831	-0.318282
C150	C	1.215266	-0.610865	-0.268264
H151	H	1.115864	-0.557270	-0.321138
H152	H	1.185820	-0.548023	-0.388841
H153	H	1.140649	-0.669337	-0.287802
H154	H	1.210611	-0.660109	-0.355482
H155	H	1.252747	-0.578346	-0.298746
H156	H	1.182785	-0.587592	-0.231048
H157	H	1.235485	-0.649051	-0.241071
H158	H	1.031111	-0.888450	-0.516619
C159	C	0.685529	-0.365137	-0.536503
C160	C	0.740634	-0.398201	-0.584894
C161	C	0.711741	-0.432927	-0.635664
H162	H	0.664100	-0.331743	-0.568450
H163	H	0.649983	-0.399671	-0.506166
H164	H	0.776167	-0.363670	-0.615229
H165	H	0.762068	-0.431605	-0.552969
H166	H	0.676196	-0.467461	-0.605327
H167	H	0.690313	-0.399529	-0.667606
H168	H	0.749124	-0.455370	-0.668499
C169	C	0.512958	-0.393060	-0.577592
C170	C	0.471718	-0.422832	-0.621255
C171	C	0.516464	-0.459963	-0.675739
H172	H	0.535067	-0.429556	-0.550185
H173	H	0.549173	-0.361550	-0.612353
H174	H	0.435516	-0.454340	-0.586499
H175	H	0.449610	-0.386351	-0.648679
H176	H	0.552680	-0.428452	-0.710501
H177	H	0.538571	-0.496455	-0.648325
H178	H	0.488491	-0.480162	-0.705376
H179	H	0.366813	-0.378448	-0.556116
C180	C	0.326031	-0.238143	-0.350609
C181	C	0.367275	-0.208335	-0.306976
C182	C	0.322539	-0.171136	-0.252555
H183	H	0.289798	-0.269598	-0.315816
H184	H	0.303949	-0.201663	-0.378089
H185	H	0.389345	-0.244810	-0.279497
H186	H	0.403506	-0.176869	-0.341748
H187	H	0.300457	-0.134656	-0.280036
H188	H	0.286308	-0.202596	-0.217768
H189	H	0.350517	-0.150902	-0.222949
C190	C	0.480113	-0.243539	-0.358218
C191	C	0.511671	-0.293008	-0.311364
C192	C	0.540785	-0.258516	-0.260579
H193	H	0.442870	-0.221080	-0.325232
H194	H	0.515711	-0.209049	-0.388542
H195	H	0.476077	-0.327485	-0.281042
H196	H	0.548924	-0.315469	-0.344328
H197	H	0.576383	-0.224026	-0.290903
H198	H	0.503537	-0.236058	-0.227598
H199	H	0.562206	-0.292074	-0.228787
H200	H	1.129039	-0.804696	-0.384519
H201	H	0.664553	-0.225491	-0.331989
C202	C	0.806369	-0.220614	-0.324744
C203	C	0.751257	-0.187591	-0.276314
C204	C	0.780134	-0.152954	-0.225464
H205	H	0.841922	-0.186065	-0.354998
H206	H	0.827781	-0.254075	-0.292835
H207	H	0.729857	-0.154133	-0.308219
H208	H	0.715700	-0.222124	-0.246042
H209	H	0.801545	-0.186415	-0.193555
H210	H	0.815686	-0.118408	-0.255725
H211	H	0.742744	-0.130549	-0.192593
C212	C	1.039266	-0.343947	-0.737677
C213	C	1.056054	-0.409835	-0.761690
C214	C	1.001623	-0.460029	-0.720219
H215	H	0.994567	-0.329941	-0.748341
H216	H	1.035663	-0.347315	-0.682585
H217	H	1.059649	-0.406466	-0.816769
H218	H	1.100743	-0.423863	-0.751024
H219	H	0.998019	-0.463398	-0.665127
H220	H	0.956927	-0.446017	-0.730886
H221	H	1.013009	-0.504741	-0.736501
C222	C	0.921958	-0.451440	-0.861117
C223	C	0.891067	-0.479816	-0.914799
C224	C	0.836535	-0.529952	-0.873449
H225	H	0.885947	-0.429421	-0.826121
H226	H	0.941937	-0.488231	-0.831657
H227	H	0.871087	-0.443031	-0.944246
H228	H	0.927059	-0.501849	-0.949796
H229	H	0.856515	-0.566743	-0.843989
H230	H	0.800530	-0.507927	-0.838455
H231	H	0.815574	-0.549216	-0.909866
H232	H	0.605463	-0.350893	-0.515753
H233	H	0.559974	-0.257568	-0.378985
H234	H	1.007648	-0.372747	-0.797654
