data_functionalizedCrystal
_audit_creation_method	'MofGen! by Chris Wilmer'
_symmetry_space_group_name_H-M	'P1'
_symmetry_Int_Tables_number	1
_symmetry_cell_setting	triclinic
loop_
_symmetry_equiv_pos_as_xyz
  x,y,z
_cell_length_a	11.169417
_cell_length_b	19.077068
_cell_length_c	11.169409
_cell_angle_alpha	87.740848
_cell_angle_beta	90.020564
_cell_angle_gamma	92.327792
loop_
_atom_site_label
_atom_site_type_symbol
_atom_site_fract_x
_atom_site_fract_y
_atom_site_fract_z
Zn1	Zn	1.815639	-0.280127	0.697665
Zn2	Zn	2.315639	0.219873	1.197665
Zn3	Zn	1.807401	-0.397847	0.505018
Zn4	Zn	2.307401	0.102153	1.005018
Zn5	Zn	1.614919	-0.280170	0.497002
Zn6	Zn	2.114919	0.219830	0.997002
Zn7	Zn	1.606812	-0.397789	0.705659
Zn8	Zn	2.106812	0.102211	1.205659
O9	O	1.711193	-0.338983	0.601336
O10	O	2.211193	0.161017	1.101336
O11	O	1.982495	-0.295749	0.672119
O12	O	2.482495	0.204251	1.172119
O13	O	1.781813	-0.382278	0.336008
O14	O	2.281813	0.117722	0.836008
O15	O	1.648385	-0.181673	0.516921
O16	O	2.148385	0.318327	1.016921
O17	O	1.976443	-0.382237	0.530582
O18	O	2.476443	0.117763	1.030582
O19	O	1.795853	-0.181642	0.664347
O20	O	2.295853	0.318358	1.164347
O21	O	1.640398	-0.295821	0.330119
O22	O	2.140398	0.204179	0.830119
O23	O	1.445894	-0.295766	0.524672
O24	O	1.945894	0.204234	1.024672
O25	O	1.634567	-0.382139	0.872546
O26	O	2.134567	0.117861	1.372546
O27	O	1.439938	-0.382181	0.677971
O28	O	1.939938	0.117819	1.177971
O29	O	1.787992	-0.295693	0.866673
O30	O	2.287992	0.204307	1.366673
O31	O	1.773952	-0.496330	0.538333
O32	O	2.273952	0.003670	1.038333
O33	O	1.626580	-0.496288	0.685743
O34	O	2.126580	0.003712	1.185743
C35	C	1.399369	-0.338972	0.601320
C36	C	1.899369	0.161028	1.101320
C37	C	1.265968	-0.338985	0.601343
C38	C	1.765968	0.161015	1.101343
C39	C	1.698525	-0.521846	0.613802
C40	C	2.198525	-0.021846	1.113802
C41	C	1.693216	-0.600076	0.619175
C42	C	2.193216	-0.100076	1.119175
C43	C	1.767510	-0.636827	0.545014
C44	C	2.267510	-0.136827	1.045014
C45	C	1.762523	-0.710332	0.550075
C46	C	2.262523	-0.210332	1.050075
C47	C	1.683235	-0.747084	0.629291
C48	C	2.183235	-0.247084	1.129291
C49	C	1.608938	-0.710328	0.703460
C50	C	2.108938	-0.210328	1.203460
C51	C	1.613932	-0.636825	0.698404
C52	C	2.113932	-0.136825	1.198404
C53	C	1.660072	-0.966917	0.652640
C54	C	2.160072	-0.466917	1.152640
C55	C	1.655081	-1.040426	0.657687
C56	C	2.155081	-0.540426	1.157687
C57	C	1.808668	-1.040424	0.504303
C58	C	2.308668	-0.540424	1.004303
C59	C	1.813650	-0.966919	0.499250
C60	C	2.313650	-0.466919	0.999250
C61	C	1.739357	-0.930169	0.573423
C62	C	2.239357	-0.430169	1.073423
N63	N	1.678134	-0.822218	0.634463
N64	N	2.178134	-0.322218	1.134463
N65	N	1.744466	-0.855037	0.568256
N66	N	2.244466	-0.355037	1.068256
C67	C	2.024234	-0.338994	0.601353
C68	C	2.524234	0.161006	1.101353
C69	C	2.157634	-0.338999	0.601360
C70	C	2.657634	0.161001	1.101360
C71	C	1.711294	-0.338905	0.914373
C72	C	2.211294	0.161095	1.414373
C73	C	1.711337	-0.338872	1.047771
C74	C	2.211337	0.161128	1.547771
C75	C	1.723942	-0.155406	0.588848
C76	C	2.223942	0.344594	1.088848
C77	C	1.729375	-0.077176	0.583526
C78	C	2.229375	0.422824	1.083526
C79	C	1.711164	-0.339010	0.289513
C80	C	2.211164	0.160990	0.789513
C81	C	1.711367	-0.338845	0.156103
C82	C	2.211367	0.161155	0.656103
H83	H	1.832069	-0.606907	0.480503
H84	H	2.332069	-0.106907	0.980503
Cl85	Cl	1.913347	-0.920721	0.399676
Cl86	Cl	2.413347	-0.420721	0.899676
Cl87	Cl	1.520533	-0.590623	0.791643
Cl88	Cl	2.020533	-0.090623	1.291643
H89	H	1.823020	-0.740251	0.489685
H90	H	2.323020	-0.240251	0.989685
Cl91	Cl	1.566672	-0.920727	0.745884
Cl92	Cl	2.066672	-0.420727	1.245884
H93	H	1.869155	-1.070353	0.443917
H94	H	2.369155	-0.570353	0.943917
Cl95	Cl	1.555383	-1.086628	0.757265
Cl96	Cl	2.055383	-0.586628	1.257265
H97	H	1.544386	-0.740258	0.767964
H98	H	2.044386	-0.240258	1.267964
