data_functionalizedCrystal
_audit_creation_method	'MofGen! by Chris Wilmer'
_symmetry_space_group_name_H-M	'P1'
_symmetry_Int_Tables_number	1
_symmetry_cell_setting	triclinic
loop_
_symmetry_equiv_pos_as_xyz
  x,y,z
_cell_length_a	9.065218
_cell_length_b	14.044190
_cell_length_c	8.140239
_cell_angle_alpha	89.991557
_cell_angle_beta	89.997198
_cell_angle_gamma	89.103831
loop_
_atom_site_label
_atom_site_type_symbol
_atom_site_fract_x
_atom_site_fract_y
_atom_site_fract_z
O1	O	1.975823	0.139141	-0.136639
O2	O	1.547804	0.150554	-0.136644
O3	O	1.755383	0.006808	-0.136609
O4	O	1.768243	0.282888	-0.136674
O5	O	1.755371	0.006806	0.136618
O6	O	1.547791	0.150552	0.136584
O7	O	1.975811	0.139139	0.136588
Zn8	Zn	1.761799	0.144846	0.179966
Zn9	Zn	1.761815	0.144848	-0.180022
O10	O	1.768231	0.282886	0.136553
C11	C	1.492689	0.149456	-0.000030
C12	C	1.328483	0.146177	-0.000030
C13	C	1.749751	-0.028556	0.000009
C14	C	1.732970	-0.133926	0.000023
C15	C	1.821306	-0.383454	-0.000040
C16	C	1.702315	-0.326847	-0.000030
C17	C	1.719375	-0.219496	-0.000000
C18	C	1.804248	-0.490815	-0.000070
C19	C	2.030925	0.140237	-0.000029
C20	C	2.195132	0.143517	-0.000040
C21	C	1.773863	0.318250	-0.000069
C22	C	1.790644	0.423620	-0.000094
N23	N	1.761798	0.144844	0.425649
N24	N	1.761827	0.144843	-0.425705
H25	H	1.587629	-0.359007	-0.000041
H26	H	1.935982	-0.351296	-0.000022
