data_functionalizedCrystal
_audit_creation_method	'MofGen! by Chris Wilmer'
_symmetry_space_group_name_H-M	'P1'
_symmetry_Int_Tables_number	1
_symmetry_cell_setting	triclinic
loop_
_symmetry_equiv_pos_as_xyz
  x,y,z
_cell_length_a	25.639243
_cell_length_b	25.639239
_cell_length_c	16.625539
_cell_angle_alpha	89.968745
_cell_angle_beta	89.976850
_cell_angle_gamma	90.041410
loop_
_atom_site_label
_atom_site_type_symbol
_atom_site_fract_x
_atom_site_fract_y
_atom_site_fract_z
Zn1	Zn	0.799262	-0.208112	-0.455948
Zn2	Zn	0.799175	-0.295550	-0.321109
Zn3	Zn	0.711828	-0.208134	-0.321123
Zn4	Zn	0.711784	-0.295522	-0.455892
O5	O	0.755512	-0.251830	-0.388518
O6	O	0.872416	-0.219713	-0.438079
O7	O	0.787570	-0.283975	-0.208278
O8	O	0.723481	-0.134966	-0.339037
O9	O	0.872351	-0.283953	-0.339013
O10	O	0.787719	-0.134950	-0.438093
O11	O	0.723396	-0.219751	-0.208288
O12	O	0.638657	-0.219724	-0.338983
O13	O	0.723406	-0.283906	-0.568732
O14	O	0.638624	-0.283928	-0.437997
O15	O	0.787676	-0.219686	-0.568773
O16	O	0.787527	-0.368711	-0.338959
O17	O	0.723321	-0.368691	-0.437984
C18	C	0.619669	-0.251826	-0.388486
C19	C	0.561555	-0.251837	-0.388491
C20	C	0.201220	-0.218432	-0.440188
C21	C	0.146616	-0.218432	-0.440193
O22	O	0.118403	-0.190020	-0.484107
N23	N	0.119273	-0.251828	-0.388540
C24	C	0.146537	-0.285223	-0.336873
O25	O	0.118266	-0.313629	-0.292939
C26	C	0.201140	-0.285221	-0.336865
C27	C	0.228481	-0.251826	-0.388527
C28	C	0.228560	-0.185040	-0.491845
C29	C	0.283161	-0.185041	-0.491841
C30	C	0.310421	-0.218435	-0.440179
C31	C	0.283081	-0.251827	-0.388523
C32	C	0.228404	-0.318613	-0.285195
C33	C	0.283011	-0.318607	-0.285190
C34	C	0.310351	-0.285212	-0.336852
C35	C	0.364942	-0.285222	-0.336857
N36	N	0.392285	-0.251826	-0.388510
C37	C	0.365025	-0.218432	-0.440171
C38	C	0.031866	-0.285225	-0.336894
C39	C	-0.022736	-0.285231	-0.336906
C40	C	-0.022653	-0.218439	-0.440225
C41	C	0.031950	-0.218436	-0.440216
C42	C	0.059209	-0.251829	-0.388547
C43	C	0.479690	-0.218438	-0.440159
C44	C	0.534295	-0.218443	-0.440153
C45	C	0.534208	-0.285233	-0.336831
C46	C	0.479607	-0.285230	-0.336840
C47	C	0.452349	-0.251828	-0.388507
O48	O	0.393190	-0.313618	-0.292963
O49	O	0.393303	-0.190026	-0.484091
C50	C	0.755424	-0.387672	-0.388481
C51	C	0.755434	-0.445786	-0.388492
C52	C	0.789031	-0.806147	-0.337044
C53	C	0.789052	-0.860751	-0.337054
O54	O	0.817526	-0.888986	-0.293270
N55	N	0.755604	-0.888069	-0.388571
C56	C	0.722138	-0.860779	-0.440087
O57	O	0.693690	-0.889028	-0.483908
C58	C	0.722120	-0.806175	-0.440080
C59	C	0.755566	-0.778861	-0.388553
C60	C	0.822475	-0.778833	-0.285522
C61	C	0.822454	-0.724232	-0.285510
C62	C	0.788989	-0.696946	-0.337020
C63	C	0.755545	-0.724260	-0.388542
C64	C	0.688657	-0.778886	-0.491599
C65	C	0.688643	-0.724279	-0.491587
C66	C	0.722089	-0.696965	-0.440061
C67	C	0.722059	-0.642374	-0.440040
N68	N	0.755507	-0.615057	-0.388523
C69	C	0.788972	-0.642343	-0.337013
C70	C	0.722177	-0.975449	-0.440099
C71	C	0.722191	-1.030051	-0.440103
C72	C	0.789106	-1.030021	-0.337071
C73	C	0.789089	-0.975417	-0.337064
C74	C	0.755625	-0.948132	-0.388582
C75	C	0.788925	-0.527678	-0.336992
C76	C	0.788899	-0.473072	-0.336982
C77	C	0.721987	-0.473108	-0.440017
C78	C	0.722010	-0.527709	-0.440024
C79	C	0.755483	-0.554992	-0.388508
O80	O	0.693601	-0.614104	-0.483804
O81	O	0.817419	-0.614087	-0.293207
C82	C	0.891885	-0.251833	-0.388551
C83	C	0.949999	-0.251835	-0.388564
C84	C	0.755546	-0.251791	-0.598827
C85	C	0.755561	-0.251774	-0.688448
C86	C	0.755615	-0.115456	-0.388573
C87	C	0.755658	-0.057342	-0.388596
C88	C	0.755585	-0.251715	-1.016624
C89	C	0.755576	-0.251733	-0.925316
C90	C	0.755573	-0.251745	-0.852539
C91	C	0.755564	-0.251762	-0.761225
C92	C	0.755508	-0.251831	-0.179027
C93	C	0.755595	-0.251700	-0.089407
H94	H	0.305417	-0.157847	-0.533908
H95	H	-0.044992	-0.312430	-0.294847
H96	H	0.206153	-0.345806	-0.243125
N97	N	-0.052055	-0.182414	-0.495945
H98	H	-0.074716	-0.203690	-0.533254
H99	H	-0.074671	-0.158166	-0.463185
N100	N	0.563781	-0.182425	-0.495880
H101	H	0.554303	-0.145057	-0.483462
H102	H	0.602500	-0.187536	-0.488018
N103	N	0.061435	-0.182419	-0.495939
H104	H	0.084098	-0.158159	-0.463243
H105	H	0.084056	-0.203737	-0.533228
H106	H	0.849729	-0.801043	-0.243576
N107	N	0.825164	-0.945959	-0.281493
H108	H	0.846364	-0.971535	-0.248865
H109	H	0.849343	-0.923267	-0.314347
N110	N	0.652590	-0.808342	-0.547180
H111	H	0.628375	-0.831038	-0.514392
H112	H	0.631427	-0.782733	-0.579801
N113	N	0.825201	-1.059456	-0.281512
H114	H	0.820136	-1.098191	-0.289341
H115	H	0.862535	-1.049869	-0.294116
N116	N	0.450295	-0.182410	-0.495879
H117	H	0.475907	-0.161259	-0.528599
H118	H	0.427635	-0.203720	-0.533140
H119	H	0.661393	-0.702066	-0.533542
N120	N	0.312412	-0.354622	-0.229457
H121	H	0.286803	-0.375775	-0.196734
H122	H	0.335059	-0.378848	-0.262203
H123	H	0.054058	-0.312423	-0.294821
N124	N	0.199163	-0.149014	-0.547561
H125	H	0.224777	-0.127861	-0.580276
H126	H	0.176505	-0.170322	-0.584825
H127	H	0.694738	-0.450883	-0.481953
H128	H	0.556413	-0.312423	-0.294772
H129	H	0.694951	-1.052286	-0.482054
H130	H	0.694777	-0.549949	-0.481983
N131	N	0.450111	-0.321244	-0.281122
H132	H	0.427443	-0.345499	-0.313818
H133	H	0.475698	-0.342366	-0.248404
N134	N	0.858537	-0.694777	-0.229949
H135	H	0.837305	-0.672158	-0.192538
H136	H	0.879732	-0.720389	-0.197383
H137	H	0.816183	-0.549885	-0.295045
N138	N	0.824976	-0.443612	-0.281408
H139	H	0.846180	-0.469187	-0.248783
H140	H	0.849151	-0.420917	-0.314263
H141	H	0.694922	-0.953236	-0.482049
