data_functionalizedCrystal
_audit_creation_method	'MofGen! by Chris Wilmer'
_symmetry_space_group_name_H-M	'P1'
_symmetry_Int_Tables_number	1
_symmetry_cell_setting	triclinic
loop_
_symmetry_equiv_pos_as_xyz
  x,y,z
_cell_length_a	10.723023
_cell_length_b	10.723023
_cell_length_c	9.198806
_cell_angle_alpha	89.996513
_cell_angle_beta	90.001269
_cell_angle_gamma	95.532452
loop_
_atom_site_label
_atom_site_type_symbol
_atom_site_fract_x
_atom_site_fract_y
_atom_site_fract_z
O1	O	-0.175020	1.657188	-0.120871
O2	O	0.324980	2.157188	0.379129
O3	O	-0.191774	1.294035	-0.120876
O4	O	0.308226	1.794035	0.379124
O5	O	-0.001821	1.483989	-0.120871
O6	O	0.498179	1.983989	0.379129
O7	O	-0.364973	1.467234	-0.120876
O8	O	0.135027	1.967234	0.379124
O9	O	-0.001820	1.483974	0.120914
O10	O	0.498180	1.983974	0.620914
O11	O	-0.191774	1.294020	0.120909
O12	O	0.308226	1.794020	0.620909
O13	O	-0.175019	1.657173	0.120914
O14	O	0.324981	2.157173	0.620914
Cu15	Cu	-0.183396	1.475595	0.142988
Cu16	Cu	0.316604	1.975595	0.642988
Cu17	Cu	-0.183397	1.475613	-0.142951
Cu18	Cu	0.316603	1.975613	0.357049
O19	O	-0.364973	1.467219	0.120909
O20	O	0.135027	1.967219	0.620909
C21	C	-0.190555	1.247528	0.000015
C22	C	0.309445	1.747528	0.500015
C23	C	-0.186908	1.108974	0.000013
C24	C	0.313092	1.608974	0.500013
C25	C	-0.185281	1.047194	0.125264
C26	C	0.314719	1.547194	0.625264
C27	C	-0.181512	0.903991	0.125264
C28	C	0.318488	1.403991	0.625264
C29	C	-0.411473	1.468446	0.000015
C30	C	0.088527	1.968446	0.500015
C31	C	-0.550027	1.472093	0.000013
C32	C	-0.050027	1.972093	0.500013
C33	C	-0.611799	1.473711	0.125264
C34	C	-0.111799	1.973711	0.625264
C35	C	-0.755002	1.477481	0.125264
C36	C	-0.255002	1.977481	0.625264
C37	C	0.044679	1.482762	0.000019
C38	C	0.544679	1.982762	0.500019
C39	C	0.183233	1.479115	0.000012
C40	C	0.683233	1.979115	0.500012
C41	C	-0.176239	1.703680	0.000019
C42	C	0.323761	2.203680	0.500019
C43	C	-0.179886	1.842234	0.000012
C44	C	0.320114	2.342234	0.500012
N45	N	-0.183395	1.475592	0.344102
N46	N	0.316605	1.975592	0.844102
N47	N	-0.183388	1.475626	-0.344065
N48	N	0.316612	1.975626	0.155935
C49	C	-0.103288	1.555347	0.416302
C50	C	0.396712	2.055347	0.916302
C51	C	-0.103283	1.555367	0.583714
C52	C	0.396717	2.055367	1.083714
H53	H	-0.181292	0.895354	-0.107225
H54	H	0.318708	1.395354	0.392775
F55	F	-0.013643	1.644626	0.664864
F56	F	0.486357	2.144626	1.164864
F57	F	-0.619469	1.473921	-0.140152
F58	F	-0.119469	1.973921	0.359848
F59	F	-0.185071	1.039543	-0.140152
F60	F	0.314929	1.539543	0.359848
H61	H	-0.763652	1.477729	-0.107225
H62	H	-0.263652	1.977729	0.392775
H63	H	-0.180120	0.850861	0.232496
H64	H	0.319880	1.350861	0.732496
H65	H	-0.251980	1.407345	0.593856
H66	H	0.248020	1.907345	1.093856
H67	H	-0.808123	1.478879	0.232496
H68	H	-0.308123	1.978879	0.732496
H69	H	-0.558667	1.472300	0.232495
H70	H	-0.058667	1.972300	0.732495
F71	F	-0.273031	1.386351	0.425300
F72	F	0.226969	1.886351	0.925300
H73	H	-0.186673	1.100320	0.232495
H74	H	0.313327	1.600320	0.732495
F75	F	-0.013423	1.644358	0.335104
F76	F	0.486577	2.144358	0.835104
