data_functionalizedCrystal
_audit_creation_method	'MofGen! by Chris Wilmer'
_symmetry_space_group_name_H-M	'P1'
_symmetry_Int_Tables_number	1
_symmetry_cell_setting	triclinic
loop_
_symmetry_equiv_pos_as_xyz
  x,y,z
_cell_length_a	17.038272
_cell_length_b	15.995350
_cell_length_c	15.072220
_cell_angle_alpha	89.998899
_cell_angle_beta	90.007087
_cell_angle_gamma	87.301965
loop_
_atom_site_label
_atom_site_type_symbol
_atom_site_fract_x
_atom_site_fract_y
_atom_site_fract_z
O1	O	-1.037421	-0.181819	-0.073664
O2	O	-0.809790	-0.178931	-0.073690
O3	O	-0.929828	-0.058931	-0.073676
O4	O	-0.917383	-0.301819	-0.073679
O5	O	-0.929798	-0.058936	0.073889
O6	O	-0.809760	-0.178936	0.073875
O7	O	-1.037391	-0.181824	0.073901
Zn8	Zn	-0.923571	-0.180381	0.097317
Zn9	Zn	-0.923610	-0.180374	-0.097107
O10	O	-0.917353	-0.301824	0.073886
C11	C	-0.929298	-0.027702	0.000105
C12	C	-0.927756	0.065359	0.000100
C13	C	-0.780646	-0.176308	0.000089
C14	C	-0.693851	-0.168474	0.000079
C15	C	-1.066535	-0.184447	0.000120
C16	C	-1.153330	-0.192281	0.000124
C17	C	-0.643754	-0.240402	0.000078
C18	C	-0.562202	-0.233036	0.000091
C19	C	-0.530748	-0.153741	0.000097
C20	C	-0.580851	-0.081807	0.000100
C21	C	-0.662402	-0.089174	0.000094
C22	C	-0.284984	-0.127714	0.000121
C23	C	-0.203426	-0.120353	0.000124
C24	C	-0.184783	-0.271583	0.000117
C25	C	-0.266336	-0.278943	0.000105
C26	C	-0.316432	-0.207009	0.000113
C27	C	-0.447389	-0.146209	0.000107
C28	C	-0.399790	-0.214541	0.000110
C29	C	-0.917882	-0.333053	0.000103
C30	C	-0.919425	-0.426114	0.000103
N31	N	-0.923550	-0.180385	0.230006
C32	C	-0.922217	0.403501	0.000102
C33	C	-0.836728	0.362156	-0.000239
C34	C	-0.838270	0.265356	0.000094
C35	C	-0.924964	0.235744	0.000100
C36	C	-0.967114	0.273815	0.084371
C37	C	-0.964966	0.370604	0.084441
C38	C	-0.966766	0.370842	-0.083368
C39	C	-0.966746	0.273898	-0.084482
C40	C	-0.926522	0.140936	0.000102
C41	C	-0.920662	0.498309	0.000106
N42	N	-0.923637	-0.180364	-0.229795
C43	C	-0.923608	-0.180371	0.589207
C44	C	-0.859163	-0.244335	0.551592
C45	C	-0.859310	-0.244596	0.448767
C46	C	-0.923579	-0.180378	0.411003
C47	C	-1.005158	-0.205271	0.448304
C48	C	-1.004797	-0.205732	0.551161
C49	C	-0.907202	-0.091363	0.551306
C50	C	-0.905331	-0.091815	0.448443
C51	C	-0.923567	-0.180381	0.310290
C52	C	-0.923625	-0.180370	0.689921
H53	H	-0.669358	-0.304973	0.000073
H54	H	-0.325762	-0.069140	0.000128
F55	F	-1.023692	-0.290810	0.582511
H56	H	-1.029796	0.398113	-0.083930
F57	F	-0.299806	-0.363340	0.000094
H58	H	-0.804890	0.239866	0.060598
H59	H	-1.054250	-0.161292	0.576042
H60	H	-0.425404	-0.279103	0.000109
H61	H	-0.805137	0.239297	-0.060314
H62	H	-0.849007	-0.068869	0.577290
F63	F	-0.547373	0.002586	0.000112
H64	H	-0.143987	-0.330147	0.000112
F65	F	-1.050363	0.249424	0.088476
H66	H	-0.421769	-0.081646	0.000137
H67	H	-0.798671	-0.228907	0.423549
H68	H	-0.177820	-0.055778	0.000128
H69	H	-0.845320	-0.073059	0.424064
H70	H	-0.798327	-0.228819	0.576347
F71	F	-0.508889	-0.309593	0.000087
F72	F	-0.792079	0.389560	-0.079229
F73	F	-0.924757	0.397388	0.166769
H74	H	-0.869494	-0.309888	0.577431
H75	H	-0.703190	-0.030601	0.000093
H76	H	-0.949221	-0.041536	0.422740
H77	H	-1.027730	0.398381	0.088269
H78	H	-0.954200	-0.043694	0.575630
F79	F	-0.792134	0.391221	0.078085
H80	H	-1.029967	0.254033	-0.089565
F81	F	-0.928818	0.239445	0.166334
F82	F	-0.930244	0.400285	-0.166853
H83	H	-0.869787	-0.310526	0.424154
F84	F	-1.069339	-0.146314	0.416333
F85	F	-0.926776	0.240745	-0.165978
H86	H	-1.019960	-0.269656	0.422536
