data_functionalizedCrystal
_audit_creation_method	'MofGen! by Chris Wilmer'
_symmetry_space_group_name_H-M	'P1'
_symmetry_Int_Tables_number	1
_symmetry_cell_setting	triclinic
loop_
_symmetry_equiv_pos_as_xyz
  x,y,z
_cell_length_a	19.121063
_cell_length_b	19.121102
_cell_length_c	19.120904
_cell_angle_alpha	89.911827
_cell_angle_beta	94.741613
_cell_angle_gamma	89.873098
loop_
_atom_site_label
_atom_site_type_symbol
_atom_site_fract_x
_atom_site_fract_y
_atom_site_fract_z
Zn1	Zn	-0.343506	-1.039579	-0.456040
Zn2	Zn	-0.456149	-1.039493	-0.343386
Zn3	Zn	-0.333518	-0.927792	-0.333417
Zn4	Zn	-0.455677	-0.917325	-0.455570
O5	O	-0.397212	-0.981047	-0.397103
O6	O	-0.362826	-1.137479	-0.445465
O7	O	-0.435899	-1.029020	-0.243797
O8	O	-0.236577	-0.947038	-0.345708
O9	O	-0.445584	-1.137415	-0.362699
O10	O	-0.243915	-1.029167	-0.435798
O11	O	-0.345802	-0.946954	-0.236473
O12	O	-0.345345	-0.828493	-0.345252
O13	O	-0.444780	-0.929198	-0.553899
O14	O	-0.435094	-0.820803	-0.434997
O15	O	-0.362368	-1.019018	-0.554244
O16	O	-0.554352	-1.018870	-0.362243
O17	O	-0.554005	-0.929114	-0.444664
C18	C	-0.389085	-0.799261	-0.388992
C19	C	-0.385626	-0.721490	-0.385539
C20	C	-0.579659	-0.972865	-0.404501
C21	C	-0.657714	-0.969428	-0.407691
C22	C	-0.404635	-0.972950	-0.580263
C23	C	-0.407799	-0.969500	-0.658315
C24	C	-0.694545	-1.014577	-0.366317
C25	C	-0.767887	-1.011348	-0.369323
C26	C	-0.804396	-0.962966	-0.413699
C27	C	-0.767560	-0.917815	-0.455078
C28	C	-0.694220	-0.921048	-0.452076
C29	C	-1.025828	-0.950869	-0.424912
C30	C	-1.099173	-0.947638	-0.427909
C31	C	-1.099494	-1.041173	-0.342155
C32	C	-1.026153	-1.044399	-0.339154
C33	C	-0.989323	-0.999250	-0.380535
C34	C	-0.879363	-0.959663	-0.416770
C35	C	-0.914358	-1.002557	-0.377467
C36	C	-0.214054	-0.989280	-0.389693
C37	C	-0.136003	-0.992788	-0.386535
C38	C	-0.405372	-1.163544	-0.405246
C39	C	-0.408849	-1.241313	-0.408717
C40	C	-0.430793	-0.680968	-0.430575
C41	C	-0.427534	-0.607894	-0.427334
C42	C	-0.379110	-0.575344	-0.379053
C43	C	-0.333937	-0.615872	-0.334016
C44	C	-0.337194	-0.688944	-0.337261
C45	C	-0.366933	-0.354913	-0.366924
C46	C	-0.363681	-0.281835	-0.363681
C47	C	-0.457277	-0.273863	-0.457000
C48	C	-0.460532	-0.346937	-0.460238
C49	C	-0.415357	-0.387458	-0.415203
C50	C	-0.375778	-0.500651	-0.375738
C51	C	-0.418686	-0.462149	-0.418523
C52	C	-0.366379	-1.014640	-0.695165
C53	C	-0.369348	-1.011390	-0.768503
C54	C	-0.413741	-0.963001	-0.804990
C55	C	-0.455162	-0.917856	-0.768135
C56	C	-0.452188	-0.921103	-0.694798
C57	C	-0.424862	-0.950853	-1.026410
C58	C	-0.427833	-0.947610	-1.099752
C59	C	-0.342019	-1.041143	-1.100115
C60	C	-0.339052	-1.044390	-1.026777
C61	C	-0.380470	-0.999242	-0.989928
C62	C	-0.416779	-0.959679	-0.879953
C63	C	-0.377429	-1.002561	-0.914966
C64	C	-0.389769	-0.989156	-0.214655
C65	C	-0.386414	-0.992751	-0.136602
H66	H	-0.664824	-1.053972	-0.330178
Br67	Br	-0.306135	-1.080319	-0.645655
H68	H	-0.463985	-0.908204	-1.129457
Br69	Br	-0.484401	-0.506325	-0.484046
H70	H	-0.470228	-0.707464	-0.469888
H71	H	-0.302905	-1.083794	-0.997075
H72	H	-0.797871	-1.048113	-0.335631
Br73	Br	-0.481071	-0.889579	-0.976409
Br74	Br	-0.526257	-0.391107	-0.525761
Br75	Br	-0.518585	-0.218867	-0.518113
Br76	Br	-0.310059	-0.456470	-0.310218
H77	H	-0.909097	-0.920269	-0.452900
H78	H	-0.341281	-1.041956	-0.885255
H79	H	-0.464315	-0.574904	-0.464006
H80	H	-0.995847	-0.914106	-0.458605
Br81	Br	-0.297965	-0.237660	-0.298146
H82	H	-0.330153	-0.387897	-0.330248
H83	H	-0.996429	-1.083795	-0.303019
H84	H	-0.884631	-1.041952	-0.341339
Br85	Br	-0.268211	-0.571698	-0.268498
Br86	Br	-0.275889	-0.743940	-0.276142
H87	H	-0.335622	-1.048150	-0.798503
H88	H	-0.308298	-1.077899	-1.130125
H89	H	-0.491305	-0.878454	-0.797848
Br90	Br	-0.508398	-0.859834	-0.644786
H91	H	-1.129489	-1.077932	-0.308466
H92	H	-0.664233	-0.884283	-0.485768
H93	H	-0.452927	-0.920284	-0.909669
Br94	Br	-1.148720	-0.881961	-0.488126
H95	H	-0.797292	-0.878424	-0.491213
