data_functionalizedCrystal
_audit_creation_method	'MofGen! by Chris Wilmer'
_symmetry_space_group_name_H-M	'P1'
_symmetry_Int_Tables_number	1
_symmetry_cell_setting	triclinic
loop_
_symmetry_equiv_pos_as_xyz
  x,y,z
_cell_length_a	14.519731
_cell_length_b	14.519709
_cell_length_c	13.596369
_cell_angle_alpha	89.999792
_cell_angle_beta	89.993567
_cell_angle_gamma	96.315501
loop_
_atom_site_label
_atom_site_type_symbol
_atom_site_fract_x
_atom_site_fract_y
_atom_site_fract_z
O1	O	-1.223856	0.120986	0.081803
O2	O	-0.890523	0.454320	0.415136
O3	O	-0.557190	0.787653	0.748469
O4	O	-0.955382	0.135202	0.081798
O5	O	-0.622049	0.468536	0.415131
O6	O	-0.288715	0.801869	0.748464
O7	O	-1.096737	-0.006144	0.081809
O8	O	-0.763404	0.327190	0.415143
O9	O	-0.430071	0.660523	0.748476
O10	O	-1.082501	0.262332	0.081791
O11	O	-0.749168	0.595666	0.415124
O12	O	-0.415834	0.928999	0.748458
O13	O	-1.096723	-0.006151	-0.081774
O14	O	-0.763390	0.327182	0.251560
O15	O	-0.430057	0.660516	0.584893
O16	O	-0.955368	0.135195	-0.081785
O17	O	-0.622035	0.468528	0.251548
O18	O	-0.288701	0.801862	0.584881
O19	O	-1.223842	0.120979	-0.081780
O20	O	-0.890509	0.454312	0.251553
O21	O	-0.557176	0.787645	0.584887
Zn22	Zn	-1.089603	0.128086	-0.107755
Zn23	Zn	-0.756270	0.461419	0.225578
Zn24	Zn	-0.422936	0.794752	0.558912
Zn25	Zn	-1.089621	0.128096	0.107772
Zn26	Zn	-0.756288	0.461429	0.441106
Zn27	Zn	-0.422955	0.794762	0.774439
O28	O	-1.082487	0.262325	-0.081792
O29	O	-0.749154	0.595658	0.251541
O30	O	-0.415820	0.928991	0.584875
C31	C	-0.921016	0.134532	0.000006
C32	C	-0.587682	0.467866	0.333339
C33	C	-0.254349	0.801199	0.666672
C34	C	-0.818635	0.132536	0.000004
C35	C	-0.485302	0.465870	0.333338
C36	C	-0.151969	0.799203	0.666671
C37	C	-0.735491	0.130915	0.000007
C38	C	-0.402158	0.464248	0.333340
C39	C	-0.068825	0.797581	0.666674
C40	C	-0.631182	0.128888	0.000005
C41	C	-0.297849	0.462221	0.333339
C42	C	0.035484	0.795555	0.666672
C43	C	-0.548043	0.127280	0.000004
C44	C	-0.214710	0.460613	0.333337
C45	C	0.118623	0.793946	0.666671
C46	C	-0.443728	0.125253	0.000004
C47	C	-0.110395	0.458586	0.333338
C48	C	0.222939	0.791920	0.666671
C49	C	-1.096067	-0.040507	0.000022
C50	C	-0.762734	0.292826	0.333356
C51	C	-0.429400	0.626160	0.666689
C52	C	-1.094079	-0.142889	0.000035
C53	C	-0.760745	0.190445	0.333369
C54	C	-0.427412	0.523778	0.666702
N55	N	-1.089597	0.128078	-0.254847
N56	N	-0.756264	0.461412	0.078486
N57	N	-0.422930	0.794745	0.411820
C58	C	-0.258209	0.121649	0.000009
C59	C	0.075125	0.454982	0.333342
C60	C	0.408458	0.788315	0.666676
C61	C	-0.360589	0.123645	0.000003
C62	C	-0.027256	0.456978	0.333336
C63	C	0.306078	0.790311	0.666669
C64	C	-1.083157	0.296688	-0.000003
C65	C	-0.749824	0.630022	0.333331
C66	C	-0.416491	0.963355	0.666664
C67	C	-1.085146	0.399070	-0.000009
C68	C	-0.751812	0.732403	0.333324
C69	C	-0.418479	1.065736	0.666657
C70	C	-1.092465	0.773966	0.000030
C71	C	-0.759132	1.107299	0.333363
C72	C	-0.425798	1.440633	0.666697
C73	C	-1.090432	0.669658	0.000019
C74	C	-0.757099	1.002991	0.333352
C75	C	-0.423766	1.336325	0.666685
C76	C	-1.088806	0.586521	0.000009
C77	C	-0.755472	0.919855	0.333343
C78	C	-0.422139	1.253188	0.666676
C79	C	-1.086773	0.482207	0.000000
C80	C	-0.753439	0.815540	0.333333
C81	C	-0.420106	1.148873	0.666667
C82	C	-1.089620	0.128096	-0.656138
C83	C	-0.756287	0.461430	-0.322805
C84	C	-0.422954	0.794763	0.010529
C85	C	-1.089611	0.128095	-0.544486
C86	C	-0.756278	0.461428	-0.211153
C87	C	-0.422944	0.794761	0.122180
C88	C	-1.089609	0.128088	-0.455496
C89	C	-0.756276	0.461421	-0.122163
C90	C	-0.422942	0.794755	0.211171
C91	C	-1.089599	0.128085	-0.343837
C92	C	-0.756266	0.461418	-0.010504
C93	C	-0.422932	0.794751	0.322829
N94	N	-1.089635	0.128096	0.254864
N95	N	-0.756301	0.461429	0.588198
N96	N	-0.422968	0.794762	0.921531
