data_functionalizedCrystal
_audit_creation_method	'MofGen! by Chris Wilmer'
_symmetry_space_group_name_H-M	'P1'
_symmetry_Int_Tables_number	1
_symmetry_cell_setting	triclinic
loop_
_symmetry_equiv_pos_as_xyz
  x,y,z
_cell_length_a	19.851628
_cell_length_b	14.395555
_cell_length_c	14.395555
_cell_angle_alpha	60.000749
_cell_angle_beta	90.004468
_cell_angle_gamma	59.999934
loop_
_atom_site_label
_atom_site_type_symbol
_atom_site_fract_x
_atom_site_fract_y
_atom_site_fract_z
Zr1	Zr	0.649000	1.016681	-0.121809
O2	O	0.541438	1.210488	-0.270154
O3	O	0.681970	0.822882	-0.076332
O4	O	0.681976	1.016669	-0.270128
O5	O	0.541432	1.016708	0.076509
O6	O	0.792837	1.016651	-0.270109
O7	O	0.541433	1.016701	-0.076358
O8	O	0.792828	0.670002	0.076556
O9	O	0.541441	1.363357	-0.270156
O10	O	0.778770	0.902578	-0.056925
O11	O	0.696035	0.902597	0.057145
O12	O	0.696041	1.130756	-0.171025
O13	O	0.613306	1.130775	-0.056956
Zr14	Zr	0.825810	1.016664	0.122026
Zr15	Zr	0.825812	1.016653	-0.121780
Zr16	Zr	0.648999	1.016692	0.121996
Zr17	Zr	0.649005	1.260491	-0.121813
Zr18	Zr	0.825805	0.772854	0.122030
O19	O	0.792840	1.210463	0.076548
O20	O	0.792842	1.210447	-0.270112
O21	O	0.541436	1.210504	0.076506
O22	O	0.933372	0.822857	0.270370
O23	O	0.933374	0.822841	-0.076290
O24	O	0.681969	0.822898	0.270328
O25	O	0.933378	1.016637	-0.076293
O26	O	0.792835	1.016676	0.270344
O27	O	0.681973	1.016694	0.270325
O28	O	0.933377	1.016644	0.076575
O29	O	0.681983	1.363335	-0.270133
O30	O	0.792827	0.670010	0.270349
O31	O	0.933369	0.669988	0.270373
O32	O	0.933370	0.669979	0.076580
O33	O	0.541440	1.363366	-0.076363
O34	O	0.681982	1.363343	-0.076340
O35	O	0.778769	0.902589	0.171242
O36	O	0.861505	0.902570	0.057172
O37	O	0.778775	1.130748	-0.056928
O38	O	0.696040	1.130767	0.057141
C39	C	0.737398	0.711704	0.000113
C40	C	0.737396	0.608201	0.000114
C41	C	0.692288	0.547619	0.062314
C42	C	0.659595	0.561876	-0.044967
C43	C	0.770069	0.409548	0.107362
C44	C	0.704658	0.623884	-0.107229
C45	C	0.815175	0.471494	0.045177
C46	C	0.782502	0.485797	-0.062167
C47	C	0.516241	1.016708	0.000071
C48	C	0.441179	1.016720	0.000059
C49	C	0.214727	1.141103	-0.062116
C50	C	0.192364	1.078910	-0.107191
C51	C	0.303773	1.016686	0.000091
C52	C	0.192394	1.078888	0.045146
C53	C	0.171041	1.016663	0.000122
C54	C	0.282399	0.954493	-0.045047
C55	C	0.282426	0.954488	0.107350
C56	C	0.260117	0.892204	0.062301
C57	C	0.380235	1.016704	0.000071
C58	C	0.094583	1.016636	0.000141
C59	C	0.958570	1.016637	0.000145
C60	C	1.033631	1.016625	0.000158
C61	C	0.737407	1.016659	-0.304855
C62	C	0.737407	1.016654	-0.408357
C63	C	0.737412	1.321641	0.000104
C64	C	0.737414	1.425144	0.000102
C65	C	0.782519	0.892241	-0.406733
C66	C	0.704725	0.954445	-0.499769
C67	C	0.815182	0.954456	-0.499750
C68	C	0.659568	1.078858	-0.500030
C69	C	0.770080	1.078851	-0.499996
C70	C	0.692240	1.141145	-0.593049
C71	C	0.737403	1.016686	0.305072
C72	C	0.737403	1.016691	0.408574
C73	C	0.958563	0.711669	0.000150
C74	C	1.033622	0.608153	0.000164
C75	C	0.737397	0.711718	0.305076
C76	C	0.737394	0.608219	0.408580
C77	C	0.958561	0.711682	0.305113
C78	C	1.033620	0.608171	0.408629
C79	C	0.516249	1.321663	-0.304897
C80	C	0.441190	1.425174	-0.408413
C81	C	0.516247	1.321676	0.000067
C82	C	0.441188	1.425192	0.000052
C83	C	0.737413	1.321627	-0.304860
C84	C	0.737416	1.425126	-0.408363
C85	C	1.025684	0.559545	-0.059397
C86	C	1.096203	0.462295	-0.059406
C87	C	1.174659	0.413647	0.000152
C88	C	1.182596	0.462265	0.059715
C89	C	1.112077	0.559520	0.059717
C90	C	1.112063	0.559552	0.397699
C91	C	1.182595	0.462306	0.494954
C92	C	1.174682	0.413675	0.603138
C93	C	1.096231	0.462304	0.614067
C94	C	1.025701	0.559555	0.516813
C95	C	0.362748	1.473805	-0.397482
C96	C	0.292216	1.571081	-0.494737
C97	C	0.300128	1.619717	-0.602922
C98	C	0.378579	1.571082	-0.613850
C99	C	0.449109	1.473814	-0.516596
C100	C	0.449126	1.473810	0.059603
C101	C	0.378607	1.571087	0.059586
C102	C	0.300151	1.619738	0.000024
C103	C	0.292214	1.571116	-0.059535
C104	C	0.362733	1.473847	-0.059523
C105	C	0.692280	0.547642	0.406959
C106	C	0.770075	0.409532	0.499992
C107	C	0.659622	0.561883	0.499978
C108	C	0.815234	0.471410	0.500250
C109	C	0.704725	0.623834	0.500222
C110	C	0.782566	0.485734	0.593272
H111	H	0.196278	1.246304	-0.114797
N112	N	0.641821	0.583546	0.301294
H113	H	0.619361	0.528837	0.323767
H114	H	0.677845	0.566140	0.254397
H115	H	0.820647	0.458845	-0.114846
N116	N	0.333647	0.884903	-0.095656
H117	H	0.299990	0.931532	-0.176436
H118	H	0.350926	0.791183	-0.048974
H119	H	0.880930	0.434318	0.083329
H120	H	0.797693	0.317939	0.198065
H121	H	0.593762	1.131409	-0.499220
N122	N	0.806679	0.288164	0.501233
H123	H	0.806905	0.218339	0.572026
H124	H	0.865078	0.254232	0.500715
N125	N	0.333839	0.884908	0.227452
H126	H	0.390181	0.806736	0.247134
H127	H	0.305787	0.854133	0.281883
H128	H	0.881039	0.434024	0.499437
H129	H	0.820604	0.787042	-0.326965
H130	H	0.513003	1.434206	0.108114
H131	H	1.118552	0.599084	0.108226
N132	N	0.140962	1.148545	-0.227323
H133	H	0.123197	1.242530	-0.274268
H134	H	0.090589	1.147175	-0.226261
H135	H	1.232119	0.334487	0.682319
H136	H	0.797740	1.131380	-0.499017
H137	H	0.278721	0.786918	0.114908
H138	H	0.880960	0.901847	-0.500637
H139	H	0.228344	1.610663	-0.485817
N140	N	0.141001	1.148564	0.095611
H141	H	0.123243	1.242545	0.048542
H142	H	0.174786	1.102434	0.176167
H143	H	1.089801	0.422694	0.702164
H144	H	0.961832	0.599128	0.525729
H145	H	0.677064	0.715493	0.499230
N146	N	0.668107	0.884816	-0.501021
H147	H	0.702223	0.790829	-0.431531
H148	H	0.667883	0.886194	-0.571859
H149	H	0.654036	1.246434	-0.672685
H150	H	0.961807	0.599153	-0.107911
N151	N	0.224052	1.724627	-0.707812
H152	H	0.173161	1.748044	-0.684461
H153	H	0.224085	1.690709	-0.754579
H154	H	0.356289	1.434210	-0.309402
N155	N	1.087633	0.409872	-0.123653
H156	H	1.027229	0.455444	-0.161370
H157	H	1.115013	0.312243	-0.068976
H158	H	0.385085	1.610659	0.108090
N159	N	0.667960	0.745177	-0.227429
H160	H	0.609380	0.779565	-0.261596
H161	H	0.701812	0.722320	-0.274462
H162	H	0.385012	1.610695	-0.701946
H163	H	0.593826	0.599070	-0.083092
N164	N	0.833173	0.449906	0.698770
H165	H	0.797060	0.468820	0.745131
H166	H	0.856438	0.503523	0.676018
N167	N	1.250715	0.308752	0.000143
H168	H	1.233774	0.285347	-0.046628
H169	H	1.284630	0.228113	0.080831
H170	H	0.512979	1.434220	-0.525510
N171	N	1.267219	0.409790	0.123950
H172	H	1.310680	0.340801	0.114907
H173	H	1.273757	0.369501	0.207235
N174	N	1.120609	0.611981	0.281022
H175	H	1.181009	0.566414	0.288872
H176	H	1.093227	0.709611	0.238064
N177	N	1.267202	0.409866	0.483152
H178	H	1.261506	0.455426	0.399858
H179	H	1.298348	0.312236	0.520917
N180	N	0.224095	1.724649	0.000017
H181	H	0.241036	1.748057	0.046786
H182	H	0.190179	1.690740	0.033880
N183	N	0.207592	1.623574	-0.123752
H184	H	0.164130	1.692557	-0.114704
H185	H	0.201065	1.549293	-0.092460
N186	N	0.354165	1.421414	-0.123756
H187	H	0.293761	1.466999	-0.161484
H188	H	0.381534	1.323789	-0.069072
N189	N	0.572498	0.611152	0.501170
H190	H	0.532895	0.703626	0.430910
H191	H	0.567681	0.610646	0.571239
N192	N	0.641699	0.583688	0.131891
H193	H	0.582948	0.618749	0.097700
H194	H	0.642542	0.653211	0.131985
