data_functionalizedCrystal
_audit_creation_method	'MofGen! by Chris Wilmer'
_symmetry_space_group_name_H-M	'P1'
_symmetry_Int_Tables_number	1
_symmetry_cell_setting	triclinic
loop_
_symmetry_equiv_pos_as_xyz
  x,y,z
_cell_length_a	25.639239
_cell_length_b	17.639504
_cell_length_c	25.639234
_cell_angle_alpha	78.758249
_cell_angle_beta	90.024584
_cell_angle_gamma	78.779592
loop_
_atom_site_label
_atom_site_type_symbol
_atom_site_fract_x
_atom_site_fract_y
_atom_site_fract_z
Zn1	Zn	-0.046873	-1.208487	0.457521
Zn2	Zn	0.453127	-0.708487	0.957521
Zn3	Zn	-0.134317	-1.208360	0.370068
Zn4	Zn	0.365683	-0.708360	0.870068
Zn5	Zn	-0.064527	-1.076289	0.352387
Zn6	Zn	0.435473	-0.576289	0.852387
Zn7	Zn	-0.151935	-1.076217	0.439768
Zn8	Zn	0.348065	-0.576217	0.939768
O9	O	-0.099413	-1.142338	0.404936
O10	O	0.400587	-0.642338	0.904936
O11	O	-0.043711	-1.319098	0.460749
O12	O	0.456289	-0.819098	0.960749
O13	O	-0.125075	-1.190818	0.294554
O14	O	0.374925	-0.690818	0.794554
O15	O	0.010991	-1.093908	0.366364
O16	O	0.510991	-0.593908	0.866364
O17	O	-0.107956	-1.319005	0.396498
O18	O	0.392044	-0.819005	0.896498
O19	O	0.023962	-1.191034	0.443605
O20	O	0.523962	-0.691034	0.943605
O21	O	-0.073800	-1.093785	0.281565
O22	O	0.426200	-0.593785	0.781565
O23	O	-0.090883	-0.965652	0.349150
O24	O	0.409117	-0.465652	0.849150
O25	O	-0.137982	-1.093786	0.515291
O26	O	0.362018	-0.593786	1.015291
O27	O	-0.155101	-0.965599	0.413348
O28	O	0.344899	-0.465599	0.913348
O29	O	-0.060794	-1.190964	0.528334
O30	O	0.439206	-0.690964	1.028334
O31	O	-0.209831	-1.190748	0.379284
O32	O	0.290169	-0.690748	0.879284
O33	O	-0.222774	-1.093663	0.430492
O34	O	0.277226	-0.593663	0.930492
C35	C	-0.126820	-0.936941	0.377404
C36	C	0.373180	-0.436941	0.877404
C37	C	-0.138557	-0.849071	0.365639
C38	C	0.361443	-0.349071	0.865639
C39	C	-0.010196	-0.560291	0.494440
C40	C	0.489804	-0.060291	0.994440
C41	C	-0.021238	-0.477724	0.483373
C42	C	0.478762	0.022276	0.983373
C43	C	-0.088026	-0.477649	0.416372
C44	C	0.411974	0.022351	0.916372
C45	C	-0.076991	-0.560218	0.427435
C46	C	0.423009	-0.060218	0.927435
C47	C	-0.038075	-0.601533	0.466469
C48	C	0.461925	-0.101533	0.966469
C49	C	-0.104870	-0.601459	0.399464
C50	C	0.395130	-0.101459	0.899464
C51	C	-0.093834	-0.684021	0.410524
C52	C	0.406166	-0.184021	0.910524
C53	C	-0.054919	-0.725341	0.449554
C54	C	0.445081	-0.225341	0.949554
C55	C	-0.027039	-0.684094	0.477528
C56	C	0.472961	-0.184094	0.977528
C57	C	-0.143783	-0.560143	0.360428
C58	C	0.356217	-0.060143	0.860428
C59	C	-0.171662	-0.601384	0.332457
C60	C	0.328338	-0.101384	0.832457
C61	C	-0.160629	-0.683947	0.343519
C62	C	0.339371	-0.183947	0.843519
C63	C	-0.121714	-0.725268	0.382550
C64	C	0.378286	-0.225268	0.882550
C65	C	-0.188509	-0.725195	0.315545
C66	C	0.311491	-0.225195	0.815545
C67	C	-0.177473	-0.807756	0.326605
C68	C	0.322527	-0.307756	0.826605
C69	C	-0.110678	-0.807830	0.393610
C70	C	0.389322	-0.307830	0.893610
C71	C	-0.235273	-1.142205	0.404894
C72	C	0.264727	-0.642205	0.904894
C73	C	-0.293385	-1.142221	0.404904
C74	C	0.206615	-0.642221	0.904904
C75	C	-0.646963	-1.193022	0.378346
C76	C	-0.146963	-0.693022	0.878346
C77	C	-0.701563	-1.193053	0.378358
C78	C	-0.201563	-0.693053	0.878358
O79	O	-0.724049	-1.236108	0.355733
O80	O	-0.224049	-0.736108	0.855733
N81	N	-0.735633	-1.142477	0.404989
N82	N	-0.235633	-0.642477	0.904989
C83	C	-0.715100	-1.091873	0.431616
C84	C	-0.215100	-0.591873	0.931616
O85	O	-0.749093	-1.048858	0.454270
O86	O	-0.249093	-0.548858	0.954270
C87	C	-0.660501	-1.091847	0.431608
C88	C	-0.160501	-0.591847	0.931608
C89	C	-0.626433	-1.142421	0.404970
C90	C	-0.126433	-0.642421	0.904970
C91	C	-0.612896	-1.243592	0.351711
C92	C	-0.112896	-0.743592	0.851711
C93	C	-0.558300	-1.243560	0.351699
C94	C	-0.058300	-0.743560	0.851699
C95	C	-0.537770	-1.192959	0.378323
C96	C	-0.037770	-0.692959	0.878323
C97	C	-0.571837	-1.142389	0.404958
C98	C	-0.071837	-0.642389	0.904958
C99	C	-0.639968	-1.041248	0.458238
C100	C	-0.139968	-0.541248	0.958238
C101	C	-0.585364	-1.041226	0.458227
C102	C	-0.085364	-0.541226	0.958227
C103	C	-0.551297	-1.091800	0.431589
C104	C	-0.051297	-0.591800	0.931589
C105	C	-0.496711	-1.091755	0.431570
C106	C	0.003289	-0.591755	0.931570
N107	N	-0.462641	-1.142331	0.404938
N108	N	0.037359	-0.642331	0.904938
C109	C	-0.483170	-1.192933	0.378315
C110	C	0.016830	-0.692933	0.878315
C111	C	-0.829763	-1.091933	0.431632
C112	C	-0.329763	-0.591933	0.931632
C113	C	-0.884362	-1.091954	0.431638
C114	C	-0.384362	-0.591954	0.931638
C115	C	-0.870821	-1.193135	0.378380
C116	C	-0.370821	-0.693135	0.878380
C117	C	-0.816221	-1.193109	0.378371
C118	C	-0.316221	-0.693109	0.878371
C119	C	-0.795693	-1.142509	0.405000
C120	C	-0.295693	-0.642509	0.905000
C121	C	-0.368515	-1.192861	0.378291
C122	C	0.131485	-0.692861	0.878291
C123	C	-0.313915	-1.192823	0.378280
C124	C	0.186085	-0.692823	0.878280
C125	C	-0.327460	-1.091645	0.431540
C126	C	0.172540	-0.591645	0.931540
C127	C	-0.382056	-1.091680	0.431549
C128	C	0.117944	-0.591680	0.931549
C129	C	-0.402581	-1.142295	0.404924
C130	C	0.097419	-0.642295	0.904924
O131	O	-0.474187	-1.048724	0.454185
O132	O	0.025813	-0.548724	0.954185
O133	O	-0.449171	-1.235948	0.355670
O134	O	0.050829	-0.735948	0.855670
C135	C	0.036981	-1.142493	0.404992
C136	C	0.536981	-0.642493	0.904992
C137	C	0.095104	-1.142559	0.405016
C138	C	0.595104	-0.642559	0.905016
C139	C	-0.099384	-1.142381	0.541315
C140	C	0.400616	-0.642381	1.041315
C141	C	-0.099372	-1.142399	0.599431
C142	C	0.400628	-0.642399	1.099431
C143	C	-0.071892	-0.348538	0.432574
C144	C	0.428108	0.151462	0.932574
C145	C	-0.060144	-0.436408	0.444346
C146	C	0.439856	0.063592	0.944346
C147	C	-0.099398	-1.142341	0.269094
C148	C	0.400602	-0.642341	0.769094
C149	C	-0.099242	-1.142476	0.210998
C150	C	0.400758	-0.642476	0.710998
C151	C	-0.126025	-1.192945	0.857384
C152	C	0.373975	-0.692945	1.357384
C153	C	-0.126037	-1.192937	0.802778
C154	C	0.373963	-0.692937	1.302778
O155	O	-0.148761	-1.235875	0.780284
O156	O	0.351239	-0.735875	1.280284
N157	N	-0.099344	-1.142417	0.768708
N158	N	0.400656	-0.642417	1.268708
C159	C	-0.072642	-1.091896	0.789244
C160	C	0.427358	-0.591896	1.289244
O161	O	-0.049939	-1.048924	0.755250
O162	O	0.450061	-0.548924	1.255250
C163	C	-0.072634	-1.091901	0.843848
C164	C	0.427366	-0.591901	1.343848
C165	C	-0.099324	-1.142430	0.877917
C166	C	0.400676	-0.642430	1.377917
C167	C	-0.152713	-1.243469	0.891452
C168	C	0.347287	-0.743469	1.391452
C169	C	-0.152700	-1.243478	0.946054
C170	C	0.347300	-0.743478	1.446054
C171	C	-0.125999	-1.192963	0.966587
C172	C	0.374001	-0.692963	1.466587
C173	C	-0.099311	-1.142439	0.932519
C174	C	0.400689	-0.642439	1.432519
C175	C	-0.045935	-1.041377	0.864383
C176	C	0.454065	-0.541377	1.364383
C177	C	-0.045929	-1.041386	0.918991
C178	C	0.454071	-0.541386	1.418991
C179	C	-0.072619	-1.091915	0.953060
C180	C	0.427381	-0.591915	1.453060
C181	C	-0.072596	-1.091933	1.007654
C182	C	0.427404	-0.591933	1.507654
N183	N	-0.099289	-1.142453	1.041725
N184	N	0.400711	-0.642453	1.541725
C185	C	-0.125990	-1.192968	1.021191
C186	C	0.374010	-0.692968	1.521191
C187	C	-0.072663	-1.091889	0.674572
C188	C	0.427337	-0.591889	1.174572
C189	C	-0.072668	-1.091887	0.619970
C190	C	0.427332	-0.591887	1.119970
C191	C	-0.126064	-1.192927	0.633508
C192	C	0.373936	-0.692927	1.133508
C193	C	-0.126055	-1.192932	0.688112
C194	C	0.373945	-0.692932	1.188112
C195	C	-0.099356	-1.142409	0.708643
C196	C	0.400644	-0.642409	1.208643
C197	C	-0.125961	-1.192984	1.135859
C198	C	0.374039	-0.692984	1.635859
C199	C	-0.125943	-1.192991	1.190465
C200	C	0.374057	-0.692991	1.690465
C201	C	-0.072550	-1.091949	1.176922
C202	C	0.427450	-0.591949	1.676922
C203	C	-0.072565	-1.091944	1.122320
C204	C	0.427435	-0.591944	1.622320
C205	C	-0.099274	-1.142465	1.101791
C206	C	0.400726	-0.642465	1.601791
O207	O	-0.049886	-1.049014	1.030186
O208	O	0.450114	-0.549014	1.530186
O209	O	-0.148695	-1.235926	1.055190
O210	O	0.351305	-0.735926	1.555190
H211	H	0.021491	-0.593932	0.526227
H212	H	0.521491	-0.093932	1.026227
H213	H	0.001470	-0.444149	0.506151
H214	H	0.501470	0.055851	1.006151
C215	C	-0.893413	-1.248805	0.349098
C216	C	-0.393413	-0.748805	0.849098
N217	N	-0.910431	-1.290734	0.327045
N218	N	-0.410431	-0.790734	0.827045
C219	C	-0.807187	-1.036268	0.460931
C220	C	-0.307187	-0.536268	0.960931
N221	N	-0.790185	-0.994345	0.483002
N222	N	-0.290185	-0.494345	0.983002
H223	H	-0.147806	-1.234058	0.616780
H224	H	0.352194	-0.734058	1.116780
C225	C	-0.208143	-0.853124	0.295837
C226	C	0.291857	-0.353124	0.795837
N227	N	-0.231245	-0.887295	0.272661
N228	N	0.268755	-0.387295	0.772661
C229	C	-0.562786	-0.985560	0.487523
C230	C	-0.062786	-0.485560	0.987523
N231	N	-0.545782	-0.943632	0.509586
N232	N	-0.045782	-0.443632	1.009586
H233	H	-0.912097	-1.050765	0.453323
H234	H	-0.412097	-0.550765	0.953323
C235	C	-0.276443	-1.248456	0.348972
C236	C	0.223557	-0.748456	0.848972
N237	N	-0.248222	-1.290357	0.326897
N238	N	0.251778	-0.790357	0.826897
C239	C	-0.419532	-1.036045	0.460850
C240	C	0.080468	-0.536045	0.960850
N241	N	-0.447754	-0.994145	0.482925
N242	N	0.052246	-0.494145	0.982925
H243	H	-0.045932	-0.792568	0.458557
H244	H	0.454068	-0.292568	0.958557
H245	H	-0.147706	-1.234128	1.119151
H246	H	0.352294	-0.734128	1.619151
C247	C	-0.155420	-1.248511	0.725582
C248	C	0.344580	-0.748511	1.225582
N249	N	-0.177541	-1.290374	0.753803
N250	N	0.322459	-0.790374	1.253803
H251	H	0.004648	-0.717735	0.509315
H252	H	0.504648	-0.217735	1.009315
H253	H	-0.152756	-0.492916	0.351412
H254	H	0.347244	0.007084	0.851412
H255	H	-0.788486	-1.234291	0.356681
H256	H	-0.288486	-0.734291	0.856681
C257	C	-0.016577	-0.985786	0.826917
C258	C	0.483423	-0.485786	1.326917
N259	N	0.005536	-0.943909	0.798699
N260	N	0.505536	-0.443909	1.298699
C261	C	-0.043202	-1.036364	1.084844
C262	C	0.456798	-0.536364	1.584844
N263	N	-0.021090	-0.994494	1.056619
N264	N	0.478910	-0.494494	1.556619
C265	C	-0.304867	-1.035989	0.460827
C266	C	0.195133	-0.535989	0.960827
N267	N	-0.287847	-0.994073	0.482890
N268	N	0.212153	-0.494073	0.982890
C269	C	-0.016555	-0.985808	0.941571
C270	C	0.483445	-0.485808	1.441571
N271	N	0.005572	-0.943949	0.958578
N272	N	0.505572	-0.443949	1.458578
C273	C	-0.043302	-1.036308	0.582500
C274	C	0.456698	-0.536308	1.082500
N275	N	-0.021185	-0.994440	0.554279
N276	N	0.478815	-0.494440	1.054279
C277	C	-0.043280	-1.036317	0.697152
C278	C	0.456720	-0.536317	1.197152
N279	N	-0.021149	-0.994461	0.714157
N280	N	0.478851	-0.494461	1.214157
C281	C	-0.182074	-1.299063	0.868878
C282	C	0.317926	-0.799063	1.368878
N283	N	-0.204183	-1.340951	0.851881
N284	N	0.295817	-0.840951	1.351881
H285	H	-0.174436	-1.284622	0.973789
H286	H	0.325564	-0.784622	1.473789
C287	C	-0.635469	-1.299259	0.322417
C288	C	-0.135469	-0.799259	0.822417
N289	N	-0.652468	-1.341185	0.300347
N290	N	-0.152468	-0.841185	0.800347
H291	H	-0.667697	-1.000062	0.479926
H292	H	-0.167697	-0.500062	0.979926
C293	C	-0.043181	-1.036384	1.199519
C294	C	0.456819	-0.536384	1.699519
N295	N	-0.021063	-0.994529	1.216540
N296	N	0.478937	-0.494529	1.716540
C297	C	-0.520833	-1.299189	0.322390
C298	C	-0.020833	-0.799189	0.822390
N299	N	-0.492616	-1.341090	0.300311
N300	N	0.007384	-0.841090	0.800311
C301	C	-0.214469	-0.555929	0.289521
C302	C	0.285531	-0.055929	0.789521
N303	N	-0.246713	-0.521693	0.257183
N304	N	0.253287	-0.021693	0.757183
H305	H	-0.078991	-0.841470	0.425397
H306	H	0.421009	-0.341470	0.925397
H307	H	-0.119709	-0.443999	0.384589
H308	H	0.380291	0.056001	0.884589
H309	H	-0.147677	-1.234141	1.218203
H310	H	0.352323	-0.734141	1.718203
C311	C	-0.231312	-0.679737	0.272606
C312	C	0.268688	-0.179737	0.772606
N313	N	-0.263552	-0.645499	0.240264
N314	N	0.236448	-0.145499	0.740264
C315	C	-0.391085	-1.248535	0.348998
C316	C	0.108915	-0.748535	0.848998
N317	N	-0.408085	-1.290464	0.326931
N318	N	0.091915	-0.790464	0.826931
