data_functionalizedCrystal
_audit_creation_method	'MofGen! by Chris Wilmer'
_symmetry_space_group_name_H-M	'P1'
_symmetry_Int_Tables_number	1
_symmetry_cell_setting	triclinic
loop_
_symmetry_equiv_pos_as_xyz
  x,y,z
_cell_length_a	10.654551
_cell_length_b	11.026607
_cell_length_c	9.482900
_cell_angle_alpha	78.617830
_cell_angle_beta	80.597118
_cell_angle_gamma	83.464356
loop_
_atom_site_label
_atom_site_type_symbol
_atom_site_fract_x
_atom_site_fract_y
_atom_site_fract_z
O1	O	1.720261	-0.151942	-0.120872
O2	O	1.358315	-0.168209	-0.120879
O3	O	1.509289	0.016829	-0.120871
O4	O	1.569286	-0.336980	-0.120880
O5	O	1.478564	-0.020834	0.120920
O6	O	1.327589	-0.205873	0.120912
O7	O	1.689536	-0.189605	0.120919
Cu8	Cu	1.505757	-0.201178	0.142993
Cu9	Cu	1.542093	-0.156636	-0.142953
O10	O	1.538561	-0.374644	0.120911
C11	C	1.295895	-0.185846	0.000016
C12	C	1.155676	-0.182271	0.000013
C13	C	0.941299	-0.197750	0.131815
C14	C	1.073051	-0.201120	0.131816
C15	C	1.106545	-0.160064	-0.131798
C16	C	0.974796	-0.156703	-0.131797
C17	C	0.858679	-0.216588	0.263626
C18	C	0.907801	-0.238798	0.395438
C19	C	1.039553	-0.242167	0.395439
C20	C	1.122182	-0.223327	0.263627
C21	C	1.482859	0.043302	0.000023
C22	C	1.449865	0.178295	0.000017
C23	C	1.751956	-0.171968	0.000021
C24	C	1.892176	-0.175541	0.000014
C25	C	1.564992	-0.401116	0.000014
C26	C	1.597987	-0.536107	0.000010
N27	N	1.480209	-0.232505	0.344112
C28	C	1.540968	0.251334	0.000017
C29	C	1.506870	0.390856	0.000011
N30	N	1.567649	-0.125300	-0.344071
C31	C	1.513311	-0.191935	0.583726
C32	C	1.534555	-0.165860	0.416310
H33	H	0.840517	-0.254146	0.502754
H34	H	1.079545	-0.260264	0.502766
H35	H	1.403623	0.431613	-0.000001
Cl36	Cl	1.287815	-0.227575	0.263633
H37	H	1.629892	-0.048943	0.593802
Cl38	Cl	1.210421	-0.136372	-0.297491
H39	H	0.934800	-0.138622	-0.239121
H40	H	0.751398	-0.213845	0.263641
Cl41	Cl	1.757397	0.400983	0.000007
Cl42	Cl	1.700371	0.188415	0.000011
Cl43	Cl	1.290465	0.241218	-0.000000
H44	H	1.451055	-0.268283	0.645851
Cl45	Cl	1.630662	-0.047964	0.320407
Cl46	Cl	1.384087	-0.350389	0.440015
