data_functionalizedCrystal
_audit_creation_method	'MofGen! by Chris Wilmer'
_symmetry_space_group_name_H-M	'P1'
_symmetry_Int_Tables_number	1
_symmetry_cell_setting	triclinic
loop_
_symmetry_equiv_pos_as_xyz
  x,y,z
_cell_length_a	23.532407
_cell_length_b	23.532407
_cell_length_c	14.750779
_cell_angle_alpha	77.433997
_cell_angle_beta	102.563622
_cell_angle_gamma	82.848712
loop_
_atom_site_label
_atom_site_type_symbol
_atom_site_fract_x
_atom_site_fract_y
_atom_site_fract_z
O1	O	0.742834	0.081554	-0.079778
O2	O	0.576968	0.091560	-0.079794
O3	O	0.664906	0.003622	-0.079768
O4	O	0.654897	0.169491	-0.079804
O5	O	0.689764	-0.021234	0.079890
O6	O	0.601827	0.066704	0.079863
O7	O	0.767693	0.056698	0.079880
Zn8	Zn	0.688707	0.057754	0.105221
Zn9	Zn	0.655954	0.090503	-0.105135
O10	O	0.679756	0.144635	0.079853
C11	C	0.568181	0.078877	0.000033
C12	C	0.504963	0.078112	0.000027
C13	C	0.238802	0.022911	0.000065
C14	C	0.298202	0.023622	0.000065
O15	O	0.334953	-0.020170	0.000108
N16	N	0.320826	0.075901	0.000047
C17	C	0.284047	0.127471	0.000039
O18	O	0.308744	0.172004	0.000025
C19	C	0.224649	0.126758	0.000046
C20	C	0.202027	0.074477	0.000055
C21	C	0.216180	-0.029366	0.000074
C22	C	0.156784	-0.030077	0.000073
C23	C	0.120009	0.021489	0.000062
C24	C	0.142631	0.073766	0.000053
C25	C	0.187872	0.178325	0.000045
C26	C	0.128471	0.177608	0.000053
C27	C	0.105850	0.125327	0.000062
C28	C	0.046460	0.124621	0.000041
N29	N	0.023837	0.072342	0.000059
C30	C	0.060611	0.020776	0.000070
C31	C	0.408787	0.128964	0.000025
C32	C	0.468183	0.129679	0.000011
C33	C	0.482334	0.025830	0.000039
C34	C	0.422937	0.025117	0.000046
C35	C	0.386164	0.076685	0.000043
C36	C	-0.064126	0.019287	0.000066
C37	C	-0.123529	0.018581	0.000061
C38	C	-0.137675	0.122429	0.000038
C39	C	-0.078278	0.123136	0.000038
C40	C	-0.041504	0.071559	0.000056
O41	O	0.009675	0.168390	0.000002
O42	O	0.035908	-0.023752	0.000097
C43	C	0.677081	-0.030022	0.000063
C44	C	0.676316	-0.093240	0.000071
C45	C	0.723542	-0.492336	0.000023
C46	C	0.722829	-0.551735	0.000015
O47	O	0.766610	-0.588475	-0.000016
N48	N	0.670552	-0.574360	0.000011
C49	C	0.618983	-0.537582	0.000004
O50	O	0.574452	-0.562281	-0.000002
C51	C	0.619695	-0.478183	0.000004
C52	C	0.671977	-0.455562	0.000019
C53	C	0.775819	-0.469715	0.000036
C54	C	0.776532	-0.410320	0.000045
C55	C	0.724967	-0.373546	0.000041
C56	C	0.672690	-0.396168	0.000028
C57	C	0.568125	-0.441404	-0.000010
C58	C	0.568842	-0.382002	-0.000010
C59	C	0.621124	-0.359381	0.000005
C60	C	0.621837	-0.299999	0.000033
N61	N	0.674115	-0.277374	0.000037
C62	C	0.725679	-0.314147	0.000041
C63	C	0.617491	-0.662324	0.000001
C64	C	0.616780	-0.721723	0.000007
C65	C	0.720626	-0.735872	0.000017
C66	C	0.721338	-0.676473	0.000018
C67	C	0.669768	-0.639698	0.000006
C68	C	0.727172	-0.189414	0.000061
C69	C	0.727881	-0.130014	0.000075
C70	C	0.624034	-0.115869	0.000060
C71	C	0.623326	-0.175265	0.000052
C72	C	0.674899	-0.212036	0.000049
O73	O	0.578079	-0.263224	0.000060
O74	O	0.770201	-0.289438	0.000034
C75	C	0.776480	0.069381	0.000051
C76	C	0.839697	0.070147	0.000050
C77	C	0.667580	0.178280	0.000020
C78	C	0.668344	0.241499	0.000006
N79	N	0.711064	0.035404	0.248783
N80	N	0.633602	0.112850	-0.248698
C81	C	0.571162	0.175247	0.600559
C82	C	0.586833	0.159588	0.701063
C83	C	0.664717	0.081748	0.701049
C84	C	0.649051	0.097398	0.600543
C85	C	0.602274	0.144148	0.550306
C86	C	0.680163	0.066300	0.550290
C87	C	0.664500	0.081950	0.449793
C88	C	0.617726	0.128700	0.399549
C89	C	0.586611	0.159799	0.449809
C90	C	0.726943	0.019553	0.600529
C91	C	0.758055	-0.011546	0.550276
C92	C	0.742389	0.004102	0.449777
C93	C	0.695615	0.050851	0.399533
C94	C	0.773504	-0.026997	0.399517
C95	C	0.757841	-0.011346	0.299020
C96	C	0.679952	0.066502	0.299036
H97	H	0.206279	0.220899	0.000034
C98	C	0.784697	-0.105558	0.000036
C99	C	0.829697	-0.150476	0.000009
C100	C	0.882039	-0.127969	-0.000042
H101	H	0.795885	-0.091362	0.055700
H102	H	0.778493	-0.074020	-0.055659
H103	H	0.835901	-0.182004	0.055699
H104	H	0.818529	-0.164676	-0.055651
H105	H	0.875835	-0.096431	-0.055737
H106	H	0.893221	-0.113774	0.055623
H107	H	0.912576	-0.158441	-0.000069
H108	H	0.404523	-0.017455	0.000053
H109	H	0.796143	-0.049609	0.591191
C110	C	-0.177612	0.178460	-0.000169
C111	C	-0.180245	0.222748	-0.082325
C112	C	-0.217036	0.274369	-0.082548
H113	H	-0.162160	0.191320	0.055439
H114	H	-0.216242	0.170575	-0.000216
H115	H	-0.141622	0.230634	-0.082269
H116	H	-0.195702	0.209908	-0.137947
H117	H	-0.255666	0.266483	-0.082595
H118	H	-0.201581	0.287223	-0.026936
H119	H	-0.218832	0.304423	-0.138294
C120	C	0.824323	-0.077754	0.453893
C121	C	0.848225	-0.101633	0.388373
C122	C	0.895044	-0.148388	0.438427
H123	H	0.810149	-0.107516	0.493112
H124	H	0.854052	-0.063504	0.493065
H125	H	0.818502	-0.115884	0.349217
H126	H	0.862412	-0.071886	0.349152
H127	H	0.924773	-0.134138	0.477599
H128	H	0.880864	-0.178146	0.477644
H129	H	0.911271	-0.164592	0.393979
C130	C	0.559951	-0.746162	-0.000046
C131	C	0.514946	-0.701233	-0.000071
C132	C	0.462583	-0.723718	-0.000139
H133	H	0.566096	-0.777701	0.055611
H134	H	0.548809	-0.760343	-0.055748
H135	H	0.526087	-0.687061	0.055626
H136	H	0.508783	-0.669690	-0.055724
H137	H	0.451441	-0.737899	-0.055842
H138	H	0.468734	-0.755258	0.055519
H139	H	0.432040	-0.693237	-0.000165
H140	H	0.246117	-0.071360	0.000086
H141	H	0.783176	-0.036670	0.258104
H142	H	-0.059859	0.165707	0.000031
H143	H	0.526846	-0.352062	-0.000021
C144	C	-0.024310	-0.036762	0.000026
C145	C	-0.056849	-0.082686	0.000006
C146	C	-0.020194	-0.134322	-0.000052
H147	H	0.007840	-0.047397	0.055685
H148	H	-0.009528	-0.030003	-0.055675
H149	H	-0.071622	-0.089445	0.055701
H150	H	-0.088997	-0.072070	-0.055649
H151	H	-0.005413	-0.127563	-0.055753
H152	H	0.011954	-0.144952	0.055607
H153	H	-0.042268	-0.165486	-0.000075
C154	C	0.715451	0.030917	0.755479
C155	C	0.702723	-0.021191	0.731024
C156	C	0.749445	-0.068031	0.781135
H157	H	0.720364	0.025968	0.822543
H158	H	0.750866	0.039436	0.738980
H159	H	0.667317	-0.029709	0.747530
H160	H	0.697815	-0.016262	0.663969
H161	H	0.784861	-0.059512	0.764637
H162	H	0.754355	-0.072974	0.848197
H163	H	0.740818	-0.103390	0.764544
H164	H	0.763910	-0.658060	0.000028
C165	C	0.088550	0.233551	0.000243
C166	C	0.066838	0.223395	0.082395
C167	C	0.030069	0.274919	0.082605
H168	H	0.056370	0.244148	-0.055368
H169	H	0.110522	0.264794	0.000289
H170	H	0.044867	0.192162	0.082340
H171	H	0.099005	0.212807	0.138020
H172	H	0.052040	0.306162	0.082651
H173	H	-0.002108	0.285511	0.026990
H174	H	0.015337	0.268037	0.138348
H175	H	0.819105	-0.391908	0.000053
C176	C	0.783147	-0.229422	0.000214
C177	C	0.798555	-0.276740	0.082339
C178	C	0.850111	-0.313612	0.082513
H179	H	0.814434	-0.207515	0.000274
H180	H	0.776374	-0.244252	-0.055435
H181	H	0.805331	-0.261911	0.137974
H182	H	0.767282	-0.298662	0.082297
H183	H	0.843338	-0.328442	0.026863
H184	H	0.881394	-0.291700	0.082570
H185	H	0.860569	-0.345725	0.138228
C186	C	0.831880	-0.509548	0.000094
C187	C	0.877811	-0.477015	0.000129
C188	C	0.929469	-0.513689	0.000204
H189	H	0.825185	-0.524361	-0.055564
H190	H	0.842466	-0.541680	0.055795
H191	H	0.867226	-0.444895	-0.055566
H192	H	0.884524	-0.462204	0.055783
H193	H	0.940055	-0.545821	0.055906
H194	H	0.922768	-0.528500	-0.055455
H195	H	0.960640	-0.491623	0.000237
H196	H	0.138372	-0.072650	0.000084
H197	H	0.378848	0.170961	0.000016
H198	H	0.739695	0.006814	0.682360
C199	C	0.561486	-0.622344	-0.000195
C200	C	0.546055	-0.575042	-0.082346
C201	C	0.494462	-0.538208	-0.082567
H202	H	0.568206	-0.607487	0.055417
H203	H	0.530229	-0.644302	-0.000248
H204	H	0.577305	-0.553086	-0.082284
H205	H	0.539322	-0.589881	-0.137971
H206	H	0.463206	-0.560167	-0.082620
H207	H	0.501188	-0.523356	-0.026951
H208	H	0.483983	-0.506113	-0.138309
H209	H	0.762612	-0.765823	0.000017
H210	H	-0.141944	-0.023994	0.000065
H211	H	0.641857	0.104567	0.258131
C212	C	0.522211	-0.030147	-0.000138
C213	C	0.499254	-0.048855	-0.082280
C214	C	0.535977	-0.100411	-0.082483
H215	H	0.524081	-0.060323	0.055480
H216	H	0.560826	-0.022247	-0.000192
H217	H	0.460649	-0.056758	-0.082217
H218	H	0.497385	-0.018695	-0.137912
H219	H	0.574592	-0.092511	-0.082536
H220	H	0.537845	-0.130582	-0.026861
H221	H	0.520409	-0.113108	-0.138218
H222	H	0.486593	0.172254	-0.000009
H223	H	0.604976	0.141444	0.317718
H224	H	0.525551	-0.459810	-0.000027
H225	H	0.582052	-0.085918	0.000060
C226	C	0.535823	0.210592	0.395430
C227	C	0.511933	0.234488	0.460946
C228	C	0.465155	0.281282	0.410887
H229	H	0.506073	0.196395	0.356230
H230	H	0.550053	0.240331	0.356238
H231	H	0.497702	0.204755	0.500121
H232	H	0.541668	0.248698	0.500148
H233	H	0.479384	0.311021	0.371695
H234	H	0.435409	0.267080	0.371689
H235	H	0.448943	0.297505	0.455332
C236	C	0.552954	0.193403	0.755451
C237	C	0.508627	0.237682	0.689941
C238	C	0.477402	0.268836	0.740008
H239	H	0.579344	0.210958	0.794654
H240	H	0.535442	0.166943	0.794640
H241	H	0.526139	0.264137	0.650769
H242	H	0.482225	0.220143	0.650737
H243	H	0.459890	0.242376	0.779197
H244	H	0.503796	0.286387	0.779209
H245	H	0.447319	0.298879	0.695567
H246	H	0.580758	-0.193687	0.000067
H247	H	0.533068	0.213311	0.559654
