data_functionalizedCrystal
_audit_creation_method	'MofGen! by Chris Wilmer'
_symmetry_space_group_name_H-M	'P1'
_symmetry_Int_Tables_number	1
_symmetry_cell_setting	triclinic
loop_
_symmetry_equiv_pos_as_xyz
  x,y,z
_cell_length_a	10.967874
_cell_length_b	13.930277
_cell_length_c	11.026607
_cell_angle_alpha	89.992680
_cell_angle_beta	96.380181
_cell_angle_gamma	102.135369
loop_
_atom_site_label
_atom_site_type_symbol
_atom_site_fract_x
_atom_site_fract_y
_atom_site_fract_z
O1	O	1.694028	0.360066	0.170449
O2	O	1.334391	0.300574	0.186783
O3	O	1.484403	0.325386	0.001716
O4	O	1.544016	0.335254	0.355516
O5	O	1.484381	0.165721	0.001744
O6	O	1.334370	0.140909	0.186811
O7	O	1.694006	0.200401	0.170478
Zn8	Zn	1.514184	0.145304	0.178649
Zn9	Zn	1.514213	0.355670	0.178611
O10	O	1.543994	0.175589	0.355545
C11	C	1.287624	0.213007	0.185611
C12	C	1.148300	0.189959	0.182061
N13	N	1.514174	0.001737	0.178674
C14	C	1.086196	0.262396	0.180464
C15	C	0.942198	0.238577	0.176796
C16	C	1.606617	-0.435229	0.252999
C17	C	1.421836	-0.465789	0.104175
C18	C	1.421821	-0.365295	0.104194
C19	C	1.514207	-0.299764	0.178616
C20	C	1.606608	-0.334725	0.253018
C21	C	1.329430	-0.330325	0.029784
C22	C	1.329412	-0.229826	0.029800
C23	C	1.421794	-0.164293	0.104229
C24	C	1.514198	-0.199260	0.178635
C25	C	1.606584	-0.133729	0.253057
C26	C	1.698983	-0.168695	0.327470
C27	C	1.698990	-0.269193	0.327447
C28	C	1.421787	-0.063795	0.104252
C29	C	1.606574	-0.033225	0.253076
C30	C	1.740774	0.287970	0.171650
C31	C	1.880097	0.311024	0.175199
C32	C	1.473395	0.243735	-0.043572
C33	C	1.440611	0.238315	-0.178558
N34	N	1.514231	0.499240	0.178577
C35	C	1.531133	0.253291	-0.251613
C36	C	1.497251	0.247690	-0.391128
C37	C	1.555002	0.257242	0.400832
C38	C	1.587786	0.262668	0.535818
H39	H	0.888766	0.158923	0.175454
O40	O	1.706224	0.037448	0.333352
H41	H	1.660951	0.075720	0.398175
O42	O	1.361357	0.225214	-0.445075
H43	H	1.314161	0.152332	-0.414285
O44	O	1.077725	0.084402	0.180403
H45	H	1.110415	0.048176	0.263823
O46	O	1.723684	0.285151	-0.410247
H47	H	1.742938	0.223256	-0.353096
H48	H	1.774208	-0.115325	0.388059
O49	O	1.798643	-0.306911	0.407694
H50	H	1.862878	-0.244464	0.459459
O51	O	1.706288	-0.472930	0.333243
H52	H	1.690788	-0.553820	0.320723
H53	H	1.139634	0.342045	0.181819
O54	O	1.304722	0.215830	-0.232506
H55	H	1.299435	0.214949	-0.333621
H56	H	0.933529	0.390679	0.176555
O57	O	1.322191	-0.536461	0.023909
H58	H	1.337718	-0.612218	0.036400
H59	H	1.254222	-0.383685	-0.030816
O60	O	1.229749	-0.192113	-0.050441
H61	H	1.165505	-0.254567	-0.102186
H62	H	1.346560	-0.035329	0.043662
H63	H	1.633715	0.270255	-0.210871
