data_functionalizedCrystal
_audit_creation_method	'MofGen! by Chris Wilmer'
_symmetry_space_group_name_H-M	'P1'
_symmetry_Int_Tables_number	1
_symmetry_cell_setting	triclinic
loop_
_symmetry_equiv_pos_as_xyz
  x,y,z
_cell_length_a	12.759401
_cell_length_b	12.759394
_cell_length_c	12.759393
_cell_angle_alpha	90.029526
_cell_angle_beta	90.019676
_cell_angle_gamma	90.014282
loop_
_atom_site_label
_atom_site_type_symbol
_atom_site_fract_x
_atom_site_fract_y
_atom_site_fract_z
Zn1	Zn	1.606273	-0.418204	0.593992
Zn2	Zn	2.106273	0.081796	1.093992
Zn3	Zn	1.606166	-0.593919	0.418315
Zn4	Zn	2.106166	-0.093919	0.918315
Zn5	Zn	1.430571	-0.418256	0.418331
Zn6	Zn	1.930571	0.081744	0.918331
Zn7	Zn	1.430566	-0.593843	0.593956
Zn8	Zn	1.930566	-0.093843	1.093956
O9	O	1.518394	-0.506055	0.506148
O10	O	2.018394	-0.006055	1.006148
O11	O	1.753279	-0.441523	0.570696
O12	O	2.253279	0.058477	1.070696
O13	O	1.582831	-0.570671	0.271296
O14	O	2.082831	-0.070671	0.771296
O15	O	1.453925	-0.271228	0.441654
O16	O	1.953925	0.228772	0.941654
O17	O	1.753201	-0.570620	0.441627
O18	O	2.253201	-0.070620	0.941627
O19	O	1.583012	-0.271190	0.570712
O20	O	2.083012	0.228810	1.070712
O21	O	1.453822	-0.441612	0.271308
O22	O	1.953822	0.058388	0.771308
O23	O	1.283549	-0.441538	0.441620
O24	O	1.783549	0.058462	0.941620
O25	O	1.453916	-0.570490	0.740982
O26	O	1.953916	-0.070490	1.240982
O27	O	1.283545	-0.570541	0.570651
O28	O	1.783545	-0.070541	1.070651
O29	O	1.583007	-0.441448	0.741008
O30	O	2.083007	0.058552	1.241008
O31	O	1.582826	-0.740930	0.441592
O32	O	2.082826	-0.240930	0.941592
O33	O	1.453813	-0.740874	0.570635
O34	O	1.953813	-0.240874	1.070635
C35	C	1.245427	-0.506037	0.506134
C36	C	1.745427	-0.006037	1.006134
C37	C	1.128650	-0.506055	0.506152
C38	C	1.628650	-0.006055	1.006152
C39	C	1.073829	-0.438955	0.573462
C40	C	1.573829	0.061045	1.073462
C41	C	0.964105	-0.438966	0.573469
C42	C	1.464105	0.061034	1.073469
C43	C	0.964032	-0.573185	0.438853
C44	C	1.464032	-0.073185	0.938853
C45	C	1.073754	-0.573168	0.438842
C46	C	1.573754	-0.073168	0.938842
C47	C	1.518336	-0.779023	0.506131
C48	C	2.018336	-0.279023	1.006131
C49	C	1.518407	-0.895800	0.506159
C50	C	2.018407	-0.395800	1.006159
C51	C	1.652724	-0.895601	0.640647
C52	C	2.152724	-0.395601	1.140647
C53	C	1.719916	-0.950363	0.707899
C54	C	2.219916	-0.450363	1.207899
C55	C	1.719979	-1.060084	0.707922
C56	C	2.219979	-0.560084	1.207922
C57	C	1.652840	-1.115047	0.640687
C58	C	2.152840	-0.615047	1.140687
C59	C	1.585648	-1.060285	0.573435
C60	C	2.085648	-0.560285	1.073435
C61	C	1.585595	-0.950561	0.573418
C62	C	2.085595	-0.450561	1.073418
C63	C	1.451326	-1.060484	0.438954
C64	C	1.951326	-0.560484	0.938954
C65	C	1.451268	-0.950762	0.438924
C66	C	1.951268	-0.450762	0.938924
C67	C	1.384187	-1.115446	0.371720
C68	C	1.884187	-0.615446	0.871720
C69	C	1.316999	-1.060685	0.304461
C70	C	1.816999	-0.560685	0.804461
C71	C	1.316940	-0.950956	0.304440
C72	C	1.816940	-0.450956	0.804440
C73	C	1.384076	-0.896001	0.371672
C74	C	1.884076	-0.396001	0.871672
C75	C	1.792427	-0.506074	0.506164
C76	C	2.292427	-0.006074	1.006164
C77	C	1.909204	-0.506082	0.506171
C78	C	2.409204	-0.006082	1.006171
C79	C	1.518473	-0.505955	0.780182
C80	C	2.018473	-0.005955	1.280182
C81	C	1.518506	-0.505912	0.896959
C82	C	2.018506	-0.005912	1.396959
C83	C	1.518481	-0.232022	0.506189
C84	C	2.018481	0.267978	1.006189
C85	C	1.518518	-0.115245	0.506206
C86	C	2.018518	0.384755	1.006206
C87	C	1.518376	-0.506080	0.233181
C88	C	2.018376	-0.006080	0.733181
C89	C	1.518546	-0.505827	0.116405
C90	C	2.018546	-0.005827	0.616405
C91	C	1.585729	-0.438709	0.951836
C92	C	2.085729	0.061291	1.451836
C93	C	1.585746	-0.438664	1.061560
C94	C	2.085746	0.061336	1.561560
C95	C	1.451316	-0.573033	1.061520
C96	C	1.951316	-0.073033	1.561520
C97	C	1.451294	-0.573072	0.951798
C98	C	1.951294	-0.073072	1.451798
H99	H	0.919475	-0.384325	0.628278
H100	H	1.419475	0.115675	1.128278
H101	H	1.640454	-0.384020	0.907189
H102	H	2.140454	0.115980	1.407189
Cl103	Cl	1.804446	-1.128931	0.792470
Cl104	Cl	2.304446	-0.628931	1.292470
H105	H	1.652888	-1.204388	0.640721
H106	H	2.152888	-0.704388	1.140721
Cl107	Cl	1.366772	-0.657556	0.882804
Cl108	Cl	1.866772	-0.157556	1.382804
H109	H	1.262221	-0.906375	0.249679
H110	H	1.762221	-0.406375	0.749679
Cl111	Cl	1.384410	-1.253383	0.371604
Cl112	Cl	1.884410	-0.753383	0.871604
Cl113	Cl	1.670268	-0.354186	1.130544
Cl114	Cl	2.170268	0.145814	1.630544
H115	H	1.118522	-0.384304	0.628267
H116	H	1.618522	0.115696	1.128267
Cl117	Cl	0.895013	-0.657555	0.354243
Cl118	Cl	1.395013	-0.157555	0.854243
H119	H	1.262335	-1.105444	0.249729
H120	H	1.762335	-0.605444	0.749729
Cl121	Cl	1.366831	-0.657463	1.130468
Cl122	Cl	1.866831	-0.157463	1.630468
Cl123	Cl	1.383991	-0.758064	0.371669
Cl124	Cl	1.883991	-0.258064	0.871669
H125	H	1.652690	-0.806260	0.640625
H126	H	2.152690	-0.306260	1.140625
Cl127	Cl	1.142677	-0.657518	0.354206
Cl128	Cl	1.642677	-0.157518	0.854206
Cl129	Cl	1.804305	-0.881263	0.792427
Cl130	Cl	2.304305	-0.381263	1.292427
