data_functionalizedCrystal
_audit_creation_method	'MofGen! by Chris Wilmer'
_symmetry_space_group_name_H-M	'P1'
_symmetry_Int_Tables_number	1
_symmetry_cell_setting	triclinic
loop_
_symmetry_equiv_pos_as_xyz
  x,y,z
_cell_length_a	13.032831
_cell_length_b	25.639239
_cell_length_c	13.032268
_cell_angle_alpha	97.141717
_cell_angle_beta	90.886977
_cell_angle_gamma	82.842759
loop_
_atom_site_label
_atom_site_type_symbol
_atom_site_fract_x
_atom_site_fract_y
_atom_site_fract_z
Zn1	Zn	1.498234	-0.353075	-0.780741
Zn2	Zn	1.998234	0.146925	-0.280741
Zn3	Zn	1.519922	-0.430970	-0.608740
Zn4	Zn	2.019922	0.069030	-0.108740
Zn5	Zn	1.348108	-0.331235	-0.586988
Zn6	Zn	1.848108	0.168765	-0.086988
Zn7	Zn	1.326172	-0.428143	-0.758866
Zn8	Zn	1.826172	0.071857	-0.258866
O9	O	1.423109	-0.385856	-0.683834
O10	O	1.923109	0.114144	-0.183834
O11	O	1.645024	-0.373731	-0.776183
O12	O	2.145024	0.126269	-0.276183
O13	O	1.515387	-0.409782	-0.461940
O14	O	2.015387	0.090218	0.038060
O15	O	1.368126	-0.260977	-0.612741
O16	O	1.868126	0.239023	-0.112741
O17	O	1.660959	-0.430960	-0.649815
O18	O	2.160959	0.069040	-0.149815
O19	O	1.478423	-0.277023	-0.755090
O20	O	1.978423	0.222977	-0.255090
O21	O	1.389156	-0.336508	-0.445959
O22	O	1.889156	0.163492	0.054041
O23	O	1.201284	-0.333767	-0.591530
O24	O	1.701284	0.166233	-0.091530
O25	O	1.330740	-0.426142	-0.905683
O26	O	1.830740	0.073858	-0.405683
O27	O	1.185169	-0.404965	-0.717808
O28	O	1.685169	0.095035	-0.217808
O29	O	1.457153	-0.370990	-0.921754
O30	O	1.957153	0.129010	-0.421754
O31	O	1.494117	-0.503750	-0.628604
O32	O	1.994117	-0.003750	-0.128604
O33	O	1.351770	-0.501673	-0.738901
O34	O	1.851770	-0.001673	-0.238901
C35	C	1.155911	-0.366689	-0.649935
C36	C	1.655911	0.133311	-0.149935
C37	C	1.041600	-0.358504	-0.635458
C38	C	1.541600	0.141496	-0.135458
C39	C	0.982702	-0.390128	-0.691390
C40	C	1.482702	0.109872	-0.191390
C41	C	0.864555	-0.381668	-0.676428
C42	C	1.364555	0.118332	-0.176428
C43	C	1.422942	-0.521683	-0.683765
C44	C	1.922942	-0.021683	-0.183765
C45	C	1.422960	-0.579799	-0.683782
C46	C	1.922960	-0.079799	-0.183782
C47	C	1.497387	-0.941263	-0.626536
C48	C	1.997387	-0.441263	-0.126536
C49	C	1.497425	-0.995870	-0.626555
C50	C	1.997425	-0.495870	-0.126555
O51	O	1.560532	-1.025027	-0.577808
O52	O	2.060532	-0.525027	-0.077808
N53	N	1.423281	-1.022111	-0.683925
N54	N	1.923281	-0.522111	-0.183925
C55	C	1.349101	-0.993742	-0.741288
C56	C	1.849101	-0.493742	-0.241288
O57	O	1.286040	-1.021077	-0.790088
O58	O	1.786040	-0.521077	-0.290088
C59	C	1.349068	-0.939136	-0.741275
C60	C	1.849068	-0.439136	-0.241275
C61	C	1.423210	-0.912897	-0.683893
C62	C	1.923210	-0.412897	-0.183893
C63	C	1.571523	-0.915024	-0.569160
C64	C	2.071523	-0.415024	-0.069160
C65	C	1.571484	-0.860419	-0.569140
C66	C	2.071484	-0.360419	-0.069140
C67	C	1.497307	-0.832054	-0.626496
C68	C	1.997307	-0.332054	-0.126496
C69	C	1.423171	-0.858293	-0.683872
C70	C	1.923171	-0.358293	-0.183872
C71	C	1.274894	-0.910769	-0.798643
C72	C	1.774894	-0.410769	-0.298643
C73	C	1.274868	-0.856159	-0.798625
C74	C	1.774868	-0.356159	-0.298625
C75	C	1.349010	-0.829920	-0.741243
C76	C	1.849010	-0.329920	-0.241243
C77	C	1.348955	-0.775323	-0.741209
C78	C	1.848955	-0.275323	-0.241209
N79	N	1.423098	-0.749082	-0.683839
N80	N	1.923098	-0.249082	-0.183839
C81	C	1.497275	-0.777448	-0.626482
C82	C	1.997275	-0.277448	-0.126482
C83	C	1.349176	-1.108419	-0.741314
C84	C	1.849176	-0.608419	-0.241314
C85	C	1.349204	-1.163024	-0.741322
C86	C	1.849204	-0.663024	-0.241322
C87	C	1.497529	-1.165149	-0.626590
C88	C	1.997529	-0.665149	-0.126590
C89	C	1.497496	-1.110542	-0.626577
C90	C	1.997496	-0.610542	-0.126577
C91	C	1.423320	-1.082179	-0.683944
C92	C	1.923320	-0.582179	-0.183944
C93	C	1.497185	-0.662774	-0.626444
C94	C	1.997185	-0.162774	-0.126444
C95	C	1.497137	-0.608165	-0.626425
C96	C	1.997137	-0.108165	-0.126425
C97	C	1.348815	-0.606046	-0.741161
C98	C	1.848815	-0.106046	-0.241161
C99	C	1.348860	-0.660650	-0.741176
C100	C	1.848860	-0.160650	-0.241176
C101	C	1.423054	-0.689013	-0.683815
C102	C	1.923054	-0.189013	-0.183815
O103	O	1.285883	-0.746133	-0.789934
O104	O	1.785883	-0.246133	-0.289934
O105	O	1.560333	-0.750108	-0.577701
O106	O	2.060333	-0.250108	-0.077701
C107	C	1.691350	-0.405097	-0.717865
C108	C	2.191350	0.094903	-0.217865
C109	C	1.805658	-0.413297	-0.732368
C110	C	2.305658	0.086703	-0.232368
C111	C	1.389080	-0.400687	-0.952077
C112	C	1.889080	0.099313	-0.452077
C113	C	1.374579	-0.407007	-1.066386
C114	C	1.874579	0.092993	-0.566386
C115	C	1.423302	-0.249501	-0.683929
C116	C	1.923302	0.250499	-0.183929
C117	C	1.423384	-0.191395	-0.683970
C118	C	1.923384	0.308605	-0.183970
C119	C	1.430661	-0.382537	-1.125301
C120	C	1.930661	0.117463	-0.625301
C121	C	1.415675	-0.389069	-1.243446
C122	C	1.915675	0.110931	-0.743446
C123	C	1.457064	-0.371048	-0.416642
C124	C	1.957064	0.128952	0.083358
C125	C	1.471765	-0.364595	-0.302358
C126	C	1.971765	0.135405	0.197642
H127	H	1.004556	-0.325165	-0.576500
H128	H	1.504556	0.174835	-0.076500
H129	H	0.827516	-0.348327	-0.617466
H130	H	1.327516	0.151673	-0.117466
C131	C	1.510513	-0.347699	-1.075284
C132	C	2.010513	0.152301	-0.575284
N133	N	1.570659	-0.321459	-1.037612
N134	N	2.070659	0.178541	-0.537612
H135	H	1.557930	-1.188254	-0.579892
H136	H	2.057930	-0.688254	-0.079892
C137	C	1.578698	-0.579305	-0.563292
C138	C	2.078698	-0.079305	-0.063292
N139	N	1.640127	-0.557569	-0.515741
N140	N	2.140127	-0.057569	-0.015741
H141	H	1.356556	-0.414852	-1.280468
H142	H	1.856556	0.085148	-0.780468
C143	C	1.193332	-0.939620	-0.861772
C144	C	1.693332	-0.439620	-0.361772
N145	N	1.131897	-0.961349	-0.909327
N146	N	1.631897	-0.461349	-0.409327
C147	C	0.855690	-0.458337	-0.812030
C148	C	1.355690	0.041663	-0.312030
N149	N	0.893374	-0.492262	-0.872029
N150	N	1.393374	0.007738	-0.372029
C151	C	1.551625	-0.329758	-1.252349
C152	C	2.051625	0.170242	-0.752349
N153	N	1.611777	-0.303519	-1.214680
N154	N	2.111777	0.196481	-0.714680
C155	C	1.578797	-0.693966	-0.563337
C156	C	2.078797	-0.193966	-0.063337
N157	N	1.640262	-0.717458	-0.515798
N158	N	2.140262	-0.217458	-0.015798
C159	C	1.267229	-0.574834	-0.804255
C160	C	1.767229	-0.074834	-0.304255
N161	N	1.205783	-0.551324	-0.851784
N162	N	1.705783	-0.051324	-0.351784
C163	C	1.267633	-1.191879	-0.804436
C164	C	1.767633	-0.691879	-0.304436
N165	N	1.206195	-1.213612	-0.851980
N166	N	1.706195	-0.713612	-0.351980
H167	H	1.631859	-0.839059	-0.522418
H168	H	2.131859	-0.339059	-0.022418
H169	H	1.315465	-0.432789	-1.103413
H170	H	1.815465	0.067211	-0.603413
C171	C	1.653126	-0.946216	-0.506051
C172	C	2.153126	-0.446216	-0.006051
N173	N	1.714588	-0.969706	-0.458506
N174	N	2.214588	-0.469706	0.041494
C175	C	1.267575	-1.077225	-0.804431
C176	C	1.767575	-0.577225	-0.304431
N177	N	1.206118	-1.053732	-0.851978
N178	N	1.706118	-0.553732	-0.351978
C179	C	1.032740	-0.435167	-0.771045
C180	C	1.532740	0.064833	-0.271045
N181	N	1.070428	-0.469092	-0.831041
N182	N	1.570428	0.030908	-0.331041
H183	H	1.557869	-1.089182	-0.579852
H184	H	2.057869	-0.589182	-0.079852
C185	C	1.267298	-0.689513	-0.804294
C186	C	1.767298	-0.189513	-0.304294
N187	N	1.205870	-0.711250	-0.851846
N188	N	1.705870	-0.211250	-0.351846
C189	C	1.193266	-0.824962	-0.861736
C190	C	1.693266	-0.324962	-0.361736
N191	N	1.131802	-0.801466	-0.909269
N192	N	1.631802	-0.301466	-0.409269
