data_functionalizedCrystal
_audit_creation_method	'MofGen! by Chris Wilmer'
_symmetry_space_group_name_H-M	'P1'
_symmetry_Int_Tables_number	1
_symmetry_cell_setting	triclinic
loop_
_symmetry_equiv_pos_as_xyz
  x,y,z
_cell_length_a	14.971487
_cell_length_b	9.565339
_cell_length_c	10.489741
_cell_angle_alpha	89.999484
_cell_angle_beta	95.923212
_cell_angle_gamma	90.002614
loop_
_atom_site_label
_atom_site_type_symbol
_atom_site_fract_x
_atom_site_fract_y
_atom_site_fract_z
O1	O	-1.187890	0.116059	0.166214
O2	O	-0.927603	0.116105	0.186119
O3	O	-1.063669	0.116073	-0.009500
O4	O	-1.051824	0.116092	0.361833
O5	O	-1.063658	-0.116447	-0.009488
O6	O	-0.927592	-0.116415	0.186131
O7	O	-1.187879	-0.116461	0.166227
Zn8	Zn	-1.057734	-0.153356	0.176181
Zn9	Zn	-1.057748	0.153000	0.176165
O10	O	-1.051813	-0.116429	0.361845
C11	C	-0.894268	-0.000149	0.185235
C12	C	-0.794956	-0.000131	0.182567
C13	C	-0.738384	-0.000125	0.297487
C14	C	-0.645071	-0.000143	0.294973
C15	C	-0.608330	-0.000157	0.177536
C16	C	-0.664908	-0.000167	0.062607
C17	C	-0.758220	-0.000159	0.065123
C18	C	-0.470416	-0.000180	0.057371
C19	C	-0.377098	-0.000185	0.054855
C20	C	-0.357266	-0.000164	0.287221
C21	C	-0.450578	-0.000156	0.289737
C22	C	-0.507151	-0.000164	0.174807
N23	N	-1.057731	-0.362435	0.176191
C24	C	-0.994785	-0.453623	0.266628
C25	C	-1.075773	-0.546815	0.291501
C26	C	-0.976778	-0.546798	0.151327
C27	C	-1.138760	-0.453575	0.201122
C28	C	-1.039711	-0.453550	0.060898
C29	C	-1.120757	-0.546700	0.085722
C30	C	-0.221214	-0.000196	0.167110
C31	C	-0.320527	-0.000179	0.169775
C32	C	-1.062769	-0.000186	-0.057015
C33	C	-1.060092	-0.000183	-0.198614
N34	N	-1.057758	0.362079	0.176144
C35	C	-0.973517	-0.000158	-0.265752
C36	C	-1.014409	-0.114809	-0.358342
C37	C	-1.014440	0.114437	-0.358328
C38	C	-1.101020	-0.114930	-0.289338
C39	C	-1.101039	0.114420	-0.289315
C40	C	-1.141994	-0.000260	-0.381878
C41	C	-1.052713	-0.000166	0.409360
C42	C	-1.055390	-0.000160	0.550959
H43	H	-0.516475	-0.000188	-0.036218
H44	H	-1.137615	-0.211968	-0.258925
H45	H	-0.902336	-0.000260	-0.215277
H46	H	-1.213239	-0.000336	-0.432127
Br47	Br	-0.615047	-0.000199	-0.096774
Br48	Br	-0.862656	-0.615058	0.116308
H49	H	-0.941604	-0.412755	0.343178
H50	H	-0.977773	-0.211726	-0.388924
H51	H	-0.599013	-0.000137	0.388553
Br52	Br	-0.500441	-0.000117	0.449117
H53	H	-1.091033	-0.587780	0.388982
Br54	Br	-0.280492	-0.000152	0.443198
H55	H	-1.137644	0.211342	-0.258699
H56	H	-0.804281	-0.000162	-0.028458
Br57	Br	-1.014236	-0.385212	-0.101529
Br58	Br	-0.788237	-0.000093	0.456874
Br59	Br	-0.327236	-0.000250	-0.104525
Br60	Br	-0.953367	0.275982	-0.409279
H61	H	-1.174058	-0.587312	0.009218
Br62	Br	-1.252914	-0.385622	0.236327
