data_functionalizedCrystal
_audit_creation_method	'MofGen! by Chris Wilmer'
_symmetry_space_group_name_H-M	'P1'
_symmetry_Int_Tables_number	1
_symmetry_cell_setting	triclinic
loop_
_symmetry_equiv_pos_as_xyz
  x,y,z
_cell_length_a	14.519731
_cell_length_b	19.188930
_cell_length_c	12.996460
_cell_angle_alpha	89.988736
_cell_angle_beta	89.994327
_cell_angle_gamma	83.416817
loop_
_atom_site_label
_atom_site_type_symbol
_atom_site_fract_x
_atom_site_fract_y
_atom_site_fract_z
O1	O	1.223288	0.091595	-0.085581
O2	O	1.723288	0.591595	0.414419
O3	O	0.954747	0.102358	-0.085584
O4	O	1.454747	0.602358	0.414416
O5	O	1.096767	-0.004651	-0.085562
O6	O	1.596767	0.495349	0.414438
O7	O	1.081268	0.198604	-0.085603
O8	O	1.581268	0.698604	0.414397
O9	O	1.096752	-0.004657	0.085571
O10	O	1.596752	0.495343	0.585571
O11	O	0.954732	0.102352	0.085550
O12	O	1.454732	0.602352	0.585550
O13	O	1.223273	0.091589	0.085553
O14	O	1.723273	0.591589	0.585553
Cu15	Cu	1.089001	0.096970	0.101177
Cu16	Cu	1.589001	0.596970	0.601177
Cu17	Cu	1.089018	0.096977	-0.101208
Cu18	Cu	1.589018	0.596977	0.398792
O19	O	1.081253	0.198598	0.085531
O20	O	1.581253	0.698598	0.585531
C21	C	0.920383	0.101851	-0.000017
C22	C	1.420383	0.601851	0.499983
C23	C	0.818012	0.100339	-0.000018
C24	C	1.318012	0.600339	0.499982
C25	C	1.096257	-0.030667	0.000007
C26	C	1.596257	0.469333	0.500007
C27	C	1.094751	-0.108177	0.000016
C28	C	1.594751	0.391823	0.500016
C29	C	0.734876	0.099112	-0.000021
C30	C	1.234876	0.599112	0.499979
C31	C	0.630576	0.097577	-0.000022
C32	C	1.130576	0.597577	0.499978
C33	C	0.547445	0.096360	-0.000021
C34	C	1.047445	0.596360	0.499979
C35	C	0.443139	0.094826	-0.000023
C36	C	0.943139	0.594826	0.499977
C37	C	1.178083	-0.152799	0.000022
C38	C	1.678083	0.347201	0.500022
C39	C	1.176668	-0.225628	0.000006
C40	C	1.676668	0.274372	0.500006
C41	C	1.091915	-0.253831	0.000004
C42	C	1.591915	0.246169	0.500004
C43	C	1.008571	-0.209199	-0.000008
C44	C	1.508571	0.290801	0.499992
C45	C	1.009989	-0.136372	-0.000002
C46	C	1.509989	0.363628	0.499998
N47	N	1.027126	-0.362073	0.058243
N48	N	1.527126	0.137927	0.558243
N49	N	1.025785	-0.431256	0.058240
N50	N	1.525785	0.068744	0.558240
C51	C	1.087638	-0.473255	-0.000017
C52	C	1.587638	0.026745	0.499983
N53	N	1.150897	-0.443459	-0.058257
N54	N	1.650897	0.056541	0.441743
N55	N	1.152241	-0.374269	-0.058248
N56	N	1.652241	0.125731	0.441752
C57	C	1.090368	-0.332799	-0.000003
C58	C	1.590368	0.167201	0.499997
C59	C	1.169442	-0.596848	-0.000030
C60	C	1.669442	-0.096848	0.499970
C61	C	1.168023	-0.669678	-0.000053
C62	C	1.668023	-0.169678	0.499947
C63	C	0.999924	-0.653247	-0.000056
C64	C	1.499924	-0.153247	0.499944
C65	C	1.001345	-0.580419	-0.000044
C66	C	1.501345	-0.080419	0.499956
C67	C	1.086106	-0.552224	-0.000026
C68	C	1.586106	-0.052224	0.499974
C69	C	1.257637	0.092097	-0.000016
C70	C	1.757637	0.592097	0.499984
C71	C	1.360007	0.093608	-0.000023
C72	C	1.860007	0.593608	0.499977
C73	C	1.081762	0.224614	-0.000041
C74	C	1.581762	0.724614	0.499959
C75	C	1.083269	0.302124	-0.000057
C76	C	1.583269	0.802124	0.499943
N77	N	1.088996	0.096965	0.243524
N78	N	1.588996	0.596965	0.743524
N79	N	1.089031	0.096977	-0.243556
N80	N	1.589031	0.596977	0.256444
C81	C	1.089017	0.096978	0.663338
C82	C	1.589017	0.596978	1.163338
C83	C	1.089008	0.096977	0.546533
C84	C	1.589008	0.596977	1.046533
C85	C	1.089007	0.096972	0.453435
C86	C	1.589007	0.596972	0.953435
C87	C	1.088997	0.096969	0.336622
C88	C	1.588997	0.596969	0.836622
H89	H	1.247103	-0.129848	0.000033
H90	H	1.747103	0.370152	0.500033
H91	H	0.942127	-0.100039	-0.000006
H92	H	1.442127	0.399961	0.499994
H93	H	1.238459	-0.573890	-0.000021
H94	H	1.738459	-0.073890	0.499979
H95	H	1.244530	-0.261967	0.000006
H96	H	1.744530	0.238033	0.500006
H97	H	0.933486	-0.544086	-0.000043
H98	H	1.433486	-0.044086	0.499957
H99	H	0.939565	-0.232167	-0.000011
H100	H	1.439565	0.267833	0.499989
H101	H	1.235885	-0.706009	-0.000054
H102	H	1.735885	-0.206009	0.499946
H103	H	0.930916	-0.676209	-0.000063
H104	H	1.430916	-0.176209	0.499937
