data_functionalizedCrystal
_audit_creation_method	'MofGen! by Chris Wilmer'
_symmetry_space_group_name_H-M	'P1'
_symmetry_Int_Tables_number	1
_symmetry_cell_setting	triclinic
loop_
_symmetry_equiv_pos_as_xyz
  x,y,z
_cell_length_a	23.532407
_cell_length_b	23.532357
_cell_length_c	13.930277
_cell_angle_alpha	89.989902
_cell_angle_beta	89.998126
_cell_angle_gamma	82.838485
loop_
_atom_site_label
_atom_site_type_symbol
_atom_site_fract_x
_atom_site_fract_y
_atom_site_fract_z
O1	O	0.755249	0.069136	-0.079723
O2	O	1.255249	0.569136	0.420277
O3	O	0.589384	0.079140	-0.079752
O4	O	1.089384	0.579140	0.420248
O5	O	0.677333	-0.008796	-0.079717
O6	O	1.177333	0.491204	0.420283
O7	O	0.667300	0.157071	-0.079758
O8	O	1.167300	0.657071	0.420242
O9	O	0.677321	-0.008798	0.079945
O10	O	1.177321	0.491202	0.579945
O11	O	0.589372	0.079138	0.079910
O12	O	1.089372	0.579138	0.579910
O13	O	0.755237	0.069134	0.079939
O14	O	1.255237	0.569134	0.579939
Zn15	Zn	0.672303	0.074136	0.105274
Zn16	Zn	1.172303	0.574136	0.605274
Zn17	Zn	0.672319	0.074138	-0.105087
Zn18	Zn	1.172319	0.574138	0.394913
O19	O	0.667288	0.157070	0.079904
O20	O	1.167288	0.657070	0.579904
C21	C	0.568162	0.078884	0.000075
C22	C	1.068162	0.578884	0.500075
C23	C	0.504945	0.078118	0.000065
C24	C	1.004945	0.578118	0.500065
C25	C	0.105834	0.125353	0.000096
C26	C	0.605834	0.625353	0.500096
C27	C	0.046434	0.124641	0.000102
C28	C	0.546434	0.624641	0.500102
O29	O	0.009681	0.168428	0.000126
O30	O	0.509681	0.668428	0.500126
N31	N	0.023817	0.072364	0.000114
N32	N	0.523817	0.572364	0.500114
C33	C	0.060604	0.020794	0.000129
C34	C	0.560604	0.520794	0.500129
O35	O	0.035912	-0.023737	0.000140
O36	O	0.535912	0.476263	0.500140
C37	C	0.120003	0.021506	0.000130
C38	C	0.620003	0.521506	0.500130
C39	C	0.142616	0.073787	0.000109
C40	C	0.642616	0.573787	0.500109
C41	C	0.128448	0.177629	0.000076
C42	C	0.628448	0.677629	0.500076
C43	C	0.187844	0.178341	0.000068
C44	C	0.687844	0.678341	0.500068
C45	C	0.224626	0.126775	0.000081
C46	C	0.724626	0.626775	0.500081
C47	C	0.202012	0.074498	0.000101
C48	C	0.702012	0.574498	0.500101
C49	C	0.156788	-0.030063	0.000152
C50	C	0.656788	0.469937	0.500152
C51	C	0.216191	-0.029346	0.000153
C52	C	0.716191	0.470654	0.500153
C53	C	0.238804	0.022935	0.000132
C54	C	0.738804	0.522935	0.500132
C55	C	0.298190	0.023644	0.000105
C56	C	0.798190	0.523644	0.500105
N57	N	0.320807	0.075922	0.000094
N58	N	0.820807	0.575922	0.500094
C59	C	0.284025	0.127487	0.000081
C60	C	0.784025	0.627487	0.500081
C61	C	-0.064139	0.019303	0.000129
C62	C	0.435861	0.519303	0.500129
C63	C	-0.123536	0.018590	0.000121
C64	C	0.376464	0.518590	0.500121
C65	C	-0.137702	0.122437	0.000096
C66	C	0.362298	0.622437	0.500096
C67	C	-0.078303	0.123149	0.000097
C68	C	0.421697	0.623149	0.500097
C69	C	-0.041522	0.071580	0.000117
C70	C	0.458478	0.571580	0.500117
C71	C	0.408761	0.128977	0.000064
C72	C	0.908761	0.628977	0.500064
C73	C	0.468163	0.129684	0.000052
C74	C	0.968163	0.629684	0.500052
C75	C	0.482324	0.025836	0.000082
C76	C	0.982324	0.525836	0.500082
C77	C	0.422927	0.025130	0.000089
C78	C	0.922927	0.525130	0.500089
C79	C	0.386147	0.076704	0.000083
C80	C	0.886147	0.576704	0.500083
O81	O	0.334977	-0.020120	0.000085
O82	O	0.834977	0.479880	0.500085
O83	O	0.308725	0.172011	0.000083
O84	O	0.808725	0.672011	0.500083
C85	C	0.677076	-0.030013	0.000117
C86	C	1.177076	0.469987	0.500117
C87	C	0.676322	-0.093232	0.000126
C88	C	1.176322	0.406768	0.500126
C89	C	0.671592	-0.485242	-0.086958
C90	C	1.171592	0.014758	0.413042
C91	C	0.670874	-0.544642	-0.086964
C92	C	1.170874	-0.044642	0.413036
O93	O	0.670490	-0.575357	-0.160981
O94	O	1.170490	-0.075357	0.339019
N95	N	0.670512	-0.574354	0.000066
N96	N	1.170512	-0.074354	0.500066
C97	C	0.670861	-0.544663	0.087108
C98	C	1.170861	-0.044663	0.587108
O99	O	0.670487	-0.575389	0.161134
O100	O	1.170487	-0.075389	0.661134
C101	C	0.671574	-0.485264	0.087113
C102	C	1.171574	0.014736	0.587113
C103	C	0.671943	-0.455556	0.000077
C104	C	1.171943	0.044444	0.500077
C105	C	0.671959	-0.455534	-0.173987
C106	C	1.171959	0.044466	0.326013
C107	C	0.672677	-0.396139	-0.173981
C108	C	1.172677	0.103861	0.326019
C109	C	0.673028	-0.366452	-0.086946
C110	C	1.173028	0.133548	0.413054
C111	C	0.672661	-0.396160	0.000083
C112	C	1.172661	0.103840	0.500083
C113	C	0.671920	-0.455573	0.174153
C114	C	1.171920	0.044427	0.674153
C115	C	0.672632	-0.396170	0.174151
C116	C	1.172632	0.103830	0.674151
C117	C	0.673000	-0.366462	0.087114
C118	C	1.173000	0.133538	0.587114
C119	C	0.673730	-0.307078	0.087124
C120	C	1.173730	0.192922	0.587124
N121	N	0.674092	-0.277366	0.000093
N122	N	1.174092	0.222634	0.500093
C123	C	0.673741	-0.307053	-0.086942
C124	C	1.173741	0.192947	0.413058
C125	C	0.669363	-0.669404	0.087092
C126	C	1.169363	-0.169404	0.587092
C127	C	0.668654	-0.728803	0.087088
C128	C	1.168654	-0.228803	0.587088
C129	C	0.668666	-0.728777	-0.086984
C130	C	1.168666	-0.228777	0.413016
C131	C	0.669379	-0.669379	-0.086980
C132	C	1.169379	-0.169379	0.413020
C133	C	0.669725	-0.639692	0.000061
C134	C	1.169725	-0.139692	0.500061
C135	C	0.675250	-0.182319	-0.086923
C136	C	1.175250	0.317681	0.413077
C137	C	0.675971	-0.122919	-0.086909
C138	C	1.175971	0.377081	0.413091
C139	C	0.675956	-0.122949	0.087163
C140	C	1.175956	0.377051	0.587163
C141	C	0.675238	-0.182344	0.087150
C142	C	1.175238	0.317656	0.587150
C143	C	0.674883	-0.212027	0.000099
C144	C	1.174883	0.287973	0.500099
O145	O	0.674113	-0.276325	0.161103
O146	O	1.174113	0.223675	0.661103
O147	O	0.674108	-0.276318	-0.160955
O148	O	1.174108	0.223682	0.339045
C149	C	0.776459	0.069390	0.000110
C150	C	1.276459	0.569390	0.500110
C151	C	0.839676	0.070156	0.000114
C152	C	1.339676	0.570156	0.500114
C153	C	0.667545	0.178287	0.000068
C154	C	1.167545	0.678287	0.500068
C155	C	0.668300	0.241506	0.000053
C156	C	1.168300	0.741506	0.500053
N157	N	0.672296	0.074134	0.248840
N158	N	1.172296	0.574134	0.748840
N159	N	0.672330	0.074136	-0.248653
N160	N	1.172330	0.574136	0.251347
C161	C	0.633373	0.113061	0.701094
C162	C	1.133373	0.613061	1.201094
C163	C	0.711280	0.035211	0.701095
C164	C	1.211280	0.535211	1.201095
C165	C	0.711273	0.035209	0.600599
C166	C	1.211273	0.535209	1.100599
C167	C	0.672316	0.074134	0.550346
C168	C	1.172316	0.574134	1.050346
C169	C	0.633367	0.113061	0.600589
C170	C	1.133367	0.613061	1.100589
C171	C	0.750226	-0.003713	0.550349
C172	C	1.250226	0.496287	1.050349
C173	C	0.750221	-0.003716	0.449847
C174	C	1.250221	0.496284	0.949847
C175	C	0.711261	0.035207	0.399592
C176	C	1.211261	0.535207	0.899592
C177	C	0.672310	0.074135	0.449841
C178	C	1.172310	0.574135	0.949841
C179	C	0.633353	0.113060	0.399588
C180	C	1.133353	0.613060	0.899588
C181	C	0.594398	0.151986	0.449835
C182	C	1.094398	0.651986	0.949835
C183	C	0.594407	0.151984	0.550334
C184	C	1.094407	0.651984	1.050334
C185	C	0.711253	0.035209	0.299093
C186	C	1.211253	0.535209	0.799093
C187	C	0.633346	0.113061	0.299083
C188	C	1.133346	0.613061	0.799083
H189	H	-0.167662	0.164425	0.000091
H190	H	0.332338	0.664425	0.500091
O191	O	-0.145431	-0.032232	0.000002
O192	O	0.354569	0.467768	0.500002
C193	C	-0.126616	-0.063636	-0.082694
C194	C	0.373384	0.436364	0.417306
H195	H	-0.085506	-0.048349	-0.110271
H196	H	0.414494	0.451651	0.389729
H197	H	-0.118096	-0.111111	-0.064085
H198	H	0.381904	0.388889	0.435915
H199	H	-0.161030	-0.056842	-0.140594
H200	H	0.338970	0.443158	0.359406
O201	O	0.669784	-0.640519	0.171590
O202	O	1.169784	-0.140519	0.671590
C203	C	0.719535	-0.612907	0.176828
C204	C	1.219535	-0.112907	0.676828
H205	H	0.736092	-0.606235	0.101267
H206	H	1.236092	-0.106235	0.601267
H207	H	0.708941	-0.569632	0.213679
H208	H	1.208941	-0.069632	0.713679
H209	H	0.753801	-0.640524	0.219774
H210	H	1.253801	-0.140524	0.719774
O211	O	0.668219	-0.757631	-0.171509
O212	O	1.168219	-0.257631	0.328491
C213	C	0.618480	-0.785266	-0.176708
C214	C	1.118480	-0.285266	0.323292
H215	H	0.584215	-0.762661	-0.127324
H216	H	1.084215	-0.262661	0.372676
H217	H	0.601917	-0.783675	-0.253687
H218	H	1.101917	-0.283675	0.246313
H219	H	0.629089	-0.831807	-0.153319
H220	H	1.129089	-0.331807	0.346681
H221	H	0.669678	-0.645194	-0.157852
H222	H	1.169678	-0.145194	0.342148
O223	O	0.209711	0.229177	0.000102
O224	O	0.709711	0.729177	0.500102
C225	C	0.164500	0.274531	0.000072
C226	C	0.664500	0.774531	0.500072
H227	H	0.124238	0.258792	0.030299
H228	H	0.624238	0.758792	0.530299
H229	H	0.176699	0.311051	0.046423
H230	H	0.676699	0.811051	0.546423
H231	H	0.156003	0.290424	-0.076528
H232	H	0.656003	0.790424	0.423472
O233	O	0.672888	-0.367383	0.258764
O234	O	1.172888	0.132617	0.758764
C235	C	0.623366	-0.375159	0.311676
C236	C	1.123366	0.124841	0.811676
H237	H	0.606406	-0.416039	0.286918
H238	H	1.106406	0.083961	0.786918
H239	H	0.634422	-0.378714	0.391303
H240	H	1.134422	0.121286	0.891303
H241	H	0.589227	-0.337013	0.299597
H242	H	1.089227	0.162987	0.799597
H243	H	0.781939	-0.035412	0.408942
H244	H	1.281939	0.464588	0.908942
O245	O	0.092665	0.227688	-0.000070
O246	O	0.592665	0.727688	0.499930
C247	C	0.057898	0.230393	-0.082778
C248	C	0.557898	0.730393	0.417222
H249	H	0.055142	0.185205	-0.110326
H250	H	0.555142	0.685205	0.389674
H251	H	0.013133	0.251879	-0.064197
H252	H	0.513133	0.751879	0.435803
H253	H	0.077306	0.256280	-0.140690
H254	H	0.577306	0.756280	0.359310
H255	H	0.562692	0.183677	0.591251
H256	H	1.062692	0.683677	1.091251
H257	H	0.672975	-0.371955	-0.244855
H258	H	1.172975	0.128045	0.255145
O259	O	0.595526	0.150820	0.250122
O260	O	1.095526	0.650820	0.750122
C261	C	0.603883	0.142488	0.150644
C262	C	1.103883	0.642488	0.650644
H263	H	0.625433	0.097100	0.136922
H264	H	1.125433	0.597100	0.636922
H265	H	0.560716	0.149045	0.112454
H266	H	1.060716	0.649045	0.612454
H267	H	0.632255	0.174581	0.122114
H268	H	1.132255	0.674581	0.622114
H269	H	0.601655	0.144752	0.742008
H270	H	1.101655	0.644752	1.242008
O271	O	0.749033	-0.002671	0.250315
O272	O	1.249033	0.497329	0.750315
C273	C	0.740132	-0.059009	0.274898
C274	C	1.240132	0.440991	0.774898
H275	H	0.694544	-0.059069	0.302546
H276	H	1.194544	0.440931	0.802546
H277	H	0.746846	-0.087618	0.208803
H278	H	1.246846	0.412382	0.708803
H279	H	0.771807	-0.075898	0.333219
H280	H	1.271807	0.424102	0.833219
H281	H	-0.059896	0.165721	0.000085
H282	H	0.440104	0.665721	0.500085
H283	H	-0.034193	-0.022694	0.000137
H284	H	0.465807	0.477306	0.500137
H285	H	0.671621	-0.479752	0.245028
H286	H	1.171621	0.020248	0.745028
O287	O	0.490034	0.180522	0.000077
O288	O	0.990034	0.680522	0.500077
C289	C	0.444827	0.225880	0.000047
C290	C	0.944827	0.725880	0.500047
H291	H	0.404564	0.210148	0.030284
H292	H	0.904564	0.710148	0.530284
H293	H	0.457033	0.262401	0.046390
H294	H	0.957033	0.762401	0.546390
H295	H	0.436328	0.241771	-0.076554
H296	H	0.936328	0.741771	0.423446
O297	O	0.674861	-0.211116	0.171780
O298	O	1.174861	0.288884	0.671780
C299	C	0.675343	-0.172175	0.248599
C300	C	1.175343	0.327825	0.748599
H301	H	0.657829	-0.127368	0.223082
H302	H	1.157829	0.372632	0.723082
H303	H	0.647475	-0.185565	0.309464
H304	H	1.147475	0.314435	0.809464
H305	H	0.721114	-0.172105	0.275371
H306	H	1.221114	0.327895	0.775371
H307	H	0.378821	0.170974	0.000063
H308	H	0.878821	0.670974	0.500063
O309	O	0.518141	-0.024200	0.000140
O310	O	1.018141	0.475800	0.500140
C311	C	0.575415	-0.012354	0.000110
C312	C	1.075415	0.487646	0.500110
H313	H	0.577432	0.032369	0.030316
H314	H	1.077432	0.532369	0.530316
H315	H	0.602517	-0.045238	0.046480
H316	H	1.102517	0.454762	0.546480
H317	H	0.592609	-0.014616	-0.076487
H318	H	1.092609	0.485384	0.423513
H319	H	0.743000	0.003522	0.742014
H320	H	1.243000	0.503522	1.242014
O321	O	0.676300	-0.094145	-0.171546
O322	O	1.176300	0.405855	0.328454
C323	C	0.675849	-0.133091	-0.248363
C324	C	1.175849	0.366909	0.251637
H325	H	0.657302	-0.172972	-0.222850
H326	H	1.157302	0.327028	0.277150
H327	H	0.648407	-0.112148	-0.309240
H328	H	1.148407	0.387852	0.190760
H329	H	0.721471	-0.145646	-0.275116
H330	H	1.221471	0.354354	0.224884
H331	H	0.138388	-0.072635	0.000170
H332	H	0.638388	0.427365	0.500170
H333	H	0.781946	-0.035402	0.591268
H334	H	1.281946	0.464598	1.091268
O335	O	0.556536	0.189853	0.401164
O336	O	1.056536	0.689853	0.901164
C337	C	0.522143	0.224200	0.467055
C338	C	1.022143	0.724200	0.967055
H339	H	0.545486	0.224726	0.538695
H340	H	1.045486	0.724726	1.038695
H341	H	0.513187	0.269727	0.438002
H342	H	1.013187	0.769727	0.938002
H343	H	0.479947	0.205920	0.477749
H344	H	0.979947	0.705920	0.977749
O345	O	0.676191	-0.094061	0.171675
O346	O	1.176191	0.405939	0.671675
C347	C	0.627278	-0.052961	0.176834
C348	C	1.127278	0.447039	0.676834
H349	H	0.592593	-0.066160	0.127434
H350	H	1.092593	0.433840	0.627434
H351	H	0.610713	-0.050023	0.253803
H352	H	1.110713	0.449977	0.753803
H353	H	0.638975	-0.009467	0.153439
H354	H	1.138975	0.490533	0.653439
H355	H	0.246136	-0.071341	0.000170
H356	H	0.746136	0.428659	0.500170
H357	H	0.674959	-0.206480	-0.157808
H358	H	1.174959	0.293520	0.342192
O359	O	0.401052	-0.025705	0.000139
O360	O	0.901052	0.474295	0.500139
C361	C	0.446257	-0.071065	0.000115
C362	C	0.946257	0.428935	0.500115
H363	H	0.486523	-0.055335	0.030330
H364	H	0.986523	0.444665	0.530330
H365	H	0.434054	-0.107587	0.046479
H366	H	0.934054	0.392413	0.546479
H367	H	0.454749	-0.086951	-0.076482
H368	H	0.954749	0.413049	0.423518
H369	H	0.668363	-0.752987	0.157962
H370	H	1.168363	-0.252987	0.657962
O371	O	0.671647	-0.484282	-0.258626
O372	O	1.171647	0.015718	0.241374
C373	C	0.672109	-0.445309	-0.335426
C374	C	1.172109	0.054691	0.164574
H375	H	0.690644	-0.405434	-0.309885
H376	H	1.190644	0.094566	0.190115
H377	H	0.699565	-0.466229	-0.396296
H378	H	1.199565	0.033771	0.103704
H379	H	0.626491	-0.432752	-0.362201
H380	H	1.126491	0.067248	0.137799
