data_functionalizedCrystal
_audit_creation_method	'MofGen! by Chris Wilmer'
_symmetry_space_group_name_H-M	'P1'
_symmetry_Int_Tables_number	1
_symmetry_cell_setting	triclinic
loop_
_symmetry_equiv_pos_as_xyz
  x,y,z
_cell_length_a	14.971486
_cell_length_b	17.699083
_cell_length_c	14.048226
_cell_angle_alpha	89.992674
_cell_angle_beta	89.998499
_cell_angle_gamma	83.448572
loop_
_atom_site_label
_atom_site_type_symbol
_atom_site_fract_x
_atom_site_fract_y
_atom_site_fract_z
O1	O	1.186608	0.098633	-0.079053
O2	O	0.926167	0.110445	-0.079079
O3	O	1.063746	-0.005632	-0.079057
O4	O	1.049030	0.214710	-0.079075
O5	O	1.063729	-0.005639	0.079264
O6	O	0.926151	0.110438	0.079242
O7	O	1.186591	0.098626	0.079268
Zn8	Zn	1.056368	0.104531	0.104392
Zn9	Zn	1.056390	0.104540	-0.104203
O10	O	1.049013	0.214703	0.079246
C11	C	0.892836	0.109913	0.000078
C12	C	0.793544	0.108330	0.000068
C13	C	0.736085	0.176522	0.000064
C14	C	0.642790	0.175030	0.000078
C15	C	0.606958	0.105346	0.000090
C16	C	0.664425	0.037148	0.000097
C17	C	0.757717	0.038641	0.000090
C18	C	0.469973	0.034042	0.000111
C19	C	0.376674	0.032549	0.000117
C20	C	0.355046	0.170431	0.000099
C21	C	0.448339	0.171924	0.000092
C22	C	0.505799	0.103726	0.000097
C23	C	1.063210	-0.033834	0.000104
C24	C	1.061628	-0.117856	0.000104
C25	C	1.142384	-0.166278	0.000113
C26	C	1.140892	-0.245225	0.000105
C27	C	1.058644	-0.275748	0.000094
C28	C	0.977882	-0.227320	0.000081
C29	C	0.979375	-0.148374	0.000083
C30	C	0.971860	-0.545698	0.000073
C31	C	0.970374	-0.624649	0.000074
C32	C	1.133378	-0.642548	0.000095
C33	C	1.134871	-0.563603	0.000096
C34	C	1.054109	-0.515181	0.000079
C35	C	1.055728	-0.429578	0.000087
C36	C	1.057024	-0.361350	0.000093
C37	C	1.219923	0.099158	0.000109
C38	C	1.319214	0.100741	0.000112
C39	C	1.049549	0.242905	0.000083
C40	C	1.051131	0.326927	0.000077
N41	N	1.056360	0.104524	0.246753
N42	N	1.056406	0.104541	-0.246564
C43	C	1.117299	0.053147	0.296581
C44	C	1.117305	0.053146	0.396238
C45	C	1.056376	0.104528	0.446066
C46	C	0.995431	0.155908	0.396231
C47	C	0.995421	0.155904	0.296576
C48	C	0.995456	0.155913	0.603946
C49	C	0.995467	0.155918	0.703608
C50	C	1.117340	0.053156	0.703608
C51	C	1.117331	0.053152	0.603953
C52	C	1.056386	0.104533	0.554125
H53	H	0.804501	-0.016888	0.000093
H54	H	0.903394	-0.649498	0.000067
H55	H	0.945816	0.197741	0.436807
N56	N	1.231095	-0.133359	0.000135
H57	H	1.282027	-0.176017	0.000138
H58	H	1.235273	-0.100987	-0.058555
N59	N	0.774726	0.251684	0.000058
H60	H	0.842546	0.242285	0.000053
H61	H	0.753691	0.281532	-0.058634
H62	H	0.945826	0.197751	0.563379
H63	H	0.635242	-0.019590	0.000121
N64	N	1.183051	-0.002260	0.550206
H65	H	1.221659	-0.034810	0.596891
H66	H	1.148879	-0.035768	0.508870
H67	H	0.945797	0.197740	0.256007
N68	N	0.929748	0.211324	0.757365
H69	H	0.963856	0.244886	0.798698
H70	H	0.891144	0.243821	0.710627
N71	N	1.227995	-0.297449	0.000123
H72	H	1.230996	-0.330610	0.058811
H73	H	1.230969	-0.330546	-0.058607
H74	H	1.166963	0.011319	0.744184
N75	N	0.580815	0.248580	0.000181
H76	H	0.617671	0.292951	0.000202
H77	H	0.541582	0.251022	-0.058471
H78	H	1.201846	-0.538756	0.000110
N79	N	0.884758	-0.493478	0.000058
H80	H	0.832430	-0.524796	0.000056
H81	H	0.881819	-0.460338	0.058749
H82	H	1.199138	-0.681983	0.000104
N83	N	0.293106	0.244005	0.000165
H84	H	0.304599	0.274430	-0.058513
H85	H	0.228583	0.232455	0.000233
H86	H	0.910914	-0.252178	0.000066
N87	N	0.892275	-0.096144	0.000067
H88	H	0.839943	-0.127458	0.000061
H89	H	0.889334	-0.063002	0.058757
N90	N	1.183000	-0.002279	0.242831
H91	H	1.222535	0.026691	0.201466
H92	H	1.221544	-0.034821	0.289574
N93	N	1.183062	-0.002242	0.449982
H94	H	1.221673	-0.034780	0.403295
H95	H	1.222524	0.026823	0.491300
H96	H	0.477510	0.228667	0.000073
H97	H	0.516756	-0.021492	0.000117
N98	N	0.338022	-0.042609	0.000127
H99	H	0.388577	-0.085585	0.000136
H100	H	0.299784	-0.046227	0.058820
