data_functionalizedCrystal
_audit_creation_method	'MofGen! by Chris Wilmer'
_symmetry_space_group_name_H-M	'P1'
_symmetry_Int_Tables_number	1
_symmetry_cell_setting	triclinic
loop_
_symmetry_equiv_pos_as_xyz
  x,y,z
_cell_length_a	23.532407
_cell_length_b	23.532357
_cell_length_c	15.021413
_cell_angle_alpha	89.998468
_cell_angle_beta	89.998075
_cell_angle_gamma	82.838485
loop_
_atom_site_label
_atom_site_type_symbol
_atom_site_fract_x
_atom_site_fract_y
_atom_site_fract_z
O1	O	0.755250	0.069129	-0.073932
O2	O	0.589385	0.079132	-0.073959
O3	O	0.677334	-0.008803	-0.073926
O4	O	0.667301	0.157064	-0.073965
O5	O	0.677320	-0.008791	0.074138
O6	O	0.589371	0.079145	0.074105
O7	O	0.755236	0.069141	0.074133
Zn8	Zn	0.672302	0.074145	0.097627
Zn9	Zn	0.672320	0.074129	-0.097454
O10	O	0.667287	0.157077	0.074100
C11	C	0.568162	0.078884	0.000070
C12	C	0.504945	0.078118	0.000060
C13	C	0.677076	-0.030013	0.000109
C14	C	0.676322	-0.093232	0.000117
C15	C	0.671593	-0.485250	-0.080642
C16	C	0.670875	-0.544650	-0.080647
O17	O	0.670492	-0.575372	-0.149288
N18	N	0.670512	-0.574354	0.000062
C19	C	0.670860	-0.544655	0.080781
O20	O	0.670485	-0.575375	0.149429
C21	C	0.671573	-0.485256	0.080785
C22	C	0.671943	-0.455556	0.000071
C23	C	0.671961	-0.455550	-0.161349
C24	C	0.672679	-0.396154	-0.161344
C25	C	0.673029	-0.366460	-0.080631
C26	C	0.672661	-0.396160	0.000077
C27	C	0.671917	-0.455558	0.161503
C28	C	0.672630	-0.396155	0.161500
C29	C	0.672999	-0.366454	0.080787
C30	C	0.673729	-0.307071	0.080795
N31	N	0.674092	-0.277366	0.000086
C32	C	0.673742	-0.307061	-0.080627
C33	C	0.669362	-0.669397	0.080766
C34	C	0.668653	-0.728795	0.080762
C35	C	0.668667	-0.728785	-0.080666
C36	C	0.669380	-0.669386	-0.080662
C37	C	0.669725	-0.639692	0.000057
C38	C	0.675251	-0.182327	-0.080609
C39	C	0.675972	-0.122927	-0.080596
C40	C	0.675955	-0.122941	0.080831
C41	C	0.675237	-0.182336	0.080819
C42	C	0.674883	-0.212027	0.000092
O43	O	0.674111	-0.276310	0.149401
O44	O	0.674110	-0.276332	-0.149263
C45	C	0.105834	0.125353	0.000089
C46	C	0.046434	0.124641	0.000095
O47	O	0.009681	0.168428	0.000117
N48	N	0.023817	0.072364	0.000106
C49	C	0.060604	0.020794	0.000120
O50	O	0.035912	-0.023737	0.000130
C51	C	0.120003	0.021506	0.000120
C52	C	0.142616	0.073787	0.000101
C53	C	0.128448	0.177629	0.000071
C54	C	0.187844	0.178341	0.000063
C55	C	0.224626	0.126775	0.000075
C56	C	0.202012	0.074498	0.000093
C57	C	0.156788	-0.030063	0.000141
C58	C	0.216191	-0.029346	0.000142
C59	C	0.238804	0.022935	0.000122
C60	C	0.298190	0.023644	0.000097
N61	N	0.320807	0.075922	0.000087
C62	C	0.284025	0.127487	0.000076
C63	C	-0.064139	0.019303	0.000119
C64	C	-0.123536	0.018590	0.000112
C65	C	-0.137702	0.122437	0.000089
C66	C	-0.078303	0.123149	0.000090
C67	C	-0.041522	0.071580	0.000109
C68	C	0.408761	0.128977	0.000060
C69	C	0.468163	0.129684	0.000049
C70	C	0.482324	0.025837	0.000076
C71	C	0.422927	0.025130	0.000082
C72	C	0.386147	0.076704	0.000077
O73	O	0.334977	-0.020120	0.000079
O74	O	0.308725	0.172011	0.000077
C75	C	0.776459	0.069390	0.000102
C76	C	0.839676	0.070156	0.000106
C77	C	0.667545	0.178287	0.000063
C78	C	0.668300	0.241506	0.000049
N79	N	0.672293	0.074156	0.230765
N80	N	0.672333	0.074113	-0.230591
C81	C	0.631619	0.114798	0.470433
C82	C	0.683017	0.125561	0.529773
C83	C	0.672308	0.074142	0.412372
C84	C	0.620924	0.063392	0.529773
C85	C	0.672317	0.074129	0.587796
C86	C	0.723731	0.084930	0.470405
C87	C	0.661605	0.022738	0.470401
C88	C	0.713039	0.033479	0.529714
C89	C	0.672301	0.074150	0.311314
C90	C	0.672330	0.074120	0.688851
H91	H	0.676274	-0.098747	-0.146326
H92	H	-0.167662	0.164425	0.000084
H93	H	0.671674	-0.479720	-0.227079
H94	H	0.674960	-0.206494	-0.146345
O95	O	0.669708	-0.640622	-0.159146
C96	C	0.669263	-0.679578	-0.230379
H97	H	0.650721	-0.719459	-0.206716
H98	H	0.641820	-0.658645	-0.286837
H99	H	0.714886	-0.692130	-0.255187
O100	O	0.209828	0.229115	-0.000118
C101	C	0.243769	0.232627	-0.076798
H102	H	0.229899	0.202932	-0.130379
H103	H	0.238161	0.278553	-0.102559
H104	H	0.290693	0.219235	-0.059463
H105	H	0.674942	-0.206520	0.146543
O106	O	0.668394	-0.757685	0.159142
C107	C	0.717298	-0.798794	0.163982
H108	H	0.752005	-0.785605	0.118197
H109	H	0.733833	-0.801732	0.235376
H110	H	0.705600	-0.842286	0.142290
O111	O	0.673005	-0.367391	-0.239829
C112	C	0.672554	-0.406349	-0.311060
H113	H	0.654013	-0.446229	-0.287390
H114	H	0.645109	-0.385417	-0.367514
H115	H	0.718176	-0.418904	-0.335874
H116	H	0.597245	0.149208	0.444404
O117	O	0.754209	-0.007488	0.560538
C118	C	0.808281	0.004051	0.530105
H119	H	0.806375	0.051526	0.513540
H120	H	0.841646	-0.007607	0.584252
H121	H	0.820547	-0.022437	0.467915
H122	H	0.668380	-0.752973	-0.146387
H123	H	0.669644	-0.645223	0.146500
H124	H	0.671618	-0.479730	0.227229
O125	O	0.650676	-0.029075	0.439297
C126	C	0.596434	-0.040241	0.469511
H127	H	0.569157	0.001901	0.486191
H128	H	0.574479	-0.063382	0.415187
H129	H	0.601805	-0.068271	0.531586
O130	O	0.134901	-0.080886	0.000048
C131	C	0.153721	-0.112304	-0.076633
H132	H	0.194828	-0.097017	-0.102212
H133	H	0.162247	-0.159776	-0.059362
H134	H	0.119307	-0.105527	-0.130328
H135	H	0.672903	-0.371979	0.227233
H136	H	0.246136	-0.071341	0.000158
H137	H	0.692078	0.169027	0.555852
H138	H	0.767199	0.094069	0.444437
H139	H	0.676242	-0.098753	0.146546
O140	O	0.401052	-0.025705	0.000129
C141	C	0.446257	-0.071065	0.000107
H142	H	0.486523	-0.055333	0.028127
H143	H	0.434054	-0.107583	0.043103
H144	H	0.454749	-0.086958	-0.070926
H145	H	0.486571	0.172259	0.000032
O146	O	-0.028353	-0.030758	0.000004
C147	C	0.006420	-0.033468	-0.076693
H148	H	0.009175	0.011717	-0.102264
H149	H	0.051186	-0.054949	-0.059446
H150	H	-0.012980	-0.059364	-0.130385
O151	O	0.373119	0.179128	0.000009
C152	C	0.405827	0.225415	0.000011
H153	H	0.450244	0.210689	-0.028016
H154	H	0.383717	0.261521	-0.042990
H155	H	0.409966	0.241466	0.071038
O156	O	0.092803	0.227777	0.000017
C157	C	0.125513	0.274063	0.000025
H158	H	0.169932	0.259335	-0.027997
H159	H	0.103407	0.310169	-0.042978
H160	H	0.129650	0.290113	0.071053
H161	H	-0.059896	0.165721	0.000079
O162	O	0.518141	-0.024200	0.000129
C163	C	0.575415	-0.012354	0.000102
H164	H	0.577431	0.032372	0.028114
H165	H	0.602516	-0.045234	0.043104
H166	H	0.592610	-0.014623	-0.070931
O167	O	-0.145404	-0.032246	0.000160
C168	C	-0.100195	-0.077602	0.000144
H169	H	-0.059933	-0.061866	0.028168
H170	H	-0.112397	-0.114121	0.043141
H171	H	-0.091699	-0.093496	-0.070887
H172	H	0.577466	0.054305	0.555854
