data_functionalizedCrystal
_audit_creation_method	'MofGen! by Chris Wilmer'
_symmetry_space_group_name_H-M	'P1'
_symmetry_Int_Tables_number	1
_symmetry_cell_setting	triclinic
loop_
_symmetry_equiv_pos_as_xyz
  x,y,z
_cell_length_a	15.944486
_cell_length_b	17.699104
_cell_length_c	16.176319
_cell_angle_alpha	89.993810
_cell_angle_beta	89.996280
_cell_angle_gamma	96.618035
loop_
_atom_site_label
_atom_site_type_symbol
_atom_site_fract_x
_atom_site_fract_y
_atom_site_fract_z
O1	O	-1.114347	0.097383	-0.068815
O2	O	-0.614347	0.597383	0.431185
O3	O	-0.869765	0.109469	-0.068802
O4	O	-0.369765	0.609469	0.431198
O5	O	-0.998957	-0.006752	-0.068802
O6	O	-0.498957	0.493248	0.431198
O7	O	-0.985155	0.213604	-0.068816
O8	O	-0.485155	0.713604	0.431184
O9	O	-0.998975	-0.006760	0.068691
O10	O	-0.498975	0.493240	0.568691
O11	O	-0.869783	0.109461	0.068691
O12	O	-0.369783	0.609461	0.568691
O13	O	-1.114365	0.097375	0.068678
O14	O	-0.614365	0.597375	0.568678
Cu15	Cu	-0.992075	0.103417	0.081239
Cu16	Cu	-0.492075	0.603417	0.581239
Cu17	Cu	-0.992054	0.103427	-0.081363
Cu18	Cu	-0.492054	0.603427	0.418637
O19	O	-0.985173	0.213596	0.068677
O20	O	-0.485173	0.713596	0.568677
C21	C	-0.838480	0.108972	-0.000054
C22	C	-0.338480	0.608972	0.499946
C23	C	-0.745234	0.107493	-0.000049
C24	C	-0.245234	0.607493	0.499951
C25	C	-0.453560	0.175023	-0.000061
C26	C	0.046440	0.675023	0.499939
C27	C	-0.514652	0.139927	-0.067853
C28	C	-0.014652	0.639927	0.432147
C29	C	-0.409607	0.102122	-0.000063
C30	C	0.090393	0.602122	0.499937
C31	C	-0.514655	0.139900	0.067705
C32	C	-0.014655	0.639900	0.567705
C33	C	-0.574511	0.104765	-0.000054
C34	C	-0.074511	0.604765	0.499946
C35	C	-0.469470	0.067006	-0.067910
C36	C	0.030530	0.567006	0.432090
C37	C	-0.469467	0.066989	0.067708
C38	C	0.030533	0.566989	0.567708
C39	C	-0.530542	0.031839	-0.000100
C40	C	-0.030542	0.531839	0.499900
C41	C	-0.314609	0.100602	-0.000068
C42	C	0.185391	0.600602	0.499932
C43	C	-0.669507	0.106280	-0.000055
C44	C	-0.169507	0.606280	0.499945
C45	C	-0.998468	-0.034953	-0.000055
C46	C	-0.498468	0.465047	0.499945
C47	C	-0.996976	-0.118973	-0.000055
C48	C	-0.496976	0.381027	0.499945
C49	C	-1.064391	-0.643743	-0.000082
C50	C	-0.564391	-0.143743	0.499918
C51	C	-1.065788	-0.564797	-0.000074
C52	C	-0.565788	-0.064797	0.499926
C53	C	-0.989948	-0.516293	-0.000068
C54	C	-0.489948	-0.016293	0.499932
C55	C	-0.912705	-0.546739	-0.000062
C56	C	-0.412705	-0.046739	0.499938
C57	C	-0.911309	-0.625683	-0.000063
C58	C	-0.411309	-0.125683	0.499937
C59	C	-0.918335	-0.228364	-0.000055
C60	C	-0.418335	0.271636	0.499945
C61	C	-0.919738	-0.149415	-0.000056
C62	C	-0.419738	0.350585	0.499944
C63	C	-1.072815	-0.167478	-0.000066
C64	C	-0.572815	0.332522	0.499934
C65	C	-1.071419	-0.246422	-0.000068
C66	C	-0.571419	0.253578	0.499932
C67	C	-0.994176	-0.276861	-0.000056
C68	C	-0.494176	0.223139	0.499944
C69	C	-0.992662	-0.362463	-0.000063
C70	C	-0.492662	0.137537	0.499937
C71	C	-0.991461	-0.430692	-0.000068
C72	C	-0.491461	0.069308	0.499932
C73	C	-0.145648	0.097883	-0.000068
C74	C	0.354352	0.597883	0.499932
C75	C	-0.238889	0.099392	-0.000067
C76	C	0.261111	0.599392	0.499933
C77	C	-0.985661	0.241797	-0.000071
C78	C	-0.485661	0.741797	0.499929
C79	C	-0.987154	0.325817	-0.000077
C80	C	-0.487154	0.825817	0.499923
N81	N	-0.992040	0.103427	-0.195728
N82	N	-0.492040	0.603427	0.304272
C83	C	-1.049408	0.052056	-0.761111
C84	C	-0.549408	0.552056	-0.261111
C85	C	-1.049398	0.052055	-0.674564
C86	C	-0.549398	0.552055	-0.174564
C87	C	-0.992079	0.103413	-0.631304
C88	C	-0.492079	0.603413	-0.131304
C89	C	-0.934762	0.154771	-0.674595
C90	C	-0.434762	0.654771	-0.174595
C91	C	-0.934769	0.154767	-0.761141
C92	C	-0.434769	0.654767	-0.261141
C93	C	-0.934732	0.154786	-0.325567
C94	C	-0.434732	0.654786	0.174433
C95	C	-0.934732	0.154787	-0.239015
C96	C	-0.434732	0.654787	0.260985
C97	C	-1.049361	0.052073	-0.238990
C98	C	-0.549361	0.552073	0.261010
C99	C	-1.049368	0.052070	-0.325535
C100	C	-0.549368	0.552070	0.174465
C101	C	-0.992048	0.103424	-0.368819
C102	C	-0.492048	0.603424	0.131181
C103	C	-0.992059	0.103423	-0.462664
C104	C	-0.492059	0.603423	0.037336
C105	C	-0.992072	0.103418	-0.537461
C106	C	-0.492072	0.603418	-0.037461
N107	N	-0.992096	0.103411	0.195604
N108	N	-0.492096	0.603411	0.695604
H109	H	-0.563841	-0.028718	-0.000132
H110	H	-0.063841	0.471282	0.499868
N111	N	-0.444324	0.028339	0.139618
N112	N	0.055676	0.528339	0.639618
N113	N	-0.458550	0.053180	0.209956
N114	N	0.041450	0.553180	0.709956
H115	H	-0.440791	0.025889	0.260749
H116	H	0.059209	0.525889	0.760749
H117	H	-0.888053	0.196610	-0.203795
H118	H	-0.388053	0.696610	0.296205
H119	H	-0.848414	-0.650466	-0.000052
H120	H	-0.348414	-0.150466	0.499948
N121	N	-0.876206	0.207250	-0.369786
N122	N	-0.376206	0.707250	0.130214
N123	N	-0.876217	0.207248	-0.447058
N124	N	-0.376217	0.707248	0.052942
H125	H	-0.834883	0.244306	-0.478292
H126	H	-0.334883	0.744306	0.021708
H127	H	-1.096086	0.010237	-0.796327
H128	H	-0.596086	0.510237	-0.296327
N129	N	-0.876198	0.207229	-0.630420
N130	N	-0.376198	0.707229	-0.130420
N131	N	-0.798585	0.206024	-0.640097
N132	N	-0.298585	0.706024	-0.140097
H133	H	-0.757221	0.243073	-0.608900
H134	H	-0.257221	0.743073	-0.108900
N135	N	-1.107916	-0.000380	-0.369740
N136	N	-0.607916	0.499620	0.130260
N137	N	-1.159941	0.023750	-0.418032
N138	N	-0.659941	0.523750	0.081968
H139	H	-1.201290	-0.013294	-0.449254
H140	H	-0.701290	0.486706	0.050746
N141	N	-0.876217	0.207227	-0.805346
N142	N	-0.376217	0.707227	-0.305346
N143	N	-0.825043	0.253079	-0.766714
N144	N	-0.325043	0.753079	-0.266714
H145	H	-0.783686	0.290129	-0.797932
H146	H	-0.283686	0.790129	-0.297932
H147	H	-0.855440	-0.253137	-0.000056
H148	H	-0.355440	0.246863	0.499944
N149	N	-0.539758	0.178581	0.139611
N150	N	-0.039758	0.678581	0.639611
N151	N	-0.524385	0.154418	0.209969
N152	N	-0.024385	0.654418	0.709969
H153	H	-0.542110	0.181740	0.260751
H154	H	-0.042110	0.681740	0.760751
H155	H	-1.096032	0.010255	-0.203739
H156	H	-0.596032	0.510255	0.296261
H157	H	-0.420108	0.235527	-0.000130
H158	H	0.079892	0.735527	0.499870
H159	H	-0.850955	-0.507240	-0.000052
H160	H	-0.350955	-0.007240	0.499948
H161	H	-1.096064	0.010237	-0.639321
H162	H	-0.596064	0.510237	-0.139321
N163	N	-1.151712	-0.136372	-0.000077
N164	N	-0.651712	0.363628	0.499923
N165	N	-1.152954	-0.065886	-0.000076
N166	N	-0.652954	0.434114	0.499924
H167	H	-1.208673	-0.043917	-0.000086
H168	H	-0.708673	0.456083	0.499914
N169	N	-0.539764	0.178618	-0.139753
N170	N	-0.039764	0.678618	0.360247
N171	N	-0.511830	0.246642	-0.151837
N172	N	-0.011830	0.746642	0.348163
H173	H	-0.529561	0.273972	-0.202615
H174	H	-0.029561	0.773972	0.297385
H175	H	-1.126149	-0.683230	-0.000093
H176	H	-0.626149	-0.183230	0.499907
N177	N	-0.444480	0.028378	-0.139897
N178	N	0.055520	0.528378	0.360103
N179	N	-0.459380	0.052937	-0.210200
N180	N	0.040620	0.552937	0.289800
H181	H	-0.441728	0.025660	-0.261042
H182	H	0.058272	0.525660	0.238958
N183	N	-1.144692	-0.533715	-0.000077
N184	N	-0.644692	-0.033715	0.499923
N185	N	-1.212400	-0.577030	-0.000087
N186	N	-0.712400	-0.077030	0.499913
H187	H	-1.268130	-0.555080	-0.000088
H188	H	-0.768130	-0.055080	0.499912
H189	H	-1.133176	-0.285911	-0.000077
H190	H	-0.633176	0.214089	0.499923
N191	N	-0.842256	-0.099878	-0.000054
N192	N	-0.342256	0.400122	0.499946
N193	N	-0.773296	-0.127064	-0.000046
N194	N	-0.273296	0.372936	0.499954
H195	H	-0.718577	-0.092080	-0.000047
H196	H	-0.218577	0.407920	0.499953
