data_functionalizedCrystal
_audit_creation_method	'MofGen! by Chris Wilmer'
_symmetry_space_group_name_H-M	'P1'
_symmetry_Int_Tables_number	1
_symmetry_cell_setting	triclinic
loop_
_symmetry_equiv_pos_as_xyz
  x,y,z
_cell_length_a	12.645330
_cell_length_b	16.625548
_cell_length_c	12.645323
_cell_angle_alpha	90.024242
_cell_angle_beta	89.974347
_cell_angle_gamma	89.987756
loop_
_atom_site_label
_atom_site_type_symbol
_atom_site_fract_x
_atom_site_fract_y
_atom_site_fract_z
Zn1	Zn	-0.422035	-1.232752	-0.599485
Zn2	Zn	-0.599323	-1.232675	-0.422222
Zn3	Zn	-0.422073	-1.097909	-0.422224
Zn4	Zn	-0.599256	-1.097908	-0.599433
O5	O	-0.510672	-1.165311	-0.510841
O6	O	-0.445564	-1.345574	-0.575992
O7	O	-0.575854	-1.214766	-0.273875
O8	O	-0.273721	-1.115830	-0.445761
O9	O	-0.575817	-1.345517	-0.445758
O10	O	-0.273693	-1.214898	-0.575993
O11	O	-0.445630	-1.115754	-0.273877
O12	O	-0.445565	-0.985077	-0.445711
O13	O	-0.575704	-1.115827	-0.747787
O14	O	-0.575741	-0.985076	-0.575905
O15	O	-0.445500	-1.214897	-0.747825
O16	O	-0.747661	-1.214764	-0.445707
O17	O	-0.747612	-1.115752	-0.575903
C18	C	-0.510651	-0.955820	-0.510803
C19	C	-0.510667	-0.866199	-0.510812
C20	C	-0.786102	-1.165272	-0.510823
C21	C	-0.903932	-1.165328	-0.510850
C22	C	-0.510665	-0.538023	-0.510844
C23	C	-0.510663	-0.629332	-0.510831
C24	C	-0.510667	-0.702108	-0.510827
C25	C	-0.510664	-0.793423	-0.510816
C26	C	-0.948800	-1.227688	-0.429015
C27	C	-1.071360	-1.227545	-0.428723
C28	C	-1.071938	-1.080357	-0.480827
C29	C	-0.949340	-1.080678	-0.480203
C30	C	-0.949012	-1.187282	-0.622976
C31	C	-1.071617	-1.189197	-0.622408
C32	C	-0.234167	-1.165373	-0.510883
C33	C	-0.116337	-1.165399	-0.510901
C34	C	-0.510590	-1.165370	-0.787347
C35	C	-0.510555	-1.165396	-0.905177
C36	C	-0.510687	-0.375620	-0.510870
C37	C	-0.510675	-0.465241	-0.510856
C38	C	-0.592080	-1.102879	-1.072717
C39	C	-0.592484	-1.103043	-0.950157
C40	C	-0.540874	-1.250356	-0.949699
C41	C	-0.541385	-1.250013	-1.072297
C42	C	-0.398255	-1.143755	-1.072375
C43	C	-0.398928	-1.141860	-0.949769
C44	C	-0.510677	-1.165298	-0.235411
C45	C	-0.510413	-1.165429	-0.117582
H46	H	-0.919255	-1.290918	-0.447578
H47	H	-0.573290	-1.039691	-1.102188
H48	H	-1.102227	-1.147129	-0.686641
H49	H	-0.919989	-1.141868	-0.683948
N50	N	-0.567348	-1.019587	-0.910298
H51	H	-0.628188	-0.999102	-0.866064
H52	H	-0.501082	-1.021426	-0.865810
H53	H	-0.674708	-1.117048	-1.103535
H54	H	-0.484485	-1.298199	-1.101978
H55	H	-0.370619	-1.082881	-1.103278
H56	H	-1.102723	-1.061481	-0.399787
N57	N	-0.464576	-1.313742	-0.911101
H58	H	-0.504375	-1.355841	-0.869502
H59	H	-0.428752	-1.339863	-0.973715
H60	H	-0.675632	-1.117351	-0.920842
N61	N	-0.317652	-1.204090	-1.110824
H62	H	-0.245754	-1.189862	-1.081533
H63	H	-0.338347	-1.259648	-1.086057
H64	H	-1.101073	-1.032648	-0.538614
H65	H	-0.334865	-1.184090	-0.919150
N66	N	-1.111130	-1.311067	-0.453575
H67	H	-1.049019	-1.348309	-0.464822
H68	H	-1.155403	-1.331310	-0.392656
N69	N	-0.907963	-1.267999	-0.659283
H70	H	-0.859720	-1.291153	-0.603408
H71	H	-0.969416	-1.305694	-0.671310
H72	H	-1.100766	-1.213016	-0.345657
N73	N	-1.110041	-1.272093	-0.652467
H74	H	-1.084980	-1.312405	-0.598252
H75	H	-1.189866	-1.272273	-0.655045
N76	N	-0.908088	-1.208652	-0.319594
H77	H	-0.931407	-1.152777	-0.298585
H78	H	-0.937290	-1.249035	-0.267579
N79	N	-0.911558	-1.056079	-0.371649
H80	H	-0.974542	-1.045131	-0.324651
H81	H	-0.867700	-1.100843	-0.340185
H82	H	-0.919662	-1.032621	-0.537232
N83	N	-0.649985	-1.274346	-1.110206
H84	H	-0.697076	-1.285192	-1.047277
H85	H	-0.681263	-1.229500	-1.154043
H86	H	-0.622004	-1.269041	-0.919010
N87	N	-0.368624	-1.059045	-0.911219
H88	H	-0.422678	-1.018595	-0.936280
H89	H	-0.366118	-1.058888	-0.831392
