data_functionalizedCrystal
_audit_creation_method	'MofGen! by Chris Wilmer'
_symmetry_space_group_name_H-M	'P1'
_symmetry_Int_Tables_number	1
_symmetry_cell_setting	triclinic
loop_
_symmetry_equiv_pos_as_xyz
  x,y,z
_cell_length_a	13.101039
_cell_length_b	9.065218
_cell_length_c	9.065218
_cell_angle_alpha	85.015885
_cell_angle_beta	93.413732
_cell_angle_gamma	86.590207
loop_
_atom_site_label
_atom_site_type_symbol
_atom_site_fract_x
_atom_site_fract_y
_atom_site_fract_z
O1	O	-0.085213	-1.952370	-0.224381
O2	O	0.414787	-1.452370	0.275619
O3	O	-0.085214	-1.523085	-0.242128
O4	O	0.414786	-1.023085	0.257872
O5	O	-0.085211	-1.746601	-0.018612
O6	O	0.414789	-1.246601	0.481388
O7	O	-0.085216	-1.728854	-0.447897
O8	O	0.414784	-1.228854	0.052103
O9	O	0.085219	-1.762645	-0.002555
O10	O	0.585219	-1.262645	0.497445
O11	O	0.085216	-1.539129	-0.226071
O12	O	0.585216	-1.039129	0.273929
O13	O	0.085217	-1.968414	-0.208325
O14	O	0.585217	-1.468414	0.291675
Zn15	Zn	0.112276	-1.756319	-0.214649
Zn16	Zn	0.612276	-1.256319	0.285351
Zn17	Zn	-0.112273	-1.735180	-0.235804
Zn18	Zn	0.387727	-1.235180	0.264196
O19	O	0.085214	-1.744898	-0.431840
O20	O	0.585214	-1.244898	0.068160
C21	C	0.000001	-1.476120	-0.232394
C22	C	0.500001	-0.976120	0.267606
C23	C	0.000000	-1.312277	-0.227294
C24	C	0.500000	-0.812277	0.272706
N25	N	-0.265522	-1.720755	-0.250231
N26	N	0.234478	-1.220755	0.249769
C27	C	-0.000000	-2.015378	-0.218059
C28	C	0.500000	-1.515378	0.281941
C29	C	-0.000006	-2.179221	-0.223159
C30	C	0.499994	-1.679221	0.276841
C31	C	-0.474565	-1.701115	-0.269860
C32	C	0.025435	-1.201115	0.230140
C33	C	-0.525439	-1.790391	-0.180586
C34	C	-0.025439	-1.290391	0.319414
C35	C	-0.641758	-1.779463	-0.191507
C36	C	-0.141758	-1.279463	0.308493
C37	C	-0.358235	-1.712041	-0.258940
C38	C	0.141765	-1.212041	0.241060
N39	N	0.265525	-1.770756	-0.200210
N40	N	0.765525	-1.270756	0.299790
C41	C	0.000002	-1.752917	0.044403
C42	C	0.500002	-1.252917	0.544403
C43	C	-0.000003	-1.747817	0.208245
C44	C	0.499997	-1.247817	0.708245
C45	C	-0.000001	-1.738581	-0.494856
C46	C	0.499999	-1.238581	0.005144
C47	C	-0.000003	-1.743681	-0.658699
C48	C	0.499997	-1.243681	-0.158699
H49	H	-0.481636	-1.875029	-0.095952
H50	H	0.018364	-1.375029	0.404048
N51	N	-0.529521	-1.594950	-0.376021
N52	N	-0.029521	-1.094950	0.123979
N53	N	-0.625304	-1.586116	-0.384847
N54	N	-0.125304	-1.086116	0.115153
H55	H	-0.664129	-1.511136	-0.459819
H56	H	-0.164129	-1.011136	0.040181
