data_functionalizedCrystal
_audit_creation_method	'MofGen! by Chris Wilmer'
_symmetry_space_group_name_H-M	'P1'
_symmetry_Int_Tables_number	1
_symmetry_cell_setting	triclinic
loop_
_symmetry_equiv_pos_as_xyz
  x,y,z
_cell_length_a	6.817900
_cell_length_b	11.353959
_cell_length_c	11.102193
_cell_angle_alpha	103.141205
_cell_angle_beta	108.604059
_cell_angle_gamma	107.526623
loop_
_atom_site_label
_atom_site_type_symbol
_atom_site_fract_x
_atom_site_fract_y
_atom_site_fract_z
V1	V	-4.131681	-0.180915	-0.436292
O2	O	-4.069579	0.008684	-0.386793
O3	O	-4.128278	-0.358714	-0.472927
O4	O	-4.108146	-0.178136	-0.608499
O5	O	-4.089851	-0.173144	-0.250282
V6	V	-4.606257	-0.158236	-0.409231
O7	O	-4.412566	-0.230662	-0.495653
O8	O	-4.775569	-0.108488	-0.349870
O9	O	-4.386454	0.019563	-0.372596
O10	O	-4.785755	-0.347835	-0.458730
O11	O	-4.765484	-0.166007	-0.595240
O12	O	-4.406586	-0.161015	-0.237024
C13	C	-3.983420	-0.402058	-0.476267
C14	C	-4.062090	-0.547411	-0.507368
C15	C	-4.038008	-0.594467	-0.406701
C16	C	-4.119316	-0.744697	-0.438843
C17	C	-3.957738	-0.171711	-0.649200
C18	C	-4.020077	-0.170615	-0.790241
C19	C	-4.167101	-0.410100	-0.879563
C20	C	-4.269890	-0.529323	-0.990482
C21	C	-4.328461	-0.528286	-1.122998
C22	C	-4.284241	-0.408014	-1.144594
C23	C	-4.181452	-0.288792	-1.033676
C24	C	-4.122882	-0.289841	-0.901161
C25	C	-4.034444	-0.049310	-0.944355
C26	C	-3.975857	-0.050344	-0.811837
C27	C	-3.990225	0.070961	-0.965951
C28	C	-3.887420	0.190187	-0.855031
C29	C	-3.828846	0.189146	-0.722508
C30	C	-3.873068	0.068879	-0.700918
C31	C	-4.194654	0.062900	-0.369254
C32	C	-4.095224	0.208252	-0.338161
C33	C	-4.220335	-0.167444	-0.196317
C34	C	-4.137234	-0.168533	-0.055274
H35	H	-4.014419	-0.720820	-0.228172
H36	H	-4.037938	0.071796	-1.073857
H37	H	-4.142909	-0.618344	-0.617349
H38	H	-3.957207	-0.523535	-0.296720
H39	H	-4.119385	-0.410955	-0.771664
H40	H	-3.825370	0.068020	-0.593021
H41	H	-4.305892	-0.627246	-0.972883
C42	C	-4.287833	-0.970729	-0.590428
C43	C	-4.228405	-0.840438	-0.587326
H44	H	-4.355166	-1.029833	-0.682094
H45	H	-4.392511	-0.989622	-0.550662
H46	H	-4.156111	-0.981097	-0.540648
H47	H	-4.360130	-0.830067	-0.637098
H48	H	-4.123721	-0.821539	-0.627111
C49	C	-4.467904	-0.765121	-1.197997
C50	C	-4.441451	-0.659335	-1.244927
H51	H	-4.537649	-0.846022	-1.273272
H52	H	-4.560189	-0.764732	-1.149523
H53	H	-4.323801	-0.756360	-1.139382
H54	H	-4.585556	-0.668090	-1.303534
H55	H	-4.349166	-0.659726	-1.293423
H56	H	-4.331966	-0.407182	-1.252501
C57	C	-3.911949	0.298110	-1.018512
C58	C	-3.838818	0.322378	-0.878775
H59	H	-3.881928	0.379722	-1.033168
H60	H	-4.069924	0.244909	-1.063622
H61	H	-3.833559	0.253256	-1.053506
H62	H	-3.917222	0.367223	-0.843782
H63	H	-3.680815	0.375599	-0.833647
C64	C	-3.689420	0.425975	-0.647539
C65	C	-3.715855	0.320202	-0.600589
H66	H	-3.619651	0.506884	-0.572271
H67	H	-3.833507	0.417213	-0.706142
H68	H	-3.597137	0.425572	-0.696027
H69	H	-3.808152	0.320600	-0.552109
H70	H	-3.571744	0.328966	-0.541962
