data_functionalizedCrystal
_audit_creation_method	'MofGen! by Chris Wilmer'
_symmetry_space_group_name_H-M	'P1'
_symmetry_Int_Tables_number	1
_symmetry_cell_setting	triclinic
loop_
_symmetry_equiv_pos_as_xyz
  x,y,z
_cell_length_a	21.295417
_cell_length_b	18.101398
_cell_length_c	18.101389
_cell_angle_alpha	90.024327
_cell_angle_beta	89.977434
_cell_angle_gamma	89.974227
loop_
_atom_site_label
_atom_site_type_symbol
_atom_site_fract_x
_atom_site_fract_y
_atom_site_fract_z
Zn1	Zn	-0.250755	-1.132124	-0.418817
Zn2	Zn	0.249245	-0.632124	0.081183
Zn3	Zn	-0.356008	-1.132021	-0.294967
Zn4	Zn	0.143992	-0.632021	0.205033
Zn5	Zn	-0.250748	-1.008283	-0.294979
Zn6	Zn	0.249252	-0.508283	0.205021
Zn7	Zn	-0.355981	-1.008235	-0.418755
Zn8	Zn	0.144019	-0.508235	0.081245
O9	O	-0.303373	-1.070166	-0.356880
O10	O	0.196627	-0.570166	0.143120
O11	O	-0.264731	-1.235743	-0.402409
O12	O	0.235269	-0.735743	0.097591
O13	O	-0.342054	-1.115584	-0.191335
O14	O	0.157946	-0.615584	0.308665
O15	O	-0.162660	-1.024774	-0.311437
O16	O	0.337340	-0.524774	0.188563
O17	O	-0.342060	-1.235668	-0.311417
O18	O	0.157940	-0.735668	0.188583
O19	O	-0.162664	-1.115759	-0.402421
O20	O	0.337336	-0.615759	0.097579
O21	O	-0.264720	-1.024674	-0.191344
O22	O	0.235280	-0.524674	0.308656
O23	O	-0.264694	-0.904644	-0.311377
O24	O	0.235306	-0.404644	0.188623
O25	O	-0.342014	-1.024692	-0.522397
O26	O	0.157986	-0.524692	-0.022397
O27	O	-0.342008	-0.904609	-0.402315
O28	O	0.157992	-0.404609	0.097685
O29	O	-0.264705	-1.115713	-0.522442
O30	O	0.235295	-0.615713	-0.022442
O31	O	-0.444094	-1.115538	-0.311357
O32	O	0.055906	-0.615538	0.188643
O33	O	-0.444074	-1.024592	-0.402304
O34	O	0.055926	-0.524592	0.097696
C35	C	-0.303348	-0.877755	-0.356841
C36	C	0.196652	-0.377755	0.143159
C37	C	-0.303352	-0.795441	-0.356842
C38	C	0.196648	-0.295441	0.143158
C39	C	-0.466925	-1.070069	-0.356839
C40	C	0.033075	-0.570069	0.143161
C41	C	-0.536893	-1.070095	-0.356846
C42	C	-0.036893	-0.570095	0.143154
C43	C	-0.303357	-1.070209	-0.550042
C44	C	0.196643	-0.570209	-0.050042
C45	C	-0.303350	-1.070227	-0.632356
C46	C	0.196650	-0.570227	-0.132356
C47	C	-0.569749	-1.117492	-0.309538
C48	C	-0.069749	-0.617492	0.190462
C49	C	-0.635491	-1.117527	-0.309555
C50	C	-0.135491	-0.617527	0.190445
C51	C	-0.668375	-1.070151	-0.356871
C52	C	-0.168375	-0.570151	0.143129
C53	C	-0.635511	-1.022751	-0.404188
C54	C	-0.135511	-0.522751	0.095812
C55	C	-0.569770	-1.022722	-0.404175
C56	C	-0.069770	-0.522722	0.095825
N57	N	-0.771637	-1.005367	-0.362504
N58	N	-0.271637	-0.505367	0.137496
N59	N	-0.834089	-1.005396	-0.362512
N60	N	-0.334089	-0.505396	0.137488
C61	C	-0.866450	-1.070234	-0.356914
C62	C	-0.366450	-0.570234	0.143086
N63	N	-0.834001	-1.135044	-0.351293
N64	N	-0.334001	-0.635044	0.148707
N65	N	-0.771543	-1.135014	-0.351282
N66	N	-0.271543	-0.635014	0.148718
C67	C	-0.739661	-1.070177	-0.356891
C68	C	-0.239661	-0.570177	0.143109
C69	C	-0.970592	-1.117673	-0.309622
C70	C	-0.470592	-0.617673	0.190378
C71	C	-1.036335	-1.117709	-0.309644
C72	C	-0.536335	-0.617709	0.190356
C73	C	-1.036354	-1.022926	-0.404273
C74	C	-0.536354	-0.522926	0.095727
C75	C	-0.970612	-1.022897	-0.404255
C76	C	-0.470612	-0.522897	0.095745
C77	C	-0.937734	-1.070269	-0.356925
C78	C	-0.437734	-0.570269	0.143075
C79	C	-0.139183	-1.070283	-0.356937
C80	C	0.360817	-0.570283	0.143063
C81	C	-0.069215	-1.070334	-0.356961
C82	C	0.430785	-0.570334	0.143039
C83	C	-0.303399	-1.263328	-0.356919
C84	C	0.196601	-0.763328	0.143081
C85	C	-0.303410	-1.345642	-0.356935
C86	C	0.196590	-0.845642	0.143065
C87	C	-0.303391	-0.496350	-0.356904
C88	C	0.196609	0.003650	0.143096
C89	C	-0.254504	-0.527673	-0.299967
C90	C	0.245496	-0.027673	0.200033
C91	C	-0.254635	-0.613291	-0.299724
C92	C	0.245365	-0.113291	0.200276
C93	C	-0.303371	-0.644733	-0.356873
C94	C	0.196629	-0.144733	0.143127
C95	C	-0.369679	-0.613615	-0.335543
C96	C	0.130321	-0.113615	0.164457
C97	C	-0.369407	-0.527970	-0.335147
C98	C	0.130593	-0.027970	0.164853
C99	C	-0.286547	-0.527965	-0.435305
C100	C	0.213453	-0.027965	0.064695
C101	C	-0.285070	-0.613615	-0.434877
C102	C	0.214930	-0.113615	0.065123
C103	C	-0.303364	-0.728592	-0.356857
C104	C	0.196636	-0.228592	0.143143
C105	C	-0.303403	-0.412491	-0.356919
C106	C	0.196597	0.087509	0.143081
C107	C	-0.303232	-1.070270	-0.931447
C108	C	0.196768	-0.570270	-0.431447
C109	C	-0.351719	-1.012805	-0.900093
C110	C	0.148281	-0.512805	-0.400093
C111	C	-0.351944	-1.012960	-0.814475
C112	C	0.148056	-0.512960	-0.314475
C113	C	-0.303291	-1.070248	-0.783064
C114	C	0.196709	-0.570248	-0.283064
C115	C	-0.321303	-1.148274	-0.814168
C116	C	0.178697	-0.648274	-0.314168
C117	C	-0.321621	-1.147953	-0.899813
C118	C	0.178379	-0.647953	-0.399813
C119	C	-0.236626	-1.050388	-0.899877
C120	C	0.263374	-0.550388	-0.399877
C121	C	-0.237011	-1.048652	-0.814226
C122	C	0.262989	-0.548652	-0.314226
C123	C	-0.303323	-1.070240	-0.699205
C124	C	0.196677	-0.570240	-0.199205
C125	C	-0.303202	-1.070283	-1.015306
C126	C	0.196798	-0.570283	-0.515306
C127	C	-0.303344	-1.070166	-0.164469
C128	C	0.196656	-0.570166	0.335531
C129	C	-0.303173	-1.070291	-0.082155
C130	C	0.196827	-0.570291	0.417845
H131	H	-0.542982	-1.156067	-0.271002
H132	H	-0.042982	-0.656067	0.228998
H133	H	-0.265769	-0.633745	-0.241630
H134	H	0.234231	-0.133745	0.258370
H135	H	-0.407065	-0.507249	-0.374809
H136	H	0.092935	-0.007249	0.125191
C137	C	-0.334645	-0.500599	-0.492617
C138	C	0.165355	-0.000599	0.007383
H139	H	-0.364846	-0.470054	-0.468922
H140	H	0.135154	0.029946	0.031078
H141	H	-0.355123	-0.541783	-0.514455
H142	H	0.144877	-0.041783	-0.014455
H143	H	-0.313636	-0.473059	-0.529824
H144	H	0.186364	0.026941	-0.029824
C145	C	-0.533624	-0.970582	-0.456212
C146	C	-0.033624	-0.470582	0.043788
H147	H	-0.489762	-0.977353	-0.449429
H148	H	0.010238	-0.477353	0.050571
H149	H	-0.544438	-0.920835	-0.445330
H150	H	-0.044438	-0.420835	0.054670
H151	H	-0.544365	-0.981403	-0.505986
H152	H	-0.044365	-0.481403	-0.005986
C153	C	-0.388699	-0.500932	-0.257720
C154	C	0.111301	-0.000932	0.242280
H155	H	-0.396626	-0.542291	-0.226802
H156	H	0.103374	-0.042291	0.273198
H157	H	-0.425618	-0.471691	-0.261395
H158	H	0.074382	0.028309	0.238605
H159	H	-0.355746	-0.472145	-0.237187
H160	H	0.144254	0.027855	0.262813
H161	H	-0.369476	-1.165420	-0.792722
H162	H	0.130524	-0.665420	-0.292722
C163	C	-0.934424	-1.169787	-0.257571
C164	C	-0.434424	-0.669787	0.242429
H165	H	-0.963410	-1.198030	-0.229406
H166	H	-0.463410	-0.698030	0.270594
H167	H	-0.908814	-1.141468	-0.225267
H168	H	-0.408814	-0.641468	0.274733
H169	H	-0.908742	-1.202027	-0.285933
H170	H	-0.408742	-0.702027	0.214067
C171	C	-0.185622	-1.101107	-0.785404
C172	C	0.314378	-0.601107	-0.285404
H173	H	-0.146115	-1.086772	-0.805121
H174	H	0.353885	-0.586772	-0.305121
H175	H	-0.194885	-1.150228	-0.800315
H176	H	0.305115	-0.650228	-0.300315
H177	H	-0.184159	-1.098687	-0.733005
H178	H	0.315841	-0.598687	-0.233005
H179	H	-1.063086	-1.156310	-0.271122
H180	H	-0.563086	-0.656310	0.228878
H181	H	-0.943858	-0.984298	-0.442774
H182	H	-0.443858	-0.484298	0.057226
C183	C	-0.420207	-0.641130	-0.389803
C184	C	0.079793	-0.141130	0.110197
H185	H	-0.401267	-0.671916	-0.426032
H186	H	0.098733	-0.171916	0.073968
H187	H	-0.439442	-0.600016	-0.413279
H188	H	0.060558	-0.100016	0.086721
H189	H	-0.451080	-0.668448	-0.363570
H190	H	0.048920	-0.168448	0.136430
C191	C	-0.671641	-1.169660	-0.257509
C192	C	-0.171641	-0.669660	0.242491
H193	H	-0.642644	-1.197865	-0.229316
H194	H	-0.142644	-0.697865	0.270684
H195	H	-0.697254	-1.201923	-0.285869
H196	H	-0.197254	-0.701923	0.214131
H197	H	-0.697318	-1.141347	-0.225220
H198	H	-0.197318	-0.641347	0.274780
C199	C	-0.336718	-0.934801	-0.786055
C200	C	0.163282	-0.434801	-0.286055
H201	H	-0.336835	-0.934792	-0.733571
H202	H	0.163165	-0.434792	-0.233571
H203	H	-0.367456	-0.901069	-0.803622
H204	H	0.132544	-0.401069	-0.303622
H205	H	-0.296464	-0.920326	-0.803432
H206	H	0.203536	-0.420326	-0.303432
C207	C	-0.389313	-0.642534	-0.258949
C208	C	0.110687	-0.142534	0.241051
H209	H	-0.357195	-0.673562	-0.239867
H210	H	0.142805	-0.173562	0.260133
H211	H	-0.427196	-0.669879	-0.263281
H212	H	0.072804	-0.169879	0.236719
H213	H	-0.395647	-0.601994	-0.226438
H214	H	0.104353	-0.101994	0.273562
C215	C	-0.187821	-1.106919	-0.927281
C216	C	0.312179	-0.606919	-0.427281
H217	H	-0.207904	-1.142467	-0.957814
H218	H	0.292096	-0.642467	-0.457814
H219	H	-0.169229	-1.130996	-0.886114
H220	H	0.330771	-0.630996	-0.386114
H221	H	-0.156228	-1.082165	-0.954842
H222	H	0.343772	-0.582165	-0.454842
C223	C	-0.671681	-0.970637	-0.456233
C224	C	-0.171681	-0.470637	0.043767
H225	H	-0.715540	-0.977437	-0.449460
H226	H	-0.215540	-0.477437	0.050540
H227	H	-0.660877	-0.981441	-0.506001
H228	H	-0.160877	-0.481441	-0.006001
H229	H	-0.660945	-0.920878	-0.445338
H230	H	-0.160945	-0.420878	0.054662
H231	H	-0.205183	-0.507102	-0.313191
H232	H	0.294817	-0.007102	0.186809
H233	H	-0.340562	-0.954772	-0.920680
H234	H	0.159438	-0.454772	-0.420680
H235	H	-1.063127	-0.984355	-0.442802
H236	H	-0.563127	-0.484355	0.057198
H237	H	-0.205465	-0.634331	-0.313095
H238	H	0.294535	-0.134331	0.186905
C239	C	-0.275101	-1.207674	-0.786690
C240	C	0.224899	-0.707674	-0.286690
H241	H	-0.286858	-1.254411	-0.806154
H242	H	0.213142	-0.754411	-0.306154
H243	H	-0.276090	-1.209501	-0.734257
H244	H	0.223910	-0.709501	-0.234257
H245	H	-0.233849	-1.195757	-0.802722
H246	H	0.266151	-0.695757	-0.302722
C247	C	-0.269373	-0.498568	-0.221943
C248	C	0.230627	0.001432	0.278057
H249	H	-0.305246	-0.467411	-0.223915
H250	H	0.194754	0.032589	0.276085
H251	H	-0.234508	-0.471319	-0.203834
H252	H	0.265492	0.028681	0.296166
H253	H	-0.277554	-0.539024	-0.189945
H254	H	0.222446	-0.039024	0.310055
H255	H	-0.239037	-0.506392	-0.454697
H256	H	0.260963	-0.006392	0.045303
C257	C	-0.219154	-0.641097	-0.456610
C258	C	0.280846	-0.141097	0.043390
H259	H	-0.202851	-0.671412	-0.418313
H260	H	0.297149	-0.171412	0.081687
H261	H	-0.192185	-0.599951	-0.463896
H262	H	0.307815	-0.099951	0.036104
H263	H	-0.221765	-0.668901	-0.501026
H264	H	0.278235	-0.168901	-0.001026
C265	C	-0.214456	-0.974864	-0.929038
C266	C	0.285544	-0.474864	-0.429038
H267	H	-0.245618	-0.954749	-0.960742
H268	H	0.254382	-0.454749	-0.460742
H269	H	-0.176379	-0.980942	-0.955716
H270	H	0.323621	-0.480942	-0.455716
H271	H	-0.207707	-0.942301	-0.888645
H272	H	0.292293	-0.442301	-0.388645
C273	C	-0.218653	-0.971088	-0.786755
C274	C	0.281347	-0.471088	-0.286755
H275	H	-0.251240	-0.951942	-0.756417
H276	H	0.248760	-0.451942	-0.256417
H277	H	-0.212496	-0.939352	-0.827903
H278	H	0.287504	-0.439352	-0.327903
H279	H	-0.180901	-0.974125	-0.758976
H280	H	0.319099	-0.474125	-0.258976
C281	C	-0.329674	-0.642516	-0.495258
C282	C	0.170326	-0.142516	0.004742
H283	H	-0.360180	-0.674076	-0.473588
H284	H	0.139820	-0.174076	0.026412
H285	H	-0.306266	-0.669293	-0.531048
H286	H	0.193734	-0.169293	-0.031048
H287	H	-0.350109	-0.602002	-0.518380
H288	H	0.149891	-0.102002	-0.018380
H289	H	-0.401314	-1.026087	-0.793988
H290	H	0.098686	-0.526087	-0.293988
C291	C	-0.418006	-1.030350	-0.929172
C292	C	0.081994	-0.530350	-0.429172
H293	H	-0.416262	-1.072547	-0.960334
H294	H	0.083738	-0.572547	-0.460334
H295	H	-0.433438	-0.989341	-0.956410
H296	H	0.066562	-0.489341	-0.456410
H297	H	-0.445212	-1.040001	-0.888709
H298	H	0.054788	-0.540001	-0.388709
H299	H	-0.370312	-1.164808	-0.919793
H300	H	0.129688	-0.664808	-0.419793
H301	H	-0.287839	-1.192220	-0.920557
H302	H	0.212161	-0.692220	-0.420557
