data_functionalizedCrystal
_audit_creation_method	'MofGen! by Chris Wilmer'
_symmetry_space_group_name_H-M	'P1'
_symmetry_Int_Tables_number	1
_symmetry_cell_setting	triclinic
loop_
_symmetry_equiv_pos_as_xyz
  x,y,z
_cell_length_a	16.992695
_cell_length_b	16.109301
_cell_length_c	16.053802
_cell_angle_alpha	87.422229
_cell_angle_beta	87.258926
_cell_angle_gamma	92.935148
loop_
_atom_site_label
_atom_site_type_symbol
_atom_site_fract_x
_atom_site_fract_y
_atom_site_fract_z
O1	O	0.097485	-1.113143	0.069377
O2	O	0.110027	-0.871918	0.069390
O3	O	-0.010386	-0.991563	0.069377
O4	O	0.217898	-0.993498	0.069390
O5	O	-0.003786	-0.984976	-0.069481
O6	O	0.116627	-0.865331	-0.069468
O7	O	0.104086	-1.106555	-0.069481
Zn8	Zn	0.111404	-0.984897	-0.091521
Zn9	Zn	0.102708	-0.993576	0.091430
O10	O	0.224499	-0.986911	-0.069468
C11	C	0.112819	-0.837616	-0.000037
C12	C	0.111296	-0.745219	-0.000032
C13	C	-0.036298	-0.985782	-0.000052
C14	C	-0.123340	-0.978358	-0.000051
C15	C	0.101293	-1.140858	-0.000052
C16	C	0.102817	-1.233255	-0.000051
C17	C	-0.173599	-1.049984	-0.000056
C18	C	-0.255384	-1.043004	-0.000048
C19	C	-0.286909	-0.964398	-0.000041
C20	C	-0.236644	-0.892767	-0.000033
C21	C	-0.154860	-0.899747	-0.000036
C22	C	-0.530500	-0.935466	-0.000028
C23	C	-0.612289	-0.928490	-0.000028
C24	C	-0.631024	-1.078729	-0.000041
C25	C	-0.549238	-1.085702	-0.000048
C26	C	-0.498980	-1.014071	-0.000036
N27	N	-0.370506	-0.957261	-0.000035
N28	N	-0.415385	-1.021209	-0.000036
C29	C	0.250410	-0.992692	-0.000037
C30	C	0.337452	-1.000116	-0.000033
N31	N	0.117339	-0.978980	-0.216381
C32	C	0.179205	-0.527478	-0.000038
C33	C	0.177768	-0.440662	-0.000043
C34	C	0.034902	-0.451002	-0.000048
C35	C	0.036340	-0.537817	-0.000049
C36	C	0.108494	-0.576053	-0.000039
C37	C	0.105618	-0.402421	-0.000044
C38	C	0.104060	-0.308291	-0.000050
C39	C	0.110053	-0.670189	-0.000035
C40	C	0.066121	-1.029910	-0.260081
C41	C	0.070280	-1.025779	-0.347487
C42	C	0.125661	-0.970722	-0.391192
C43	C	0.176881	-0.919786	-0.347486
C44	C	0.172718	-0.923913	-0.260082
C45	C	0.143824	-0.952692	-0.652600
C46	C	0.147985	-0.948570	-0.740011
C47	C	0.041382	-1.054562	-0.740005
C48	C	0.037227	-1.058688	-0.652599
C49	C	0.088445	-1.007750	-0.608901
N50	N	0.129915	-0.966500	-0.480535
N51	N	0.084186	-1.011968	-0.519559
N52	N	0.096767	-0.999500	0.216290
H53	H	-0.147938	-1.113994	-0.000067
H54	H	0.235349	-0.401116	-0.000044
H55	H	-0.296302	-1.101330	-0.000054
H56	H	-0.637952	-0.864476	-0.000035
H57	H	0.028574	-1.067250	-0.383067
H58	H	-0.113940	-0.841422	-0.000031
C59	C	-0.686305	-1.157518	-0.000045
H60	H	-0.655815	-1.205331	-0.000054
H61	H	-0.720896	-1.160215	0.048379
H62	H	-0.716298	-1.155622	-0.048473
C63	C	-0.044463	-0.408944	-0.000048
H64	H	-0.086371	-0.450310	-0.000056
H65	H	-0.050294	-0.377589	0.048376
H66	H	-0.045695	-0.372998	-0.048476
H67	H	0.193086	-0.903733	-0.775591
C68	C	-0.514567	-1.172170	-0.000045
H69	H	-0.556214	-1.213830	-0.000038
H70	H	-0.480752	-1.175722	-0.048466
H71	H	-0.485354	-1.180307	0.048385
H72	H	-0.021245	-0.577368	-0.000052
C73	C	0.229057	-0.867894	-0.212008
H74	H	0.218641	-0.878231	-0.153694
H75	H	0.282073	-0.879718	-0.226319
H76	H	0.221201	-0.811163	-0.226345
H77	H	0.021028	-1.074747	-0.224502
C78	C	0.200167	-0.896669	-0.604543
H79	H	0.233751	-0.863296	-0.643093
H80	H	0.170332	-0.861795	-0.570457
H81	H	0.231195	-0.930358	-0.570436
H82	H	-0.007868	-1.103520	-0.617016
H83	H	-0.000317	-1.096033	-0.775592
H84	H	0.221971	-0.874953	-0.383076
H85	H	-0.489589	-0.877138	-0.000018
H86	H	-0.262318	-0.828764	-0.000022
C87	C	0.258571	-0.569535	-0.000037
H88	H	0.300478	-0.528168	-0.000044
H89	H	0.259805	-0.605482	0.048386
H90	H	0.264400	-0.600890	-0.048466
