data_functionalizedCrystal
_audit_creation_method	'MofGen! by Chris Wilmer'
_symmetry_space_group_name_H-M	'P1'
_symmetry_Int_Tables_number	1
_symmetry_cell_setting	triclinic
loop_
_symmetry_equiv_pos_as_xyz
  x,y,z
_cell_length_a	18.050589
_cell_length_b	16.625548
_cell_length_c	16.625539
_cell_angle_alpha	89.979432
_cell_angle_beta	89.975176
_cell_angle_gamma	90.029289
loop_
_atom_site_label
_atom_site_type_symbol
_atom_site_fract_x
_atom_site_fract_y
_atom_site_fract_z
Zn1	Zn	-0.295637	1.232648	-0.455929
Zn2	Zn	0.204363	1.732648	0.044071
Zn3	Zn	-0.419835	1.232538	-0.321104
Zn4	Zn	0.080165	1.732538	0.178896
Zn5	Zn	-0.295665	1.097810	-0.321109
Zn6	Zn	0.204335	1.597810	0.178891
Zn7	Zn	-0.419792	1.097767	-0.455894
Zn8	Zn	0.080208	1.597767	0.044106
O9	O	-0.357732	1.165191	-0.388509
O10	O	0.142268	1.665191	0.111491
O11	O	-0.312118	1.345466	-0.438056
O12	O	0.187882	1.845466	0.061944
O13	O	-0.403393	1.214638	-0.208272
O14	O	0.096607	1.714638	0.291728
O15	O	-0.191737	1.115761	-0.339010
O16	O	0.308263	1.615761	0.160990
O17	O	-0.403366	1.345385	-0.339001
O18	O	0.096634	1.845385	0.160999
O19	O	-0.191716	1.214826	-0.438061
O20	O	0.308284	1.714826	0.061939
O21	O	-0.312166	1.115654	-0.208276
O22	O	0.187834	1.615654	0.291724
O23	O	-0.312125	0.984972	-0.338976
O24	O	0.187875	1.484972	0.161024
O25	O	-0.403293	1.115687	-0.568731
O26	O	0.096707	1.615687	-0.068731
O27	O	-0.403320	0.984940	-0.438002
O28	O	0.096680	1.484940	0.061998
O29	O	-0.312077	1.214784	-0.568757
O30	O	0.187923	1.714784	-0.068757
O31	O	-0.523754	1.214596	-0.338968
O32	O	-0.023754	1.714596	0.161032
O33	O	-0.523722	1.115580	-0.437997
O34	O	-0.023722	1.615580	0.062003
C35	C	-0.357722	0.955700	-0.388487
C36	C	0.142278	1.455700	0.111513
C37	C	-0.357735	0.866079	-0.388496
C38	C	0.142265	1.366079	0.111504
C39	C	-0.550684	1.165093	-0.388496
C40	C	-0.050684	1.665093	0.111504
C41	C	-0.633230	1.165126	-0.388517
C42	C	-0.133230	1.665126	0.111483
C43	C	-0.357740	0.537903	-0.388531
C44	C	0.142260	1.037903	0.111469
C45	C	-0.357736	0.629212	-0.388518
C46	C	0.142264	1.129212	0.111482
C47	C	-0.357738	0.701988	-0.388513
C48	C	0.142262	1.201988	0.111487
C49	C	-0.357734	0.793302	-0.388502
C50	C	0.142266	1.293302	0.111498
C51	C	-0.832691	1.111334	-0.442350
C52	C	-0.332691	1.611334	0.057650
C53	C	-0.882133	1.091677	-0.368775
C54	C	-0.382133	1.591677	0.131225
C55	C	-0.784360	1.165205	-0.388528
C56	C	-0.284360	1.665205	0.111472
C57	C	-0.882000	1.184901	-0.462112
C58	C	-0.382000	1.684901	0.037888
C59	C	-0.930346	1.165280	-0.388544
C60	C	-0.430346	1.665280	0.111456
C61	C	-0.832715	1.145510	-0.314913
C62	C	-0.332715	1.645510	0.185087
C63	C	-0.832578	1.238767	-0.408300
C64	C	-0.332578	1.738767	0.091700
C65	C	-0.881998	1.219139	-0.334673
C66	C	-0.381998	1.719139	0.165327
C67	C	-0.700262	1.165160	-0.388519
C68	C	-0.200262	1.665160	0.111481
C69	C	-1.014442	1.165325	-0.388544
C70	C	-0.514442	1.665325	0.111456
C71	C	-0.164027	1.165310	-0.388540
C72	C	0.335973	1.665310	0.111460
C73	C	-0.081481	1.165361	-0.388553
C74	C	0.418519	1.665361	0.111447
C75	C	-0.357677	1.165243	-0.598818
C76	C	0.142323	1.665243	-0.098818
C77	C	-0.357653	1.165266	-0.688439
C78	C	0.142347	1.665266	-0.188439
C79	C	-0.357743	1.375500	-0.388532
C80	C	0.142257	1.875500	0.111468
C81	C	-0.357748	1.465121	-0.388542
C82	C	0.142252	1.965121	0.111458
C83	C	-0.357570	1.165303	-1.016615
C84	C	0.142430	1.665303	-0.516615
C85	C	-0.357596	1.165290	-0.925307
C86	C	0.142404	1.665290	-0.425307
C87	C	-0.357612	1.165285	-0.852530
C88	C	0.142388	1.665285	-0.352530
C89	C	-0.357637	1.165271	-0.761216
C90	C	0.142363	1.665271	-0.261216
C91	C	-0.357734	1.165185	-0.179018
C92	C	0.142266	1.665185	0.320982
C93	C	-0.357548	1.165319	-0.089398
C94	C	0.142452	1.665319	0.410602
H95	H	-0.903916	1.029503	-0.352066
H96	H	-0.403916	1.529503	0.147934
F97	F	-0.804390	1.051703	-0.501760
F98	F	-0.304390	1.551703	-0.001760
F99	F	-0.804539	1.123682	-0.233559
F100	F	-0.304539	1.623682	0.266441
F101	F	-0.910119	1.278729	-0.275123
F102	F	-0.410119	1.778729	0.224877
F103	F	-0.804107	1.320016	-0.430184
F104	F	-0.304107	1.820016	0.069816
F105	F	-0.910300	1.206636	-0.543440
F106	F	-0.410300	1.706636	-0.043440
