data_functionalizedCrystal
_audit_creation_method	'MofGen! by Chris Wilmer'
_symmetry_space_group_name_H-M	'P1'
_symmetry_Int_Tables_number	1
_symmetry_cell_setting	triclinic
loop_
_symmetry_equiv_pos_as_xyz
  x,y,z
_cell_length_a	19.805407
_cell_length_b	12.759400
_cell_length_c	19.805399
_cell_angle_alpha	89.975356
_cell_angle_beta	89.983114
_cell_angle_gamma	90.014685
loop_
_atom_site_label
_atom_site_type_symbol
_atom_site_fract_x
_atom_site_fract_y
_atom_site_fract_z
Zn1	Zn	1.034773	-0.418276	-0.382740
Zn2	Zn	1.034716	-0.593974	-0.269560
Zn3	Zn	0.921593	-0.418309	-0.269565
Zn4	Zn	0.921574	-0.593914	-0.382707
O5	O	0.978164	-0.506118	-0.326143
O6	O	1.129482	-0.441594	-0.367739
O7	O	1.019694	-0.570711	-0.174844
O8	O	0.936638	-0.271284	-0.284593
O9	O	1.129440	-0.570678	-0.284586
O10	O	1.019791	-0.271259	-0.367743
O11	O	0.936583	-0.441651	-0.174848
O12	O	0.826874	-0.441592	-0.284561
O13	O	0.936606	-0.570576	-0.477428
O14	O	0.826860	-0.570608	-0.367687
O15	O	1.019773	-0.441536	-0.477452
O16	O	1.019676	-0.740987	-0.284554
O17	O	0.936551	-0.740943	-0.367682
C18	C	0.802308	-0.506098	-0.326121
C19	C	0.727076	-0.506115	-0.326128
C20	C	0.978124	-0.779086	-0.326129
C21	C	0.978169	-0.895862	-0.326146
C22	C	0.691742	-0.573394	-0.369341
C23	C	0.621054	-0.573396	-0.369351
C24	C	0.585700	-0.506123	-0.326143
C25	C	0.621039	-0.438836	-0.282928
C26	C	0.691726	-0.438830	-0.282922
C27	C	0.335966	-0.438859	-0.282950
C28	C	0.265274	-0.438873	-0.282958
C29	C	0.265294	-0.573426	-0.369379
C30	C	0.335981	-0.573419	-0.369373
C31	C	0.371313	-0.506129	-0.326161
C32	C	0.447961	-0.506126	-0.326152
C33	C	0.509053	-0.506130	-0.326148
C34	C	1.021500	-0.950712	-0.282908
C35	C	1.021541	-1.060436	-0.282929
C36	C	0.934915	-1.060450	-0.369426
C37	C	0.934877	-0.950728	-0.369408
C38	C	1.064791	-0.895846	-0.239646
C39	C	1.108125	-0.950696	-0.196404
C40	C	1.108167	-1.060420	-0.196425
C41	C	1.064874	-1.115294	-0.239687
C42	C	1.154707	-0.506139	-0.326165
C43	C	1.229939	-0.506148	-0.326175
C44	C	0.978194	-0.506045	-0.502686
C45	C	0.978206	-0.506014	-0.577918
C46	C	0.978223	-0.232085	-0.326172
C47	C	0.978248	-0.115308	-0.326184
C48	C	0.934943	-0.438806	-0.613263
C49	C	0.934952	-0.438786	-0.683952
C50	C	0.978229	-0.505969	-0.719294
C51	C	1.021495	-0.573184	-0.683943
C52	C	1.021481	-0.573209	-0.613256
C53	C	1.021548	-0.573086	-0.969017
C54	C	1.021560	-0.573053	-1.039709
C55	C	0.935019	-0.438663	-1.039712
C56	C	0.935006	-0.438688	-0.969025
C57	C	0.978268	-0.505906	-0.933681
C58	C	0.978257	-0.505929	-0.857033
C59	C	0.978244	-0.505941	-0.795941
C60	C	0.978173	-0.506115	-0.150287
C61	C	0.978292	-0.505850	-0.075055
H62	H	0.720522	-0.628180	-0.404524
H63	H	1.143377	-0.906012	-0.161186
C64	C	0.226429	-0.647400	-0.416944
H65	H	0.257610	-0.687460	-0.442677
H66	H	0.198884	-0.607240	-0.446476
H67	H	0.198826	-0.693144	-0.391023
H68	H	1.143456	-1.105076	-0.161221
C69	C	1.064924	-1.235988	-0.239713
H70	H	1.096930	-1.260799	-0.207765
H71	H	1.076608	-1.260745	-0.283407
H72	H	1.021260	-1.260879	-0.227967
H73	H	0.592248	-0.384056	-0.247750
H74	H	1.064760	-0.806503	-0.239622
C75	C	0.887292	-1.120809	-0.417004
H76	H	0.893516	-1.194011	-0.410817
H77	H	0.897160	-1.102770	-0.462489
H78	H	0.841813	-1.102892	-0.407047
C79	C	0.887217	-0.890389	-0.416971
H80	H	0.861434	-0.938778	-0.442734
H81	H	0.913081	-0.847527	-0.446476
H82	H	0.857724	-0.847647	-0.391045
H83	H	0.899705	-0.384092	-0.584493
C84	C	1.069162	-0.646960	-1.078587
H85	H	1.062978	-0.637307	-1.125748
H86	H	1.059237	-0.717554	-1.066997
H87	H	1.114644	-0.631593	-1.067010
C88	C	0.887366	-0.364851	-0.722829
H89	H	0.861597	-0.324833	-0.691656
H90	H	0.857868	-0.405020	-0.750396
H91	H	0.913280	-0.319068	-0.750412
H92	H	1.056768	-0.627831	-0.940248
C93	C	0.374822	-0.364861	-0.235407
H94	H	0.343641	-0.324811	-0.209669
H95	H	0.402416	-0.319126	-0.261338
H96	H	0.402377	-0.405005	-0.205868
H97	H	0.720494	-0.384038	-0.247737
H98	H	0.364762	-0.628204	-0.404555
C99	C	0.887399	-0.364791	-0.930153
H100	H	0.861628	-0.324768	-0.961328
H101	H	0.913292	-0.319027	-0.902584
H102	H	0.857893	-0.404999	-0.902572
C103	C	1.069099	-0.647082	-0.722817
H104	H	1.062917	-0.637435	-0.769979
H105	H	1.059178	-0.717676	-0.711225
H106	H	1.114579	-0.631707	-0.711238
H107	H	0.899790	-0.383933	-1.068498
H108	H	1.056716	-0.627929	-0.584479
C109	C	0.226386	-0.364861	-0.235433
H110	H	0.257552	-0.324775	-0.209701
H111	H	0.198794	-0.404989	-0.205897
H112	H	0.198827	-0.319143	-0.261387
C113	C	0.582190	-0.647468	-0.416844
H114	H	0.613369	-0.687560	-0.442557
H115	H	0.554611	-0.607402	-0.446398
H116	H	0.554620	-0.693176	-0.390861
