data_functionalizedCrystal
_audit_creation_method	'MofGen! by Chris Wilmer'
_symmetry_space_group_name_H-M	'P1'
_symmetry_Int_Tables_number	1
_symmetry_cell_setting	triclinic
loop_
_symmetry_equiv_pos_as_xyz
  x,y,z
_cell_length_a	11.792241
_cell_length_b	10.868271
_cell_length_c	10.723022
_cell_angle_alpha	90.000239
_cell_angle_beta	84.330321
_cell_angle_gamma	90.000156
loop_
_atom_site_label
_atom_site_type_symbol
_atom_site_fract_x
_atom_site_fract_y
_atom_site_fract_z
O1	O	1.507283	0.102199	0.171033
O2	O	1.176980	0.102228	0.188660
O3	O	1.349751	0.102208	-0.001750
O4	O	1.334511	0.102219	0.361443
O5	O	1.349735	-0.102436	-0.001744
O6	O	1.176964	-0.102417	0.188666
O7	O	1.507267	-0.102445	0.171039
Zn8	Zn	1.342113	-0.134923	0.179853
Zn9	Zn	1.342134	0.134705	0.179845
O10	O	1.334496	-0.102426	0.361449
C11	C	1.134679	-0.000091	0.187556
C12	C	1.008658	-0.000080	0.184242
N13	N	1.342107	-0.318937	0.179858
C14	C	1.342116	-0.430275	0.179859
C15	C	1.342131	-0.569952	0.179847
C16	C	0.777932	-0.000116	0.178148
C17	C	0.906325	-0.000096	0.181534
C18	C	1.549568	-0.000124	0.172143
C19	C	1.675589	-0.000127	0.175457
C20	C	1.348635	-0.000112	-0.048244
C21	C	1.345318	-0.000108	-0.186789
N22	N	1.342149	0.318719	0.179831
C23	C	1.438560	-0.000110	-0.405214
C24	C	1.441991	-0.000114	-0.262021
C25	C	1.335612	-0.000102	0.407943
C26	C	1.338929	-0.000099	0.546488
H27	H	1.521318	-0.000122	-0.469876
H28	H	1.256171	-0.000102	-0.388850
O29	O	1.243472	-0.000259	-0.236234
C30	C	1.066021	-0.106297	-0.252151
C31	C	1.181310	-0.106266	-0.196037
H32	H	1.015740	-0.192007	-0.219694
H33	H	1.015599	-0.020708	-0.219591
H34	H	1.081415	-0.106233	-0.358795
H35	H	1.166020	-0.106373	-0.089390
H36	H	1.231695	-0.191847	-0.228694
H37	H	1.527295	-0.000079	-0.220434
