data_functionalizedCrystal
_audit_creation_method	'MofGen! by Chris Wilmer'
_symmetry_space_group_name_H-M	'P1'
_symmetry_Int_Tables_number	1
_symmetry_cell_setting	triclinic
loop_
_symmetry_equiv_pos_as_xyz
  x,y,z
_cell_length_a	14.044220
_cell_length_b	14.519709
_cell_length_c	13.101039
_cell_angle_alpha	86.641741
_cell_angle_beta	86.332523
_cell_angle_gamma	91.565489
loop_
_atom_site_label
_atom_site_type_symbol
_atom_site_fract_x
_atom_site_fract_y
_atom_site_fract_z
O1	O	0.119055	-1.238528	0.085082
O2	O	0.619055	-0.738528	0.585082
O3	O	0.133688	-0.971233	0.085114
O4	O	0.633688	-0.471233	0.585114
O5	O	-0.011619	-1.100868	0.085089
O6	O	0.488381	-0.600868	0.585089
O7	O	0.264362	-1.108893	0.085108
O8	O	0.764362	-0.608893	0.585108
O9	O	-0.001176	-1.091568	-0.085340
O10	O	0.498824	-0.591568	0.414660
O11	O	0.144131	-0.961933	-0.085314
O12	O	0.644131	-0.461933	0.414686
O13	O	0.129498	-1.229228	-0.085346
O14	O	0.629498	-0.729228	0.414654
Zn15	Zn	0.138473	-1.094104	-0.112389
Zn16	Zn	0.638473	-0.594104	0.387611
Zn17	Zn	0.124714	-1.106357	0.112157
Zn18	Zn	0.624714	-0.606357	0.612157
O19	O	0.274805	-1.099593	-0.085320
O20	O	0.774805	-0.599593	0.414680
C21	C	0.138227	-0.932168	-0.000096
C22	C	0.638227	-0.432168	0.499904
C23	C	0.136183	-0.829623	-0.000084
C24	C	0.636183	-0.329623	0.499916
C25	C	-0.041718	-1.092705	-0.000126
C26	C	0.458282	-0.592705	0.499874
C27	C	-0.146962	-1.082228	-0.000126
C28	C	0.353038	-0.582228	0.499874
N29	N	0.147862	-1.085748	-0.265636
N30	N	0.647862	-0.585748	0.234364
C31	C	-0.339657	-1.063075	-0.000109
C32	C	0.160343	-0.563075	0.499891
C33	C	-0.397163	-1.137382	-0.000114
C34	C	0.102837	-0.637382	0.499886
C35	C	-0.504385	-1.126725	-0.000105
C36	C	-0.004385	-0.626725	0.499895
C37	C	-0.232424	-1.073730	-0.000118
C38	C	0.267576	-0.573730	0.499882
C39	C	0.304904	-1.107756	-0.000104
C40	C	0.804904	-0.607756	0.499896
C41	C	0.410147	-1.118233	-0.000097
C42	C	0.910147	-0.618233	0.499903
C43	C	0.124959	-1.268292	-0.000133
C44	C	0.624959	-0.768292	0.499867
C45	C	0.127003	-1.370838	-0.000138
C46	C	0.627003	-0.870838	0.499862
C47	C	0.128661	-0.454118	-0.000131
C48	C	0.628661	0.045882	0.499869
C49	C	0.130750	-0.558595	-0.000118
C50	C	0.630750	-0.058595	0.499882
C51	C	0.132422	-0.641867	-0.000107
C52	C	0.632422	-0.141867	0.499893
C53	C	0.134511	-0.746351	-0.000095
C54	C	0.634511	-0.246351	0.499905
C55	C	0.160646	-1.074381	-0.474676
C56	C	0.660646	-0.574381	0.025324
C57	C	0.102536	-1.126083	-0.525562
C58	C	0.602536	-0.626083	-0.025562
C59	C	0.109649	-1.119759	-0.641879
C60	C	0.609649	-0.619759	-0.141879
C61	C	0.153534	-1.080705	-0.358348
C62	C	0.653534	-0.580705	0.141652
N63	N	0.115317	-1.114719	0.265404
N64	N	0.615317	-0.614719	0.765404
H65	H	-0.365875	-1.209007	-0.000054
H66	H	0.134125	-0.709007	0.499946
H67	H	-0.370948	-0.991459	-0.000098
H68	H	0.129052	-0.491459	0.499902
H69	H	0.215734	-1.025371	-0.518464
H70	H	0.715734	-0.525371	-0.018464
H71	H	0.047446	-1.175098	-0.481769
H72	H	0.547446	-0.675098	0.018231
