data_functionalizedCrystal
_audit_creation_method	'MofGen! by Chris Wilmer'
_symmetry_space_group_name_H-M	'P1'
_symmetry_Int_Tables_number	1
_symmetry_cell_setting	triclinic
loop_
_symmetry_equiv_pos_as_xyz
  x,y,z
_cell_length_a	14.971486
_cell_length_b	14.044220
_cell_length_c	13.448316
_cell_angle_alpha	89.992660
_cell_angle_beta	89.998199
_cell_angle_gamma	88.401503
loop_
_atom_site_label
_atom_site_type_symbol
_atom_site_fract_x
_atom_site_fract_y
_atom_site_fract_z
O1	O	1.196679	0.123538	-0.082579
O2	O	1.696679	0.623538	0.417421
O3	O	0.937445	0.138332	-0.082607
O4	O	1.437445	0.638332	0.417393
O5	O	1.063171	-0.007054	-0.082584
O6	O	1.563171	0.492946	0.417416
O7	O	1.070953	0.268924	-0.082602
O8	O	1.570953	0.768924	0.417398
O9	O	1.063153	-0.007063	0.082800
O10	O	1.563153	0.492937	0.582800
O11	O	0.937427	0.138323	0.082777
O12	O	1.437427	0.638323	0.582777
O13	O	1.196661	0.123529	0.082804
O14	O	1.696661	0.623529	0.582804
Cu15	Cu	1.067042	0.130925	0.097892
Cu16	Cu	1.567042	0.630925	0.597892
Cu17	Cu	1.067064	0.130936	-0.097694
Cu18	Cu	1.567064	0.630936	0.402306
O19	O	1.070935	0.268915	0.082781
O20	O	1.570935	0.768915	0.582781
C21	C	0.904059	0.137666	0.000082
C22	C	1.404059	0.637666	0.500082
C23	C	0.804606	0.135683	0.000072
C24	C	1.304606	0.635683	0.500072
C25	C	0.754109	0.221093	0.000067
C26	C	1.254109	0.721093	0.500067
C27	C	0.660662	0.219225	0.000082
C28	C	1.160662	0.719225	0.500082
C29	C	0.617714	0.131945	0.000094
C30	C	1.117714	0.631945	0.500094
C31	C	0.668218	0.046528	0.000102
C32	C	1.168218	0.546528	0.500102
C33	C	0.761663	0.048398	0.000094
C34	C	1.261663	0.548398	0.500094
C35	C	0.473449	0.042638	0.000116
C36	C	0.973449	0.542638	0.500116
C37	C	0.379997	0.040767	0.000122
C38	C	0.879997	0.540767	0.500122
C39	C	0.372448	0.213465	0.000104
C40	C	0.872448	0.713465	0.500104
C41	C	0.465893	0.215334	0.000096
C42	C	0.965893	0.715334	0.500096
C43	C	0.516390	0.129917	0.000102
C44	C	1.016390	0.629917	0.500102
C45	C	1.059755	-0.042377	0.000108
C46	C	1.559755	0.457623	0.500108
C47	C	1.049594	-0.147614	0.000108
C48	C	1.549594	0.352386	0.500108
C49	C	1.031018	-0.340297	0.000092
C50	C	1.531018	0.159703	0.500092
C51	C	1.103085	-0.397848	0.000097
C52	C	1.603085	0.102152	0.500097
C53	C	1.092748	-0.505063	0.000088
C54	C	1.592748	-0.005063	0.500088
C55	C	1.041353	-0.233071	0.000101
C56	C	1.541353	0.266929	0.500101
C57	C	1.230047	0.124195	0.000114
C58	C	1.730047	0.624195	0.500114
C59	C	1.329501	0.126178	0.000117
C60	C	1.829501	0.626178	0.500117
C61	C	1.074351	0.304238	0.000087
C62	C	1.574351	0.804238	0.500087
C63	C	1.084512	0.409475	0.000080
C64	C	1.584512	0.909475	0.500080
N65	N	1.067034	0.130917	0.235456
N66	N	1.567034	0.630917	0.735456
N67	N	1.067079	0.130936	-0.235258
N68	N	1.567079	0.630936	0.264742
C69	C	1.122727	0.066567	0.287506
C70	C	1.622727	0.566567	0.787506
C71	C	1.122732	0.066566	0.391610
C72	C	1.622732	0.566566	0.891610
C73	C	1.067049	0.130921	0.443660
C74	C	1.567049	0.630921	0.943660
C75	C	1.011350	0.195274	0.391603
C76	C	1.511350	0.695274	0.891603
C77	C	1.011341	0.195270	0.287501
C78	C	1.511341	0.695270	0.787501
C79	C	1.011376	0.195281	0.608583
C80	C	1.511376	0.695281	1.108583
C81	C	1.011386	0.195287	0.712691
C82	C	1.511386	0.695287	1.212691
C83	C	1.122767	0.066577	0.712691
C84	C	1.622767	0.566577	1.212691
C85	C	1.122757	0.066572	0.608590
C86	C	1.622757	0.566572	1.108590
C87	C	1.067060	0.130927	0.556539
C88	C	1.567060	0.630927	1.056539
H89	H	0.514561	-0.026919	0.000122
H90	H	1.014561	0.473081	0.500122
H91	H	1.172546	-0.366598	0.000037
H92	H	1.672546	0.133402	0.500037
H93	H	0.961562	-0.371545	0.000082
H94	H	1.461562	0.128455	0.500082
C95	C	1.183983	-0.004231	0.230260
C96	C	1.683983	0.495769	0.730260
N97	N	1.230120	-0.057560	0.187145
N98	N	1.730120	0.442440	0.687145
H99	H	0.619551	0.288775	0.000077
H100	H	1.119551	0.788775	0.500077
C101	C	0.950089	0.266057	0.448862
C102	C	1.450089	0.766057	0.948862
N103	N	0.903946	0.319371	0.491989
N104	N	1.403946	0.819371	0.991989
H105	H	1.168080	0.014166	0.433989
H106	H	1.668080	0.514166	0.933989
C107	C	1.184012	-0.004221	0.551336
C108	C	1.684012	0.495779	1.051336
N109	N	1.230147	-0.057547	0.508212
N110	N	1.730147	0.442453	1.008212
C111	C	0.513134	0.311346	0.000087
C112	C	1.013134	0.811346	0.500087
N113	N	0.548716	0.383664	0.000085
N114	N	1.048716	0.883664	0.500085
C115	C	0.332757	-0.055245	0.000137
C116	C	0.832757	0.444755	0.500137
N117	N	0.297175	-0.127563	0.000148
N118	N	0.797175	0.372437	0.500148
H119	H	1.168118	0.014177	0.755077
H120	H	1.668118	0.514177	1.255077
H121	H	0.331329	0.283015	0.000104
H122	H	0.831329	0.783015	0.500104
C123	C	0.620972	-0.049481	0.000117
C124	C	1.120972	0.450519	0.500117
N125	N	0.585387	-0.121797	0.000125
N126	N	1.085387	0.378203	0.500125
C127	C	0.817209	-0.045560	0.000096
C128	C	1.317209	0.454440	0.500096
N129	N	0.859045	-0.116333	0.000100
N130	N	1.359045	0.383667	0.500100
C131	C	0.950126	0.266075	0.769945
C132	C	1.450126	0.766075	1.269945
N133	N	0.903983	0.319392	0.813069
N134	N	1.403983	0.819392	1.313069
C135	C	0.950082	0.266068	0.230246
C136	C	1.450082	0.766068	0.730246
N137	N	0.903941	0.319396	0.187123
N138	N	1.403941	0.819396	0.687123
H139	H	0.789070	0.292167	0.000056
H140	H	1.289070	0.792167	0.500056
H141	H	0.966017	0.247682	0.566206
H142	H	1.466017	0.747682	1.066206
