data_functionalizedCrystal
_audit_creation_method	'MofGen! by Chris Wilmer'
_symmetry_space_group_name_H-M	'P1'
_symmetry_Int_Tables_number	1
_symmetry_cell_setting	triclinic
loop_
_symmetry_equiv_pos_as_xyz
  x,y,z
_cell_length_a	15.995300
_cell_length_b	15.995350
_cell_length_c	16.776229
_cell_angle_alpha	90.004420
_cell_angle_beta	90.008728
_cell_angle_gamma	83.482091
loop_
_atom_site_label
_atom_site_type_symbol
_atom_site_fract_x
_atom_site_fract_y
_atom_site_fract_z
O1	O	1.111015	0.107728	0.066313
O2	O	1.611015	0.607728	0.566313
O3	O	0.867234	0.121099	0.066308
O4	O	1.367234	0.621099	0.566308
O5	O	0.995788	-0.007475	0.066310
O6	O	1.495788	0.492525	0.566310
O7	O	0.982460	0.236302	0.066311
O8	O	1.482460	0.736302	0.566311
O9	O	0.995771	-0.007483	-0.066266
O10	O	1.495771	0.492517	0.433734
O11	O	0.867217	0.121091	-0.066268
O12	O	1.367217	0.621091	0.433732
O13	O	1.110998	0.107720	-0.066263
O14	O	1.610998	0.607720	0.433737
Zn15	Zn	0.989105	0.114404	-0.087315
Zn16	Zn	1.489105	0.614404	0.412685
Zn17	Zn	0.989127	0.114415	0.087360
Zn18	Zn	1.489127	0.614415	0.587360
O19	O	0.982443	0.236295	-0.066265
O20	O	1.482443	0.736295	0.433735
C21	C	0.836030	0.120550	0.000019
C22	C	1.336030	0.620550	0.500019
C23	C	0.743077	0.118915	0.000017
C24	C	1.243077	0.618915	0.500017
C25	C	0.572894	0.115896	0.000023
C26	C	1.072894	0.615896	0.500023
C27	C	0.525428	0.207443	0.000022
C28	C	1.025428	0.707443	0.500022
C29	C	0.428740	0.205773	0.000325
C30	C	0.928740	0.705773	0.500325
C31	C	0.405337	0.112924	0.000029
C32	C	0.905337	0.612924	0.500029
C33	C	0.446480	0.067508	0.075587
C34	C	0.946480	0.567508	0.575587
C35	C	0.543113	0.069825	0.075648
C36	C	1.043113	0.569825	0.575648
C37	C	0.543373	0.068460	-0.075121
C38	C	1.043373	0.568460	0.424879
C39	C	0.446429	0.068469	-0.076112
C40	C	0.946429	0.568469	0.423888
C41	C	0.310642	0.111239	0.000034
C42	C	0.810642	0.611239	0.500034
C43	C	0.667590	0.117577	0.000023
C44	C	1.167590	0.617577	0.500023
C45	C	0.995229	-0.038674	0.000023
C46	C	1.495229	0.461326	0.500023
C47	C	0.993577	-0.131624	0.000028
C48	C	1.493577	0.368376	0.500028
C49	C	0.987644	-0.469370	0.000025
C50	C	1.487644	0.030630	0.500025
C51	C	0.896090	-0.421920	0.000320
C52	C	1.396090	0.078080	0.500320
C53	C	0.897743	-0.325230	0.000022
C54	C	1.397743	0.174770	0.500022
C55	C	0.990587	-0.301810	0.000027
C56	C	1.490587	0.198190	0.500027
C57	C	1.035735	-0.342900	-0.075678
C58	C	1.535735	0.157100	0.424322
C59	C	1.033435	-0.439536	-0.075742
C60	C	1.533435	0.060464	0.424258
C61	C	1.035346	-0.439885	0.075023
C62	C	1.535346	0.060115	0.575023
C63	C	1.035324	-0.342940	0.076023
C64	C	1.535324	0.157060	0.576023
C65	C	0.992255	-0.207113	0.000025
C66	C	1.492255	0.292887	0.500025
C67	C	0.985979	-0.564068	0.000021
C68	C	1.485979	-0.064068	0.500021
C69	C	1.142202	0.108269	0.000028
C70	C	1.642202	0.608269	0.500028
C71	C	1.235154	0.109904	0.000035
C72	C	1.735154	0.609904	0.500035
C73	C	0.983003	0.267493	0.000023
C74	C	1.483003	0.767493	0.500023
C75	C	0.984655	0.360443	0.000024
C76	C	1.484655	0.860443	0.500024
N77	N	0.989095	0.114397	-0.206526
N78	N	1.489095	0.614397	0.293474
C79	C	1.046037	0.057487	-0.248243
C80	C	1.546037	0.557487	0.251757
C81	C	1.046041	0.057487	-0.331695
C82	C	1.546041	0.557487	0.168305
C83	C	0.989108	0.114400	-0.373429
C84	C	1.489108	0.614400	0.126571
C85	C	0.932161	0.171312	-0.331707
C86	C	1.432161	0.671312	0.168293
C87	C	0.932153	0.171308	-0.248257
C88	C	1.432153	0.671308	0.251743
C89	C	0.932191	0.171329	-0.668254
C90	C	1.432191	0.671329	-0.168254
C91	C	0.932205	0.171330	-0.751711
C92	C	1.432205	0.671330	-0.251711
C93	C	1.046079	0.057507	-0.751693
C94	C	1.546079	0.557507	-0.251693
C95	C	1.046071	0.057503	-0.668242
C96	C	1.546071	0.557503	-0.168242
C97	C	0.989122	0.114412	-0.626527
C98	C	1.489122	0.614412	-0.126527
C99	C	0.989116	0.114411	-0.536039
C100	C	1.489116	0.614411	-0.036039
C101	C	0.989117	0.114406	-0.463916
C102	C	1.489117	0.614406	0.036084
N103	N	0.989143	0.114416	0.206571
N104	N	1.489143	0.614416	0.706571
H105	H	0.561440	0.102562	0.132343
H106	H	1.061440	0.602562	0.632343
H107	H	1.103031	-0.327590	0.080598
H108	H	1.603031	0.172410	0.580598
Br109	Br	0.838591	-0.277837	0.090473
Br110	Br	1.338591	0.222163	0.590473
H111	H	0.885822	0.217667	-0.634297
H112	H	1.385822	0.717667	-0.134297
Br113	Br	1.123344	-0.019734	-0.611605
Br114	Br	1.623344	0.480266	-0.111605
H115	H	0.431090	0.000774	-0.080899
H116	H	0.931090	0.500774	0.419101
Br117	Br	0.400850	0.123743	-0.169285
Br118	Br	0.900850	0.623743	0.330715
Br119	Br	0.983450	-0.295596	-0.169587
Br120	Br	1.483450	0.204404	0.330413
H121	H	0.543912	0.244231	-0.054152
H122	H	1.043912	0.744231	0.445848
Br123	Br	0.422984	-0.046204	0.079921
Br124	Br	0.922984	0.453796	0.579921
H125	H	0.563866	0.098597	-0.132409
H126	H	1.063866	0.598597	0.367591
Br127	Br	1.123317	-0.019752	-0.388312
Br128	Br	1.623317	0.480248	0.111688
H129	H	1.102848	-0.471658	0.075535
H130	H	1.602848	0.028342	0.575535
Br131	Br	0.382329	0.265006	0.091129
Br132	Br	0.882329	0.765006	0.591129
Br133	Br	0.399271	0.119487	0.169665
Br134	Br	0.899271	0.619487	0.669665
Br135	Br	0.596358	-0.044032	-0.076346
Br136	Br	1.096358	0.455968	0.423654
H137	H	1.092449	0.011166	-0.785666
H138	H	1.592449	0.511166	-0.285666
Br139	Br	0.985459	-0.474092	0.170661
Br140	Br	1.485459	0.025908	0.670661
Br141	Br	0.854934	0.248576	-0.808351
Br142	Br	1.354934	0.748576	-0.308351
H143	H	0.859504	-0.440442	0.054610
H144	H	1.359504	0.059558	0.554610
Br145	Br	0.835182	-0.454970	-0.089389
Br146	Br	1.335182	0.045030	0.410611
H147	H	0.862000	-0.297362	-0.054341
H148	H	1.362000	0.202638	0.445659
H149	H	0.885800	0.217650	-0.365692
H150	H	1.385800	0.717650	0.134308
H151	H	0.545044	0.243689	0.054124
H152	H	1.045044	0.743689	0.554124
H153	H	1.000499	-0.457835	-0.132336
H154	H	1.500499	0.042165	0.367664
Br155	Br	0.381282	0.265260	-0.089926
Br156	Br	0.881282	0.765260	0.410074
Br157	Br	0.596910	-0.042216	0.081022
Br158	Br	1.096910	0.457784	0.581022
Br159	Br	1.145464	-0.493310	-0.081471
Br160	Br	1.645464	0.006690	0.418529
H161	H	1.103945	-0.328787	-0.078490
H162	H	1.603945	0.171213	0.421510
H163	H	0.885784	0.217649	-0.214292
H164	H	1.385784	0.717649	0.285708
H165	H	1.002315	-0.315682	0.132028
H166	H	1.502315	0.184318	0.632028
H167	H	1.092402	0.011145	-0.214268
H168	H	1.592402	0.511145	0.285732
