data_functionalizedCrystal
_audit_creation_method	'MofGen! by Chris Wilmer'
_symmetry_space_group_name_H-M	'P1'
_symmetry_Int_Tables_number	1
_symmetry_cell_setting	triclinic
loop_
_symmetry_equiv_pos_as_xyz
  x,y,z
_cell_length_a	27.732048
_cell_length_b	23.532355
_cell_length_c	22.610064
_cell_angle_alpha	90.008169
_cell_angle_beta	90.003306
_cell_angle_gamma	82.735077
loop_
_atom_site_label
_atom_site_type_symbol
_atom_site_fract_x
_atom_site_fract_y
_atom_site_fract_z
O1	O	0.058554	0.755162	0.049110
O2	O	0.308554	1.005162	0.299110
O3	O	0.558554	1.255162	0.549110
O4	O	0.808554	1.505162	0.799110
O5	O	0.067070	0.589276	0.049130
O6	O	0.317070	0.839276	0.299130
O7	O	0.567070	1.089276	0.549130
O8	O	0.817070	1.339276	0.799130
O9	O	-0.007578	0.677371	0.049108
O10	O	0.242422	0.927371	0.299108
O11	O	0.492422	1.177371	0.549108
O12	O	0.742422	1.427371	0.799108
O13	O	0.133202	0.667067	0.049132
O14	O	0.383202	0.917067	0.299132
O15	O	0.633202	1.167067	0.549132
O16	O	0.883202	1.417067	0.799132
O17	O	-0.007569	0.677347	-0.049261
O18	O	0.242431	0.927347	0.200739
O19	O	0.492431	1.177347	0.450739
O20	O	0.742431	1.427347	0.700739
O21	O	0.067079	0.589252	-0.049239
O22	O	0.317079	0.839252	0.200761
O23	O	0.567079	1.089252	0.450761
O24	O	0.817079	1.339252	0.700761
O25	O	0.058562	0.755137	-0.049259
O26	O	0.308562	1.005137	0.200741
O27	O	0.558562	1.255137	0.450741
O28	O	0.808562	1.505137	0.700741
Zn29	Zn	0.062822	0.672191	-0.064867
Zn30	Zn	0.312822	0.922191	0.185133
Zn31	Zn	0.562822	1.172191	0.435133
Zn32	Zn	0.812822	1.422191	0.685133
Zn33	Zn	0.062811	0.672223	0.064739
Zn34	Zn	0.312811	0.922223	0.314739
Zn35	Zn	0.562811	1.172223	0.564739
Zn36	Zn	0.812811	1.422223	0.814739
O37	O	0.133210	0.667043	-0.049237
O38	O	0.383210	0.917043	0.200763
O39	O	0.633210	1.167043	0.450763
O40	O	0.883210	1.417043	0.700763
C41	C	0.066862	0.568048	-0.000052
C42	C	0.316862	0.818048	0.249948
C43	C	0.566862	1.068048	0.499948
C44	C	0.816862	1.318048	0.749948
C45	C	0.066222	0.504831	-0.000045
C46	C	0.316222	0.754831	0.249955
C47	C	0.566222	1.004831	0.499955
C48	C	0.816222	1.254831	0.749955
C49	C	0.062205	0.112812	-0.053692
C50	C	0.312205	0.362812	0.196308
C51	C	0.562205	0.612812	0.446308
C52	C	0.812205	0.862812	0.696308
C53	C	0.061596	0.053414	-0.053694
C54	C	0.311596	0.303414	0.196306
C55	C	0.561596	0.553414	0.446306
C56	C	0.811596	0.803414	0.696306
O57	O	0.061269	0.022684	-0.099296
O58	O	0.311269	0.272684	0.150704
O59	O	0.561269	0.522684	0.400704
O60	O	0.811269	0.772684	0.650704
N61	N	0.061289	0.023720	-0.000073
N62	N	0.311289	0.273720	0.249927
N63	N	0.561289	0.523720	0.499927
N64	N	0.811289	0.773720	0.749927
C65	C	0.061587	0.053427	0.053554
C66	C	0.311587	0.303427	0.303554
C67	C	0.561587	0.553427	0.553554
C68	C	0.811587	0.803427	0.803554
O69	O	0.061270	0.022716	0.099162
O70	O	0.311270	0.272716	0.349162
O71	O	0.561270	0.522716	0.599162
O72	O	0.811270	0.772716	0.849162
C73	C	0.062192	0.112825	0.053555
C74	C	0.312192	0.362825	0.303555
C75	C	0.562192	0.612825	0.553555
C76	C	0.812192	0.862825	0.803555
C77	C	0.062504	0.142515	-0.000069
C78	C	0.312504	0.392515	0.249931
C79	C	0.562504	0.642515	0.499931
C80	C	0.812504	0.892515	0.749931
C81	C	0.062516	0.142503	-0.107311
C82	C	0.312516	0.392503	0.142689
C83	C	0.562516	0.642503	0.392689
C84	C	0.812516	0.892503	0.642689
C85	C	0.063126	0.201896	-0.107309
C86	C	0.313126	0.451896	0.142691
C87	C	0.563126	0.701896	0.392691
C88	C	0.813126	0.951896	0.642691
C89	C	0.063424	0.231600	-0.053686
C90	C	0.313424	0.481600	0.196314
C91	C	0.563424	0.731600	0.446314
C92	C	0.813424	0.981600	0.696314
C93	C	0.063114	0.201909	-0.000066
C94	C	0.313114	0.451909	0.249934
C95	C	0.563114	0.701909	0.499934
C96	C	0.813114	0.951909	0.749934
C97	C	0.062486	0.142532	0.107181
C98	C	0.312486	0.392532	0.357181
C99	C	0.562486	0.642532	0.607181
C100	C	0.812486	0.892532	0.857181
C101	C	0.063091	0.201934	0.107179
C102	C	0.313091	0.451934	0.357179
C103	C	0.563091	0.701934	0.607179
C104	C	0.813091	0.951934	0.857179
C105	C	0.063403	0.231624	0.053554
C106	C	0.313403	0.481624	0.303554
C107	C	0.563403	0.731624	0.553554
C108	C	0.813403	0.981624	0.803554
C109	C	0.064022	0.291006	0.053559
C110	C	0.314022	0.541006	0.303559
C111	C	0.564022	0.791006	0.553559
C112	C	0.814022	1.041006	0.803559
N113	N	0.064329	0.320701	-0.000062
N114	N	0.314329	0.570701	0.249938
N115	N	0.564329	0.820701	0.499938
N116	N	0.814329	1.070701	0.749938
C117	C	0.064030	0.290997	-0.053685
C118	C	0.314030	0.540997	0.196315
C119	C	0.564030	0.790997	0.446315
C120	C	0.814030	1.040997	0.696315
C121	C	0.060314	-0.071312	0.053546
C122	C	0.310314	0.178688	0.303546
C123	C	0.560314	0.428688	0.553546
C124	C	0.810314	0.678688	0.803546
C125	C	0.059712	-0.130709	0.053545
C126	C	0.309712	0.119291	0.303545
C127	C	0.559712	0.369291	0.553545
C128	C	0.809712	0.619291	0.803545
C129	C	0.059721	-0.130718	-0.053703
C130	C	0.309721	0.119282	0.196297
C131	C	0.559721	0.369282	0.446297
C132	C	0.809721	0.619282	0.696297
C133	C	0.060326	-0.071320	-0.053701
C134	C	0.310326	0.178680	0.196299
C135	C	0.560326	0.428680	0.446299
C136	C	0.810326	0.678680	0.696299
C137	C	0.060621	-0.041617	-0.000075
C138	C	0.310621	0.208383	0.249925
C139	C	0.560621	0.458383	0.499925
C140	C	0.810621	0.708383	0.749925
C141	C	0.065311	0.415729	-0.053675
C142	C	0.315311	0.665729	0.196325
C143	C	0.565311	0.915729	0.446325
C144	C	0.815311	1.165729	0.696325
C145	C	0.065923	0.475127	-0.053668
C146	C	0.315923	0.725127	0.196332
C147	C	0.565923	0.975127	0.446332
C148	C	0.815923	1.225127	0.696332
C149	C	0.065912	0.475132	0.053580
C150	C	0.315912	0.725132	0.303580
C151	C	0.565912	0.975132	0.553580
C152	C	0.815912	1.225132	0.803580
C153	C	0.065303	0.415738	0.053573
C154	C	0.315303	0.665738	0.303573
C155	C	0.565303	0.915738	0.553573
C156	C	0.815303	1.165738	0.803573
C157	C	0.065001	0.386038	-0.000059
C158	C	0.315001	0.636038	0.249941
C159	C	0.565001	0.886038	0.499941
C160	C	0.815001	1.136038	0.749941
O161	O	0.064348	0.321774	0.099138
O162	O	0.314348	0.571774	0.349138
O163	O	0.564348	0.821774	0.599138
O164	O	0.814348	1.071774	0.849138
O165	O	0.064341	0.321717	-0.099285
O166	O	0.314341	0.571717	0.150715
O167	O	0.564341	0.821717	0.400715
O168	O	0.814341	1.071717	0.650715
C169	C	-0.025580	0.677143	-0.000078
C170	C	0.224420	0.927143	0.249922
C171	C	0.474420	1.177143	0.499922
C172	C	0.724420	1.427143	0.749922
C173	C	-0.079236	0.676491	-0.000083
C174	C	0.170764	0.926491	0.249917
C175	C	0.420764	1.176491	0.499917
C176	C	0.670764	1.426491	0.749917
C177	C	-0.417985	0.724449	-0.000058
C178	C	-0.167985	0.974449	0.249942
C179	C	0.082015	1.224449	0.499942
C180	C	0.332015	1.474449	0.749942
C181	C	-0.619648	0.722033	-0.000049
C182	C	-0.369648	0.972033	0.249951
C183	C	-0.119648	1.222033	0.499951
C184	C	0.130352	1.472033	0.749951
O185	O	-0.650843	0.765887	-0.000029
O186	O	-0.400843	1.015887	0.249971
O187	O	-0.150843	1.265887	0.499971
O188	O	0.099157	1.515887	0.749971
N189	N	-0.638844	0.669796	-0.000044
N190	N	-0.388844	0.919796	0.249956
N191	N	-0.138844	1.169796	0.499956
N192	N	0.111156	1.419796	0.749956
C193	C	-0.607621	0.618160	-0.000036
C194	C	-0.357621	0.868160	0.249964
C195	C	-0.107621	1.118160	0.499964
C196	C	0.142379	1.368160	0.749964
O197	O	-0.628575	0.573674	-0.000025
O198	O	-0.378575	0.823674	0.249975
O199	O	-0.128575	1.073674	0.499975
O200	O	0.121425	1.323674	0.749975
C201	C	-0.405959	0.620577	-0.000041
C202	C	-0.155959	0.870577	0.249959
C203	C	0.094041	1.120577	0.499959
C204	C	0.344041	1.370577	0.749959
C205	C	-0.386766	0.672817	-0.000052
C206	C	-0.136766	0.922817	0.249948
C207	C	0.113234	1.172817	0.499948
C208	C	0.363234	1.422817	0.749948
C209	C	-0.398792	0.776685	-0.000069
C210	C	-0.148792	1.026685	0.249931
C211	C	0.101208	1.276685	0.499931
C212	C	0.351208	1.526685	0.749931
C213	C	-0.348379	0.777289	-0.000074
C214	C	-0.098379	1.027289	0.249926
C215	C	0.151621	1.277289	0.499926
C216	C	0.401621	1.527289	0.749926
C217	C	-0.317160	0.725657	-0.000069
C218	C	-0.067160	0.975657	0.249931
C219	C	0.182840	1.225657	0.499931
C220	C	0.432840	1.475657	0.749931
C221	C	-0.336353	0.673421	-0.000058
C222	C	-0.086353	0.923421	0.249942
C223	C	0.163647	1.173421	0.499942
C224	C	0.413647	1.423421	0.749942
C225	C	-0.374736	0.568942	-0.000029
C226	C	-0.124736	0.818942	0.249971
C227	C	0.125264	1.068942	0.499971
C228	C	0.375264	1.318942	0.749971
C229	C	-0.324318	0.569551	-0.000029
C230	C	-0.074318	0.819551	0.249971
C231	C	0.175682	1.069551	0.499971
C232	C	0.425682	1.319551	0.749971
C233	C	-0.305125	0.621791	-0.000040
C234	C	-0.055125	0.871791	0.249960
C235	C	0.194875	1.121791	0.499960
C236	C	0.444875	1.371791	0.749960
C237	C	-0.254721	0.622392	-0.000057
C238	C	-0.004721	0.872392	0.249943
C239	C	0.245279	1.122392	0.499943
C240	C	0.495279	1.372392	0.749943
N241	N	-0.235525	0.674629	-0.000063
N242	N	0.014475	0.924629	0.249937
N243	N	0.264475	1.174629	0.499937
N244	N	0.514475	1.424629	0.749937
C245	C	-0.266744	0.726261	-0.000069
C246	C	-0.016744	0.976261	0.249931
C247	C	0.233256	1.226261	0.499931
C248	C	0.483256	1.476261	0.749931
C249	C	-0.713496	0.616895	-0.000035
C250	C	-0.463496	0.866895	0.249965
C251	C	-0.213496	1.116895	0.499965
C252	C	0.036504	1.366895	0.749965
C253	C	-0.763912	0.616290	-0.000035
C254	C	-0.513912	0.866290	0.249965
C255	C	-0.263912	1.116290	0.499965
C256	C	-0.013912	1.366290	0.749965
C257	C	-0.775936	0.720163	-0.000047
C258	C	-0.525936	0.970163	0.249953
C259	C	-0.275936	1.220163	0.499953
C260	C	-0.025936	1.470163	0.749953
C261	C	-0.725520	0.720767	-0.000051
C262	C	-0.475520	0.970767	0.249949
C263	C	-0.225520	1.220767	0.499949
C264	C	0.024480	1.470767	0.749949
C265	C	-0.694301	0.669131	-0.000041
C266	C	-0.444301	0.919131	0.249959
C267	C	-0.194301	1.169131	0.499959
C268	C	0.055699	1.419131	0.749959
C269	C	-0.160873	0.727525	-0.000080
C270	C	0.089127	0.977525	0.249920
C271	C	0.339127	1.227525	0.499920
C272	C	0.589127	1.477525	0.749920
C273	C	-0.110456	0.728124	-0.000088
C274	C	0.139544	0.978124	0.249912
C275	C	0.389544	1.228124	0.499912
C276	C	0.639544	1.478124	0.749912
C277	C	-0.098436	0.624251	-0.000073
C278	C	0.151564	0.874251	0.249927
C279	C	0.401564	1.124251	0.499927
C280	C	0.651564	1.374251	0.749927
C281	C	-0.148849	0.623652	-0.000068
C282	C	0.101151	0.873652	0.249932
C283	C	0.351151	1.123652	0.499932
C284	C	0.601151	1.373652	0.749932
C285	C	-0.180067	0.675293	-0.000070
C286	C	0.069933	0.925293	0.249930
C287	C	0.319933	1.175293	0.499930
C288	C	0.569933	1.425293	0.749930
O289	O	-0.223497	0.578561	-0.000071
O290	O	0.026503	0.828561	0.249929
O291	O	0.276503	1.078561	0.499929
O292	O	0.526503	1.328561	0.749929
O293	O	-0.245780	0.770740	-0.000067
O294	O	0.004220	1.020740	0.249933
O295	O	0.254220	1.270740	0.499933
O296	O	0.504220	1.520740	0.749933
C297	C	-0.468398	0.723846	-0.000053
C298	C	-0.218398	0.973846	0.249947
C299	C	0.031602	1.223846	0.499947
C300	C	0.281602	1.473846	0.749947
C301	C	-0.487591	0.671610	-0.000042
C302	C	-0.237591	0.921610	0.249958
C303	C	0.012409	1.171610	0.499958
C304	C	0.262409	1.421610	0.749958
C305	C	-0.456372	0.619978	-0.000036
C306	C	-0.206372	0.869978	0.249964
C307	C	0.043628	1.119978	0.499964
C308	C	0.293628	1.369978	0.749964
C309	C	-0.538007	0.671006	-0.000042
C310	C	-0.288007	0.921006	0.249958
C311	C	-0.038007	1.171006	0.499958
C312	C	0.211993	1.421006	0.749958
C313	C	-0.569226	0.722638	-0.000047
C314	C	-0.319226	0.972638	0.249953
C315	C	-0.069226	1.222638	0.499953
C316	C	0.180774	1.472638	0.749953
C317	C	-0.550030	0.774875	-0.000053
C318	C	-0.300030	1.024875	0.249947
C319	C	-0.050030	1.274875	0.499947
C320	C	0.199970	1.524875	0.749947
C321	C	-0.499617	0.775478	-0.000058
C322	C	-0.249617	1.025478	0.249942
C323	C	0.000383	1.275478	0.499942
C324	C	0.250383	1.525478	0.749942
C325	C	-0.475568	0.567741	-0.000030
C326	C	-0.225568	0.817741	0.249970
C327	C	0.024432	1.067741	0.499970
C328	C	0.274432	1.317741	0.749970
C329	C	-0.525981	0.567142	-0.000026
C330	C	-0.275981	0.817142	0.249974
C331	C	-0.025981	1.067142	0.499974
C332	C	0.224019	1.317142	0.749974
C333	C	-0.557200	0.618774	-0.000031
C334	C	-0.307200	0.868774	0.249969
C335	C	-0.057200	1.118774	0.499969
C336	C	0.192800	1.368774	0.749969
C337	C	0.151213	0.667271	-0.000050
C338	C	0.401213	0.917271	0.249950
C339	C	0.651213	1.167271	0.499950
C340	C	0.901213	1.417271	0.749950
C341	C	0.204869	0.667923	-0.000041
C342	C	0.454869	0.917923	0.249959
C343	C	0.704869	1.167923	0.499959
C344	C	0.954869	1.417923	0.749959
C345	C	0.058771	0.776366	-0.000075
C346	C	0.308771	1.026366	0.249925
C347	C	0.558771	1.276366	0.499925
C348	C	0.808771	1.526366	0.749925
C349	C	0.059411	0.839583	-0.000078
C350	C	0.309411	1.089583	0.249922
C351	C	0.559411	1.339583	0.499922
C352	C	0.809411	1.589583	0.749922
N353	N	0.062829	0.672173	-0.153320
N354	N	0.312829	0.922173	0.096680
N355	N	0.562829	1.172173	0.346680
N356	N	0.812829	1.422173	0.596680
C357	C	0.033644	0.637927	-0.438162
C358	C	0.283644	0.887927	-0.188162
C359	C	0.533644	1.137927	0.061838
C360	C	0.783644	1.387927	0.311838
C361	C	0.033646	0.637921	-0.376242
C362	C	0.283646	0.887921	-0.126242
C363	C	0.533646	1.137921	0.123758
C364	C	0.783646	1.387921	0.373758
O365	O	0.008834	0.608780	-0.344218
O366	O	0.258834	0.858780	-0.094218
O367	O	0.508834	1.108780	0.155782
O368	O	0.758834	1.358780	0.405782
N369	N	0.062814	0.672196	-0.345272
N370	N	0.312814	0.922196	-0.095272
N371	N	0.562814	1.172196	0.154728
N372	N	0.812814	1.422196	0.404728
C373	C	0.091977	0.706484	-0.376225
C374	C	0.341977	0.956484	-0.126225
C375	C	0.591977	1.206484	0.123775
C376	C	0.841977	1.456484	0.373775
O377	O	0.116786	0.735637	-0.344197
O378	O	0.366786	0.985637	-0.094197
O379	O	0.616786	1.235637	0.155803
O380	O	0.866786	1.485637	0.405803
C381	C	0.091972	0.706492	-0.438144
C382	C	0.341972	0.956492	-0.188144
C383	C	0.591972	1.206492	0.061856
C384	C	0.841972	1.456492	0.311856
C385	C	0.062806	0.672210	-0.469111
C386	C	0.312806	0.922210	-0.219111
C387	C	0.562806	1.172210	0.030889
C388	C	0.812806	1.422210	0.280889
C389	C	0.004480	0.603648	-0.469129
C390	C	0.254480	0.853648	-0.219129
C391	C	0.504480	1.103648	0.030871
C392	C	0.754480	1.353648	0.280871
C393	C	0.004479	0.603653	-0.531044
C394	C	0.254479	0.853653	-0.281044
C395	C	0.504479	1.103653	-0.031044
C396	C	0.754479	1.353653	0.218956
C397	C	0.033641	0.637936	-0.561993
C398	C	0.283641	0.887936	-0.311993
C399	C	0.533641	1.137936	-0.061993
C400	C	0.783641	1.387936	0.188007
C401	C	0.062805	0.672215	-0.531026
C402	C	0.312805	0.922215	-0.281026
C403	C	0.562805	1.172215	-0.031026
C404	C	0.812805	1.422215	0.218974
C405	C	0.121132	0.740782	-0.469096
C406	C	0.371132	0.990782	-0.219096
C407	C	0.621132	1.240782	0.030904
C408	C	0.871132	1.490782	0.280904
C409	C	0.121124	0.740787	-0.531019
C410	C	0.371124	0.990787	-0.281019
C411	C	0.621124	1.240787	-0.031019
C412	C	0.871124	1.490787	0.218981
C413	C	0.091958	0.706505	-0.561986
C414	C	0.341958	0.956505	-0.311986
C415	C	0.591958	1.206505	-0.061986
C416	C	0.841958	1.456505	0.188014
C417	C	0.091965	0.706503	-0.623891
C418	C	0.341965	0.956503	-0.373891
C419	C	0.591965	1.206503	-0.123891
C420	C	0.841965	1.456503	0.126109
N421	N	0.062798	0.672228	-0.654861
N422	N	0.312798	0.922228	-0.404861
N423	N	0.562798	1.172228	-0.154861
N424	N	0.812798	1.422228	0.095139
C425	C	0.033636	0.637944	-0.623912
C426	C	0.283636	0.887944	-0.373912
C427	C	0.533636	1.137944	-0.123912
C428	C	0.783636	1.387944	0.126088
C429	C	0.091985	0.706465	-0.246191
C430	C	0.341985	0.956465	0.003809
C431	C	0.591985	1.206465	0.253809
C432	C	0.841985	1.456465	0.503809
C433	C	0.091994	0.706454	-0.184274
C434	C	0.341994	0.956454	0.065726
C435	C	0.591994	1.206454	0.315726
C436	C	0.841994	1.456454	0.565726
C437	C	0.033662	0.637892	-0.184295
C438	C	0.283662	0.887892	0.065705
C439	C	0.533662	1.137892	0.315705
C440	C	0.783662	1.387892	0.565705
C441	C	0.033657	0.637900	-0.246214
C442	C	0.283657	0.887900	0.003786
C443	C	0.533657	1.137900	0.253786
C444	C	0.783657	1.387900	0.503786
C445	C	0.062818	0.672189	-0.277161
C446	C	0.312818	0.922189	-0.027161
C447	C	0.562818	1.172189	0.222839
C448	C	0.812818	1.422189	0.472839
C449	C	0.033635	0.637957	-0.753939
C450	C	0.283635	0.887957	-0.503939
C451	C	0.533635	1.137957	-0.253939
C452	C	0.783635	1.387957	-0.003939
C453	C	0.033637	0.637963	-0.815860
C454	C	0.283637	0.887963	-0.565860
C455	C	0.533637	1.137963	-0.315860
C456	C	0.783637	1.387963	-0.065860
C457	C	0.091967	0.706527	-0.815834
C458	C	0.341967	0.956527	-0.565834
C459	C	0.591967	1.206527	-0.315834
C460	C	0.841967	1.456527	-0.065834
C461	C	0.091966	0.706518	-0.753918
C462	C	0.341966	0.956518	-0.503918
C463	C	0.591966	1.206518	-0.253918
C464	C	0.841966	1.456518	-0.003918
C465	C	0.062797	0.672232	-0.722972
C466	C	0.312797	0.922232	-0.472972
C467	C	0.562797	1.172232	-0.222972
C468	C	0.812797	1.422232	0.027028
O469	O	0.116764	0.735631	-0.655954
O470	O	0.366764	0.985631	-0.405954
O471	O	0.616764	1.235631	-0.155954
O472	O	0.866764	1.485631	0.094046
O473	O	0.008826	0.608801	-0.655947
O474	O	0.258826	0.858801	-0.405947
O475	O	0.508826	1.108801	-0.155947
O476	O	0.758826	1.358801	0.094053
N477	N	0.062800	0.672246	0.153191
N478	N	0.312800	0.922246	0.403191
N479	N	0.562800	1.172246	0.653191
N480	N	0.812800	1.422246	0.903191
H481	H	0.062271	0.118325	-0.150980
H482	H	0.312271	0.368325	0.099020
H483	H	0.562271	0.618325	0.349020
H484	H	0.812271	0.868325	0.599020
H485	H	-0.424206	0.818733	-0.000071
H486	H	-0.174206	1.068733	0.249929
H487	H	0.075794	1.318733	0.499929
H488	H	0.325794	1.568733	0.749929
H489	H	-0.332757	0.819828	-0.000081
H490	H	-0.082757	1.069828	0.249919
H491	H	0.167243	1.319828	0.499919
H492	H	0.417243	1.569828	0.749919
H493	H	-0.801363	0.762204	-0.000052
H494	H	-0.551363	1.012204	0.249948
H495	H	-0.301363	1.262204	0.499948
H496	H	-0.051363	1.512204	0.749948
C497	C	-0.547086	0.509670	-0.000013
C498	C	-0.297086	0.759670	0.249987
C499	C	-0.047086	1.009670	0.499987
C500	C	0.202914	1.259670	0.749987
N501	N	-0.562982	0.466383	0.000002
N502	N	-0.312982	0.716383	0.250002
N503	N	-0.062982	0.966383	0.500002
N504	N	0.187018	1.216383	0.750002
H505	H	0.144870	0.768711	-0.556213
H506	H	0.394870	1.018711	-0.306213
H507	H	0.644870	1.268711	-0.056213
H508	H	0.894870	1.518711	0.193787
H509	H	-0.390354	0.526402	-0.000016
H510	H	-0.140354	0.776402	0.249984
H511	H	0.109646	1.026402	0.499984
H512	H	0.359646	1.276402	0.749984
H513	H	0.060580	-0.047150	-0.097367
H514	H	0.310580	0.202850	0.152633
H515	H	0.560580	0.452850	0.402633
H516	H	0.810580	0.702850	0.652633
H517	H	-0.186286	0.769576	-0.000079
H518	H	0.063714	1.019576	0.249921
H519	H	0.313714	1.269576	0.499921
H520	H	0.563714	1.519576	0.749921
H521	H	-0.164477	0.581114	-0.000075
H522	H	0.085523	0.831114	0.249925
H523	H	0.335523	1.081114	0.499925
H524	H	0.585523	1.331114	0.749925
C525	C	-0.289980	0.512745	-0.000019
C526	C	-0.039980	0.762745	0.249981
C527	C	0.210020	1.012745	0.499981
C528	C	0.460020	1.262745	0.749981
N529	N	-0.264117	0.469960	-0.000014
N530	N	-0.014117	0.719960	0.249986
N531	N	0.235883	0.969960	0.499986
N532	N	0.485883	1.219960	0.749986
C533	C	0.063417	0.234603	0.166173
C534	C	0.313417	0.484603	0.416173
C535	C	0.563417	0.734603	0.666173
C536	C	0.813417	0.984603	0.916173
N537	N	0.063664	0.259208	0.210608
N538	N	0.313664	0.509208	0.460608
N539	N	0.563664	0.759208	0.710608
N540	N	0.813664	1.009208	0.960608
C541	C	0.124082	0.744162	-0.150217
C542	C	0.374082	0.994162	0.099783
C543	C	0.624082	1.244162	0.349783
C544	C	0.874082	1.494162	0.599783
N545	N	0.148249	0.772569	-0.124568
N546	N	0.398249	1.022569	0.125432
N547	N	0.648249	1.272569	0.375432
N548	N	0.898249	1.522569	0.625432
H549	H	0.065069	0.391553	-0.097347
H550	H	0.315069	0.641553	0.152653
H551	H	0.565069	0.891553	0.402653
H552	H	0.815069	1.141553	0.652653
H553	H	0.009887	0.610044	-0.841071
H554	H	0.259887	0.860044	-0.591071
H555	H	0.509887	1.110044	-0.341071
H556	H	0.759887	1.360044	-0.091071
H557	H	0.059476	-0.154913	-0.097366
H558	H	0.309476	0.095087	0.152634
H559	H	0.559476	0.345087	0.402634
H560	H	0.809476	0.595087	0.652634
H561	H	-0.073008	0.582213	-0.000071
H562	H	0.176992	0.832213	0.249929
H563	H	0.426992	1.082213	0.499929
H564	H	0.676992	1.332213	0.749929
C565	C	0.059374	-0.163362	0.112536
C566	C	0.309374	0.086638	0.362536
C567	C	0.559374	0.336638	0.612536
C568	C	0.809374	0.586638	0.862536
N569	N	0.059115	-0.187954	0.156970
N570	N	0.309115	0.062046	0.406970
N571	N	0.559115	0.312046	0.656970
N572	N	0.809115	0.562046	0.906970
C573	C	-0.704413	0.778235	-0.000059
C574	C	-0.454413	1.028235	0.249941
C575	C	-0.204413	1.278235	0.499941
C576	C	0.045587	1.528235	0.749941
N577	N	-0.688518	0.821522	-0.000063
N578	N	-0.438518	1.071522	0.249937
N579	N	-0.188518	1.321522	0.499937
N580	N	0.061482	1.571522	0.749937
C581	C	0.066263	0.507784	-0.112661
C582	C	0.316263	0.757784	0.137339
C583	C	0.566263	1.007784	0.387339
C584	C	0.816263	1.257784	0.637339
N585	N	0.066518	0.532379	-0.157094
N586	N	0.316518	0.782379	0.092906
N587	N	0.566518	1.032379	0.342906
N588	N	0.816518	1.282379	0.592906
C589	C	0.060645	-0.038645	0.112543
C590	C	0.310645	0.211355	0.362543
C591	C	0.560645	0.461355	0.612543
C592	C	0.810645	0.711355	0.862543
N593	N	0.060893	-0.014043	0.156979
N594	N	0.310893	0.235957	0.406979
N595	N	0.560893	0.485957	0.656979
N596	N	0.810893	0.735957	0.906979
C597	C	0.062136	0.109887	0.166174
C598	C	0.312136	0.359887	0.416174
C599	C	0.562136	0.609887	0.666174
C600	C	0.812136	0.859887	0.916174
N601	N	0.061868	0.085300	0.210610
N602	N	0.311868	0.335300	0.460610
N603	N	0.561868	0.585300	0.710610
N604	N	0.811868	0.835300	0.960610
C605	C	0.001570	0.600191	-0.280271
C606	C	0.251570	0.850191	-0.030271
C607	C	0.501570	1.100191	0.219729
C608	C	0.751570	1.350191	0.469729
N609	N	-0.022601	0.571788	-0.305920
N610	N	0.227399	0.821788	-0.055920
N611	N	0.477399	1.071788	0.194080
N612	N	0.727399	1.321788	0.444080
C613	C	0.064966	0.383076	0.112562
C614	C	0.314966	0.633076	0.362562
C615	C	0.564966	0.883076	0.612562
C616	C	0.814966	1.133076	0.862562
N617	N	0.064707	0.358481	0.156994
N618	N	0.314707	0.608481	0.406994
N619	N	0.564707	0.858481	0.656994
N620	N	0.814707	1.108481	0.906994
H621	H	-0.483996	0.818017	-0.000067
H622	H	-0.233996	1.068017	0.249933
H623	H	0.016004	1.318017	0.499933
H624	H	0.266004	1.568017	0.749933
H625	H	-0.094832	0.770666	-0.000099
H626	H	0.155168	1.020666	0.249901
H627	H	0.405168	1.270666	0.499901
H628	H	0.655168	1.520666	0.749901
C629	C	0.066238	0.507817	0.112562
C630	C	0.316238	0.757817	0.362562
C631	C	0.566238	1.007817	0.612562
C632	C	0.816238	1.257817	0.862562
N633	N	0.066478	0.532439	0.156987
N634	N	0.316478	0.782439	0.406987
N635	N	0.566478	1.032439	0.656987
N636	N	0.816478	1.282439	0.906987
H637	H	-0.779534	0.573751	-0.000036
H638	H	-0.529534	0.823751	0.249964
H639	H	-0.279534	1.073751	0.499964
H640	H	-0.029534	1.323751	0.749964
H641	H	-0.688082	0.574844	-0.000027
H642	H	-0.438082	0.824844	0.249973
H643	H	-0.188082	1.074844	0.499973
H644	H	0.061918	1.324844	0.749973
H645	H	0.115736	0.734385	-0.271385
H646	H	0.365736	0.984385	-0.021385
H647	H	0.615736	1.234385	0.228615
H648	H	0.865736	1.484385	0.478615
C649	C	0.153213	0.778501	-0.435046
C650	C	0.403213	1.028501	-0.185046
C651	C	0.653213	1.278501	0.064954
C652	C	0.903213	1.528501	0.314954
N653	N	0.177376	0.806915	-0.409401
N654	N	0.427376	1.056915	-0.159401
N655	N	0.677376	1.306915	0.090599
N656	N	0.927376	1.556915	0.340599
C657	C	0.124042	0.744238	-0.849889
C658	C	0.374042	0.994238	-0.599889
C659	C	0.624042	1.244238	-0.349889
C660	C	0.874042	1.494238	-0.099889
N661	N	0.148198	0.772647	-0.875542
N662	N	0.398198	1.022647	-0.625542
N663	N	0.648198	1.272647	-0.375542
N664	N	0.898198	1.522647	-0.125542
C665	C	-0.584381	0.831670	-0.000058
C666	C	-0.334381	1.081670	0.249942
C667	C	-0.084381	1.331670	0.499942
C668	C	0.165619	1.581670	0.749942
N669	N	-0.610257	0.874446	-0.000058
N670	N	-0.360257	1.124446	0.249942
N671	N	-0.110257	1.374446	0.499942
N672	N	0.139743	1.624446	0.749942
H673	H	-0.450153	0.525695	-0.000024
H674	H	-0.200153	0.775695	0.249976
H675	H	0.049847	1.025695	0.499976
H676	H	0.299847	1.275695	0.749976
C677	C	0.001550	0.600236	-0.719908
C678	C	0.251550	0.850236	-0.469908
C679	C	0.501550	1.100236	-0.219908
C680	C	0.751550	1.350236	0.030092
N681	N	-0.022614	0.571821	-0.694276
N682	N	0.227386	0.821821	-0.444276
N683	N	0.477386	1.071821	-0.194276
N684	N	0.727386	1.321821	0.055724
H685	H	-0.019273	0.575739	-0.556252
H686	H	0.230727	0.825739	-0.306252
H687	H	0.480727	1.075739	-0.056252
H688	H	0.730727	1.325739	0.193748
C689	C	-0.027601	0.565927	-0.435095
C690	C	0.222399	0.815927	-0.185095
C691	C	0.472399	1.065927	0.064905
C692	C	0.722399	1.315927	0.314905
N693	N	-0.051763	0.537510	-0.409464
N694	N	0.198237	0.787510	-0.159464
N695	N	0.448237	1.037510	0.090536
N696	N	0.698237	1.287510	0.340536
H697	H	0.009917	0.609976	-0.159085
H698	H	0.259917	0.859976	0.090915
H699	H	0.509917	1.109976	0.340915
H700	H	0.759917	1.359976	0.590915
H701	H	0.063376	0.226066	-0.150975
H702	H	0.313376	0.476066	0.099025
H703	H	0.563376	0.726066	0.349025
H704	H	0.813376	0.976066	0.599025
C705	C	0.124053	0.744226	-0.719854
C706	C	0.374053	0.994226	-0.469854
C707	C	0.624053	1.244226	-0.219854
C708	C	0.874053	1.494226	0.030146
N709	N	0.148218	0.772633	-0.694200
N710	N	0.398218	1.022633	-0.444200
N711	N	0.648218	1.272633	-0.194200
N712	N	0.898218	1.522633	0.055800
