data_functionalizedCrystal
_audit_creation_method	'MofGen! by Chris Wilmer'
_symmetry_space_group_name_H-M	'P1'
_symmetry_Int_Tables_number	1
_symmetry_cell_setting	triclinic
loop_
_symmetry_equiv_pos_as_xyz
  x,y,z
_cell_length_a	10.967926
_cell_length_b	14.044190
_cell_length_c	10.065875
_cell_angle_alpha	99.589132
_cell_angle_beta	93.120479
_cell_angle_gamma	88.857419
loop_
_atom_site_label
_atom_site_type_symbol
_atom_site_fract_x
_atom_site_fract_y
_atom_site_fract_z
O1	O	1.630693	0.165920	0.270014
O2	O	1.280941	0.168637	0.187751
O3	O	1.450559	0.029111	0.227673
O4	O	1.461075	0.305446	0.230093
O5	O	1.418227	0.055829	0.447052
O6	O	1.248609	0.195355	0.407130
O7	O	1.598361	0.192638	0.489393
Zn8	Zn	1.418352	0.198238	0.483093
Zn9	Zn	1.460950	0.163037	0.194052
O10	O	1.428743	0.332164	0.449472
C11	C	1.219743	0.179779	0.286850
C12	C	1.085563	0.173164	0.255292
C13	C	1.008993	0.184055	0.354867
C14	C	0.870310	0.177217	0.322252
C15	C	1.429795	0.006993	0.336285
C16	C	1.416081	-0.098716	0.333071
C17	C	1.488272	-0.346456	0.349997
C18	C	1.391037	-0.292265	0.327137
C19	C	1.404975	-0.184565	0.330440
C20	C	1.474336	-0.454166	0.346695
C21	C	1.659559	0.181495	0.390292
C22	C	1.793740	0.188110	0.421841
C23	C	1.449507	0.354281	0.340857
C24	C	1.463223	0.459990	0.344062
N25	N	1.389288	0.222262	0.680358
N26	N	1.490023	0.139006	-0.003211
C27	C	1.450830	0.171389	0.762622
C28	C	1.428472	0.189886	0.914527
H29	H	0.833200	0.162828	0.212850
H30	H	1.046109	0.198435	0.464262
H31	H	0.830849	0.202494	0.531245
H32	H	1.048448	0.158775	0.145896
C33	C	1.334930	0.267229	0.971287
H34	H	1.332180	0.269520	1.065939
H35	H	1.256532	0.251463	0.929519
H36	H	1.358387	0.328429	0.953440
C37	C	1.614861	-0.299870	0.379801
H38	H	1.674042	-0.348032	0.393707
H39	H	1.613037	-0.252121	0.458538
H40	H	1.635610	-0.270722	0.305528
H41	H	1.559264	0.081750	0.954764
H42	H	1.520066	0.114137	0.720593
H43	H	1.297324	-0.326756	0.305088
H44	H	1.320042	0.279506	0.722386
