data_functionalizedCrystal
_audit_creation_method	'MofGen! by Chris Wilmer'
_symmetry_space_group_name_H-M	'P1'
_symmetry_Int_Tables_number	1
_symmetry_cell_setting	triclinic
loop_
_symmetry_equiv_pos_as_xyz
  x,y,z
_cell_length_a	19.121102
_cell_length_b	19.121063
_cell_length_c	16.120297
_cell_angle_alpha	95.179432
_cell_angle_beta	90.563713
_cell_angle_gamma	90.126902
loop_
_atom_site_label
_atom_site_type_symbol
_atom_site_fract_x
_atom_site_fract_y
_atom_site_fract_z
Zn1	Zn	1.035783	-0.347015	-0.541312
Zn2	Zn	1.369117	-0.013682	-0.207978
Zn3	Zn	1.702450	0.319652	0.125355
Zn4	Zn	1.036635	-0.458791	-0.407594
Zn5	Zn	1.369968	-0.125458	-0.074261
Zn6	Zn	1.703301	0.207875	0.259072
Zn7	Zn	0.925017	-0.336083	-0.395761
Zn8	Zn	1.258350	-0.002750	-0.062427
Zn9	Zn	1.591684	0.330583	0.270906
Zn10	Zn	0.913533	-0.459183	-0.540754
Zn11	Zn	1.246867	-0.125849	-0.207420
Zn12	Zn	1.580200	0.207484	0.125913
O13	O	0.977742	-0.400268	-0.471355
O14	O	1.311075	-0.066935	-0.138022
O15	O	1.644409	0.266399	0.195312
O16	O	1.133771	-0.366254	-0.528760
O17	O	1.467104	-0.032920	-0.195426
O18	O	1.800437	0.300413	0.137907
O19	O	1.026990	-0.437775	-0.289383
O20	O	1.360324	-0.104442	0.043950
O21	O	1.693657	0.228892	0.377284
O22	O	0.944160	-0.239237	-0.410349
O23	O	1.277494	0.094096	-0.077016
O24	O	1.610827	0.427429	0.256317
O25	O	1.134396	-0.448375	-0.430518
O26	O	1.467729	-0.115042	-0.097185
O27	O	1.801063	0.218291	0.236149
O28	O	1.025540	-0.247269	-0.517285
O29	O	1.358873	0.086065	-0.183952
O30	O	1.692207	0.419398	0.149382
O31	O	0.944985	-0.347622	-0.280689
O32	O	1.278319	-0.014289	0.052644
O33	O	1.611652	0.319045	0.385978
O34	O	0.825619	-0.348001	-0.409808
O35	O	1.158952	-0.014668	-0.076475
O36	O	1.492286	0.318665	0.256858
O37	O	0.924588	-0.449042	-0.657469
O38	O	1.257921	-0.115709	-0.324136
O39	O	1.591254	0.217625	0.009198
O40	O	0.817182	-0.438442	-0.516334
O41	O	1.150515	-0.105109	-0.183001
O42	O	1.483849	0.228225	0.150332
O43	O	1.014405	-0.366633	-0.657879
O44	O	1.347738	-0.033300	-0.324546
O45	O	1.681071	0.300034	0.008788
O46	O	1.015855	-0.557139	-0.429977
O47	O	1.349188	-0.223806	-0.096644
O48	O	1.682522	0.109527	0.236690
O49	O	0.925413	-0.557427	-0.527809
O50	O	1.258746	-0.224094	-0.194475
O51	O	1.592080	0.109240	0.138858
C52	C	0.796023	-0.392078	-0.461727
C53	C	1.129356	-0.058745	-0.128394
C54	C	1.462689	0.274588	0.204939
C55	C	0.718281	-0.388593	-0.457629
C56	C	1.051614	-0.055259	-0.124296
C57	C	1.384947	0.278074	0.209038
C58	C	0.677384	-0.434107	-0.511085
C59	C	1.010717	-0.100774	-0.177752
C60	C	1.344050	0.232560	0.155581
C61	C	0.604337	-0.430822	-0.507238
C62	C	0.937671	-0.097489	-0.173905
C63	C	1.271004	0.235844	0.159428
C64	C	0.572189	-0.382027	-0.449930
C65	C	0.905522	-0.048693	-0.116597
C66	C	1.238856	0.284640	0.216737
C67	C	0.613092	-0.336508	-0.396471
C68	C	0.946425	-0.003174	-0.063138
C69	C	1.279758	0.330159	0.270195
C70	C	0.686137	-0.339789	-0.400323
C71	C	1.019470	-0.006456	-0.066990
C72	C	1.352803	0.326877	0.266344
C73	C	0.351859	-0.369756	-0.435533
C74	C	0.685192	-0.036423	-0.102200
C75	C	1.018525	0.296910	0.231134
C76	C	0.278808	-0.366480	-0.431684
C77	C	0.612141	-0.033146	-0.098350
C78	C	0.945475	0.300187	0.234983
C79	C	0.270059	-0.460794	-0.542452
C80	C	0.603392	-0.127461	-0.209119
C81	C	0.936725	0.205873	0.124215
C82	C	0.343106	-0.464074	-0.546295
C83	C	0.676439	-0.130741	-0.212962
C84	C	1.009772	0.202593	0.120371
C85	C	0.384002	-0.418553	-0.492840
C86	C	0.717335	-0.085219	-0.159506
C87	C	1.050668	0.248114	0.173827
C88	C	0.497524	-0.378670	-0.445994
C89	C	0.830857	-0.045337	-0.112661
C90	C	1.164191	0.287997	0.220672
C91	C	0.458666	-0.421907	-0.496780
C92	C	0.791999	-0.088573	-0.163447
C93	C	1.125332	0.244760	0.169887
C94	C	0.969498	-0.582772	-0.480136
C95	C	1.302832	-0.249439	-0.146802
C96	C	1.636165	0.083895	0.186531
C97	C	0.966035	-0.660852	-0.483923
C98	C	1.299368	-0.327518	-0.150590
C99	C	1.632701	0.005815	0.182743
C100	C	1.011528	-0.697364	-0.434813
C101	C	1.344862	-0.364031	-0.101480
C102	C	1.678195	-0.030698	0.231854
C103	C	1.008274	-0.770729	-0.438380
C104	C	1.341608	-0.437396	-0.105047
C105	C	1.674941	-0.104062	0.228286
C106	C	0.959523	-0.807580	-0.491054
C107	C	1.292856	-0.474246	-0.157721
C108	C	1.626190	-0.140913	0.175613
C109	C	0.914027	-0.771062	-0.540170
C110	C	1.247360	-0.437729	-0.206837
C111	C	1.580694	-0.104395	0.126497
C112	C	0.917285	-0.697699	-0.536606
C113	C	1.250618	-0.364366	-0.203273
C114	C	1.583952	-0.031032	0.130060
C115	C	0.947332	-1.029097	-0.504364
C116	C	1.280666	-0.695764	-0.171030
C117	C	1.613999	-0.362431	0.162303
C118	C	0.944077	-1.102466	-0.507922
C119	C	1.277410	-0.769132	-0.174588
C120	C	1.610743	-0.435799	0.158745
C121	C	1.038325	-1.102127	-0.406133
C122	C	1.371659	-0.768794	-0.072799
C123	C	1.704992	-0.435461	0.260534
C124	C	1.041576	-1.028763	-0.402570
C125	C	1.374909	-0.695429	-0.069237
C126	C	1.708242	-0.362096	0.264097
C127	C	0.996083	-0.992252	-0.451689
C128	C	1.329416	-0.658919	-0.118356
C129	C	1.662749	-0.325585	0.214978
C130	C	0.956194	-0.882570	-0.494700
C131	C	1.289528	-0.549237	-0.161366
C132	C	1.622861	-0.215903	0.171967
C133	C	0.999415	-0.917263	-0.448047
C134	C	1.332748	-0.583930	-0.114714
C135	C	1.666082	-0.250596	0.218619
C136	C	1.160171	-0.408490	-0.481021
C137	C	1.493504	-0.075157	-0.147688
C138	C	1.826837	0.258176	0.185646
C139	C	1.237911	-0.411994	-0.485140
C140	C	1.571244	-0.078661	-0.151807
C141	C	1.904578	0.254673	0.181527
C142	C	0.968120	-0.409101	-0.688763
C143	C	1.301454	-0.075767	-0.355430
C144	C	1.634787	0.257566	-0.022097
C145	C	0.964020	-0.412865	-0.781410
C146	C	1.297353	-0.079531	-0.448077
C147	C	1.630687	0.253802	-0.114743
C148	C	0.986036	-0.217053	-0.462559
C149	C	1.319369	0.116280	-0.129226
C150	C	1.652703	0.449613	0.204107
C151	C	0.989570	-0.138978	-0.458811
C152	C	1.322904	0.194355	-0.125478
C153	C	1.656237	0.527689	0.207855
C154	C	0.956509	-0.419720	-0.951034
C155	C	1.289842	-0.086386	-0.617701
C156	C	1.623176	0.246947	-0.284367
C157	C	0.999122	-0.380612	-0.992525
C158	C	1.332456	-0.047279	-0.659192
C159	C	1.665789	0.286054	-0.325858
C160	C	0.994943	-0.384426	-1.086910
C161	C	1.328276	-0.051093	-0.753576
C162	C	1.661610	0.282240	-0.420243
C163	C	0.960687	-0.415906	-0.856641
C164	C	1.294021	-0.082573	-0.523307
C165	C	1.627354	0.250760	-0.189974
C166	C	0.987369	-0.391421	-0.254792
C167	C	1.320702	-0.058088	0.078541
C168	C	1.654036	0.275246	0.411875
C169	C	0.991613	-0.387465	-0.162144
C170	C	1.324947	-0.054132	0.171190
C171	C	1.658280	0.279201	0.504523
H172	H	0.571042	-0.467886	-0.550767
H173	H	0.904375	-0.134552	-0.217434
H174	H	1.237708	0.198781	0.115899
Br175	Br	1.107750	-0.978757	-0.331093
Br176	Br	1.441083	-0.645423	0.002241
Br177	Br	1.774416	-0.312090	0.335574
Br178	Br	0.885591	-0.979556	-0.571026
Br179	Br	1.218925	-0.646223	-0.237693
Br180	Br	1.552258	-0.312890	0.095641
Br181	Br	1.065176	-0.320050	-0.933590
Br182	Br	1.398510	0.013284	-0.600256
Br183	Br	1.731843	0.346617	-0.266923
H184	H	0.369275	-0.503810	-0.592960
H185	H	0.702609	-0.170477	-0.259627
H186	H	1.035942	0.162856	0.073707
H187	H	0.385148	-0.332695	-0.391999
H188	H	0.718481	0.000639	-0.058666
H189	H	1.051814	0.333972	0.274667
Br190	Br	0.847869	-0.821073	-0.611664
Br191	Br	1.181202	-0.487740	-0.278331
Br192	Br	1.514536	-0.154407	0.055002
H193	H	0.703553	-0.473844	-0.557749
H194	H	1.036886	-0.140511	-0.224416
H195	H	1.370220	0.192823	0.108917
Br196	Br	0.214554	-0.522572	-0.614992
Br197	Br	0.547887	-0.189239	-0.281659
Br198	Br	0.881221	0.144094	0.051675
H199	H	0.252636	-0.326736	-0.385021
H200	H	0.585969	0.006597	-0.051688
H201	H	0.919302	0.339930	0.281646
Br202	Br	0.569463	-0.270278	-0.318702
Br203	Br	0.902796	0.063056	0.014631
Br204	Br	1.236129	0.396389	0.347964
H205	H	0.719435	-0.302723	-0.356797
H206	H	1.052768	0.030610	-0.023464
H207	H	1.386101	0.363944	0.309869
Br208	Br	0.502296	-0.488126	-0.574555
Br209	Br	0.835630	-0.154793	-0.241221
Br210	Br	1.168963	0.178541	0.092112
Br211	Br	0.890477	-0.480297	-1.009973
Br212	Br	1.223810	-0.146964	-0.676639
Br213	Br	1.557143	0.186370	-0.343306
H214	H	0.471341	-0.338942	-0.399332
H215	H	0.804674	-0.005608	-0.065999
H216	H	1.138007	0.327725	0.267334
Br217	Br	1.077688	-0.647359	-0.363315
Br218	Br	1.411022	-0.314026	-0.029982
Br219	Br	1.744355	0.019307	0.303351
H220	H	1.045320	-0.800454	-0.398389
H221	H	1.378653	-0.467121	-0.065055
H222	H	1.711986	-0.133787	0.268278
Br223	Br	1.100066	-1.151682	-0.339479
Br224	Br	1.433399	-0.818348	-0.006146
Br225	Br	1.766733	-0.485015	0.327188
Br226	Br	0.877898	-1.152476	-0.579398
Br227	Br	1.211232	-0.819143	-0.246064
Br228	Br	1.544565	-0.485809	0.087269
H229	H	0.880240	-0.667971	-0.576598
H230	H	1.213573	-0.334638	-0.243265
H231	H	1.546907	-0.001305	0.090068
H232	H	1.039111	-0.887257	-0.405163
H233	H	1.372444	-0.553924	-0.071830
H234	H	1.705778	-0.220591	0.261503
H235	H	0.916499	-0.912582	-0.537585
H236	H	1.249833	-0.579248	-0.204252
H237	H	1.583166	-0.245915	0.129081
