data_functionalizedCrystal
_audit_creation_method	'MofGen! by Chris Wilmer'
_symmetry_space_group_name_H-M	'P1'
_symmetry_Int_Tables_number	1
_symmetry_cell_setting	triclinic
loop_
_symmetry_equiv_pos_as_xyz
  x,y,z
_cell_length_a	19.805407
_cell_length_b	25.639240
_cell_length_c	25.639233
_cell_angle_alpha	89.974071
_cell_angle_beta	89.985655
_cell_angle_gamma	90.032757
loop_
_atom_site_label
_atom_site_type_symbol
_atom_site_fract_x
_atom_site_fract_y
_atom_site_fract_z
Zn1	Zn	1.034671	-0.208214	-0.295607
Zn2	Zn	1.368004	0.125119	0.037726
Zn3	Zn	1.701338	0.458452	0.371060
Zn4	Zn	1.034583	-0.295633	-0.208160
Zn5	Zn	1.367917	0.037700	0.125173
Zn6	Zn	1.701250	0.371033	0.458506
Zn7	Zn	0.921496	-0.208214	-0.208183
Zn8	Zn	1.254829	0.125120	0.125150
Zn9	Zn	1.588162	0.458453	0.458484
Zn10	Zn	0.921436	-0.295621	-0.295562
Zn11	Zn	1.254770	0.037713	0.037771
Zn12	Zn	1.588103	0.371046	0.371104
O13	O	0.978047	-0.251920	-0.251878
O14	O	1.311380	0.081413	0.081455
O15	O	1.644713	0.414746	0.414788
O16	O	1.129376	-0.219816	-0.284016
O17	O	1.462709	0.113517	0.049317
O18	O	1.796042	0.446850	0.382650
O19	O	1.019570	-0.284042	-0.134998
O20	O	1.352904	0.049292	0.198335
O21	O	1.686237	0.382625	0.531668
O22	O	0.936570	-0.135048	-0.219808
O23	O	1.269903	0.198285	0.113525
O24	O	1.603237	0.531618	0.446858
O25	O	1.129312	-0.284042	-0.219770
O26	O	1.462645	0.049291	0.113564
O27	O	1.795978	0.382624	0.446897
O28	O	1.019719	-0.135049	-0.284038
O29	O	1.353053	0.198284	0.049295
O30	O	1.686386	0.531618	0.382628
O31	O	0.936485	-0.219815	-0.135015
O32	O	1.269819	0.113518	0.198318
O33	O	1.603152	0.446852	0.531652
O34	O	0.826771	-0.219803	-0.219765
O35	O	1.160105	0.113531	0.113568
O36	O	1.493438	0.446864	0.446902
O37	O	0.936469	-0.284021	-0.368733
O38	O	1.269802	0.049312	-0.035400
O39	O	1.603136	0.382646	0.297933
O40	O	0.826728	-0.284020	-0.283962
O41	O	1.160061	0.049313	0.049371
O42	O	1.493394	0.382646	0.382705
O43	O	1.019662	-0.219804	-0.368766
O44	O	1.352995	0.113529	-0.035433
O45	O	1.686328	0.446863	0.297900
O46	O	1.019513	-0.368797	-0.219726
O47	O	1.352846	-0.035463	0.113607
O48	O	1.686180	0.297870	0.446940
O49	O	0.936384	-0.368788	-0.283940
O50	O	1.269718	-0.035454	0.049393
O51	O	1.603051	0.297879	0.382727
C52	C	0.802191	-0.251910	-0.251861
C53	C	1.135524	0.081423	0.081472
C54	C	1.468857	0.414756	0.414805
C55	C	0.726959	-0.251919	-0.251866
C56	C	1.060292	0.081415	0.081467
C57	C	1.393625	0.414748	0.414800
C58	C	0.691609	-0.285407	-0.285240
C59	C	1.024943	0.047926	0.048094
C60	C	1.358276	0.381259	0.381427
C61	C	0.620921	-0.285408	-0.285247
C62	C	0.954254	0.047925	0.048086
C63	C	1.287588	0.381259	0.381419
C64	C	0.585583	-0.251923	-0.251878
C65	C	0.918916	0.081410	0.081455
C66	C	1.252250	0.414744	0.414788
C67	C	0.620937	-0.218431	-0.218503
C68	C	0.954271	0.114903	0.114830
C69	C	1.287604	0.448236	0.448163
C70	C	0.691624	-0.218428	-0.218499
C71	C	1.024958	0.114906	0.114834
C72	C	1.358291	0.448239	0.448168
C73	C	0.335864	-0.218442	-0.218521
C74	C	0.669197	0.114891	0.114813
C75	C	1.002531	0.448224	0.448146
C76	C	0.265172	-0.218449	-0.218526
C77	C	0.598505	0.114884	0.114807
C78	C	0.931838	0.448218	0.448140
C79	C	0.265161	-0.285423	-0.285269
C80	C	0.598494	0.047911	0.048065
C81	C	0.931827	0.381244	0.381398
C82	C	0.335848	-0.285420	-0.285264
C83	C	0.669181	0.047914	0.048069
C84	C	1.002514	0.381247	0.381402
C85	C	0.371196	-0.251926	-0.251892
C86	C	0.704529	0.081407	0.081441
C87	C	1.037862	0.414741	0.414775
C88	C	0.447844	-0.251925	-0.251885
C89	C	0.781177	0.081409	0.081448
C90	C	1.114511	0.414742	0.414782
C91	C	0.508936	-0.251926	-0.251882
C92	C	0.842269	0.081407	0.081451
C93	C	1.175603	0.414740	0.414785
C94	C	0.977951	-0.387763	-0.251837
C95	C	1.311284	-0.054430	0.081496
C96	C	1.644618	0.278904	0.414829
C97	C	0.977972	-0.445877	-0.251837
C98	C	1.311305	-0.112544	0.081496
C99	C	1.644639	0.220790	0.414829
C100	C	1.021364	-0.806202	-0.285383
C101	C	1.354697	-0.472869	0.047950
C102	C	1.688031	-0.139535	0.381284
C103	C	1.021384	-0.860806	-0.285394
C104	C	1.354717	-0.527473	0.047940
C105	C	1.688051	-0.194140	0.381273
O106	O	1.058163	-0.889011	-0.313874
O107	O	1.391497	-0.555677	0.019460
O108	O	1.724830	-0.222344	0.352793
N109	N	0.978141	-0.888159	-0.251929
N110	N	1.311474	-0.554826	0.081405
N111	N	1.644807	-0.221493	0.414738
C112	C	0.934870	-0.860906	-0.218455
C113	C	1.268203	-0.527572	0.114879
C114	C	1.601536	-0.194239	0.448212
O115	O	0.898089	-0.889186	-0.189991
O116	O	1.231422	-0.555852	0.143342
O117	O	1.564756	-0.222519	0.476675
C118	C	0.934847	-0.806302	-0.218447
C119	C	1.268180	-0.472969	0.114886
C120	C	1.601513	-0.139636	0.448220
C121	C	0.978098	-0.778952	-0.251911
C122	C	1.311431	-0.445619	0.081423
C123	C	1.644764	-0.112285	0.414756
C124	C	1.064611	-0.778851	-0.318844
C125	C	1.397944	-0.445518	0.014489
C126	C	1.731278	-0.112185	0.347822
C127	C	1.064592	-0.724251	-0.318833
C128	C	1.397925	-0.390918	0.014501
C129	C	1.731258	-0.057584	0.347834
C130	C	1.021325	-0.697001	-0.285360
C131	C	1.354659	-0.363668	0.047973
C132	C	1.687992	-0.030334	0.381306
C133	C	0.978079	-0.724351	-0.251899
C134	C	1.311412	-0.391018	0.081434
C135	C	1.644745	-0.057685	0.414768
C136	C	0.891573	-0.779049	-0.184976
C137	C	1.224906	-0.445716	0.148357
C138	C	1.558240	-0.112383	0.481691
C139	C	0.891553	-0.724442	-0.184972
C140	C	1.224887	-0.391109	0.148362
C141	C	1.558220	-0.057776	0.481695
C142	C	0.934804	-0.697092	-0.218435
C143	C	1.268138	-0.363759	0.114898
C144	C	1.601471	-0.030425	0.448232
C145	C	0.934793	-0.642501	-0.218415
C146	C	1.268126	-0.309167	0.114918
C147	C	1.601460	0.024166	0.448252
N148	N	0.978036	-0.615148	-0.251880
N149	N	1.311370	-0.281814	0.081453
N150	N	1.644703	0.051519	0.414787
C151	C	1.021303	-0.642398	-0.285353
C152	C	1.354636	-0.309064	0.047981
C153	C	1.687969	0.024269	0.381314
C154	C	0.934920	-0.975576	-0.218474
C155	C	1.268253	-0.642243	0.114859
C156	C	1.601587	-0.308910	0.448193
C157	C	0.934946	-1.030179	-0.218478
C158	C	1.268279	-0.696845	0.114855
C159	C	1.601613	-0.363512	0.448188
C160	C	1.021459	-1.030075	-0.285418
C161	C	1.354793	-0.696742	0.047915
C162	C	1.688126	-0.363409	0.381248
C163	C	1.021437	-0.975472	-0.285411
C164	C	1.354770	-0.642139	0.047923
C165	C	1.688103	-0.308805	0.381256
C166	C	0.978163	-0.948223	-0.251939
C167	C	1.311497	-0.614890	0.081394
C168	C	1.644830	-0.281556	0.414728
C169	C	1.021259	-0.527733	-0.285326
C170	C	1.354593	-0.194399	0.048008
C171	C	1.687926	0.138934	0.381341
C172	C	1.021238	-0.473127	-0.285310
C173	C	1.354572	-0.139794	0.048024
C174	C	1.687905	0.193540	0.381357
C175	C	0.934722	-0.473235	-0.218372
C176	C	1.268056	-0.139902	0.114961
C177	C	1.601389	0.193432	0.448295
C178	C	0.934746	-0.527836	-0.218386
C179	C	1.268079	-0.194502	0.114947
C180	C	1.601412	0.138831	0.448281
C181	C	0.978016	-0.555083	-0.251867
C182	C	1.311350	-0.221750	0.081466
C183	C	1.644683	0.111584	0.414800
O184	O	0.898030	-0.614262	-0.189951
O185	O	1.231364	-0.280928	0.143382
O186	O	1.564697	0.052405	0.476715
O187	O	1.058071	-0.614111	-0.313816
O188	O	1.391404	-0.280778	0.019517
O189	O	1.724737	0.052556	0.352851
C190	C	1.154589	-0.251931	-0.251895
C191	C	1.487923	0.081402	0.081438
C192	C	1.821256	0.414736	0.414771
C193	C	1.229821	-0.251935	-0.251903
C194	C	1.563155	0.081398	0.081430
C195	C	1.896488	0.414731	0.414764
C196	C	0.978068	-0.251911	-0.388251
C197	C	1.311402	0.081422	-0.054918
C198	C	1.644735	0.414755	0.278415
C199	C	0.978078	-0.251907	-0.446365
C200	C	1.311411	0.081426	-0.113032
C201	C	1.644744	0.414759	0.220301
C202	C	0.978161	-0.115547	-0.251931
C203	C	1.311494	0.217786	0.081403
C204	C	1.644828	0.551119	0.414736
C205	C	0.978210	-0.057433	-0.251953
C206	C	1.311543	0.275900	0.081380
C207	C	1.644877	0.609233	0.414713
C208	C	1.021451	-0.218370	-0.806751
C209	C	1.354785	0.114963	-0.473418
C210	C	1.688118	0.448296	-0.140085
C211	C	1.021460	-0.218356	-0.861356
C212	C	1.354793	0.114978	-0.528022
C213	C	1.688126	0.448311	-0.194689
O214	O	1.058283	-0.189903	-0.889612
O215	O	1.391616	0.143430	-0.556278
O216	O	1.724949	0.476764	-0.222945
N217	N	0.978152	-0.251785	-0.888648
N218	N	1.311486	0.081549	-0.555315
N219	N	1.644819	0.414882	-0.221981
C220	C	0.934829	-0.285227	-0.861333
C221	C	1.268163	0.048107	-0.528000
C222	C	1.601496	0.381440	-0.194667
O223	O	0.897993	-0.313659	-0.889561
O224	O	1.231327	0.019674	-0.556228
O225	O	1.564660	0.353008	-0.222895
C226	C	0.934818	-0.285238	-0.806730
C227	C	1.268151	0.048095	-0.473397
C228	C	1.601485	0.381429	-0.140063
C229	C	0.978133	-0.251811	-0.779440
C230	C	1.311466	0.081523	-0.446107
C231	C	1.644799	0.414856	-0.112774
C232	C	1.064762	-0.184945	-0.779462
C233	C	1.398095	0.148388	-0.446128
C234	C	1.731429	0.481722	-0.112795
C235	C	1.064754	-0.184960	-0.724861
C236	C	1.398088	0.148373	-0.391528
C237	C	1.731421	0.481706	-0.058194
C238	C	1.021436	-0.218401	-0.697550
C239	C	1.354769	0.114933	-0.364217
C240	C	1.688103	0.448266	-0.030884
C241	C	0.978125	-0.251826	-0.724840
C242	C	1.311458	0.081507	-0.391506
C243	C	1.644792	0.414841	-0.058173
C244	C	0.891492	-0.318677	-0.779416
C245	C	1.224825	0.014656	-0.446083
C246	C	1.558158	0.347990	-0.112749
C247	C	0.891484	-0.318685	-0.724809
C248	C	1.224817	0.014648	-0.391476
C249	C	1.558151	0.347981	-0.058142
C250	C	0.934799	-0.285258	-0.697519
C251	C	1.268132	0.048076	-0.364186
C252	C	1.601465	0.381409	-0.030853
C253	C	0.934799	-0.285282	-0.642928
C254	C	1.268132	0.048052	-0.309595
C255	C	1.601466	0.381385	0.023738
N256	N	0.978106	-0.251853	-0.615636
N257	N	1.311440	0.081481	-0.282303
N258	N	1.644773	0.414814	0.051031
C259	C	1.021425	-0.218412	-0.642947
C260	C	1.354758	0.114921	-0.309614
C261	C	1.688091	0.448254	0.023720
C262	C	0.934855	-0.285199	-0.976004
C263	C	1.268189	0.048134	-0.642671
C264	C	1.601522	0.381467	-0.309337
C265	C	0.934869	-0.285191	-1.030606
C266	C	1.268203	0.048142	-0.697273
C267	C	1.601536	0.381476	-0.363940
C268	C	1.021499	-0.218319	-1.030625
C269	C	1.354832	0.115014	-0.697292
C270	C	1.688166	0.448347	-0.363958
C271	C	1.021488	-0.218331	-0.976022
C272	C	1.354821	0.115003	-0.642688
C273	C	1.688155	0.448336	-0.309355
C274	C	0.978162	-0.251770	-0.948712
C275	C	1.311496	0.081563	-0.615378
C276	C	1.644829	0.414896	-0.282045
C277	C	1.021406	-0.218447	-0.528282
C278	C	1.354739	0.114886	-0.194948
C279	C	1.688072	0.448219	0.138385
C280	C	1.021396	-0.218467	-0.473676
C281	C	1.354730	0.114866	-0.140343
C282	C	1.688063	0.448200	0.192990
C283	C	0.934764	-0.285337	-0.473662
C284	C	1.268098	0.047997	-0.140329
C285	C	1.601431	0.381330	0.193004
C286	C	0.934776	-0.285319	-0.528263
C287	C	1.268109	0.048014	-0.194930
C288	C	1.601443	0.381348	0.138404
C289	C	0.978099	-0.251870	-0.555571
C290	C	1.311432	0.081463	-0.222238
C291	C	1.644766	0.414797	0.111095
O292	O	0.897993	-0.313718	-0.614637
O293	O	1.231326	0.019615	-0.281304
O294	O	1.564660	0.352948	0.052029
O295	O	1.058248	-0.189980	-0.614712
O296	O	1.391581	0.143353	-0.281379
O297	O	1.724915	0.476687	0.051955
C298	C	0.978064	-0.251892	-0.116036
C299	C	1.311397	0.081441	0.217298
C300	C	1.644731	0.414775	0.550631
C301	C	0.978186	-0.251748	-0.057922
C302	C	1.311519	0.081585	0.275411
C303	C	1.644852	0.414918	0.608745
H304	H	1.056461	-0.450860	-0.312560
H305	H	1.389794	-0.117527	0.020774
H306	H	1.723127	0.215807	0.354107
H307	H	0.856195	-0.345911	-0.702576
H308	H	1.189528	-0.012578	-0.369243
H309	H	1.522862	0.320756	-0.035909
H310	H	0.592143	-0.312678	-0.312423
H311	H	0.925476	0.020655	0.020911
H312	H	1.258810	0.353988	0.354244
N313	N	0.729752	-0.182311	-0.182499
N314	N	1.063085	0.151022	0.150834
N315	N	1.396419	0.484355	0.484168
H316	H	0.779894	-0.187389	-0.187560
H317	H	1.113227	0.145944	0.145773
H318	H	1.446560	0.479278	0.479106
H319	H	0.717424	-0.144983	-0.190710
H320	H	1.050757	0.188350	0.142623
H321	H	1.384090	0.521683	0.475956
H322	H	0.899512	-0.312543	-0.550483
H323	H	1.232845	0.020790	-0.217150
H324	H	1.566179	0.354124	0.116183
H325	H	0.720377	-0.312677	-0.312411
H326	H	1.053710	0.020657	0.020922
H327	H	1.387043	0.353990	0.354256
H328	H	1.099808	-0.701985	-0.346083
H329	H	1.433142	-0.368652	-0.012750
H330	H	1.766475	-0.035319	0.320584
N331	N	1.067921	-0.557116	-0.321442
N332	N	1.401254	-0.223783	0.011891
N333	N	1.734588	0.109551	0.345225
H334	H	1.095310	-0.531498	-0.342636
H335	H	1.428643	-0.198164	-0.009303
H336	H	1.761977	0.135169	0.324031
H337	H	1.099276	-0.579767	-0.300193
H338	H	1.432609	-0.246433	0.033140
H339	H	1.765943	0.086900	0.366474
H340	H	0.236402	-0.191178	-0.191353
H341	H	0.569735	0.142155	0.141980
H342	H	0.903068	0.475488	0.475313
H343	H	0.364616	-0.312689	-0.312435
H344	H	0.697950	0.020645	0.020898
H345	H	1.031283	0.353978	0.354232
H346	H	0.364636	-0.191174	-0.191343
H347	H	0.697969	0.142160	0.141991
H348	H	1.031302	0.475493	0.475324
N349	N	1.068221	-0.182244	-1.060081
N350	N	1.401554	0.151089	-0.726748
N351	N	1.734888	0.484423	-0.393415
H352	H	1.099574	-0.203486	-1.082737
H353	H	1.432907	0.129848	-0.749403
H354	H	1.766241	0.463181	-0.416070
H355	H	1.040687	-0.158016	-1.082707
H356	H	1.374020	0.175318	-0.749374
H357	H	1.707353	0.508651	-0.416041
H358	H	1.100025	-0.157739	-0.702647
H359	H	1.433358	0.175594	-0.369314
H360	H	1.766691	0.508927	-0.035980
H361	H	0.592159	-0.191164	-0.191336
H362	H	0.925493	0.142169	0.141997
H363	H	1.258826	0.475502	0.475331
N364	N	0.888039	-0.321400	-0.444202
N365	N	1.221372	0.011933	-0.110868
N366	N	1.554705	0.345266	0.222465
H367	H	0.898515	-0.358758	-0.453693
H368	H	1.231848	-0.025424	-0.120360
H369	H	1.565182	0.307909	0.212973
H370	H	0.894628	-0.316289	-0.405480
H371	H	1.227962	0.017045	-0.072147
H372	H	1.561295	0.350378	0.261187
N373	N	1.111263	-0.808237	-0.354963
N374	N	1.444596	-0.474904	-0.021630
N375	N	1.777930	-0.141571	0.311703
H376	H	1.138646	-0.782618	-0.376160
H377	H	1.471979	-0.449284	-0.042827
H378	H	1.805313	-0.115951	0.290506
H379	H	1.142624	-0.830889	-0.333721
H380	H	1.475957	-0.497556	-0.000387
H381	H	1.809291	-0.164222	0.332946
H382	H	0.856220	-0.345897	-0.801626
H383	H	1.189553	-0.012564	-0.468293
H384	H	1.522887	0.320770	-0.134959
H385	H	0.899734	-1.052443	-0.191223
H386	H	1.233067	-0.719109	0.142110
H387	H	1.566400	-0.385776	0.475443
N388	N	1.068084	-0.945975	-0.321503
N389	N	1.401418	-0.612641	0.011830
N390	N	1.734751	-0.279308	0.345163
H391	H	1.095495	-0.971528	-0.342707
H392	H	1.428829	-0.638195	-0.009373
H393	H	1.762162	-0.304861	0.323960
H394	H	1.040503	-0.923326	-0.345679
H395	H	1.373837	-0.589992	-0.012345
H396	H	1.707170	-0.256659	0.320988
H397	H	0.236372	-0.312693	-0.312444
H398	H	0.569705	0.020640	0.020889
H399	H	0.903038	0.353973	0.354222
N400	N	1.068127	-1.059472	-0.321523
N401	N	1.401460	-0.726138	0.011811
N402	N	1.734793	-0.392805	0.345144
H403	H	1.061573	-1.098212	-0.316448
H404	H	1.394907	-0.764879	0.016885
H405	H	1.728240	-0.431545	0.350219
H406	H	1.057554	-1.049913	-0.358855
H407	H	1.390888	-0.716580	-0.025521
H408	H	1.724221	-0.383247	0.307812
N409	N	0.888250	-0.946188	-0.182365
N410	N	1.221583	-0.612854	0.150968
N411	N	1.554917	-0.279521	0.484301
H412	H	0.860864	-0.971805	-0.161168
H413	H	1.194197	-0.638472	0.172165
H414	H	1.527530	-0.305139	0.505499
H415	H	0.915814	-0.923529	-0.158185
H416	H	1.249148	-0.590196	0.175148
H417	H	1.582481	-0.256863	0.508482
N418	N	0.844924	-0.808540	-0.148882
N419	N	1.178258	-0.475207	0.184451
N420	N	1.511591	-0.141873	0.517785
H421	H	0.817514	-0.782984	-0.127682
H422	H	1.150847	-0.449651	0.205652
H423	H	1.484180	-0.116317	0.538985
H424	H	0.813589	-0.831202	-0.170145
H425	H	1.146922	-0.497869	0.163188
H426	H	1.480256	-0.164535	0.496521
N427	N	0.844877	-0.695053	-0.148870
N428	N	1.178211	-0.361719	0.184463
N429	N	1.511544	-0.028386	0.517796
H430	H	0.817485	-0.720668	-0.127675
H431	H	1.150818	-0.387335	0.205658
H432	H	1.484152	-0.054001	0.538992
H433	H	0.872439	-0.672395	-0.124688
H434	H	1.205773	-0.339062	0.208646
H435	H	1.539106	-0.005728	0.541979
N436	N	0.888160	-0.321247	-1.060041
N437	N	1.221493	0.012086	-0.726708
N438	N	1.554826	0.345419	-0.393375
H439	H	0.898639	-0.358607	-1.050532
H440	H	1.231972	-0.025274	-0.717198
H441	H	1.565305	0.308059	-0.383865
H442	H	0.839823	-0.313081	-1.050522
H443	H	1.173157	0.020252	-0.717189
H444	H	1.506490	0.353585	-0.383856
N445	N	0.888105	-0.557338	-0.182289
N446	N	1.221438	-0.224004	0.151045
N447	N	1.554771	0.109329	0.484378
H448	H	0.915642	-0.579990	-0.158084
H449	H	1.248975	-0.246657	0.175249
H450	H	1.582309	0.086676	0.508582
H451	H	0.860707	-0.531753	-0.161116
H452	H	1.194040	-0.198419	0.172217
H453	H	1.527374	0.134914	0.505551
N454	N	0.888062	-0.443839	-0.182268
N455	N	1.221396	-0.110505	0.151066
N456	N	1.554729	0.222828	0.484399
H457	H	0.894616	-0.405098	-0.187342
H458	H	1.227949	-0.071765	0.145991
H459	H	1.561282	0.261568	0.479324
H460	H	0.839718	-0.453407	-0.190373
H461	H	1.173052	-0.120074	0.142961
H462	H	1.506385	0.213259	0.476294
N463	N	1.068118	-0.182414	-0.444243
N464	N	1.401452	0.150920	-0.110909
N465	N	1.734785	0.484253	0.222424
H466	H	1.095559	-0.161227	-0.469833
H467	H	1.428892	0.172106	-0.136500
H468	H	1.762226	0.505440	0.196834
H469	H	1.040586	-0.158221	-0.421588
H470	H	1.373920	0.175112	-0.088255
H471	H	1.707253	0.508445	0.245079
H472	H	0.899574	-0.312433	-0.953771
H473	H	1.232907	0.020900	-0.620438
H474	H	1.566241	0.354234	-0.287105
H475	H	1.056681	-0.191208	-0.550510
H476	H	1.390015	0.142125	-0.217176
H477	H	1.723348	0.475458	0.116157
H478	H	1.100037	-0.157711	-0.801693
H479	H	1.433371	0.175622	-0.468359
H480	H	1.766704	0.508956	-0.135026
N481	N	1.068205	-0.182278	-0.946590
N482	N	1.401539	0.151056	-0.613256
N483	N	1.734872	0.484389	-0.279923
H484	H	1.095648	-0.161095	-0.972182
H485	H	1.428981	0.172239	-0.638848
H486	H	1.762315	0.505572	-0.305515
H487	H	1.040672	-0.158082	-0.923939
H488	H	1.374005	0.175251	-0.590606
H489	H	1.707339	0.508585	-0.257273
