data_functionalizedCrystal
_audit_creation_method	'MofGen! by Chris Wilmer'
_symmetry_space_group_name_H-M	'P1'
_symmetry_Int_Tables_number	1
_symmetry_cell_setting	triclinic
loop_
_symmetry_equiv_pos_as_xyz
  x,y,z
_cell_length_a	15.995350
_cell_length_b	13.339070
_cell_length_c	11.804365
_cell_angle_alpha	74.887832
_cell_angle_beta	101.844755
_cell_angle_gamma	99.560835
loop_
_atom_site_label
_atom_site_type_symbol
_atom_site_fract_x
_atom_site_fract_y
_atom_site_fract_z
O1	O	-1.153436	-0.109993	-0.098919
O2	O	-0.913404	-0.126090	-0.098942
O3	O	-1.005872	0.029222	-0.098930
O4	O	-1.060968	-0.265305	-0.098931
O5	O	-0.981519	-0.011624	0.099123
O6	O	-0.889052	-0.166936	0.099110
O7	O	-1.129083	-0.150839	0.099134
Cu8	Cu	-1.006844	-0.162617	0.117206
Cu9	Cu	-1.035644	-0.114312	-0.117014
O10	O	-1.036616	-0.306151	0.099121
C11	C	-0.869879	-0.145847	0.000081
C12	C	-0.776466	-0.143849	0.000072
C13	C	-0.984389	0.046489	0.000094
C14	C	-0.956648	0.158792	0.000087
C15	C	-1.172609	-0.131082	0.000108
C16	C	-1.266023	-0.133078	0.000110
C17	C	-0.437050	-0.136687	0.000097
C18	C	-0.458733	-0.026166	0.000539
C19	C	-0.555943	-0.028068	0.000084
C20	C	-0.605438	-0.140240	0.000085
C21	C	-0.590932	-0.171473	-0.113008
C22	C	-0.493661	-0.168676	-0.113095
C23	C	-0.466160	-0.217412	0.112128
C24	C	-0.562916	-0.217692	0.113614
C25	C	-0.700605	-0.142253	0.000074
C26	C	-0.341885	-0.134676	0.000099
C27	C	-1.058099	-0.323417	0.000095
C28	C	-1.085841	-0.435719	0.000095
N29	N	-0.986593	-0.196592	0.281944
C30	C	-1.172349	0.523580	0.000109
C31	C	-1.198415	0.418065	0.000122
C32	C	-1.137975	0.353242	0.000113
C33	C	-1.051466	0.393944	0.000091
C34	C	-1.025397	0.499468	0.000086
C35	C	-0.991023	0.329129	0.000091
C36	C	-0.904514	0.369832	0.000068
C37	C	-0.878449	0.475346	0.000063
C38	C	-0.938888	0.540169	0.000072
C39	C	-1.017092	0.223605	0.000095
C40	C	-0.870140	0.199493	0.000073
C41	C	-0.844074	0.305009	0.000059
N42	N	-1.055899	-0.080328	-0.281752
C43	C	-1.104523	0.001277	0.655909
C44	C	-1.119840	0.026984	0.531249
C45	C	-1.086529	-0.028908	0.468917
C46	C	-1.037899	-0.110511	0.531256
C47	C	-1.022586	-0.136225	0.655928
C48	C	-1.004593	-0.166410	0.468936
C49	C	-0.955963	-0.248013	0.531275
C50	C	-0.940652	-0.273723	0.655935
C51	C	-0.973962	-0.217831	0.718267
C52	C	-1.019906	-0.140696	0.344264
C53	C	-0.937970	-0.278198	0.344283
C54	C	-0.922652	-0.303905	0.468943
H55	H	-0.564440	-0.001903	0.081155
H56	H	-1.159435	0.093423	0.480497
H57	H	-0.910847	-0.323712	0.293533
C58	C	-0.636583	-0.281619	-0.118713
H59	H	-0.626975	-0.298932	-0.187757
H60	H	-0.696586	-0.282842	-0.122109
H61	H	-0.614340	-0.331042	-0.049794
H62	H	-0.883057	-0.370348	0.519715
C63	C	-0.631346	-0.096839	-0.226717
H64	H	-0.622232	-0.116383	-0.294681
H65	H	-0.605385	-0.027252	-0.227736
H66	H	-0.691363	-0.100852	-0.227889
H67	H	-0.808006	0.508480	0.000054
H68	H	-0.570693	-0.195121	0.197281
H69	H	-0.917670	0.626090	0.000057
H70	H	-1.221548	0.576366	0.000126
C71	C	-0.608205	-0.330101	0.122848
H72	H	-0.653838	-0.331274	0.057288
H73	H	-0.630670	-0.353549	0.195031
H74	H	-0.568046	-0.374829	0.121895
H75	H	-0.419966	0.001322	0.081643
C76	C	-0.476434	-0.276940	-0.120059
H77	H	-0.528860	-0.322432	-0.122831
H78	H	-0.436777	-0.304969	-0.051866
H79	H	-0.453052	-0.270205	-0.189807
C80	C	-0.748918	0.349787	0.000046
H81	H	-0.742052	0.421910	0.000053
H82	H	-0.731490	0.341783	-0.069020
H83	H	-0.714506	0.313299	0.069119
C84	C	-1.141159	0.062752	0.724469
H85	H	-1.172315	0.115033	0.669491
H86	H	-1.095280	0.094850	0.773110
H87	H	-1.178501	0.016298	0.773090
H88	H	-0.961488	-0.238758	0.819775
H89	H	-0.426683	-0.198930	0.197850
H90	H	-0.438832	0.034479	-0.080117
C91	C	-0.470474	-0.091375	-0.227293
H92	H	-0.410942	-0.088992	-0.228356
H93	H	-0.482853	-0.023702	-0.229057
H94	H	-0.503319	-0.113755	-0.294926
H95	H	-0.453251	-0.299123	0.112893
H96	H	-0.820924	0.146712	0.000071
H97	H	-1.059501	-0.074255	0.293518
C98	C	-1.103370	-0.000625	0.331794
H99	H	-1.137096	0.055986	0.303594
H100	H	-1.133307	-0.059471	0.303580
H101	H	-1.050089	0.019087	0.303610
H102	H	-0.583756	0.031856	-0.081126
C103	C	-1.112244	0.178839	0.000115
H104	H	-1.119116	0.106711	0.000127
H105	H	-1.146657	0.215330	-0.068944
H106	H	-1.129660	0.186845	0.069196
C107	C	-1.293567	0.373301	0.000134
H108	H	-1.325831	0.427020	0.000125
H109	H	-1.298301	0.318397	0.069199
H110	H	-1.315282	0.346886	-0.068940
C111	C	-0.887177	-0.363498	0.724505
H112	H	-0.869528	-0.393101	0.669532
H113	H	-0.921115	-0.415655	0.773125
H114	H	-0.837886	-0.337116	0.773149
H115	H	-1.159203	0.267327	0.000124
