data_functionalizedCrystal
_audit_creation_method	'MofGen! by Chris Wilmer'
_symmetry_space_group_name_H-M	'P1'
_symmetry_Int_Tables_number	1
_symmetry_cell_setting	triclinic
loop_
_symmetry_equiv_pos_as_xyz
  x,y,z
_cell_length_a	9.065218
_cell_length_b	9.130307
_cell_length_c	9.065218
_cell_angle_alpha	89.998181
_cell_angle_beta	94.984115
_cell_angle_gamma	90.001600
loop_
_atom_site_label
_atom_site_type_symbol
_atom_site_fract_x
_atom_site_fract_y
_atom_site_fract_z
O1	O	1.960395	0.121798	-0.216354
O2	O	1.531111	0.121800	-0.234101
O3	O	1.754626	0.121794	-0.010585
O4	O	1.736880	0.121803	-0.439870
O5	O	1.754619	-0.121805	-0.010583
O6	O	1.531103	-0.121799	-0.234099
O7	O	1.960388	-0.121801	-0.216352
Cu8	Cu	1.745745	-0.144043	-0.225225
Cu9	Cu	1.745754	0.144041	-0.225228
O10	O	1.736872	-0.121796	-0.439868
C11	C	1.476120	0.000000	-0.232394
C12	C	1.312277	0.000001	-0.227294
N13	N	1.745750	-0.346666	-0.225222
C14	C	1.943755	-0.346660	-0.027358
C15	C	2.042767	-0.423324	0.071570
C16	C	2.042782	-0.576658	0.071571
C17	C	1.943771	-0.653330	-0.027364
C18	C	1.844758	-0.576667	-0.126292
C19	C	1.844757	-0.423330	-0.126285
C20	C	1.646748	-0.576672	-0.324147
C21	C	1.646738	-0.423339	-0.324157
C22	C	1.547737	-0.653345	-0.423081
C23	C	1.448729	-0.576681	-0.522019
C24	C	1.448720	-0.423338	-0.522017
C25	C	1.547726	-0.346675	-0.423085
C26	C	2.015378	0.000001	-0.218059
C27	C	2.179221	0.000010	-0.223158
N28	N	1.745761	0.346664	-0.225219
C29	C	1.738582	0.000005	-0.494855
C30	C	1.743681	0.000008	-0.658698
C31	C	1.752917	-0.000003	0.044403
C32	C	1.747817	0.000003	0.208245
H33	H	1.943765	-0.221808	-0.027361
H34	H	2.123379	-0.360884	0.152124
Br35	Br	1.547731	-0.138578	-0.423083
H36	H	2.123401	-0.639078	0.152131
H37	H	1.943776	-0.778183	-0.027345
H38	H	1.368115	-0.639118	-0.602558
Br39	Br	1.547740	-0.861442	-0.423075
H40	H	1.368086	-0.360926	-0.602570
