data_functionalizedCrystal
_audit_creation_method	'MofGen! by Chris Wilmer'
_symmetry_space_group_name_H-M	'P1'
_symmetry_Int_Tables_number	1
_symmetry_cell_setting	triclinic
loop_
_symmetry_equiv_pos_as_xyz
  x,y,z
_cell_length_a	19.121321
_cell_length_b	19.120786
_cell_length_c	18.101390
_cell_angle_alpha	87.524889
_cell_angle_beta	92.421694
_cell_angle_gamma	90.133760
loop_
_atom_site_label
_atom_site_type_symbol
_atom_site_fract_x
_atom_site_fract_y
_atom_site_fract_z
Zn1	Zn	1.059822	-0.324751	-0.356401
Zn2	Zn	1.309822	-0.074751	-0.106401
Zn3	Zn	1.559822	0.175249	0.143599
Zn4	Zn	1.809822	0.425249	0.393599
Zn5	Zn	1.054732	-0.442006	-0.227509
Zn6	Zn	1.304732	-0.192006	0.022491
Zn7	Zn	1.554732	0.057994	0.272491
Zn8	Zn	1.804732	0.307994	0.522491
Zn9	Zn	0.942588	-0.319789	-0.238075
Zn10	Zn	1.192588	-0.069789	0.011925
Zn11	Zn	1.442588	0.180211	0.261925
Zn12	Zn	1.692588	0.430211	0.511925
Zn13	Zn	0.937555	-0.436965	-0.356811
Zn14	Zn	1.187555	-0.186965	-0.106811
Zn15	Zn	1.437555	0.063035	0.143189
Zn16	Zn	1.687555	0.313035	0.393189
O17	O	0.998674	-0.380878	-0.294699
O18	O	1.248674	-0.130878	-0.044699
O19	O	1.498674	0.119122	0.205301
O20	O	1.748674	0.369122	0.455301
O21	O	1.157248	-0.344491	-0.334710
O22	O	1.407248	-0.094491	-0.084710
O23	O	1.657248	0.155509	0.165290
O24	O	1.907248	0.405509	0.415290
O25	O	1.039832	-0.425827	-0.125277
O26	O	1.289832	-0.175827	0.124723
O27	O	1.539832	0.074173	0.374723
O28	O	1.789832	0.324173	0.624723
O29	O	0.962376	-0.222337	-0.258021
O30	O	1.212376	0.027663	-0.008021
O31	O	1.462376	0.277663	0.241979
O32	O	1.712376	0.527663	0.491979
O33	O	1.153509	-0.430639	-0.240014
O34	O	1.403509	-0.180639	0.009986
O35	O	1.653509	0.069361	0.259986
O36	O	1.903509	0.319361	0.509986
O37	O	1.048507	-0.225982	-0.344955
O38	O	1.298507	0.024018	-0.094955
O39	O	1.548507	0.274018	0.155045
O40	O	1.798507	0.524018	0.405045
O41	O	0.957440	-0.336035	-0.133040
O42	O	1.207440	-0.086035	0.116960
O43	O	1.457440	0.163965	0.366960
O44	O	1.707440	0.413965	0.616960
O45	O	0.843819	-0.331146	-0.258419
O46	O	1.093819	-0.081146	-0.008419
O47	O	1.343819	0.168854	0.241581
O48	O	1.593819	0.418854	0.491581
O49	O	0.953798	-0.422046	-0.460390
O50	O	1.203798	-0.172046	-0.210390
O51	O	1.453798	0.077954	0.039610
O52	O	1.703798	0.327954	0.289610
O53	O	0.840122	-0.417235	-0.345654
O54	O	1.090122	-0.167235	-0.095654
O55	O	1.340122	0.082765	0.154346
O56	O	1.590122	0.332765	0.404346
O57	O	1.043627	-0.339603	-0.460089
O58	O	1.293627	-0.089603	-0.210089
O59	O	1.543627	0.160397	0.039911
O60	O	1.793627	0.410397	0.289911
O61	O	1.034952	-0.539448	-0.240411
O62	O	1.284952	-0.289448	0.009589
O63	O	1.534952	-0.039448	0.259589
O64	O	1.784952	0.210552	0.509589
O65	O	0.948863	-0.535744	-0.335409
O66	O	1.198863	-0.285744	-0.085409
O67	O	1.448863	-0.035744	0.164591
O68	O	1.698863	0.214256	0.414591
C69	C	0.816534	-0.373105	-0.303228
C70	C	1.066534	-0.123105	-0.053228
C71	C	1.316534	0.126895	0.196772
C72	C	1.566534	0.376895	0.446772
C73	C	0.738612	-0.369797	-0.306893
C74	C	0.988612	-0.119797	-0.056893
C75	C	1.238612	0.130203	0.193107
C76	C	1.488612	0.380203	0.443107
C77	C	0.298006	-0.348785	-0.330138
C78	C	0.548006	-0.098785	-0.080138
C79	C	0.798006	0.151215	0.169862
C80	C	1.048006	0.401215	0.419862
C81	C	0.371220	-0.351907	-0.326689
C82	C	0.621220	-0.101907	-0.076689
C83	C	0.871220	0.148093	0.173311
C84	C	1.121220	0.398093	0.423311
C85	C	0.405875	-0.398246	-0.275588
C86	C	0.655875	-0.148246	-0.025588
C87	C	0.905875	0.101754	0.224412
C88	C	1.155875	0.351754	0.474412
C89	C	0.367311	-0.441471	-0.227937
C90	C	0.617311	-0.191471	0.022063
C91	C	0.867311	0.058529	0.272063
C92	C	1.117311	0.308529	0.522063
C93	C	0.294097	-0.438353	-0.231390
C94	C	0.544097	-0.188353	0.018610
C95	C	0.794097	0.061647	0.268610
C96	C	1.044097	0.311647	0.518610
C97	C	0.626835	-0.409905	-0.262695
C98	C	0.876835	-0.159905	-0.012695
C99	C	1.126835	0.090095	0.237305
C100	C	1.376835	0.340095	0.487305
C101	C	0.700054	-0.413018	-0.259245
C102	C	0.950054	-0.163018	-0.009245
C103	C	1.200054	0.086982	0.240755
C104	C	1.450054	0.336982	0.490755
C105	C	0.703958	-0.323454	-0.357998
C106	C	0.953958	-0.073454	-0.107998
C107	C	1.203958	0.176546	0.142002
C108	C	1.453958	0.426546	0.392002
C109	C	0.630743	-0.320337	-0.361443
C110	C	0.880743	-0.070337	-0.111443
C111	C	1.130743	0.179663	0.138557
C112	C	1.380743	0.429663	0.388557
C113	C	0.592185	-0.363565	-0.313795
C114	C	0.842185	-0.113565	-0.063795
C115	C	1.092185	0.136435	0.186205
C116	C	1.342185	0.386435	0.436205
C117	C	0.480712	-0.401436	-0.272060
C118	C	0.730712	-0.151436	-0.022060
C119	C	0.980712	0.098564	0.227940
C120	C	1.230712	0.348564	0.477940
C121	C	0.517349	-0.360378	-0.317327
C122	C	0.767349	-0.110378	-0.067327
C123	C	1.017349	0.139622	0.182673
C124	C	1.267349	0.389622	0.432673
C125	C	0.990828	-0.563035	-0.286823
C126	C	1.240828	-0.313035	-0.036823
C127	C	1.490828	-0.063035	0.213177
C128	C	1.740828	0.186965	0.463177
C129	C	0.987536	-0.640966	-0.283476
C130	C	1.237536	-0.390966	-0.033476
C131	C	1.487536	-0.140966	0.216524
C132	C	1.737536	0.109034	0.466524
C133	C	1.030799	-0.679414	-0.327205
C134	C	1.280799	-0.429414	-0.077205
C135	C	1.530799	-0.179414	0.172795
C136	C	1.780799	0.070586	0.422795
C137	C	1.027703	-0.752638	-0.324061
C138	C	1.277703	-0.502638	-0.074061
C139	C	1.527703	-0.252638	0.175939
C140	C	1.777703	-0.002638	0.425939
C141	C	0.981346	-0.787413	-0.277183
C142	C	1.231346	-0.537413	-0.027183
C143	C	1.481346	-0.287413	0.222817
C144	C	1.731346	-0.037413	0.472817
C145	C	0.938077	-0.748959	-0.233453
C146	C	1.188077	-0.498959	0.016547
C147	C	1.438077	-0.248959	0.266547
C148	C	1.688077	0.001041	0.516547
C149	C	0.941171	-0.675736	-0.236601
C150	C	1.191171	-0.425736	0.013399
C151	C	1.441171	-0.175736	0.263399
C152	C	1.691171	0.074264	0.513399
C153	C	0.969760	-1.008406	-0.265414
C154	C	1.219760	-0.758406	-0.015414
C155	C	1.469760	-0.508406	0.234586
C156	C	1.719760	-0.258406	0.484586
C157	C	0.966672	-1.081634	-0.262268
C158	C	1.216672	-0.831634	-0.012268
C159	C	1.466672	-0.581634	0.237732
C160	C	1.716672	-0.331634	0.487732
C161	C	1.056296	-1.085308	-0.352878
C162	C	1.306296	-0.835308	-0.102878
C163	C	1.556296	-0.585308	0.147122
C164	C	1.806296	-0.335308	0.397122
C165	C	1.059389	-1.012083	-0.356018
C166	C	1.309389	-0.762083	-0.106018
C167	C	1.559389	-0.512083	0.143982
C168	C	1.809389	-0.262083	0.393982
C169	C	1.016118	-0.973636	-0.312291
C170	C	1.266118	-0.723636	-0.062291
C171	C	1.516118	-0.473636	0.187709
C172	C	1.766118	-0.223636	0.437709
C173	C	0.978181	-0.862259	-0.273967
C174	C	1.228181	-0.612259	-0.023967
C175	C	1.478181	-0.362259	0.226033
C176	C	1.728181	-0.112259	0.476033
C177	C	1.019279	-0.898791	-0.315511
C178	C	1.269279	-0.648791	-0.065511
C179	C	1.519279	-0.398791	0.184489
C180	C	1.769279	-0.148791	0.434489
C181	C	1.181526	-0.388681	-0.286138
C182	C	1.431526	-0.138681	-0.036138
C183	C	1.681526	0.111319	0.213862
C184	C	1.931526	0.361319	0.463862
C185	C	1.259447	-0.392006	-0.282489
C186	C	1.509447	-0.142006	-0.032489
C187	C	1.759447	0.107994	0.217511
C188	C	2.009447	0.357994	0.467511
C189	C	0.998719	-0.380815	-0.487862
C190	C	1.248719	-0.130815	-0.237862
C191	C	1.498719	0.119185	0.012138
C192	C	1.748719	0.369185	0.262138
C193	C	0.998738	-0.380789	-0.570176
C194	C	1.248738	-0.130789	-0.320176
C195	C	1.498738	0.119211	-0.070176
C196	C	1.748738	0.369211	0.179824
C197	C	1.006570	-0.198010	-0.302621
C198	C	1.256570	0.051990	-0.052621
C199	C	1.506570	0.301990	0.197379
C200	C	1.756570	0.551990	0.447379
C201	C	1.009935	-0.120082	-0.305997
C202	C	1.259935	0.129918	-0.055997
C203	C	1.509935	0.379918	0.194003
C204	C	1.759935	0.629918	0.444003
C205	C	0.998777	-0.380747	-0.869268
C206	C	1.248777	-0.130747	-0.619268
C207	C	1.498777	0.119253	-0.369268
C208	C	1.748777	0.369253	-0.119268
C209	C	1.055465	-0.329074	-0.837736
C210	C	1.305465	-0.079074	-0.587736
C211	C	1.555465	0.170926	-0.337736
C212	C	1.805465	0.420926	-0.087736
C213	C	1.055304	-0.328867	-0.752135
C214	C	1.305304	-0.078867	-0.502135
C215	C	1.555304	0.171133	-0.252135
C216	C	1.805304	0.421133	-0.002135
C217	C	0.998758	-0.380768	-0.720885
C218	C	1.248758	-0.130768	-0.470885
C219	C	1.498758	0.119232	-0.220885
C220	C	1.748758	0.369232	0.029115
C221	C	0.925760	-0.357548	-0.756290
C222	C	1.175760	-0.107548	-0.506290
C223	C	1.425760	0.142452	-0.256290
C224	C	1.675760	0.392452	-0.006290
C225	C	0.926103	-0.357157	-0.841938
C226	C	1.176103	-0.107157	-0.591938
C227	C	1.426103	0.142843	-0.341938
C228	C	1.676103	0.392843	-0.091938
C229	C	1.014431	-0.455751	-0.833598
C230	C	1.264431	-0.205751	-0.583598
C231	C	1.514431	0.044249	-0.333598
C232	C	1.764431	0.294249	-0.083598
C233	C	1.016068	-0.455441	-0.747888
C234	C	1.266068	-0.205441	-0.497888
C235	C	1.516068	0.044559	-0.247888
C236	C	1.766068	0.294559	0.002112
C237	C	0.998743	-0.380781	-0.637026
C238	C	1.248743	-0.130781	-0.387026
C239	C	1.498743	0.119219	-0.137026
C240	C	1.748743	0.369219	0.112974
C241	C	0.998788	-0.380732	-0.953127
C242	C	1.248788	-0.130732	-0.703127
C243	C	1.498788	0.119268	-0.453127
C244	C	1.748788	0.369268	-0.203127
C245	C	0.998673	-0.380891	-0.102288
C246	C	1.248673	-0.130891	0.147712
C247	C	1.498673	0.119109	0.397712
C248	C	1.748673	0.369109	0.647712
C249	C	0.998798	-0.380726	-0.019976
C250	C	1.248798	-0.130726	0.230024
C251	C	1.498798	0.119274	0.480024
C252	C	1.748798	0.369274	0.730024
H253	H	0.262703	-0.473549	-0.192591
H254	H	0.512703	-0.223549	0.057409
H255	H	0.762703	0.026451	0.307409
H256	H	1.012703	0.276451	0.557409
Cl257	Cl	1.039690	-0.243177	-0.725082
Cl258	Cl	1.289690	0.006823	-0.475082
Cl259	Cl	1.539690	0.256823	-0.225082
Cl260	Cl	1.789690	0.506823	0.024918
H261	H	1.091524	-1.116619	-0.388479
H262	H	1.341524	-0.866619	-0.138479
H263	H	1.591524	-0.616619	0.111521
H264	H	1.841524	-0.366619	0.361521
Cl265	Cl	0.743618	-0.471291	-0.195012
Cl266	Cl	0.993618	-0.221291	0.054988
Cl267	Cl	1.243618	0.028709	0.304988
Cl268	Cl	1.493618	0.278709	0.554988
Cl269	Cl	0.905012	-0.272373	-0.877573
Cl270	Cl	1.155012	-0.022373	-0.627573
Cl271	Cl	1.405012	0.227627	-0.377573
Cl272	Cl	1.655012	0.477627	-0.127573
Cl273	Cl	1.077551	-0.855073	-0.374445
Cl274	Cl	1.327551	-0.605073	-0.124445
Cl275	Cl	1.577551	-0.355073	0.125555
Cl276	Cl	1.827551	-0.105073	0.375555
Cl277	Cl	0.904214	-0.273662	-0.727948
Cl278	Cl	1.154214	-0.023662	-0.477948
Cl279	Cl	1.404214	0.226338	-0.227948
Cl280	Cl	1.654214	0.476338	0.022052
H281	H	0.900330	-0.777278	-0.195287
H282	H	1.150330	-0.527278	0.054713
H283	H	1.400330	-0.277278	0.304713
H284	H	1.650330	-0.027278	0.554713
Cl285	Cl	0.410876	-0.499730	-0.163698
Cl286	Cl	0.660876	-0.249730	0.086302
Cl287	Cl	0.910876	0.000270	0.336302
Cl288	Cl	1.160876	0.250270	0.586302
Cl289	Cl	0.915356	-0.960082	-0.210449
Cl290	Cl	1.165356	-0.710082	0.039551
Cl291	Cl	1.415356	-0.460082	0.289551
Cl292	Cl	1.665356	-0.210082	0.539551
Cl293	Cl	0.858928	-0.412459	-0.874447
Cl294	Cl	1.108928	-0.162459	-0.624447
Cl295	Cl	1.358928	0.087541	-0.374447
Cl296	Cl	1.608928	0.337541	-0.124447
Cl297	Cl	0.524284	-0.459687	-0.207818
Cl298	Cl	0.774284	-0.209687	0.042182
Cl299	Cl	1.024284	0.040313	0.292182
Cl300	Cl	1.274284	0.290313	0.542182
Cl301	Cl	1.089083	-0.635705	-0.386136
Cl302	Cl	1.339083	-0.385705	-0.136136
Cl303	Cl	1.589083	-0.135705	0.113864
Cl304	Cl	1.839083	0.114295	0.363864
H305	H	1.097136	-0.983772	-0.394190
H306	H	1.347136	-0.733772	-0.144190
H307	H	1.597136	-0.483772	0.105810
H308	H	1.847136	-0.233772	0.355810
Cl309	Cl	0.908392	-1.125350	-0.203329
Cl310	Cl	1.158392	-0.875350	0.046671
Cl311	Cl	1.408392	-0.625350	0.296671
Cl312	Cl	1.658392	-0.375350	0.546671
Cl313	Cl	0.578372	-0.464228	-0.202774
Cl314	Cl	0.828372	-0.214228	0.047226
Cl315	Cl	1.078372	0.035772	0.297226
Cl316	Cl	1.328372	0.285772	0.547226
Cl317	Cl	0.858988	-0.413656	-0.725317
Cl318	Cl	1.108988	-0.163656	-0.475317
Cl319	Cl	1.358988	0.086344	-0.225317
Cl320	Cl	1.608988	0.336344	0.024683
H321	H	1.062938	-0.783940	-0.359664
H322	H	1.312938	-0.533940	-0.109664
H323	H	1.562938	-0.283940	0.140336
H324	H	1.812938	-0.033940	0.390336
Cl325	Cl	1.094952	-0.487422	-0.861902
Cl326	Cl	1.344952	-0.237422	-0.611902
Cl327	Cl	1.594952	0.012578	-0.361902
Cl328	Cl	1.844952	0.262578	-0.111902
Cl329	Cl	1.098987	-0.482387	-0.711592
Cl330	Cl	1.348987	-0.232387	-0.461592
Cl331	Cl	1.598987	0.017613	-0.211592
Cl332	Cl	1.848987	0.267613	0.038408
Cl333	Cl	0.919901	-0.905982	-0.215041
Cl334	Cl	1.169901	-0.655982	0.034959
Cl335	Cl	1.419901	-0.405982	0.284959
Cl336	Cl	1.669901	-0.155982	0.534959
H337	H	1.109533	-0.343770	-0.728014
H338	H	1.359533	-0.093770	-0.478014
H339	H	1.609533	0.156230	-0.228014
H340	H	1.859533	0.406230	0.021986
Cl341	Cl	0.254447	-0.290524	-0.394379
Cl342	Cl	0.504447	-0.040524	-0.144379
Cl343	Cl	0.754447	0.209476	0.105621
Cl344	Cl	1.004447	0.459476	0.355621
Cl345	Cl	0.419691	-0.297573	-0.386597
Cl346	Cl	0.669691	-0.047573	-0.136597
Cl347	Cl	0.919691	0.202427	0.113403
Cl348	Cl	1.169691	0.452427	0.363403
Cl349	Cl	0.587183	-0.262082	-0.425690
Cl350	Cl	0.837183	-0.012082	-0.175690
Cl351	Cl	1.087183	0.237918	0.074310
Cl352	Cl	1.337183	0.487918	0.324310
H353	H	0.905940	-0.644432	-0.200993
H354	H	1.155940	-0.394432	0.049007
H355	H	1.405940	-0.144432	0.299007
H356	H	1.655940	0.105568	0.549007
Cl357	Cl	0.752435	-0.269118	-0.417898
Cl358	Cl	1.002435	-0.019118	-0.167898
Cl359	Cl	1.252435	0.230882	0.082102
Cl360	Cl	1.502435	0.480882	0.332102
H361	H	0.489130	-0.322651	-0.358936
H362	H	0.739130	-0.072651	-0.108936
H363	H	0.989130	0.177349	0.141064
H364	H	1.239130	0.427349	0.391064
Cl365	Cl	0.956563	-0.518471	-0.714672
Cl366	Cl	1.206563	-0.268471	-0.464672
Cl367	Cl	1.456563	-0.018471	-0.214672
Cl368	Cl	1.706563	0.231529	0.035328
H369	H	1.109879	-0.343830	-0.855224
H370	H	1.359879	-0.093830	-0.605224
H371	H	1.609879	0.156170	-0.355224
H372	H	1.859879	0.406170	-0.105224
Cl373	Cl	0.950624	-0.515252	-0.865044
Cl374	Cl	1.200624	-0.265252	-0.615044
Cl375	Cl	1.450624	-0.015252	-0.365044
Cl376	Cl	1.700624	0.234748	-0.115044
Cl377	Cl	1.040079	-0.243867	-0.875516
Cl378	Cl	1.290079	0.006133	-0.625516
Cl379	Cl	1.540079	0.256133	-0.375516
Cl380	Cl	1.790079	0.506133	-0.125516
