data_functionalizedCrystal
_audit_creation_method	'MofGen! by Chris Wilmer'
_symmetry_space_group_name_H-M	'P1'
_symmetry_Int_Tables_number	1
_symmetry_cell_setting	triclinic
loop_
_symmetry_equiv_pos_as_xyz
  x,y,z
_cell_length_a	12.970454
_cell_length_b	14.560438
_cell_length_c	12.970454
_cell_angle_alpha	89.999061
_cell_angle_beta	59.999776
_cell_angle_gamma	59.999680
loop_
_atom_site_label
_atom_site_type_symbol
_atom_site_fract_x
_atom_site_fract_y
_atom_site_fract_z
Zr1	Zr	1.128520	0.884761	-0.135317
O2	O	1.343610	0.738115	-0.299940
O3	O	0.913429	0.929716	-0.084850
O4	O	1.128519	0.929718	-0.299941
O5	O	1.128521	0.738113	0.084818
O6	O	1.128519	1.080857	-0.299943
O7	O	1.128520	0.738114	-0.084849
O8	O	0.743763	1.080855	0.084815
O9	O	1.513277	0.738115	-0.299941
O10	O	1.001899	1.061683	-0.063329
O11	O	1.001900	0.948888	0.063292
O12	O	1.255140	0.948890	-0.189949
O13	O	1.255141	0.836095	-0.063328
Zr14	Zr	1.128521	1.125810	0.135279
Zr15	Zr	1.128520	1.125812	-0.135320
Zr16	Zr	1.128521	0.884760	0.135282
Zr17	Zr	1.399120	0.884761	-0.135318
Zr18	Zr	0.857921	1.125810	0.135280
O19	O	1.343612	1.080855	0.084812
O20	O	1.343610	1.080857	-0.299944
O21	O	1.343612	0.738113	0.084817
O22	O	0.913431	1.272456	0.299901
O23	O	0.913429	1.272459	-0.084855
O24	O	0.913431	0.929714	0.299906
O25	O	1.128520	1.272459	-0.084856
O26	O	1.128522	1.080854	0.299903
O27	O	1.128522	0.929714	0.299905
O28	O	1.128521	1.272458	0.084811
O29	O	1.513277	0.929718	-0.299943
O30	O	0.743764	1.080853	0.299905
O31	O	0.743764	1.272456	0.299902
O32	O	0.743763	1.272458	0.084813
O33	O	1.513278	0.738114	-0.084851
O34	O	1.513278	0.929716	-0.084853
O35	O	1.001901	1.061681	0.189911
O36	O	1.001900	1.174476	0.063289
O37	O	1.255141	1.061683	-0.063331
O38	O	1.255142	0.948888	0.063291
C39	C	0.790041	1.005286	-0.000017
C40	C	0.675164	1.005286	-0.000017
C41	C	1.128521	0.703769	-0.000015
C42	C	1.128521	0.601437	-0.000014
C43	C	1.260711	0.398329	-0.066120
C44	C	1.260712	0.494481	-0.066111
C45	C	0.996320	0.612240	0.066090
C46	C	0.996320	0.516089	0.066088
C47	C	1.392911	0.291375	-0.132232
C48	C	1.525112	0.280565	-0.198334
C49	C	1.525113	0.376716	-0.198326
C50	C	1.392913	0.483678	-0.132215
C51	C	1.467000	1.005286	-0.000021
C52	C	1.581876	1.005286	-0.000021
C53	C	1.128519	1.005288	-0.338497
C54	C	1.128518	1.005288	-0.453373
C55	C	1.128520	1.306803	-0.000023
C56	C	1.128520	1.409135	-0.000025
C57	C	1.128522	1.005284	0.338458
C58	C	1.128523	1.005283	0.453335
C59	C	0.790041	1.306803	-0.000021
C60	C	0.675164	1.409135	-0.000022
C61	C	0.790043	1.005283	0.338460
C62	C	0.675167	1.005283	0.453337
C63	C	0.790043	1.306800	0.338456
C64	C	0.675167	1.409132	0.453331
C65	C	1.466998	0.703771	-0.338494
C66	C	1.581874	0.601439	-0.453370
C67	C	1.467000	0.703769	-0.000017
C68	C	1.581877	0.601437	-0.000016
C69	C	1.466998	1.005288	-0.338498
C70	C	1.581874	1.005289	-0.453375
C71	C	0.527732	1.457191	0.093454
C72	C	0.419778	1.553333	0.093457
C73	C	0.459259	1.601422	-0.000011
C74	C	0.606707	1.553357	-0.093496
C75	C	0.714658	1.457211	-0.093504
C76	C	0.527734	1.457195	0.507278
C77	C	0.419779	1.553357	0.615203
C78	C	0.459259	1.601449	0.669186
C79	C	0.606706	1.553381	0.615230
C80	C	0.714658	1.457225	0.507301
C81	C	1.729307	0.553384	-0.507326
C82	C	1.837261	0.457243	-0.615275
C83	C	1.797781	0.409155	-0.669262
C84	C	1.650334	0.457219	-0.615300
C85	C	1.542382	0.553363	-0.507358
C86	C	1.542350	0.553379	0.093469
C87	C	1.650274	0.457236	0.093495
C88	C	1.797724	0.409149	0.000031
C89	C	1.837250	0.457216	-0.093459
C90	C	1.729327	0.553361	-0.093479
H91	H	1.392925	0.213077	-0.132250
H92	H	1.618062	0.418112	0.169626
N93	N	1.914111	0.305449	0.000068
H94	H	1.903392	0.242259	-0.008170
H95	H	2.013468	0.282368	-0.073323
N96	N	0.485128	1.405338	0.194274
H97	H	0.375344	1.450379	0.253480
H98	H	0.525847	1.325402	0.153394
H99	H	1.422295	0.592515	0.169579
N100	N	1.996288	0.405375	-0.194229
H101	H	2.058645	0.337184	-0.180011
H102	H	2.018304	0.382119	-0.280022
N103	N	0.260764	1.605132	0.194288
H104	H	0.238685	1.628436	0.280102
H105	H	0.198439	1.673290	0.180017
H106	H	1.618208	0.418051	-0.659272
N107	N	0.342818	1.705115	-0.000003
H108	H	0.243432	1.728254	0.073402
H109	H	0.353622	1.768258	0.008205
N110	N	1.914226	0.305444	-0.785671
H111	H	1.903555	0.322304	-0.856637
H112	H	2.013552	0.282355	-0.811532
N113	N	1.771971	0.605185	-0.194321
H114	H	1.881757	0.560124	-0.253523
H115	H	1.731274	0.605024	-0.243352
H116	H	0.638833	1.592524	-0.169596
H117	H	1.761480	0.592522	-0.463381
H118	H	1.957311	0.418121	-0.659193
H119	H	1.422337	0.592478	-0.463430
N120	N	0.342806	1.705155	0.785601
H121	H	0.353486	1.688285	0.856561
H122	H	0.353547	1.768319	0.766552
H123	H	1.632745	0.193473	-0.252152
H124	H	0.638832	1.592553	0.659198
N125	N	0.485126	1.405353	0.449057
H126	H	0.575873	1.337145	0.372494
H127	H	0.425425	1.382126	0.512869
N128	N	0.873677	1.405395	-0.194306
H129	H	0.922662	1.325459	-0.243438
H130	H	0.882180	1.450536	-0.253422
N131	N	1.667691	0.365064	-0.269612
H132	H	1.751433	0.282719	-0.311493
H133	H	1.673438	0.402400	-0.336054
N134	N	1.392896	0.587392	-0.132190
H135	H	1.444795	0.587433	-0.094571
H136	H	1.444766	0.587385	-0.221731
H137	H	0.888679	0.524891	0.119909
N138	N	0.853740	0.727597	0.137387
H139	H	0.873800	0.786868	0.127356
H140	H	0.796015	0.736502	0.102681
N141	N	0.260758	1.605191	0.673385
H142	H	0.252140	1.560122	0.622811
H143	H	0.211888	1.605053	0.763122
H144	H	0.834703	1.418096	0.463390
