data_functionalizedCrystal
_audit_creation_method	'MofGen! by Chris Wilmer'
_symmetry_space_group_name_H-M	'P1'
_symmetry_Int_Tables_number	1
_symmetry_cell_setting	triclinic
loop_
_symmetry_equiv_pos_as_xyz
  x,y,z
_cell_length_a	23.096457
_cell_length_b	23.096457
_cell_length_c	19.851628
_cell_angle_alpha	60.005174
_cell_angle_beta	90.000013
_cell_angle_gamma	60.000612
loop_
_atom_site_label
_atom_site_type_symbol
_atom_site_fract_x
_atom_site_fract_y
_atom_site_fract_z
Zr1	Zr	0.557783	0.633738	-0.088408
O2	O	0.465340	0.754513	-0.195956
O3	O	0.586119	0.512955	-0.055440
O4	O	0.586126	0.633728	-0.195963
O5	O	0.465331	0.633751	0.055416
O6	O	0.681406	0.633729	-0.195967
O7	O	0.465333	0.633740	-0.055433
O8	O	0.681394	0.417688	0.055403
O9	O	0.465343	0.849793	-0.195954
O10	O	0.669314	0.562639	-0.041381
O11	O	0.598205	0.562646	0.041347
O12	O	0.598213	0.704841	-0.124101
O13	O	0.527104	0.704848	-0.041372
Zr14	Zr	0.709739	0.633759	0.088377
Zr15	Zr	0.709744	0.633741	-0.088414
Zr16	Zr	0.557778	0.633756	0.088383
Zr17	Zr	0.557787	0.785698	-0.088405
Zr18	Zr	0.709736	0.481799	0.088374
O19	O	0.681403	0.754542	0.055409
O20	O	0.681409	0.754517	-0.195965
O21	O	0.465334	0.754539	0.055418
O22	O	0.802182	0.512984	0.195925
O23	O	0.802189	0.512958	-0.055449
O24	O	0.586113	0.512980	0.195934
O25	O	0.802192	0.633746	-0.055447
O26	O	0.681396	0.633769	0.195932
O27	O	0.586116	0.633767	0.195936
O28	O	0.802189	0.633757	0.055402
O29	O	0.586131	0.849795	-0.195959
O30	O	0.681391	0.417702	0.195928
O31	O	0.802180	0.417704	0.195923
O32	O	0.802183	0.417690	0.055398
O33	O	0.465339	0.849807	-0.055429
O34	O	0.586128	0.849809	-0.055434
O35	O	0.669309	0.562656	0.124069
O36	O	0.740418	0.562649	0.041341
O37	O	0.669317	0.704851	-0.041379
O38	O	0.598208	0.704858	0.041350
C39	C	0.633756	0.443670	-0.000019
C40	C	0.633755	0.379160	-0.000020
C41	C	0.581284	-0.028878	-0.061081
C42	C	0.581278	0.031740	-0.061080
C43	C	0.633766	0.009570	-0.000016
C44	C	0.686254	-0.073229	0.061064
C45	C	0.686255	-0.133845	0.061067
N46	N	0.696013	0.065674	0.018471
N47	N	0.696010	0.123261	0.018463
C48	C	0.633767	0.192200	-0.000019
N49	N	0.571524	0.201385	-0.018510
N50	N	0.571527	0.143795	-0.018506
C51	C	0.633771	0.075292	-0.000012
C52	C	0.581273	0.340717	-0.061092
C53	C	0.581267	0.401335	-0.061086
C54	C	0.686248	0.296363	0.061056
C55	C	0.686249	0.235748	0.061053
C56	C	0.633762	0.257930	-0.000025
C57	C	0.443681	0.633745	-0.000008
C58	C	0.379169	0.633744	-0.000005
C59	C	0.385977	0.559518	0.043166
C60	C	0.325362	0.559517	0.043170
C61	C	0.257939	0.633746	-0.000014
C62	C	0.251133	0.707982	-0.043187
C63	C	0.311748	0.707981	-0.043182
N64	N	0.135146	0.688995	-0.070294
N65	N	0.077567	0.688991	-0.070297
C66	C	0.075306	0.633753	-0.000028
N67	N	0.132806	0.578508	0.070241
N68	N	0.190392	0.578510	0.070243
C69	C	0.192207	0.633755	-0.000023
C70	C	0.016391	0.559521	0.043150
C71	C	-0.044227	0.559523	0.043156
C72	C	-0.118457	0.707990	-0.043208
C73	C	-0.057839	0.707986	-0.043206
C74	C	0.009582	0.633749	-0.000029
C75	C	0.823841	0.633752	-0.000024
C76	C	0.888353	0.633753	-0.000027
C77	C	0.633767	0.633726	-0.221154
C78	C	0.633769	0.633719	-0.296207
C79	C	0.633766	0.823827	-0.000012
C80	C	0.633767	0.888337	-0.000011
C81	C	0.672534	0.556202	-0.432471
C82	C	0.605675	0.594959	-0.499920
C83	C	0.633762	0.633740	-0.433638
C84	C	0.700607	0.594978	-0.499923
C85	C	0.633761	0.633755	-0.566387
C86	C	0.566864	0.672497	-0.500099
C87	C	0.661844	0.672505	-0.500092
C88	C	0.594945	0.711318	-0.567554
C89	C	0.633763	0.633729	-0.357163
C90	C	0.633752	0.633771	-0.642864
C91	C	0.633755	0.633771	0.221123
C92	C	0.633753	0.633778	0.296175
C93	C	0.823837	0.443674	-0.000027
C94	C	0.888347	0.379164	-0.000031
C95	C	0.633751	0.443693	0.221120
C96	C	0.633747	0.379190	0.296171
C97	C	0.823831	0.443696	0.221111
C98	C	0.888339	0.379194	0.296160
C99	C	0.443691	0.823801	-0.221143
C100	C	0.379183	0.888303	-0.296191
C101	C	0.443686	0.823823	-0.000004
C102	C	0.379176	0.888333	-0.000000
C103	C	0.633772	0.823804	-0.221151
C104	C	0.633775	0.888307	-0.296202
C105	C	0.881525	0.348864	-0.043220
C106	C	0.942133	0.288259	-0.043241
C107	C	1.009562	0.257950	-0.000066
C108	C	1.016382	0.288256	0.043125
C109	C	0.955775	0.348864	0.043139
C110	C	0.670861	0.348903	0.374603
C111	C	0.670855	0.288304	0.445129
C112	C	0.633739	0.257988	0.437220
C113	C	0.596620	0.288281	0.358779
C114	C	0.596622	0.348883	0.288255
C115	C	0.955757	0.348899	0.288220
C116	C	1.016375	0.288301	0.358730
C117	C	1.009573	0.257995	0.437178
C118	C	0.942148	0.288295	0.445116
C119	C	0.881532	0.348896	0.374607
C120	C	0.311765	0.918605	-0.288252
C121	C	0.251147	0.979222	-0.358761
C122	C	0.257949	1.009532	-0.437209
C123	C	0.325374	0.979227	-0.445147
C124	C	0.385991	0.918616	-0.374639
C125	C	0.385997	0.918639	0.043182
C126	C	0.325389	0.979261	0.043182
C127	C	0.257960	1.009572	0.000005
C128	C	0.251140	0.979264	-0.043182
C129	C	0.311748	0.918647	-0.043187
C130	C	0.670899	0.918604	-0.288267
C131	C	0.670916	0.979203	-0.358779
C132	C	0.633805	1.009509	-0.437225
C133	C	0.596680	0.979207	-0.445159
C134	C	0.596668	0.918604	-0.374648
H135	H	0.538526	0.468745	-0.110817
H136	H	0.566401	0.263589	0.352352
H137	H	0.306199	0.768426	-0.078335
H138	H	0.196232	1.003952	-0.078335
C139	C	1.090533	0.254973	0.349983
H140	H	1.085897	0.281695	0.293163
H141	H	1.115728	0.264914	0.375683
H142	H	1.115720	0.197747	0.375696
C143	C	0.332900	1.012592	0.090689
H144	H	0.287150	1.053043	0.084503
H145	H	0.358080	0.969082	0.147498
H146	H	0.358094	1.036228	0.069358
H147	H	0.633742	0.208642	0.494651
C148	C	0.555800	0.382186	0.201984
H149	H	0.533702	0.355442	0.207382
H150	H	0.520675	0.439409	0.172670
H151	H	0.587843	0.372235	0.172682
C152	C	0.743984	0.271964	0.128229
H153	H	0.775241	0.213975	0.164604
H154	H	0.769914	0.293425	0.103147
H155	H	0.722413	0.293432	0.158395
H156	H	0.961309	0.373566	0.224350
H157	H	0.728989	-0.091277	0.110785
C158	C	0.716751	0.467641	-0.354340
H159	H	0.696684	0.440218	-0.353775
H160	H	0.764046	0.439825	-0.354197
H161	H	0.716788	0.468249	-0.306843
C162	C	0.743988	0.144683	0.128222
H163	H	0.775252	0.140158	0.164587
H164	H	0.722427	0.118854	0.158388
H165	H	0.769919	0.118856	0.103129
H166	H	1.058937	0.208649	0.494584
C167	C	0.711682	0.382250	0.383319
H168	H	0.733773	0.355535	0.440136
H169	H	0.746811	0.372317	0.357610
H170	H	0.679634	0.439476	0.357604
H171	H	0.936620	0.263611	0.508998
C172	C	1.076226	0.191276	-0.000079
H173	H	1.117365	0.177563	0.031816
H174	H	1.076218	0.143993	0.023035
H175	H	1.076226	0.211148	-0.055102
C176	C	0.633820	1.076173	-0.514782
H177	H	0.606406	1.089883	-0.562643
H178	H	0.613954	1.123460	-0.514777
H179	H	0.681117	1.056292	-0.514778
H180	H	0.538530	0.099156	-0.110802
C181	C	0.573585	0.550690	-0.500841
H182	H	0.601188	0.495599	-0.453443
H183	H	0.526365	0.577696	-0.500512
H184	H	0.573423	0.551449	-0.549133
C185	C	0.304236	0.885307	-0.090678
H186	H	0.255396	0.912038	-0.116381
H187	H	0.326336	0.895228	-0.131547
H188	H	0.326328	0.828083	-0.053398
C189	C	0.523544	-0.004481	-0.128252
H190	H	0.531061	-0.052438	-0.119508
H191	H	0.478232	0.027023	-0.125718
H192	H	0.525727	0.027012	-0.180974
C193	C	0.191298	1.076246	0.000020
H194	H	0.205024	1.089945	0.031930
H195	H	0.163876	1.123538	-0.054991
H196	H	0.163876	1.056379	0.023151
C197	C	0.963283	0.382189	0.090650
H198	H	0.917534	0.422632	0.084475
H199	H	0.988472	0.338675	0.147456
H200	H	0.988470	0.405836	0.069314
C201	C	0.934623	0.254925	-0.090743
H202	H	0.980372	0.214494	-0.084581
H203	H	0.909439	0.231279	-0.069408
H204	H	0.909431	0.298442	-0.147554
H205	H	0.510307	0.705243	-0.499500
H206	H	0.562111	0.776934	-0.625292
H207	H	0.685616	0.705248	-0.499386
H208	H	0.440871	0.499069	0.078319
H209	H	0.757140	0.562196	-0.500578
C210	C	0.304273	0.885276	-0.201966
H211	H	0.350026	0.844832	-0.161103
H212	H	0.279093	0.928791	-0.195779
H213	H	0.279082	0.861631	-0.195782
C214	C	0.332851	1.012563	-0.531440
H215	H	0.381684	0.985841	-0.526079
H216	H	0.310738	1.002625	-0.560734
H217	H	0.310750	1.069789	-0.560742
C218	C	0.460147	0.885280	-0.383382
H219	H	0.455509	0.912010	-0.440203
H220	H	0.485350	0.895206	-0.357672
H221	H	0.485326	0.828056	-0.357681
C222	C	0.807362	0.382198	-0.090721
H223	H	0.811990	0.355473	-0.116450
H224	H	0.782167	0.372266	-0.053454
H225	H	0.782179	0.439423	-0.131584
H226	H	0.728994	-0.201255	0.110799
H227	H	1.071291	0.263569	0.078275
H228	H	0.701146	1.003869	-0.352303
H229	H	0.701119	0.893938	-0.224398
H230	H	0.566465	1.003892	-0.509039
H231	H	0.566434	0.893944	-0.381120
C232	C	0.332842	0.477868	0.090654
H233	H	0.287084	0.488503	0.084469
H234	H	0.358027	0.447368	0.069324
H235	H	0.358021	0.447367	0.147470
C236	C	0.523533	0.365112	-0.128264
H237	H	0.492267	0.423101	-0.164628
H238	H	0.545094	0.343647	-0.158431
H239	H	0.497605	0.343648	-0.103169
C240	C	0.807374	0.382211	0.383347
H241	H	0.772241	0.422647	0.330124
H242	H	0.802068	0.338690	0.412654
H243	H	0.802060	0.405862	0.412649
C244	C	0.711695	0.254986	0.531402
H245	H	0.733808	0.281713	0.526005
H246	H	0.679664	0.264927	0.560715
H247	H	0.746819	0.197760	0.560705
H248	H	0.196253	1.003886	-0.352281
H249	H	0.208586	1.058885	-0.494615
H250	H	0.440895	0.893964	0.078347
H251	H	0.196233	0.768419	-0.078346
H252	H	-0.038678	0.499077	0.078317
C253	C	0.090553	0.477866	0.090658
H254	H	0.085925	0.433658	0.116382
H255	H	0.115751	0.474769	0.053392
H256	H	0.115733	0.474792	0.131524
H257	H	-0.173353	0.768428	-0.078370
H258	H	-0.063386	0.768429	-0.078366
