data_functionalizedCrystal
_audit_creation_method	'MofGen! by Chris Wilmer'
_symmetry_space_group_name_H-M	'P1'
_symmetry_Int_Tables_number	1
_symmetry_cell_setting	triclinic
loop_
_symmetry_equiv_pos_as_xyz
  x,y,z
_cell_length_a	15.944493
_cell_length_b	26.809956
_cell_length_c	15.944545
_cell_angle_alpha	90.002241
_cell_angle_beta	96.514392
_cell_angle_gamma	90.008262
loop_
_atom_site_label
_atom_site_type_symbol
_atom_site_fract_x
_atom_site_fract_y
_atom_site_fract_z
O1	O	1.114559	0.041475	-0.108089
O2	O	1.614559	0.541475	0.391911
O3	O	0.870002	0.041478	-0.121496
O4	O	1.370002	0.541478	0.378504
O5	O	0.998961	0.041471	0.007484
O6	O	1.498961	0.541471	0.507484
O7	O	0.985599	0.041483	-0.237069
O8	O	1.485599	0.541483	0.262931
O9	O	0.998937	-0.041489	0.007465
O10	O	1.498937	0.458511	0.507465
O11	O	0.869978	-0.041481	-0.121515
O12	O	1.369978	0.458519	0.378485
O13	O	1.114534	-0.041484	-0.108108
O14	O	1.614534	0.458516	0.391892
Zn15	Zn	0.992252	-0.054654	-0.114815
Zn16	Zn	1.492252	0.445346	0.385185
Zn17	Zn	0.992284	0.054648	-0.114789
Zn18	Zn	1.492284	0.554648	0.385211
O19	O	0.985575	-0.041477	-0.237088
O20	O	1.485575	0.458523	0.262912
C21	C	0.838695	-0.000001	-0.120958
C22	C	1.338695	0.499999	0.379042
C23	C	0.745447	-0.000000	-0.119315
C24	C	1.245447	0.500000	0.380685
N25	N	0.992236	-0.129250	-0.114832
N26	N	1.492236	0.370750	0.385168
C27	C	0.509685	0.000004	-0.195235
C28	C	1.009685	0.500004	0.304765
C29	C	0.459116	-0.040904	-0.154304
C30	C	0.959116	0.459096	0.345696
C31	C	0.574726	-0.000002	-0.116271
C32	C	1.074726	0.499998	0.383729
C33	C	0.459144	0.040888	-0.154266
C34	C	0.959144	0.540888	0.345734
C35	C	0.409816	-0.000000	-0.113336
C36	C	0.909816	0.500000	0.386664
C37	C	0.525384	-0.040943	-0.075361
C38	C	1.025384	0.459057	0.424639
C39	C	0.525416	0.040885	-0.075334
C40	C	1.025416	0.540885	0.424666
C41	C	0.474880	-0.000032	-0.034345
C42	C	0.974880	0.499968	0.465655
C43	C	0.669725	-0.000003	-0.117963
C44	C	1.169725	0.499997	0.382037
C45	C	0.314819	-0.000003	-0.111637
C46	C	0.814819	0.499997	0.388363
C47	C	1.049380	-0.473879	-0.057691
C48	C	1.549380	0.026121	0.442309
C49	C	1.049400	-0.682757	-0.057678
C50	C	1.549400	-0.182757	0.442322
O51	O	1.097952	-0.709764	-0.009099
O52	O	1.597952	-0.209764	0.490901
N53	N	0.992289	-0.708877	-0.114771
N54	N	1.492289	-0.208877	0.385229
C55	C	0.935165	-0.682775	-0.171867
C56	C	1.435165	-0.182775	0.328133
O57	O	0.886583	-0.709784	-0.220421
O58	O	1.386583	-0.209784	0.279579
C59	C	0.935142	-0.473898	-0.171875
C60	C	1.435142	0.026102	0.328125
C61	C	0.992262	-0.447781	-0.114784
C62	C	1.492262	0.052219	0.385216
C63	C	1.106496	-0.447762	-0.000604
C64	C	1.606496	0.052238	0.499396
C65	C	1.106493	-0.395546	-0.000611
C66	C	1.606493	0.104454	0.499389
C67	C	1.049375	-0.369447	-0.057704
C68	C	1.549375	0.130553	0.442296
C69	C	0.992260	-0.395564	-0.114791
C70	C	1.492260	0.104436	0.385209
C71	C	0.878014	-0.447796	-0.228966
C72	C	1.378014	0.052204	0.271034
C73	C	0.878012	-0.395574	-0.228962
C74	C	1.378012	0.104426	0.271038
C75	C	0.935133	-0.369456	-0.171871
C76	C	1.435133	0.130544	0.328129
C77	C	0.935139	-0.317249	-0.171891
C78	C	1.435139	0.182751	0.328109
N79	N	0.992251	-0.291129	-0.114799
N80	N	1.492251	0.208871	0.385201
C81	C	1.049369	-0.317228	-0.057705
C82	C	1.549369	0.182772	0.442295
C83	C	0.935182	-0.792438	-0.171860
C84	C	1.435182	-0.292438	0.328140
C85	C	0.935189	-0.844657	-0.171859
C86	C	1.435189	-0.344657	0.328141
C87	C	1.049423	-0.844636	-0.057669
C88	C	1.549423	-0.344636	0.442331
C89	C	1.049420	-0.792416	-0.057674
C90	C	1.549420	-0.292416	0.442326
C91	C	0.992293	-0.766318	-0.114767
C92	C	1.492293	-0.266318	0.385233
C93	C	1.049359	-0.207570	-0.057724
C94	C	1.549359	0.292430	0.442276
C95	C	1.049354	-0.155349	-0.057739
C96	C	1.549354	0.344651	0.442261
C97	C	0.935117	-0.155375	-0.171925
C98	C	1.435117	0.344625	0.328075
C99	C	0.935125	-0.207591	-0.171914
C100	C	1.435125	0.292409	0.328086
C101	C	0.992249	-0.233687	-0.114807
C102	C	1.492249	0.266313	0.385193
O103	O	0.886607	-0.290210	-0.220438
O104	O	1.386607	0.209790	0.279562
O105	O	1.097931	-0.290209	-0.009145
O106	O	1.597931	0.209791	0.490855
C107	C	1.049383	-0.526096	-0.057684
C108	C	1.549383	-0.026096	0.442316
C109	C	0.992267	-0.552213	-0.114771
C110	C	1.492267	-0.052213	0.385229
C111	C	0.935149	-0.526114	-0.171864
C112	C	1.435149	-0.026114	0.328136
C113	C	0.992274	-0.604432	-0.114770
C114	C	1.492274	-0.104432	0.385230
C115	C	1.049392	-0.630531	-0.057676
C116	C	1.549392	-0.130531	0.442324
C117	C	1.106503	-0.604411	-0.000584
C118	C	1.606503	-0.104411	0.499416
C119	C	1.106500	-0.552195	-0.000590
C120	C	1.606500	-0.052195	0.499410
C121	C	0.878038	-0.552234	-0.228957
C122	C	1.378038	-0.052234	0.271043
C123	C	0.878046	-0.604451	-0.228946
C124	C	1.378046	-0.104451	0.271054
C125	C	0.935164	-0.630550	-0.171852
C126	C	1.435164	-0.130550	0.328148
C127	C	1.145841	-0.000003	-0.108646
C128	C	1.645841	0.499997	0.391354
C129	C	1.239090	-0.000001	-0.110289
C130	C	1.739090	0.499999	0.389711
C131	C	0.998395	-0.000009	0.038768
C132	C	1.498395	0.499991	0.538768
C133	C	0.996735	-0.000011	0.132014
C134	C	1.496735	0.499989	0.632014
N135	N	0.992307	0.129244	-0.114765
N136	N	1.492307	0.629244	0.385235
C137	C	0.986141	0.000005	-0.268373
C138	C	1.486141	0.500005	0.231627
C139	C	0.987801	0.000009	-0.361618
C140	C	1.487801	0.500009	0.138382
C141	C	0.911839	0.000000	0.402630
C142	C	1.411839	0.500000	0.902630
C143	C	0.952781	0.040903	0.352062
C144	C	1.452781	0.540903	0.852062
C145	C	0.990814	0.000003	0.467657
C146	C	1.490814	0.500003	0.967657
C147	C	0.952778	-0.040888	0.352070
C148	C	1.452778	0.459112	0.852070
C149	C	0.993719	-0.000004	0.302744
C150	C	1.493719	0.499996	0.802744
C151	C	1.031735	0.040940	0.418318
C152	C	1.531735	0.540940	0.918318
C153	C	1.031721	-0.040888	0.418329
C154	C	1.531721	0.459112	0.918329
C155	C	1.072721	0.000025	0.367795
C156	C	1.572721	0.500025	0.867795
C157	C	0.989139	0.000008	0.562659
C158	C	1.489139	0.500008	1.062659
C159	C	0.995401	-0.000006	0.207745
C160	C	1.495401	0.499994	0.707745
H161	H	0.525307	-0.000031	-0.263255
H162	H	1.025307	0.499969	0.236745
H163	H	1.065074	0.075559	0.447139
H164	H	1.565074	0.575559	0.947139
H165	H	0.430167	-0.075484	-0.187660
H166	H	0.930167	0.424516	0.312340
Br167	Br	1.186168	0.000060	0.341993
Br168	Br	1.686168	0.500060	0.841993
H169	H	1.095932	-0.865894	-0.011182
H170	H	1.595932	-0.365894	0.488818
H171	H	1.153008	-0.469007	0.045892
H172	H	1.653008	0.030993	0.545892
H173	H	1.065035	-0.075471	0.447278
H174	H	1.565035	0.424529	0.947278
Br175	Br	0.449095	-0.000076	0.079108
Br176	Br	0.949095	0.499924	0.579108
Br177	Br	0.798480	0.000065	0.428699
Br178	Br	1.298480	0.500065	0.928699
H179	H	1.153014	-0.625669	0.045901
H180	H	1.653014	-0.125669	0.545901
H181	H	0.919401	-0.075467	0.323141
H182	H	1.419401	0.424533	0.823141
H183	H	0.888615	-0.134117	-0.218413
H184	H	1.388615	0.365883	0.281587
H185	H	0.554203	-0.075561	-0.042041
H186	H	1.054203	0.424439	0.457959
H187	H	0.554373	0.075467	-0.042003
H188	H	1.054373	0.575467	0.457997
Br189	Br	0.857648	-0.757025	-0.249351
Br190	Br	1.357648	-0.257025	0.250649
H191	H	0.831533	-0.625712	-0.275443
H192	H	1.331533	-0.125712	0.224557
H193	H	0.919438	0.075485	0.323129
H194	H	1.419438	0.575485	0.823129
Br195	Br	0.800513	-0.516821	-0.306447
Br196	Br	1.300513	-0.016821	0.193553
Br197	Br	0.410925	0.098521	-0.209859
Br198	Br	0.910925	0.598521	0.290141
H199	H	0.831490	-0.374327	-0.275453
H200	H	1.331490	0.125673	0.224547
H201	H	1.095872	-0.134086	-0.011249
H202	H	1.595872	0.365914	0.488751
Br203	Br	0.857613	-0.243035	-0.249408
Br204	Br	1.357613	0.256965	0.250592
H205	H	1.095874	-0.228812	-0.011221
H206	H	1.595874	0.271188	0.488779
H207	H	1.095932	-0.771154	-0.011186
H208	H	1.595932	-0.271154	0.488814
Br209	Br	0.857679	-0.880096	-0.249355
Br210	Br	1.357679	-0.380096	0.250645
Br211	Br	1.184012	-0.360106	0.076876
Br212	Br	1.684012	0.139894	0.576876
Br213	Br	1.184026	-0.516757	0.076893
Br214	Br	1.684026	-0.016757	0.576893
H215	H	0.831501	-0.469054	-0.275454
H216	H	1.331501	0.030946	0.224546
