data_functionalizedCrystal
_audit_creation_method	'MofGen! by Chris Wilmer'
_symmetry_space_group_name_H-M	'P1'
_symmetry_Int_Tables_number	1
_symmetry_cell_setting	triclinic
loop_
_symmetry_equiv_pos_as_xyz
  x,y,z
_cell_length_a	16.120484
_cell_length_b	12.759401
_cell_length_c	12.759393
_cell_angle_alpha	89.981433
_cell_angle_beta	92.862621
_cell_angle_gamma	92.924575
loop_
_atom_site_label
_atom_site_type_symbol
_atom_site_fract_x
_atom_site_fract_y
_atom_site_fract_z
Zn1	Zn	-0.331874	1.584958	-0.615180
Zn2	Zn	-0.471312	1.575913	-0.448393
Zn3	Zn	-0.331916	1.409261	-0.439518
Zn4	Zn	-0.471245	1.400310	-0.624026
O5	O	-0.401587	1.492611	-0.531779
O6	O	-0.350382	1.730779	-0.593067
O7	O	-0.452867	1.553767	-0.300197
O8	O	-0.215245	1.440099	-0.455404
O9	O	-0.452826	1.724133	-0.470529
O10	O	-0.215215	1.569183	-0.584462
O11	O	-0.350453	1.431328	-0.293677
O12	O	-0.350387	1.261054	-0.463982
O13	O	-0.452712	1.424844	-0.769871
O14	O	-0.452752	1.254477	-0.599539
O15	O	-0.350317	1.560504	-0.763372
O16	O	-0.587968	1.545088	-0.479107
O17	O	-0.587919	1.416073	-0.608144
C18	C	-0.401568	1.219645	-0.531758
C19	C	-0.401579	1.102867	-0.531775
C20	C	-0.348208	1.051403	-0.461310
C21	C	-0.348228	0.941678	-0.461324
C22	C	-0.454993	0.934890	-0.602279
C23	C	-0.454976	1.044613	-0.602259
C24	C	-0.294811	1.109657	-0.390826
C25	C	-0.241434	1.058193	-0.320356
C26	C	-0.241454	0.948468	-0.320370
C27	C	-0.294850	0.890206	-0.390856
C28	C	-0.618194	1.478656	-0.545571
C29	C	-0.710859	1.472782	-0.551507
C30	C	-0.880520	1.462064	-0.562365
C31	C	-0.921814	1.523346	-0.501211
C32	C	-1.016219	1.517382	-0.507252
C33	C	-0.786106	1.468026	-0.556325
C34	C	-0.184134	1.506649	-0.517956
C35	C	-0.091469	1.512631	-0.512066
C36	C	-0.401607	1.766643	-0.531801
C37	C	-0.401615	1.883419	-0.531810
C38	C	-0.401502	1.492684	-0.805807
C39	C	-0.401466	1.492716	-0.922582
C40	C	-0.348129	1.428991	-0.974054
C41	C	-0.348104	1.429025	-1.083777
C42	C	-0.454755	1.556516	-1.090545
C43	C	-0.454784	1.556476	-0.980825
C44	C	-0.294811	1.365231	-0.915811
C45	C	-0.241469	1.301502	-0.967284
C46	C	-0.241444	1.301535	-1.077006
C47	C	-0.294761	1.365297	-1.135257
C48	C	-0.401611	1.492602	-0.258813
C49	C	-0.401413	1.492789	-0.142025
H50	H	-0.498435	1.086516	-0.659639
C51	C	-0.927868	1.386266	-0.638389
C52	C	-0.906699	1.410401	-0.741038
C53	C	-0.950319	1.340607	-0.811096
H54	H	-0.913746	1.316521	-0.622199
H55	H	-0.985946	1.392311	-0.632484
H56	H	-0.848633	1.404346	-0.746940
H57	H	-0.920823	1.480134	-0.757261
H58	H	-1.008397	1.346652	-0.805190
H59	H	-0.936194	1.270866	-0.794896
H60	H	-0.935968	1.356979	-0.880751
C61	C	-0.183417	0.892786	-0.243815
C62	C	-0.136640	0.967292	-0.182106
C63	C	-0.083155	0.916040	-0.111583
H64	H	-0.215177	0.847919	-0.199904
H65	H	-0.147093	0.852356	-0.281753
H66	H	-0.172959	1.007704	-0.144171
H67	H	-0.104863	1.012162	-0.225988
H68	H	-0.046832	0.875610	-0.149521
H69	H	-0.114922	0.871175	-0.067680
H70	H	-0.051406	0.966585	-0.069712
C71	C	-0.294723	0.771084	-0.390743
C72	C	-0.236542	0.738480	-0.313958
C73	C	-0.236391	0.628756	-0.313836
H74	H	-0.348461	0.742675	-0.375851
H75	H	-0.280332	0.747179	-0.457640
H76	H	-0.250938	0.762374	-0.247076
H77	H	-0.182796	0.766860	-0.328832
H78	H	-0.222000	0.604851	-0.380733
H79	H	-0.290132	0.600358	-0.298946
H80	H	-0.196911	0.606620	-0.261745
H81	H	-0.294824	1.365198	-0.826469
H82	H	-0.198065	1.249583	-0.919850
C83	C	-0.183445	1.232310	-1.132698
C84	C	-0.136747	1.176486	-1.058202
C85	C	-0.083297	1.112718	-1.109462
H86	H	-0.215226	1.184398	-1.177520
H87	H	-0.147070	1.274842	-1.173170
H88	H	-0.173118	1.133958	-1.017747
H89	H	-0.104949	1.224371	-1.013375
H90	H	-0.046922	1.155250	-1.149934
H91	H	-0.115085	1.064812	-1.154283
H92	H	-0.051601	1.074841	-1.058924
C93	C	-0.512865	0.871455	-0.678763
C94	C	-0.501439	0.764350	-0.663719
C95	C	-0.554727	0.705885	-0.734170
H96	H	-0.568899	0.885701	-0.666905
H97	H	-0.500717	0.890193	-0.748625
H98	H	-0.513592	0.745620	-0.593874
H99	H	-0.445416	0.750072	-0.675585
H100	H	-0.542579	0.724622	-0.804032
H101	H	-0.610757	0.720140	-0.722306
H102	H	-0.546976	0.633208	-0.723979
C103	C	-0.294585	1.365224	-1.254376
C104	C	-0.236451	1.295784	-1.286990
C105	C	-0.236255	1.295703	-1.396711
H106	H	-0.348328	1.343557	-1.282738
H107	H	-0.280126	1.433946	-1.278319
H108	H	-0.250915	1.227076	-1.263058
H109	H	-0.182700	1.317435	-1.258656
H110	H	-0.221796	1.364425	-1.420654
H111	H	-0.290001	1.274037	-1.425063
H112	H	-0.196807	1.248596	-1.418853
H113	H	-0.498161	1.608431	-1.137981
H114	H	-0.498204	1.608381	-0.938914
H115	H	-0.294787	1.199001	-0.390809
H116	H	-0.886266	1.580289	-0.444317
H117	H	-0.197966	1.105636	-0.262964
