data_functionalizedCrystal
_audit_creation_method	'MofGen! by Chris Wilmer'
_symmetry_space_group_name_H-M	'P1'
_symmetry_Int_Tables_number	1
_symmetry_cell_setting	triclinic
loop_
_symmetry_equiv_pos_as_xyz
  x,y,z
_cell_length_a	19.121112
_cell_length_b	19.121449
_cell_length_c	10.686551
_cell_angle_alpha	97.024737
_cell_angle_beta	97.012010
_cell_angle_gamma	85.039809
loop_
_atom_site_label
_atom_site_type_symbol
_atom_site_fract_x
_atom_site_fract_y
_atom_site_fract_z
Zn1	Zn	1.119474	-0.294223	0.776625
Zn2	Zn	1.115339	-0.420956	0.555584
Zn3	Zn	0.992747	-0.298285	0.555623
Zn4	Zn	1.006076	-0.407536	0.759196
O5	O	1.058409	-0.355250	0.661757
O6	O	1.217688	-0.314950	0.754581
O7	O	1.091768	-0.412000	0.377887
O8	O	1.005710	-0.198986	0.592250
O9	O	1.214650	-0.408061	0.592184
O10	O	1.098816	-0.196002	0.754619
O11	O	1.001701	-0.321874	0.377916
O12	O	0.895753	-0.308862	0.575350
O13	O	1.028427	-0.385188	0.939211
O14	O	0.905545	-0.389128	0.724914
O15	O	1.111740	-0.301937	0.952015
O16	O	1.104692	-0.517936	0.575284
O17	O	1.024417	-0.508076	0.724877
C18	C	0.875041	-0.347980	0.648246
C19	C	0.796597	-0.344885	0.642494
C20	C	0.352678	-0.325250	0.606069
C21	C	0.426385	-0.328161	0.611480
C22	C	0.468350	-0.371487	0.691918
C23	C	0.436605	-0.411898	0.766960
C24	C	0.362900	-0.408982	0.761555
C25	C	0.691148	-0.382381	0.712132
C26	C	0.764858	-0.385295	0.717528
C27	C	0.754632	-0.301557	0.562049
C28	C	0.680926	-0.298648	0.556646
C29	C	0.649188	-0.339057	0.631692
C30	C	0.543690	-0.374465	0.697447
C31	C	0.573849	-0.336074	0.626169
C32	C	1.065573	-0.538613	0.648214
C33	C	1.068704	-0.617057	0.642467
C34	C	1.028346	-0.648804	0.717583
C35	C	1.031291	-0.722512	0.712178
C36	C	1.074598	-0.764470	0.631664
C37	C	1.114957	-0.732718	0.556540
C38	C	1.112008	-0.659013	0.561938
C39	C	1.085591	-0.987269	0.611464
C40	C	1.088539	-1.060980	0.606074
C41	C	1.004872	-1.050768	0.761711
C42	C	1.001930	-0.977061	0.767108
C43	C	1.042286	-0.945316	0.691979
C44	C	1.077610	-0.839811	0.626140
C45	C	1.039269	-0.869977	0.697497
C46	C	1.242493	-0.362549	0.675322
C47	C	1.320938	-0.365660	0.681103
C48	C	1.072031	-0.341613	0.992978
C49	C	1.077836	-0.335801	1.134124
C50	C	1.051237	-0.171171	0.675383
C51	C	1.048181	-0.092727	0.681189
C52	C	1.044878	-0.368785	0.331832
C53	C	1.039202	-0.374403	0.190711
H54	H	0.780481	-0.268658	0.500952
Br55	Br	0.980494	-0.813032	0.806758
H56	H	1.150214	-0.766887	0.490977
H57	H	1.115359	-0.298308	1.193665
H58	H	0.665316	-0.415287	0.773235
H59	H	0.470779	-0.447171	0.832460
Br60	Br	0.319824	-0.463821	0.863400
Br61	Br	0.295732	-0.266454	0.496886
Br62	Br	1.166774	-0.615927	0.459979
Br63	Br	0.469458	-0.273308	0.509658
H64	H	0.646762	-0.263373	0.491135
Br65	Br	1.147318	-1.117924	0.496800
H66	H	0.799025	-0.420576	0.783037
Br67	Br	0.600648	-0.433276	0.806588
H68	H	0.539678	-0.300796	0.560682
Br69	Br	0.950105	-1.093854	0.863664
H70	H	1.118452	-0.961428	0.550293
H71	H	1.112871	-0.873982	0.560586
Br72	Br	0.969576	-0.591867	0.826868
Br73	Br	0.976672	-0.436904	1.091488
Br74	Br	0.943160	-0.920122	0.876391
H75	H	0.998421	-0.748356	0.773333
