data_functionalizedCrystal
_audit_creation_method	'MofGen! by Chris Wilmer'
_symmetry_space_group_name_H-M	'P1'
_symmetry_Int_Tables_number	1
_symmetry_cell_setting	triclinic
loop_
_symmetry_equiv_pos_as_xyz
  x,y,z
_cell_length_a	15.944551
_cell_length_b	19.288865
_cell_length_c	18.366186
_cell_angle_alpha	90.011479
_cell_angle_beta	89.995445
_cell_angle_gamma	96.682507
loop_
_atom_site_label
_atom_site_type_symbol
_atom_site_fract_x
_atom_site_fract_y
_atom_site_fract_z
O1	O	1.114185	-0.089583	-0.060482
O2	O	1.614185	0.410417	0.439518
O3	O	0.869592	-0.100628	-0.060501
O4	O	1.369592	0.399372	0.439499
O5	O	0.998956	0.006006	-0.060477
O6	O	1.498956	0.506006	0.439523
O7	O	0.984821	-0.196217	-0.060507
O8	O	1.484821	0.303783	0.439493
O9	O	0.998934	0.006012	0.060622
O10	O	1.498934	0.506012	0.560622
O11	O	0.869570	-0.100622	0.060598
O12	O	1.369570	0.399378	0.560598
O13	O	1.114163	-0.089578	0.060617
O14	O	1.614163	0.410422	0.560617
Zn15	Zn	0.991863	-0.095099	0.079835
Zn16	Zn	1.491863	0.404901	0.579835
Zn17	Zn	0.991892	-0.095106	-0.079719
Zn18	Zn	1.491892	0.404894	0.420281
O19	O	0.984799	-0.196212	0.060593
O20	O	1.484799	0.303788	0.560593
C21	C	0.838289	-0.100167	0.000046
C22	C	1.338289	0.399833	0.500046
C23	C	0.745048	-0.098792	0.000039
C24	C	1.245048	0.401208	0.500039
C25	C	0.998490	0.031887	0.000075
C26	C	1.498490	0.531887	0.500075
C27	C	0.997125	0.108994	0.000081
C28	C	1.497125	0.608994	0.500081
N29	N	0.991849	-0.095094	0.188726
N30	N	1.491849	0.404906	0.688726
C31	C	0.530459	-0.029410	0.000064
C32	C	1.030459	0.470590	0.500064
C33	C	0.469326	-0.061631	-0.059649
C34	C	0.969326	0.438369	0.440351
C35	C	0.574332	-0.096305	0.000048
C36	C	1.074332	0.403695	0.500048
C37	C	0.469326	-0.061642	0.059745
C38	C	0.969326	0.438358	0.559745
C39	C	0.409429	-0.093898	0.000060
C40	C	0.909429	0.406102	0.500060
C41	C	0.514427	-0.128545	-0.059714
C42	C	1.014427	0.371455	0.440286
C43	C	0.514434	-0.128546	0.059734
C44	C	1.014434	0.371454	0.559734
C45	C	0.453318	-0.160816	0.000006
C46	C	0.953318	0.339184	0.500006
C47	C	0.669329	-0.097690	0.000041
C48	C	1.169329	0.402310	0.500041
C49	C	0.314433	-0.092519	0.000062
C50	C	0.814433	0.407481	0.500062
C51	C	1.145466	-0.090039	0.000068
C52	C	1.645466	0.409961	0.500068
C53	C	1.238706	-0.091414	0.000070
C54	C	1.738706	0.408586	0.500070
C55	C	0.985265	-0.222092	0.000039
C56	C	1.485265	0.277908	0.500039
C57	C	0.986630	-0.299199	0.000028
C58	C	1.486630	0.200801	0.500028
C59	C	1.073030	0.153490	0.000091
C60	C	1.573030	0.653490	0.500091
C61	C	1.071747	0.225941	0.000079
C62	C	1.571747	0.725941	0.500079
C63	C	0.994555	0.253891	0.000073
C64	C	1.494555	0.753891	0.500073
C65	C	0.918641	0.209385	0.000059
C66	C	1.418641	0.709385	0.500059
C67	C	0.919925	0.136936	0.000063
C68	C	1.419925	0.636936	0.500063
C69	C	0.933866	0.362341	0.042486
C70	C	1.433866	0.862341	0.542486
C71	C	0.932584	0.434788	0.042486
C72	C	1.432584	0.934788	0.542486
C73	C	0.990589	0.477347	0.000056
C74	C	1.490589	0.977347	0.500056
C75	C	1.049890	0.447451	-0.042365
C76	C	1.549890	0.947451	0.457635
C77	C	1.051175	0.375003	-0.042361
C78	C	1.551175	0.875003	0.457639
C79	C	0.993153	0.332449	0.000067
C80	C	1.493153	0.832449	0.500067
C81	C	1.065108	0.600404	0.000052
C82	C	1.565108	1.100404	0.500052
C83	C	1.063822	0.672855	0.000036
C84	C	1.563822	1.172855	0.500036
C85	C	0.910714	0.656298	0.000023
C86	C	1.410714	1.156298	0.500023
C87	C	0.912002	0.583848	0.000032
C88	C	1.412002	1.083848	0.500032
C89	C	0.989201	0.555906	0.000050
C90	C	1.489201	1.055906	0.500050
N91	N	0.991912	-0.095106	-0.188610
N92	N	1.491912	0.404894	0.311390
C93	C	1.049150	-0.047900	0.226837
C94	C	1.549150	0.452100	0.726837
C95	C	1.049156	-0.047897	0.303065
C96	C	1.549156	0.452103	0.803065
C97	C	0.991868	-0.095100	0.341178
C98	C	1.491868	0.404900	0.841178
C99	C	0.934556	-0.142298	0.303058
C100	C	1.434556	0.357702	0.803058
C101	C	0.934547	-0.142295	0.226832
C102	C	1.434547	0.357705	0.726832
C103	C	0.980624	-0.158358	0.461929
C104	C	1.480624	0.341642	0.961929
C105	C	0.980639	-0.158362	0.538154
C106	C	1.480639	0.341638	1.038154
C107	C	0.991892	-0.095109	0.576286
C108	C	1.491892	0.404891	1.076286
C109	C	1.003148	-0.031849	0.538184
C110	C	1.503148	0.468151	1.038184
C111	C	1.003138	-0.031846	0.461957
C112	C	1.503138	0.468154	0.961957
C113	C	0.991871	-0.095108	0.423833
C114	C	1.491871	0.404892	0.923833
C115	C	1.049202	-0.047907	0.697052
C116	C	1.549202	0.452093	1.197052
C117	C	1.049201	-0.047903	0.773281
C118	C	1.549201	0.452097	1.273281
C119	C	0.934606	-0.142310	0.773273
C120	C	1.434606	0.357690	1.273273
C121	C	0.934603	-0.142308	0.697045
C122	C	1.434603	0.357692	1.197045
C123	C	0.991905	-0.095107	0.658939
C124	C	1.491905	0.404893	1.158939
H125	H	0.564006	0.026108	-0.000002
H126	H	1.064006	0.526108	0.499998
O127	O	1.156295	0.123357	0.000090
O128	O	1.656295	0.623357	0.500090
H129	H	1.192755	0.141246	0.049446
H130	H	1.692755	0.641246	0.549446
H131	H	0.534315	-0.156820	-0.110252
H132	H	1.034315	0.343180	0.389748
O133	O	0.830130	0.535853	0.000040
O134	O	1.330130	1.035853	0.500040
H135	H	0.793176	0.545780	-0.049317
H136	H	1.293176	1.045780	0.450683
O137	O	0.968510	-0.226592	0.579240
O138	O	1.468510	0.273408	1.079240
H139	H	0.911361	-0.228160	0.613987
H140	H	1.411361	0.271840	1.113987
H141	H	0.419945	-0.216391	-0.000035
H142	H	0.919945	0.283609	0.499965
H143	H	1.099458	0.350664	-0.076903
H144	H	1.599458	0.850664	0.423097
H145	H	0.884294	0.459123	0.077024
H146	H	1.384294	0.959123	0.577024
O147	O	0.540967	-0.165988	0.126592
O148	O	1.040967	0.334012	0.626592
H149	H	0.523124	-0.138107	0.176091
H150	H	1.023124	0.361893	0.676091
O151	O	1.110969	0.003000	0.344185
O152	O	1.610969	0.503000	0.844185
H153	H	1.150817	0.035817	0.304881
H154	H	1.650817	0.535817	0.804881
O155	O	0.871304	0.316439	0.088257
O156	O	1.371304	0.816439	0.588257
H157	H	0.829864	0.349398	0.117763
H158	H	1.329864	0.849398	0.617763
H159	H	0.449340	-0.033333	0.110226
H160	H	0.949340	0.466667	0.610226
O161	O	1.111004	0.003003	0.814394
O162	O	1.611004	0.503003	1.314394
H163	H	1.151704	-0.026265	0.849116
H164	H	1.651704	0.473735	1.349116
O165	O	0.838053	0.088938	0.000057
O166	O	1.338053	0.588938	0.500057
H167	H	0.834973	0.055545	0.049416
H168	H	1.334973	0.555545	0.549416
H169	H	0.887958	-0.180741	0.804305
H170	H	1.387958	0.319259	1.304305
O171	O	0.827455	0.686436	0.000014
O172	O	1.327455	1.186436	0.500014
H173	H	0.790984	0.668569	0.049368
H174	H	1.290984	1.168569	0.549368
H175	H	0.887946	-0.180741	0.666013
H176	H	1.387946	0.319259	1.166013
H177	H	0.449334	-0.033339	-0.110125
H178	H	0.949334	0.466661	0.389875
O179	O	0.872779	-0.193215	0.344169
O180	O	1.372779	0.306785	0.844169
H181	H	0.883275	-0.247365	0.329513
H182	H	1.383275	0.252635	0.829513
O183	O	0.835381	0.239525	0.000060
O184	O	1.335381	0.739525	0.500060
H185	H	0.847239	0.297380	0.000069
H186	H	1.347239	0.797380	0.500069
O187	O	1.110991	0.003007	0.655943
O188	O	1.610991	0.503007	1.155943
H189	H	1.150828	0.035835	0.695255
H190	H	1.650828	0.535835	1.195255
H191	H	0.887885	-0.180727	0.195801
H192	H	1.387885	0.319273	0.695801
O193	O	0.968492	-0.226585	0.420802
O194	O	1.468492	0.273415	0.920802
H195	H	0.960683	-0.270572	0.460100
H196	H	1.460683	0.229428	0.960100
H197	H	1.133560	0.262177	0.000084
H198	H	1.633560	0.762177	0.500084
O199	O	1.112456	0.493341	-0.088140
O200	O	1.612456	0.993341	0.411860
H201	H	1.101595	0.548741	-0.081027
H202	H	1.601595	1.048741	0.418973
H203	H	1.095807	-0.009465	0.195813
H204	H	1.595807	0.490535	0.695813
H205	H	1.125636	0.709084	0.000039
H206	H	1.625636	1.209084	0.500039
O207	O	1.148367	0.570256	0.000057
O208	O	1.648367	1.070256	0.500057
H209	H	1.200936	0.613373	0.000047
H210	H	1.700936	1.113373	0.500047
H211	H	1.012301	0.019662	0.430938
H212	H	1.512301	0.519662	0.930938
O213	O	1.015279	0.036383	0.579298
O214	O	1.515279	0.536383	1.079298
H215	H	1.013383	0.025757	0.638704
H216	H	1.513383	0.525757	1.138704
