data_functionalizedCrystal
_audit_creation_method	'MofGen! by Chris Wilmer'
_symmetry_space_group_name_H-M	'P1'
_symmetry_Int_Tables_number	1
_symmetry_cell_setting	triclinic
loop_
_symmetry_equiv_pos_as_xyz
  x,y,z
_cell_length_a	12.759395
_cell_length_b	29.839131
_cell_length_c	12.759387
_cell_angle_alpha	89.955090
_cell_angle_beta	89.980569
_cell_angle_gamma	90.035074
loop_
_atom_site_label
_atom_site_type_symbol
_atom_site_fract_x
_atom_site_fract_y
_atom_site_fract_z
Zn1	Zn	1.606119	-0.178832	-0.593872
Zn2	Zn	1.605946	-0.253969	-0.418149
Zn3	Zn	1.430417	-0.178854	-0.418212
Zn4	Zn	1.430346	-0.253935	-0.593791
O5	O	1.518207	-0.216397	-0.506006
O6	O	1.753117	-0.188804	-0.570569
O7	O	1.582619	-0.244029	-0.271136
O8	O	1.453826	-0.115984	-0.441574
O9	O	1.752990	-0.244007	-0.441466
O10	O	1.582913	-0.115967	-0.570630
O11	O	1.453659	-0.188842	-0.271182
O12	O	1.283387	-0.188809	-0.441496
O13	O	1.453706	-0.243949	-0.740823
O14	O	1.283335	-0.243970	-0.570493
O15	O	1.582845	-0.188771	-0.740882
O16	O	1.582551	-0.316832	-0.441388
O17	O	1.453538	-0.316807	-0.570432
C18	C	1.245240	-0.216388	-0.505993
C19	C	1.128463	-0.216395	-0.506012
C20	C	1.128575	-0.159005	-0.640664
C21	C	1.073771	-0.130315	-0.707999
C22	C	0.964049	-0.130323	-0.708012
C23	C	0.909130	-0.159023	-0.640681
C24	C	0.963934	-0.187713	-0.573347
C25	C	1.073658	-0.187703	-0.573343
C26	C	0.963822	-0.245100	-0.438691
C27	C	1.073543	-0.245095	-0.438682
C28	C	0.908902	-0.273800	-0.371360
C29	C	0.963707	-0.302493	-0.304030
C30	C	1.073435	-0.302484	-0.304020
C31	C	1.128348	-0.273785	-0.371347
C32	C	1.518047	-0.333120	-0.505917
C33	C	1.518074	-0.383054	-0.505915
C34	C	1.585408	-0.692654	-0.573302
C35	C	1.585522	-0.880327	-0.573365
O36	O	1.642615	-0.904555	-0.630594
N37	N	1.518386	-0.903839	-0.506123
C38	C	1.451211	-0.880430	-0.438865
O39	O	1.394102	-0.904735	-0.381680
C40	C	1.451092	-0.692758	-0.438808
C41	C	1.518241	-0.669249	-0.506047
C42	C	1.652551	-0.669145	-0.640536
C43	C	1.652526	-0.622229	-0.640515
C44	C	1.585358	-0.598823	-0.573261
C45	C	1.518216	-0.622333	-0.506026
C46	C	1.383913	-0.669350	-0.371556
C47	C	1.383887	-0.622429	-0.371550
C48	C	1.451036	-0.598919	-0.438789
C49	C	1.451023	-0.552012	-0.438751
N50	N	1.518160	-0.528500	-0.505993
C51	C	1.585327	-0.551906	-0.573248
C52	C	1.451279	-0.978961	-0.438898
C53	C	1.451310	-1.025879	-0.438911
C54	C	1.585620	-1.025773	-0.573412
C55	C	1.585594	-0.978854	-0.573393
C56	C	1.518416	-0.955449	-0.506140
C57	C	1.585270	-0.453380	-0.573199
C58	C	1.585242	-0.406460	-0.573169
C59	C	1.450928	-0.406571	-0.438672
C60	C	1.450959	-0.453486	-0.438698
C61	C	1.518134	-0.476889	-0.505969
O62	O	1.393952	-0.527755	-0.381560
O63	O	1.642411	-0.527593	-0.630440
C64	C	1.585433	-0.739570	-0.573322
C65	C	1.518291	-0.763079	-0.506088
C66	C	1.451124	-0.739674	-0.438833
C67	C	1.518322	-0.809997	-0.506100
C68	C	1.585489	-0.833403	-0.573355
C69	C	1.652626	-0.809891	-0.640597
C70	C	1.652601	-0.762976	-0.640577
C71	C	1.383987	-0.763186	-0.371591
C72	C	1.384018	-0.810101	-0.371616
C73	C	1.451186	-0.833507	-0.438871
C74	C	1.792240	-0.216407	-0.506020
C75	C	1.909017	-0.216411	-0.506025
C76	C	1.518287	-0.216353	-0.780040
C77	C	1.518320	-0.216335	-0.896816
C78	C	1.518397	-0.099219	-0.506118
C79	C	1.518477	-0.049285	-0.506166
C80	C	1.652802	-0.158881	-0.896898
C81	C	1.720058	-0.130148	-0.951799
C82	C	1.720083	-0.130132	-1.061521
C83	C	1.652844	-0.158851	-1.116344
C84	C	1.585588	-0.187584	-1.061442
C85	C	1.585572	-0.187598	-0.951718
C86	C	1.451103	-0.245034	-1.061361
C87	C	1.451081	-0.245054	-0.951639
C88	C	1.383863	-0.273754	-1.116184
C89	C	1.316611	-0.302490	-1.061282
C90	C	1.316590	-0.302505	-0.951554
C91	C	1.383825	-0.273787	-0.896738
C92	C	1.518189	-0.216409	-0.233039
C93	C	1.518358	-0.216301	-0.116262
H94	H	1.639926	-0.387320	-0.627923
C95	C	0.840719	-0.069912	-0.722910
C96	C	0.903804	-0.098787	-0.782026
H97	H	0.803533	-0.050442	-0.768605
H98	H	0.792317	-0.087006	-0.682826
H99	H	0.883531	-0.052700	-0.677219
H100	H	0.860991	-0.116002	-0.827711
H101	H	0.952212	-0.081691	-0.822127
H102	H	1.118050	-0.325845	-0.249185
H103	H	1.217917	-0.158994	-0.640656
C104	C	0.929826	-0.324282	-0.126023
C105	C	0.903339	-0.334036	-0.230026
H106	H	0.892549	-0.343755	-0.080339
H107	H	1.003006	-0.328388	-0.116390
H108	H	0.911870	-0.294089	-0.110805
H109	H	0.921303	-0.364229	-0.245247
H110	H	0.830143	-0.329934	-0.239663
H111	H	1.707320	-0.828956	-0.695355
C112	C	1.410590	-0.316473	-1.273312
C113	C	1.383888	-0.273738	-1.236791
H114	H	1.410599	-0.316464	-1.347771
H115	H	1.478363	-0.324246	-1.248493
H116	H	1.360905	-0.337690	-1.248453
H117	H	1.433578	-0.252520	-1.261645
H118	H	1.316106	-0.265959	-1.261621
H119	H	1.261810	-0.325899	-0.906859
H120	H	1.217689	-0.273773	-0.371341
C121	C	1.242020	-0.104822	-0.767789
C122	C	1.134140	-0.098771	-0.782010
H123	H	1.279284	-0.085349	-0.813485
H124	H	1.259974	-0.098205	-0.697238
H125	H	1.259967	-0.135016	-0.783018
H126	H	1.116192	-0.068578	-0.766774
H127	H	1.116179	-0.105385	-0.852577
C128	C	1.679466	-0.201646	-0.739682
C129	C	1.652776	-0.158901	-0.776290
H130	H	1.679454	-0.201655	-0.665223
H131	H	1.629798	-0.222855	-0.764474
H132	H	1.747257	-0.209412	-0.764509
H133	H	1.584982	-0.151136	-0.751469
H134	H	1.702446	-0.137685	-0.751487
C135	C	0.751928	-0.147527	-0.540800
C136	C	0.788522	-0.159029	-0.640687
H137	H	0.677470	-0.147528	-0.540807
H138	H	0.776704	-0.168722	-0.491079
H139	H	0.776782	-0.118524	-0.522780
H140	H	0.763675	-0.188034	-0.658704
H141	H	0.763735	-0.137833	-0.690424
H142	H	1.774842	-0.106732	-1.106222
H143	H	1.261865	-0.325868	-1.105927
H144	H	0.819561	-0.273803	-0.371373
C145	C	1.718027	-0.448549	-0.706148
C146	C	1.659107	-0.479100	-0.647146
H147	H	1.763614	-0.464429	-0.751793
H148	H	1.672215	-0.430250	-0.746278
H149	H	1.758224	-0.430254	-0.660384
H150	H	1.618904	-0.497393	-0.692911
H151	H	1.704924	-0.497407	-0.607013
H152	H	1.774801	-0.106765	-0.907150
H153	H	1.383818	-0.273799	-0.807397
H154	H	1.707201	-0.603090	-0.695270
H155	H	1.707246	-0.688197	-0.695309
C156	C	1.718348	-0.983472	-0.706346
C157	C	1.659393	-0.953014	-0.647316
H158	H	1.763903	-0.967521	-0.751991
H159	H	1.758572	-1.001771	-0.660608
H160	H	1.672549	-1.001777	-0.746488
H161	H	1.705192	-0.934712	-0.607169
H162	H	1.619166	-0.934708	-0.693060
H163	H	1.640312	-1.044838	-0.628173
H164	H	1.329339	-0.829239	-0.316852
H165	H	1.396642	-1.045016	-0.384147
H166	H	1.329289	-0.744132	-0.316825
C167	C	1.726092	-0.127544	-1.273563
C168	C	1.652866	-0.158830	-1.236951
H169	H	1.726106	-0.127534	-1.348021
H170	H	1.707966	-0.098560	-1.248768
H171	H	1.793869	-0.135325	-1.248740
H172	H	1.585087	-0.151048	-1.261768
H173	H	1.670985	-0.187820	-1.261757
H174	H	1.329233	-0.688483	-0.316803
C175	C	1.318535	-0.983789	-0.305939
C176	C	1.377441	-0.953238	-0.364954
H177	H	1.272959	-0.967909	-0.260282
H178	H	1.278335	-1.002083	-0.351686
H179	H	1.364363	-1.002088	-0.265811
H180	H	1.331613	-0.934940	-0.405088
H181	H	1.417644	-0.934936	-0.319201
H182	H	1.329179	-0.603375	-0.316785
C183	C	1.318194	-0.448876	-0.305750
C184	C	1.377152	-0.479331	-0.364786
H185	H	1.272618	-0.464830	-0.260131
H186	H	1.363982	-0.430581	-0.265591
H187	H	1.277982	-0.430568	-0.351494
H188	H	1.417370	-0.497637	-0.319043
H189	H	1.331358	-0.497633	-0.404949
H190	H	1.396244	-0.387506	-0.383911
H191	H	1.707279	-0.743837	-0.695329
