data_functionalizedCrystal
_audit_creation_method	'MofGen! by Chris Wilmer'
_symmetry_space_group_name_H-M	'P1'
_symmetry_Int_Tables_number	1
_symmetry_cell_setting	triclinic
loop_
_symmetry_equiv_pos_as_xyz
  x,y,z
_cell_length_a	23.532361
_cell_length_b	23.532407
_cell_length_c	14.185569
_cell_angle_alpha	76.924933
_cell_angle_beta	103.071806
_cell_angle_gamma	82.839173
loop_
_atom_site_label
_atom_site_type_symbol
_atom_site_fract_x
_atom_site_fract_y
_atom_site_fract_z
O1	O	0.742298	0.081983	-0.083331
O2	O	0.576427	0.092018	-0.083357
O3	O	0.664367	0.004065	-0.083325
O4	O	0.654358	0.169936	-0.083363
O5	O	0.690345	-0.021915	0.083519
O6	O	0.602405	0.066038	0.083487
O7	O	0.768276	0.056003	0.083513
Cu8	Cu	0.687713	0.058649	0.098734
Cu9	Cu	0.656990	0.089372	-0.098578
O10	O	0.680336	0.143956	0.083481
C11	C	0.568199	0.078777	0.000062
C12	C	0.504979	0.078023	0.000053
C13	C	0.217576	0.088880	-0.090887
C14	C	0.276975	0.089596	-0.090889
O15	O	0.295658	0.101989	-0.168234
N16	N	0.320841	0.075795	0.000058
C17	C	0.305307	0.061273	0.091013
O18	O	0.348073	0.049600	0.168370
C19	C	0.245909	0.060554	0.091015
C20	C	0.202044	0.074361	0.000062
C21	C	0.173712	0.102685	-0.181832
C22	C	0.114316	0.101971	-0.181829
C23	C	0.098785	0.087452	-0.090881
C24	C	0.142649	0.073646	0.000065
C25	C	0.230377	0.046028	0.181969
C26	C	0.170974	0.045309	0.181963
C27	C	0.127108	0.059116	0.091010
C28	C	0.067722	0.058413	0.091016
N29	N	0.023856	0.072213	0.000069
C30	C	0.039387	0.086732	-0.090879
C31	C	0.430046	0.062784	0.091003
C32	C	0.489442	0.063507	0.091002
C33	C	0.461106	0.091828	-0.090901
C34	C	0.401708	0.091109	-0.090899
C35	C	0.386179	0.076584	0.000056
C36	C	-0.085346	0.085232	-0.090866
C37	C	-0.144746	0.084519	-0.090855
C38	C	-0.116404	0.056194	0.091047
C39	C	-0.057010	0.056910	0.091037
C40	C	-0.041484	0.071428	0.000072
O41	O	0.048996	0.046023	0.168322
O42	O	-0.003383	0.098396	-0.168223
C43	C	0.677102	-0.030141	0.000099
C44	C	0.676337	-0.093359	0.000107
C45	C	0.723564	-0.492463	0.000059
C46	C	0.722852	-0.551862	0.000052
O47	O	0.766634	-0.588609	0.000021
N48	N	0.670573	-0.574478	0.000044
C49	C	0.619002	-0.537690	0.000035
O50	O	0.574469	-0.562381	0.000027
C51	C	0.619714	-0.478292	0.000035
C52	C	0.671998	-0.455680	0.000053
C53	C	0.775843	-0.469851	0.000076
C54	C	0.776556	-0.410456	0.000085
C55	C	0.724990	-0.373674	0.000079
C56	C	0.672710	-0.396286	0.000062
C57	C	0.568143	-0.441504	0.000018
C58	C	0.568859	-0.382101	0.000018
C59	C	0.621143	-0.359490	0.000035
C60	C	0.621857	-0.300109	0.000065
N61	N	0.674135	-0.277492	0.000072
C62	C	0.725702	-0.314275	0.000079
C63	C	0.617510	-0.662432	0.000032
C64	C	0.616798	-0.721831	0.000038
C65	C	0.720648	-0.735998	0.000053
C66	C	0.721360	-0.676599	0.000054
C67	C	0.669789	-0.639816	0.000039
C68	C	0.727195	-0.189542	0.000100
C69	C	0.727904	-0.130142	0.000114
C70	C	0.624054	-0.115979	0.000093
C71	C	0.623345	-0.175375	0.000085
C72	C	0.674920	-0.212155	0.000085
O73	O	0.578097	-0.263326	0.000091
O74	O	0.770225	-0.289574	0.000074
C75	C	0.776504	0.069244	0.000091
C76	C	0.839723	0.069999	0.000094
C77	C	0.667601	0.178163	0.000054
C78	C	0.668364	0.241382	0.000040
N79	N	0.709325	0.037039	0.237513
N80	N	0.635382	0.110977	-0.237357
C81	C	0.571884	0.174442	0.605113
C82	C	0.588260	0.158077	0.710140
C83	C	0.666146	0.080223	0.710130
C84	C	0.649776	0.096580	0.605100
C85	C	0.602645	0.143690	0.552600
C86	C	0.680536	0.065828	0.552587
C87	C	0.664169	0.082186	0.447567
C88	C	0.617041	0.129295	0.395059
C89	C	0.586278	0.160048	0.447580
C90	C	0.727670	0.018721	0.605089
C91	C	0.758430	-0.012031	0.552576
C92	C	0.742060	0.004324	0.447554
C93	C	0.694932	0.051433	0.395046
C94	C	0.772823	-0.026429	0.395033
C95	C	0.756456	-0.010071	0.290013
C96	C	0.678565	0.067791	0.290026
H97	H	0.186349	0.114508	-0.255898
H98	H	0.582070	-0.086021	0.000091
C99	C	0.833269	-0.385807	0.000137
C100	C	0.822871	-0.325918	0.000161
C101	C	0.875105	-0.303197	0.000215
H102	H	0.845467	-0.389332	-0.058030
H103	H	0.863557	-0.407490	0.058342
H104	H	0.792593	-0.304241	-0.058038
H105	H	0.810681	-0.322377	0.058323
H106	H	0.905393	-0.324881	0.058420
H107	H	0.887299	-0.306726	-0.057953
H108	H	0.868059	-0.262562	0.000240
C109	C	0.809546	-0.063253	0.609458
C110	C	0.796647	-0.115187	0.583902
C111	C	0.843722	-0.162386	0.636271
H112	H	0.814930	-0.068673	0.679540
H113	H	0.844847	-0.054625	0.592218
H114	H	0.761356	-0.123815	0.601148
H115	H	0.791269	-0.109787	0.513829
H116	H	0.879023	-0.153758	0.619031
H117	H	0.849102	-0.167800	0.706350
H118	H	0.834978	-0.197628	0.618932
H119	H	0.811202	-0.064783	0.437793
C120	C	0.831906	-0.509695	0.000139
C121	C	0.877838	-0.477170	0.000178
C122	C	0.929499	-0.513854	0.000260
H123	H	0.824821	-0.524116	-0.058024
H124	H	0.842883	-0.542219	0.058348
H125	H	0.866863	-0.444657	-0.058024
H126	H	0.884942	-0.462750	0.058337
H127	H	0.940475	-0.546378	0.058468
H128	H	0.922407	-0.528273	-0.057905
H129	H	0.960671	-0.491793	0.000295
H130	H	0.781505	-0.035112	0.247256
H131	H	0.563207	0.183123	0.752891
C132	C	0.511309	-0.465923	-0.000058
C133	C	0.466304	-0.420981	-0.000096
C134	C	0.413935	-0.443450	-0.000181
H135	H	0.517837	-0.497853	0.058104
H136	H	0.499777	-0.479712	-0.058268
H137	H	0.477833	-0.407201	0.058108
H138	H	0.459757	-0.389048	-0.058254
H139	H	0.402403	-0.457239	-0.058391
H140	H	0.420469	-0.475380	0.057982
H141	H	0.383391	-0.412959	-0.000217
H142	H	0.525152	0.052273	0.165065
C143	C	-0.068422	0.101078	-0.189552
C144	C	-0.041828	0.151314	-0.194869
C145	C	-0.026224	0.165928	-0.285756
H146	H	-0.103010	0.109241	-0.243794
H147	H	-0.041277	0.068750	-0.193346
H148	H	-0.068972	0.183635	-0.191085
H149	H	-0.007235	0.143164	-0.140649
H150	H	0.000922	0.133600	-0.289550
H151	H	-0.060814	0.174088	-0.339990
H152	H	-0.008173	0.200011	-0.289372
H153	H	0.547895	0.198406	0.404832
H154	H	-0.180461	0.095764	-0.164923
H155	H	0.533502	0.212800	0.562365
C156	C	0.512851	-0.342106	-0.000202
C157	C	0.496853	-0.294225	-0.086049
C158	C	0.445259	-0.257375	-0.086290
H159	H	0.519961	-0.327641	0.057914
H160	H	0.481590	-0.364055	-0.000267
H161	H	0.528108	-0.272280	-0.085974
H162	H	0.489732	-0.308672	-0.144179
H163	H	0.413998	-0.279324	-0.086355
H164	H	0.452374	-0.242915	-0.028169
H165	H	0.434395	-0.224887	-0.144540
C166	C	0.277982	0.030908	0.280754
C167	C	0.278769	-0.026822	0.335606
C168	C	0.322619	-0.040776	0.426612
H169	H	0.269578	0.058128	0.318240
H170	H	0.315603	0.033374	0.267789
H171	H	0.241156	-0.029283	0.348574
H172	H	0.287180	-0.054055	0.298150
H173	H	0.360241	-0.038311	0.413647
H174	H	0.314211	-0.013553	0.464089
H175	H	0.323163	-0.079949	0.463836
C176	C	0.778174	-0.652154	0.000010
C177	C	0.823174	-0.697083	-0.000008
C178	C	0.875518	-0.674587	-0.000066
H179	H	0.789752	-0.638345	0.058174
H180	H	0.771579	-0.620228	-0.058198
H181	H	0.829769	-0.728998	0.058195
H182	H	0.811615	-0.710896	-0.058167
H183	H	0.868923	-0.642661	-0.058274
H184	H	0.887091	-0.660779	0.058099
H185	H	0.906055	-0.705066	-0.000087
H186	H	0.078606	0.113212	-0.255893
C187	C	0.745551	0.000889	0.719113
C188	C	0.793422	-0.046935	0.753851
C189	C	0.809916	-0.063371	0.858882
H190	H	0.712958	-0.010462	0.743011
H191	H	0.756871	0.033534	0.742899
H192	H	0.782100	-0.079573	0.730075
H193	H	0.826026	-0.035597	0.729980
H194	H	0.821236	-0.030726	0.882668
H195	H	0.777319	-0.074720	0.882771
H196	H	0.842401	-0.095818	0.882465
C197	C	0.354176	0.106085	-0.189753
C198	C	0.380502	0.118942	-0.269395
C199	C	0.336738	0.132733	-0.360477
H200	H	0.325855	0.139623	-0.193687
H201	H	0.334959	0.073172	-0.193586
H202	H	0.399709	0.151852	-0.265564
H203	H	0.408819	0.085412	-0.265494
H204	H	0.317521	0.099820	-0.364310
H205	H	0.308419	0.166270	-0.364401
H206	H	0.354594	0.141453	-0.414525
H207	H	0.704522	0.041866	0.752887
C208	C	0.776585	-0.775933	-0.000159
C209	C	0.765840	-0.797057	-0.086016
C210	C	0.817354	-0.833841	-0.086253
H211	H	0.787570	-0.808510	0.057951
H212	H	0.807834	-0.753973	-0.000208
H213	H	0.734602	-0.819017	-0.085957
H214	H	0.754863	-0.764494	-0.144139
H215	H	0.848602	-0.811881	-0.086303
H216	H	0.828335	-0.866414	-0.028140
H217	H	0.810072	-0.848174	-0.144510
C218	C	0.413303	0.047036	0.189867
C219	C	0.464435	0.035121	0.269504
C220	C	0.449037	0.020620	0.360590
H221	H	0.395278	0.012936	0.193810
H222	H	0.386205	0.079389	0.193696
H223	H	0.491524	0.002771	0.265676
H224	H	0.482468	0.069214	0.265594
H225	H	0.421939	0.052973	0.364420
H226	H	0.431011	-0.013479	0.364523
H227	H	0.483726	0.012539	0.414635
H228	H	0.769191	-0.219481	0.000096
H229	H	0.158334	0.033486	0.256031
C230	C	0.559968	-0.746259	-0.000020
C231	C	0.514961	-0.701323	-0.000048
C232	C	0.462596	-0.723799	-0.000122
H233	H	0.566503	-0.778191	0.058142
H234	H	0.548435	-0.760048	-0.058230
H235	H	0.526492	-0.687543	0.058156
H236	H	0.508408	-0.669389	-0.058206
H237	H	0.451063	-0.737587	-0.058332
H238	H	0.469138	-0.755730	0.058041
H239	H	0.432052	-0.693312	-0.000151
C240	C	-0.009464	0.041875	0.189889
C241	C	-0.035781	0.028995	0.269537
C242	C	0.007997	0.015127	0.360615
H243	H	0.009793	0.074747	0.193809
H244	H	0.018824	0.008323	0.193728
H245	H	-0.064059	0.062543	0.265700
H246	H	-0.055035	-0.003880	0.265650
H247	H	0.036285	-0.018425	0.364454
H248	H	0.027251	0.048000	0.364525
H249	H	-0.009852	0.006380	0.414667
C250	C	0.561501	-0.622441	-0.000176
C251	C	0.545495	-0.574561	-0.086024
C252	C	0.493899	-0.537716	-0.086258
H253	H	0.568612	-0.607975	0.057939
H254	H	0.530243	-0.644394	-0.000233
H255	H	0.576746	-0.552611	-0.085958
H256	H	0.538372	-0.589009	-0.144153
H257	H	0.462641	-0.559669	-0.086315
H258	H	0.501015	-0.523255	-0.028139
H259	H	0.483029	-0.505228	-0.144509
H260	H	-0.129061	0.044375	0.165095
H261	H	0.473762	0.103650	-0.164956
C262	C	0.566515	-0.199809	0.000017
C263	C	0.521505	-0.154877	-0.000009
C264	C	0.469140	-0.177355	-0.000099
H265	H	0.573048	-0.231744	0.058173
H266	H	0.554986	-0.213594	-0.058199
H267	H	0.533032	-0.141101	0.058201
H268	H	0.514954	-0.122939	-0.058161
H269	H	0.457612	-0.191139	-0.058314
H270	H	0.475680	-0.209290	0.058059
H271	H	0.438594	-0.146871	-0.000126
C272	C	0.627464	0.119021	0.233065
C273	C	0.640362	0.170967	0.258576
C274	C	0.593308	0.218171	0.206113
H275	H	0.592142	0.110436	0.250240
H276	H	0.622127	0.124396	0.162990
H277	H	0.645692	0.165592	0.328636
H278	H	0.675676	0.179571	0.241399
H279	H	0.587971	0.223546	0.136037
H280	H	0.557989	0.209580	0.223291
H281	H	0.602055	0.253422	0.223407
H282	H	0.770481	-0.111736	0.000131
H283	H	0.603717	0.142615	0.309545
