data_functionalizedCrystal
_audit_creation_method	'MofGen! by Chris Wilmer'
_symmetry_space_group_name_H-M	'P1'
_symmetry_Int_Tables_number	1
_symmetry_cell_setting	triclinic
loop_
_symmetry_equiv_pos_as_xyz
  x,y,z
_cell_length_a	11.169417
_cell_length_b	13.897447
_cell_length_c	11.169409
_cell_angle_alpha	89.965755
_cell_angle_beta	89.979436
_cell_angle_gamma	90.020409
loop_
_atom_site_label
_atom_site_type_symbol
_atom_site_fract_x
_atom_site_fract_y
_atom_site_fract_z
Zn1	Zn	1.834894	-0.383915	-0.678526
Zn2	Zn	2.334894	0.116085	-0.178526
Zn3	Zn	1.834749	-0.545250	-0.477836
Zn4	Zn	2.334749	-0.045250	0.022164
Zn5	Zn	1.634178	-0.383973	-0.477861
Zn6	Zn	2.134178	0.116027	0.022139
Zn7	Zn	1.634156	-0.545172	-0.678481
Zn8	Zn	2.134156	-0.045172	-0.178481
O9	O	1.734494	-0.464578	-0.578176
O10	O	2.234494	0.035422	-0.078176
O11	O	2.002825	-0.405324	-0.651913
O12	O	2.502825	0.094676	-0.151913
O13	O	1.808091	-0.523914	-0.309890
O14	O	2.308091	-0.023914	0.190110
O15	O	1.660873	-0.248984	-0.504509
O16	O	2.160873	0.251016	-0.004509
O17	O	2.002718	-0.523857	-0.504467
O18	O	2.502718	-0.023857	-0.004467
O19	O	1.808339	-0.248941	-0.651937
O20	O	2.308339	0.251059	-0.151937
O21	O	1.660732	-0.405424	-0.309908
O22	O	2.160732	0.094576	0.190092
O23	O	1.466225	-0.405348	-0.504465
O24	O	1.966225	0.094652	-0.004465
O25	O	1.660836	-0.523723	-0.846437
O26	O	2.160836	-0.023723	-0.346437
O27	O	1.466209	-0.523780	-0.651860
O28	O	1.966209	-0.023780	-0.151860
O29	O	1.808318	-0.405249	-0.846470
O30	O	2.308318	0.094751	-0.346470
O31	O	1.808070	-0.680222	-0.504423
O32	O	2.308070	-0.180222	-0.004423
O33	O	1.660695	-0.680164	-0.651836
O34	O	2.160695	-0.180164	-0.151836
C35	C	1.422670	-0.464563	-0.578161
C36	C	1.922670	0.035437	-0.078161
C37	C	1.289270	-0.464580	-0.578183
C38	C	1.789270	0.035420	-0.078183
C39	C	1.734397	-0.715192	-0.578148
C40	C	2.234397	-0.215192	-0.078148
C41	C	1.734465	-0.822406	-0.578177
C42	C	2.234465	-0.322406	-0.078177
C43	C	1.734523	-0.909476	-0.578204
C44	C	2.234523	-0.409476	-0.078204
C45	C	1.734607	-1.018708	-0.578235
C46	C	2.234607	-0.518708	-0.078235
C47	C	2.047537	-0.464593	-0.578192
C48	C	2.547537	0.035407	-0.078192
C49	C	2.180936	-0.464600	-0.578199
C50	C	2.680936	0.035400	-0.078199
C51	C	1.734590	-0.464471	-0.891219
C52	C	2.234590	0.035529	-0.391219
C53	C	1.734631	-0.464425	-1.024619
C54	C	2.234631	0.035575	-0.524619
C55	C	1.734625	-0.212985	-0.578230
C56	C	2.234625	0.287015	-0.078230
C57	C	1.734681	-0.105771	-0.578253
C58	C	2.234681	0.394229	-0.078253
C59	C	1.734467	-0.464614	-0.266351
C60	C	2.234467	0.035386	0.233649
C61	C	1.734659	-0.464388	-0.132952
C62	C	2.234659	0.035612	0.367048
