data_functionalizedCrystal
_audit_creation_method	'MofGen! by Chris Wilmer'
_symmetry_space_group_name_H-M	'P1'
_symmetry_Int_Tables_number	1
_symmetry_cell_setting	triclinic
loop_
_symmetry_equiv_pos_as_xyz
  x,y,z
_cell_length_a	16.959454
_cell_length_b	12.759401
_cell_length_c	12.759393
_cell_angle_alpha	90.019559
_cell_angle_beta	89.969286
_cell_angle_gamma	89.981775
loop_
_atom_site_label
_atom_site_type_symbol
_atom_site_fract_x
_atom_site_fract_y
_atom_site_fract_z
Zn1	Zn	-0.314674	-1.606216	-0.594017
Zn2	Zn	0.185326	-1.106216	-0.094017
Zn3	Zn	-0.446876	-1.606094	-0.418340
Zn4	Zn	0.053124	-1.106094	0.081660
Zn5	Zn	-0.314711	-1.430518	-0.418353
Zn6	Zn	0.185289	-0.930518	0.081647
Zn7	Zn	-0.446810	-1.430490	-0.593978
Zn8	Zn	0.053190	-0.930490	-0.093978
O9	O	-0.380768	-1.518330	-0.506172
O10	O	0.119232	-1.018330	-0.006172
O11	O	-0.332223	-1.753221	-0.570724
O12	O	0.167777	-1.253221	-0.070724
O13	O	-0.429386	-1.582764	-0.271321
O14	O	0.070614	-1.082764	0.228679
O15	O	-0.204095	-1.453888	-0.441678
O16	O	0.295905	-0.953888	0.058322
O17	O	-0.429351	-1.753131	-0.441655
O18	O	0.070649	-1.253131	0.058345
O19	O	-0.204068	-1.582972	-0.570737
O20	O	0.295932	-1.082972	-0.070737
O21	O	-0.332285	-1.453769	-0.271331
O22	O	0.167715	-0.953769	0.228669
O23	O	-0.332222	-1.283493	-0.441640
O24	O	0.167778	-0.783493	0.058360
O25	O	-0.429239	-1.453840	-0.741005
O26	O	0.070761	-0.953840	-0.241005
O27	O	-0.429275	-1.283473	-0.570670
O28	O	0.070725	-0.783473	-0.070670
O29	O	-0.332159	-1.582945	-0.741033
O30	O	0.167841	-1.082945	-0.241033
O31	O	-0.557478	-1.582737	-0.441617
O32	O	-0.057478	-1.082737	0.058383
O33	O	-0.557430	-1.453722	-0.570657
O34	O	-0.057430	-0.953722	-0.070657
C35	C	-0.380746	-1.245362	-0.506153
C36	C	0.119254	-0.745362	-0.006153
C37	C	-0.380756	-1.128586	-0.506170
C38	C	0.119244	-0.628586	-0.006170
C39	C	-0.431370	-1.073740	-0.573244
C40	C	0.068630	-0.573740	-0.073244
C41	C	-0.431378	-0.964016	-0.573253
C42	C	0.068622	-0.464016	-0.073253
C43	C	-0.330153	-0.963992	-0.439105
C44	C	0.169847	-0.463992	0.060895
C45	C	-0.330142	-1.073714	-0.439102
C46	C	0.169858	-0.573714	0.060898
C47	C	-0.489814	-1.073753	-0.650690
C48	C	0.010186	-0.573753	-0.150690
C49	C	-0.489821	-0.964029	-0.650699
C50	C	0.010179	-0.464029	-0.150699
C51	C	-0.586134	-1.518242	-0.506154
C52	C	-0.086134	-1.018242	-0.006154
C53	C	-0.673990	-1.518300	-0.506182
C54	C	-0.173990	-1.018300	-0.006182
C55	C	-1.045471	-1.451249	-0.573356
C56	C	-0.545471	-0.951249	-0.073356
C57	C	-1.045461	-1.585703	-0.439095
C58	C	-0.545461	-1.085703	0.060905
C59	C	-0.962915	-1.585666	-0.439085
C60	C	-0.462915	-1.085666	0.060915
C61	C	-0.921643	-1.518419	-0.506211
C62	C	-0.421643	-1.018419	-0.006211
C63	C	-0.962917	-1.451208	-0.573347
C64	C	-0.462917	-0.951208	-0.073347
C65	C	-0.921635	-1.652868	-0.371944
C66	C	-0.421635	-1.152868	0.128056
C67	C	-0.839084	-1.652834	-0.371930
C68	C	-0.339084	-1.152834	0.128070
C69	C	-0.797811	-1.585591	-0.439062
C70	C	-0.297811	-1.085591	0.060938
C71	C	-0.839090	-1.518378	-0.506201
C72	C	-0.339090	-1.018378	-0.006201
C73	C	-0.797818	-1.451130	-0.573327
C74	C	-0.297818	-0.951130	-0.073327
C75	C	-0.839096	-1.383922	-0.640472
C76	C	-0.339096	-0.883922	-0.140472
C77	C	-0.921644	-1.383965	-0.640479
C78	C	-0.421644	-0.883965	-0.140479
C79	C	-0.715262	-1.585548	-0.439056
C80	C	-0.215262	-1.085548	0.060944
C81	C	-0.715264	-1.451089	-0.573317
C82	C	-0.215264	-0.951089	-0.073317
C83	C	-0.174599	-1.518447	-0.506213
C84	C	0.325401	-1.018447	-0.006213
C85	C	-0.086743	-1.518496	-0.506231
C86	C	0.413257	-1.018496	-0.006231
C87	C	-0.380688	-1.518403	-0.780206
C88	C	0.119312	-1.018403	-0.280206
C89	C	-0.380654	-1.518435	-0.896982
C90	C	0.119346	-1.018435	-0.396982
C91	C	-0.380783	-0.792363	-0.506188
C92	C	0.119217	-0.292363	-0.006188
C93	C	-0.380773	-0.909140	-0.506182
C94	C	0.119227	-0.409140	-0.006182
C95	C	-0.330100	-1.585669	-0.951861
C96	C	0.169900	-1.085669	-0.451861
C97	C	-0.330071	-1.585694	-1.061585
C98	C	0.169929	-1.085694	-0.561585
C99	C	-0.431158	-1.451247	-1.061542
C100	C	0.068842	-0.951247	-0.561542
C101	C	-0.431182	-1.451218	-0.951820
C102	C	0.068818	-0.951218	-0.451820
C103	C	-0.271740	-1.663294	-0.951887
C104	C	0.228260	-1.163294	-0.451887
C105	C	-0.271712	-1.663319	-1.061611
C106	C	0.228288	-1.163319	-0.561611
C107	C	-0.380790	-1.518317	-0.233205
C108	C	0.119210	-1.018317	0.266795
C109	C	-0.380601	-1.518489	-0.116429
C110	C	0.119399	-1.018489	0.383571
H111	H	-0.551024	-0.934226	-0.628768
H112	H	-0.051024	-0.434226	-0.128768
H113	H	-0.681666	-1.396332	-0.627984
H114	H	-0.181666	-0.896332	-0.127984
H115	H	-0.288944	-0.919303	-0.384502
H116	H	0.211056	-0.419303	0.115498
O117	O	-0.485650	-1.378750	-1.120693
O118	O	0.014350	-0.878750	-0.620693
H119	H	-0.547695	-1.396715	-1.099615
H120	H	-0.047695	-0.896715	-0.599615
O121	O	-0.485701	-1.378687	-0.892633
O122	O	0.014299	-0.878687	-0.392633
H123	H	-0.477225	-1.389948	-0.807123
H124	H	0.022775	-0.889948	-0.307123
H125	H	-0.473490	-1.103564	-0.732097
H126	H	0.026510	-0.603564	-0.232097
H127	H	-0.288921	-1.118365	-0.384491
H128	H	0.211079	-0.618365	0.115509
H129	H	-0.805483	-1.329164	-0.695122
H130	H	-0.305483	-0.829164	-0.195122
O131	O	-0.300796	-1.765649	-0.906795
O132	O	0.199204	-1.265649	-0.406795
H133	H	-0.362053	-1.780213	-0.933684
H134	H	0.137947	-1.280213	-0.433684
H135	H	-0.681658	-1.640263	-0.384383
H136	H	-0.181658	-1.140263	0.115617
H137	H	-0.547936	-1.107760	-0.621407
H138	H	-0.047936	-0.607760	-0.121407
H139	H	-0.288109	-1.744687	-1.091391
H140	H	0.211891	-1.244687	-0.591391
H141	H	-1.079083	-1.396533	-0.628027
H142	H	-0.579083	-0.896533	-0.128027
H143	H	-0.955260	-1.329246	-0.695143
H144	H	-0.455260	-0.829246	-0.195143
O145	O	-0.794568	-1.725328	-0.299521
O146	O	-0.294568	-1.225328	0.200479
H147	H	-0.756910	-1.778731	-0.346595
H148	H	-0.256910	-1.278731	0.153405
O149	O	-1.089969	-1.658261	-0.366725
O150	O	-0.589969	-1.158261	0.133275
H151	H	-1.154305	-1.647012	-0.378025
H152	H	-0.654305	-1.147012	0.121975
O153	O	-0.460872	-0.918983	-0.753149
O154	O	0.039128	-0.418983	-0.253149
H155	H	-0.445524	-0.983834	-0.807462
H156	H	0.054476	-0.483834	-0.307462
H157	H	-0.955245	-1.707610	-0.317286
H158	H	-0.455245	-1.207610	0.182714
H159	H	-0.210525	-1.641533	-0.922129
H160	H	0.289475	-1.141533	-0.422129
H161	H	-0.213548	-1.634212	-1.095657
H162	H	0.286452	-1.134212	-0.595657
