data_functionalizedCrystal
_audit_creation_method	'MofGen! by Chris Wilmer'
_symmetry_space_group_name_H-M	'P1'
_symmetry_Int_Tables_number	1
_symmetry_cell_setting	triclinic
loop_
_symmetry_equiv_pos_as_xyz
  x,y,z
_cell_length_a	10.908878
_cell_length_b	14.421503
_cell_length_c	11.026607
_cell_angle_alpha	90.001251
_cell_angle_beta	95.664596
_cell_angle_gamma	89.992086
loop_
_atom_site_label
_atom_site_type_symbol
_atom_site_fract_x
_atom_site_fract_y
_atom_site_fract_z
O1	O	1.662437	0.077096	0.179080
O2	O	1.309503	0.077101	0.088540
O3	O	1.456719	0.077095	0.304560
O4	O	1.515221	0.077102	-0.036940
O5	O	1.456745	-0.077128	0.304553
O6	O	1.309528	-0.077123	0.088533
O7	O	1.662463	-0.077127	0.179073
Cu8	Cu	1.485998	-0.091207	0.133802
Cu9	Cu	1.485968	0.091180	0.133811
O10	O	1.515246	-0.077122	-0.036947
C11	C	1.263630	-0.000011	0.080075
C12	C	1.126902	-0.000009	0.054876
N13	N	1.486028	-0.219488	0.133799
C14	C	1.056640	-0.000010	0.146821
C15	C	0.915324	-0.000008	0.120779
C16	C	1.554115	-0.469119	0.233709
C17	C	1.438050	-0.530915	0.233854
C18	C	1.485997	-0.408649	0.133808
C19	C	1.602021	-0.530947	0.133725
C20	C	1.485977	-0.591371	0.133821
C21	C	1.369864	-0.469085	0.133993
C22	C	1.533919	-0.469111	0.033834
C23	C	1.417783	-0.530879	0.033918
C24	C	1.486010	-0.303388	0.133804
C25	C	1.485952	-0.696630	0.133821
C26	C	1.708336	-0.000014	0.187538
C27	C	1.845063	-0.000009	0.212737
C28	C	1.445939	-0.000015	0.347589
C29	C	1.413766	-0.000011	0.475811
N30	N	1.485945	0.219462	0.133825
C31	C	1.526026	-0.000009	-0.079976
C32	C	1.558199	-0.000007	-0.208198
C33	C	1.502601	-0.000011	0.567544
C34	C	1.469351	-0.000007	0.700068
H35	H	1.101105	-0.000008	0.244817
H36	H	1.313096	-0.000004	0.495386
H37	H	0.889522	-0.000005	0.310740
H38	H	1.082437	-0.000003	-0.043120
C39	C	1.278636	-0.620963	0.312688
C40	C	1.383305	-0.567569	0.347983
H41	H	1.244842	-0.643582	0.383152
H42	H	1.300857	-0.671735	0.264536
H43	H	1.219213	-0.583774	0.266456
H44	H	1.442732	-0.604760	0.394208
H45	H	1.361087	-0.516790	0.396156
C46	C	0.782015	0.079277	-0.031669
C47	C	0.855314	-0.000004	-0.011524
H48	H	0.744962	0.079275	-0.113344
H49	H	0.831731	0.133046	-0.017985
H50	H	0.719627	0.079267	0.022649
H51	H	0.917708	0.000009	-0.065836
H52	H	0.805595	-0.053787	-0.025220
C53	C	1.581273	-0.463697	0.452346
C54	C	1.631761	-0.432497	0.347781
H55	H	1.629201	-0.441081	0.522767
H56	H	1.581210	-0.529553	0.453497
H57	H	1.499172	-0.441603	0.451697
H58	H	1.713860	-0.454598	0.348426
H59	H	1.631838	-0.366628	0.346631
C60	C	1.238546	-0.335475	0.134257
C61	C	1.237328	-0.432564	0.134222
H62	H	1.156726	-0.312930	0.134403
H63	H	1.272691	-0.313811	0.063519
H64	H	1.287033	-0.313841	0.204889
H65	H	1.188849	-0.454199	0.063585
H66	H	1.203167	-0.454238	0.204967
C67	C	1.218480	-0.535873	-0.079736
C68	C	1.339905	-0.567272	-0.080145
H69	H	1.170400	-0.558348	-0.150146
H70	H	1.217530	-0.470015	-0.080027
H71	H	1.185157	-0.557976	-0.008763
H72	H	1.373232	-0.545163	-0.151114
H73	H	1.340861	-0.633143	-0.079866
H74	H	1.574494	-0.441943	-0.050680
C75	C	1.805677	-0.536381	0.238250
C76	C	1.734509	-0.567583	0.133572
H77	H	1.887475	-0.558980	0.238146
H78	H	1.771206	-0.558483	0.308588
H79	H	1.806629	-0.470517	0.238994
H80	H	1.733549	-0.633448	0.132832
H81	H	1.768989	-0.545486	0.063216
C82	C	1.645141	-0.000023	0.414961
C83	C	1.638508	-0.000018	0.541132
H84	H	1.729047	-0.000033	0.398662
H85	H	1.605444	0.053757	0.380327
H86	H	1.605444	-0.053806	0.380330
H87	H	1.678197	0.053770	0.575763
H88	H	1.678222	-0.053802	0.575780
H89	H	1.368674	0.000000	0.719637
H90	H	1.658877	0.000061	0.772236
