data_functionalizedCrystal
_audit_creation_method	'MofGen! by Chris Wilmer'
_symmetry_space_group_name_H-M	'P1'
_symmetry_Int_Tables_number	1
_symmetry_cell_setting	triclinic
loop_
_symmetry_equiv_pos_as_xyz
  x,y,z
_cell_length_a	25.639242
_cell_length_b	25.639239
_cell_length_c	25.639234
_cell_angle_alpha	89.975416
_cell_angle_beta	89.973588
_cell_angle_gamma	90.033587
loop_
_atom_site_label
_atom_site_type_symbol
_atom_site_fract_x
_atom_site_fract_y
_atom_site_fract_z
Zn1	Zn	0.799250	-0.208255	-0.295734
Zn2	Zn	1.132583	0.125078	0.037599
Zn3	Zn	1.465917	0.458411	0.370933
Zn4	Zn	0.799166	-0.295683	-0.208298
Zn5	Zn	1.132499	0.037650	0.125035
Zn6	Zn	1.465833	0.370984	0.458368
Zn7	Zn	0.711819	-0.208256	-0.208299
Zn8	Zn	1.045152	0.125078	0.125034
Zn9	Zn	1.378486	0.458411	0.458368
Zn10	Zn	0.711771	-0.295654	-0.295689
Zn11	Zn	1.045105	0.037680	0.037644
Zn12	Zn	1.378438	0.371013	0.370977
O13	O	0.755502	-0.251962	-0.252005
O14	O	1.088835	0.081371	0.081328
O15	O	1.422168	0.414705	0.414661
O16	O	0.872404	-0.219865	-0.284154
O17	O	1.205737	0.113468	0.049179
O18	O	1.539071	0.446802	0.382513
O19	O	0.787564	-0.284098	-0.135133
O20	O	1.120897	0.049235	0.198200
O21	O	1.454231	0.382569	0.531533
O22	O	0.723472	-0.135090	-0.219917
O23	O	1.056805	0.198243	0.113417
O24	O	1.390139	0.531576	0.446750
O25	O	0.872342	-0.284098	-0.219915
O26	O	1.205676	0.049236	0.113418
O27	O	1.539009	0.382569	0.446751
O28	O	0.787707	-0.135090	-0.284155
O29	O	1.121040	0.198243	0.049179
O30	O	1.454374	0.531576	0.382512
O31	O	0.723390	-0.219865	-0.135134
O32	O	1.056724	0.113468	0.198200
O33	O	1.390057	0.446801	0.531533
O34	O	0.638647	-0.219837	-0.219873
O35	O	0.971981	0.113496	0.113460
O36	O	1.305314	0.446830	0.446794
O37	O	0.723391	-0.284048	-0.368860
O38	O	1.056724	0.049285	-0.035527
O39	O	1.390058	0.382619	0.297806
O40	O	0.638613	-0.284048	-0.284078
O41	O	0.971946	0.049285	0.049255
O42	O	1.305279	0.382618	0.382588
O43	O	0.787661	-0.219837	-0.368893
O44	O	1.120994	0.113497	-0.035560
O45	O	1.454328	0.446830	0.297773
O46	O	0.787518	-0.368844	-0.219872
O47	O	1.120851	-0.035511	0.113461
O48	O	1.454185	0.297822	0.446795
O49	O	0.723309	-0.368823	-0.284078
O50	O	1.056643	-0.035490	0.049256
O51	O	1.389976	0.297844	0.382589
C52	C	0.619659	-0.251940	-0.251971
C53	C	0.952992	0.081393	0.081362
C54	C	1.286326	0.414727	0.414696
C55	C	0.561545	-0.251943	-0.251969
C56	C	0.894878	0.081390	0.081364
C57	C	1.228212	0.414724	0.414698
C58	C	0.310361	-0.218471	-0.218631
C59	C	0.643694	0.114862	0.114702
C60	C	0.977028	0.448195	0.448035
C61	C	0.364965	-0.218467	-0.218625
C62	C	0.698299	0.114867	0.114709
C63	C	1.031632	0.448200	0.448042
O64	O	0.393210	-0.189977	-0.190250
O65	O	0.726543	0.143356	0.143083
O66	O	1.059877	0.476690	0.476416
N67	N	0.392271	-0.251950	-0.251995
N68	N	0.725604	0.081384	0.081338
N69	N	1.058938	0.414717	0.414671
C70	C	0.364970	-0.285436	-0.285378
C71	C	0.698303	0.047898	0.047955
C72	C	1.031636	0.381231	0.381288
O73	O	0.393210	-0.313915	-0.313762
O74	O	0.726543	0.019419	0.019571
O75	O	1.059876	0.352752	0.352904
C76	C	0.310367	-0.285437	-0.285387
C77	C	0.643700	0.047896	0.047946
C78	C	0.977033	0.381229	0.381279
C79	C	0.283063	-0.251956	-0.252011
C80	C	0.616397	0.081377	0.081322
C81	C	0.949730	0.414711	0.414656
C82	C	0.283058	-0.184992	-0.185258
C83	C	0.616391	0.148341	0.148075
C84	C	0.949725	0.481674	0.481409
C85	C	0.228457	-0.184998	-0.185264
C86	C	0.561791	0.148335	0.148069
C87	C	0.895124	0.481669	0.481403
C88	C	0.201160	-0.218483	-0.218644
C89	C	0.534493	0.114851	0.114690
C90	C	0.867827	0.448184	0.448023
C91	C	0.228463	-0.251962	-0.252017
C92	C	0.561796	0.081372	0.081316
C93	C	0.895130	0.414705	0.414650
C94	C	0.283066	-0.318921	-0.318773
C95	C	0.616400	0.014413	0.014561
C96	C	0.949733	0.347746	0.347894
C97	C	0.228459	-0.318919	-0.318779
C98	C	0.561793	0.014414	0.014554
C99	C	0.895126	0.347747	0.347888
C100	C	0.201156	-0.285438	-0.285403
C101	C	0.534489	0.047895	0.047931
C102	C	0.867823	0.381229	0.381264
C103	C	0.146565	-0.285452	-0.285402
C104	C	0.479898	0.047881	0.047931
C105	C	0.813232	0.381215	0.381264
N106	N	0.119259	-0.251969	-0.252032
N107	N	0.452592	0.081364	0.081301
N108	N	0.785926	0.414697	0.414635
C109	C	0.146557	-0.218485	-0.218652
C110	C	0.479890	0.114849	0.114681
C111	C	0.813223	0.448182	0.448014
C112	C	0.479640	-0.285429	-0.285358
C113	C	0.812974	0.047905	0.047975
C114	C	1.146307	0.381238	0.381309
C115	C	0.534243	-0.285430	-0.285347
C116	C	0.867576	0.047903	0.047987
C117	C	1.200909	0.381237	0.381320
C118	C	0.534234	-0.218460	-0.218594
C119	C	0.867568	0.114873	0.114740
C120	C	1.200901	0.448207	0.448073
C121	C	0.479631	-0.218462	-0.218602
C122	C	0.812964	0.114871	0.114731
C123	C	1.146298	0.448205	0.448064
C124	C	0.452335	-0.251946	-0.251987
C125	C	0.785668	0.081388	0.081346
C126	C	1.119001	0.414721	0.414679
C127	C	0.031891	-0.218499	-0.218667
C128	C	0.365225	0.114834	0.114666
C129	C	0.698558	0.448167	0.447999
C130	C	-0.022714	-0.218509	-0.218675
C131	C	0.310619	0.114824	0.114658
C132	C	0.643953	0.448157	0.447992
C133	C	-0.022701	-0.285477	-0.285430
C134	C	0.310633	0.047856	0.047904
C135	C	0.643966	0.381190	0.381237
C136	C	0.031900	-0.285469	-0.285421
C137	C	0.365233	0.047864	0.047913
C138	C	0.698566	0.381198	0.381246
C139	C	0.059195	-0.251976	-0.252038
C140	C	0.392528	0.081357	0.081296
C141	C	0.725861	0.414691	0.414629
O142	O	0.118286	-0.313926	-0.313764
O143	O	0.451619	0.019408	0.019570
O144	O	0.784952	0.352741	0.352903
O145	O	0.118310	-0.190006	-0.190278
O146	O	0.451644	0.143328	0.143055
O147	O	0.784977	0.476661	0.476389
C148	C	0.755414	-0.387805	-0.251981
C149	C	1.088747	-0.054471	0.081352
C150	C	1.422080	0.278862	0.414685
C151	C	0.755424	-0.445919	-0.251989
C152	C	1.088757	-0.112585	0.081345
C153	C	1.422091	0.220748	0.414678
C154	C	0.789022	-0.806280	-0.218630
C155	C	1.122356	-0.472947	0.114703
C156	C	1.455689	-0.139614	0.448036
C157	C	0.789042	-0.860885	-0.218637
C158	C	1.122376	-0.527551	0.114696
C159	C	1.455709	-0.194218	0.448029
O160	O	0.817518	-0.889120	-0.190249
O161	O	1.150851	-0.555787	0.143085
O162	O	1.484184	-0.222453	0.476418
N163	N	0.755593	-0.888201	-0.252040
N164	N	1.088927	-0.554868	0.081293
N165	N	1.422260	-0.221534	0.414627
C166	C	0.722126	-0.860910	-0.285441
C167	C	1.055459	-0.527577	0.047892
C168	C	1.388792	-0.194244	0.381225
O169	O	0.693677	-0.889159	-0.313854
O170	O	1.027010	-0.555826	0.019480
O171	O	1.360344	-0.222492	0.352813
C172	C	0.722109	-0.806307	-0.285437
C173	C	1.055442	-0.472974	0.047897
C174	C	1.388775	-0.139640	0.381230
C175	C	0.755556	-0.778993	-0.252028
C176	C	1.088889	-0.445660	0.081305
C177	C	1.422223	-0.112327	0.414639
C178	C	0.822467	-0.778967	-0.185225
C179	C	1.155801	-0.445633	0.148108
C180	C	1.489134	-0.112300	0.481442
C181	C	0.822446	-0.724366	-0.185217
C182	C	1.155780	-0.391033	0.148116
C183	C	1.489113	-0.057699	0.481449
C184	C	0.788980	-0.697079	-0.218615
C185	C	1.122313	-0.363746	0.114718
C186	C	1.455647	-0.030413	0.448051
C187	C	0.755535	-0.724393	-0.252021
C188	C	1.088868	-0.391060	0.081313
C189	C	1.422202	-0.057726	0.414646
C190	C	0.688644	-0.779017	-0.318840
C191	C	1.021977	-0.445684	0.014493
C192	C	1.355311	-0.112351	0.347826
C193	C	0.688630	-0.724410	-0.318833
C194	C	1.021963	-0.391077	0.014500
C195	C	1.355297	-0.057744	0.347834
C196	C	0.722077	-0.697097	-0.285425
C197	C	1.055411	-0.363763	0.047909
C198	C	1.388744	-0.030430	0.381242
C199	C	0.722048	-0.642505	-0.285411
C200	C	1.055381	-0.309172	0.047923
C201	C	1.388714	0.024161	0.381256
N202	N	0.755497	-0.615189	-0.252008
N203	N	1.088830	-0.281856	0.081325
N204	N	1.422163	0.051478	0.414658
C205	C	0.788963	-0.642476	-0.218610
C206	C	1.122296	-0.309143	0.114723
C207	C	1.455629	0.024191	0.448056
C208	C	0.722165	-0.975581	-0.285449
C209	C	1.055499	-0.642248	0.047884
C210	C	1.388832	-0.308914	0.381217
C211	C	0.722179	-1.030183	-0.285452
C212	C	1.055513	-0.696850	0.047881
C213	C	1.388846	-0.363517	0.381215
C214	C	0.789097	-1.030154	-0.218648
C215	C	1.122430	-0.696820	0.114685
C216	C	1.455764	-0.363487	0.448018
C217	C	0.789080	-0.975550	-0.218644
C218	C	1.122413	-0.642217	0.114690
C219	C	1.455746	-0.308884	0.448023
C220	C	0.755614	-0.948264	-0.252047
C221	C	1.088948	-0.614931	0.081286
C222	C	1.422281	-0.281598	0.414620
C223	C	0.788916	-0.527811	-0.218597
C224	C	1.122249	-0.194477	0.114737
C225	C	1.455582	0.138856	0.448070
C226	C	0.788890	-0.473205	-0.218591
C227	C	1.122223	-0.139872	0.114743
C228	C	1.455557	0.193461	0.448076
C229	C	0.721975	-0.473240	-0.285396
C230	C	1.055308	-0.139906	0.047937
C231	C	1.388641	0.193427	0.381271
C232	C	0.721998	-0.527840	-0.285400
C233	C	1.055332	-0.194507	0.047933
C234	C	1.388665	0.138826	0.381266
C235	C	0.755473	-0.555125	-0.251999
C236	C	1.088806	-0.221791	0.081334
C237	C	1.422140	0.111542	0.414668
O238	O	0.693588	-0.614235	-0.313786
O239	O	1.026922	-0.280902	0.019547
O240	O	1.360255	0.052431	0.352880
O241	O	0.817412	-0.614220	-0.190208
O242	O	1.150745	-0.280887	0.143126
O243	O	1.484078	0.052446	0.476459
C244	C	0.891875	-0.251985	-0.252040
C245	C	1.225208	0.081349	0.081294
C246	C	1.558541	0.414682	0.414627
C247	C	0.949989	-0.251994	-0.252054
C248	C	1.283322	0.081339	0.081279
C249	C	1.616655	0.414673	0.414612
C250	C	0.755530	-0.251939	-0.388378
C251	C	1.088863	0.081394	-0.055045
C252	C	1.422197	0.414728	0.278288
C253	C	0.755542	-0.251929	-0.446492
C254	C	1.088875	0.081404	-0.113159
C255	C	1.422209	0.414738	0.220174
C256	C	0.755604	-0.115589	-0.252041
C257	C	1.088937	0.217744	0.081293
C258	C	1.422271	0.551078	0.414626
C259	C	0.755648	-0.057475	-0.252056
C260	C	1.088981	0.275858	0.081278
C261	C	1.422314	0.609192	0.414611
C262	C	0.788971	-0.285332	-0.697678
C263	C	1.122304	0.048001	-0.364345
C264	C	1.455638	0.381335	-0.031011
C265	C	0.788965	-0.285343	-0.643074
C266	C	1.122299	0.047990	-0.309740
C267	C	1.455632	0.381324	0.023593
O268	O	0.817364	-0.313801	-0.614830
O269	O	1.150697	0.019532	-0.281497
O270	O	1.484030	0.352866	0.051836
N271	N	0.755553	-0.251904	-0.615766
N272	N	1.088887	0.081430	-0.282433
N273	N	1.422220	0.414763	0.050900
C274	C	0.722141	-0.218455	-0.643066
C275	C	1.055474	0.114878	-0.309733
C276	C	1.388808	0.448211	0.023601
O277	O	0.693720	-0.190014	-0.614825
O278	O	1.027054	0.143319	-0.281492
O279	O	1.360387	0.476653	0.051842
C280	C	0.722144	-0.218447	-0.697669
C281	C	1.055477	0.114886	-0.364336
C282	C	1.388811	0.448219	-0.031003
C283	C	0.755562	-0.251885	-0.724974
C284	C	1.088895	0.081448	-0.391641
C285	C	1.422229	0.414782	-0.058307
C286	C	0.822386	-0.318767	-0.724983
C287	C	1.155719	0.014566	-0.391649
C288	C	1.489053	0.347899	-0.058316
C289	C	0.822392	-0.318756	-0.779583
C290	C	1.155725	0.014578	-0.446250
C291	C	1.489059	0.347911	-0.112917
C292	C	0.788983	-0.285309	-0.806879
C293	C	1.122316	0.048025	-0.473546
C294	C	1.455650	0.381358	-0.140213
C295	C	0.755568	-0.251873	-0.779575
C296	C	1.088902	0.081460	-0.446241
C297	C	1.422235	0.414793	-0.112908
C298	C	0.688729	-0.185002	-0.724968
C299	C	1.022063	0.148332	-0.391635
C300	C	1.355396	0.481665	-0.058301
C301	C	0.688735	-0.184997	-0.779575
C302	C	1.022069	0.148336	-0.446242
C303	C	1.355402	0.481670	-0.112908
C304	C	0.722153	-0.218435	-0.806880
C305	C	1.055487	0.114899	-0.473546
C306	C	1.388820	0.448232	-0.140213
C307	C	0.722165	-0.218414	-0.861471
C308	C	1.055499	0.114919	-0.528138
C309	C	1.388832	0.448252	-0.194804
N310	N	0.755578	-0.251854	-0.888778
N311	N	1.088911	0.081480	-0.555445
N312	N	1.422244	0.414813	-0.222112
C313	C	0.788986	-0.285301	-0.861483
C314	C	1.122320	0.048033	-0.528149
C315	C	1.455653	0.381366	-0.194816
C316	C	0.722136	-0.218475	-0.528395
C317	C	1.055469	0.114858	-0.195062
C318	C	1.388803	0.448192	0.138271
C319	C	0.722135	-0.218480	-0.473793
C320	C	1.055468	0.114854	-0.140460
C321	C	1.388802	0.448187	0.192874
C322	C	0.788959	-0.285368	-0.473804
C323	C	1.122292	0.047965	-0.140471
C324	C	1.455626	0.381298	0.192862
C325	C	0.788962	-0.285361	-0.528408
C326	C	1.122296	0.047973	-0.195074
C327	C	1.455629	0.381306	0.138259
C328	C	0.755548	-0.251914	-0.555703
C329	C	1.088881	0.081419	-0.222369
C330	C	1.422215	0.414753	0.110964
C331	C	0.788997	-0.285273	-0.976148
C332	C	1.122330	0.048060	-0.642814
C333	C	1.455664	0.381394	-0.309481
C334	C	0.789002	-0.285257	-1.030753
C335	C	1.122335	0.048076	-0.697420
C336	C	1.455668	0.381410	-0.364086
C337	C	0.722176	-0.218370	-1.030737
C338	C	1.055509	0.114963	-0.697403
C339	C	1.388842	0.448296	-0.364070
C340	C	0.722173	-0.218385	-0.976136
C341	C	1.055506	0.114949	-0.642803
C342	C	1.388840	0.448282	-0.309470
C343	C	0.755585	-0.251840	-0.948843
C344	C	1.088918	0.081493	-0.615510
C345	C	1.422252	0.414827	-0.282176
O346	O	0.693780	-0.189972	-0.889749
O347	O	1.027114	0.143361	-0.556416
O348	O	1.360447	0.476694	-0.223082
O349	O	0.817397	-0.313742	-0.889730
O350	O	1.150730	0.019591	-0.556397
O351	O	1.484064	0.352925	-0.223064
C352	C	0.755503	-0.251947	-0.116163
C353	C	1.088837	0.081386	0.217171
C354	C	1.422170	0.414719	0.550504
C355	C	0.755593	-0.251810	-0.058049
C356	C	1.088926	0.081524	0.275284
C357	C	1.422259	0.414857	0.608618
H358	H	0.054108	-0.191224	-0.191486
H359	H	0.387442	0.142110	0.141847
H360	H	0.720775	0.475443	0.475180
H361	H	-0.044942	-0.191244	-0.191494
H362	H	0.288392	0.142089	0.141839
H363	H	0.621725	0.475423	0.475172
C364	C	0.859144	-0.355546	-0.809612
C365	C	1.192477	-0.022212	-0.476278
C366	C	1.525810	0.311121	-0.142945
H367	H	0.879032	-0.375469	-0.785528
H368	H	1.212366	-0.042136	-0.452195
H369	H	1.545699	0.291198	-0.118862
H370	H	0.881946	-0.335555	-0.830929
H371	H	1.215280	-0.002221	-0.497596
H372	H	1.548613	0.331112	-0.164263
H373	H	0.839121	-0.378322	-0.830894
H374	H	1.172455	-0.044989	-0.497561
H375	H	1.505788	0.288345	-0.164228
C376	C	0.825761	-0.322039	-1.060788
C377	C	1.159095	0.011294	-0.727454
C378	C	1.492428	0.344628	-0.394121
H379	H	0.820986	-0.317241	-1.097217
H380	H	1.154319	0.016093	-0.763884
H381	H	1.487653	0.349426	-0.430551
H382	H	0.818083	-0.357169	-1.051828
H383	H	1.151416	-0.023836	-0.718495
H384	H	1.484750	0.309498	-0.385161
H385	H	0.860897	-0.314391	-1.051851
H386	H	1.194230	0.018943	-0.718518
H387	H	1.527563	0.352276	-0.385184
H388	H	0.694909	-0.953367	-0.312649
H389	H	1.028243	-0.620034	0.020685
H390	H	1.361576	-0.286701	0.354018
C391	C	0.825908	-1.060176	-0.181910
C392	C	1.159241	-0.726843	0.151424
C393	C	1.492575	-0.393510	0.484757
H394	H	0.821128	-1.096607	-0.186702
H395	H	1.154461	-0.763274	0.146631
H396	H	1.487794	-0.429940	0.479964
H397	H	0.818274	-1.051255	-0.146771
H398	H	1.151607	-0.717921	0.186562
H399	H	1.484941	-0.384588	0.519896
H400	H	0.861033	-1.051195	-0.189598
H401	H	1.194367	-0.717862	0.143735
H402	H	1.527700	-0.384528	0.477068
C403	C	-0.052735	-0.322305	-0.322147
C404	C	0.280598	0.011029	0.011186
C405	C	0.613932	0.344362	0.344520
H406	H	-0.089164	-0.317505	-0.317372
H407	H	0.244169	0.015828	0.015961
H408	H	0.577502	0.349161	0.349295
H409	H	-0.043813	-0.357425	-0.314437
H410	H	0.289520	-0.024092	0.018897
H411	H	0.622853	0.309241	0.352230
H412	H	-0.043763	-0.314693	-0.357290
H413	H	0.289571	0.018640	-0.023957
H414	H	0.622904	0.351973	0.309376
H415	H	0.849722	-0.801178	-0.158028
H416	H	1.183056	-0.467844	0.175305
H417	H	1.516389	-0.134511	0.508638
H418	H	0.816127	-0.450968	-0.191384
H419	H	1.149460	-0.117635	0.141950
H420	H	1.482794	0.215698	0.475283
C421	C	0.685385	-0.181674	-0.558415
C422	C	1.018719	0.151659	-0.225082
C423	C	1.352052	0.484992	0.108251
H424	H	0.665492	-0.161759	-0.534328
H425	H	0.998825	0.171574	-0.200995
H426	H	1.332158	0.504907	0.132339
H427	H	0.662587	-0.201662	-0.579703
H428	H	0.995921	0.131672	-0.246370
H429	H	1.329254	0.465005	0.086964
H430	H	0.705408	-0.158890	-0.579728
H431	H	1.038742	0.174443	-0.246394
H432	H	1.372075	0.507776	0.086939
C433	C	0.198434	-0.355752	-0.355502
C434	C	0.531767	-0.022419	-0.022168
C435	C	0.865100	0.310914	0.311165
H436	H	0.162003	-0.350960	-0.350731
H437	H	0.495336	-0.017626	-0.017398
H438	H	0.828670	0.315707	0.315935
H439	H	0.207362	-0.390870	-0.347788
H440	H	0.540695	-0.057537	-0.014455
H441	H	0.874028	0.275796	0.318879
H442	H	0.207408	-0.348142	-0.390645
H443	H	0.540742	-0.014808	-0.057311
H444	H	0.874075	0.318525	0.276022
C445	C	0.685427	-0.181582	-1.060767
C446	C	1.018760	0.151752	-0.727433
C447	C	1.352093	0.485085	-0.394100
H448	H	0.665525	-0.161665	-1.036688
H449	H	0.998858	0.171668	-0.703354
H450	H	1.332192	0.505001	-0.370021
H451	H	0.662637	-0.201579	-1.082054
H452	H	0.995970	0.131755	-0.748721
H453	H	1.329303	0.465088	-0.415388
H454	H	0.705449	-0.158799	-1.082081
H455	H	1.038782	0.174535	-0.748747
H456	H	1.372116	0.507868	-0.415414
H457	H	0.816208	-0.312512	-0.953932
H458	H	1.149541	0.020821	-0.620599
H459	H	1.482874	0.354154	-0.287265
C460	C	0.564269	-0.181622	-0.181881
C461	C	0.897602	0.151711	0.151452
C462	C	1.230935	0.485045	0.484785
H463	H	0.600698	-0.186414	-0.186663
H464	H	0.934031	0.146919	0.146670
H465	H	1.267365	0.480252	0.480003
H466	H	0.555299	-0.189220	-0.146737
H467	H	0.888633	0.144113	0.186596
H468	H	1.221966	0.477447	0.519929
H469	H	0.555344	-0.146502	-0.189605
H470	H	0.888677	0.186831	0.143728
H471	H	1.222011	0.520164	0.477062
C472	C	0.825733	-0.557816	-0.181852
C473	C	1.159066	-0.224482	0.151481
C474	C	1.492400	0.108851	0.484814
H475	H	0.845642	-0.533722	-0.161955
H476	H	1.178976	-0.200389	0.171378
H477	H	1.512309	0.132944	0.504711
H478	H	0.848514	-0.579085	-0.201873
H479	H	1.181847	-0.245752	0.131460
H480	H	1.515180	0.087581	0.464794
H481	H	0.805750	-0.579146	-0.159050
H482	H	1.139083	-0.245812	0.174284
H483	H	1.472417	0.087521	0.507617
H484	H	0.694938	-1.052417	-0.312652
H485	H	1.028272	-0.719084	0.020682
H486	H	1.361605	-0.385751	0.354015
H487	H	0.816316	-0.953315	-0.191440
H488	H	1.149649	-0.619981	0.141893
H489	H	1.482982	-0.286648	0.475227
C490	C	0.061934	-0.322300	-0.322131
C491	C	0.395268	0.011033	0.011203
C492	C	0.728601	0.344367	0.344536
H493	H	0.037854	-0.342241	-0.342012
H494	H	0.371188	-0.008908	-0.008679
H495	H	0.704521	0.324425	0.324654
H496	H	0.083216	-0.345050	-0.302090
H497	H	0.416549	-0.011717	0.031243
H498	H	0.749883	0.321616	0.364577
H499	H	0.083254	-0.302324	-0.344949
H500	H	0.416587	0.031009	-0.011616
H501	H	0.749920	0.364343	0.321717
H502	H	0.661379	-0.702197	-0.346036
H503	H	0.994712	-0.368863	-0.012702
H504	H	1.328045	-0.035530	0.320631
H505	H	0.661405	-0.801247	-0.346043
H506	H	0.994738	-0.467913	-0.012709
H507	H	1.328072	-0.134580	0.320624
H508	H	0.305287	-0.346185	-0.345951
H509	H	0.638620	-0.012852	-0.012618
H510	H	0.971954	0.320482	0.320715
C511	C	0.685207	-0.557887	-0.322148
C512	C	1.018540	-0.224553	0.011186
C513	C	1.351873	0.108780	0.344519
H514	H	0.665275	-0.533813	-0.342039
H515	H	0.998608	-0.200480	-0.008705
H516	H	1.331941	0.132854	0.324628
H517	H	0.662446	-0.579225	-0.302131
H518	H	0.995779	-0.245892	0.031202
H519	H	1.329113	0.087441	0.364536
H520	H	0.705208	-0.579150	-0.344956
H521	H	1.038541	-0.245816	-0.011622
H522	H	1.371875	0.087517	0.321711
H523	H	0.661516	-0.157774	-0.702746
H524	H	0.994849	0.175559	-0.369413
H525	H	1.328183	0.508893	-0.036079
H526	H	0.661525	-0.157760	-0.801796
H527	H	0.994858	0.175573	-0.468463
H528	H	1.328191	0.508906	-0.135129
C529	C	0.859142	-0.355560	-0.694965
C530	C	1.192475	-0.022226	-0.361632
C531	C	1.525808	0.311107	-0.028299
H532	H	0.879042	-0.375465	-0.719055
H533	H	1.212376	-0.042132	-0.385722
H534	H	1.545709	0.291202	-0.052388
H535	H	0.839131	-0.378345	-0.673648
H536	H	1.172464	-0.045011	-0.340315
H537	H	1.505797	0.288322	-0.006981
H538	H	0.881941	-0.335562	-0.673683
H539	H	1.215274	-0.002229	-0.340350
H540	H	1.548607	0.331104	-0.007016
C541	C	0.685167	-0.443217	-0.322133
C542	C	1.018501	-0.109884	0.011200
C543	C	1.351834	0.223449	0.344534
H544	H	0.689953	-0.406786	-0.317345
H545	H	1.023286	-0.073453	0.015988
H546	H	1.356619	0.259880	0.349321
H547	H	0.650043	-0.452199	-0.314451
H548	H	0.983377	-0.118866	0.018882
H549	H	1.316710	0.214468	0.352215
H550	H	0.692809	-0.452138	-0.357273
H551	H	1.026142	-0.118805	-0.023940
H552	H	1.359475	0.214528	0.309394
C553	C	0.825703	-0.322165	-0.443772
C554	C	1.159037	0.011168	-0.110439
C555	C	1.492370	0.344501	0.222895
H556	H	0.820908	-0.317383	-0.407342
H557	H	1.154241	0.015950	-0.074009
H558	H	1.487575	0.349284	0.259324
H559	H	0.860841	-0.314524	-0.452731
H560	H	1.194175	0.018809	-0.119398
H561	H	1.527508	0.352143	0.213935
H562	H	0.818019	-0.357293	-0.452708
H563	H	1.151352	-0.023960	-0.119375
H564	H	1.484685	0.309373	0.213959
H565	H	0.694929	-0.191246	-0.451566
H566	H	1.028262	0.142088	-0.118233
H567	H	1.361595	0.475421	0.215100
C568	C	0.825719	-0.322144	-0.558438
C569	C	1.159053	0.011190	-0.225105
C570	C	1.492386	0.344523	0.108229
H571	H	0.845613	-0.342064	-0.534356
H572	H	1.178946	-0.008731	-0.201023
H573	H	1.512279	0.324603	0.132310
H574	H	0.848517	-0.302146	-0.579755
H575	H	1.181851	0.031187	-0.246421
H576	H	1.515184	0.364521	0.086912
H577	H	0.805702	-0.344923	-0.579722
H578	H	1.139035	-0.011590	-0.246389
H579	H	1.472368	0.321744	0.086944
H580	H	0.206232	-0.157734	-0.158086
H581	H	0.539565	0.175599	0.175248
H582	H	0.872899	0.508933	0.508581
C583	C	0.313077	-0.148159	-0.148535
C584	C	0.646410	0.185174	0.184799
C585	C	0.979744	0.518508	0.518132
H586	H	0.288988	-0.128226	-0.128661
H587	H	0.622322	0.205107	0.204673
H588	H	0.955655	0.538440	0.538006
H589	H	0.334405	-0.125400	-0.168565
H590	H	0.667738	0.207933	0.164768
H591	H	1.001072	0.541266	0.498102
H592	H	0.334349	-0.168131	-0.125710
H593	H	0.667682	0.165203	0.207624
H594	H	1.001015	0.498536	0.540957
C595	C	0.449603	-0.181628	-0.181893
C596	C	0.782936	0.151705	0.151440
C597	C	1.116269	0.485038	0.484773
H598	H	0.473685	-0.161686	-0.162016
H599	H	0.807019	0.171648	0.171317
H600	H	1.140352	0.504981	0.504650
H601	H	0.428274	-0.201594	-0.159078
H602	H	0.761608	0.131740	0.174255
H603	H	1.094941	0.465073	0.507588
H604	H	0.428330	-0.158872	-0.201942
H605	H	0.761664	0.174461	0.131391
H606	H	1.094997	0.507795	0.464725
H607	H	0.694968	-0.191150	-0.953904
H608	H	1.028302	0.142183	-0.620570
H609	H	1.361635	0.475517	-0.287237
H610	H	0.457419	-0.312700	-0.312543
H611	H	0.790752	0.020634	0.020790
H612	H	1.124086	0.353967	0.354124
C613	C	0.564270	-0.322263	-0.322057
C614	C	0.897604	0.011071	0.011276
C615	C	1.230937	0.344404	0.344609
H616	H	0.540188	-0.342201	-0.341939
H617	H	0.873521	-0.008868	-0.008605
H618	H	1.206854	0.324466	0.324728
H619	H	0.585549	-0.345015	-0.302016
H620	H	0.918883	-0.011682	0.031317
H621	H	1.252216	0.321651	0.364650
H622	H	0.585592	-0.302290	-0.344876
H623	H	0.918925	0.031044	-0.011543
H624	H	1.252259	0.364377	0.321791
C625	C	0.859245	-0.694328	-0.148474
C626	C	1.192578	-0.360994	0.184859
C627	C	1.525912	-0.027661	0.518192
H628	H	0.879181	-0.718406	-0.128592
H629	H	1.212514	-0.385072	0.204742
H630	H	1.545847	-0.051739	0.538075
H631	H	0.839259	-0.673055	-0.125666
H632	H	1.172592	-0.339722	0.207668
H633	H	1.505925	-0.006389	0.541001
H634	H	0.882010	-0.672999	-0.168501
H635	H	1.215343	-0.339665	0.164832
H636	H	1.548677	-0.006332	0.498165
