data_functionalizedCrystal
_audit_creation_method	'MofGen! by Chris Wilmer'
_symmetry_space_group_name_H-M	'P1'
_symmetry_Int_Tables_number	1
_symmetry_cell_setting	triclinic
loop_
_symmetry_equiv_pos_as_xyz
  x,y,z
_cell_length_a	15.995350
_cell_length_b	19.188930
_cell_length_c	15.072220
_cell_angle_alpha	89.993728
_cell_angle_beta	89.991149
_cell_angle_gamma	83.318578
loop_
_atom_site_label
_atom_site_type_symbol
_atom_site_fract_x
_atom_site_fract_y
_atom_site_fract_z
O1	O	1.110666	0.089991	-0.073718
O2	O	1.610666	0.589991	0.426282
O3	O	0.866850	0.101105	-0.073737
O4	O	1.366850	0.601105	0.426263
O5	O	0.995794	-0.006090	-0.073709
O6	O	1.495794	0.493910	0.426291
O7	O	0.981722	0.197186	-0.073745
O8	O	1.481722	0.697186	0.426255
O9	O	0.995763	-0.006084	0.073856
O10	O	1.495763	0.493916	0.573856
O11	O	0.866819	0.101111	0.073828
O12	O	1.366819	0.601111	0.573828
O13	O	1.110634	0.089997	0.073848
O14	O	1.610634	0.589997	0.573848
Zn15	Zn	0.988721	0.095555	0.097267
Zn16	Zn	1.488721	0.595555	0.597267
Zn17	Zn	0.988763	0.095547	-0.097156
Zn18	Zn	1.488763	0.595547	0.402844
O19	O	0.981690	0.197192	0.073820
O20	O	1.481690	0.697192	0.573820
C21	C	0.835641	0.100648	0.000043
C22	C	1.335641	0.600648	0.500043
C23	C	0.742696	0.099271	0.000037
C24	C	1.242696	0.599271	0.500037
C25	C	0.404967	0.094324	0.000056
C26	C	0.904967	0.594324	0.500056
C27	C	0.452680	0.017982	0.000398
C28	C	0.952680	0.517982	0.500398
C29	C	0.549365	0.019360	0.000059
C30	C	1.049365	0.519360	0.500059
C31	C	0.572518	0.096778	0.000047
C32	C	1.072518	0.596778	0.500047
C33	C	0.531311	0.134429	-0.084223
C34	C	1.031311	0.634429	0.415777
C35	C	0.434683	0.132511	-0.084287
C36	C	0.934683	0.632511	0.415713
C37	C	0.434302	0.134095	0.083522
C38	C	0.934302	0.634095	0.583522
C39	C	0.531247	0.134077	0.084629
C40	C	1.031247	0.634077	0.584629
C41	C	0.667211	0.098169	0.000039
C42	C	1.167211	0.598169	0.500039
C43	C	0.310274	0.092936	0.000058
C44	C	0.810274	0.592936	0.500058
C45	C	0.995323	-0.032099	0.000076
C46	C	1.495323	0.467901	0.500076
C47	C	0.993955	-0.109607	0.000083
C48	C	1.493955	0.390393	0.500083
C49	C	1.069615	-0.154338	0.000093
C50	C	1.569615	0.345662	0.500093
C51	C	1.068330	-0.227165	0.000079
C52	C	1.568330	0.272835	0.500079
C53	C	0.991380	-0.255258	0.000072
C54	C	1.491380	0.244742	0.500072
C55	C	0.915710	-0.210517	0.000057
C56	C	1.415710	0.289483	0.500057
C57	C	0.916997	-0.137691	0.000062
C58	C	1.416997	0.362309	0.500062
N59	N	0.932550	-0.363410	0.050287
N60	N	1.432550	0.136590	0.550287
N61	N	0.931333	-0.432592	0.050284
N62	N	1.431333	0.067408	0.550284
C63	C	0.987497	-0.474676	0.000054
C64	C	1.487497	0.025324	0.500054
N65	N	1.044937	-0.444966	-0.050161
N66	N	1.544937	0.055034	0.449839
N67	N	1.046158	-0.375779	-0.050154
N68	N	1.546158	0.124221	0.449846
C69	C	0.989976	-0.334224	0.000066
C70	C	1.489976	0.165776	0.500066
C71	C	1.061769	-0.598375	0.000048
C72	C	1.561769	-0.098375	0.500048
C73	C	1.060480	-0.671204	0.000028
C74	C	1.560480	-0.171204	0.500028
C75	C	0.907859	-0.654553	0.000015
C76	C	1.407859	-0.154553	0.500015
C77	C	0.909149	-0.581727	0.000025
C78	C	1.409149	-0.081727	0.500025
C79	C	0.986106	-0.553643	0.000046
C80	C	1.486106	-0.053643	0.500046
C81	C	1.141843	0.090454	0.000065
C82	C	1.641843	0.590454	0.500065
C83	C	1.234789	0.091831	0.000066
C84	C	1.734789	0.591831	0.500066
C85	C	0.982162	0.223201	0.000033
C86	C	1.482162	0.723201	0.500033
C87	C	0.983530	0.300709	0.000019
C88	C	1.483530	0.800709	0.500019
N89	N	0.988699	0.095560	0.229956
N90	N	1.488699	0.595560	0.729956
N91	N	0.988792	0.095537	-0.229845
N92	N	1.488792	0.595537	0.270155
C93	C	0.988762	0.095544	0.589157
C94	C	1.488762	0.595544	1.089157
C95	C	0.919536	0.152710	0.551535
C96	C	1.419536	0.652710	1.051535
C97	C	0.919693	0.152918	0.448710
C98	C	1.419693	0.652918	0.948710
C99	C	0.988730	0.095552	0.410953
C100	C	1.488730	0.595552	0.910953
C101	C	1.076036	0.111464	0.448248
C102	C	1.576036	0.611464	0.948248
C103	C	1.075648	0.111870	0.551106
C104	C	1.575648	0.611870	1.051106
C105	C	0.971460	0.022298	0.551269
C106	C	1.471460	0.522298	1.051269
C107	C	0.969454	0.022787	0.448405
C108	C	1.469454	0.522787	0.948405
C109	C	0.988717	0.095555	0.310240
C110	C	1.488717	0.595555	0.810240
C111	C	0.988780	0.095543	0.689871
C112	C	1.488780	0.595543	1.189871
H113	H	0.433211	-0.012395	-0.059692
H114	H	0.933211	0.487605	0.440308
H115	H	0.402230	0.188560	-0.088121
H116	H	0.902230	0.688560	0.411879
H117	H	0.558651	0.106592	0.146972
H118	H	1.058651	0.606592	0.646972
C119	C	0.427786	-0.023245	0.082031
C120	C	0.927786	0.476755	0.582031
H121	H	0.457265	-0.069172	0.080997
H122	H	0.957265	0.430828	0.580997
H123	H	0.368917	-0.026165	0.080912
H124	H	0.868917	0.473835	0.580912
H125	H	0.441829	0.000164	0.134553
H126	H	0.941829	0.500164	0.634553
C127	C	1.147278	0.056721	0.415204
C128	C	1.647278	0.556721	0.915204
H129	H	1.124354	0.023598	0.378278
H130	H	1.624354	0.523598	0.878278
H131	H	1.174588	0.033215	0.464584
H132	H	1.674588	0.533215	0.964584
H133	H	1.186837	0.079580	0.382346
H134	H	1.686837	0.579580	0.882346
H135	H	1.132280	-0.131477	0.000107
H136	H	1.632280	0.368523	0.500107
H137	H	0.847538	-0.545305	0.000022
H138	H	1.347538	-0.045305	0.500022
H139	H	0.854420	0.143386	0.576294
H140	H	1.354420	0.643386	1.076294
H141	H	0.546404	0.190533	0.089710
H142	H	1.046404	0.690533	0.589710
C143	C	1.151559	-0.276378	0.000097
C144	C	1.651559	0.223622	0.500097
H145	H	1.197575	-0.249222	0.000115
H146	H	1.697575	0.250778	0.500115
H147	H	1.154245	-0.305131	-0.051361
H148	H	1.654245	0.194869	0.448639
H149	H	1.154207	-0.305135	0.051564
H150	H	1.654207	0.194865	0.551564
C151	C	0.833770	-0.088482	0.000053
C152	C	1.333770	0.411518	0.500053
H153	H	0.845558	-0.041087	0.000053
H154	H	1.345558	0.458913	0.500053
H155	H	0.802189	-0.097002	0.051505
H156	H	1.302189	0.402998	0.551505
H157	H	0.802222	-0.096990	-0.051420
H158	H	1.302222	0.403010	0.448580
C159	C	0.823213	-0.685443	0.000004
C160	C	1.323213	-0.185443	0.500004
H161	H	0.778335	-0.648369	-0.000005
H162	H	1.278335	-0.148369	0.499995
H163	H	0.819524	-0.713514	0.051458
H164	H	1.319524	-0.213514	0.551458
H165	H	0.819552	-0.713497	-0.051467
H166	H	1.319552	-0.213497	0.448533
C167	C	1.143711	-0.720409	0.000041
C168	C	1.643711	-0.220409	0.500041
H169	H	1.189725	-0.693249	0.000063
H170	H	1.689725	-0.193249	0.500063
H171	H	1.146400	-0.749158	-0.051420
H172	H	1.646400	-0.249158	0.448580
H173	H	1.146362	-0.749169	0.051504
H174	H	1.646362	-0.249169	0.551504
C175	C	0.832010	0.140125	0.414643
C176	C	1.332010	0.640125	0.914643
H177	H	0.795971	0.134757	0.463667
H178	H	1.295971	0.634757	0.963667
H179	H	0.836755	0.098755	0.379513
H180	H	1.336755	0.598755	0.879513
H181	H	0.809199	0.178986	0.379745
H182	H	1.309199	0.678986	0.879745
C183	C	0.831068	-0.241415	0.000053
C184	C	1.331068	0.258585	0.500053
H185	H	0.841137	-0.291195	0.000060
H186	H	1.341137	0.208805	0.500060
H187	H	0.799935	-0.226057	-0.051408
H188	H	1.299935	0.273943	0.448592
H189	H	0.799916	-0.226064	0.051516
H190	H	1.299916	0.273936	0.551516
H191	H	1.124432	-0.575508	0.000060
H192	H	1.624432	-0.075508	0.500060
C193	C	0.934585	0.226344	0.415440
C194	C	1.434585	0.726344	0.915440
H195	H	0.940570	0.256159	0.464788
H196	H	1.440570	0.756159	0.964788
H197	H	0.888017	0.245313	0.380455
H198	H	1.388017	0.745313	0.880455
H199	H	0.984372	0.222859	0.380563
H200	H	1.484372	0.722859	0.880563
C201	C	0.587909	-0.020627	0.081657
C202	C	1.087909	0.479373	0.581657
H203	H	0.647186	-0.019836	0.081559
H204	H	1.147186	0.480164	0.581559
H205	H	0.575588	-0.067846	0.079576
H206	H	1.075588	0.432154	0.579576
H207	H	0.564737	0.001139	0.134181
H208	H	1.064737	0.501139	0.634181
C209	C	0.887328	0.001637	0.586341
C210	C	1.387328	0.501637	1.086341
H211	H	0.878093	-0.042713	0.562682
H212	H	1.378093	0.457287	1.062682
H213	H	0.842776	0.035936	0.568727
H214	H	1.342776	0.535936	1.068727
H215	H	0.889218	-0.001064	0.649258
H216	H	1.389218	0.498936	1.149258
H217	H	0.577345	-0.010441	-0.060444
H218	H	1.077345	0.489559	0.439556
C219	C	1.039654	-0.035172	0.584141
C220	C	1.539654	0.464828	1.084141
H221	H	1.078485	-0.014667	0.620778
H222	H	1.578485	0.485333	1.120778
H223	H	1.068517	-0.057219	0.534681
H224	H	1.568517	0.442781	1.034681
H225	H	1.014027	-0.069078	0.617265
H226	H	1.514027	0.430922	1.117265
H227	H	0.930403	0.206759	0.577365
H228	H	1.430403	0.706759	1.077365
H229	H	1.090935	0.165288	0.575079
H230	H	1.590935	0.665288	1.075079
H231	H	1.128756	0.071875	0.575991
H232	H	1.628756	0.571875	1.075991
C233	C	0.410100	0.095408	-0.169367
C234	C	0.910100	0.595408	0.330633
H235	H	0.459146	0.081644	-0.203564
H236	H	0.959146	0.581644	0.296436
H237	H	0.372018	0.126599	-0.203062
H238	H	0.872018	0.626599	0.296938
H239	H	0.383983	0.055078	-0.153961
H240	H	0.883983	0.555078	0.346039
H241	H	0.413844	0.109140	0.147396
H242	H	0.913844	0.609140	0.647396
C243	C	1.097192	0.182805	0.413435
C244	C	1.597192	0.682805	0.913435
H245	H	1.052937	0.202985	0.376184
H246	H	1.552937	0.702985	0.876184
H247	H	1.148175	0.176225	0.380564
H248	H	1.648175	0.676225	0.880564
H249	H	1.103496	0.213226	0.462089
H250	H	1.603496	0.713226	0.962089
H251	H	0.545229	0.191306	-0.087366
H252	H	1.045229	0.691306	0.412634
C253	C	0.882695	0.006471	0.415483
C254	C	1.382695	0.506471	0.915483
H255	H	0.858318	0.043842	0.379060
H256	H	1.358318	0.543842	0.879060
H257	H	0.847098	0.001328	0.464933
H258	H	1.347098	0.501328	0.964933
H259	H	0.889150	-0.035817	0.382126
H260	H	1.389150	0.464183	0.882126
C261	C	1.033165	-0.037378	0.413695
C262	C	1.533165	0.462622	0.913695
H263	H	1.019998	-0.080674	0.437371
H264	H	1.519998	0.419326	0.937371
H265	H	1.088319	-0.029719	0.431523
H266	H	1.588319	0.470281	0.931523
H267	H	1.030474	-0.038866	0.350768
H268	H	1.530474	0.461134	0.850768
C269	C	0.569782	0.099100	-0.168939
C270	C	1.069782	0.599100	0.331061
H271	H	0.544440	0.122261	-0.219582
H272	H	1.044440	0.622261	0.280418
H273	H	0.559989	0.051218	-0.169691
H274	H	1.059989	0.551218	0.330309
H275	H	0.628656	0.102037	-0.169813
H276	H	1.128656	0.602037	0.330187
C277	C	0.391122	0.210133	0.084281
C278	C	0.891122	0.710133	0.584281
H279	H	0.355383	0.217633	0.034010
H280	H	0.855383	0.717633	0.534010
H281	H	0.432675	0.241669	0.082423
H282	H	0.932675	0.741669	0.582423
H283	H	0.358650	0.217999	0.136871
H284	H	0.858650	0.717999	0.636871
