data_functionalizedCrystal
_audit_creation_method	'MofGen! by Chris Wilmer'
_symmetry_space_group_name_H-M	'P1'
_symmetry_Int_Tables_number	1
_symmetry_cell_setting	triclinic
loop_
_symmetry_equiv_pos_as_xyz
  x,y,z
_cell_length_a	10.654562
_cell_length_b	26.809956
_cell_length_c	10.654550
_cell_angle_alpha	90.003277
_cell_angle_beta	84.487503
_cell_angle_gamma	90.018884
loop_
_atom_site_label
_atom_site_type_symbol
_atom_site_fract_x
_atom_site_fract_y
_atom_site_fract_z
O1	O	1.667853	0.041511	0.176472
O2	O	1.302377	0.041505	0.193262
O3	O	1.493518	0.041506	0.002128
O4	O	1.476712	0.041510	0.367606
O5	O	1.493459	-0.041453	0.002127
O6	O	1.302317	-0.041455	0.193261
O7	O	1.667794	-0.041448	0.176471
Zn8	Zn	1.485046	-0.054623	0.184866
Zn9	Zn	1.485124	0.054679	0.184867
O10	O	1.476653	-0.041450	0.367605
C11	C	1.255549	0.000024	0.192025
C12	C	1.116107	0.000022	0.188327
C13	C	1.050544	-0.045195	0.186601
C14	C	0.919522	-0.045187	0.183136
C15	C	0.919636	0.045260	0.183128
C16	C	1.050657	0.045251	0.186584
C17	C	1.115993	-0.090424	0.188344
C18	C	1.050430	-0.135645	0.186620
C19	C	0.919408	-0.135637	0.183155
C20	C	0.853949	-0.090408	0.181414
N21	N	1.485002	-0.129219	0.184864
C22	C	1.561938	-0.473843	0.261737
C23	C	1.561979	-0.682721	0.261736
O24	O	1.627360	-0.709723	0.327081
N25	N	1.485154	-0.708846	0.184855
C26	C	1.408320	-0.682749	0.107962
O27	O	1.342987	-0.709763	0.042560
C28	C	1.408287	-0.473872	0.107956
C29	C	1.485107	-0.447749	0.184852
C30	C	1.638753	-0.447720	0.338625
C31	C	1.638737	-0.395504	0.338630
C32	C	1.561906	-0.369410	0.261745
C33	C	1.485091	-0.395533	0.184857
C34	C	1.331461	-0.447776	0.031058
C35	C	1.331462	-0.395553	0.031061
C36	C	1.408282	-0.369431	0.107957
C37	C	1.408244	-0.317223	0.107977
N38	N	1.485069	-0.291098	0.184858
C39	C	1.561900	-0.317191	0.261743
C40	C	1.408341	-0.792412	0.107972
C41	C	1.408348	-0.844631	0.107974
C42	C	1.562008	-0.844599	0.261747
C43	C	1.561995	-0.792379	0.261750
C44	C	1.485166	-0.766287	0.184853
C45	C	1.561860	-0.207533	0.261747
C46	C	1.561833	-0.155312	0.261748
C47	C	1.408178	-0.155349	0.107971
C48	C	1.408199	-0.207565	0.107974
C49	C	1.485050	-0.233656	0.184866
O50	O	1.342908	-0.290189	0.042656
O51	O	1.627245	-0.290168	0.327114
C52	C	1.561954	-0.526059	0.261732
C53	C	1.485139	-0.552182	0.184843
C54	C	1.408308	-0.526088	0.107959
C55	C	1.485146	-0.604401	0.184846
C56	C	1.561977	-0.630494	0.261730
C57	C	1.638802	-0.604369	0.338612
C58	C	1.638785	-0.552153	0.338616
C59	C	1.331484	-0.552214	0.031078
C60	C	1.331505	-0.604430	0.031081
C61	C	1.408336	-0.630524	0.107965
C62	C	1.714621	0.000033	0.177708
C63	C	1.854064	0.000039	0.181406
C64	C	1.492254	0.000027	-0.044671
C65	C	1.488563	0.000029	-0.184114
N66	N	1.485179	0.129275	0.184859
C67	C	1.601103	0.000029	-0.263595
C68	C	1.597627	0.000033	-0.394615
C69	C	1.369059	0.000033	-0.366662
C70	C	1.372537	0.000033	-0.235644
C71	C	1.717129	0.000025	-0.212064
C72	C	1.829680	0.000025	-0.291546
C73	C	1.826203	0.000028	-0.422567
C74	C	1.710176	0.000032	-0.474106
C75	C	1.477916	0.000031	0.414403
C76	C	1.481608	0.000032	0.553847
H77	H	0.866329	0.082083	0.181714
H78	H	1.222678	-0.090436	0.191169
H79	H	1.103736	-0.172469	0.188028
H80	H	1.280896	0.000032	-0.170928
O81	O	1.333872	-0.767043	0.033152
C82	C	1.325067	-0.708066	-0.136431
C83	C	1.409565	-0.736773	-0.051823
H84	H	1.386228	-0.683578	-0.205136
H85	H	1.270177	-0.735686	-0.191462
H86	H	1.256219	-0.683654	-0.075257
H87	H	1.478484	-0.761185	-0.112903
H88	H	1.464366	-0.709126	0.003217
O89	O	0.855906	-0.179606	0.181535
C90	C	0.869636	-0.269318	0.181839
C91	C	0.941701	-0.219557	0.183700
H92	H	0.938973	-0.301631	0.183562
H93	H	0.797605	-0.271606	0.267977
H94	H	0.818975	-0.271551	0.092501
H95	H	0.992437	-0.217290	0.272980
H96	H	1.013660	-0.217289	0.097502
O97	O	1.636543	-0.232796	0.336559
C98	C	1.788993	-0.227239	0.489035
C99	C	1.704464	-0.198568	0.404388
H100	H	1.843950	-0.199578	0.543877
H101	H	1.727894	-0.251682	0.557909
H102	H	1.857783	-0.251690	0.427905
H103	H	1.635662	-0.174090	0.465417
H104	H	1.765642	-0.174157	0.335507
O105	O	1.942274	0.000002	-0.241279
C106	C	2.048932	0.000028	-0.051828
C107	C	1.921331	0.000042	-0.108583
H108	H	2.032045	0.000071	0.055464
H109	H	2.104599	-0.034697	-0.084396
H110	H	2.104628	0.034740	-0.084548
H111	H	1.865533	-0.034646	-0.075889
H112	H	1.865761	0.034790	-0.076020
H113	H	0.747262	-0.090405	0.178590
H114	H	1.104039	0.082071	0.187995
H115	H	1.624389	-0.134046	0.324372
O116	O	1.636553	-0.767061	0.336618
C117	C	1.687376	-0.751054	0.548464
C118	C	1.602867	-0.779763	0.463820
H119	H	1.660154	-0.761305	0.651325
H120	H	1.790269	-0.761320	0.521529
H121	H	1.674211	-0.709251	0.535197
H122	H	1.615921	-0.821572	0.477042
H123	H	1.500005	-0.769455	0.490775
H124	H	1.701298	-0.374239	0.401241
H125	H	1.701325	-0.468960	0.401234
O126	O	1.636829	-0.869896	0.336358
C127	C	1.848635	-0.885870	0.387290
C128	C	1.764042	-0.857180	0.302744
H129	H	1.951506	-0.875608	0.360125
H130	H	1.821647	-0.875599	0.490178
H131	H	1.835372	-0.927676	0.374099
H132	H	1.777261	-0.815367	0.315824
H133	H	1.791050	-0.867493	0.199887
H134	H	1.268907	-0.469036	-0.031561
H135	H	1.345778	-0.865896	0.045373
H136	H	1.268898	-0.374311	-0.031561
H137	H	1.917847	0.000033	-0.487279
H138	H	1.345630	-0.228835	0.045375
O139	O	1.256466	0.000011	-0.416932
C140	C	1.149815	0.000037	-0.606388
C141	C	1.277413	0.000053	-0.549628
H142	H	1.166706	0.000082	-0.713680
H143	H	1.094096	-0.034690	-0.573829
H144	H	1.094169	0.034747	-0.573662
H145	H	1.333161	-0.034633	-0.582329
H146	H	1.333036	0.034803	-0.582181
O147	O	1.333365	-0.130017	0.033430
C148	C	1.121597	-0.114083	-0.017672
C149	C	1.206160	-0.142795	0.066860
H150	H	1.018737	-0.124411	0.009308
H151	H	1.134688	-0.072269	-0.004445
H152	H	1.148782	-0.124339	-0.120534
H153	H	1.179029	-0.132580	0.169754
H154	H	1.193058	-0.184602	0.053525
H155	H	1.701340	-0.530888	0.401233
O156	O	1.713582	-0.629744	0.413109
C157	C	1.883168	-0.688702	0.421916
C158	C	1.798584	-0.659984	0.337414
H159	H	1.951895	-0.713166	0.360753
H160	H	1.938176	-0.661088	0.476849
H161	H	1.821980	-0.713138	0.490726
H162	H	1.859679	-0.635548	0.268533
H163	H	1.743569	-0.687625	0.282570
H164	H	1.268936	-0.625695	-0.031535
H165	H	1.268920	-0.530974	-0.031534
H166	H	1.719973	0.000020	-0.105382
H167	H	1.707355	0.000040	-0.580794
