data_functionalizedCrystal
_audit_creation_method	'MofGen! by Chris Wilmer'
_symmetry_space_group_name_H-M	'P1'
_symmetry_Int_Tables_number	1
_symmetry_cell_setting	triclinic
loop_
_symmetry_equiv_pos_as_xyz
  x,y,z
_cell_length_a	19.188905
_cell_length_b	19.188924
_cell_length_c	9.016244
_cell_angle_alpha	89.995687
_cell_angle_beta	89.985546
_cell_angle_gamma	83.138260
loop_
_atom_site_label
_atom_site_type_symbol
_atom_site_fract_x
_atom_site_fract_y
_atom_site_fract_z
O1	O	0.926157	0.087082	-0.123591
O2	O	0.722843	0.098834	-0.123542
O3	O	0.830370	-0.008698	-0.123550
O4	O	0.818630	0.194615	-0.123582
O5	O	0.830354	-0.008696	0.123130
O6	O	0.722827	0.098837	0.123139
O7	O	0.926141	0.087084	0.123089
Cu8	Cu	0.824483	0.092961	0.145638
Cu9	Cu	0.824501	0.092958	-0.146090
O10	O	0.818615	0.194617	0.123098
C11	C	0.696824	0.098458	-0.000195
C12	C	0.619318	0.097324	-0.000175
C13	C	0.829982	-0.034708	-0.000209
C14	C	0.828844	-0.112213	-0.000204
C15	C	0.828321	-0.148613	-0.134670
C16	C	0.827241	-0.221436	-0.134681
C17	C	0.826698	-0.257857	-0.000219
C18	C	0.827217	-0.221448	0.134265
C19	C	0.828290	-0.148626	0.134272
N20	N	0.864740	-0.377523	0.099849
N21	N	0.863722	-0.446701	0.099833
C22	C	0.823464	-0.477266	-0.000232
N23	N	0.784270	-0.436041	-0.100304
N24	N	0.785291	-0.366857	-0.100292
C25	C	0.825534	-0.336821	-0.000212
C26	C	0.821769	-0.592629	-0.134719
C27	C	0.820685	-0.665452	-0.134725
C28	C	0.820668	-0.665464	0.134225
C29	C	0.821745	-0.592641	0.134227
C30	C	0.822299	-0.556228	-0.000250
C31	C	0.582935	0.096778	-0.134644
C32	C	0.510112	0.095705	-0.134663
C33	C	0.473676	0.095164	-0.000204
C34	C	0.510067	0.095714	0.134283
C35	C	0.582889	0.096794	0.134298
N36	N	0.364650	0.053736	0.099867
N37	N	0.295473	0.052709	0.099845
C38	C	0.254269	0.091911	-0.000239
N39	N	0.284857	0.132172	-0.100322
N40	N	0.354040	0.133196	-0.100303
C41	C	0.394713	0.093993	-0.000205
C42	C	0.138922	0.090203	-0.134738
C43	C	0.066097	0.089134	-0.134750
C44	C	0.066055	0.089136	0.134200
C45	C	0.138878	0.090212	0.134208
C46	C	0.175308	0.090742	-0.000264
C47	C	0.952160	0.087461	-0.000261
C48	C	1.029666	0.088594	-0.000290
C49	C	0.819002	0.220627	-0.000247
C50	C	0.820141	0.298132	-0.000261
N51	N	0.824475	0.092962	0.350824
N52	N	0.824515	0.092951	-0.351277
C53	C	0.766783	0.150297	0.585862
C54	C	0.766907	0.150507	0.413971
C55	C	0.897280	0.108646	0.413142
C56	C	0.896964	0.109051	0.585086
C57	C	0.810089	0.019750	0.585384
C58	C	0.808408	0.020246	0.413430
H59	H	0.828770	-0.118970	-0.244172
H60	H	0.822177	-0.563004	0.243724
H61	H	0.820255	-0.695088	-0.244227
H62	H	0.712782	0.141196	0.371842
H63	H	0.822216	-0.562980	-0.244218
H64	H	0.036474	0.088694	-0.244256
H65	H	0.168584	0.090642	-0.244234
H66	H	0.754853	0.008338	0.372704
H67	H	0.941253	0.068918	0.626665
H68	H	0.820220	-0.695117	0.243707
H69	H	0.036389	0.088700	0.243679
H70	H	0.776091	0.204835	0.372812
H71	H	0.941253	0.067981	0.372233
H72	H	0.909710	0.162429	0.625163
H73	H	0.828713	-0.118988	0.243774
H74	H	0.910333	0.161416	0.370051
H75	H	0.480397	0.095275	0.243761
H76	H	0.612511	0.097239	0.243803
H77	H	0.480482	0.095262	-0.244167
H78	H	0.168502	0.090652	0.243708
H79	H	0.712487	0.141141	0.627271
H80	H	0.826811	-0.251078	-0.244183
H81	H	0.775844	0.204317	0.629043
H82	H	0.612592	0.097210	-0.244143
H83	H	0.758169	0.004610	0.628848
H84	H	0.847739	-0.024409	0.370452
H85	H	0.852192	-0.022923	0.626033
H86	H	0.826773	-0.251106	0.243745
