data_functionalizedCrystal
_audit_creation_method	'MofGen! by Chris Wilmer'
_symmetry_space_group_name_H-M	'P1'
_symmetry_Int_Tables_number	1
_symmetry_cell_setting	triclinic
loop_
_symmetry_equiv_pos_as_xyz
  x,y,z
_cell_length_a	19.188930
_cell_length_b	13.339070
_cell_length_c	12.376457
_cell_angle_alpha	104.410245
_cell_angle_beta	101.232575
_cell_angle_gamma	80.612963
loop_
_atom_site_label
_atom_site_type_symbol
_atom_site_fract_x
_atom_site_fract_y
_atom_site_fract_z
O1	O	0.340100	-1.360197	-0.094096
O2	O	0.840100	-0.860197	0.405904
O3	O	0.294198	-1.065870	-0.094082
O4	O	0.794198	-0.565870	0.405918
O5	O	0.217159	-1.221523	-0.094067
O6	O	0.717159	-0.721523	0.405933
O7	O	0.417139	-1.204545	-0.094111
O8	O	0.917139	-0.704545	0.405889
O9	O	0.236385	-1.182624	0.093941
O10	O	0.736385	-0.682624	0.593941
O11	O	0.313424	-1.026971	0.093926
O12	O	0.813424	-0.526971	0.593926
O13	O	0.359326	-1.321298	0.093913
O14	O	0.859326	-0.821298	0.593913
Zn15	Zn	0.339428	-1.167958	0.123770
Zn16	Zn	0.839428	-0.667958	0.623770
Zn17	Zn	0.314097	-1.219210	-0.123939
Zn18	Zn	0.814097	-0.719210	0.376061
O19	O	0.436365	-1.165645	0.093898
O20	O	0.936365	-0.665645	0.593898
C21	C	0.200654	-1.201522	-0.000060
C22	C	0.700654	-0.701522	0.499940
C23	C	0.122827	-1.199869	-0.000050
C24	C	0.622827	-0.699869	0.499950
C25	C	0.296057	-1.008765	-0.000076
C26	C	0.796057	-0.508765	0.499924
C27	C	0.272945	-0.896565	-0.000070
C28	C	0.772945	-0.396565	0.499930
C29	C	0.357467	-1.378403	-0.000096
C30	C	0.857467	-0.878403	0.499904
C31	C	0.380578	-1.490606	-0.000110
C32	C	0.880578	-0.990606	0.499890
C33	C	0.095789	-1.291202	-0.000049
C34	C	0.595789	-0.791202	0.499951
C35	C	0.022659	-1.289655	-0.000067
C36	C	0.522659	-0.789655	0.499933
C37	C	-0.023428	-1.196764	-0.000063
C38	C	0.476572	-0.696764	0.499937
C39	C	0.003617	-1.105420	-0.000071
C40	C	0.503617	-0.605420	0.499929
C41	C	0.076744	-1.106972	-0.000064
C42	C	0.576744	-0.606972	0.499936
N43	N	-0.138794	-1.112522	0.063923
N44	N	0.361206	-0.612522	0.563923
N45	N	-0.208261	-1.111052	0.063919
N46	N	0.291739	-0.611052	0.563919
C47	C	-0.243757	-1.192081	-0.000086
C48	C	0.256243	-0.692081	0.499914
N49	N	-0.207158	-1.274646	-0.064073
N50	N	0.292842	-0.774646	0.435927
N51	N	-0.137684	-1.276118	-0.064064
N52	N	0.362316	-0.776118	0.435936
C53	C	-0.102723	-1.195070	-0.000071
C54	C	0.397277	-0.695070	0.499929
C55	C	-0.350089	-1.281743	-0.000106
C56	C	0.149911	-0.781743	0.499894
C57	C	-0.423221	-1.280193	-0.000131
C58	C	0.076779	-0.780193	0.499869
C59	C	-0.442261	-1.095953	-0.000124
C60	C	0.057739	-0.595953	0.499876
C61	C	-0.369132	-1.097508	-0.000110
C62	C	0.130868	-0.597508	0.499890
C63	C	-0.323049	-1.190404	-0.000096
C64	C	0.176951	-0.690404	0.499904
C65	C	0.452870	-1.185646	-0.000112
C66	C	0.952870	-0.685646	0.499888
C67	C	0.530696	-1.187301	-0.000130
C68	C	1.030696	-0.687301	0.499870
N69	N	0.356716	-1.132988	0.292825
N70	N	0.856716	-0.632988	0.792825
C71	C	0.452652	-0.530988	-0.000127
C72	C	0.952652	-0.030988	0.499873
C73	C	0.474369	-0.636407	-0.000136
C74	C	0.974369	-0.136407	0.499864
C75	C	0.424015	-0.701451	-0.000119
C76	C	0.924015	-0.201451	0.499881
C77	C	0.351940	-0.661067	-0.000094
C78	C	0.851940	-0.161067	0.499906
C79	C	0.330220	-0.555640	-0.000093
C80	C	0.830220	-0.055640	0.499907
C81	C	0.301583	-0.726103	-0.000086
C82	C	0.801583	-0.226103	0.499914
C83	C	0.229508	-0.685719	-0.000060
C84	C	0.729508	-0.185719	0.499940
C85	C	0.207792	-0.580302	-0.000059
C86	C	0.707792	-0.080302	0.499941
C87	C	0.258146	-0.515258	-0.000076
C88	C	0.758146	-0.015258	0.499924
C89	C	0.323303	-0.831530	-0.000086
C90	C	0.823303	-0.331530	0.499914
C91	C	0.200871	-0.856182	-0.000053
C92	C	0.700871	-0.356182	0.499947
C93	C	0.179154	-0.750763	-0.000043
C94	C	0.679154	-0.250763	0.499957
N95	N	0.296804	-1.254188	-0.292994
N96	N	0.796804	-0.754188	0.207006
C97	C	0.256657	-1.335365	0.647829
C98	C	0.756657	-0.835365	1.147829
C99	C	0.244556	-1.359835	0.529492
C100	C	0.744556	-0.859835	1.029492
C101	C	0.272595	-1.303125	0.470319
C102	C	0.772595	-0.803125	0.970319
C103	C	0.312738	-1.221942	0.529496
C104	C	0.812738	-0.721942	1.029496
C105	C	0.324845	-1.197474	0.647845
C106	C	0.824845	-0.697474	1.147845
C107	C	0.340783	-1.165235	0.470335
C108	C	0.840783	-0.665235	0.970335
C109	C	0.380926	-1.084051	0.529511
C110	C	0.880926	-0.584051	1.029511
C111	C	0.393031	-1.059587	0.647849
C112	C	0.893031	-0.559587	1.147849
C113	C	0.364992	-1.116297	0.707021
C114	C	0.864992	-0.616297	1.207021
C115	C	0.328675	-1.189702	0.351986
C116	C	0.828675	-0.689702	0.851986
C117	C	0.396863	-1.051811	0.352001
C118	C	0.896863	-0.551811	0.852001
C119	C	0.408964	-1.027341	0.470339
C120	C	0.908964	-0.527341	0.970339
H121	H	0.133305	-1.366847	-0.000041
H122	H	0.633305	-0.866847	0.499959
H123	H	0.441701	-0.787288	-0.000129
H124	H	0.941701	-0.287288	0.499871
H125	H	0.295991	-1.255802	0.303815
H126	H	0.795991	-0.755802	0.803815
O127	O	0.401039	-0.875073	-0.000092
O128	O	0.901039	-0.375073	0.499908
H129	H	0.418391	-0.864777	-0.076721
H130	H	0.918391	-0.364777	0.423279
O131	O	-0.006515	-1.388163	-0.000050
O132	O	0.493485	-0.888163	0.499950
H133	H	0.037815	-1.453018	-0.000030
H134	H	0.537815	-0.953018	0.499970
O135	O	0.552103	-0.679961	-0.000138
O136	O	1.052103	-0.179961	0.499862
H137	H	0.583471	-0.617020	-0.000132
H138	H	1.083471	-0.117020	0.499868
H139	H	-0.312567	-1.357386	-0.000100
H140	H	0.187433	-0.857386	0.499900
H141	H	0.233836	-1.381537	0.696015
H142	H	0.733836	-0.881537	1.196015
H143	H	0.493642	-0.478023	-0.000150
H144	H	0.993642	0.021977	0.499850
H145	H	-0.033912	-1.029788	-0.000071
H146	H	0.466088	-0.529788	0.499929
O147	O	-0.452383	-1.378708	-0.000119
O148	O	0.047617	-0.878708	0.499881
H149	H	-0.441600	-1.439045	-0.076734
H150	H	0.058400	-0.939045	0.423266
O151	O	0.234719	-0.401551	-0.000061
O152	O	0.734719	0.098449	0.499939
H153	H	0.281844	-0.363112	-0.000075
H154	H	0.781844	0.136888	0.499925
O155	O	-0.491957	-0.995757	-0.000115
O156	O	0.008043	-0.495757	0.499885
H157	H	-0.547350	-1.010018	-0.000112
H158	H	-0.047350	-0.510018	0.499888
H159	H	-0.347117	-1.023133	-0.000105
H160	H	0.152883	-0.523133	0.499895
H161	H	0.149102	-0.547428	-0.000051
H162	H	0.649102	-0.047428	0.499949
O163	O	0.101416	-0.707205	-0.000022
O164	O	0.601416	-0.207205	0.499978
H165	H	0.094777	-0.622975	-0.000031
H166	H	0.594777	-0.122975	0.499969
H167	H	0.425724	-0.993491	0.696030
H168	H	0.925724	-0.493491	1.196030
O169	O	0.378044	-1.089913	0.834662
O170	O	0.878044	-0.589913	1.334662
H171	H	0.355417	-1.008009	0.865888
H172	H	0.855417	-0.508009	1.365888
H173	H	0.441650	-0.961240	0.518535
H174	H	0.941650	-0.461240	1.018535
H175	H	0.419696	-1.005634	0.303824
H176	H	0.919696	-0.505634	0.803824
O177	O	0.146552	-0.926320	-0.000024
O178	O	0.646552	-0.426320	0.499976
H179	H	0.173765	-1.006407	-0.000013
H180	H	0.673765	-0.506407	0.499987
H181	H	0.098757	-1.032595	-0.000065
H182	H	0.598757	-0.532595	0.499935
H183	H	0.262740	-1.323053	0.373963
H184	H	0.762740	-0.823053	0.873963
H185	H	0.211873	-1.425935	0.481314
H186	H	0.711873	-0.925935	0.981314
