data_functionalizedCrystal
_audit_creation_method	'MofGen! by Chris Wilmer'
_symmetry_space_group_name_H-M	'P1'
_symmetry_Int_Tables_number	1
_symmetry_cell_setting	triclinic
loop_
_symmetry_equiv_pos_as_xyz
  x,y,z
_cell_length_a	17.639617
_cell_length_b	16.120444
_cell_length_c	17.640618
_cell_angle_alpha	97.806434
_cell_angle_beta	109.670355
_cell_angle_gamma	104.620503
loop_
_atom_site_label
_atom_site_type_symbol
_atom_site_fract_x
_atom_site_fract_y
_atom_site_fract_z
Zn1	Zn	1.358870	0.110298	0.716884
Zn2	Zn	1.858870	0.610298	1.216884
Zn3	Zn	1.323884	-0.064486	0.586005
Zn4	Zn	1.823884	0.435514	1.086005
Zn5	Zn	1.190313	0.039637	0.553964
Zn6	Zn	1.690313	0.539637	1.053964
Zn7	Zn	1.213986	-0.064402	0.695890
Zn8	Zn	1.713986	0.435598	1.195890
O9	O	1.271763	0.005262	0.638186
O10	O	1.771763	0.505262	1.138186
O11	O	1.470764	0.116649	0.721717
O12	O	1.970764	0.616649	1.221717
O13	O	1.281616	-0.080281	0.467585
O14	O	1.781616	0.419719	0.967585
O15	O	1.217407	0.165699	0.570952
O16	O	1.717407	0.665699	1.070952
O17	O	1.445059	-0.011764	0.625561
O18	O	1.945059	0.488236	1.125561
O19	O	1.341245	0.217613	0.690649
O20	O	1.841245	0.717613	1.190649
O21	O	1.183482	-0.003782	0.444045
O22	O	1.683482	0.496218	0.944045
O23	O	1.076919	-0.003701	0.550596
O24	O	1.576919	0.496299	1.050596
O25	O	1.257755	-0.011620	0.812845
O26	O	1.757755	0.488380	1.312845
O27	O	1.094311	-0.080137	0.654868
O28	O	1.594311	0.419863	1.154868
O29	O	1.364200	0.116731	0.828269
O30	O	1.864200	0.616731	1.328269
O31	O	1.304571	-0.181163	0.605205
O32	O	1.804571	0.318837	1.105205
O33	O	1.223829	-0.181101	0.685937
O34	O	1.723829	0.318899	1.185937
C35	C	1.055399	-0.049578	0.596978
C36	C	1.555399	0.450422	1.096978
C37	C	0.962841	-0.073054	0.579369
C38	C	1.462841	0.426946	1.079369
C39	C	0.725376	0.183674	0.772159
C40	C	1.225376	0.683674	1.272159
C41	C	0.638399	0.161590	0.755597
C42	C	1.138399	0.661590	1.255597
C43	C	0.611630	0.028012	0.655313
C44	C	1.111630	0.528012	1.155313
C45	C	0.698607	0.050082	0.671869
C46	C	1.198607	0.550082	1.171869
C47	C	0.755473	0.127915	0.730293
C48	C	1.255473	0.627915	1.230293
C49	C	0.728704	-0.005677	0.630003
C50	C	1.228704	0.494323	1.130003
C51	C	0.815673	0.016395	0.646555
C52	C	1.315673	0.516395	1.146555
C53	C	0.872544	0.094226	0.704974
C54	C	1.372544	0.594226	1.204974
C55	C	0.842442	0.149987	0.746845
C56	C	1.342442	0.649987	1.246845
C57	C	0.671835	-0.083506	0.571575
C58	C	1.171835	0.416494	1.071575
C59	C	0.701932	-0.139265	0.529708
C60	C	1.201932	0.360735	1.029708
C61	C	0.788903	-0.117197	0.546265
C62	C	1.288903	0.382803	1.046265
C63	C	0.845775	-0.039366	0.604683
C64	C	1.345775	0.460634	1.104683
C65	C	0.819005	-0.172958	0.504393
C66	C	1.319005	0.327042	1.004393
C67	C	0.905974	-0.150887	0.520946
C68	C	1.405974	0.349113	1.020946
C69	C	0.932744	-0.017295	0.621236
C70	C	1.432744	0.482705	1.121236
C71	C	1.262999	-0.211378	0.646792
C72	C	1.762999	0.288622	1.146792
C73	C	1.259331	-0.304031	0.650515
C74	C	1.759331	0.195969	1.150515
C75	C	1.291029	-0.514926	0.619084
C76	C	1.791029	-0.014926	1.119084
C77	C	1.252653	-0.473658	0.657325
C78	C	1.752653	0.026342	1.157325
C79	C	1.256370	-0.379269	0.653535
C80	C	1.756370	0.120731	1.153535
C81	C	1.287313	-0.609324	0.622873
C82	C	1.787313	-0.109324	1.122873
C83	C	1.488972	0.060315	0.679555
C84	C	1.988972	0.560315	1.179555
C85	C	1.581534	0.083775	0.697184
C86	C	2.081534	0.583775	1.197184
C87	C	1.317521	0.060447	0.850987
C88	C	1.817521	0.560447	1.350987
C89	C	1.337020	0.083963	0.941671
C90	C	1.837020	0.583963	1.441671
C91	C	1.280588	0.222758	0.629568
C92	C	1.780588	0.722758	1.129568
C93	C	1.284349	0.315442	0.625896
C94	C	1.784349	0.815442	1.125896
C95	C	1.226234	-0.049636	0.426219
C96	C	1.726234	0.450364	0.926219
C97	C	1.206905	-0.072877	0.335557
C98	C	1.706905	0.427123	0.835557
C99	C	1.419918	0.183929	1.077516
C100	C	1.919918	0.683929	1.577516
C101	C	1.401589	0.161823	0.992304
C102	C	1.901589	0.661823	1.492304
C103	C	1.290750	0.028180	0.976235
C104	C	1.790750	0.528180	1.476235
C105	C	1.309067	0.050276	1.061447
C106	C	1.809067	0.550276	1.561447
C107	C	1.373652	0.128151	1.112081
C108	C	1.873652	0.628151	1.612081
C109	C	1.262801	-0.005502	1.096012
C110	C	1.762801	0.494498	1.596012
C111	C	1.281120	0.016591	1.181217
C112	C	1.781120	0.516591	1.681217
C113	C	1.345704	0.094461	1.231856
C114	C	1.845704	0.594461	1.731856
C115	C	1.391971	0.150244	1.197285
C116	C	1.891971	0.650244	1.697285
C117	C	1.198220	-0.083380	1.045378
C118	C	1.698220	0.416620	1.545378
C119	C	1.151955	-0.139157	1.079943
C120	C	1.651955	0.360843	1.579943
C121	C	1.170269	-0.117062	1.165148
C122	C	1.670269	0.382938	1.665148
C123	C	1.234853	-0.039192	1.215787
C124	C	1.734853	0.460808	1.715787
C125	C	1.124002	-0.172845	1.199719
C126	C	1.624002	0.327155	1.699719
C127	C	1.142320	-0.150752	1.284923
C128	C	1.642320	0.349248	1.784923
C129	C	1.253171	-0.017099	1.300992
C130	C	1.753171	0.482901	1.800992
H131	H	0.655620	-0.202635	0.482138
H132	H	1.155620	0.297365	0.982138
F133	F	1.337617	-0.468453	0.572572
F134	F	1.837617	0.031547	1.072572
H135	H	1.305754	0.046322	1.342219
H136	H	1.805754	0.546322	1.842219
F137	F	0.758473	-0.255785	0.442209
F138	F	1.258473	0.244215	0.942209
H139	H	1.099371	-0.202565	1.038706
H140	H	1.599371	0.297435	1.538706
H141	H	0.771682	0.247052	0.819737
H142	H	1.271682	0.747052	1.319737
H143	H	0.565317	-0.035358	0.607742
H144	H	1.065317	0.464642	1.107742
H145	H	0.930479	-0.196291	0.486854
H146	H	1.430479	0.303709	0.986854
F147	F	0.579274	-0.106992	0.553955
F148	F	1.079274	0.393008	1.053955
F149	F	1.206058	-0.520133	0.703837
F150	F	1.706058	-0.020133	1.203837
H151	H	1.360619	0.112446	1.301235
H152	H	1.860619	0.612446	1.801235
H153	H	0.979049	0.046083	0.668813
H154	H	1.479049	0.546083	1.168813
H155	H	1.444553	0.213665	1.238512
H156	H	1.944553	0.713665	1.738512
F157	F	1.093078	-0.210116	1.321712
F158	F	1.593078	0.289884	1.821712
H159	H	1.238167	-0.035228	0.934999
H160	H	1.738167	0.464772	1.434999
F161	F	1.488631	0.266833	1.131402
F162	F	1.988631	0.766833	1.631402
F163	F	1.450839	0.221195	0.955521
F164	F	1.950839	0.721195	1.455521
H165	H	1.183311	-0.101367	0.976000
H166	H	1.683311	0.398633	1.476000
H167	H	0.943359	0.112197	0.718446
H168	H	1.443359	0.612197	1.218446
F169	F	0.902970	0.232822	0.809032
F170	F	1.402970	0.732822	1.309032
H171	H	1.071422	-0.236255	1.158482
H172	H	1.571422	0.263745	1.658482
H173	H	0.613899	0.207005	0.789691
H174	H	1.113899	0.707005	1.289691
