data_functionalizedCrystal
_audit_creation_method	'MofGen! by Chris Wilmer'
_symmetry_space_group_name_H-M	'P1'
_symmetry_Int_Tables_number	1
_symmetry_cell_setting	triclinic
loop_
_symmetry_equiv_pos_as_xyz
  x,y,z
_cell_length_a	12.759400
_cell_length_b	12.759401
_cell_length_c	16.625539
_cell_angle_alpha	90.019570
_cell_angle_beta	89.974233
_cell_angle_gamma	89.988829
loop_
_atom_site_label
_atom_site_type_symbol
_atom_site_fract_x
_atom_site_fract_y
_atom_site_fract_z
Zn1	Zn	-0.418363	-1.606244	-0.455902
Zn2	Zn	0.081637	-1.106244	0.044098
Zn3	Zn	-0.594064	-1.606142	-0.321075
Zn4	Zn	-0.094064	-1.106142	0.178925
Zn5	Zn	-0.418389	-1.430549	-0.321085
Zn6	Zn	0.081611	-0.930549	0.178915
Zn7	Zn	-0.593990	-1.430535	-0.455867
Zn8	Zn	-0.093990	-0.930535	0.044133
O9	O	-0.506201	-1.518368	-0.388482
O10	O	-0.006201	-1.018368	0.111518
O11	O	-0.441690	-1.753252	-0.438027
O12	O	0.058310	-1.253252	0.061973
O13	O	-0.570802	-1.582812	-0.208244
O14	O	-0.070802	-1.082812	0.291756
O15	O	-0.271364	-1.453905	-0.338987
O16	O	0.228636	-0.953905	0.161013
O17	O	-0.570777	-1.753176	-0.338971
O18	O	-0.070777	-1.253176	0.161029
O19	O	-0.271345	-1.582987	-0.438037
O20	O	0.228655	-1.082987	0.061963
O21	O	-0.441735	-1.453806	-0.208251
O22	O	0.058265	-0.953806	0.291749
O23	O	-0.441662	-1.283526	-0.338954
O24	O	0.058338	-0.783526	0.161046
O25	O	-0.570650	-1.453880	-0.568705
O26	O	-0.070650	-0.953880	-0.068705
O27	O	-0.570676	-1.283516	-0.437978
O28	O	-0.070676	-0.783516	0.062022
O29	O	-0.441618	-1.582973	-0.568730
O30	O	0.058382	-1.082973	-0.068730
O31	O	-0.741075	-1.582798	-0.338937
O32	O	-0.241075	-1.082798	0.161063
O33	O	-0.741021	-1.453780	-0.437968
O34	O	-0.241021	-0.953780	0.062032
C35	C	-0.506165	-1.245400	-0.388464
C36	C	-0.006165	-0.745400	0.111536
C37	C	-0.506174	-1.128624	-0.388475
C38	C	-0.006174	-0.628624	0.111525
C39	C	-0.438922	-0.964011	-0.337008
C40	C	0.061078	-0.464011	0.162992
C41	C	-0.438906	-1.073735	-0.337002
C42	C	0.061094	-0.573735	0.162998
C43	C	-0.573455	-1.073782	-0.439962
C44	C	-0.073455	-0.573782	0.060038
C45	C	-0.573465	-0.964060	-0.439971
C46	C	-0.073465	-0.464060	0.060029
C47	C	-0.371658	-0.909129	-0.285527
C48	C	0.128342	-0.409129	0.214473
C49	C	-0.304375	-0.963963	-0.234040
C50	C	0.195625	-0.463963	0.265960
C51	C	-0.304359	-1.073687	-0.234035
C52	C	0.195641	-0.573687	0.265965
C53	C	-0.371625	-1.128577	-0.285515
C54	C	0.128375	-0.628577	0.214485
C55	C	-0.779169	-1.518305	-0.388466
C56	C	-0.279169	-1.018305	0.111534
C57	C	-0.895945	-1.518375	-0.388485
C58	C	-0.395945	-1.018375	0.111515
C59	C	-0.950801	-1.585629	-0.336977
C60	C	-0.450801	-1.085629	0.163023
C61	C	-1.060525	-1.585693	-0.337002
C62	C	-0.560525	-1.085693	0.162998
C63	C	-1.060528	-1.451241	-0.440046
C64	C	-0.560528	-0.951241	0.059954
C65	C	-0.950806	-1.451182	-0.440025
C66	C	-0.450806	-0.951182	0.059975
C67	C	-0.895940	-1.652821	-0.285438
C68	C	-0.395940	-1.152821	0.214562
C69	C	-0.950796	-1.720080	-0.233924
C70	C	-0.450796	-1.220080	0.266076
C71	C	-1.060520	-1.720144	-0.233949
C72	C	-0.560520	-1.220144	0.266051
C73	C	-1.115388	-1.652950	-0.285487
C74	C	-0.615388	-1.152950	0.214513
C75	C	-0.232168	-1.518459	-0.388517
C76	C	0.267832	-1.018459	0.111483
C77	C	-0.115391	-1.518498	-0.388532
C78	C	0.384609	-1.018498	0.111468
C79	C	-0.506123	-1.518436	-0.598791
C80	C	-0.006123	-1.018436	-0.098791
C81	C	-0.506090	-1.518465	-0.688413
C82	C	-0.006090	-1.018465	-0.188413
C83	C	-0.506225	-0.792401	-0.388497
C84	C	-0.006225	-0.292401	0.111503
C85	C	-0.506200	-0.909177	-0.388489
C86	C	-0.006200	-0.409177	0.111511
C87	C	-0.505972	-1.518513	-1.016588
C88	C	-0.005972	-1.018513	-0.516588
C89	C	-0.506008	-1.518497	-0.925280
C90	C	-0.006008	-1.018497	-0.425280
C91	C	-0.506032	-1.518490	-0.852503
C92	C	-0.006032	-1.018490	-0.352503
C93	C	-0.506066	-1.518472	-0.761189
C94	C	-0.006066	-1.018472	-0.261189
C95	C	-0.506204	-1.518360	-0.178992
C96	C	-0.006204	-1.018360	0.321008
C97	C	-0.505941	-1.518534	-0.089371
C98	C	-0.005941	-1.018534	0.410629
H99	H	-0.628245	-0.919413	-0.481894
H100	H	-0.128245	-0.419413	0.018106
F101	F	-0.779163	-1.652988	-0.285584
F102	F	-0.279163	-1.152988	0.214416
H103	H	-0.906116	-1.774794	-0.191968
H104	H	-0.406116	-1.274794	0.308032
F105	F	-0.371600	-1.245357	-0.285510
F106	F	0.128400	-0.745357	0.214490
H107	H	-1.105180	-1.774917	-0.192010
H108	H	-0.605180	-1.274917	0.307990
H109	H	-0.628220	-1.118482	-0.481874
H110	H	-0.128220	-0.618482	0.018126
H111	H	-0.249567	-1.118330	-0.192118
H112	H	0.250433	-0.618330	0.307882
F113	F	-1.232167	-1.652683	-0.285250
F114	F	-0.732167	-1.152683	0.214750
H115	H	-0.906142	-1.396419	-0.481968
H116	H	-0.406142	-0.896419	0.018032
H117	H	-0.371665	-0.819786	-0.285524
H118	H	0.128335	-0.319786	0.214476
H119	H	-0.249603	-0.919265	-0.192132
H120	H	0.250397	-0.419265	0.307868
F121	F	-1.118926	-1.379731	-0.494891
F122	F	-0.618926	-0.879731	0.005109
