data_functionalizedCrystal
_audit_creation_method	'MofGen! by Chris Wilmer'
_symmetry_space_group_name_H-M	'P1'
_symmetry_Int_Tables_number	1
_symmetry_cell_setting	triclinic
loop_
_symmetry_equiv_pos_as_xyz
  x,y,z
_cell_length_a	16.974829
_cell_length_b	10.540510
_cell_length_c	16.053802
_cell_angle_alpha	92.593693
_cell_angle_beta	83.771117
_cell_angle_gamma	83.954751
loop_
_atom_site_label
_atom_site_type_symbol
_atom_site_fract_x
_atom_site_fract_y
_atom_site_fract_z
O1	O	1.056754	0.150981	-0.140825
O2	O	1.556754	0.650981	0.359175
O3	O	0.825920	0.172779	-0.125230
O4	O	1.325920	0.672779	0.374770
O5	O	0.946616	-0.022942	-0.133384
O6	O	1.446616	0.477058	0.366616
O7	O	0.936059	0.346702	-0.132671
O8	O	1.436059	0.846702	0.367329
O9	O	0.939972	-0.012213	0.005924
O10	O	1.439972	0.487787	0.505924
O11	O	0.819277	0.183508	0.014078
O12	O	1.319277	0.683508	0.514078
O13	O	1.050110	0.161710	-0.001517
O14	O	1.550110	0.661710	0.498483
Zn15	Zn	0.933639	0.174313	0.028399
Zn16	Zn	1.433639	0.674313	0.528399
Zn17	Zn	0.942392	0.160177	-0.155145
Zn18	Zn	1.442392	0.660177	0.344855
O19	O	0.929415	0.357431	0.006637
O20	O	1.429415	0.857431	0.506637
C21	C	0.793041	0.177513	-0.053579
C22	C	1.293041	0.677513	0.446421
C23	C	0.704968	0.175616	-0.047629
C24	C	1.204968	0.675616	0.452371
C25	C	0.208817	0.165612	-0.005984
C26	C	0.708817	0.665612	0.494016
C27	C	0.291571	0.167394	-0.011577
C28	C	0.791571	0.667394	0.488423
C29	C	0.336571	0.162426	-0.090311
C30	C	0.836571	0.662426	0.409689
C31	C	0.298811	0.155690	-0.163457
C32	C	0.798811	0.655690	0.336543
C33	C	0.216058	0.153918	-0.157864
C34	C	0.716058	0.653918	0.342136
C35	C	0.584455	0.167108	-0.115182
C36	C	1.084455	0.667108	0.384818
C37	C	0.667214	0.168877	-0.120770
C38	C	1.167214	0.668877	0.379230
C39	C	0.659968	0.180583	0.031112
C40	C	1.159968	0.680583	0.531112
C41	C	0.577214	0.178802	0.036698
C42	C	1.077214	0.678802	0.536698
C43	C	0.539461	0.172073	-0.036448
C44	C	1.039461	0.672073	0.463552
N45	N	0.421159	0.164243	-0.096029
N46	N	0.921159	0.664243	0.403971
N47	N	0.454874	0.170265	-0.030729
N48	N	0.954874	0.670265	0.469271
C49	C	0.942507	-0.064864	-0.063678
C50	C	1.442507	0.435136	0.436322
C51	C	0.940154	-0.205764	-0.063524
C52	C	1.440154	0.294236	0.436476
C53	C	1.023985	-0.424990	-0.068870
C54	C	1.523985	0.075010	0.431130
C55	C	1.026511	-0.278473	-0.069358
C56	C	1.526511	0.221527	0.430642
C57	C	0.899741	-0.255703	-0.140087
C58	C	1.399741	0.244297	0.359913
C59	C	0.897845	-0.402428	-0.140021
C60	C	1.397845	0.097572	0.359979
C61	C	0.888491	-0.389997	0.018519
C62	C	1.388491	0.110003	0.518519
C63	C	0.892537	-0.243663	0.019289
C64	C	1.392537	0.256337	0.519289
C65	C	1.082990	0.156977	-0.073170
C66	C	1.582990	0.656977	0.426830
C67	C	1.171063	0.158873	-0.079125
C68	C	1.671063	0.658873	0.420875
C69	C	0.933523	0.399353	-0.063070
C70	C	1.433523	0.899353	0.436930
C71	C	0.935877	0.540253	-0.063230
C72	C	1.435877	1.040253	0.436770
N73	N	0.927671	0.183959	0.153662
N74	N	1.427671	0.683959	0.653662
N75	N	0.948366	0.150520	-0.280409
N76	N	1.448366	0.650520	0.219591
C77	C	0.979046	0.100709	0.193885
C78	C	1.479046	0.600709	0.693885
C79	C	0.974878	0.107469	0.281574
C80	C	1.474878	0.607469	0.781574
C81	C	0.919339	0.197486	0.329037
C82	C	1.419339	0.697486	0.829037
C83	C	0.867959	0.280739	0.288808
C84	C	1.367959	0.780739	0.788808
C85	C	0.872123	0.273973	0.201122
C86	C	1.372123	0.773973	0.701122
C87	C	0.901150	0.227008	0.591675
C88	C	1.401150	0.727008	1.091675
C89	C	0.896991	0.233771	0.679368
C90	C	1.396991	0.733771	1.179368
C91	C	1.003911	0.060497	0.672127
C92	C	1.503911	0.560497	1.172127
C93	C	1.008073	0.053744	0.584439
C94	C	1.508073	0.553744	1.084439
C95	C	0.956689	0.136993	0.544218
C96	C	1.456689	0.636993	1.044218
N97	N	0.915080	0.204400	0.418668
N98	N	1.415080	0.704400	0.918668
N99	N	0.960945	0.130072	0.454588
N100	N	1.460945	0.630072	0.954588
H101	H	0.690715	0.186064	0.090663
H102	H	1.190715	0.686064	0.590663
N103	N	0.160288	0.170958	0.078938
N104	N	0.660288	0.670958	0.578938
H105	H	0.196832	0.174615	0.124415
H106	H	0.696832	0.674615	0.624415
H107	H	0.120175	0.249628	0.085197
H108	H	0.620175	0.749628	0.585197
N109	N	1.038935	0.003606	0.142688
N110	N	1.538935	0.503606	0.642688
H111	H	1.076056	0.049084	0.103898
H112	H	1.576056	0.549084	0.603898
H113	H	1.070792	-0.048093	0.181527
H114	H	1.570792	0.451907	0.681527
H115	H	0.335456	0.151654	-0.227565
H116	H	0.835456	0.651654	0.272435
H117	H	0.930892	-0.447870	-0.201527
H118	H	1.430892	0.052130	0.298473
H119	H	0.185320	0.148433	-0.217424
H120	H	0.685320	0.648433	0.282576
N121	N	1.067979	-0.043346	0.533252
N122	N	1.567979	0.456654	1.033252
H123	H	1.123629	-0.027878	0.544696
H124	H	1.623629	0.472122	1.044696
H125	H	1.057550	-0.132162	0.549196
H126	H	1.557550	0.367838	1.049196
N127	N	0.812522	-0.431440	-0.139036
N128	N	1.312522	0.068560	0.360964
H129	H	0.776307	-0.348947	-0.138649
H130	H	1.276307	0.151053	0.361351
H131	H	0.807205	-0.486901	-0.190651
H132	H	1.307205	0.013099	0.309349
N133	N	1.071877	-0.489326	-0.147011
N134	N	1.571877	0.010674	0.352989
H135	H	1.128395	-0.466496	-0.150155
H136	H	1.628395	0.033504	0.349845
H137	H	1.072187	-0.585010	-0.145039
H138	H	1.572187	-0.085010	0.354961
H139	H	0.322307	0.172878	0.047983
H140	H	0.822307	0.672878	0.547983
H141	H	0.823628	-0.410718	0.023435
H142	H	1.323628	0.089282	0.523435
H143	H	1.016712	0.039679	0.314323
H144	H	1.516712	0.539679	0.814323
H145	H	0.851762	0.307079	0.718009
H146	H	1.351762	0.807079	1.218009
N147	N	0.815720	-0.191420	-0.138330
N148	N	1.315720	0.308580	0.361670
H149	H	0.790898	-0.224964	-0.188110
H150	H	1.290898	0.275036	0.311890
H151	H	0.783173	-0.210182	-0.084731
H152	H	1.283173	0.289818	0.415269
N153	N	0.920842	-0.440821	0.095947
N154	N	1.420842	0.059179	0.595947
H155	H	0.889594	-0.394756	0.147662
H156	H	1.389594	0.105244	0.647662
H157	H	0.915768	-0.535333	0.097333
H158	H	1.415768	-0.035333	0.597333
N159	N	1.068702	-0.234748	0.003093
N160	N	1.568702	0.265252	0.503093
H161	H	1.085826	-0.310699	0.035634
H162	H	1.585826	0.189301	0.535634
H163	H	1.117158	-0.193398	-0.019165
H164	H	1.617158	0.306602	0.480835
N165	N	1.076202	-0.247645	-0.148134
N166	N	1.576202	0.252355	0.351866
H167	H	1.096544	-0.329291	-0.182680
H168	H	1.596544	0.170709	0.317320
H169	H	1.042423	-0.189678	-0.181922
H170	H	1.542423	0.310322	0.318078
N171	N	0.944142	-0.221753	-0.221258
N172	N	1.444142	0.278247	0.278742
H173	H	0.990434	-0.174049	-0.208616
H174	H	1.490434	0.325951	0.291384
H175	H	0.964746	-0.302527	-0.256624
H176	H	1.464746	0.197473	0.243376
N177	N	0.931417	-0.200668	0.094371
N178	N	1.431417	0.299332	0.594371
H179	H	0.979673	-0.156820	0.074832
H180	H	1.479673	0.343180	0.574832
H181	H	0.892120	-0.139119	0.132203
H182	H	1.392120	0.360881	0.632203
H183	H	0.829261	-0.192877	0.028353
H184	H	1.329261	0.307123	0.528353
N185	N	1.059328	-0.029290	0.715508
N186	N	1.559328	0.470710	1.215508
H187	H	1.048265	-0.011348	0.778259
H188	H	1.548265	0.488652	1.278259
H189	H	1.050391	-0.120465	0.700842
H190	H	1.550391	0.379535	1.200842
N191	N	0.845727	0.316787	0.548300
N192	N	1.345727	0.816787	1.048300
H193	H	0.809914	0.374837	0.591676
H194	H	1.309914	0.874837	1.091676
H195	H	0.878127	0.369919	0.509829
H196	H	1.378127	0.869919	1.009829
N197	N	0.808056	0.377839	0.339992
N198	N	1.308056	0.877839	0.839992
H199	H	0.752402	0.362377	0.328557
H200	H	1.252402	0.862377	0.828557
H201	H	0.813283	0.369454	0.401626
H202	H	1.313283	0.869454	0.901626
H203	H	0.830286	0.341762	0.168373
H204	H	1.330286	0.841762	0.668373
H205	H	0.540583	0.182819	0.100812
H206	H	1.040583	0.682819	0.600812
H207	H	1.054909	-0.463272	-0.014094
H208	H	1.554909	0.036728	0.485906
H209	H	0.703850	0.164842	-0.184888
H210	H	1.203850	0.664842	0.315112
H211	H	0.553727	0.161624	-0.174743
H212	H	1.053727	0.661624	0.325257
