data_functionalizedCrystal
_audit_creation_method	'MofGen! by Chris Wilmer'
_symmetry_space_group_name_H-M	'P1'
_symmetry_Int_Tables_number	1
_symmetry_cell_setting	triclinic
loop_
_symmetry_equiv_pos_as_xyz
  x,y,z
_cell_length_a	21.395362
_cell_length_b	18.215405
_cell_length_c	21.395355
_cell_angle_alpha	90.019851
_cell_angle_beta	90.043940
_cell_angle_gamma	90.040762
loop_
_atom_site_label
_atom_site_type_symbol
_atom_site_fract_x
_atom_site_fract_y
_atom_site_fract_z
Zn1	Zn	0.957885	-0.292758	0.354580
Zn2	Zn	1.207885	-0.042758	0.604580
Zn3	Zn	1.457885	0.207242	0.854580
Zn4	Zn	1.707885	0.457242	1.104580
Zn5	Zn	0.957798	-0.415806	0.249800
Zn6	Zn	1.207798	-0.165806	0.499800
Zn7	Zn	1.457798	0.084194	0.749800
Zn8	Zn	1.707798	0.334194	0.999800
Zn9	Zn	0.853100	-0.292792	0.249781
Zn10	Zn	1.103100	-0.042792	0.499781
Zn11	Zn	1.353100	0.207208	0.749781
Zn12	Zn	1.603100	0.457208	0.999781
Zn13	Zn	0.853080	-0.415821	0.354505
Zn14	Zn	1.103080	-0.165821	0.604505
Zn15	Zn	1.353080	0.084179	0.854505
Zn16	Zn	1.603080	0.334179	1.104505
O17	O	0.905466	-0.354294	0.302166
O18	O	1.155466	-0.104294	0.552166
O19	O	1.405466	0.145706	0.802166
O20	O	1.655466	0.395706	1.052166
O21	O	1.045551	-0.309060	0.340720
O22	O	1.295551	-0.059060	0.590720
O23	O	1.545551	0.190940	0.840720
O24	O	1.795551	0.440940	1.090720
O25	O	0.943882	-0.399496	0.162119
O26	O	1.193882	-0.149496	0.412119
O27	O	1.443882	0.100504	0.662119
O28	O	1.693882	0.350504	0.912119
O29	O	0.867045	-0.189803	0.263706
O30	O	1.117045	0.060197	0.513706
O31	O	1.367045	0.310197	0.763706
O32	O	1.617045	0.560197	1.013706
O33	O	1.045487	-0.399463	0.263739
O34	O	1.295487	-0.149463	0.513739
O35	O	1.545487	0.100537	0.763739
O36	O	1.795487	0.350537	1.013739
O37	O	0.944030	-0.189778	0.340702
O38	O	1.194030	0.060222	0.590702
O39	O	1.444030	0.310222	0.840702
O40	O	1.694030	0.560222	1.090702
O41	O	0.866960	-0.309118	0.162106
O42	O	1.116960	-0.059118	0.412106
O43	O	1.366960	0.190882	0.662106
O44	O	1.616960	0.440882	0.912106
O45	O	0.765419	-0.309133	0.263634
O46	O	1.015419	-0.059133	0.513634
O47	O	1.265419	0.190867	0.763634
O48	O	1.515419	0.440867	1.013634
O49	O	0.867010	-0.399488	0.442193
O50	O	1.117010	-0.149488	0.692193
O51	O	1.367010	0.100512	0.942193
O52	O	1.617010	0.350512	1.192193
O53	O	0.765404	-0.399522	0.340573
O54	O	1.015404	-0.149522	0.590573
O55	O	1.265404	0.100478	0.840573
O56	O	1.515404	0.350478	1.090573
O57	O	0.944010	-0.309074	0.442248
O58	O	1.194010	-0.059074	0.692248
O59	O	1.444010	0.190926	0.942248
O60	O	1.694010	0.440926	1.192248
O61	O	0.943862	-0.518792	0.263666
O62	O	1.193862	-0.268792	0.513666
O63	O	1.443862	-0.018792	0.763666
O64	O	1.693862	0.231208	1.013666
O65	O	0.866926	-0.518803	0.340592
O66	O	1.116926	-0.268803	0.590592
O67	O	1.366926	-0.018803	0.840592
O68	O	1.616926	0.231197	1.090592
C69	C	0.742678	-0.354333	0.302094
C70	C	0.992678	-0.104333	0.552094
C71	C	1.242678	0.145667	0.802094
C72	C	1.492678	0.395667	1.052094
C73	C	0.673037	-0.354367	0.302077
C74	C	0.923037	-0.104367	0.552077
C75	C	1.173037	0.145633	0.802077
C76	C	1.423037	0.395633	1.052077
C77	C	0.640332	-0.401495	0.342080
C78	C	0.890332	-0.151495	0.592080
C79	C	1.140332	0.098505	0.842080
C80	C	1.390332	0.348505	1.092080
C81	C	0.574897	-0.401477	0.342108
C82	C	0.824897	-0.151477	0.592108
C83	C	1.074897	0.098523	0.842108
C84	C	1.324897	0.348523	1.092108
C85	C	0.542168	-0.354339	0.302122
C86	C	0.792168	-0.104339	0.552122
C87	C	1.042168	0.145661	0.802122
C88	C	1.292168	0.395661	1.052122
C89	C	0.574881	-0.307202	0.262117
C90	C	0.824881	-0.057202	0.512117
C91	C	1.074881	0.192798	0.762117
C92	C	1.324881	0.442798	1.012117
C93	C	0.640315	-0.307216	0.262094
C94	C	0.890315	-0.057216	0.512094
C95	C	1.140315	0.192784	0.762094
C96	C	1.390315	0.442784	1.012094
C97	C	0.438443	-0.348410	0.245717
C98	C	0.688443	-0.098410	0.495717
C99	C	0.938443	0.151590	0.745717
C100	C	1.188443	0.401590	0.995717
C101	C	0.373010	-0.348401	0.245738
C102	C	0.623010	-0.098401	0.495738
C103	C	0.873010	0.151599	0.745738
C104	C	1.123010	0.401599	0.995738
C105	C	0.340348	-0.354291	0.302191
C106	C	0.590348	-0.104291	0.552191
C107	C	0.840348	0.145709	0.802191
C108	C	1.090348	0.395709	1.052191
C109	C	0.373126	-0.360205	0.358625
C110	C	0.623126	-0.110205	0.608625
C111	C	0.873126	0.139795	0.858625
C112	C	1.123126	0.389795	1.108625
C113	C	0.438560	-0.360219	0.358602
C114	C	0.688560	-0.110219	0.608602
C115	C	0.938560	0.139781	0.858602
C116	C	1.188560	0.389781	1.108602
C117	C	0.471216	-0.354318	0.302142
C118	C	0.721216	-0.104318	0.552142
C119	C	0.971216	0.145682	0.802142
C120	C	1.221216	0.395682	1.052142
C121	C	0.236691	-0.401402	0.342228
C122	C	0.486691	-0.151402	0.592228
C123	C	0.736691	0.098598	0.842228
C124	C	0.986691	0.348598	1.092228
C125	C	0.171254	-0.401379	0.342256
C126	C	0.421254	-0.151379	0.592256
C127	C	0.671254	0.098621	0.842256
C128	C	0.921254	0.348621	1.092256
C129	C	0.171239	-0.307107	0.262260
C130	C	0.421239	-0.057107	0.512260
C131	C	0.671239	0.192893	0.762260
C132	C	0.921239	0.442893	1.012260
C133	C	0.236675	-0.307127	0.262236
C134	C	0.486675	-0.057127	0.512236
C135	C	0.736675	0.192873	0.762236
C136	C	0.986675	0.442873	1.012236
C137	C	0.269396	-0.354278	0.302219
C138	C	0.519396	-0.104278	0.552219
C139	C	0.769396	0.145722	0.802219
C140	C	1.019396	0.395722	1.052219
C141	C	0.905399	-0.545500	0.302136
C142	C	1.155399	-0.295500	0.552136
C143	C	1.405399	-0.045500	0.802136
C144	C	1.655399	0.204500	1.052136
C145	C	0.905428	-0.627299	0.302144
C146	C	1.155428	-0.377299	0.552144
C147	C	1.405428	-0.127299	0.802144
C148	C	1.655428	0.122701	1.052144
C149	C	0.945583	-0.815463	0.262163
C150	C	1.195583	-0.565463	0.512163
C151	C	1.445583	-0.315463	0.762163
C152	C	1.695583	-0.065463	1.012163
C153	C	0.945611	-0.892322	0.262178
C154	C	1.195611	-0.642322	0.512178
C155	C	1.445611	-0.392322	0.762178
C156	C	1.695611	-0.142322	1.012178
C157	C	0.865428	-0.892373	0.342215
C158	C	1.115428	-0.642373	0.592215
C159	C	1.365428	-0.392373	0.842215
C160	C	1.615428	-0.142373	1.092215
C161	C	0.865404	-0.815516	0.342203
C162	C	1.115404	-0.565516	0.592203
C163	C	1.365404	-0.315516	0.842203
C164	C	1.615404	-0.065516	1.092203
C165	C	0.905480	-0.777063	0.302173
C166	C	1.155480	-0.527063	0.552173
C167	C	1.405480	-0.277063	0.802173
C168	C	1.655480	-0.027063	1.052173
C169	C	0.905533	-0.930779	0.302200
C170	C	1.155533	-0.680779	0.552200
C171	C	1.405533	-0.430779	0.802200
C172	C	1.655533	-0.180779	1.052200
C173	C	0.905563	-1.014112	0.302217
C174	C	1.155563	-0.764112	0.552217
C175	C	1.405563	-0.514112	0.802217
C176	C	1.655563	-0.264112	1.052217
C177	C	0.905451	-0.693724	0.302157
C178	C	1.155451	-0.443724	0.552157
C179	C	1.405451	-0.193724	0.802157
C180	C	1.655451	0.056276	1.052157
C181	C	1.068889	-0.354256	0.302240
C182	C	1.318889	-0.104256	0.552240
C183	C	1.568889	0.145744	0.802240
C184	C	1.818889	0.395744	1.052240
C185	C	1.138530	-0.354239	0.302271
C186	C	1.388530	-0.104239	0.552271
C187	C	1.638530	0.145761	0.802271
C188	C	1.888530	0.395761	1.052271
C189	C	0.905518	-0.354279	0.465590
C190	C	1.155518	-0.104279	0.715590
C191	C	1.405518	0.145721	0.965590
C192	C	1.655518	0.395721	1.215590
C193	C	0.905540	-0.354273	0.535231
C194	C	1.155540	-0.104273	0.785231
C195	C	1.405540	0.145727	1.035231
C196	C	1.655540	0.395727	1.285231
C197	C	0.905549	-0.162341	0.302210
C198	C	1.155549	0.087659	0.552210
C199	C	1.405549	0.337659	0.802210
C200	C	1.655549	0.587659	1.052210
C201	C	0.905585	-0.080542	0.302229
C202	C	1.155585	0.169458	0.552229
C203	C	1.405585	0.419458	0.802229
C204	C	1.655585	0.669458	1.052229
C205	C	0.905450	-0.354256	0.139379
C206	C	1.155450	-0.104256	0.389379
C207	C	1.405450	0.145744	0.639379
C208	C	1.655450	0.395744	0.889379
C209	C	0.905549	-0.354055	0.069738
C210	C	1.155549	-0.104055	0.319738
C211	C	1.405549	0.145945	0.569738
C212	C	1.655549	0.395945	0.819738
C213	C	0.945632	-0.307192	0.567974
C214	C	1.195632	-0.057192	0.817974
C215	C	1.445632	0.192808	1.067974
C216	C	1.695632	0.442808	1.317974
C217	C	0.945631	-0.307161	0.633409
C218	C	1.195631	-0.057161	0.883409
C219	C	1.445631	0.192839	1.133409
C220	C	1.695631	0.442839	1.383409
C221	C	0.905545	-0.354223	0.666099
C222	C	1.155545	-0.104223	0.916099
C223	C	1.405545	0.145777	1.166099
C224	C	1.655545	0.395777	1.416099
C225	C	0.865445	-0.401307	0.633349
C226	C	1.115445	-0.151307	0.883349
C227	C	1.365445	0.098693	1.133349
C228	C	1.615445	0.348693	1.383349
C229	C	0.865442	-0.401332	0.567914
C230	C	1.115442	-0.151332	0.817914
C231	C	1.365442	0.098668	1.067914
C232	C	1.615442	0.348668	1.317914
C233	C	0.900574	-0.420488	0.769762
C234	C	1.150574	-0.170488	1.019762
C235	C	1.400574	0.079512	1.269762
C236	C	1.650574	0.329512	1.519762
C237	C	0.900581	-0.420465	0.835195
C238	C	1.150581	-0.170465	1.085195
C239	C	1.400581	0.079535	1.335195
C240	C	1.650581	0.329535	1.585195
C241	C	0.905548	-0.354145	0.867920
C242	C	1.155548	-0.104145	1.117920
C243	C	1.405548	0.145855	1.367920
C244	C	1.655548	0.395855	1.617920
C245	C	0.910522	-0.287847	0.835205
C246	C	1.160522	-0.037847	1.085205
C247	C	1.410522	0.212153	1.335205
C248	C	1.660522	0.462153	1.585205
C249	C	0.910520	-0.287872	0.769770
C250	C	1.160520	-0.037872	1.019770
C251	C	1.410520	0.212128	1.269770
C252	C	1.660520	0.462128	1.519770
C253	C	0.905542	-0.354200	0.737052
C254	C	1.155542	-0.104200	0.987052
C255	C	1.405542	0.145800	1.237052
C256	C	1.655542	0.395800	1.487052
C257	C	0.945642	-0.307026	0.971616
C258	C	1.195642	-0.057026	1.221616
C259	C	1.445642	0.192974	1.471616
C260	C	1.695642	0.442974	1.721616
C261	C	0.945637	-0.306993	1.037052
C262	C	1.195637	-0.056993	1.287052
C263	C	1.445637	0.193007	1.537052
C264	C	1.695637	0.443007	1.787052
C265	C	0.865454	-0.401146	1.036990
C266	C	1.115454	-0.151146	1.286990
C267	C	1.365454	0.098854	1.536990
C268	C	1.615454	0.348854	1.786990
C269	C	0.865455	-0.401172	0.971555
C270	C	1.115455	-0.151172	1.221555
C271	C	1.365455	0.098828	1.471555
C272	C	1.615455	0.348828	1.721555
C273	C	0.905553	-0.354113	0.938872
C274	C	1.155553	-0.104113	1.188872
C275	C	1.405553	0.145887	1.438872
C276	C	1.655553	0.395887	1.688872
H277	H	0.465246	-0.365033	0.404553
H278	H	0.715246	-0.115033	0.654553
H279	H	0.965246	0.134967	0.904553
H280	H	1.215246	0.384967	1.154553
H281	H	0.346534	-0.365000	0.404594
H282	H	0.596534	-0.115000	0.654594
H283	H	0.846534	0.135000	0.904594
H284	H	1.096534	0.385000	1.154594
H285	H	0.978268	-0.923584	0.229598
H286	H	1.228268	-0.673584	0.479598
H287	H	1.478268	-0.423584	0.729598
H288	H	1.728268	-0.173584	0.979598
Br289	Br	0.810980	-0.763396	0.396512
Br290	Br	1.060980	-0.513396	0.646512
Br291	Br	1.310980	-0.263396	0.896512
Br292	Br	1.560980	-0.013396	1.146512
Br293	Br	0.281062	-0.243164	0.207944
Br294	Br	0.531062	0.006836	0.457944
Br295	Br	0.781062	0.256836	0.707944
Br296	Br	1.031062	0.506836	0.957944
H297	H	0.832791	-0.439669	0.541255
H298	H	1.082791	-0.189669	0.791255
H299	H	1.332791	0.060331	1.041255
H300	H	1.582791	0.310331	1.291255
Br301	Br	0.482764	-0.340417	0.169095
Br302	Br	0.732764	-0.090417	0.419095
Br303	Br	0.982764	0.159583	0.669095
Br304	Br	1.232764	0.409583	0.919095
Br305	Br	1.000047	-0.243324	0.523621
Br306	Br	1.250047	0.006676	0.773621
Br307	Br	1.500047	0.256676	1.023621
Br308	Br	1.750047	0.506676	1.273621
H309	H	0.666970	-0.439889	0.374638
H310	H	0.916970	-0.189889	0.624638
H311	H	1.166970	0.060111	0.874638
H312	H	1.416970	0.310111	1.124638
H313	H	0.832798	-0.923691	0.374805
H314	H	1.082798	-0.673691	0.624805
H315	H	1.332798	-0.423691	0.874805
H316	H	1.582798	-0.173691	1.124805
Br317	Br	0.917266	-0.197902	0.725372
Br318	Br	1.167266	0.052098	0.975372
Br319	Br	1.417266	0.302098	1.225372
Br320	Br	1.667266	0.552098	1.475372
Br321	Br	0.999973	-0.763279	0.207837
Br322	Br	1.249973	-0.513279	0.457837
Br323	Br	1.499973	-0.263279	0.707837
Br324	Br	1.749973	-0.013279	0.957837
H325	H	0.346327	-0.343590	0.199787
H326	H	0.596327	-0.093590	0.449787
H327	H	0.846327	0.156410	0.699787
H328	H	1.096327	0.406410	0.949787
Br329	Br	1.000030	-0.243243	0.677856
Br330	Br	1.250030	0.006757	0.927856
Br331	Br	1.500030	0.256757	1.177856
Br332	Br	1.750030	0.506757	1.427856
H333	H	0.914568	-0.233843	0.861848
H334	H	1.164568	0.016157	1.111848
H335	H	1.414568	0.266157	1.361848
H336	H	1.664568	0.516157	1.611848
H337	H	0.978288	-0.268704	0.945003
H338	H	1.228288	-0.018704	1.195003
H339	H	1.478288	0.231296	1.445003
H340	H	1.728288	0.481296	1.695003
H341	H	0.832804	-0.439623	0.659969
H342	H	1.082804	-0.189623	0.909969
H343	H	1.332804	0.060377	1.159969
H344	H	1.582804	0.310377	1.409969
Br345	Br	0.893840	-0.510439	0.879588
Br346	Br	1.143840	-0.260439	1.129588
Br347	Br	1.393840	-0.010439	1.379588
Br348	Br	1.643840	0.239561	1.629588
H349	H	0.548264	-0.439854	0.374685
H350	H	0.798264	-0.189854	0.624685
H351	H	1.048264	0.060146	0.874685
H352	H	1.298264	0.310146	1.124685
Br353	Br	0.530465	-0.243222	0.207855
Br354	Br	0.780465	0.006778	0.457855
Br355	Br	1.030465	0.256778	0.707855
Br356	Br	1.280465	0.506778	0.957855
Br357	Br	1.000062	-0.243103	1.081491
Br358	Br	1.250062	0.006897	1.331491
Br359	Br	1.500062	0.256897	1.581491
Br360	Br	1.750062	0.506897	1.831491
Br361	Br	0.811041	-0.465008	1.081348
Br362	Br	1.061041	-0.215008	1.331348
Br363	Br	1.311041	0.034992	1.581348
Br364	Br	1.561041	0.284992	1.831348
H365	H	0.263334	-0.439792	0.374787
H366	H	0.513334	-0.189792	0.624787
H367	H	0.763334	0.060208	0.874787
H368	H	1.013334	0.310208	1.124787
Br369	Br	0.126868	-0.465338	0.396556
Br370	Br	0.376868	-0.215338	0.646556
Br371	Br	0.626868	0.034662	0.896556
Br372	Br	0.876868	0.284662	1.146556
Br373	Br	0.126829	-0.243126	0.207998
Br374	Br	0.376829	0.006874	0.457998
Br375	Br	0.626829	0.256874	0.707998
Br376	Br	0.876829	0.506874	0.957998
Br377	Br	0.811043	-0.465072	0.927115
Br378	Br	1.061043	-0.215072	1.177115
Br379	Br	1.311043	0.034928	1.427115
Br380	Br	1.561043	0.284928	1.677115
Br381	Br	0.684703	-0.243250	0.207802
Br382	Br	0.934703	0.006750	0.457802
Br383	Br	1.184703	0.256750	0.707802
Br384	Br	1.434703	0.506750	0.957802
H385	H	0.896362	-0.474480	0.743122
H386	H	1.146362	-0.224480	0.993122
H387	H	1.396362	0.025520	1.243122
H388	H	1.646362	0.275520	1.493122
