data_functionalizedCrystal
_audit_creation_method	'MofGen! by Chris Wilmer'
_symmetry_space_group_name_H-M	'P1'
_symmetry_Int_Tables_number	1
_symmetry_cell_setting	triclinic
loop_
_symmetry_equiv_pos_as_xyz
  x,y,z
_cell_length_a	10.654550
_cell_length_b	10.723024
_cell_length_c	9.130313
_cell_angle_alpha	89.996649
_cell_angle_beta	89.999724
_cell_angle_gamma	84.476400
loop_
_atom_site_label
_atom_site_type_symbol
_atom_site_fract_x
_atom_site_fract_y
_atom_site_fract_z
O1	O	1.667813	0.175275	-0.121686
O2	O	2.167813	0.675275	0.378314
O3	O	1.302332	0.191974	-0.121712
O4	O	1.802332	0.691974	0.378288
O5	O	1.493503	0.002049	-0.121693
O6	O	1.993503	0.502049	0.378307
O7	O	1.476642	0.365199	-0.121705
O8	O	1.976642	0.865199	0.378295
O9	O	1.493490	0.002044	0.121906
O10	O	1.993490	0.502044	0.621906
O11	O	1.302319	0.191968	0.121886
O12	O	1.802319	0.691968	0.621886
O13	O	1.667800	0.175269	0.121913
O14	O	2.167800	0.675269	0.621913
Cu15	Cu	1.485058	0.183618	0.144142
Cu16	Cu	1.985058	0.683618	0.644142
Cu17	Cu	1.485074	0.183625	-0.143942
Cu18	Cu	1.985074	0.683625	0.356058
O19	O	1.476629	0.365194	0.121894
O20	O	1.976629	0.865194	0.621894
C21	C	1.255528	0.190745	0.000084
C22	C	1.755528	0.690745	0.500084
C23	C	1.116085	0.187077	0.000073
C24	C	1.616085	0.687077	0.500073
C25	C	1.036583	0.298901	0.000074
C26	C	1.536583	0.798901	0.500074
C27	C	0.905562	0.295447	0.000100
C28	C	1.405562	0.795447	0.500100
C29	C	0.933560	0.068334	0.000118
C30	C	1.433560	0.568334	0.500118
C31	C	1.064577	0.071789	0.000103
C32	C	1.564577	0.571789	0.500103
C33	C	1.492269	-0.044453	0.000104
C34	C	1.992269	0.455547	0.500104
C35	C	1.488598	-0.183008	0.000099
C36	C	1.988598	0.316992	0.500099
C37	C	1.595567	-0.257975	0.000105
C38	C	2.095567	0.242025	0.500105
C39	C	1.591776	-0.401179	0.000099
C40	C	2.091776	0.098821	0.500099
C41	C	1.714604	0.176498	0.000114
C42	C	2.214604	0.676498	0.500114
C43	C	1.854047	0.180167	0.000114
C44	C	2.354047	0.680167	0.500114
C45	C	1.477863	0.411696	0.000093
C46	C	1.977863	0.911696	0.500093
C47	C	1.481534	0.550251	0.000089
C48	C	1.981534	1.050251	0.500089
N49	N	1.485056	0.183613	0.346765
N50	N	1.985056	0.683613	0.846765
N51	N	1.485085	0.183620	-0.346564
N52	N	1.985085	0.683620	0.153436
C53	C	1.569736	0.099550	0.423425
C54	C	2.069736	0.599550	0.923425
C55	C	1.569748	0.099550	0.576762
C56	C	2.069748	0.599550	1.076762
C57	C	1.400397	0.267687	0.576765
C58	C	1.900397	0.767687	1.076765
C59	C	1.400380	0.267680	0.423431
C60	C	1.900380	0.767680	0.923431
H61	H	1.129312	-0.019278	0.000107
H62	H	1.629312	0.480722	0.500107
Cl63	Cl	1.293956	0.373372	0.673151
Cl64	Cl	1.793956	0.873372	1.173151
H65	H	1.331418	0.336135	0.361009
H66	H	1.831418	0.836135	0.861009
Cl67	Cl	1.741302	-0.193394	0.000106
Cl68	Cl	2.241302	0.306606	0.500106
H69	H	1.683350	-0.465598	0.000111
H70	H	2.183350	0.034402	0.500111
Cl71	Cl	1.340137	-0.350305	0.000093
Cl72	Cl	1.840137	0.149695	0.500093
Cl73	Cl	1.101331	0.443833	0.000046
Cl74	Cl	1.601331	0.943833	0.500046
Cl75	Cl	0.805621	0.436033	0.000102
Cl76	Cl	1.305621	0.936033	0.500102
H77	H	1.394211	-0.224844	0.000083
H78	H	1.894211	0.275156	0.500083
Cl79	Cl	1.676203	-0.006136	0.673131
Cl80	Cl	2.176203	0.493864	1.173131
Cl81	Cl	0.868797	-0.076591	0.000146
Cl82	Cl	1.368797	0.423409	0.500146
Cl83	Cl	1.676181	-0.006139	0.327052
Cl84	Cl	2.176181	0.493861	0.827052
