data_functionalizedCrystal
_audit_creation_method	'MofGen! by Chris Wilmer'
_symmetry_space_group_name_H-M	'P1'
_symmetry_Int_Tables_number	1
_symmetry_cell_setting	triclinic
loop_
_symmetry_equiv_pos_as_xyz
  x,y,z
_cell_length_a	19.805407
_cell_length_b	13.032721
_cell_length_c	19.805399
_cell_angle_alpha	97.155902
_cell_angle_beta	89.979591
_cell_angle_gamma	97.206695
loop_
_atom_site_label
_atom_site_type_symbol
_atom_site_fract_x
_atom_site_fract_y
_atom_site_fract_z
Zn1	Zn	1.000539	-0.416016	-0.416954
Zn2	Zn	0.986088	-0.590776	-0.318140
Zn3	Zn	0.887351	-0.416050	-0.303780
Zn4	Zn	0.872956	-0.590726	-0.431281
O5	O	0.936733	-0.503392	-0.367539
O6	O	1.093338	-0.439204	-0.403860
O7	O	0.972967	-0.567634	-0.221522
O8	O	0.914437	-0.269805	-0.306786
O9	O	1.082721	-0.567600	-0.331262
O10	O	0.997596	-0.269780	-0.389935
O11	O	0.900425	-0.439263	-0.210971
O12	O	0.790725	-0.439215	-0.320679
O13	O	0.889903	-0.567515	-0.524094
O14	O	0.780149	-0.567549	-0.414354
O15	O	0.983638	-0.439156	-0.513568
O16	O	0.959009	-0.737010	-0.345155
O17	O	0.875891	-0.736973	-0.428279
C18	C	0.760878	-0.503381	-0.367513
C19	C	0.685645	-0.503402	-0.367521
C20	C	0.229376	-0.436661	-0.405443
C21	C	0.300064	-0.436663	-0.405438
C22	C	0.329882	-0.503408	-0.367562
C23	C	0.289008	-0.570162	-0.329693
C24	C	0.218321	-0.570165	-0.329702
C25	C	0.574082	-0.570154	-0.329657
C26	C	0.644775	-0.570144	-0.329649
C27	C	0.655825	-0.436653	-0.405393
C28	C	0.585138	-0.436655	-0.405402
C29	C	0.544269	-0.503413	-0.367536
C30	C	0.467621	-0.503412	-0.367543
C31	C	0.406530	-0.503405	-0.367551
C32	C	0.914338	-0.774910	-0.389845
C33	C	0.904820	-0.891067	-0.399410
C34	C	0.941737	-0.942836	-0.362577
C35	C	0.931900	-1.062890	-0.372462
C36	C	1.113275	-0.503404	-0.367565
C37	C	1.188507	-0.503409	-0.367576
C38	C	0.936777	-0.503326	-0.544076
C39	C	0.936795	-0.503298	-0.619306
C40	C	0.959234	-0.230814	-0.345160
C41	C	0.968823	-0.114657	-0.335624
C42	C	0.985604	-0.436458	-0.649170
C43	C	0.985614	-0.436428	-0.719856
C44	C	0.936817	-0.503244	-0.760677
C45	C	0.888003	-0.570087	-0.730808
C46	C	0.887991	-0.570111	-0.660123
C47	C	0.888049	-0.569989	-1.015874
C48	C	0.888066	-0.569962	-1.086564
C49	C	0.985672	-0.436306	-1.075606
C50	C	0.985660	-0.436330	-1.004921
C51	C	0.936844	-0.503169	-0.975058
C52	C	0.936834	-0.503200	-0.898412
C53	C	0.936829	-0.503219	-0.837322
C54	C	0.936735	-0.503382	-0.191682
C55	C	0.936872	-0.503116	-0.116428
H56	H	0.185045	-0.624520	-0.298868
Br57	Br	0.188916	-0.346066	-0.456844
H58	H	0.669050	-0.624501	-0.298804
Br59	Br	1.006565	-0.868582	-0.297824
Br60	Br	1.051923	-0.345593	-1.116138
Br61	Br	1.033653	-1.040410	-0.270866
H62	H	0.848240	-0.624528	-0.635809
Br63	Br	0.840004	-0.965321	-0.464175
Br64	Br	0.867082	-1.137140	-0.437230
H65	H	0.540815	-0.624510	-0.298822
H66	H	1.025360	-0.382002	-0.744167
Br67	Br	0.329474	-0.660753	-0.278294
H68	H	1.025342	-0.382052	-0.615938
Br69	Br	1.051890	-0.345655	-0.949524
Br70	Br	0.821837	-0.660648	-1.141965
H71	H	0.848309	-0.624428	-0.991570
H72	H	0.333337	-0.382314	-0.436277
Br73	Br	0.544674	-0.346066	-0.456804
H74	H	0.848269	-0.624485	-0.764050
Br75	Br	0.711294	-0.346053	-0.456785
