data_functionalizedCrystal
_audit_creation_method	'MofGen! by Chris Wilmer'
_symmetry_space_group_name_H-M	'P1'
_symmetry_Int_Tables_number	1
_symmetry_cell_setting	triclinic
loop_
_symmetry_equiv_pos_as_xyz
  x,y,z
_cell_length_a	19.121102
_cell_length_b	25.639240
_cell_length_c	19.120904
_cell_angle_alpha	87.596818
_cell_angle_beta	89.911827
_cell_angle_gamma	87.586654
loop_
_atom_site_label
_atom_site_type_symbol
_atom_site_fract_x
_atom_site_fract_y
_atom_site_fract_z
Zn1	Zn	1.054802	-0.255751	0.442001
Zn2	Zn	1.059707	-0.339618	0.324744
Zn3	Zn	0.942572	-0.248315	0.319786
Zn4	Zn	0.937519	-0.339266	0.436946
O5	O	0.998650	-0.295737	0.380869
O6	O	1.153558	-0.270136	0.430636
O7	O	1.048337	-0.324541	0.225982
O8	O	0.957522	-0.176139	0.336039
O9	O	1.157162	-0.331752	0.344488
O10	O	1.039977	-0.181603	0.425829
O11	O	0.962278	-0.257461	0.222340
O12	O	0.843797	-0.257120	0.331138
O13	O	0.948909	-0.331153	0.535721
O14	O	0.840084	-0.323942	0.417215
O15	O	1.035076	-0.269795	0.539434
O16	O	1.043437	-0.412733	0.339587
O17	O	0.953665	-0.412475	0.422022
C18	C	0.816503	-0.289687	0.373090
C19	C	0.738579	-0.287111	0.369779
C20	C	0.998553	-0.431575	0.380810
C21	C	0.998575	-0.489690	0.380811
C22	C	0.700059	-0.320740	0.412969
C23	C	0.626841	-0.318313	0.409861
C24	C	0.592145	-0.282260	0.363559
C25	C	0.630670	-0.248627	0.320368
C26	C	0.703887	-0.251052	0.323480
C27	C	0.371174	-0.273193	0.351928
C28	C	0.297952	-0.270772	0.348818
C29	C	0.294127	-0.340458	0.438312
C30	C	0.367346	-0.342881	0.441417
C31	C	0.405865	-0.309247	0.398228
C32	C	0.517304	-0.279779	0.360380
C33	C	0.480704	-0.311725	0.401411
C34	C	1.041603	-0.852867	0.427705
C35	C	1.041623	-0.907472	0.427720
O36	O	1.078092	-0.938096	0.467529
N37	N	0.998745	-0.931982	0.380941
C38	C	0.955838	-0.901883	0.334149
O39	O	0.919367	-0.927744	0.294362
C40	C	0.955815	-0.847279	0.334138
C41	C	0.998701	-0.822772	0.380915
C42	C	1.084486	-0.828360	0.474479
C43	C	1.084467	-0.773758	0.474463
C44	C	1.041565	-0.743663	0.427673
C45	C	0.998682	-0.768170	0.380899
C46	C	0.912905	-0.817181	0.287349
C47	C	0.912885	-0.762573	0.287343
C48	C	0.955771	-0.738066	0.334120
C49	C	0.955761	-0.683474	0.334092
N50	N	0.998639	-0.658964	0.380871
C51	C	1.041541	-0.689059	0.427661
C52	C	0.955889	-1.016556	0.334177
C53	C	0.955915	-1.071160	0.334184
C54	C	1.041700	-1.076745	0.427756
C55	C	1.041677	-1.022140	0.427745
C56	C	0.998768	-0.992046	0.380956
C57	C	1.041498	-0.574391	0.427623
C58	C	1.041477	-0.519785	0.427601
C59	C	0.955690	-0.514204	0.334032
C60	C	0.955713	-0.568806	0.334051
C61	C	0.998620	-0.598899	0.380853
O62	O	0.919309	-0.652817	0.294305
O63	O	1.077999	-0.663190	0.467448
C64	C	1.181508	-0.301812	0.388679
C65	C	1.259432	-0.304401	0.392007
C66	C	0.990882	-0.301264	0.563726
C67	C	0.987571	-0.303619	0.641649
C68	C	0.998766	-0.159371	0.380945
C69	C	0.998815	-0.101259	0.380977
C70	C	1.006429	-0.290196	0.198725
C71	C	1.009875	-0.287698	0.120809
C72	C	1.030877	-0.272781	0.680192
C73	C	1.027758	-0.274992	0.753408
C74	C	0.981337	-0.308044	0.788080
C75	C	0.938027	-0.338883	0.749532
C76	C	0.941143	-0.336669	0.676317
C77	C	0.969681	-0.316323	1.009046
C78	C	0.966570	-0.318536	1.082266
C79	C	1.056300	-0.254644	1.086137
C80	C	1.059415	-0.252436	1.012920
C81	C	1.016102	-0.283273	0.974378
C82	C	0.978149	-0.310305	0.862919
C83	C	1.019287	-0.281008	0.899541
H84	H	0.595480	-0.345698	0.445030
H85	H	1.076632	-1.101258	0.465857
O86	O	0.899004	-0.366551	0.638844
C87	C	0.807889	-0.367948	0.552105
C88	C	0.855561	-0.334044	0.594505
H89	H	0.772763	-0.341681	0.516235
H90	H	0.774129	-0.391940	0.589432
H91	H	0.841523	-0.395332	0.519221
H92	H	0.821981	-0.306631	0.627392
H93	H	0.889325	-0.310089	0.557140
O94	O	0.914156	-1.094937	0.288810
C95	C	0.796388	-1.106710	0.249565
C96	C	0.843604	-1.079762	0.301000
H97	H	0.739338	-1.094443	0.259393
H98	H	0.803703	-1.150912	0.257606
H99	H	0.811180	-1.094696	0.193578
H100	H	0.828842	-1.091733	0.357007
H101	H	0.836282	-1.035565	0.292899
H102	H	1.068680	-0.245869	0.651967
H103	H	1.063023	-0.249882	0.784786
H104	H	0.728303	-0.350100	0.450670
O105	O	1.126205	-0.857645	0.519837
C106	C	1.220517	-0.922617	0.533401
C107	C	1.173298	-0.889497	0.481958
H108	H	1.258613	-0.948369	0.502796
H109	H	1.186804	-0.948265	0.568660
H110	H	1.251124	-0.895702	0.566839
H111	H	1.142682	-0.916373	0.448474
H112	H	1.207049	-0.863844	0.446747
O113	O	0.914132	-0.987302	0.288812
C114	C	0.819889	-0.922275	0.275231
C115	C	0.867119	-0.955379	0.326682
H116	H	0.781877	-0.896450	0.305828
H117	H	0.789199	-0.949152	0.241812
H118	H	0.853666	-0.896690	0.239955
H119	H	0.833395	-0.980968	0.362003
H120	H	0.897814	-0.928473	0.360052
H121	H	0.877982	-0.837124	0.249258
H122	H	1.119386	-0.753808	0.512554
O123	O	1.083117	-0.495896	0.472978
C124	C	1.121079	-0.414255	0.514461
C125	C	1.073904	-0.441239	0.463025
H126	H	1.113635	-0.370061	0.506441
H127	H	1.178159	-0.426428	0.504615
H128	H	1.106329	-0.426306	0.570447
H129	H	1.088591	-0.429201	0.407020
H130	H	1.016836	-0.429065	0.472932
H131	H	0.402528	-0.245810	0.316755
H132	H	1.076598	-1.002191	0.465835
O133	O	0.932961	-0.342355	0.896564
C134	C	0.812740	-0.364474	0.913822
C135	C	0.863838	-0.328135	0.875685
H136	H	0.756845	-0.352998	0.896945
H137	H	0.817891	-0.360753	0.972777
H138	H	0.825667	-0.406604	0.899942
H139	H	0.850944	-0.285991	0.889507
H140	H	0.858677	-0.331901	0.816739
H141	H	0.920797	-0.588760	0.295956
O142	O	1.104525	-0.220282	0.979351
C143	C	1.193225	-0.157166	0.990920
C144	C	1.142156	-0.193546	1.029025
H145	H	1.223675	-0.135549	1.031065
H146	H	1.162554	-0.127690	0.955301
H147	H	1.231290	-0.181359	0.958177
H148	H	1.104080	-0.169396	1.061806
H149	H	1.172873	-0.223024	1.064602
O150	O	1.098296	-0.224705	1.123682
C151	C	1.133293	-0.199817	1.238190
C152	C	1.085682	-0.233745	1.195757
H153	H	1.123122	-0.207122	1.296471
H154	H	1.121624	-0.156806	1.223343
H155	H	1.190421	-0.210432	1.226165
H156	H	1.028538	-0.223176	1.207759
H157	H	1.097411	-0.276747	1.210610
O158	O	0.400936	-0.377919	0.486456
C159	C	0.389414	-0.446804	0.574861
C160	C	0.351284	-0.407139	0.523901
H161	H	0.349289	-0.470447	0.605138
H162	H	0.422137	-0.425116	0.613085
H163	H	0.425056	-0.474241	0.544045
H164	H	0.315608	-0.379691	0.554659
H165	H	0.318606	-0.428861	0.485677
O166	O	0.741388	-0.218461	0.281493
C167	C	0.828030	-0.211195	0.190347
C168	C	0.785618	-0.248165	0.237864
H169	H	0.863789	-0.235196	0.155051
H170	H	0.861012	-0.186014	0.224027
H171	H	0.790644	-0.184999	0.156748
H172	H	0.822953	-0.274394	0.271471
H173	H	0.752628	-0.273311	0.204143
H174	H	0.489047	-0.250426	0.322679
O175	O	0.871181	-0.733419	0.241824
C176	C	0.786054	-0.733646	0.149054
C177	C	0.833260	-0.766725	0.200555
H178	H	0.755372	-0.760560	0.115685
H179	H	0.819779	-0.708049	0.113738
H180	H	0.748025	-0.707835	0.179653
H181	H	0.871296	-0.792566	0.170013
H182	H	0.799491	-0.792287	0.235870
O183	O	0.913936	-0.484940	0.288682
C184	C	0.819707	-0.419899	0.275143
C185	C	0.866940	-0.453019	0.326573
H186	H	0.781709	-0.394074	0.305757
H187	H	0.789002	-0.446763	0.241719
H188	H	0.853484	-0.394311	0.239869
H189	H	0.833215	-0.478611	0.361891
H190	H	0.897649	-0.426125	0.359947
O191	O	0.596860	-0.213648	0.275412
C192	C	0.485762	-0.179004	0.230989
C193	C	0.523962	-0.218651	0.281922
H194	H	0.426817	-0.183028	0.236246
H195	H	0.502490	-0.186882	0.175028
H196	H	0.499705	-0.137721	0.244022
H197	H	0.510038	-0.259950	0.268953
H198	H	0.507231	-0.210728	0.337869
O199	O	0.264357	-0.235700	0.303822
C200	C	0.275873	-0.166856	0.215358
C201	C	0.314008	-0.206538	0.266293
H202	H	0.316000	-0.143275	0.184991
H203	H	0.240267	-0.139364	0.246129
H204	H	0.243114	-0.188583	0.177208
H205	H	0.346805	-0.184855	0.304453
H206	H	0.349572	-0.234028	0.235476
H207	H	1.057080	-0.254095	0.871307
H208	H	0.508956	-0.341078	0.439113
H209	H	0.262757	-0.367840	0.473474
H210	H	0.928766	-0.345452	1.110494
H211	H	0.934423	-0.341441	0.977674
O212	O	0.892872	-0.371001	0.783100
C213	C	0.804234	-0.434165	0.771529
C214	C	0.855327	-0.397803	0.733427
H215	H	0.773876	-0.455852	0.731386
H216	H	0.766092	-0.410005	0.804233
H217	H	0.834951	-0.463587	0.807185
H218	H	0.824668	-0.368374	0.697735
H219	H	0.893469	-0.421997	0.700767
O220	O	1.083239	-0.603540	0.473113
C221	C	1.168287	-0.603302	0.565954
C222	C	1.121062	-0.570229	0.514465
H223	H	1.198868	-0.576385	0.599410
H224	H	1.206396	-0.629092	0.535415
H225	H	1.134513	-0.628921	0.601189
H226	H	1.154779	-0.544581	0.479217
H227	H	1.082949	-0.544474	0.545047
