data_functionalizedCrystal
_audit_creation_method	'MofGen! by Chris Wilmer'
_symmetry_space_group_name_H-M	'P1'
_symmetry_Int_Tables_number	1
_symmetry_cell_setting	triclinic
loop_
_symmetry_equiv_pos_as_xyz
  x,y,z
_cell_length_a	18.215407
_cell_length_b	18.215406
_cell_length_c	18.215399
_cell_angle_alpha	90.019188
_cell_angle_beta	89.980167
_cell_angle_gamma	90.001785
loop_
_atom_site_label
_atom_site_type_symbol
_atom_site_fract_x
_atom_site_fract_y
_atom_site_fract_z
Zn1	Zn	-1.125211	-0.292983	0.416161
Zn2	Zn	-0.791877	0.040350	0.749494
Zn3	Zn	-0.458544	0.373684	1.082827
Zn4	Zn	-1.125177	-0.416054	0.293113
Zn5	Zn	-0.791844	-0.082721	0.626447
Zn6	Zn	-0.458511	0.250612	0.959780
Zn7	Zn	-1.002143	-0.293007	0.293108
Zn8	Zn	-0.668810	0.040326	0.626441
Zn9	Zn	-0.335477	0.373660	0.959775
Zn10	Zn	-1.002167	-0.416013	0.416138
Zn11	Zn	-0.668834	-0.082680	0.749472
Zn12	Zn	-0.335501	0.250653	1.082805
O13	O	-1.063675	-0.354514	0.354630
O14	O	-0.730341	-0.021181	0.687963
O15	O	-0.397008	0.312152	1.021297
O16	O	-1.228190	-0.309316	0.399850
O17	O	-0.894857	0.024018	0.733183
O18	O	-0.561524	0.357351	1.066516
O19	O	-1.108833	-0.399759	0.190128
O20	O	-0.775499	-0.066426	0.523462
O21	O	-0.442166	0.266908	0.856795
O22	O	-1.018472	-0.190020	0.309439
O23	O	-0.685139	0.143314	0.642772
O24	O	-0.351806	0.476647	0.976105
O25	O	-1.228166	-0.399736	0.309447
O26	O	-0.894833	-0.066402	0.642781
O27	O	-0.561499	0.266931	0.976114
O28	O	-1.108889	-0.190002	0.399845
O29	O	-0.775556	0.143331	0.733178
O30	O	-0.442223	0.476665	1.066511
O31	O	-1.018440	-0.309357	0.190124
O32	O	-0.685107	0.023977	0.523458
O33	O	-0.351773	0.357310	0.856791
O34	O	-0.899162	-0.309317	0.309417
O35	O	-0.565829	0.024016	0.642750
O36	O	-0.232495	0.357350	0.976083
O37	O	-1.018513	-0.399666	0.519125
O38	O	-0.685180	-0.066332	0.852459
O39	O	-0.351847	0.267001	1.185792
O40	O	-0.899180	-0.399689	0.399806
O41	O	-0.565847	-0.066356	0.733140
O42	O	-0.232513	0.266978	1.066473
O43	O	-1.108913	-0.309276	0.519142
O44	O	-0.775579	0.024057	0.852475
O45	O	-0.442246	0.357391	1.185809
O46	O	-1.108856	-0.519033	0.309426
O47	O	-0.775523	-0.185700	0.642759
O48	O	-0.442189	0.147634	0.976092
O49	O	-1.018481	-0.519003	0.399811
O50	O	-0.685148	-0.185670	0.733145
O51	O	-0.351814	0.147664	1.066478
C52	C	-1.063687	-0.545721	0.354633
C53	C	-0.730354	-0.212387	0.687966
C54	C	-0.397021	0.120946	1.021299
C55	C	-1.063760	-0.627519	0.354658
C56	C	-0.730427	-0.294186	0.687992
C57	C	-0.397094	0.039147	1.021325
C58	C	-1.063719	-0.354464	0.546583
C59	C	-0.730386	-0.021130	0.879916
C60	C	-0.397053	0.312203	1.213250
C61	C	-1.063739	-0.354442	0.628382
C62	C	-0.730405	-0.021109	0.961715
C63	C	-0.397072	0.312225	1.295049
C64	C	-0.872468	-0.354502	0.354609
C65	C	-0.539135	-0.021168	0.687942
C66	C	-0.205802	0.312165	1.021276
C67	C	-0.790669	-0.354514	0.354617
C68	C	-0.457336	-0.021181	0.687951
C69	C	-0.124003	0.312153	1.021284
C70	C	-1.255628	-0.354528	0.354652
C71	C	-0.922294	-0.021194	0.687985
C72	C	-0.588961	0.312139	1.021318
C73	C	-1.337426	-0.354533	0.354661
C74	C	-1.004093	-0.021200	0.687994
C75	C	-0.670760	0.312134	1.021328
C76	C	-0.602504	-0.401645	0.401624
C77	C	-0.269171	-0.068312	0.734958
C78	C	0.064163	0.265022	1.068291
C79	C	-0.525645	-0.401647	0.401633
C80	C	-0.192312	-0.068314	0.734967
C81	C	0.141021	0.265020	1.068300
C82	C	-0.525597	-0.307397	0.307652
C83	C	-0.192264	0.025936	0.640985
C84	C	0.141069	0.359269	0.974319
C85	C	-0.602455	-0.307392	0.307647
C86	C	-0.269121	0.025942	0.640980
C87	C	0.064212	0.359275	0.974314
C88	C	-0.640906	-0.354520	0.354632
C89	C	-0.307573	-0.021186	0.687965
C90	C	0.025761	0.312147	1.021299
C91	C	-0.487190	-0.354528	0.354646
C92	C	-0.153857	-0.021194	0.687980
C93	C	0.179477	0.312139	1.021313
C94	C	-0.403856	-0.354530	0.354656
C95	C	-0.070523	-0.021196	0.687989
C96	C	0.262810	0.312137	1.021322
C97	C	-0.724245	-0.354517	0.354624
C98	C	-0.390912	-0.021183	0.687957
C99	C	-0.057578	0.312150	1.021290
C100	C	-1.063682	-0.162561	0.354644
C101	C	-0.730348	0.170772	0.687977
C102	C	-0.397015	0.504105	1.021310
C103	C	-1.063685	-0.080763	0.354649
C104	C	-0.730352	0.252571	0.687983
C105	C	-0.397018	0.585904	1.021316
C106	C	-1.016680	0.184315	0.401717
C107	C	-0.683346	0.517648	0.735050
C108	C	-0.350013	0.850982	1.068383
C109	C	-1.016665	0.107456	0.401714
C110	C	-0.683332	0.440790	0.735047
C111	C	-0.349998	0.774123	1.068381
C112	C	-1.110767	0.107408	0.307586
C113	C	-0.777434	0.440742	0.640919
C114	C	-0.444101	0.774075	0.974253
C115	C	-1.110778	0.184266	0.307585
C116	C	-0.777444	0.517599	0.640919
C117	C	-0.444111	0.850932	0.974252
C118	C	-1.063735	0.222717	0.354655
C119	C	-0.730402	0.556050	0.687988
C120	C	-0.397068	0.889384	1.021321
C121	C	-1.063710	0.069001	0.354653
C122	C	-0.730377	0.402334	0.687986
C123	C	-0.397043	0.735668	1.021320
C124	C	-1.063695	-0.014333	0.354650
C125	C	-0.730361	0.319001	0.687983
C126	C	-0.397028	0.652334	1.021317
C127	C	-1.063749	0.306056	0.354657
C128	C	-0.730416	0.639389	0.687990
C129	C	-0.397083	0.972723	1.021324
C130	C	-1.063672	-0.354512	0.163424
C131	C	-0.730339	-0.021178	0.496757
C132	C	-0.397006	0.312155	0.830090
C133	C	-1.063796	-0.354326	0.081625
C134	C	-0.730462	-0.020993	0.414959
C135	C	-0.397129	0.312341	0.748292
C136	C	-1.110826	-0.307332	0.816586
C137	C	-0.777493	0.026001	1.149919
C138	C	-0.444160	0.359335	1.483252
C139	C	-1.110835	-0.307311	0.893445
C140	C	-0.777502	0.026023	1.226778
C141	C	-0.444169	0.359356	1.560111
C142	C	-1.016703	-0.401438	0.893416
C143	C	-0.683369	-0.068105	1.226749
C144	C	-0.350036	0.265229	1.560083
C145	C	-1.016691	-0.401455	0.816559
C146	C	-0.683357	-0.068122	1.149892
C147	C	-0.350024	0.265211	1.483225
C148	C	-1.063757	-0.354403	0.778146
C149	C	-0.730423	-0.021070	1.111479
C150	C	-0.397090	0.312263	1.444812
C151	C	-1.063777	-0.354365	0.931862
C152	C	-0.730444	-0.021031	1.265195
C153	C	-0.397111	0.312302	1.598528
C154	C	-1.063787	-0.354342	1.015195
C155	C	-0.730453	-0.021008	1.348529
C156	C	-0.397120	0.312325	1.681862
C157	C	-1.063747	-0.354425	0.694807
C158	C	-0.730413	-0.021092	1.028140
C159	C	-0.397080	0.312242	1.361473
H160	H	-0.633809	-0.440018	0.439884
H161	H	-0.300476	-0.106684	0.773218
H162	H	0.032858	0.226649	1.106551
H163	H	-1.149069	0.076092	0.269264
H164	H	-0.815736	0.409425	0.602598
H165	H	-0.482402	0.742759	0.935931
F166	F	-1.160862	0.225138	0.257491
F167	F	-0.827528	0.558472	0.590825
F168	F	-0.494195	0.891805	0.924158
F169	F	-0.484778	-0.451803	0.451650
F170	F	-0.151445	-0.118470	0.784984
F171	F	0.181888	0.214864	1.118317
F172	F	-0.484668	-0.257244	0.257649
F173	F	-0.151335	0.076089	0.590982
F174	F	0.181999	0.409423	0.924316
H175	H	-1.149149	-0.269017	0.785312
H176	H	-0.815815	0.064316	1.118645
H177	H	-0.482482	0.397649	1.451979
F178	F	-0.643327	-0.257228	0.257633
F179	F	-0.309994	0.076105	0.590966
F180	F	0.023340	0.409439	0.924299
F181	F	-1.160938	-0.257215	0.934352
F182	F	-0.827605	0.076118	1.267686
F183	F	-0.494271	0.409451	1.601019
F184	F	-0.966583	0.066589	0.451804
F185	F	-0.633249	0.399923	0.785137
F186	F	-0.299916	0.733256	1.118471
H187	H	-0.978374	0.215620	0.440042
H188	H	-0.645040	0.548954	0.773376
H189	H	-0.311707	0.882287	1.106709
H190	H	-0.978385	-0.439748	0.924701
H191	H	-0.645051	-0.106414	1.258035
H192	H	-0.311718	0.226919	1.591368
H193	H	-0.978356	-0.439786	0.785260
H194	H	-0.645022	-0.106453	1.118593
H195	H	-0.311689	0.226881	1.451926
