data_functionalizedCrystal
_audit_creation_method	'MofGen! by Chris Wilmer'
_symmetry_space_group_name_H-M	'P1'
_symmetry_Int_Tables_number	1
_symmetry_cell_setting	triclinic
loop_
_symmetry_equiv_pos_as_xyz
  x,y,z
_cell_length_a	14.044220
_cell_length_b	10.540535
_cell_length_c	13.101039
_cell_angle_alpha	93.394726
_cell_angle_beta	86.340132
_cell_angle_gamma	88.856260
loop_
_atom_site_label
_atom_site_type_symbol
_atom_site_fract_x
_atom_site_fract_y
_atom_site_fract_z
O1	O	1.264941	0.299849	-0.085111
O2	O	1.598274	0.633182	0.248222
O3	O	1.931608	0.966516	0.581556
O4	O	0.988899	0.288795	-0.085137
O5	O	1.322232	0.622129	0.248197
O6	O	1.655565	0.955462	0.581530
O7	O	1.133219	0.110253	-0.085113
O8	O	1.466552	0.443586	0.248220
O9	O	1.799886	0.776920	0.581554
O10	O	1.120620	0.478391	-0.085135
O11	O	1.453954	0.811725	0.248198
O12	O	1.787287	1.145058	0.581532
O13	O	1.122864	0.123086	0.085315
O14	O	1.456198	0.456420	0.418648
O15	O	1.789531	0.789753	0.751982
O16	O	0.978544	0.301629	0.085291
O17	O	1.311877	0.634962	0.418625
O18	O	1.645211	0.968295	0.751958
O19	O	1.254586	0.312682	0.085317
O20	O	1.587920	0.646016	0.418650
O21	O	1.921253	0.979349	0.751984
Zn22	Zn	1.114921	0.309193	0.112363
Zn23	Zn	1.448254	0.642526	0.445697
Zn24	Zn	1.781588	0.975860	0.779030
Zn25	Zn	1.128564	0.292285	-0.112183
Zn26	Zn	1.461897	0.625618	0.221150
Zn27	Zn	1.795230	0.958951	0.554484
O28	O	1.110266	0.491225	0.085293
O29	O	1.443599	0.824558	0.418627
O30	O	1.776932	1.157891	0.751960
C31	C	0.948374	0.290374	0.000074
C32	C	1.281708	0.623708	0.333407
C33	C	1.615041	0.957041	0.666741
C34	C	0.843052	0.275944	0.000065
C35	C	1.176385	0.609277	0.333398
C36	C	1.509718	0.942610	0.666731
C37	C	1.127098	0.069271	0.000101
C38	C	1.460431	0.402605	0.333435
C39	C	1.793764	0.735938	0.666768
C40	C	1.124273	-0.071963	0.000103
C41	C	1.457607	0.261371	0.333436
C42	C	1.790940	0.594704	0.666769
C43	C	0.650211	0.249565	0.000087
C44	C	0.983544	0.582898	0.333420
C45	C	1.316877	0.916231	0.666753
C46	C	0.593269	0.351907	0.000085
C47	C	0.926602	0.685240	0.333418
C48	C	1.259936	1.018574	0.666751
C49	C	0.485966	0.337229	0.000097
C50	C	0.819299	0.670562	0.333430
C51	C	1.152632	1.003896	0.666764
C52	C	0.757524	0.264240	0.000074
C53	C	1.090857	0.597574	0.333408
C54	C	1.424191	0.930907	0.666741
C55	C	1.018902	-0.119287	0.000085
C56	C	1.352235	0.214046	0.333419
C57	C	1.685568	0.547379	0.666752
C58	C	1.015954	-0.266219	-0.000320
C59	C	1.349288	0.067115	0.333013
C60	C	1.682621	0.400448	0.666347
C61	C	1.178277	-0.283740	-0.097050
C62	C	1.511610	0.049593	0.236284
C63	C	1.844944	0.382927	0.569617
C64	C	1.180523	-0.136753	-0.097113
C65	C	1.513856	0.196581	0.236221
C66	C	1.847190	0.529914	0.569554
C67	C	1.170280	-0.122142	0.096703
C68	C	1.503613	0.211192	0.430036
C69	C	1.836947	0.544525	0.763370
C70	C	1.165330	-0.268886	0.097961
C71	C	1.498664	0.064447	0.431294
C72	C	1.831997	0.397781	0.764627
C73	C	1.295111	0.311103	0.000104
C74	C	1.628444	0.644437	0.333437
C75	C	1.961777	0.977770	0.666771
C76	C	1.400434	0.325533	0.000107
C77	C	1.733767	0.658867	0.333440
C78	C	2.067100	0.992200	0.666773
C79	C	1.116387	0.532206	0.000077
C80	C	1.449721	0.865540	0.333410
C81	C	1.783054	1.198873	0.666743
C82	C	1.119212	0.673440	0.000069
C83	C	1.452545	1.006773	0.333402
C84	C	1.785879	1.340106	0.666735
N85	N	1.105617	0.320733	0.265610
N86	N	1.438951	0.654066	0.598944
N87	N	1.772284	0.987399	0.932277
N88	N	1.137875	0.280736	-0.265430
N89	N	1.471208	0.614069	0.067903
N90	N	1.804542	0.947402	0.401237
C91	C	1.092959	0.336444	0.474651
C92	C	1.426292	0.669778	0.807984
C93	C	1.759626	1.003111	1.141318
C94	C	1.150530	0.265028	0.525536
C95	C	1.483864	0.598361	0.858869
C96	C	1.817197	0.931695	1.192203
C97	C	1.143487	0.273770	0.641853
C98	C	1.476820	0.607103	0.975187
C99	C	1.810154	0.940437	1.308520
C100	C	1.100001	0.327704	0.358323
C101	C	1.433334	0.661037	0.691656
C102	C	1.766668	0.994370	1.024990
H103	H	0.625107	0.450548	0.000074
H104	H	0.958441	0.783882	0.333407
H105	H	1.291774	1.117215	0.666741
Br106	Br	1.001997	0.449291	0.547636
Br107	Br	1.335330	0.782625	0.880969
Br108	Br	1.668664	1.115958	1.214302
H109	H	0.618374	0.150931	0.000098
H110	H	0.951708	0.484264	0.333431
H111	H	1.285041	0.817598	0.666765
H112	H	0.983341	-0.085082	-0.069465
H113	H	1.316674	0.248252	0.263868
H114	H	1.650008	0.581585	0.597201
Br115	Br	0.939603	-0.313408	0.115689
Br116	Br	1.272936	0.019925	0.449022
Br117	Br	1.606269	0.353259	0.782356
H118	H	1.146210	-0.323784	-0.169615
H119	H	1.479543	0.009549	0.163718
H120	H	1.812877	0.342883	0.497051
Br121	Br	0.944397	-0.047423	0.116153
Br122	Br	1.277730	0.285910	0.449486
Br123	Br	1.611064	0.619243	0.782820
H124	H	0.978840	-0.304121	-0.070364
H125	H	1.312173	0.029212	0.262969
H126	H	1.645506	0.362546	0.596303
Br127	Br	1.128064	-0.084974	-0.218590
Br128	Br	1.461397	0.248360	0.114743
Br129	Br	1.794731	0.581693	0.448077
H130	H	1.258021	-0.106223	-0.101242
H131	H	1.591354	0.227110	0.232092
H132	H	1.924687	0.560444	0.565425
H133	H	1.254524	-0.323659	-0.100382
H134	H	1.587857	0.009674	0.232951
H135	H	1.921190	0.343007	0.566284
H136	H	1.247748	-0.092037	0.097657
H137	H	1.581081	0.241297	0.430990
H138	H	1.914414	0.574630	0.764324
H139	H	1.132925	-0.077470	0.170346
H140	H	1.466258	0.255864	0.503679
H141	H	1.799592	0.589197	0.837012
Br142	Br	1.241902	0.152759	0.452552
Br143	Br	1.575236	0.486093	0.785885
Br144	Br	1.908569	0.819426	1.119218
H145	H	1.240338	-0.309836	0.104125
H146	H	1.573671	0.023497	0.437458
H147	H	1.907005	0.356830	0.770792
Br148	Br	1.093572	-0.314069	0.217720
Br149	Br	1.426905	0.019264	0.551054
Br150	Br	1.760239	0.352597	0.884387
