data_functionalizedCrystal
_audit_creation_method	'MofGen! by Chris Wilmer'
_symmetry_space_group_name_H-M	'P1'
_symmetry_Int_Tables_number	1
_symmetry_cell_setting	triclinic
loop_
_symmetry_equiv_pos_as_xyz
  x,y,z
_cell_length_a	13.033808
_cell_length_b	14.908520
_cell_length_c	13.033109
_cell_angle_alpha	100.829980
_cell_angle_beta	89.075520
_cell_angle_gamma	100.058976
loop_
_atom_site_label
_atom_site_type_symbol
_atom_site_fract_x
_atom_site_fract_y
_atom_site_fract_z
Zn1	Zn	1.633234	-0.223517	-0.398658
Zn2	Zn	1.603439	-0.359921	-0.236802
Zn3	Zn	1.439135	-0.228445	-0.248875
Zn4	Zn	1.451181	-0.398127	-0.433357
O5	O	1.531747	-0.302503	-0.329423
O6	O	1.774234	-0.223559	-0.357613
O7	O	1.564134	-0.328553	-0.093461
O8	O	1.472311	-0.099693	-0.259275
O9	O	1.752343	-0.323775	-0.238699
O10	O	1.614915	-0.096072	-0.369320
O11	O	1.443420	-0.231958	-0.102330
O12	O	1.295782	-0.269005	-0.292921
O13	O	1.492841	-0.388892	-0.573697
O14	O	1.304631	-0.393670	-0.428459
O15	O	1.626595	-0.260606	-0.548204
O16	O	1.575814	-0.493088	-0.272345
O17	O	1.463950	-0.521157	-0.416753
C18	C	1.262622	-0.336019	-0.365766
C19	C	1.147491	-0.350382	-0.381340
C20	C	0.972778	-0.309868	-0.337412
C21	C	1.091772	-0.295024	-0.321312
C22	C	1.517987	-0.540336	-0.347023
C23	C	1.512199	-0.642073	-0.354574
C24	C	1.617955	-0.803952	-0.218480
C25	C	1.612520	-0.899542	-0.225571
C26	C	1.495900	-0.928847	-0.375851
C27	C	1.501335	-0.833256	-0.368760
C28	C	1.562363	-0.770811	-0.290071
C29	C	1.567792	-0.675219	-0.282976
C30	C	1.451178	-0.704525	-0.433260
C31	C	1.445743	-0.800116	-0.440351
C32	C	1.801924	-0.268856	-0.292939
C33	C	1.917057	-0.254517	-0.277391
C34	C	1.564385	-0.328461	-0.599584
C35	C	1.578293	-0.339523	-0.714710
C36	C	1.545593	-0.063739	-0.311774
C37	C	1.551493	0.038007	-0.304253
C38	C	1.524767	-0.296662	-0.770426
C39	C	1.539141	-0.308094	-0.889415
C40	C	1.499300	-0.276571	-0.060301
C41	C	1.485608	-0.265226	0.054871
H42	H	0.932388	-0.368249	-0.400713
F43	F	1.144553	-0.218718	-0.238556
F44	F	1.612947	-0.367130	-0.942200
F45	F	1.094711	-0.426690	-0.464095
F46	F	1.391997	-0.669249	-0.509447
H47	H	1.446221	-0.979704	-0.439921
H48	H	1.396058	-0.850970	-0.504419
H49	H	1.429134	-0.220066	-0.904744
F50	F	1.652095	-0.398556	-0.767500
F51	F	1.450971	-0.237624	-0.717635
H52	H	0.957446	-0.196143	-0.214083
H53	H	1.617482	-0.624377	-0.218901
H54	H	1.667639	-0.753108	-0.154402
F55	F	1.671691	-0.934809	-0.149376
