data_functionalizedCrystal
_audit_creation_method	'MofGen! by Chris Wilmer'
_symmetry_space_group_name_H-M	'P1'
_symmetry_Int_Tables_number	1
_symmetry_cell_setting	triclinic
loop_
_symmetry_equiv_pos_as_xyz
  x,y,z
_cell_length_a	27.731993
_cell_length_b	27.732025
_cell_length_c	22.010155
_cell_angle_alpha	90.018755
_cell_angle_beta	90.003150
_cell_angle_gamma	82.626929
loop_
_atom_site_label
_atom_site_type_symbol
_atom_site_fract_x
_atom_site_fract_y
_atom_site_fract_z
O1	O	0.640943	0.057385	-0.050344
O2	O	1.140943	0.557385	0.449656
O3	O	0.500145	0.066159	-0.050378
O4	O	1.000145	0.566159	0.449622
O5	O	0.574923	-0.008626	-0.050378
O6	O	1.074923	0.491374	0.449622
O7	O	0.566166	0.132170	-0.050343
O8	O	1.066166	0.632170	0.449657
O9	O	0.574909	-0.008615	0.050672
O10	O	1.074909	0.491385	0.550672
O11	O	0.500132	0.066170	0.050673
O12	O	1.000132	0.566170	0.550673
O13	O	0.640930	0.057397	0.050707
O14	O	1.140930	0.557397	0.550707
Cu15	Cu	0.570530	0.061784	0.059916
Cu16	Cu	1.070530	0.561784	0.559916
Cu17	Cu	0.570546	0.061771	-0.059587
Cu18	Cu	1.070546	0.561771	0.440413
O19	O	0.566152	0.132182	0.050707
O20	O	1.066152	0.632182	0.550707
C21	C	0.482131	0.065984	0.000143
C22	C	0.982131	0.565984	0.500143
C23	C	0.428475	0.065442	0.000128
C24	C	0.928475	0.565442	0.500128
C25	C	0.045323	0.061505	-0.054926
C26	C	0.545323	0.561505	0.445074
C27	C	0.246980	0.063572	-0.054942
C28	C	0.746980	0.563572	0.445058
O29	O	0.273059	0.063815	-0.101788
O30	O	0.773059	0.563815	0.398212
N31	N	0.272193	0.063837	0.000140
N32	N	0.772193	0.563837	0.500140
C33	C	0.246989	0.063582	0.055229
C34	C	0.746989	0.563582	0.555229
O35	O	0.273061	0.063849	0.102079
O36	O	0.773061	0.563849	0.602079
C37	C	0.045333	0.061511	0.055244
C38	C	0.545333	0.561511	0.555244
C39	C	0.020122	0.061251	0.000159
C40	C	0.520122	0.561251	0.500159
C41	C	0.020112	0.061245	-0.110006
C42	C	0.520112	0.561245	0.389994
C43	C	-0.030300	0.060731	-0.110002
C44	C	0.469700	0.560731	0.389998
C45	C	-0.055501	0.060477	-0.054917
C46	C	0.444499	0.560477	0.445083
C47	C	-0.030290	0.060737	0.000164
C48	C	0.469710	0.560737	0.500164
C49	C	0.020130	0.061252	0.110333
C50	C	0.520130	0.561252	0.610333
C51	C	-0.030287	0.060733	0.110332
C52	C	0.469713	0.560733	0.610332
C53	C	-0.055498	0.060474	0.055247
C54	C	0.444502	0.560474	0.555247
C55	C	-0.105902	0.059969	0.055253
C56	C	0.394098	0.559969	0.555253
N57	N	-0.131115	0.059705	0.000172
N58	N	0.368885	0.559705	0.500172
C59	C	-0.105914	0.059958	-0.054913
C60	C	0.394086	0.559958	0.445087
C61	C	0.352861	0.064670	0.055217
C62	C	0.852861	0.564670	0.555217
C63	C	0.403274	0.065188	0.055213
C64	C	0.903274	0.565188	0.555213
C65	C	0.403262	0.065178	-0.054957
C66	C	0.903262	0.565178	0.445043
C67	C	0.352847	0.064663	-0.054953
C68	C	0.852847	0.564663	0.445047
C69	C	0.327648	0.064405	0.000136
C70	C	0.827648	0.564405	0.500136
C71	C	-0.211783	0.058879	-0.054899
C72	C	0.288217	0.558879	0.445101
C73	C	-0.262199	0.058367	-0.054890
C74	C	0.237801	0.558367	0.445110
C75	C	-0.262182	0.058375	0.055281
C76	C	0.237818	0.558375	0.555281
C77	C	-0.211770	0.058890	0.055272
C78	C	0.288230	0.558890	0.555272
C79	C	-0.186572	0.059140	0.000177
C80	C	0.313428	0.559140	0.500177
O81	O	-0.132012	0.059721	0.102076
O82	O	0.367988	0.559721	0.602076
O83	O	-0.131994	0.059680	-0.101756
O84	O	0.368006	0.559680	0.398244
C85	C	0.095734	0.062019	-0.054930
C86	C	0.595734	0.562019	0.445070
C87	C	0.120945	0.062279	0.000150
C88	C	0.620945	0.562279	0.500150
C89	C	0.095744	0.062026	0.055235
C90	C	0.595744	0.562026	0.555235
C91	C	0.171359	0.062798	0.000147
C92	C	0.671359	0.562798	0.500147
C93	C	0.196559	0.063052	-0.054938
C94	C	0.696559	0.563052	0.445062
C95	C	0.171347	0.062787	-0.110020
C96	C	0.671347	0.562787	0.389980
C97	C	0.120935	0.062273	-0.110015
C98	C	0.620935	0.562273	0.389985
C99	C	0.120957	0.062290	0.110317
C100	C	0.620957	0.562290	0.610317
C101	C	0.171369	0.062805	0.110308
C102	C	0.671369	0.562805	0.610308
C103	C	0.196570	0.063059	0.055223
C104	C	0.696570	0.563059	0.555223
C105	C	0.574734	-0.026628	0.000141
C106	C	1.074734	0.473372	0.500141
C107	C	0.574186	-0.080283	0.000123
C108	C	1.074186	0.419717	0.500123
C109	C	0.570296	-0.463454	-0.054925
C110	C	1.070296	0.036546	0.445075
C111	C	0.572349	-0.261795	-0.054944
C112	C	1.072349	0.238205	0.445056
O113	O	0.572640	-0.235733	-0.101791
O114	O	1.072640	0.264267	0.398209
N115	N	0.572598	-0.236568	0.000137
N116	N	1.072598	0.263432	0.500137
C117	C	0.572337	-0.261759	0.055226
C118	C	1.072337	0.238241	0.555226
O119	O	0.572601	-0.235675	0.102076
O120	O	1.072601	0.264325	0.602076
C121	C	0.570288	-0.463417	0.055245
C122	C	1.070288	0.036583	0.555245
C123	C	0.570034	-0.488641	0.000160
C124	C	1.070034	0.011359	0.500160
C125	C	0.570043	-0.488678	-0.110005
C126	C	1.070043	0.011322	0.389995
C127	C	0.569527	-0.539090	-0.110000
C128	C	1.069527	-0.039090	0.390000
C129	C	0.569265	-0.564277	-0.054915
C130	C	1.069265	-0.064277	0.445085
C131	C	0.569518	-0.539053	0.000165
C132	C	1.069518	-0.039053	0.500165
C133	C	0.570031	-0.488608	0.110334
C134	C	1.070031	0.011392	0.610334
C135	C	0.569520	-0.539026	0.110333
C136	C	1.069520	-0.039026	0.610333
C137	C	0.569266	-0.564250	0.055249
C138	C	1.069266	-0.064250	0.555249
C139	C	0.568740	-0.614651	0.055256
C140	C	1.068740	-0.114651	0.555256
N141	N	0.568491	-0.639879	0.000175
N142	N	1.068491	-0.139879	0.500175
C143	C	0.568753	-0.614691	-0.054910
C144	C	1.068753	-0.114691	0.445090
C145	C	0.573412	-0.155885	0.055213
C146	C	1.073412	0.344115	0.555213
C147	C	0.573923	-0.105471	0.055208
C148	C	1.073923	0.394529	0.555208
C149	C	0.573936	-0.105510	-0.054963
C150	C	1.073936	0.394490	0.445037
C151	C	0.573421	-0.155925	-0.054958
C152	C	1.073421	0.344075	0.445042
C153	C	0.573163	-0.181112	0.000132
C154	C	1.073163	0.318888	0.500132
C155	C	0.567670	-0.720559	-0.054895
C156	C	1.067670	-0.220559	0.445105
C157	C	0.567152	-0.770974	-0.054885
C158	C	1.067152	-0.270974	0.445115
C159	C	0.567142	-0.770930	0.055286
C160	C	1.067142	-0.270930	0.555286
C161	C	0.567657	-0.720519	0.055276
C162	C	1.067657	-0.220519	0.555276
C163	C	0.567923	-0.695335	0.000181
C164	C	1.067923	-0.195335	0.500181
O165	O	0.568454	-0.640745	0.102079
O166	O	1.068454	-0.140745	0.602079
O167	O	0.568500	-0.640785	-0.101753
O168	O	1.068500	-0.140785	0.398247
C169	C	0.570812	-0.413043	-0.054931
C170	C	1.070812	0.086957	0.445069
C171	C	0.571066	-0.387819	0.000149
C172	C	1.071066	0.112181	0.500149
C173	C	0.570803	-0.413006	0.055235
C174	C	1.070803	0.086994	0.555235
C175	C	0.571577	-0.337404	0.000145
C176	C	1.071577	0.162596	0.500145
C177	C	0.571839	-0.312217	-0.054940
C178	C	1.071839	0.187783	0.445060
C179	C	0.571590	-0.337444	-0.110021
C180	C	1.071590	0.162556	0.389979
C181	C	0.571074	-0.387856	-0.110016
C182	C	1.071074	0.112144	0.389984
C183	C	0.571053	-0.387779	0.110316
C184	C	1.071053	0.112221	0.610316
C185	C	0.571568	-0.337367	0.110306
C186	C	1.071568	0.162633	0.610306
C187	C	0.571830	-0.312180	0.055221
C188	C	1.071830	0.187820	0.555221
C189	C	0.658944	0.057571	0.000185
C190	C	1.158944	0.557571	0.500185
C191	C	0.712600	0.058113	0.000195
C192	C	1.212600	0.558113	0.500195
C193	C	0.566341	0.150183	0.000187
C194	C	1.066341	0.650183	0.500187
C195	C	0.566890	0.203838	0.000201
C196	C	1.066890	0.703838	0.500201
N197	N	0.570522	0.061793	0.143969
N198	N	1.070522	0.561793	0.643969
N199	N	0.570557	0.061758	-0.143640
N200	N	1.070557	0.561758	0.356360
C201	C	0.603659	0.028661	0.563748
C202	C	1.103659	0.528661	1.063748
C203	C	0.603661	0.028657	0.627356
C204	C	1.103661	0.528657	1.127356
O205	O	0.631816	0.000493	0.660247
O206	O	1.131816	0.500493	1.160247
N207	N	0.570545	0.061761	0.659176
N208	N	1.070545	0.561761	1.159176
C209	C	0.537422	0.094866	0.627385
C210	C	1.037422	0.594866	1.127385
O211	O	0.509254	0.123023	0.660292
O212	O	1.009254	0.623023	1.160292
C213	C	0.537418	0.094867	0.563779
C214	C	1.037418	0.594867	1.063779
C215	C	0.570539	0.061765	0.531962
C216	C	1.070539	0.561765	1.031962
C217	C	0.636777	-0.004439	0.531931
C218	C	1.136777	0.495561	1.031931
C219	C	0.636775	-0.004435	0.468328
C220	C	1.136775	0.495565	0.968328
C221	C	0.603655	0.028669	0.436542
C222	C	1.103655	0.528669	0.936542
C223	C	0.570537	0.061769	0.468359
C224	C	1.070537	0.561769	0.968359
C225	C	0.504292	0.127970	0.531989
C226	C	1.004292	0.627970	1.031989
C227	C	0.504291	0.127967	0.468379
C228	C	1.004291	0.627967	0.968379
C229	C	0.537412	0.094865	0.436562
C230	C	1.037412	0.594865	0.936562
C231	C	0.537415	0.094877	0.372969
C232	C	1.037415	0.594877	0.872969
N233	N	0.570531	0.061774	0.341149
N234	N	1.070531	0.561774	0.841149
C235	C	0.603651	0.028670	0.372935
C236	C	1.103651	0.528670	0.872935
C237	C	0.537433	0.094862	0.760963
C238	C	1.037433	0.594862	1.260963
C239	C	0.537439	0.094864	0.824568
C240	C	1.037439	0.594864	1.324568
C241	C	0.603678	0.028654	0.824534
C242	C	1.103678	0.528654	1.324534
C243	C	0.603673	0.028655	0.760928
C244	C	1.103673	0.528655	1.260928
C245	C	0.570548	0.061759	0.729143
C246	C	1.070548	0.561759	1.229143
C247	C	0.603645	0.028681	0.239364
C248	C	1.103645	0.528681	0.739364
C249	C	0.603642	0.028689	0.175755
C250	C	1.103642	0.528689	0.675755
C251	C	0.537402	0.094897	0.175795
C252	C	1.037402	0.594897	0.675795
C253	C	0.537406	0.094891	0.239398
C254	C	1.037406	0.594891	0.739398
C255	C	0.570530	0.061778	0.271181
C256	C	1.070530	0.561778	0.771181
O257	O	0.509274	0.123025	0.340038
O258	O	1.009274	0.623025	0.840038
O259	O	0.631810	0.000514	0.340021
O260	O	1.131810	0.500514	0.840021
H261	H	0.423796	0.065407	0.100069
H262	H	0.923796	0.565407	0.600069
F263	F	0.638925	-0.006577	0.727072
F264	F	1.138925	0.493423	1.227072
H265	H	0.663748	-0.031399	0.557806
H266	H	1.163748	0.468601	1.057806
H267	H	0.566927	-0.791447	0.100135
H268	H	1.066927	-0.291447	0.600135
H269	H	0.663744	-0.031391	0.442426
H270	H	1.163744	0.468609	0.942426
H271	H	0.630645	0.001699	0.850426
H272	H	1.130645	0.501699	1.350426
F273	F	0.046951	0.061529	0.168963
F274	F	0.546951	0.561529	0.668963
H275	H	0.510473	0.121824	0.850469
H276	H	1.010473	0.621824	1.350469
H277	H	0.570867	-0.408388	-0.154872
H278	H	1.070867	0.091612	0.345128
H279	H	0.040625	0.061450	-0.154865
H280	H	0.540625	0.561450	0.345135
F281	F	-0.184939	0.059173	0.113899
F282	F	0.315061	0.559173	0.613899
F283	F	-0.057125	0.060451	-0.168631
F284	F	0.442875	0.560451	0.331369
F285	F	0.571868	-0.310629	-0.168647
F286	F	1.071868	0.189371	0.331353
H287	H	0.100413	0.062061	-0.154871
H288	H	0.600413	0.562061	0.345129
F289	F	0.502177	0.130101	0.727140
F290	F	1.002177	0.630101	1.227140
F291	F	0.570323	-0.461880	-0.168640
F292	F	1.070323	0.038120	0.331360
F293	F	0.326020	0.064385	-0.113581
F294	F	0.826020	0.564385	0.386419
F295	F	0.573151	-0.182766	-0.113585
F296	F	1.073151	0.317234	0.386415
F297	F	0.569247	-0.565829	0.168969
F298	F	1.069247	-0.065829	0.668969
F299	F	0.430091	0.065449	-0.113583
F300	F	0.930091	0.565449	0.386417
F301	F	0.326047	0.064400	0.113854
F302	F	0.826047	0.564400	0.613854
H303	H	0.477322	0.154924	0.557886
H304	H	0.977322	0.654924	1.057886
F305	F	0.469032	0.163201	0.434555
F306	F	0.969032	0.663201	0.934555
H307	H	0.570840	-0.408281	0.155174
H308	H	1.070840	0.091719	0.655174
H309	H	-0.050802	0.060528	0.155193
H310	H	0.449198	0.560528	0.655193
H311	H	0.510441	0.121850	0.265304
H312	H	1.010441	0.621850	0.765304
H313	H	-0.282724	0.058157	-0.099749
H314	H	0.217276	0.558157	0.400251
H315	H	0.574146	-0.084994	-0.099815
H316	H	1.074146	0.415006	0.400185
H317	H	-0.191272	0.059084	-0.099763
H318	H	0.308728	0.559084	0.400237
F319	F	-0.289012	0.058107	0.113903
F320	F	0.210988	0.558107	0.613903
F321	F	0.198176	0.063059	-0.168645
F322	F	0.698176	0.563059	0.331355
H323	H	0.510437	0.121851	0.149904
H324	H	1.010437	0.621851	0.649904
H325	H	0.191891	0.063021	0.155168
H326	H	0.691891	0.563021	0.655168
H327	H	0.570243	-0.468080	0.155190
H328	H	1.070243	0.031920	0.655190
H329	H	0.100444	0.062081	0.155174
H330	H	0.600444	0.562081	0.655174
H331	H	0.630617	0.001717	0.265235
H332	H	1.130617	0.501717	0.765235
F333	F	0.566880	-0.797817	-0.113516
F334	F	1.066880	-0.297817	0.386484
H335	H	0.567886	-0.700060	-0.099759
H336	H	1.067886	-0.200060	0.400241
H337	H	0.569323	-0.559623	-0.154856
H338	H	1.069323	-0.059623	0.345144
H339	H	0.574121	-0.084936	0.100064
H340	H	1.074121	0.415064	0.600064
H341	H	0.573202	-0.176388	0.100076
H342	H	1.073202	0.323612	0.600076
H343	H	0.567845	-0.699978	0.100130
H344	H	1.067845	-0.199978	0.600130
F345	F	0.638896	-0.006543	0.141896
F346	F	1.138896	0.493457	0.641896
F347	F	0.571833	-0.310527	0.168939
F348	F	1.071833	0.189473	0.668939
