data_functionalizedCrystal
_audit_creation_method	'MofGen! by Chris Wilmer'
_symmetry_space_group_name_H-M	'P1'
_symmetry_Int_Tables_number	1
_symmetry_cell_setting	triclinic
loop_
_symmetry_equiv_pos_as_xyz
  x,y,z
_cell_length_a	6.817900
_cell_length_b	9.582889
_cell_length_c	12.200875
_cell_angle_alpha	91.576692
_cell_angle_beta	107.143593
_cell_angle_gamma	111.207298
loop_
_atom_site_label
_atom_site_type_symbol
_atom_site_fract_x
_atom_site_fract_y
_atom_site_fract_z
V1	V	-4.108301	-0.207395	-0.357451
V2	V	-3.858301	0.042605	-0.107451
V3	V	-3.608301	0.292605	0.142549
V4	V	-3.358301	0.542605	0.392549
O5	O	-4.053185	0.009616	-0.350862
O6	O	-3.803185	0.259616	-0.100862
O7	O	-3.553185	0.509616	0.149138
O8	O	-3.303185	0.759616	0.399138
O9	O	-4.098767	-0.410894	-0.354798
O10	O	-3.848767	-0.160894	-0.104798
O11	O	-3.598767	0.089106	0.145202
O12	O	-3.348767	0.339106	0.395202
O13	O	-4.077439	-0.204359	-0.513442
O14	O	-3.827439	0.045641	-0.263442
O15	O	-3.577439	0.295641	-0.013442
O16	O	-3.327439	0.545641	0.236558
O17	O	-4.074661	-0.198349	-0.191120
O18	O	-3.824661	0.051651	0.058880
O19	O	-3.574661	0.301651	0.308880
O20	O	-3.324661	0.551651	0.558880
V21	V	-4.584621	-0.181420	-0.337581
V22	V	-4.334621	0.068580	-0.087581
V23	V	-4.084621	0.318580	0.162419
V24	V	-3.834621	0.568580	0.412419
O25	O	-4.385362	-0.264374	-0.401035
O26	O	-4.135362	-0.014374	-0.151035
O27	O	-3.885362	0.235626	0.098965
O28	O	-3.635362	0.485626	0.348965
O29	O	-4.757758	-0.124441	-0.293997
O30	O	-4.507758	0.125559	-0.043997
O31	O	-4.257758	0.375559	0.206003
O32	O	-4.007758	0.625559	0.456003
O33	O	-4.370948	0.022078	-0.340234
O34	O	-4.120948	0.272078	-0.090234
O35	O	-3.870948	0.522078	0.159766
O36	O	-3.620948	0.772078	0.409766
O37	O	-4.757134	-0.398432	-0.344170
O38	O	-4.507134	-0.148432	-0.094170
O39	O	-4.257134	0.101568	0.155830
O40	O	-4.007134	0.351568	0.405830
O41	O	-4.735658	-0.190467	-0.503912
O42	O	-4.485658	0.059533	-0.253912
O43	O	-4.235658	0.309533	-0.003912
O44	O	-3.985658	0.559533	0.246088
O45	O	-4.392277	-0.184457	-0.181590
O46	O	-4.142277	0.065543	0.068410
O47	O	-3.892277	0.315543	0.318410
O48	O	-3.642277	0.565543	0.568410
C49	C	-3.952656	-0.460498	-0.349105
C50	C	-3.702656	-0.210498	-0.099105
C51	C	-3.452656	0.039502	0.150895
C52	C	-3.202656	0.289502	0.400895
C53	C	-4.026264	-0.626861	-0.347976
C54	C	-3.776264	-0.376861	-0.097976
C55	C	-3.526264	-0.126861	0.152024
C56	C	-3.276264	0.123139	0.402024
C57	C	-3.925448	-0.197040	-0.551470
C58	C	-3.675448	0.052960	-0.301470
C59	C	-3.425448	0.302960	-0.051470
C60	C	-3.175448	0.552960	0.198530
C61	C	-3.981755	-0.195903	-0.678992
C62	C	-3.731755	0.054097	-0.428992
C63	C	-3.481755	0.304097	-0.178992
C64	C	-3.231755	0.554097	0.071008
C65	C	-4.084806	-0.193825	-0.912469
C66	C	-3.834806	0.056175	-0.662469
C67	C	-3.584806	0.306175	-0.412469
C68	C	-3.334806	0.556175	-0.162469
C69	C	-4.027453	-0.194981	-0.782546
C70	C	-3.777453	0.055019	-0.532546
C71	C	-3.527453	0.305019	-0.282546
C72	C	-3.277453	0.555019	-0.032546
C73	C	-4.180403	0.071674	-0.345923
C74	C	-3.930403	0.321674	-0.095923
C75	C	-3.680403	0.571674	0.154077
C76	C	-3.430403	0.821674	0.404077
C77	C	-4.086034	0.238036	-0.347060
C78	C	-3.836034	0.488036	-0.097060
C79	C	-3.586034	0.738036	0.152940
C80	C	-3.336034	0.988036	0.402940
C81	C	-4.207610	-0.191781	-0.143556
C82	C	-3.957610	0.058219	0.106444
C83	C	-3.707610	0.308219	0.356444
C84	C	-3.457610	0.558219	0.606444
C85	C	-4.130540	-0.192910	-0.016032
C86	C	-3.880540	0.057090	0.233968
C87	C	-3.630540	0.307090	0.483968
C88	C	-3.380540	0.557090	0.733968
