data_functionalizedCrystal
_audit_creation_method	'MofGen! by Chris Wilmer'
_symmetry_space_group_name_H-M	'P1'
_symmetry_Int_Tables_number	1
_symmetry_cell_setting	triclinic
loop_
_symmetry_equiv_pos_as_xyz
  x,y,z
_cell_length_a	19.188930
_cell_length_b	19.288864
_cell_length_c	17.766277
_cell_angle_alpha	90.023209
_cell_angle_beta	89.988508
_cell_angle_gamma	96.859488
loop_
_atom_site_label
_atom_site_type_symbol
_atom_site_fract_x
_atom_site_fract_y
_atom_site_fract_z
O1	O	0.087099	-0.921360	-0.062844
O2	O	0.420433	-0.588026	0.270489
O3	O	0.753766	-0.254693	0.603823
O4	O	0.098849	-0.719100	-0.062794
O5	O	0.432182	-0.385766	0.270540
O6	O	0.765515	-0.052433	0.603873
O7	O	-0.008682	-0.826066	-0.062806
O8	O	0.324651	-0.492733	0.270528
O9	O	0.657985	-0.159400	0.603861
O10	O	0.194630	-0.814393	-0.062832
O11	O	0.527963	-0.481060	0.270501
O12	O	0.861297	-0.147726	0.603835
O13	O	-0.008688	-0.826048	0.062383
O14	O	0.324646	-0.492714	0.395716
O15	O	0.657979	-0.159381	0.729050
O16	O	0.098843	-0.719081	0.062395
O17	O	0.432177	-0.385748	0.395728
O18	O	0.765510	-0.052414	0.729062
O19	O	0.087094	-0.921341	0.062345
O20	O	0.420427	-0.588008	0.395678
O21	O	0.753760	-0.254674	0.729011
Cu22	Cu	0.092968	-0.820209	0.073800
Cu23	Cu	0.426301	-0.486876	0.407134
Cu24	Cu	0.759635	-0.153543	0.740467
Cu25	Cu	0.092974	-0.820231	-0.074250
Cu26	Cu	0.426308	-0.486898	0.259084
Cu27	Cu	0.759641	-0.153565	0.592417
O28	O	0.194625	-0.814374	0.062356
O29	O	0.527958	-0.481041	0.395690
O30	O	0.861291	-0.147708	0.729023
C31	C	0.098468	-0.693214	-0.000193
C32	C	0.431801	-0.359881	0.333141
C33	C	0.765135	-0.026547	0.666474
C34	C	0.097333	-0.616110	-0.000173
C35	C	0.430666	-0.282777	0.333160
C36	C	0.764000	0.050556	0.666494
C37	C	0.087475	-0.947227	-0.000258
C38	C	0.420808	-0.613893	0.333075
C39	C	0.754141	-0.280560	0.666409
C40	C	0.088609	-1.024330	-0.000283
C41	C	0.421943	-0.690997	0.333051
C42	C	0.755276	-0.357664	0.666384
C43	C	-0.034696	-0.825679	-0.000209
C44	C	0.298638	-0.492346	0.333124
C45	C	0.631971	-0.159012	0.666458
C46	C	-0.112200	-0.824544	-0.000202
C47	C	0.221133	-0.491211	0.333131
C48	C	0.554466	-0.157878	0.666464
C49	C	-0.157129	-0.887309	-0.000214
C50	C	0.176204	-0.553975	0.333119
C51	C	0.509538	-0.220642	0.666452
C52	C	-0.229953	-0.886243	-0.000226
C53	C	0.103381	-0.552909	0.333107
C54	C	0.436714	-0.219576	0.666441
C55	C	-0.257844	-0.822408	-0.000211
C56	C	0.075489	-0.489075	0.333123
C57	C	0.408822	-0.155742	0.666456
C58	C	-0.212906	-0.759636	-0.000203
C59	C	0.120427	-0.426302	0.333130
C60	C	0.453761	-0.092969	0.666464
C61	C	-0.140084	-0.760704	-0.000199
C62	C	0.193250	-0.427370	0.333135
C63	C	0.526583	-0.094037	0.666468
N64	N	-0.365848	-0.773608	0.042405
N65	N	-0.032514	-0.440275	0.375739
N66	N	0.300819	-0.106942	0.709072
N67	N	-0.435026	-0.772598	0.042403
N68	N	-0.101693	-0.439265	0.375736
N69	N	0.231641	-0.105932	0.709070
C70	C	-0.477253	-0.819187	-0.000225
C71	C	-0.143919	-0.485854	0.333108
C72	C	0.189414	-0.152520	0.666441
N73	N	-0.447689	-0.866835	-0.042841
N74	N	-0.114356	-0.533502	0.290492
N75	N	0.218978	-0.200168	0.623825
N76	N	-0.378504	-0.867847	-0.042836
N77	N	-0.045171	-0.534514	0.290498
N78	N	0.288162	-0.201180	0.623831
C79	C	-0.336807	-0.821243	-0.000216
C80	C	-0.003473	-0.487910	0.333117
C81	C	0.329860	-0.154577	0.666451
C82	C	-0.601146	-0.880800	-0.000251
C83	C	-0.267813	-0.547467	0.333082
C84	C	0.065521	-0.214133	0.666416
C85	C	-0.673971	-0.879731	-0.000268
C86	C	-0.340637	-0.546398	0.333066
C87	C	-0.007304	-0.213065	0.666399
C88	C	-0.656922	-0.753122	-0.000237
C89	C	-0.323589	-0.419789	0.333097
C90	C	0.009745	-0.086456	0.666430
C91	C	-0.584099	-0.754193	-0.000228
C92	C	-0.250766	-0.420860	0.333105
C93	C	0.082568	-0.087526	0.666439
C94	C	-0.556216	-0.818034	-0.000231
C95	C	-0.222882	-0.484700	0.333102
C96	C	0.110451	-0.151367	0.666435
C97	C	0.220638	-0.814762	-0.000242
C98	C	0.553972	-0.481428	0.333092
C99	C	0.887305	-0.148095	0.666425
C100	C	0.298143	-0.815896	-0.000253
C101	C	0.631476	-0.482563	0.333080
C102	C	0.964809	-0.149230	0.666413
N103	N	0.092963	-0.820199	0.177931
N104	N	0.426296	-0.486865	0.511264
N105	N	0.759630	-0.153532	0.844597
C106	C	0.160427	-0.571419	-0.000193
C107	C	0.493761	-0.238085	0.333140
C108	C	0.827094	0.095248	0.666474
C109	C	0.159361	-0.498972	-0.000201
C110	C	0.492694	-0.165638	0.333132
C111	C	0.826028	0.167695	0.666466
C112	C	0.095197	-0.471219	-0.000204
C113	C	0.428530	-0.137886	0.333129
C114	C	0.761864	0.195447	0.666462
C115	C	0.032095	-0.515921	-0.000180
C116	C	0.365428	-0.182587	0.333153
C117	C	0.698761	0.150746	0.666487
C118	C	0.033163	-0.588366	-0.000164
C119	C	0.366496	-0.255033	0.333169
C120	C	0.699829	0.078300	0.666502
C121	C	0.044759	-0.362960	-0.044082
C122	C	0.378092	-0.029627	0.289251
C123	C	0.711426	0.303707	0.622585
C124	C	0.043694	-0.290515	-0.044103
C125	C	0.377027	0.042818	0.289231
C126	C	0.710360	0.376151	0.622564
C127	C	0.091900	-0.247773	-0.000249
C128	C	0.425234	0.085560	0.333084
C129	C	0.758567	0.418893	0.666417
C130	C	0.141184	-0.277483	0.043614
C131	C	0.474518	0.055850	0.376948
C132	C	0.807851	0.389183	0.710281
C133	C	0.142252	-0.349929	0.043630
C134	C	0.475586	-0.016595	0.376963
C135	C	0.808919	0.316738	0.710297
C136	C	0.094032	-0.392665	-0.000221
C137	C	0.427365	-0.059332	0.333112
C138	C	0.760699	0.274002	0.666446
C139	C	0.153843	-0.124526	-0.000277
C140	C	0.487176	0.208808	0.333056
C141	C	0.820510	0.542141	0.666389
C142	C	0.152774	-0.052078	-0.000281
C143	C	0.486107	0.281256	0.333052
C144	C	0.819441	0.614589	0.666386
C145	C	0.025506	-0.069028	-0.000267
C146	C	0.358839	0.264305	0.333066
C147	C	0.692172	0.597638	0.666399
C148	C	0.026576	-0.141475	-0.000256
C149	C	0.359910	0.191858	0.333077
C150	C	0.693243	0.525192	0.666410
C151	C	0.090747	-0.169219	-0.000265
C152	C	0.424080	0.164114	0.333069
C153	C	0.757414	0.497448	0.666402
N154	N	0.092974	-0.820247	-0.178380
N155	N	0.426307	-0.486914	0.154953
N156	N	0.759641	-0.153581	0.488287
C157	C	0.045372	-0.867579	0.217312
C158	C	0.378705	-0.534245	0.550646
C159	C	0.712038	-0.200912	0.883979
C160	C	0.045368	-0.867583	0.296114
C161	C	0.378702	-0.534250	0.629448
C162	C	0.712035	-0.200916	0.962781
C163	C	0.092969	-0.820213	0.335531
C164	C	0.426302	-0.486880	0.668865
C165	C	0.759635	-0.153547	1.002198
C166	C	0.140564	-0.772824	0.296140
C167	C	0.473897	-0.439491	0.629474
C168	C	0.807230	-0.106158	0.962807
C169	C	0.140561	-0.772817	0.217340
C170	C	0.473894	-0.439484	0.550673
C171	C	0.807228	-0.106150	0.884007
C172	C	0.156585	-0.810919	0.460362
C173	C	0.489919	-0.477586	0.793696
C174	C	0.823252	-0.144253	1.127029
C175	C	0.156589	-0.810931	0.539161
C176	C	0.489922	-0.477598	0.872495
C177	C	0.823256	-0.144265	1.205828
C178	C	0.092977	-0.820232	0.578578
C179	C	0.426310	-0.486899	0.911911
C180	C	0.759644	-0.153565	1.245244
C181	C	0.029359	-0.829535	0.539185
C182	C	0.362692	-0.496202	0.872519
C183	C	0.696025	-0.162868	1.205852
C184	C	0.029356	-0.829528	0.460385
C185	C	0.362689	-0.496194	0.793719
C186	C	0.696022	-0.162861	1.127052
C187	C	0.092977	-0.820216	0.420977
C188	C	0.426310	-0.486882	0.754310
C189	C	0.759643	-0.153549	1.087644
C190	C	0.045378	-0.867619	0.703405
C191	C	0.378711	-0.534286	1.036739
C192	C	0.712045	-0.200952	1.370072
C193	C	0.045374	-0.867618	0.782208
C194	C	0.378707	-0.534285	1.115542
C195	C	0.712041	-0.200951	1.448875
C196	C	0.140575	-0.772863	0.782233
C197	C	0.473909	-0.439530	1.115566
C198	C	0.807242	-0.106196	1.448900
C199	C	0.140573	-0.772861	0.703431
C200	C	0.473907	-0.439527	1.036765
C201	C	0.807240	-0.106194	1.370098
C202	C	0.092976	-0.820242	0.664022
C203	C	0.426309	-0.486909	0.997355
C204	C	0.759642	-0.153576	1.330689
H205	H	-0.134431	-0.939293	-0.000220
H206	H	0.198902	-0.605960	0.333114
H207	H	0.532235	-0.272626	0.666447
Cl208	Cl	-0.046163	-0.644553	-0.000140
Cl209	Cl	0.287171	-0.311220	0.333193
Cl210	Cl	0.620504	0.022113	0.666527
H211	H	0.208391	-0.803361	0.571228
H212	H	0.541724	-0.470028	0.904562
H213	H	0.875057	-0.136694	1.237895
H214	H	-0.235620	-0.707661	-0.000192
H215	H	0.097713	-0.374328	0.333141
H216	H	0.431047	-0.040995	0.666475
H217	H	0.006612	-0.906167	0.328185
H218	H	0.339946	-0.572833	0.661518
H219	H	0.673279	-0.239500	0.994851
Cl220	Cl	-0.018256	-0.253172	-0.099253
Cl221	Cl	0.315077	0.080161	0.234081
Cl222	Cl	0.648411	0.413494	0.567414
H223	H	0.005502	-0.397756	-0.079797
H224	H	0.338835	-0.064422	0.253536
H225	H	0.672168	0.268911	0.586870
H226	H	-0.103502	-0.709591	-0.000189
H227	H	0.229831	-0.376258	0.333145
H228	H	0.563165	-0.042925	0.666478
Cl229	Cl	-0.055159	-0.034147	-0.000263
Cl230	Cl	0.278175	0.299187	0.333071
Cl231	Cl	0.611508	0.632520	0.666404
Cl232	Cl	-0.286445	-0.965153	-0.000242
Cl233	Cl	0.046888	-0.631819	0.333091
Cl234	Cl	0.380222	-0.298486	0.666425
Cl235	Cl	-0.730454	-0.958643	-0.000288
Cl236	Cl	-0.397121	-0.625310	0.333046
Cl237	Cl	-0.063787	-0.291976	0.666379
H238	H	-0.024802	-0.177864	-0.000244
H239	H	0.308531	0.155469	0.333089
H240	H	0.641865	0.488803	0.666423
H241	H	-0.578442	-0.932783	-0.000257
H242	H	-0.245109	-0.599450	0.333076
H243	H	0.088225	-0.266116	0.666409
Cl244	Cl	-0.691979	-0.672873	-0.000222
Cl245	Cl	-0.358646	-0.339539	0.333111
Cl246	Cl	-0.025312	-0.006206	0.666445
Cl247	Cl	-0.527614	-0.675284	-0.000209
Cl248	Cl	-0.194281	-0.341951	0.333124
Cl249	Cl	0.139053	-0.008617	0.666457
H250	H	0.212680	-0.594003	-0.000201
H251	H	0.546013	-0.260670	0.333132
H252	H	0.879347	0.072664	0.666465
H253	H	0.006613	-0.906158	0.185228
H254	H	0.339947	-0.572825	0.518561
H255	H	0.673280	-0.239491	0.851894
Cl256	Cl	0.238686	-0.442777	-0.000225
Cl257	Cl	0.572019	-0.109444	0.333109
Cl258	Cl	0.905352	0.223889	0.666442
Cl259	Cl	0.200409	-0.713298	0.653918
Cl260	Cl	0.533742	-0.379965	0.987251
Cl261	Cl	0.867076	-0.046631	1.320585
Cl262	Cl	-0.048569	-0.481033	-0.000180
Cl263	Cl	0.284764	-0.147700	0.333154
Cl264	Cl	0.618098	0.185634	0.666487
H265	H	0.182379	-0.374116	0.079348
H266	H	0.515712	-0.040782	0.412681
H267	H	0.849046	0.292551	0.746014
Cl268	Cl	-0.050618	-0.841214	0.410866
Cl269	Cl	0.282716	-0.507881	0.744200
Cl270	Cl	0.616049	-0.174548	1.077533
Cl271	Cl	0.201792	-0.223758	0.098748
Cl272	Cl	0.535125	0.109575	0.432081
Cl273	Cl	0.868459	0.442908	0.765414
Cl274	Cl	0.236565	-0.799291	0.410819
Cl275	Cl	0.569898	-0.465958	0.744152
Cl276	Cl	0.903231	-0.132625	1.077485
H277	H	0.206094	-0.147116	-0.000273
H278	H	0.539428	0.186217	0.333060
H279	H	0.872761	0.519551	0.666393
Cl280	Cl	-0.050617	-0.841233	0.588728
Cl281	Cl	0.282717	-0.507900	0.922062
Cl282	Cl	0.616050	-0.174566	1.255395
H283	H	0.204155	-0.015690	-0.000293
H284	H	0.537488	0.317644	0.333040
H285	H	0.870822	0.650977	0.666374
H286	H	0.179319	-0.734254	0.328238
H287	H	0.512653	-0.400921	0.661571
H288	H	0.845986	-0.067588	0.994904
H289	H	0.179316	-0.734234	0.185275
H290	H	0.512650	-0.400900	0.518608
H291	H	0.845983	-0.067567	0.851941
Cl292	Cl	-0.014462	-0.927180	0.653861
Cl293	Cl	0.318871	-0.593847	0.987194
Cl294	Cl	0.652204	-0.260514	1.320528
Cl295	Cl	-0.014464	-0.927182	0.831720
Cl296	Cl	0.318869	-0.593849	1.165053
Cl297	Cl	0.652202	-0.260516	1.498387
H298	H	0.179330	-0.734291	0.814326
H299	H	0.512663	-0.400958	1.147659
H300	H	0.845996	-0.067625	1.480992
