data_functionalizedCrystal
_audit_creation_method	'MofGen! by Chris Wilmer'
_symmetry_space_group_name_H-M	'P1'
_symmetry_Int_Tables_number	1
_symmetry_cell_setting	triclinic
loop_
_symmetry_equiv_pos_as_xyz
  x,y,z
_cell_length_a	12.477989
_cell_length_b	12.477989
_cell_length_c	14.560438
_cell_angle_alpha	55.724518
_cell_angle_beta	89.999736
_cell_angle_gamma	68.548589
loop_
_atom_site_label
_atom_site_type_symbol
_atom_site_fract_x
_atom_site_fract_y
_atom_site_fract_z
Zr1	Zr	1.054037	1.316339	-0.253168
O2	O	0.905373	1.521385	-0.402973
O3	O	1.089951	1.096507	-0.197920
O4	O	1.103880	1.322878	-0.402972
O5	O	0.891445	1.295011	-0.046780
O6	O	1.271452	1.344855	-0.413578
O7	O	0.891445	1.295014	-0.197921
O8	O	1.246537	0.939919	-0.046777
O9	O	0.916360	1.699947	-0.413581
O10	O	1.241995	1.208804	-0.193538
O11	O	1.116938	1.192401	-0.072828
O12	O	1.133337	1.458923	-0.314250
O13	O	1.008279	1.442520	-0.193540
Zr14	Zr	1.321296	1.351384	-0.029031
Zr15	Zr	1.321296	1.351389	-0.270084
Zr16	Zr	1.054037	1.316334	-0.012116
Zr17	Zr	1.071560	1.601125	-0.270086
Zr18	Zr	1.303773	1.066598	-0.012114
O19	O	1.285381	1.571216	-0.084279
O20	O	1.285381	1.571222	-0.427025
O21	O	0.905373	1.521378	-0.060228
O22	O	1.469959	1.146338	0.120774
O23	O	1.469959	1.146345	-0.221972
O24	O	1.089951	1.096500	0.144826
O25	O	1.483888	1.372712	-0.235419
O26	O	1.271452	1.344845	0.120772
O27	O	1.103880	1.322868	0.131379
O28	O	1.483888	1.372709	-0.084278
O29	O	1.128795	1.727808	-0.427026
O30	O	1.246537	0.939915	0.144827
O31	O	1.458972	0.967775	0.131381
O32	O	1.458972	0.967779	-0.060223
O33	O	0.916360	1.699944	-0.221976
O34	O	1.128795	1.727804	-0.235422
O35	O	1.241995	1.208799	0.032051
O36	O	1.367053	1.225203	-0.088659
O37	O	1.258394	1.475322	-0.209371
O38	O	1.133337	1.458919	-0.088661
C39	C	1.165747	0.977637	-0.119938
C40	C	1.158308	0.856738	-0.112756
C41	C	0.853366	1.290018	-0.119941
C42	C	0.739908	1.275139	-0.112760
C43	C	1.521966	1.377704	-0.162258
C44	C	1.635425	1.392584	-0.169440
C45	C	1.187666	1.333867	-0.442619
C46	C	1.187666	1.333870	-0.544952
C47	C	1.209585	1.690086	-0.162261
C48	C	1.217024	1.810985	-0.169443
C49	C	1.130942	1.464426	-0.656039
C50	C	1.130946	1.464419	-0.752187
C51	C	1.244397	1.203287	-0.626149
C52	C	1.244401	1.203297	-0.530003
C53	C	1.065437	1.615188	-0.728807
C54	C	1.065441	1.615181	-0.824955
C55	C	1.187666	1.333855	0.160420
C56	C	1.187666	1.333853	0.262753
C57	C	1.500048	1.021480	-0.141097
C58	C	1.606067	0.915461	-0.141096
C59	C	1.165747	0.977631	0.181582
C60	C	1.158308	0.856730	0.291097
C61	C	1.500048	1.021474	0.160423
C62	C	1.606067	0.915453	0.262757
C63	C	0.875285	1.646249	-0.442622
C64	C	0.769265	1.752270	-0.544956
C65	C	0.875285	1.646243	-0.141102
C66	C	0.769265	1.752262	-0.141103
C67	C	1.209585	1.690092	-0.463781
C68	C	1.217024	1.810993	-0.573296
C69	C	1.068538	0.886220	0.342527
C70	C	1.061524	0.772633	0.445420
C71	C	1.144287	0.629558	0.496884
C72	C	1.234062	0.600068	0.445445
C73	C	1.241070	0.713653	0.342550
C74	C	1.134249	1.954049	-0.624728
C75	C	1.141235	2.067663	-0.727620
C76	C	1.230992	2.038219	-0.779083
C77	C	1.313775	1.895149	-0.727642
C78	C	1.306794	1.781538	-0.624747
C79	C	1.590600	0.857089	-0.195838
C80	C	1.690221	0.757482	-0.195842
C81	C	1.820774	0.774624	-0.086352
C82	C	1.721154	0.874236	-0.086356
C83	C	1.515226	0.847186	-0.259047
C84	C	1.614848	0.747579	-0.259051
C85	C	1.649837	0.767261	0.316715
C86	C	1.749439	0.667681	0.412883
C87	C	1.761488	0.864500	0.401128
C88	C	1.661894	0.964078	0.304957
C89	C	1.642878	0.653628	0.323506
C90	C	1.742480	0.554048	0.419674
H91	H	1.273005	0.864294	-0.223457
H92	H	1.663315	0.643572	0.251659
H93	H	1.914488	0.741047	-0.041786
F94	F	0.943309	1.663703	-0.713232
H95	H	0.632771	1.504518	-0.223467
F96	F	1.322139	0.447787	0.500233
F97	F	0.743379	1.128821	-0.042149
F98	F	1.336625	0.682245	0.287828
H99	H	1.001137	1.002711	0.300637
F100	F	1.304769	1.064340	-0.411776
F101	F	1.038710	1.985418	-0.569977
F102	F	1.532064	0.639088	0.352473
F103	F	1.053118	2.219917	-0.782351
H104	H	1.102340	0.803426	-0.058738
F105	F	1.847648	0.476417	0.396207
F106	F	1.134440	1.688883	-0.899516
F107	F	1.615324	1.121798	0.247524
H108	H	1.290589	1.096979	-0.613991
H109	H	1.111161	1.682377	-0.735147
F110	F	0.939936	1.678681	-0.889712
H111	H	1.463895	0.945942	-0.351731
F112	F	0.965974	0.804048	0.500150
F113	F	1.409292	1.863834	-0.782431
H114	H	1.138567	0.537083	0.580668
H115	H	1.236661	2.130742	-0.862869
H116	H	1.456149	0.797089	-0.208075
F117	F	1.630926	0.805030	-0.376950
F118	F	1.394888	1.629287	-0.570031
H119	H	1.733759	0.921774	-0.041793
F120	F	1.606297	0.608558	-0.201354
F121	F	1.820911	0.916237	0.446049
H122	H	1.716708	0.476831	0.496732
