data_functionalizedCrystal
_audit_creation_method	'MofGen! by Chris Wilmer'
_symmetry_space_group_name_H-M	'P1'
_symmetry_Int_Tables_number	1
_symmetry_cell_setting	triclinic
loop_
_symmetry_equiv_pos_as_xyz
  x,y,z
_cell_length_a	13.032831
_cell_length_b	29.839131
_cell_length_c	13.034296
_cell_angle_alpha	82.787341
_cell_angle_beta	74.814550
_cell_angle_gamma	82.845366
loop_
_atom_site_label
_atom_site_type_symbol
_atom_site_fract_x
_atom_site_fract_y
_atom_site_fract_z
Zn1	Zn	1.699970	-0.227742	-0.806381
Zn2	Zn	1.677199	-0.311336	-0.628725
Zn3	Zn	1.499773	-0.227747	-0.606262
Zn4	Zn	1.522248	-0.294363	-0.783784
O5	O	1.599797	-0.265297	-0.706288
O6	O	1.845580	-0.245933	-0.801672
O7	O	1.634728	-0.307352	-0.477102
O8	O	1.526454	-0.164883	-0.632864
O9	O	1.828851	-0.307348	-0.671149
O10	O	1.673538	-0.164880	-0.779890
O11	O	1.504374	-0.245940	-0.460598
O12	O	1.354123	-0.229482	-0.610953
O13	O	1.564758	-0.278421	-0.935425
O14	O	1.370635	-0.278425	-0.741378
O15	O	1.695330	-0.229475	-0.952026
O16	O	1.656521	-0.371948	-0.649238
O17	O	1.542678	-0.359478	-0.763159
C18	C	1.323841	-0.252113	-0.671276
C19	C	1.205789	-0.246482	-0.656323
C20	C	1.161342	-0.268236	-0.714092
C21	C	1.039330	-0.262417	-0.698639
C22	C	1.599599	-0.382013	-0.706211
C23	C	1.599616	-0.431948	-0.706226
C24	C	1.659211	-0.748079	-0.647084
C25	C	1.659348	-0.935756	-0.647142
O26	O	1.709861	-0.965532	-0.596798
N27	N	1.600028	-0.952746	-0.706396
C28	C	1.540675	-0.922813	-0.765645
O29	O	1.490232	-0.941570	-0.816054
C30	C	1.540546	-0.735136	-0.765593
C31	C	1.599861	-0.718150	-0.706326
C32	C	1.718522	-0.731092	-0.587823
C33	C	1.718483	-0.684175	-0.587805
C34	C	1.659133	-0.654246	-0.647047
C35	C	1.599822	-0.671233	-0.706308
C36	C	1.481200	-0.705204	-0.824847
C37	C	1.481175	-0.658283	-0.824831
C38	C	1.540490	-0.641296	-0.765565
C39	C	1.540432	-0.594387	-0.765532
N40	N	1.599752	-0.577398	-0.706278
C41	C	1.659102	-0.607327	-0.647035
C42	C	1.540746	-1.021346	-0.765667
C43	C	1.540777	-1.068265	-0.765679
C44	C	1.659451	-1.081205	-0.647177
C45	C	1.659413	-1.034285	-0.647160
C46	C	1.600066	-1.004356	-0.706413
C47	C	1.659014	-0.508798	-0.647000
C48	C	1.658966	-0.461877	-0.646984
C49	C	1.540297	-0.448941	-0.765490
C50	C	1.540340	-0.495858	-0.765502
C51	C	1.599707	-0.525786	-0.706255
O52	O	1.489955	-0.564585	-0.815859
O53	O	1.709556	-0.588561	-0.596652
C54	C	1.659251	-0.794995	-0.647102
C55	C	1.599939	-0.811983	-0.706363
C56	C	1.540589	-0.782053	-0.765605
C57	C	1.599970	-0.858902	-0.706375
C58	C	1.659321	-0.888831	-0.647133
C59	C	1.718640	-0.871841	-0.587879
C60	C	1.718601	-0.824925	-0.587860
C61	C	1.481269	-0.799043	-0.824859
C62	C	1.481312	-0.845960	-0.824872
C63	C	1.540663	-0.875889	-0.765630
C64	C	1.876832	-0.278533	-0.741437
C65	C	1.994887	-0.284174	-0.756415
C66	C	1.635091	-0.252054	-0.983345
C67	C	1.650131	-0.246411	-1.101410
C68	C	1.600029	-0.148126	-0.706392
C69	C	1.600127	-0.098194	-0.706436
C70	C	1.592232	-0.268113	-1.145833
C71	C	1.607775	-0.262281	-1.267859
C72	C	1.564702	-0.278459	-0.430317
C73	C	1.549868	-0.283985	-0.312278
H74	H	1.047160	-0.307105	-0.817324
H75	H	1.432893	-0.719026	-0.873103
O76	O	1.223673	-0.295537	-0.786892
C77	C	1.210154	-0.279455	-0.889404
H78	H	1.180342	-0.241860	-0.891083
H79	H	1.149354	-0.299192	-0.908976
C80	C	1.354404	-0.332184	-0.970610
C81	C	1.317797	-0.286009	-0.972676
H82	H	1.420802	-0.336228	-1.021978
H83	H	1.363510	-0.343020	-0.901546
H84	H	1.303728	-0.348626	-0.986917
H85	H	1.368467	-0.269568	-0.956356
H86	H	1.308702	-0.275169	-1.041739
O87	O	0.976815	-0.235094	-0.625983
C88	C	0.868909	-0.235364	-0.626733
H89	H	0.858247	-0.267684	-0.659491
H90	H	0.844690	-0.204552	-0.679445
C91	C	0.811256	-0.193926	-0.471859
C92	C	0.798158	-0.233624	-0.512086
H93	H	0.767612	-0.192850	-0.401141
H94	H	0.883954	-0.193742	-0.471356
H95	H	0.791074	-0.168254	-0.515796
H96	H	0.818353	-0.259295	-0.468157
H97	H	0.725461	-0.233811	-0.512579
O98	O	1.477112	-0.311370	-1.249954
C99	C	1.503635	-0.355967	-1.279908
H100	H	1.592348	-0.360841	-1.321232
H101	H	1.454803	-0.361934	-1.336983
C102	C	1.369774	-0.384052	-1.128951
C103	C	1.478736	-0.390039	-1.179698
H104	H	1.354411	-0.405070	-1.067138
H105	H	1.351902	-0.354006	-1.108772
H106	H	1.329094	-0.389024	-1.176524
H107	H	1.519413	-0.385062	-1.132129
H108	H	1.496614	-0.420085	-1.199866
H109	H	1.668860	-0.239384	-1.320163
O110	O	1.776454	-0.900932	-0.530514
C111	C	1.852712	-0.928409	-0.599783
H112	H	1.869812	-0.910557	-0.684260
H113	H	1.820375	-0.962243	-0.599258
C114	C	1.935597	-0.958757	-0.458284
C115	C	1.956605	-0.936830	-0.562039
H116	H	1.999681	-0.963954	-0.435000
H117	H	1.884218	-0.940247	-0.411615
H118	H	1.908646	-0.986950	-0.457860
H119	H	1.983542	-0.908635	-0.562458
H120	H	2.007991	-0.955335	-0.608707
O121	O	1.143535	-0.219158	-0.583532
C122	C	1.157019	-0.235257	-0.481017
H123	H	1.237265	-0.256450	-0.488877
H124	H	1.090005	-0.257088	-0.437287
C125	C	1.055314	-0.168695	-0.407837
C126	C	1.153878	-0.194721	-0.417491
H127	H	1.053371	-0.143691	-0.368648
H128	H	1.046225	-0.157849	-0.476902
H129	H	0.999480	-0.186892	-0.371398
H130	H	1.209708	-0.176526	-0.453941
H131	H	1.162975	-0.205563	-0.348430
H132	H	1.707267	-0.448049	-0.598718
O133	O	1.716699	-0.537803	-0.589348
C134	C	1.769053	-0.512740	-0.537066
H135	H	1.725045	-0.477415	-0.527835
H136	H	1.854649	-0.509695	-0.586255
C137	C	1.824115	-0.580580	-0.437318
C138	C	1.770058	-0.537195	-0.425972
H139	H	1.824740	-0.595666	-0.368792
H140	H	1.788846	-0.597466	-0.472544
H141	H	1.895439	-0.578036	-0.478312
H142	H	1.698732	-0.539740	-0.384990
H143	H	1.805315	-0.520310	-0.390736
O144	O	1.776199	-0.760098	-0.530171
C145	C	1.828555	-0.735033	-0.477895
H146	H	1.784551	-0.699708	-0.468673
H147	H	1.914152	-0.731991	-0.527084
C148	C	1.883608	-0.802871	-0.378132
C149	C	1.829556	-0.759484	-0.366796
H150	H	1.884230	-0.817954	-0.309602
H151	H	1.848338	-0.819758	-0.413353
H152	H	1.954933	-0.800329	-0.419126
H153	H	1.758229	-0.762027	-0.325815
H154	H	1.864814	-0.742598	-0.331565
H155	H	1.766786	-0.670348	-0.539549
H156	H	1.707713	-1.020458	-0.598900
H157	H	1.433001	-0.859786	-0.873132
O158	O	1.722850	-0.219035	-1.163829
C159	C	1.670554	-0.184094	-1.220370
H160	H	1.582670	-0.178914	-1.176263
H161	H	1.677500	-0.193820	-1.303925
C162	C	1.830707	-0.146146	-1.283018
C163	C	1.722767	-0.139781	-1.228840
H164	H	1.862916	-0.118812	-1.288248
H165	H	1.865942	-0.169688	-1.244929
H166	H	1.836481	-0.154253	-1.352642
H167	H	1.716996	-0.131680	-1.159214
H168	H	1.687533	-0.116237	-1.266918
H169	H	1.492465	-1.082091	-0.813928
H170	H	1.531160	-0.291012	-1.093526
O171	O	1.482986	-0.992339	-0.823242
C172	C	1.430661	-1.017402	-0.875553
H173	H	1.421515	-1.052761	-0.831583
H174	H	1.479767	-1.020360	-0.961188
C175	C	1.330756	-0.949590	-0.930417
C176	C	1.319515	-0.993017	-0.876407
H177	H	1.262198	-0.934548	-0.930949
H178	H	1.366012	-0.932704	-0.895178
H179	H	1.371682	-0.952062	-1.001775
H180	H	1.278601	-0.990545	-0.805048
H181	H	1.284250	-1.009902	-0.911634
O182	O	1.423430	-0.629273	-0.882416
C183	C	1.371116	-0.654332	-0.934748
H184	H	1.361952	-0.689691	-0.890781
H185	H	1.420240	-0.657291	-1.020376
C186	C	1.271243	-0.586515	-0.989635
C187	C	1.259981	-0.629942	-0.935629
H188	H	1.202692	-0.571470	-0.990184
H189	H	1.306491	-0.569632	-0.954383
H190	H	1.312184	-0.588987	-1.060987
H191	H	1.219052	-0.627469	-0.864275
H192	H	1.224723	-0.646825	-0.970870
H193	H	1.766901	-0.811098	-0.539600
H194	H	1.432940	-0.774677	-0.873103
H195	H	1.707777	-1.105582	-0.598940
H196	H	1.492045	-0.509689	-0.813766
H197	H	1.491971	-0.424565	-0.813720
