data_functionalizedCrystal
_audit_creation_method	'MofGen! by Chris Wilmer'
_symmetry_space_group_name_H-M	'P1'
_symmetry_Int_Tables_number	1
_symmetry_cell_setting	triclinic
loop_
_symmetry_equiv_pos_as_xyz
  x,y,z
_cell_length_a	16.120484
_cell_length_b	16.959455
_cell_length_c	16.959447
_cell_angle_alpha	89.987476
_cell_angle_beta	92.866538
_cell_angle_gamma	92.926296
loop_
_atom_site_label
_atom_site_type_symbol
_atom_site_fract_x
_atom_site_fract_y
_atom_site_fract_z
Zn1	Zn	-0.331871	1.192398	-0.462810
Zn2	Zn	0.168129	1.692398	0.037190
Zn3	Zn	-0.471300	1.185604	-0.337327
Zn4	Zn	0.028700	1.685604	0.162673
Zn5	Zn	-0.331907	1.060225	-0.330653
Zn6	Zn	0.168093	1.560225	0.169347
Zn7	Zn	-0.471247	1.053478	-0.469468
Zn8	Zn	0.028753	1.553478	0.030532
O9	O	-0.401581	1.122926	-0.400064
O10	O	0.098419	1.622926	0.099936
O11	O	-0.350374	1.302107	-0.446171
O12	O	0.149626	1.802107	0.053829
O13	O	-0.452846	1.168953	-0.225833
O14	O	0.047154	1.668953	0.274167
O15	O	-0.215236	1.083425	-0.342604
O16	O	0.284764	1.583425	0.157396
O17	O	-0.452811	1.297116	-0.353980
O18	O	0.047189	1.797116	0.146020
O19	O	-0.215210	1.180532	-0.439699
O20	O	0.284790	1.680532	0.060301
O21	O	-0.350435	1.076837	-0.220929
O22	O	0.149565	1.576837	0.279071
O23	O	-0.350383	0.948719	-0.349060
O24	O	0.149617	1.448719	0.150940
O25	O	-0.452721	1.071925	-0.579193
O26	O	0.047279	1.571925	-0.079193
O27	O	-0.452756	0.943762	-0.451047
O28	O	0.047244	1.443762	0.048953
O29	O	-0.350322	1.173989	-0.574302
O30	O	0.149678	1.673989	-0.074302
O31	O	-0.587958	1.162411	-0.360436
O32	O	-0.087958	1.662411	0.139564
O33	O	-0.587920	1.065338	-0.457518
O34	O	-0.087920	1.565338	0.042482
C35	C	-0.618189	1.112426	-0.410441
C36	C	-0.118189	1.612426	0.089559
C37	C	-0.710855	1.108007	-0.414907
C38	C	-0.210855	1.608007	0.085093
C39	C	-0.401568	0.917561	-0.400052
C40	C	0.098432	1.417561	0.099948
C41	C	-0.401583	0.829703	-0.400066
C42	C	0.098417	1.329703	0.099934
C43	C	-0.401512	1.122962	-0.606229
C44	C	0.098488	1.622962	-0.106229
C45	C	-0.401483	1.122978	-0.694085
C46	C	0.098517	1.622978	-0.194085
C47	C	-0.880516	1.099942	-0.423076
C48	C	-0.380516	1.599942	0.076924
C49	C	-0.921805	1.146052	-0.377066
C50	C	-0.421805	1.646052	0.122934
C51	C	-1.016211	1.141565	-0.381611
C52	C	-0.516211	1.641565	0.118389
C53	C	-0.786102	1.104428	-0.418532
C54	C	-0.286102	1.604428	0.081468
C55	C	-0.184127	1.133489	-0.389664
C56	C	0.315873	1.633489	0.110336
C57	C	-0.091461	1.137990	-0.385233
C58	C	0.408539	1.637990	0.114767
C59	C	-0.401594	1.329094	-0.400077
C60	C	0.098406	1.829094	0.099923
C61	C	-0.401600	1.416950	-0.400083
C62	C	0.098400	1.916950	0.099917
C63	C	-0.454919	1.785830	-0.352068
C64	C	0.045081	2.285830	0.147932
C65	C	-0.348250	1.791023	-0.448067
C66	C	0.151750	2.291023	0.051933
C67	C	-0.348254	1.708477	-0.448072
C68	C	0.151746	2.208477	0.051928
C69	C	-0.401590	1.664604	-0.400074
C70	C	0.098410	2.164604	0.099926
C71	C	-0.454923	1.703276	-0.352070
C72	C	0.045077	2.203276	0.147930
C73	C	-0.294916	1.669798	-0.496069
C74	C	0.205084	2.169798	0.003931
C75	C	-0.294916	1.587247	-0.496076
C76	C	0.205084	2.087247	0.003924
C77	C	-0.348258	1.543372	-0.448081
C78	C	0.151742	2.043372	0.051919
C79	C	-0.401593	1.582050	-0.400076
C80	C	0.098407	2.082050	0.099924
C81	C	-0.454930	1.538177	-0.352077
C82	C	0.045070	2.038177	0.147923
C83	C	-0.508270	1.576853	-0.304075
C84	C	-0.008270	2.076853	0.195925
C85	C	-0.508264	1.659402	-0.304075
C86	C	-0.008264	2.159402	0.195925
C87	C	-0.348264	1.460823	-0.448081
C88	C	0.151736	1.960823	0.051919
C89	C	-0.454933	1.455623	-0.352079
C90	C	0.045067	1.955623	0.147921
C91	C	-0.454709	1.069936	-1.068105
C92	C	0.045291	1.569936	-0.568105
C93	C	-0.348080	1.176217	-1.063007
C94	C	0.151920	1.676217	-0.563007
C95	C	-0.348098	1.176195	-0.980462
C96	C	0.151902	1.676195	-0.480462
C97	C	-0.401423	1.123044	-0.941735
C98	C	0.098577	1.623044	-0.441735
C99	C	-0.454730	1.069914	-0.985553
C100	C	0.045270	1.569914	-0.485553
C101	C	-0.294798	1.229329	-0.936638
C102	C	0.205202	1.729329	-0.436638
C103	C	-0.294814	1.229309	-0.854088
C104	C	0.205186	1.729309	-0.354088
C105	C	-0.348135	1.176154	-0.815359
C106	C	0.151865	1.676154	-0.315359
C107	C	-0.401444	1.123022	-0.859182
C108	C	0.098556	1.623022	-0.359182
C109	C	-0.454769	1.069871	-0.820455
C110	C	0.045231	1.569871	-0.320455
C111	C	-0.508074	1.016734	-0.864277
C112	C	-0.008074	1.516734	-0.364277
C113	C	-0.508051	1.016759	-0.946824
C114	C	-0.008051	1.516759	-0.446824
C115	C	-0.348158	1.176129	-0.732812
C116	C	0.151842	1.676129	-0.232812
C117	C	-0.454790	1.069849	-0.737903
C118	C	0.045210	1.569849	-0.237903
C119	C	-0.401590	1.122939	-0.194698
C120	C	0.098410	1.622939	0.305302
C121	C	-0.401384	1.123088	-0.106832
C122	C	0.098616	1.623088	0.393168
H123	H	-0.886253	1.188897	-0.334261
H124	H	-0.386253	1.688897	0.165739
Br125	Br	-0.939769	1.028534	-0.494415
Br126	Br	-0.439769	1.528534	0.005585
H127	H	-0.251389	1.272606	-0.968176
H128	H	0.248611	1.772606	-0.468176
H129	H	-0.251409	1.272576	-0.818415
H130	H	0.248591	1.772576	-0.318415
Br131	Br	-0.580644	1.517302	-0.238928
Br132	Br	-0.080644	2.017302	0.261072
Br133	Br	-0.580448	0.944609	-0.811709
Br134	Br	-0.080448	1.444609	-0.311709
H135	H	-0.498350	1.817324	-0.312988
H136	H	0.001650	2.317324	0.187012
H137	H	-0.251485	1.555764	-0.535163
H138	H	0.248515	2.055764	-0.035163
Br139	Br	-0.527156	0.997704	-0.685351
Br140	Br	-0.027156	1.497704	-0.185351
H141	H	-0.498370	1.419907	-0.312995
H142	H	0.001630	1.919907	0.187005
Br143	Br	-0.580646	1.711895	-0.238934
Br144	Br	-0.080646	2.211895	0.261066
H145	H	-0.304822	1.826749	-0.487142
H146	H	0.195178	2.326749	0.012858
H147	H	-0.251489	1.705525	-0.535144
H148	H	0.248511	2.205525	-0.035144
H149	H	-0.551452	0.973500	-0.982511
H150	H	-0.051452	1.473500	-0.482511
H151	H	-0.304829	1.429337	-0.487157
H152	H	0.195171	1.929337	0.012843
H153	H	-0.498106	1.026672	-1.103788
H154	H	0.001894	1.526672	-0.603788
Br155	Br	-0.275723	1.248355	-1.115566
Br156	Br	0.224277	1.748355	-0.615566
H157	H	-0.304760	1.219394	-0.697136
H158	H	0.195240	1.719394	-0.197136
