data_functionalizedCrystal
_audit_creation_method	'MofGen! by Chris Wilmer'
_symmetry_space_group_name_H-M	'P1'
_symmetry_Int_Tables_number	1
_symmetry_cell_setting	triclinic
loop_
_symmetry_equiv_pos_as_xyz
  x,y,z
_cell_length_a	10.654550
_cell_length_b	14.044190
_cell_length_c	9.730223
_cell_angle_alpha	89.993542
_cell_angle_beta	89.996251
_cell_angle_gamma	88.838339
loop_
_atom_site_label
_atom_site_type_symbol
_atom_site_fract_x
_atom_site_fract_y
_atom_site_fract_z
O1	O	1.681227	0.133228	-0.114421
O2	O	1.317024	0.145921	-0.114401
O3	O	1.493654	0.001554	-0.114384
O4	O	1.504597	0.277595	-0.114438
O5	O	1.493652	0.001557	0.114196
O6	O	1.317022	0.145925	0.114179
O7	O	1.681225	0.133231	0.114159
Zn8	Zn	1.499123	0.139579	0.150461
Zn9	Zn	1.499126	0.139574	-0.150703
O10	O	1.504595	0.277599	0.114142
C11	C	1.270131	0.144991	-0.000108
C12	C	1.130408	0.142203	-0.000099
C13	C	1.488866	-0.033790	-0.000089
C14	C	1.474587	-0.139110	-0.000077
C15	C	1.059467	0.227204	-0.000136
C16	C	0.928182	0.224578	-0.000159
C17	C	0.938791	0.051942	-0.000114
C18	C	1.070074	0.054569	-0.000081
C19	C	1.119801	0.314837	-0.000154
C20	C	1.048859	0.399846	-0.000192
C21	C	0.917574	0.397220	-0.000215
C22	C	0.857231	0.309586	-0.000200
C23	C	1.549752	-0.388903	-0.000135
C24	C	1.448502	-0.331939	-0.000119
C25	C	1.463019	-0.224639	-0.000096
C26	C	1.535237	-0.496212	-0.000159
C27	C	1.728117	0.134161	-0.000137
C28	C	1.867841	0.136950	-0.000155
C29	C	1.509383	0.312943	-0.000156
C30	C	1.523662	0.418263	-0.000178
N31	N	1.499131	0.139581	0.355997
N32	N	1.499127	0.139564	-0.356239
C33	C	1.577366	0.075677	0.427931
C34	C	1.577362	0.075666	0.571814
C35	C	1.420883	0.203471	0.571817
C36	C	1.420881	0.203477	0.427937
C37	C	1.655616	0.011782	0.355992
C38	C	1.733859	-0.052127	0.427925
C39	C	1.733854	-0.052138	0.571808
C40	C	1.655607	0.011759	0.643758
H41	H	1.097999	0.471194	-0.000193
C42	C	1.681576	-0.345932	-0.000112
H43	H	1.743200	-0.395780	-0.000129
H44	H	1.691418	-0.307769	0.079610
H45	H	1.691442	-0.307738	-0.079822
H46	H	1.655600	0.011737	0.760917
H47	H	0.889649	-0.019405	-0.000125
H48	H	1.655629	0.011787	0.238835
H49	H	1.797554	-0.104181	0.630376
H50	H	1.350916	-0.363756	-0.000122
C51	C	1.148119	-0.038927	-0.000041
H52	H	1.234947	-0.024810	-0.000009
H53	H	1.128812	-0.074831	-0.079747
H54	H	1.128762	-0.074817	0.079685
H55	H	1.357177	0.255494	0.630407
C56	C	0.712821	0.306693	-0.000215
H57	H	0.687047	0.242330	-0.000197
H58	H	0.681175	0.337978	-0.079935
H59	H	0.681152	0.337977	0.079497
C60	C	1.819929	-0.122403	0.348788
H61	H	1.808740	-0.113238	0.252795
H62	H	1.799204	-0.185813	0.372364
H63	H	1.904958	-0.111499	0.372371
H64	H	1.357173	0.255513	0.369368
H65	H	0.859817	0.466438	-0.000233
C66	C	1.264209	0.317729	-0.000122
H67	H	1.289984	0.382092	-0.000127
H68	H	1.295887	0.286437	-0.079814
H69	H	1.295844	0.286453	0.079618
