data_functionalizedCrystal
_audit_creation_method	'MofGen! by Chris Wilmer'
_symmetry_space_group_name_H-M	'P1'
_symmetry_Int_Tables_number	1
_symmetry_cell_setting	triclinic
loop_
_symmetry_equiv_pos_as_xyz
  x,y,z
_cell_length_a	15.944551
_cell_length_b	15.944551
_cell_length_c	14.421503
_cell_angle_alpha	89.996660
_cell_angle_beta	89.996859
_cell_angle_gamma	96.501262
loop_
_atom_site_label
_atom_site_type_symbol
_atom_site_fract_x
_atom_site_fract_y
_atom_site_fract_z
O1	O	1.114529	-0.108320	-0.077017
O2	O	0.869980	-0.121677	-0.077040
O3	O	0.998933	0.007276	-0.077020
O4	O	0.985576	-0.237273	-0.077038
O5	O	0.998911	0.007257	0.077204
O6	O	0.869958	-0.121696	0.077183
O7	O	1.114508	-0.108340	0.077206
Cu8	Cu	0.992231	-0.115020	0.091277
Cu9	Cu	0.992256	-0.114997	-0.091110
O10	O	0.985555	-0.237293	0.077186
C11	C	0.998367	0.038561	0.000092
C12	C	0.996705	0.131807	0.000093
C13	C	0.838675	-0.121132	0.000069
C14	C	0.745429	-0.119470	0.000060
N15	N	0.992219	-0.115035	0.219558
C16	C	0.530572	-0.035565	0.000084
C17	C	0.469563	-0.074518	-0.075959
C18	C	0.574703	-0.116462	0.000071
C19	C	0.469564	-0.074556	0.076093
C20	C	0.409790	-0.113551	0.000086
C21	C	0.514922	-0.155437	-0.076035
C22	C	0.514929	-0.155464	0.076086
C23	C	0.453937	-0.194476	0.000024
C24	C	0.669705	-0.118137	0.000062
C25	C	0.314789	-0.111883	0.000089
C26	C	1.145813	-0.108885	0.000096
C27	C	1.239059	-0.110547	0.000098
C28	C	0.986120	-0.268577	0.000072
C29	C	0.987782	-0.361823	0.000066
C30	C	0.912801	0.346663	0.000072
C31	C	0.951753	0.407671	0.076117
C32	C	0.993698	0.302533	0.000085
C33	C	0.951793	0.407674	-0.075935
C34	C	0.990787	0.467445	0.000074
C35	C	1.032672	0.362312	0.076193
C36	C	1.032701	0.362308	-0.075927
C37	C	1.071711	0.423298	0.000136
C38	C	0.995372	0.207530	0.000092
C39	C	0.989119	0.562446	0.000073
N40	N	0.992275	-0.114975	-0.219392
C41	C	0.932581	-0.174636	0.469202
C42	C	1.008481	-0.190943	0.531011
C43	C	0.992240	-0.115015	0.408719
C44	C	0.916359	-0.098727	0.531005
C45	C	0.992253	-0.114997	0.591441
C46	C	1.068178	-0.131360	0.469167
C47	C	0.976007	-0.039111	0.469156
C48	C	1.051961	-0.055386	0.530936
C49	C	0.992231	-0.115027	0.303458
C50	C	0.992270	-0.114985	0.696700
H51	H	0.563905	0.031573	-0.000005
C52	C	1.027037	-0.277649	0.567724
C53	C	0.962327	-0.329714	0.630201
C54	C	0.980871	-0.416423	0.666910
C55	C	1.064126	-0.451067	0.641143
C56	C	1.128842	-0.399001	0.578663
C57	C	1.110298	-0.312292	0.541954
H58	H	0.900691	-0.304069	0.649278
H59	H	0.932963	-0.454965	0.713162
H60	H	1.077853	-0.515254	0.668318
H61	H	1.190477	-0.424646	0.559586
H62	H	1.158205	-0.273750	0.495702
H63	H	0.845652	0.313356	0.000141
C64	C	1.078898	0.335114	-0.162772
C65	C	1.044952	0.352702	-0.259982
C66	C	1.091141	0.325505	-0.346836
C67	C	1.171275	0.280719	-0.336478
C68	C	1.205225	0.263128	-0.239264
C69	C	1.159036	0.290326	-0.152410
H70	H	0.985628	0.385857	-0.267653
H71	H	1.066008	0.338526	-0.418800
H72	H	1.205467	0.260586	-0.400772
H73	H	1.264549	0.229973	-0.231593
H74	H	1.184169	0.277304	-0.080446
C75	C	0.864496	-0.242798	0.432571
C76	C	0.868684	-0.336250	0.457011
C77	C	0.800604	-0.404413	0.420379
C78	C	0.728335	-0.379125	0.359306
C79	C	0.724144	-0.285669	0.334862
C80	C	0.792224	-0.217506	0.371495
H81	H	0.922184	-0.354974	0.502224
H82	H	0.803707	-0.473595	0.438474
H83	H	0.677938	-0.429583	0.332188
H84	H	0.670643	-0.266945	0.289649
H85	H	0.789121	-0.148323	0.353400
C86	C	1.154896	-0.150068	0.432636
C87	C	1.170902	-0.153571	0.327476
C88	C	1.257617	-0.172282	0.290943
C89	C	1.328326	-0.187490	0.359569
C90	C	1.312323	-0.183988	0.464735
C91	C	1.225608	-0.165277	0.501269
H92	H	1.118557	-0.142313	0.276669
H93	H	1.269463	-0.174874	0.213092
H94	H	1.392518	-0.201341	0.332525
H95	H	1.364668	-0.195246	0.515542
H96	H	1.213761	-0.162684	0.579120
H97	H	1.102474	-0.004956	0.557872
H98	H	1.138919	0.456457	0.000186
H99	H	0.420779	-0.261683	-0.000023
H100	H	0.962240	0.025051	0.441965
H101	H	0.917575	0.427758	-0.140230
H102	H	0.852183	-0.084959	0.558170
H103	H	0.535052	-0.189660	0.140373
C104	C	1.078842	0.335304	0.163145
C105	C	1.088908	0.241491	0.179240
C106	C	1.135074	0.214480	0.266192
C107	C	1.171173	0.281282	0.337050
C108	C	1.161108	0.375101	0.320957
C109	C	1.114942	0.402112	0.234005
H110	H	1.062185	0.192035	0.126785
H111	H	1.142525	0.145029	0.278104
H112	H	1.205347	0.261287	0.401417
H113	H	1.187831	0.424557	0.373412
H114	H	1.107491	0.471563	0.222093
C115	C	0.541930	-0.201608	-0.162986
C116	C	0.507065	-0.294359	-0.180167
C117	C	0.534077	-0.340525	-0.267118
C118	C	0.595955	-0.293940	-0.336888
C119	C	0.630824	-0.201184	-0.319709
C120	C	0.603812	-0.155018	-0.232758
H121	H	0.461256	-0.328849	-0.128518
H122	H	0.508264	-0.409190	-0.279835
H123	H	0.615951	-0.328115	-0.401254
H124	H	0.676633	-0.166694	-0.371358
H125	H	0.629625	-0.086354	-0.220041
H126	H	0.449461	-0.040294	-0.140243
H127	H	0.449469	-0.040333	0.140379
H128	H	0.917527	0.427771	0.140401
