data_functionalizedCrystal
_audit_creation_method	'MofGen! by Chris Wilmer'
_symmetry_space_group_name_H-M	'P1'
_symmetry_Int_Tables_number	1
_symmetry_cell_setting	triclinic
loop_
_symmetry_equiv_pos_as_xyz
  x,y,z
_cell_length_a	21.395362
_cell_length_b	12.759394
_cell_length_c	21.395355
_cell_angle_alpha	90.014577
_cell_angle_beta	90.043940
_cell_angle_gamma	90.030716
loop_
_atom_site_label
_atom_site_type_symbol
_atom_site_fract_x
_atom_site_fract_y
_atom_site_fract_z
Zn1	Zn	0.957929	-0.417943	0.354603
Zn2	Zn	1.457929	0.082057	0.854603
Zn3	Zn	0.957860	-0.593608	0.249833
Zn4	Zn	1.457860	-0.093608	0.749833
Zn5	Zn	0.853143	-0.417992	0.249804
Zn6	Zn	1.353143	0.082008	0.749804
Zn7	Zn	0.853142	-0.593629	0.354537
Zn8	Zn	1.353142	-0.093629	0.854537
O9	O	0.905518	-0.505793	0.302194
O10	O	1.405518	-0.005793	0.802194
O11	O	1.045597	-0.441216	0.340744
O12	O	1.545597	0.058784	0.840744
O13	O	0.943941	-0.570323	0.162151
O14	O	1.443941	-0.070323	0.662151
O15	O	0.867073	-0.270964	0.263721
O16	O	1.367073	0.229036	0.763721
O17	O	1.045547	-0.570276	0.263770
O18	O	1.545547	-0.070276	0.763770
O19	O	0.944058	-0.270928	0.340717
O20	O	1.444058	0.229072	0.840717
O21	O	0.867006	-0.441299	0.162130
O22	O	1.367006	0.058701	0.662130
O23	O	0.765465	-0.441320	0.263658
O24	O	1.265465	0.058680	0.763658
O25	O	0.867070	-0.570313	0.442224
O26	O	1.367070	-0.070313	0.942224
O27	O	0.765464	-0.570360	0.340605
O28	O	1.265464	-0.070360	0.840605
O29	O	0.944056	-0.441237	0.442272
O30	O	1.444056	0.058763	0.942272
O31	O	0.943940	-0.740632	0.263706
O32	O	1.443940	-0.240632	0.763706
O33	O	0.867003	-0.740647	0.340632
O34	O	1.367003	-0.240647	0.840632
C35	C	0.742731	-0.505848	0.302121
C36	C	1.242731	-0.005848	0.802121
C37	C	0.673089	-0.505897	0.302105
C38	C	1.173089	-0.005897	0.802105
C39	C	0.640392	-0.573178	0.342112
C40	C	1.140392	-0.073178	0.842112
C41	C	0.574957	-0.573152	0.342139
C42	C	1.074957	-0.073152	0.842139
C43	C	0.542221	-0.505857	0.302150
C44	C	1.042221	-0.005857	0.802150
C45	C	0.574927	-0.438564	0.262141
C46	C	1.074927	0.061436	0.762141
C47	C	0.640361	-0.438584	0.262118
C48	C	1.140361	0.061416	0.762118
C49	C	0.438495	-0.497393	0.245744
C50	C	0.938495	0.002607	0.745744
C51	C	0.373062	-0.497380	0.245766
C52	C	0.873062	0.002620	0.745766
C53	C	0.340401	-0.505788	0.302219
C54	C	0.840401	-0.005788	0.802219
C55	C	0.373180	-0.514231	0.358653
C56	C	0.873180	-0.014231	0.858653
C57	C	0.438614	-0.514252	0.358631
C58	C	0.938614	-0.014252	0.858631
C59	C	0.471269	-0.505827	0.302170
C60	C	0.971269	-0.005827	0.802170
C61	C	0.236751	-0.573044	0.342259
C62	C	0.736751	-0.073044	0.842259
C63	C	0.171314	-0.573011	0.342288
C64	C	0.671314	-0.073011	0.842288
C65	C	0.171285	-0.438429	0.262284
C66	C	0.671285	0.061571	0.762284
C67	C	0.236720	-0.438456	0.262260
C68	C	0.736720	0.061544	0.762260
C69	C	0.269449	-0.505770	0.302247
C70	C	0.769449	-0.005770	0.802247
C71	C	0.905481	-0.778760	0.302179
C72	C	1.405481	-0.278760	0.802179
C73	C	0.905522	-0.895537	0.302193
C74	C	1.405522	-0.395537	0.802193
C75	C	0.985696	-0.895467	0.222150
C76	C	1.485696	-0.395467	0.722150
C77	C	1.025799	-0.950293	0.182136
C78	C	1.525799	-0.450293	0.682136
C79	C	1.025836	-1.060015	0.182153
C80	C	1.525836	-0.560015	0.682153
C81	C	0.985766	-1.114913	0.222190
C82	C	1.485766	-0.614913	0.722190
C83	C	0.945663	-1.060087	0.262204
C84	C	1.445663	-0.560087	0.762204
C85	C	0.945629	-0.950363	0.262182
C86	C	1.445629	-0.450363	0.762182
C87	C	0.865493	-1.060157	0.342250
C88	C	1.365493	-0.560157	0.842250
C89	C	0.865453	-0.950435	0.342230
C90	C	1.365453	-0.450435	0.842230
C91	C	0.825424	-1.115055	0.382286
C92	C	1.325424	-0.615055	0.882286
C93	C	0.785317	-1.060229	0.422298
C94	C	1.285317	-0.560229	0.922298
C95	C	0.785281	-0.950501	0.422279
C96	C	1.285281	-0.450501	0.922279
C97	C	0.825349	-0.895609	0.382244
C98	C	1.325349	-0.395609	0.882244
C99	C	1.068942	-0.505738	0.302267
C100	C	1.568942	-0.005738	0.802267
C101	C	1.138583	-0.505714	0.302299
C102	C	1.638583	-0.005714	0.802299
C103	C	0.905570	-0.505772	0.465618
C104	C	1.405570	-0.005772	0.965618
C105	C	0.905593	-0.505762	0.535259
C106	C	1.405593	-0.005762	1.035259
C107	C	0.905573	-0.231759	0.302223
C108	C	1.405573	0.268241	0.802223
C109	C	0.905597	-0.114983	0.302235
C110	C	1.405597	0.385017	0.802235
C111	C	0.905503	-0.505738	0.139407
C112	C	1.405503	-0.005738	0.639407
C113	C	0.905602	-0.505451	0.069766
C114	C	1.405602	-0.005451	0.569766
C115	C	0.945678	-0.438550	0.567998
C116	C	1.445678	0.061450	1.067998
C117	C	0.945677	-0.438505	0.633433
C118	C	1.445677	0.061495	1.133433
C119	C	0.905597	-0.505691	0.666127
C120	C	1.405597	-0.005691	1.166127
C121	C	0.865505	-0.572908	0.633380
C122	C	1.365505	-0.072908	1.133380
C123	C	0.865502	-0.572944	0.567946
C124	C	1.365502	-0.072944	1.067946
C125	C	0.900637	-0.600292	0.769795
C126	C	1.400637	-0.100292	1.269795
C127	C	0.900644	-0.600258	0.835228
C128	C	1.400644	-0.100258	1.335228
C129	C	0.905601	-0.505580	0.867948
C130	C	1.405601	-0.005580	1.367948
C131	C	0.910565	-0.410933	0.835227
C132	C	1.410565	0.089067	1.335227
C133	C	0.910563	-0.410968	0.769793
C134	C	1.410563	0.089032	1.269793
C135	C	0.905595	-0.505659	0.737080
C136	C	1.405595	-0.005659	1.237080
C137	C	0.945688	-0.438313	0.971640
C138	C	1.445688	0.061687	1.471640
C139	C	0.945682	-0.438266	1.037076
C140	C	1.445682	0.061734	1.537076
C141	C	0.865513	-0.572679	1.037022
C142	C	1.365513	-0.072679	1.537022
C143	C	0.865515	-0.572716	0.971586
C144	C	1.365515	-0.072716	1.471586
C145	C	0.905606	-0.505535	0.938899
C146	C	1.405606	-0.005535	1.438899
H147	H	0.548329	-0.627939	0.374720
H148	H	1.048329	-0.127939	0.874720
Br149	Br	0.985843	-0.746559	0.222319
Br150	Br	1.485843	-0.246559	0.722319
Br151	Br	0.893916	-0.728706	0.879628
Br152	Br	1.393916	-0.228706	1.379628
Br153	Br	0.684739	-0.347266	0.207821
Br154	Br	1.184739	0.152734	0.707821
H155	H	0.465083	-0.490542	0.199770
H156	H	0.965083	0.009458	0.699770
H157	H	0.978328	-0.383603	0.945025
H158	H	1.478328	0.116397	1.445025
H159	H	0.978318	-0.383766	0.660095
H160	H	1.478318	0.116234	1.160095
Br161	Br	0.893928	-0.728799	0.725396
Br162	Br	1.393928	-0.228799	1.225396
Br163	Br	1.000098	-0.347056	1.081510
Br164	Br	1.500098	0.152944	1.581510
Br165	Br	0.126866	-0.347088	0.208017
Br166	Br	0.626866	0.152912	0.708017
H167	H	0.832870	-0.627608	0.660004
H168	H	1.332870	-0.127608	1.160004
Br169	Br	0.811096	-0.664167	0.523511
Br170	Br	1.311096	-0.164167	1.023511
Br171	Br	0.825180	-1.263963	0.382017
Br172	Br	1.325180	-0.763963	0.882017
H173	H	0.263343	-0.383675	0.229680
H174	H	0.763343	0.116325	0.729680
H175	H	0.346378	-0.490512	0.199814
H176	H	0.846378	0.009488	0.699814
Br177	Br	0.811111	-0.663849	1.081385
Br178	Br	1.311111	-0.163849	1.581385
Br179	Br	0.917295	-0.282526	0.725387
Br180	Br	1.417295	0.217474	1.225387
Br181	Br	1.080181	-0.875785	0.127808
Br182	Br	1.580181	-0.375785	0.627808
Br183	Br	0.530502	-0.347226	0.207874
Br184	Br	1.030502	0.152774	0.707874
Br185	Br	0.985524	-1.263820	0.221919
Br186	Br	1.485524	-0.763820	0.721919
H187	H	1.058494	-1.104654	0.149573
H188	H	1.558494	-0.604654	0.649573
Br189	Br	0.126937	-0.664319	0.396593
Br190	Br	0.626937	-0.164319	0.896593
Br191	Br	0.684807	-0.664528	0.396381
Br192	Br	1.184807	-0.164528	0.896381
H193	H	0.752698	-1.104936	0.454896
H194	H	1.252698	-0.604936	0.954896
Br195	Br	0.730857	-0.876104	0.476593
Br196	Br	1.230857	-0.376104	0.976593
Br197	Br	0.825505	-0.746701	0.382417
Br198	Br	1.325505	-0.246701	0.882417
Br199	Br	0.328862	-0.525640	0.435275
Br200	Br	0.828862	-0.025640	0.935275
Br201	Br	0.917299	-0.282432	0.879624
Br202	Br	1.417299	0.217568	1.379624
H203	H	0.465300	-0.521123	0.404581
H204	H	0.965300	-0.021123	0.904581
Br205	Br	0.811112	-0.663941	0.927151
Br206	Br	1.311112	-0.163941	1.427151
H207	H	0.263400	-0.627850	0.374822
H208	H	0.763400	-0.127850	0.874822
H209	H	0.978322	-0.383844	0.541388
H210	H	1.478322	0.116156	1.041388
