data_functionalizedCrystal
_audit_creation_method	'MofGen! by Chris Wilmer'
_symmetry_space_group_name_H-M	'P1'
_symmetry_Int_Tables_number	1
_symmetry_cell_setting	triclinic
loop_
_symmetry_equiv_pos_as_xyz
  x,y,z
_cell_length_a	11.026607
_cell_length_b	15.944551
_cell_length_c	9.482900
_cell_angle_alpha	99.334197
_cell_angle_beta	78.636152
_cell_angle_gamma	96.042377
loop_
_atom_site_label
_atom_site_type_symbol
_atom_site_fract_x
_atom_site_fract_y
_atom_site_fract_z
O1	O	1.629108	0.341447	-0.120915
O2	O	1.275798	0.301394	-0.120914
O3	O	1.462099	0.200605	-0.120901
O4	O	1.442807	0.442235	-0.120927
O5	O	1.424257	0.221183	0.120889
O6	O	1.237956	0.321972	0.120876
O7	O	1.591266	0.362024	0.120875
Cu8	Cu	1.411156	0.343877	0.142953
Cu9	Cu	1.455908	0.319541	-0.142992
O10	O	1.404965	0.462813	0.120862
C11	C	1.211666	0.304294	-0.000019
C12	C	1.076950	0.282267	-0.000019
C13	C	1.003151	0.343086	-0.000026
C14	C	0.863914	0.320322	-0.000026
C15	C	1.442377	0.179479	-0.000006
C16	C	1.439975	0.085870	-0.000005
C17	C	1.318759	-0.147313	-0.000025
C18	C	1.356391	-0.189675	0.119192
C19	C	1.435632	-0.085514	-0.000016
C20	C	1.393728	-0.209942	-0.119194
C21	C	1.431430	-0.251064	-0.000034
C22	C	1.473281	-0.126634	0.119299
C23	C	1.510618	-0.146907	-0.119194
C24	C	1.548331	-0.189236	0.000052
C25	C	1.438050	0.009855	-0.000005
C26	C	1.429020	-0.346429	-0.000034
C27	C	1.655399	0.359124	-0.000023
C28	C	1.790116	0.381150	-0.000033
C29	C	1.424688	0.483939	-0.000036
C30	C	1.427091	0.577547	-0.000046
N31	N	1.379688	0.360994	0.344071
N32	N	1.487386	0.302419	-0.344110
C33	C	1.446618	0.324584	0.416275
C34	C	1.420446	0.338834	0.583690
H35	H	1.037058	0.213341	-0.000048
H36	H	1.523292	0.282860	0.354152
H37	H	1.043047	0.412009	-0.000025
O38	O	1.278427	-0.212333	0.239324
C39	C	1.157502	-0.191236	0.238923
H40	H	1.147495	-0.187120	0.122910
H41	H	1.087141	-0.242424	0.283957
H42	H	1.140087	-0.127108	0.309576
O43	O	0.816352	0.238100	0.000238
C44	C	0.836427	0.208543	0.125446
H45	H	0.849155	0.265156	0.212969
H46	H	0.753085	0.164854	0.167482
H47	H	0.923269	0.171718	0.097136
H48	H	1.343758	0.380554	0.645809
O49	O	1.288134	0.410658	0.418334
C50	C	1.199352	0.361902	0.506372
H51	H	1.243908	0.305307	0.529018
H52	H	1.163634	0.403166	0.613471
H53	H	1.118724	0.337810	0.447822
O54	O	0.837786	0.463347	-0.000317
C55	C	0.929773	0.469036	-0.125533
H56	H	0.913447	0.413177	-0.213037
H57	H	0.925115	0.531447	-0.167595
H58	H	1.025140	0.467083	-0.097222
O59	O	1.578591	0.252413	0.581786
C60	C	1.526824	0.183384	0.494005
H61	H	1.435629	0.200857	0.471225
H62	H	1.594075	0.168364	0.386957
H63	H	1.508909	0.125114	0.552848
O64	O	1.202980	-0.125180	-0.000084
C65	C	1.160428	-0.169241	-0.124607
H66	H	1.212160	-0.229263	-0.165728
H67	H	1.056766	-0.187629	-0.095749
H68	H	1.177949	-0.126460	-0.213033
O69	O	1.513290	-0.083510	0.239631
C70	C	1.515046	0.004897	0.238199
H71	H	1.448204	0.017305	0.167545
H72	H	1.485481	0.038450	0.353786
H73	H	1.612869	0.030426	0.192110
O74	O	1.588515	-0.124145	-0.239283
C75	C	1.684271	-0.065639	-0.196550
H76	H	1.695450	-0.073281	-0.082435
H77	H	1.774838	-0.078384	-0.275680
H78	H	1.659960	0.002056	-0.196982
O79	O	1.664130	-0.211223	0.000383
C80	C	1.705592	-0.168138	0.126222
H81	H	1.622236	-0.149321	0.213677
H82	H	1.761698	-0.211821	0.167831
H83	H	1.766370	-0.108432	0.098917
H84	H	1.360054	-0.246072	-0.219990
