data_functionalizedCrystal
_audit_creation_method	'MofGen! by Chris Wilmer'
_symmetry_space_group_name_H-M	'P1'
_symmetry_Int_Tables_number	1
_symmetry_cell_setting	triclinic
loop_
_symmetry_equiv_pos_as_xyz
  x,y,z
_cell_length_a	10.686220
_cell_length_b	18.101396
_cell_length_c	10.685880
_cell_angle_alpha	85.660342
_cell_angle_beta	89.641569
_cell_angle_gamma	85.581305
loop_
_atom_site_label
_atom_site_type_symbol
_atom_site_fract_x
_atom_site_fract_y
_atom_site_fract_z
Zn1	Zn	1.972104	0.231181	-0.562374
Zn2	Zn	1.955811	0.346343	-0.352621
Zn3	Zn	1.746233	0.232690	-0.368696
Zn4	Zn	1.762216	0.365167	-0.578393
O5	O	1.859091	0.293845	-0.465521
O6	O	2.145491	0.237947	-0.521118
O7	O	1.914502	0.324020	-0.179213
O8	O	1.776324	0.128852	-0.394411
O9	O	2.133521	0.322556	-0.367014
O10	O	1.942271	0.127743	-0.536705
O11	O	1.760526	0.240520	-0.191023
O12	O	1.572805	0.258773	-0.409945
O13	O	1.803566	0.354639	-0.751809
O14	O	1.584548	0.356103	-0.564008
O15	O	1.957770	0.256200	-0.740040
O16	O	1.930001	0.452477	-0.382548
O17	O	1.787768	0.466307	-0.548421
C18	C	1.533159	0.309645	-0.490460
C19	C	1.393726	0.316423	-0.501158
C20	C	1.858887	0.486264	-0.465503
C21	C	1.858918	0.568578	-0.465529
C22	C	1.859146	0.867661	-0.465585
C23	C	1.769906	0.845067	-0.570170
C24	C	1.769437	0.759458	-0.569899
C25	C	1.859033	0.719282	-0.465558
C26	C	1.813092	0.746690	-0.336093
C27	C	1.812499	0.832390	-0.336725
C28	C	1.994456	0.830969	-0.489283
C29	C	1.993913	0.745475	-0.492239
C30	C	1.858970	0.635425	-0.465535
C31	C	1.859205	0.951518	-0.465600
C32	C	2.186296	0.277984	-0.440486
C33	C	2.325732	0.271225	-0.429817
C34	C	1.884268	0.307351	-0.792713
C35	C	1.894997	0.313107	-0.932143
C36	C	1.859289	1.100676	-0.465572
C37	C	1.859261	1.018365	-0.465614
C38	C	1.834084	0.280334	-0.139597
C39	C	1.823598	0.274358	-0.000149
H40	H	1.345261	0.360312	-0.570419
H41	H	1.964343	0.350689	-0.980593
H42	H	1.754252	0.236782	-0.951705
H43	H	1.714876	0.728752	-0.314244
H44	H	1.713287	0.855951	-0.315470
H45	H	1.874129	0.846734	-0.256690
H46	H	1.374190	0.227343	-0.360553
C47	C	1.810036	0.876887	-0.700744
N48	N	1.840262	0.900861	-0.799095
C49	C	1.809851	0.735021	-0.700018
N50	N	1.840285	0.716620	-0.798030
C51	C	1.635520	0.879387	-0.550358
N52	N	1.534301	0.905236	-0.535428
H53	H	1.875607	0.719926	-0.256487
C54	C	1.634216	0.737060	-0.549867
N55	N	1.532357	0.720193	-0.534810
C56	C	2.048353	0.863243	-0.613933
N57	N	2.088935	0.887552	-0.707825
H58	H	2.064741	0.717661	-0.420806
H59	H	2.028372	0.727835	-0.587469
H60	H	2.061068	0.844789	-0.412986
