data_functionalizedCrystal
_audit_creation_method	'MofGen! by Chris Wilmer'
_symmetry_space_group_name_H-M	'P1'
_symmetry_Int_Tables_number	1
_symmetry_cell_setting	triclinic
loop_
_symmetry_equiv_pos_as_xyz
  x,y,z
_cell_length_a	17.699077
_cell_length_b	17.699083
_cell_length_c	16.776229
_cell_angle_alpha	90.007545
_cell_angle_beta	90.006585
_cell_angle_gamma	83.281795
loop_
_atom_site_label
_atom_site_type_symbol
_atom_site_fract_x
_atom_site_fract_y
_atom_site_fract_z
O1	O	-1.004081	-0.095691	-0.066279
O2	O	-0.504081	0.404309	0.433721
O3	O	-0.783702	-0.108149	-0.066283
O4	O	-0.283702	0.391851	0.433717
O5	O	-0.900118	0.008269	-0.066274
O6	O	-0.400118	0.508269	0.433726
O7	O	-0.887666	-0.212109	-0.066288
O8	O	-0.387666	0.287891	0.433712
O9	O	-0.900103	0.008276	0.066302
O10	O	-0.400103	0.508276	0.566302
O11	O	-0.783687	-0.108142	0.066293
O12	O	-0.283687	0.391858	0.566293
O13	O	-1.004066	-0.095684	0.066297
O14	O	-0.504066	0.404316	0.566297
Zn15	Zn	-0.893874	-0.101912	0.087345
Zn16	Zn	-0.393874	0.398088	0.587345
Zn17	Zn	-0.893894	-0.101921	-0.087331
Zn18	Zn	-0.393894	0.398079	0.412669
O19	O	-0.887650	-0.212102	0.066288
O20	O	-0.387650	0.287898	0.566288
C21	C	-0.755498	-0.107700	0.000004
C22	C	-0.255498	0.392300	0.500004
C23	C	-0.671479	-0.106363	0.000003
C24	C	-0.171479	0.393637	0.500003
C25	C	-0.899664	0.036470	0.000014
C26	C	-0.399664	0.536470	0.500014
C27	C	-0.898326	0.120488	0.000015
C28	C	-0.398326	0.620488	0.500015
C29	C	-1.032271	-0.096133	0.000008
C30	C	-0.532271	0.403867	0.500008
C31	C	-1.116289	-0.097470	0.000004
C32	C	-0.616289	0.402530	0.500004
C33	C	-0.632003	-0.105729	0.072271
C34	C	-0.132003	0.394271	0.572271
C35	C	-0.553061	-0.104461	0.072272
C36	C	-0.053061	0.395539	0.572272
C37	C	-0.513595	-0.103832	0.000004
C38	C	-0.013595	0.396168	0.500004
C39	C	-0.553076	-0.104463	-0.072270
C40	C	-0.053076	0.395537	0.427730
C41	C	-0.632018	-0.105726	-0.072270
C42	C	-0.132018	0.394274	0.427730
C43	C	-0.234713	-0.099370	-0.072271
C44	C	0.265287	0.400630	0.427729
C45	C	-0.155766	-0.098110	-0.072265
C46	C	0.344234	0.401890	0.427735
C47	C	-0.155756	-0.098105	0.072271
C48	C	0.344244	0.401895	0.572271
C49	C	-0.234698	-0.099367	0.072271
C50	C	0.265302	0.400633	0.572271
C51	C	-0.274173	-0.099995	-0.000002
C52	C	0.225827	0.400005	0.499998
C53	C	-0.359772	-0.101369	-0.000002
C54	C	0.140228	0.398631	0.499998
C55	C	-0.427997	-0.102464	0.000003
C56	C	0.072003	0.397536	0.500003
N57	N	-0.893866	-0.101905	0.206556
N58	N	-0.393866	0.398095	0.706556
C59	C	-0.888104	-0.240303	-0.000002
C60	C	-0.388104	0.259697	0.499998
C61	C	-0.889443	-0.324321	-0.000008
C62	C	-0.389443	0.175679	0.499992
C63	C	-0.966659	0.169110	0.000017
C64	C	-0.466659	0.669110	0.500017
C65	C	-0.965397	0.248054	0.000010
C66	C	-0.465397	0.748054	0.500010
C67	C	-0.895800	0.278373	0.000006
C68	C	-0.395800	0.778373	0.500006
C69	C	-0.827461	0.229744	0.000001
C70	C	-0.327461	0.729744	0.500001
C71	C	-0.828724	0.150803	0.000003
C72	C	-0.328724	0.650803	0.500003
C73	C	-0.822366	0.548107	-0.000005
C74	C	-0.322366	1.048107	0.499995
C75	C	-0.821108	0.627055	-0.000004
C76	C	-0.321108	1.127055	0.499996
C77	C	-0.959039	0.645358	0.000002
C78	C	-0.459039	1.145358	0.500002
C79	C	-0.960302	0.566417	0.000003
C80	C	-0.460302	1.066417	0.500003
C81	C	-0.891963	0.517795	-0.000006
C82	C	-0.391963	1.017795	0.499994
C83	C	-0.893333	0.432196	0.000000
C84	C	-0.393333	0.932196	0.500000
C85	C	-0.894430	0.363971	0.000006
C86	C	-0.394430	0.863971	0.500006
N87	N	-0.893909	-0.101922	-0.206542
N88	N	-0.393909	0.398078	0.293458
C89	C	-0.945430	-0.050376	0.248277
C90	C	-0.445430	0.449624	0.748277
C91	C	-0.945434	-0.050376	0.331729
C92	C	-0.445434	0.449624	0.831729
C93	C	-0.893877	-0.101908	0.373459
C94	C	-0.393877	0.398092	0.873459
C95	C	-0.842307	-0.153439	0.331732
C96	C	-0.342307	0.346561	0.831732
C97	C	-0.842300	-0.153435	0.248281
C98	C	-0.342300	0.346565	0.748281
C99	C	-0.842334	-0.153454	0.668279
C100	C	-0.342334	0.346546	1.168279
C101	C	-0.842347	-0.153455	0.751735
C102	C	-0.342347	0.346545	1.251735
C103	C	-0.945469	-0.050394	0.751727
C104	C	-0.445469	0.449606	1.251727
C105	C	-0.945462	-0.050390	0.668276
C106	C	-0.445462	0.449610	1.168276
C107	C	-0.893889	-0.101919	0.626557
C108	C	-0.393889	0.398081	1.126557
C109	C	-0.893885	-0.101918	0.536068
C110	C	-0.393885	0.398082	1.036068
C111	C	-0.893885	-0.101913	0.463946
C112	C	-0.393885	0.398087	0.963946
H113	H	-0.664130	-0.106247	0.131121
H114	H	-0.164130	0.393753	0.631121
H115	H	-0.987422	-0.008417	0.365698
H116	H	-0.487422	0.491583	0.865698
O117	O	-0.272998	-0.100117	-0.142497
O118	O	0.227002	0.399883	0.357503
C119	C	-0.244999	-0.165325	-0.186475
C120	C	0.255001	0.334675	0.313525
H121	H	-0.217224	-0.210776	-0.144190
H122	H	0.282776	0.289224	0.355810
H123	H	-0.293996	-0.188147	-0.219267
H124	H	0.206004	0.311853	0.280733
H125	H	-0.201140	-0.149781	-0.231528
H126	H	0.298860	0.350219	0.268472
O127	O	-1.031725	0.295365	0.000118
O128	O	-0.531725	0.795365	0.500118
C129	C	-1.035119	0.341576	0.068786
C130	C	-0.535119	0.841576	0.568786
H131	H	-0.975048	0.345456	0.091674
H132	H	-0.475048	0.845456	0.591674
H133	H	-1.063419	0.400961	0.053338
H134	H	-0.563419	0.900961	0.553338
H135	H	-1.069636	0.315682	0.116870
H136	H	-0.569636	0.815682	0.616870
H137	H	-0.766721	0.508528	-0.000012
H138	H	-0.266721	1.008528	0.499988
O139	O	-0.995573	-0.000258	0.627865
O140	O	-0.495573	0.499742	1.127865
C141	C	-1.041099	0.045212	0.682585
C142	C	-0.541099	0.545212	1.182585
H143	H	-1.010079	0.046025	0.742080
H144	H	-0.510079	0.546025	1.242080
H145	H	-1.052755	0.105673	0.658482
H146	H	-0.552755	0.605673	1.158482
H147	H	-1.097276	0.020709	0.691441
H148	H	-0.597276	0.520709	1.191441
H149	H	-0.520925	-0.103932	0.131121
H150	H	-0.020925	0.396068	0.631121
H151	H	-0.800360	-0.195420	0.785710
H152	H	-0.300360	0.304580	1.285710
H153	H	-0.770794	0.254436	-0.000007
H154	H	-0.270794	0.754436	0.499993
O155	O	-0.117425	-0.097621	0.142501
O156	O	0.382575	0.402379	0.642501
C157	C	-0.128028	-0.163444	0.186468
C158	C	0.371972	0.336556	0.686468
H159	H	-0.143650	-0.209591	0.144177
H160	H	0.356350	0.290409	0.644177
H161	H	-0.073190	-0.184604	0.219250
H162	H	0.426810	0.315396	0.719250
H163	H	-0.175814	-0.149364	0.231529
H164	H	0.324186	0.350636	0.731529
O165	O	-0.273017	-0.099842	0.142494
O166	O	0.226983	0.400158	0.642494
C167	C	-0.262404	-0.034015	0.186470
C168	C	0.237596	0.465985	0.686470
H169	H	-0.246784	0.012126	0.144185
H170	H	0.253216	0.512126	0.644185
H171	H	-0.317235	-0.012847	0.219251
H172	H	0.182765	0.487153	0.719251
H173	H	-0.214611	-0.048093	0.231532
H174	H	0.285389	0.451907	0.731532
H175	H	-0.800324	-0.195395	0.365713
H176	H	-0.300324	0.304605	0.865713
O177	O	-0.670418	-0.106211	-0.142452
O178	O	-0.170418	0.393789	0.357548
C179	C	-0.724790	-0.041427	-0.146764
C180	C	-0.224790	0.458573	0.353236
H181	H	-0.707076	0.004753	-0.105749
H182	H	-0.207076	0.504753	0.394251
H183	H	-0.728610	-0.019450	-0.210681
H184	H	-0.228610	0.480550	0.289319
H185	H	-0.782651	-0.057196	-0.127351
H186	H	-0.282651	0.442804	0.372649
H187	H	-1.016974	0.541735	0.000010
H188	H	-0.516974	1.041735	0.500010
O189	O	-1.025355	0.692699	-0.000034
O190	O	-0.525355	1.192699	0.499966
C191	C	-1.009323	0.768877	-0.000020
C192	C	-0.509323	1.268877	0.499980
H193	H	-0.949884	0.771791	-0.025124
H194	H	-0.449884	1.271791	0.474876
H195	H	-1.052896	0.804718	-0.038509
H196	H	-0.552896	1.304718	0.461491
H197	H	-1.012225	0.791723	0.063583
H198	H	-0.512225	1.291723	0.563583
H199	H	-0.800310	-0.195394	0.214312
H200	H	-0.300310	0.304606	0.714312
H201	H	-0.520938	-0.103946	-0.131112
H202	H	-0.020938	0.396054	0.368888
H203	H	-0.764431	0.651737	-0.000006
H204	H	-0.264431	1.151737	0.499994
H205	H	-0.123635	-0.097597	-0.131118
H206	H	0.376365	0.402403	0.368882
H207	H	-1.023333	0.144431	0.000025
H208	H	-0.523333	0.644431	0.500025
H209	H	-0.773080	0.111214	0.000001
H210	H	-0.273080	0.611214	0.500001
H211	H	-0.987417	-0.008416	0.214306
H212	H	-0.487417	0.491584	0.714306
H213	H	-0.987460	-0.008434	0.785704
H214	H	-0.487460	0.491566	1.285704
O215	O	-0.792214	-0.203583	0.627883
O216	O	-0.292214	0.296417	1.127883
C217	C	-0.746703	-0.249055	0.682613
C218	C	-0.246703	0.250945	1.182613
H219	H	-0.777740	-0.249871	0.742089
H220	H	-0.277740	0.250129	1.242089
H221	H	-0.735038	-0.309514	0.658494
H222	H	-0.235038	0.190486	1.158494
H223	H	-0.690529	-0.224550	0.691509
H224	H	-0.190529	0.275450	1.191509
