data_functionalizedCrystal
_audit_creation_method	'MofGen! by Chris Wilmer'
_symmetry_space_group_name_H-M	'P1'
_symmetry_Int_Tables_number	1
_symmetry_cell_setting	triclinic
loop_
_symmetry_equiv_pos_as_xyz
  x,y,z
_cell_length_a	12.759401
_cell_length_b	19.076808
_cell_length_c	12.759393
_cell_angle_alpha	92.334138
_cell_angle_beta	90.020938
_cell_angle_gamma	92.325019
loop_
_atom_site_label
_atom_site_type_symbol
_atom_site_fract_x
_atom_site_fract_y
_atom_site_fract_z
Zn1	Zn	1.589386	-0.280155	0.577177
Zn2	Zn	1.582184	-0.397876	0.394420
Zn3	Zn	1.413683	-0.280193	0.401510
Zn4	Zn	1.406587	-0.397827	0.570060
O5	O	1.497960	-0.339013	0.485792
O6	O	1.735451	-0.295776	0.552945
O7	O	1.559788	-0.382302	0.248337
O8	O	1.442974	-0.181691	0.430759
O9	O	1.730160	-0.382265	0.418675
O10	O	1.572062	-0.181663	0.559820
O11	O	1.435990	-0.295840	0.253546
O12	O	1.265721	-0.295792	0.423858
O13	O	1.430880	-0.382182	0.718028
O14	O	1.260507	-0.382218	0.547691
O15	O	1.565182	-0.295729	0.723257
O16	O	1.552907	-0.496367	0.411773
O17	O	1.423896	-0.496331	0.540816
C18	C	1.224993	-0.339004	0.485772
C19	C	1.108216	-0.339018	0.485787
C20	C	1.050662	-0.384088	0.550157
C21	C	0.940938	-0.384091	0.550178
C22	C	0.946330	-0.293951	0.421449
C23	C	1.056052	-0.293945	0.421435
C24	C	1.486879	-0.521888	0.474776
C25	C	1.482234	-0.600123	0.470098
C26	C	1.547211	-0.636803	0.535150
C27	C	1.542843	-0.710312	0.530757
C28	C	1.473502	-0.747141	0.461305
C29	C	1.408518	-0.710456	0.396250
C30	C	1.412881	-0.636947	0.400650
C31	C	1.453245	-0.966996	0.440941
C32	C	1.448889	-1.040509	0.436545
C33	C	1.583213	-1.040361	0.571053
C34	C	1.587575	-0.966851	0.575442
C35	C	1.522587	-0.930172	0.510391
N36	N	1.469038	-0.822280	0.456811
N37	N	1.527047	-0.855035	0.514892
C38	C	1.771992	-0.339022	0.485813
C39	C	1.888769	-0.339026	0.485822
C40	C	1.498042	-0.338945	0.759830
C41	C	1.498078	-0.338917	0.876608
C42	C	1.509113	-0.155424	0.496874
C43	C	1.513866	-0.077189	0.501597
C44	C	1.497941	-0.339030	0.212824
C45	C	1.498121	-0.338860	0.096058
C46	C	1.568014	-0.293893	0.934195
C47	C	1.568034	-0.293863	1.043921
C48	C	1.428177	-0.383885	1.038463
C49	C	1.428153	-0.383912	0.928739
H50	H	0.894083	-0.420790	0.602596
H51	H	1.371195	-0.420574	0.881851
C52	C	1.341408	-0.596599	0.329091
H53	H	1.299492	-0.629060	0.287091
H54	H	1.297313	-0.567932	0.370957
H55	H	1.383328	-0.567922	0.285061
H56	H	0.903845	-0.257256	0.369055
C57	C	1.332239	-0.750962	0.319856
H58	H	1.294159	-0.718586	0.281751
H59	H	1.370747	-0.779636	0.272398
H60	H	1.284736	-0.779644	0.358297
C61	C	1.644915	-0.244393	0.876854
H62	H	1.686560	-0.217569	0.926870
H63	H	1.689049	-0.271324	0.832429
H64	H	1.606567	-0.213731	0.835901
C65	C	1.119365	-0.244367	0.350623
H66	H	1.072585	-0.217531	0.312288
H67	H	1.164044	-0.213730	0.392729
H68	H	1.160515	-0.271258	0.303151
C69	C	1.644969	-0.244341	1.107262
H70	H	1.686612	-0.217553	1.060495
H71	H	1.606658	-0.213658	1.151910
H72	H	1.689119	-0.271264	1.148445
H73	H	1.371249	-0.420520	1.080922
C74	C	1.623487	-0.596294	0.611545
H75	H	1.616789	-0.547261	0.604844
H76	H	1.607362	-0.608317	0.681402
H77	H	1.693375	-0.608308	0.595505
C78	C	1.108044	-0.433663	0.620940
H79	H	1.181634	-0.427212	0.611706
H80	H	1.090720	-0.423423	0.692177
H81	H	1.087186	-0.480945	0.602590
C82	C	1.614321	-0.750657	0.602312
H83	H	1.656252	-0.718196	0.644295
H84	H	1.572409	-0.779334	0.646341
H85	H	1.658419	-0.779326	0.560439
C86	C	1.663867	-0.926345	0.651822
H87	H	1.701941	-0.958719	0.689937
H88	H	1.711358	-0.897668	0.613370
H89	H	1.625368	-0.897665	0.699290
H90	H	1.636121	-1.070233	0.624015
H91	H	1.400331	-0.937138	0.387972
C92	C	1.372602	-1.081020	0.360153
H93	H	1.334514	-1.048648	0.322048
H94	H	1.411109	-1.109694	0.312693
H95	H	1.325106	-1.109703	0.398600
