data_functionalizedCrystal
_audit_creation_method	'MofGen! by Chris Wilmer'
_symmetry_space_group_name_H-M	'P1'
_symmetry_Int_Tables_number	1
_symmetry_cell_setting	triclinic
loop_
_symmetry_equiv_pos_as_xyz
  x,y,z
_cell_length_a	10.654545
_cell_length_b	14.519731
_cell_length_c	9.730223
_cell_angle_alpha	89.994614
_cell_angle_beta	89.997167
_cell_angle_gamma	84.085966
loop_
_atom_site_label
_atom_site_type_symbol
_atom_site_fract_x
_atom_site_fract_y
_atom_site_fract_z
O1	O	1.666611	0.129511	-0.114280
O2	O	1.301014	0.141856	-0.114286
O3	O	1.493492	0.001497	-0.114270
O4	O	1.474133	0.269871	-0.114295
O5	O	1.493479	0.001493	0.114310
O6	O	1.301002	0.141852	0.114294
O7	O	1.666598	0.129507	0.114300
Zn8	Zn	1.483798	0.135679	0.150589
Zn9	Zn	1.483814	0.135684	-0.150575
O10	O	1.474121	0.269867	0.114285
C11	C	1.254218	0.140949	0.000004
C12	C	1.114801	0.138239	0.000002
C13	C	1.049301	0.136962	0.124602
C14	C	0.918306	0.134401	0.124602
C15	C	0.918320	0.134399	-0.124609
C16	C	1.049314	0.136953	-0.124607
C17	C	1.492578	-0.032869	0.000020
C18	C	1.489860	-0.135264	0.000021
C19	C	1.487652	-0.218419	0.000018
C20	C	1.484892	-0.322742	0.000007
C21	C	1.482702	-0.405893	-0.000002
C22	C	1.479942	-0.510222	-0.000010
C23	C	1.713394	0.130415	0.000008
C24	C	1.852812	0.133124	0.000001
C25	C	1.475034	0.304233	-0.000009
C26	C	1.477752	0.406627	-0.000018
N27	N	1.483796	0.135675	0.356126
N28	N	1.483826	0.135681	-0.356111
C29	C	1.569054	0.073550	0.428059
C30	C	1.569066	0.073551	0.571942
C31	C	1.398559	0.197809	0.571946
C32	C	1.398541	0.197803	0.428066
H33	H	0.864983	0.133361	0.226064
H34	H	0.864985	0.133353	-0.226061
H35	H	1.102616	0.138009	0.226066
H36	H	1.638472	0.022961	0.369488
H37	H	1.329108	0.248393	0.369494
C38	C	1.120203	0.138384	-0.260040
C39	C	1.034813	0.136744	-0.369168
C40	C	1.100069	0.138070	-0.493940
H41	H	1.180762	0.085710	-0.265404
H42	H	1.161818	0.193086	-0.265298
H43	H	0.993219	0.082048	-0.363912
H44	H	0.974252	0.189414	-0.363849
H45	H	1.141684	0.192771	-0.499198
H46	H	1.160626	0.085395	-0.499290
H47	H	1.042141	0.136966	-0.567998
C48	C	1.661575	0.005954	0.649864
C49	C	1.641030	-0.084812	0.614857
C50	C	1.726238	-0.147109	0.686597
H51	H	1.649467	0.014722	0.745879
H52	H	1.745430	0.016490	0.626236
H53	H	1.557196	-0.095343	0.638494
H54	H	1.653148	-0.093609	0.518855
H55	H	1.810093	-0.136574	0.662970
H56	H	1.714123	-0.138334	0.782609
H57	H	1.712318	-0.208701	0.662846
C58	C	1.305863	0.265302	0.649807
C59	C	1.231168	0.319688	0.556010
C60	C	1.145750	0.381866	0.627682
H61	H	1.350978	0.304093	0.705923
H62	H	1.253454	0.231790	0.705923
H63	H	1.283570	0.353197	0.499918
H64	H	1.186025	0.280923	0.499892
H65	H	1.093341	0.348354	0.683798
H66	H	1.190875	0.420650	0.683795
H67	H	1.095051	0.418768	0.564052
