data_functionalizedCrystal
_audit_creation_method	'MofGen! by Chris Wilmer'
_symmetry_space_group_name_H-M	'P1'
_symmetry_Int_Tables_number	1
_symmetry_cell_setting	triclinic
loop_
_symmetry_equiv_pos_as_xyz
  x,y,z
_cell_length_a	21.295420
_cell_length_b	21.295412
_cell_length_c	12.645329
_cell_angle_alpha	89.977076
_cell_angle_beta	90.016229
_cell_angle_gamma	89.976352
loop_
_atom_site_label
_atom_site_type_symbol
_atom_site_fract_x
_atom_site_fract_y
_atom_site_fract_z
Zn1	Zn	0.962404	-0.355948	-0.422115
Zn2	Zn	0.962331	-0.250687	-0.599393
Zn3	Zn	0.857129	-0.250692	-0.422139
Zn4	Zn	0.857119	-0.355919	-0.599332
O5	O	0.909746	-0.303311	-0.510745
O6	O	1.050483	-0.341994	-0.445647
O7	O	0.948349	-0.162598	-0.575915
O8	O	0.871128	-0.264669	-0.273788
O9	O	1.050430	-0.264660	-0.575892
O10	O	0.948473	-0.341999	-0.273771
O11	O	0.871058	-0.162602	-0.445687
O12	O	0.769038	-0.264641	-0.445628
O13	O	0.871112	-0.444012	-0.575788
O14	O	0.769031	-0.341950	-0.575811
O15	O	0.948464	-0.444033	-0.445588
O16	O	0.948340	-0.264632	-0.747732
O17	O	0.871041	-0.341945	-0.747687
C18	C	0.746194	-0.303293	-0.510716
C19	C	0.676226	-0.303301	-0.510729
C20	C	0.176781	-0.343527	-0.578656
C21	C	0.242523	-0.343521	-0.578656
C22	C	0.275387	-0.303331	-0.510769
C23	C	0.242502	-0.263134	-0.442895
C24	C	0.176761	-0.263137	-0.442904
N25	N	0.378615	-0.298591	-0.417949
N26	N	0.441067	-0.298592	-0.417944
C27	C	0.473461	-0.303318	-0.510739
N28	N	0.441045	-0.308056	-0.603542
N29	N	0.378588	-0.308058	-0.603546
C30	C	0.346672	-0.303323	-0.510752
C31	C	0.577624	-0.343502	-0.578614
C32	C	0.643367	-0.343491	-0.578616
C33	C	0.643344	-0.263108	-0.442845
C34	C	0.577602	-0.263115	-0.442853
C35	C	0.544746	-0.303316	-0.510735
C36	C	0.909795	-0.467502	-0.510679
C37	C	0.909816	-0.537470	-0.510651
C38	C	0.869581	-0.570329	-0.442833
C39	C	0.869579	-0.636071	-0.442813
C40	C	0.909823	-0.668952	-0.510600
C41	C	0.950061	-0.636086	-0.578431
C42	C	0.950057	-0.570345	-0.578456
N43	N	0.964928	-0.772191	-0.518699
N44	N	0.964930	-0.834643	-0.518669
C45	C	0.909834	-0.867027	-0.510529
N46	N	0.854736	-0.834601	-0.502401
N47	N	0.854736	-0.772144	-0.502425
C48	C	0.909831	-0.740238	-0.510581
C49	C	0.869593	-0.971172	-0.442687
C50	C	0.869590	-1.036915	-0.442675
C51	C	0.950078	-1.036929	-0.578286
C52	C	0.950075	-0.971186	-0.578304
C53	C	0.909834	-0.938312	-0.510499
C54	C	1.073936	-0.303330	-0.510774
C55	C	1.143904	-0.303338	-0.510787
C56	C	0.909699	-0.303299	-0.786174
C57	C	0.909737	-0.303314	-0.904004
C58	C	0.909733	-0.139760	-0.510734
C59	C	0.909834	-0.069792	-0.510463
C60	C	0.861085	-0.351924	-0.948903
C61	C	0.861287	-0.352135	-1.071462
C62	C	0.976198	-0.321192	-1.071776
C63	C	0.975858	-0.321525	-0.949179
C64	C	0.892629	-0.236748	-0.949287
C65	C	0.891224	-0.237123	-1.071895
C66	C	0.909810	-0.303338	-0.234239
C67	C	0.909837	-0.303349	-0.116409
H68	H	0.550833	-0.230391	-0.387583
Br69	Br	1.004686	-0.926589	-0.670342
Br70	Br	0.778771	-0.333553	-0.899918
Br71	Br	1.004666	-0.525747	-0.670502
Br72	Br	0.287100	-0.208586	-0.350768
H73	H	0.928060	-0.200531	-0.920239
H74	H	1.013354	-0.287651	-0.919469
Br75	Br	0.880197	-0.434368	-1.120241
Br76	Br	0.814966	-0.525716	-0.350816
H77	H	0.836821	-1.063668	-0.387453
H78	H	0.670135	-0.376217	-0.633890
Br79	Br	1.004690	-1.081546	-0.670295
H80	H	0.550871	-0.376235	-0.633889
H81	H	0.812085	-0.340982	-1.101646
Br82	Br	0.879753	-0.433669	-0.897456
Br83	Br	0.999994	-0.402619	-0.901389
H84	H	0.670101	-0.230382	-0.387574
H85	H	0.836816	-0.662830	-0.387583
H86	H	0.924084	-0.198988	-1.102506
H87	H	0.842386	-0.223663	-1.101082
Br88	Br	0.132193	-0.398082	-0.670786
Br89	Br	0.814980	-0.926552	-0.350673
H90	H	0.982827	-0.662862	-0.633623
Br91	Br	1.038315	-0.264005	-1.120260
Br92	Br	1.000802	-0.401413	-1.122825
Br93	Br	0.813298	-0.209611	-0.897921
H94	H	0.269297	-0.376250	-0.633923
H95	H	0.149993	-0.230410	-0.387634
