data_functionalizedCrystal
_audit_creation_method	'MofGen! by Chris Wilmer'
_symmetry_space_group_name_H-M	'P1'
_symmetry_Int_Tables_number	1
_symmetry_cell_setting	triclinic
loop_
_symmetry_equiv_pos_as_xyz
  x,y,z
_cell_length_a	10.868271
_cell_length_b	16.992694
_cell_length_c	16.992695
_cell_angle_alpha	90.668223
_cell_angle_beta	89.994605
_cell_angle_gamma	90.001396
loop_
_atom_site_label
_atom_site_type_symbol
_atom_site_fract_x
_atom_site_fract_y
_atom_site_fract_z
O1	O	0.102169	-1.050850	-0.166917
O2	O	0.602169	-0.550850	0.333083
O3	O	0.102205	-0.822450	-0.165086
O4	O	0.602205	-0.322450	0.334914
O5	O	0.102178	-0.935735	-0.051801
O6	O	0.602178	-0.435735	0.448199
O7	O	0.102197	-0.937566	-0.280201
O8	O	0.602197	-0.437566	0.219799
O9	O	-0.102467	-0.935725	-0.051796
O10	O	0.397533	-0.435725	0.448204
O11	O	-0.102439	-0.822440	-0.165081
O12	O	0.397561	-0.322440	0.334919
O13	O	-0.102475	-1.050840	-0.166912
O14	O	0.397525	-0.550840	0.333088
Zn15	Zn	-0.134949	-0.936639	-0.165995
Zn16	Zn	0.365051	-0.436639	0.334005
Zn17	Zn	0.134679	-0.936652	-0.166002
Zn18	Zn	0.634679	-0.436652	0.333998
O19	O	-0.102448	-0.937556	-0.280196
O20	O	0.397552	-0.437556	0.219804
C21	C	-0.000112	-0.793085	-0.162727
C22	C	0.499888	-0.293085	0.337273
C23	C	-0.000099	-0.705600	-0.155699
C24	C	0.499901	-0.205600	0.344301
N25	N	-0.318963	-0.936635	-0.165990
N26	N	0.181037	-0.436635	0.334010
C27	C	-0.000144	-0.933374	-0.022439
C28	C	0.499856	-0.433374	0.477561
C29	C	-0.000143	-0.926345	0.065046
C30	C	0.499857	-0.426345	0.565046
C31	C	-0.569969	-0.936648	-0.166000
C32	C	-0.069969	-0.436648	0.334000
C33	C	-0.430292	-0.936638	-0.165997
C34	C	0.069708	-0.436638	0.334003
N35	N	0.318693	-0.936661	-0.166001
N36	N	0.818693	-0.436661	0.333999
C37	C	-0.000155	-1.080205	-0.169270
C38	C	0.499845	-0.580205	0.330730
C39	C	-0.000161	-1.167690	-0.176299
C40	C	0.499839	-0.667690	0.323701
C41	C	-0.000094	-0.659610	-0.223517
C42	C	0.499906	-0.159610	0.276483
C43	C	-0.000112	-0.577409	-0.216908
C44	C	0.499888	-0.077409	0.283092
C45	C	-0.000125	-0.541201	-0.142480
C46	C	0.499875	-0.041201	0.357520
C47	C	-0.000133	-0.587198	-0.074657
C48	C	0.499867	-0.087198	0.425343
C49	C	-0.000125	-0.669397	-0.081267
C50	C	0.499875	-0.169397	0.418733
C51	C	-0.000160	-0.295886	-0.115086
C52	C	0.499840	0.204114	0.384914
C53	C	-0.000165	-0.213681	-0.108481
C54	C	0.499835	0.286319	0.391519
C55	C	-0.000146	-0.203898	-0.250732
C56	C	0.499854	0.296102	0.249268
C57	C	-0.000130	-0.286099	-0.257335
C58	C	0.499870	0.213901	0.242665
C59	C	-0.000144	-0.332089	-0.189512
C60	C	0.499856	0.167911	0.310488
N61	N	-0.000139	-0.457178	-0.135723
N62	N	0.499861	0.042822	0.364277
N63	N	-0.000139	-0.416110	-0.196270
N64	N	0.499861	0.083890	0.303730
C65	C	-0.000123	-0.939917	-0.309559
C66	C	0.499877	-0.439917	0.190441
C67	C	-0.000117	-0.946945	-0.397044
C68	C	0.499883	-0.446945	0.102956
C69	C	-0.000155	-0.994163	0.111037
C70	C	0.499845	-0.494163	0.611037
C71	C	-0.000142	-0.987554	0.193238
C72	C	0.499858	-0.487554	0.693238
C73	C	-0.000126	-0.913127	0.229446
C74	C	0.499874	-0.413127	0.729446
C75	C	-0.000110	-0.845303	0.183449
C76	C	0.499890	-0.345303	0.683449
C77	C	-0.000114	-0.851913	0.101250
C78	C	0.499886	-0.351913	0.601250
C79	C	-0.000105	-0.885732	0.474760
C80	C	0.499895	-0.385732	0.974760
C81	C	-0.000105	-0.879127	0.556966
C82	C	0.499895	-0.379127	1.056966
C83	C	-0.000134	-1.021379	0.566749
C84	C	0.499866	-0.521379	1.066749
C85	C	-0.000145	-1.027982	0.484547
C86	C	0.499855	-0.527982	0.984547
C87	C	-0.000123	-0.960159	0.438558
C88	C	0.499877	-0.460159	0.938558
N89	N	-0.000117	-0.906369	0.313468
N90	N	0.499883	-0.406369	0.813468
N91	N	-0.000123	-0.966917	0.354537
N92	N	0.499877	-0.466917	0.854537
H93	H	-0.000082	-0.689084	-0.284124
H94	H	0.499918	-0.189084	0.215876
H95	H	-0.000158	-1.088589	0.455073
H96	H	0.499842	-0.588589	0.955073
C97	C	0.000179	-0.798296	0.596240
C98	C	0.500179	-0.298296	1.096240
C99	C	0.105496	-0.757013	0.573309
C100	C	0.605496	-0.257013	1.073309
C101	C	0.105806	-0.682559	0.609482
C102	C	0.605806	-0.182559	1.109482
H103	H	-0.071091	-0.770047	0.580793
H104	H	0.428909	-0.270047	1.080793
H105	H	0.000241	-0.804046	0.651786
H106	H	0.500241	-0.304046	1.151786
H107	H	0.105422	-0.751259	0.517775
H108	H	0.605422	-0.251259	1.017775
H109	H	0.176782	-0.785238	0.588756
H110	H	0.676782	-0.285238	1.088756
H111	H	0.105868	-0.688309	0.665029
H112	H	0.605868	-0.188309	1.165029
H113	H	0.034532	-0.654317	0.594033
H114	H	0.534532	-0.154317	1.094033
H115	H	0.177267	-0.654541	0.593935
H116	H	0.677267	-0.154541	1.093935
C117	C	-0.000042	-0.527612	-0.290633
C118	C	0.499958	-0.027612	0.209367
C119	C	0.000011	-0.576915	-0.357228
C120	C	0.500011	-0.076915	0.142772
C121	C	0.000089	-0.531071	-0.425160
C122	C	0.500089	-0.031071	0.074840
H123	H	-0.071392	-0.495338	-0.291125
H124	H	0.428608	0.004662	0.208875
H125	H	0.071345	-0.495351	-0.291055
H126	H	0.571345	0.004649	0.208945
H127	H	-0.071369	-0.609163	-0.356806
H128	H	0.428631	-0.109163	0.143194
H129	H	0.071356	-0.609189	-0.356762
H130	H	0.571356	-0.109189	0.143238
H131	H	0.071476	-0.498809	-0.425582
H132	H	0.571476	0.001191	0.074418
H133	H	-0.071263	-0.498799	-0.425644
H134	H	0.428737	0.001201	0.074356
H135	H	0.000136	-0.564516	-0.470353
H136	H	0.500136	-0.064516	0.029647
C137	C	-0.000332	-0.154063	-0.324432
C138	C	0.499668	0.345937	0.175568
C139	C	-0.105595	-0.171128	-0.368956
C140	C	0.394405	0.328872	0.131044
C141	C	-0.105805	-0.125243	-0.436861
C142	C	0.394195	0.374757	0.063139
H143	H	-0.000403	-0.099902	-0.309950
H144	H	0.499597	0.400098	0.190050
H145	H	0.070999	-0.165535	-0.354784
H146	H	0.570999	0.334465	0.145216
H147	H	-0.176908	-0.159650	-0.338609
H148	H	0.323092	0.340350	0.161391
H149	H	-0.105547	-0.225280	-0.383458
H150	H	0.394453	0.274720	0.116542
H151	H	-0.034473	-0.136715	-0.467213
H152	H	0.465527	0.363285	0.032787
H153	H	-0.105872	-0.071085	-0.422371
H154	H	0.394128	0.428915	0.077629
H155	H	-0.177218	-0.136821	-0.467082
H156	H	0.322782	0.363179	0.032918
C157	C	-0.000105	-1.075043	0.071876
C158	C	0.499895	-0.575043	0.571876
C159	C	-0.000076	-1.133019	0.129751
C160	C	0.499924	-0.633019	0.629751
C161	C	-0.000007	-1.207536	0.093709
C162	C	0.499993	-0.707536	0.593709
H163	H	-0.071450	-1.080690	0.040023
H164	H	0.428550	-0.580690	0.540023
H165	H	0.071287	-1.080621	0.040030
H166	H	0.571287	-0.580621	0.540030
H167	H	-0.071461	-1.127444	0.161585
H168	H	0.428539	-0.627444	0.661585
H169	H	0.071264	-1.127398	0.161608
H170	H	0.571264	-0.627398	0.661608
H171	H	0.071385	-1.213114	0.061863
H172	H	0.571385	-0.713114	0.561863
H173	H	-0.071354	-1.213175	0.061857
H174	H	0.428646	-0.713175	0.561857
H175	H	0.000024	-1.246882	0.132972
H176	H	0.500024	-0.746882	0.632972
H177	H	-0.000154	-1.042779	0.230680
H178	H	0.499846	-0.542779	0.730680
H179	H	-0.000150	-1.076596	0.604202
H180	H	0.499850	-0.576596	1.104202
C181	C	0.000164	-0.812122	0.424799
C182	C	0.500164	-0.312122	0.924799
C183	C	0.105467	-0.811749	0.377333
C184	C	0.605467	-0.311749	0.877333
C185	C	0.105765	-0.743943	0.331304
C186	C	0.605765	-0.243943	0.831304
H187	H	-0.071115	-0.811663	0.392463
H188	H	0.428885	-0.311663	0.892463
H189	H	0.000236	-0.766833	0.458116
H190	H	0.500236	-0.266833	0.958116
H191	H	0.105384	-0.857027	0.344020
H192	H	0.605384	-0.357027	0.844020
H193	H	0.176763	-0.812196	0.409648
H194	H	0.676763	-0.312196	0.909648
H195	H	0.105837	-0.698654	0.364621
H196	H	0.605837	-0.198654	0.864621
H197	H	0.034482	-0.743490	0.298973
H198	H	0.534482	-0.243490	0.798973
H199	H	0.177217	-0.743678	0.299099
H200	H	0.677217	-0.243678	0.799099
C201	C	0.000083	-0.325289	-0.338201
C202	C	0.500083	0.174711	0.161799
C203	C	0.105359	-0.302306	-0.379498
C204	C	0.605359	0.197694	0.120502
C205	C	0.105599	-0.338377	-0.454001
C206	C	0.605599	0.161623	0.045999
H207	H	0.000156	-0.380837	-0.332551
H208	H	0.500156	0.119163	0.167449
H209	H	-0.071240	-0.309787	-0.366383
H210	H	0.428760	0.190213	0.133617
H211	H	0.176663	-0.317813	-0.351323
H212	H	0.676663	0.182187	0.148677
H213	H	0.105308	-0.246764	-0.385170
H214	H	0.605308	0.253236	0.114830
H215	H	0.034276	-0.322875	-0.482184
H216	H	0.534276	0.177125	0.017816
H217	H	0.105669	-0.393924	-0.448344
H218	H	0.605669	0.106076	0.051656
H219	H	0.177021	-0.322783	-0.482033
H220	H	0.677021	0.177217	0.017967
H221	H	-0.000090	-0.784703	0.212936
H222	H	0.499910	-0.284703	0.712936
C223	C	0.000090	-0.778216	0.051409
C224	C	0.500090	-0.278216	0.551409
C225	C	0.105369	-0.733697	0.068460
C226	C	0.605369	-0.233697	0.568460
C227	C	0.105597	-0.665795	0.022571
C228	C	0.605597	-0.165795	0.522571
H229	H	0.000152	-0.792701	-0.002750
H230	H	0.500152	-0.292701	0.497250
H231	H	-0.071231	-0.747859	0.062887
H232	H	0.428769	-0.247859	0.562887
H233	H	0.176671	-0.764048	0.056978
H234	H	0.676671	-0.264048	0.556978
H235	H	0.105328	-0.719191	0.122612
H236	H	0.605328	-0.219191	0.622612
H237	H	0.034277	-0.635438	0.034048
H238	H	0.534277	-0.135438	0.534048
H239	H	0.105657	-0.680288	-0.031586
H240	H	0.605657	-0.180288	0.468414
H241	H	0.177022	-0.635577	0.034139
H242	H	0.677022	-0.135577	0.534139
C243	C	-0.000108	-0.345675	-0.041357
C244	C	0.499892	0.154325	0.458643
C245	C	-0.000086	-0.296368	0.025234
C246	C	0.499914	0.203632	0.525234
C247	C	-0.000022	-0.342209	0.093170
C248	C	0.499978	0.157791	0.593170
H249	H	-0.071453	-0.377956	-0.040865
H250	H	0.428547	0.122044	0.459135
H251	H	0.071285	-0.377929	-0.040933
H252	H	0.571285	0.122071	0.459067
H253	H	-0.071471	-0.264128	0.024810
H254	H	0.428529	0.235872	0.524810
H255	H	0.071254	-0.264087	0.024768
H256	H	0.571254	0.235913	0.524768
H257	H	0.071371	-0.374463	0.093594
H258	H	0.571371	0.125537	0.593594
H259	H	-0.071368	-0.374488	0.093654
H260	H	0.428632	0.125512	0.593654
H261	H	0.000004	-0.308761	0.138360
H262	H	0.500004	0.191239	0.638360
C263	C	-0.000398	-0.547933	0.006173
C264	C	0.499602	-0.047933	0.506173
C265	C	-0.105701	-0.570868	0.047471
C266	C	0.394299	-0.070868	0.547471
C267	C	-0.105990	-0.534708	0.121931
C268	C	0.394010	-0.034708	0.621931
H269	H	0.070881	-0.563387	0.034407
H270	H	0.570881	-0.063387	0.534407
H271	H	-0.000465	-0.492385	0.000433
H272	H	0.499535	0.007615	0.500433
H273	H	-0.105624	-0.626403	0.053214
H274	H	0.394376	-0.126403	0.553214
H275	H	-0.176997	-0.555413	0.019260
H276	H	0.323003	-0.055413	0.519260
H277	H	-0.106056	-0.479160	0.116191
H278	H	0.393944	0.020840	0.616191
H279	H	-0.034706	-0.550164	0.150158
H280	H	0.465294	-0.050164	0.650158
H281	H	-0.177442	-0.550258	0.149958
H282	H	0.322558	-0.050258	0.649958
H283	H	-0.000175	-0.184203	-0.047870
H284	H	0.499825	0.315797	0.452130
H285	H	-0.000128	-0.706842	-0.026042
H286	H	0.499872	-0.206842	0.473958
