data_functionalizedCrystal
_audit_creation_method	'MofGen! by Chris Wilmer'
_symmetry_space_group_name_H-M	'P1'
_symmetry_Int_Tables_number	1
_symmetry_cell_setting	triclinic
loop_
_symmetry_equiv_pos_as_xyz
  x,y,z
_cell_length_a	19.288864
_cell_length_b	15.944493
_cell_length_c	18.366186
_cell_angle_alpha	89.999635
_cell_angle_beta	89.977106
_cell_angle_gamma	83.305646
loop_
_atom_site_label
_atom_site_type_symbol
_atom_site_fract_x
_atom_site_fract_y
_atom_site_fract_z
O1	O	0.921611	0.104786	-0.060774
O2	O	0.719385	0.118922	-0.060723
O3	O	0.826041	-0.010445	-0.060756
O4	O	0.814954	0.234154	-0.060741
O5	O	0.826023	-0.010452	0.060344
O6	O	0.719367	0.118916	0.060377
O7	O	0.921593	0.104780	0.060326
Zn8	Zn	0.820477	0.111847	0.079578
Zn9	Zn	0.820501	0.111855	-0.079975
O10	O	0.814936	0.234147	0.060358
C11	C	0.693498	0.118464	-0.000167
C12	C	0.616391	0.117099	-0.000148
C13	C	0.571882	0.193005	-0.000155
C14	C	0.499432	0.191723	-0.000163
C15	C	0.471494	0.114529	-0.000179
C16	C	0.516013	0.038612	-0.000168
C17	C	0.588462	0.039897	-0.000152
C18	C	0.363089	0.053848	-0.042633
C19	C	0.290641	0.052566	-0.042653
C20	C	0.248039	0.110563	-0.000223
C21	C	0.277891	0.169855	0.042218
C22	C	0.350340	0.171140	0.042233
C23	C	0.392937	0.113127	-0.000195
C24	C	0.124970	0.185084	-0.000238
C25	C	0.052519	0.183798	-0.000241
C26	C	0.069102	0.030685	-0.000254
C27	C	0.141552	0.031973	-0.000243
C28	C	0.169481	0.109175	-0.000238
C29	C	0.825579	-0.041742	-0.000209
C30	C	0.824220	-0.134985	-0.000218
C31	C	0.887001	-0.370987	-0.000220
C32	C	0.853155	-0.421421	-0.059919
C33	C	0.821703	-0.305696	-0.000208
C34	C	0.853122	-0.421403	0.059475
C35	C	0.819277	-0.470596	-0.000196
C36	C	0.787875	-0.354903	-0.059957
C37	C	0.787851	-0.354881	0.059491
C38	C	0.753957	-0.405283	-0.000223
C39	C	0.823103	-0.210702	-0.000216
C40	C	0.817872	-0.565588	-0.000194
C41	C	0.947479	0.105238	-0.000232
C42	C	1.024586	0.106603	-0.000256
C43	C	0.815399	0.265444	-0.000190
C44	C	0.816757	0.358687	-0.000186
N45	N	0.820466	0.111841	0.188469
N46	N	0.820517	0.111855	-0.188867
C47	C	0.867708	0.054585	0.226555
C48	C	0.867713	0.054581	0.302783
C49	C	0.820481	0.111848	0.340922
C50	C	0.773229	0.169108	0.302827
C51	C	0.773221	0.169104	0.226601
C52	C	0.811371	0.188383	0.461688
C53	C	0.811384	0.188388	0.537913
C54	C	0.820501	0.111858	0.576030
C55	C	0.829620	0.035321	0.537911
C56	C	0.829612	0.035317	0.461685
C57	C	0.820484	0.111857	0.423577
C58	C	0.867751	0.054594	0.696770
C59	C	0.867751	0.054589	0.773000
C60	C	0.773270	0.169123	0.773042
C61	C	0.773267	0.169120	0.696814
C62	C	0.820511	0.111857	0.658683
H63	H	0.243205	0.217081	0.076769
H64	H	0.837035	-0.027002	0.430652
C65	C	0.890374	-0.460632	0.127656
H66	H	0.858460	-0.488243	0.155784
H67	H	0.907215	-0.417432	0.155954
H68	H	0.928429	-0.500437	0.113287
H69	H	0.760291	-0.325817	0.109979
C70	C	0.602604	0.277921	-0.000146
H71	H	0.652127	0.267818	-0.000142
H72	H	0.587300	0.309168	0.042081
H73	H	0.587348	0.309161	-0.042384
C74	C	0.409949	-0.009952	-0.089307
H75	H	0.457372	-0.000702	-0.083214
H76	H	0.397305	-0.002779	-0.139094
H77	H	0.404085	-0.065740	-0.074391
H78	H	0.880738	-0.450470	-0.110406
C79	C	0.919667	-0.008411	0.184615
H80	H	0.947800	-0.042517	0.218219
H81	H	0.948571	0.021711	0.154858
H82	H	0.894680	-0.043307	0.154898
C83	C	0.637424	-0.043604	-0.000153
H84	H	0.610412	-0.089764	-0.000168
H85	H	0.666012	-0.046289	0.042079
H86	H	0.666050	-0.046279	-0.042387
C87	C	0.485285	-0.046299	-0.000190
H88	H	0.435762	-0.036193	-0.000208
H89	H	0.500538	-0.077548	0.042040
H90	H	0.500591	-0.077537	-0.042425
C91	C	0.839643	-0.048867	0.579828
H92	H	0.838333	-0.037907	0.630685
H93	H	0.883451	-0.078960	0.567318
H94	H	0.803318	-0.081665	0.567352
H95	H	0.943246	-0.355575	-0.000294
H96	H	0.906185	0.007955	0.333798
C97	C	0.750666	-0.315832	-0.128221
H98	H	0.751794	-0.256424	-0.127822
H99	H	0.703554	-0.327767	-0.128385
H100	H	0.773711	-0.339192	-0.170573
C101	C	0.003555	0.267298	-0.000249
H102	H	-0.043594	0.255478	-0.000251
H103	H	0.012044	0.298960	-0.042478
H104	H	0.011999	0.298964	0.041988
C105	C	0.919709	-0.008401	0.654823
H106	H	0.947839	-0.042511	0.688426
H107	H	0.948615	0.021724	0.625071
H108	H	0.894722	-0.043293	0.625102
C109	C	0.721314	0.232116	0.814983
H110	H	0.693175	0.266215	0.781379
H111	H	0.746295	0.267007	0.844705
H112	H	0.692407	0.201984	0.844733
C113	C	0.919722	-0.008395	0.814894
H114	H	0.947860	-0.042491	0.781264
H115	H	0.894751	-0.043289	0.844645
H116	H	0.948630	0.021746	0.844613
C117	C	0.677919	-0.425893	-0.000246
H118	H	0.654840	-0.402898	-0.042693
H119	H	0.654560	-0.402099	0.041772
H120	H	0.677452	-0.485404	0.000151
C121	C	0.721307	0.232111	0.654918
H122	H	0.693181	0.266223	0.688548
H123	H	0.692397	0.201985	0.625197
H124	H	0.746290	0.267003	0.625170
C125	C	0.801354	0.272572	0.579840
H126	H	0.802673	0.261615	0.630696
H127	H	0.757541	0.302655	0.567371
H128	H	0.837673	0.305377	0.567325
C129	C	0.450459	0.275221	-0.000174
H130	H	0.403312	0.263397	-0.000179
H131	H	0.458950	0.306885	-0.042401
H132	H	0.458899	0.306888	0.042065
C133	C	0.383176	0.236348	0.088921
H134	H	0.347433	0.270703	0.114194
H135	H	0.407786	0.270767	0.058345
H136	H	0.414562	0.207796	0.123041
C137	C	0.155696	0.270000	-0.000225
H138	H	0.118808	0.315026	-0.000220
H139	H	0.183635	0.273687	-0.042451
H140	H	0.183591	0.273680	0.042015
C141	C	0.801347	0.272571	0.419768
H142	H	0.795929	0.318153	0.453385
H143	H	0.760903	0.274401	0.390051
H144	H	0.841037	0.277102	0.390014
C145	C	0.721278	0.232101	0.344777
H146	H	0.728053	0.223910	0.395630
H147	H	0.674923	0.223122	0.332312
H148	H	0.728814	0.288142	0.332275
C149	C	0.038383	-0.054229	-0.000268
H150	H	0.075271	-0.099254	-0.000258
H151	H	0.010486	-0.057914	-0.042501
H152	H	0.010445	-0.057912	0.041964
C153	C	0.190514	-0.051525	-0.000246
H154	H	0.163501	-0.097684	-0.000263
H155	H	0.219099	-0.054211	0.041988
H156	H	0.219142	-0.054201	-0.042478
C157	C	0.257806	-0.012645	-0.089338
H158	H	0.208557	-0.005097	-0.083280
H159	H	0.275686	-0.068010	-0.074423
H160	H	0.268911	-0.005045	-0.139123
H161	H	0.734750	0.215730	0.195591
