data_functionalizedCrystal
_audit_creation_method	'MofGen! by Chris Wilmer'
_symmetry_space_group_name_H-M	'P1'
_symmetry_Int_Tables_number	1
_symmetry_cell_setting	triclinic
loop_
_symmetry_equiv_pos_as_xyz
  x,y,z
_cell_length_a	15.944551
_cell_length_b	10.654550
_cell_length_c	9.130313
_cell_angle_alpha	90.003780
_cell_angle_beta	89.997799
_cell_angle_gamma	96.008180
loop_
_atom_site_label
_atom_site_type_symbol
_atom_site_fract_x
_atom_site_fract_y
_atom_site_fract_z
O1	O	0.117973	-1.666308	-0.121923
O2	O	0.129213	-1.300684	-0.121900
O3	O	0.001376	-1.493480	-0.121899
O4	O	0.245810	-1.473511	-0.121924
O5	O	0.001379	-1.493478	0.121700
O6	O	0.129216	-1.300681	0.121699
O7	O	0.117976	-1.666305	0.121676
Cu8	Cu	0.123596	-1.483493	0.143930
Cu9	Cu	0.123592	-1.483496	-0.144154
O10	O	0.245813	-1.473509	0.121675
C11	C	-0.029921	-1.492650	-0.000099
C12	C	-0.123182	-1.490165	-0.000098
C13	C	0.128389	-1.253895	-0.000098
C14	C	0.125920	-1.114484	-0.000088
C15	C	0.118800	-1.713094	-0.000130
C16	C	0.121269	-1.852505	-0.000149
C17	C	-0.338765	-1.364720	-0.000111
C18	C	-0.399443	-1.422971	0.119995
C19	C	-0.293934	-1.485668	-0.000109
C20	C	-0.399430	-1.423002	-0.120175
C21	C	-0.458872	-1.481317	-0.000126
C22	C	-0.353384	-1.543953	0.120095
C23	C	-0.353364	-1.543967	-0.120182
C24	C	-0.414024	-1.602306	-0.000048
C25	C	-0.198917	-1.488172	-0.000098
C26	C	-0.553887	-1.478822	-0.000127
C27	C	0.277110	-1.474339	-0.000128
C28	C	0.370371	-1.476824	-0.000139
N29	N	0.123599	-1.483500	0.346552
C30	C	0.201188	-1.034024	-0.000117
C31	C	0.198863	-0.903034	-0.000142
C32	C	0.045995	-0.932975	-0.000116
C33	C	0.048321	-1.063963	-0.000080
C34	C	0.289446	-1.016737	-0.000139
C35	C	0.287121	-0.885746	-0.000164
N36	N	0.123583	-1.483499	-0.346777
C37	C	0.067012	-1.568892	0.423205
C38	C	0.067002	-1.568889	0.576542
C39	C	0.180173	-1.398098	0.576560
C40	C	0.180178	-1.398096	0.423226
C41	C	0.001676	-1.667501	0.423195
C42	C	0.001666	-1.667498	0.576532
H43	H	-0.306038	-1.264327	0.000016
C44	C	0.029308	-1.790330	0.358928
N45	N	0.050120	-1.882847	0.310520
C46	C	-0.080750	-1.627327	0.640785
N47	N	-0.142822	-1.597063	0.689182
C48	C	-0.427011	-1.353859	0.257175
N49	N	-0.447773	-1.301796	0.360493
C50	C	-0.325978	-1.612999	0.257426
N51	N	-0.305334	-1.664998	0.360864
H52	H	0.320373	-0.843584	-0.102121
H53	H	-0.332939	-1.595080	-0.221733
C54	C	-0.458043	-1.738046	0.000039
N55	N	-0.491201	-1.840283	0.000113
H56	H	-0.419804	-1.371831	-0.221721
C57	C	0.021172	-1.797594	0.632750
N58	N	0.035889	-1.895568	0.675093
H59	H	0.317547	-1.052030	-0.105314
H60	H	0.313795	-0.839729	0.105001
H61	H	-0.012970	-1.129470	-0.000035
H62	H	0.323965	-1.045620	0.101809
C63	C	-0.039360	-0.877389	-0.000114
N64	N	-0.103651	-0.835523	-0.000117
H65	H	0.226248	-1.328553	0.360817
H66	H	0.226238	-1.328563	0.639004
C67	C	-0.085540	-1.639652	0.366973
N68	N	-0.151229	-1.618673	0.324626
