data_functionalizedCrystal
_audit_creation_method	'MofGen! by Chris Wilmer'
_symmetry_space_group_name_H-M	'P1'
_symmetry_Int_Tables_number	1
_symmetry_cell_setting	triclinic
loop_
_symmetry_equiv_pos_as_xyz
  x,y,z
_cell_length_a	10.489741
_cell_length_b	8.965430
_cell_length_c	10.489741
_cell_angle_alpha	90.000707
_cell_angle_beta	95.460826
_cell_angle_gamma	90.001157
loop_
_atom_site_label
_atom_site_type_symbol
_atom_site_fract_x
_atom_site_fract_y
_atom_site_fract_z
O1	O	1.694053	0.123946	-0.179958
O2	O	1.322858	0.123969	-0.196851
O3	O	1.516902	0.123948	-0.002807
O4	O	1.500009	0.123967	-0.374003
O5	O	1.516886	-0.124130	-0.002820
O6	O	1.322841	-0.124110	-0.196864
O7	O	1.694037	-0.124133	-0.179971
Cu8	Cu	1.508438	-0.146773	-0.188419
Cu9	Cu	1.508457	0.146609	-0.188404
O10	O	1.499993	-0.124112	-0.374016
C11	C	1.275318	-0.000067	-0.195582
C12	C	1.133688	-0.000059	-0.191765
N13	N	1.508433	-0.353122	-0.188429
C14	C	1.065548	-0.000079	-0.068300
C15	C	0.973430	0.122237	-0.126617
C16	C	0.973447	-0.122349	-0.126659
C17	C	1.043435	0.122358	-0.250133
C18	C	1.043462	-0.122338	-0.250158
C19	C	0.951371	0.000007	-0.308564
C20	C	1.418666	-0.450418	-0.278138
C21	C	1.534163	-0.549838	-0.303949
C22	C	1.392986	-0.549830	-0.162629
C23	C	1.623988	-0.450352	-0.214298
C24	C	1.482735	-0.450336	-0.072927
C25	C	1.598314	-0.549711	-0.098690
C26	C	1.741577	-0.000093	-0.181241
C27	C	1.883206	-0.000092	-0.185058
C28	C	1.515618	-0.000090	0.044718
C29	C	1.511801	-0.000087	0.186348
N30	N	1.508471	0.352958	-0.188384
C31	C	1.501277	-0.000070	-0.421541
C32	C	1.505094	-0.000063	-0.563170
C33	C	1.388336	-0.000069	0.254488
C34	C	1.446652	-0.122388	0.346604
C35	C	1.446697	0.122198	0.346591
C36	C	1.570167	-0.122508	0.276599
C37	C	1.570195	0.122189	0.276576
C38	C	1.628600	-0.000161	0.368665
H39	H	1.115238	0.000069	0.033196
O40	O	1.632549	-0.245865	0.239684
C41	C	1.740220	-0.202228	0.177907
H42	H	1.725242	-0.084186	0.138939
H43	H	1.753268	-0.282037	0.095545
H44	H	1.829216	-0.205177	0.249280
H45	H	1.674327	-0.593034	-0.022803
O46	O	1.328326	-0.398458	-0.368888
C47	C	1.355919	-0.449192	-0.490486
H48	H	1.462169	-0.477068	-0.487862
H49	H	1.331011	-0.358266	-0.564666
H50	H	1.296892	-0.553263	-0.517260
H51	H	1.460937	-0.406596	0.024699
O52	O	1.749829	-0.000506	0.427582
C53	C	1.814426	-0.129624	0.391861
H54	H	1.741492	-0.219350	0.359259
H55	H	1.879458	-0.172317	0.477350
H56	H	1.874564	-0.101614	0.310093
H57	H	1.622398	0.225600	0.245537
H58	H	1.394447	0.225620	0.377561
O59	O	1.267175	-0.000002	0.195398
C60	C	1.201636	0.127765	0.232576
H61	H	1.248372	0.169955	0.328379
H62	H	1.097335	0.098164	0.242419
H63	H	1.206201	0.218489	0.156994
O64	O	1.276438	-0.601704	-0.136533
C65	C	1.194315	-0.480311	-0.119485
H66	H	1.253882	-0.377061	-0.091293
H67	H	1.130410	-0.507850	-0.040655
H68	H	1.132248	-0.457860	-0.212718
H69	H	1.394404	-0.225794	0.377610
O70	O	1.080544	-0.245545	-0.312623
C71	C	1.141337	-0.201690	-0.420852
H72	H	1.108600	-0.084607	-0.451066
H73	H	1.115006	-0.282874	-0.502791
H74	H	1.249559	-0.202130	-0.396217
O75	O	0.936510	0.245486	-0.064089
C76	C	0.995213	0.245071	0.062540
H77	H	1.022651	0.126041	0.091884
H78	H	0.925585	0.291265	0.129724
H79	H	1.084869	0.317569	0.068409
H80	H	1.555925	-0.593543	-0.401606
O81	O	1.740517	-0.398676	-0.240654
C82	C	1.767582	-0.450620	-0.362051
H83	H	1.709279	-0.555612	-0.387349
H84	H	1.874002	-0.477380	-0.359990
H85	H	1.741353	-0.360876	-0.436980
O86	O	1.080346	0.245716	-0.312517
C87	C	1.142123	0.202080	-0.420188
H88	H	1.181095	0.084040	-0.405207
H89	H	1.224482	0.281892	-0.433239
H90	H	1.070749	0.205024	-0.509183
H91	H	0.901947	0.000079	-0.410168
O92	O	0.936651	-0.245675	-0.064154
C93	C	0.995312	-0.245186	0.062491
H94	H	1.085468	-0.173581	0.067785
H95	H	1.021916	-0.364142	0.092822
H96	H	0.925991	-0.197445	0.129275
