data_functionalizedCrystal
_audit_creation_method	'MofGen! by Chris Wilmer'
_symmetry_space_group_name_H-M	'P1'
_symmetry_Int_Tables_number	1
_symmetry_cell_setting	triclinic
loop_
_symmetry_equiv_pos_as_xyz
  x,y,z
_cell_length_a	21.395364
_cell_length_b	19.120786
_cell_length_c	19.120904
_cell_angle_alpha	90.133503
_cell_angle_beta	87.577865
_cell_angle_gamma	92.480057
loop_
_atom_site_label
_atom_site_type_symbol
_atom_site_fract_x
_atom_site_fract_y
_atom_site_fract_z
Zn1	Zn	0.931946	-0.295776	0.384484
Zn2	Zn	1.431946	0.204224	0.884484
Zn3	Zn	0.932254	-0.408020	0.262244
Zn4	Zn	1.432254	0.091980	0.762244
Zn5	Zn	0.831825	-0.290824	0.267262
Zn6	Zn	1.331825	0.209176	0.767262
Zn7	Zn	0.822871	-0.413014	0.379439
Zn8	Zn	1.322871	0.086986	0.879439
O9	O	0.879724	-0.351908	0.323357
O10	O	1.379724	0.148092	0.823357
O11	O	1.019665	-0.310648	0.368281
O12	O	1.519665	0.189352	0.868281
O13	O	0.922807	-0.388311	0.164805
O14	O	1.422807	0.111689	0.664805
O15	O	0.848725	-0.193369	0.287023
O16	O	1.348725	0.306631	0.787023
O17	O	1.019891	-0.393113	0.278471
O18	O	1.519891	0.106887	0.778471
O19	O	0.922284	-0.197007	0.373146
O20	O	1.422284	0.302993	0.873146
O21	O	0.849023	-0.302208	0.168491
O22	O	1.349023	0.197792	0.668491
O23	O	0.742959	-0.307050	0.282131
O24	O	1.242959	0.192950	0.782131
O25	O	0.833464	-0.401625	0.478213
O26	O	1.333464	0.098375	0.978213
O27	O	0.736381	-0.396823	0.364547
O28	O	1.236381	0.103177	0.864547
O29	O	0.913601	-0.315490	0.481920
O30	O	1.413601	0.184510	0.981920
O31	O	0.914125	-0.506794	0.273578
O32	O	1.414125	-0.006794	0.773578
O33	O	0.833762	-0.510463	0.359681
O34	O	1.333762	-0.010463	0.859681
C35	C	0.716936	-0.351942	0.323336
C36	C	1.216936	0.148058	0.823336
C37	C	0.647293	-0.351974	0.323343
C38	C	1.147293	0.148026	0.823343
C39	C	0.614479	-0.309110	0.370173
C40	C	1.114479	0.190890	0.870173
C41	C	0.549045	-0.309092	0.370176
C42	C	1.049045	0.190908	0.870176
C43	C	0.516425	-0.351949	0.323357
C44	C	1.016425	0.148051	0.823357
C45	C	0.549247	-0.394815	0.276518
C46	C	1.049247	0.105185	0.776518
C47	C	0.614681	-0.394827	0.276511
C48	C	1.114681	0.105173	0.776511
C49	C	0.410630	-0.414850	0.315025
C50	C	0.910630	0.085150	0.815025
C51	C	0.345197	-0.414839	0.315037
C52	C	0.845197	0.085161	0.815037
C53	C	0.314605	-0.351911	0.323374
C54	C	0.814605	0.148089	0.823374
C55	C	0.349454	-0.288993	0.331714
C56	C	0.849454	0.211007	0.831714
C57	C	0.414888	-0.289005	0.331707
C58	C	0.914888	0.210995	0.831707
C59	C	0.445473	-0.351941	0.323359
C60	C	0.945473	0.148059	0.823359
C61	C	0.210840	-0.309024	0.370210
C62	C	0.710840	0.190976	0.870210
C63	C	0.145404	-0.309004	0.370209
C64	C	0.645404	0.190996	0.870209
C65	C	0.145607	-0.394734	0.276554
C66	C	0.645607	0.105266	0.776554
C67	C	0.211042	-0.394748	0.276552
C68	C	0.711042	0.105252	0.776552
C69	C	0.243654	-0.351894	0.323384
C70	C	0.743654	0.148106	0.823384
C71	C	0.873021	-0.534069	0.315553
C72	C	1.373021	-0.034069	0.815553
C73	C	0.870210	-0.611998	0.312238
C74	C	1.370210	-0.111998	0.812238
C75	C	0.907157	-0.650445	0.355556
C76	C	1.407157	-0.150445	0.855556
C77	C	0.904513	-0.723669	0.352442
C78	C	1.404513	-0.223669	0.852442
C79	C	0.864926	-0.758444	0.306006
C80	C	1.364926	-0.258444	0.806006
C81	C	0.827975	-0.719992	0.262686
C82	C	1.327975	-0.219992	0.762686
C83	C	0.830616	-0.646770	0.265803
C84	C	1.330616	-0.146770	0.765803
C85	C	0.855034	-0.979435	0.294350
C86	C	1.355034	-0.479435	0.794350
C87	C	0.852398	-1.052662	0.291234
C88	C	1.352398	-0.552662	0.791234
C89	C	0.928934	-1.056334	0.380992
C90	C	1.428934	-0.556334	0.880992
C91	C	0.931575	-0.983111	0.384103
C92	C	1.431575	-0.483111	0.884103
C93	C	0.894622	-0.944665	0.340785
C94	C	1.394622	-0.444665	0.840785
C95	C	0.862224	-0.833290	0.302820
C96	C	1.362224	-0.333290	0.802820
C97	C	0.897321	-0.869821	0.343975
C98	C	1.397321	-0.369821	0.843975
C99	C	1.043148	-0.351876	0.323379
C100	C	1.543148	0.148124	0.823379
C101	C	1.112789	-0.351862	0.323388
C102	C	1.612789	0.148138	0.823388
C103	C	0.872500	-0.359667	0.506215
C104	C	1.372500	0.140333	1.006215
C105	C	0.869421	-0.362973	0.584138
C106	C	1.369421	0.137027	1.084138
C107	C	0.886469	-0.169038	0.331207
C108	C	1.386469	0.330962	0.831207
C109	C	0.889344	-0.091109	0.334553
C110	C	1.389344	0.408891	0.834553
C111	C	0.886958	-0.344129	0.141213
C112	C	1.386958	0.155871	0.641213
C113	C	0.890165	-0.340626	0.063299
C114	C	1.390165	0.159374	0.563299
C115	C	0.909696	-0.319683	0.622678
C116	C	1.409696	0.180317	1.122678
C117	C	0.906795	-0.322787	0.695895
C118	C	1.406795	0.177213	1.195895
C119	C	0.863623	-0.369185	0.730571
C120	C	1.363623	0.130815	1.230571
C121	C	0.823344	-0.412477	0.692026
C122	C	1.323344	0.087523	1.192026
C123	C	0.826242	-0.409369	0.618810
C124	C	1.326242	0.090631	1.118810
C125	C	0.852784	-0.380810	0.951538
C126	C	1.352784	0.119190	1.451538
C127	C	0.849891	-0.383916	1.024759
C128	C	1.349891	0.116084	1.524759
C129	C	0.933342	-0.294224	1.028623
C130	C	1.433342	0.205776	1.528623
C131	C	0.936238	-0.291123	0.955405
C132	C	1.436238	0.208877	1.455405
C133	C	0.895957	-0.334413	0.916867
C134	C	1.395957	0.165587	1.416867
C135	C	0.860659	-0.372361	0.805410
C136	C	1.360659	0.127639	1.305410
C137	C	0.898918	-0.331233	0.842029
C138	C	1.398918	0.168767	1.342029
H139	H	0.443259	-0.237775	0.338495
H140	H	0.943259	0.262225	0.838495
Br141	Br	0.307945	-0.203585	0.343031
Br142	Br	0.807945	0.296415	0.843031
Br143	Br	0.968294	-0.256716	0.575624
Br144	Br	1.468294	0.243284	1.075624
H145	H	0.237394	-0.274126	0.408340
H146	H	0.737394	0.225874	0.908340
Br147	Br	0.804876	-0.927268	0.235570
Br148	Br	1.304876	-0.427268	0.735570
Br149	Br	0.297909	-0.500228	0.303734
Br150	Br	0.797909	-0.000228	0.803734
Br151	Br	0.504502	-0.250914	0.433734
Br152	Br	1.004502	0.249086	0.933734
H153	H	0.934603	-0.754969	0.387711
H154	H	1.434603	-0.254969	0.887711
H155	H	0.795740	-0.748311	0.224879
H156	H	1.295740	-0.248311	0.724879
Br157	Br	0.985303	-0.935921	0.447125
Br158	Br	1.485303	-0.435921	0.947125
H159	H	0.939395	-0.622137	0.393366
H160	H	1.439395	-0.122137	0.893366
Br161	Br	0.771577	-0.468119	0.566506
Br162	Br	1.271577	0.031881	1.066506
H163	H	0.820158	-1.080974	0.253419
H164	H	1.320158	-0.580974	0.753419
Br165	Br	0.988005	-0.235476	1.080928
Br166	Br	1.488005	0.264524	1.580928
Br167	Br	0.961485	-0.264066	0.748195
Br168	Br	1.461485	0.235934	1.248195
Br169	Br	0.791294	-0.446887	1.071820
Br170	Br	1.291294	0.053113	1.571820
H171	H	0.435532	-0.466096	0.308235
H172	H	0.935532	0.033904	0.808235
H173	H	0.959018	-1.087645	0.416260
H174	H	1.459018	-0.587645	0.916260
H175	H	0.522684	-0.429710	0.238396
H176	H	1.022684	0.070290	0.738396
H177	H	0.800530	-0.615467	0.230530
H178	H	1.300530	-0.115467	0.730530
Br179	Br	0.951039	-0.822625	0.406999
Br180	Br	1.451039	-0.322625	0.906999
Br181	Br	0.802071	-0.435330	0.852477
Br182	Br	1.302071	0.064670	1.352477
H183	H	0.788190	-0.450253	0.720265
H184	H	1.288190	0.049747	1.220265
Br185	Br	0.658736	-0.250952	0.433730
Br186	Br	1.158736	0.249048	0.933730
Br187	Br	0.994833	-0.228154	0.908350
Br188	Br	1.494833	0.271846	1.408350
H189	H	0.118688	-0.274096	0.408343
H190	H	0.618688	0.225904	0.908343
H191	H	0.641398	-0.429733	0.238375
H192	H	1.141398	0.070267	0.738375
H193	H	0.829994	-0.861612	0.265010
H194	H	1.329994	-0.361612	0.765010
H195	H	0.119049	-0.429630	0.238432
H196	H	0.619049	0.070370	0.738432
H197	H	0.819993	-0.416069	0.920169
H198	H	1.319993	0.083931	1.420169
H199	H	0.237759	-0.429655	0.238420
H200	H	0.737759	0.070345	0.738420
H201	H	0.934067	-0.293453	0.813793
H202	H	1.434067	0.206547	1.313793
