data_functionalizedCrystal
_audit_creation_method	'MofGen! by Chris Wilmer'
_symmetry_space_group_name_H-M	'P1'
_symmetry_Int_Tables_number	1
_symmetry_cell_setting	triclinic
loop_
_symmetry_equiv_pos_as_xyz
  x,y,z
_cell_length_a	21.295418
_cell_length_b	13.897448
_cell_length_c	21.295412
_cell_angle_alpha	90.025362
_cell_angle_beta	89.964379
_cell_angle_gamma	89.966493
loop_
_atom_site_label
_atom_site_type_symbol
_atom_site_fract_x
_atom_site_fract_y
_atom_site_fract_z
Zn1	Zn	0.962361	0.383627	-0.356259
Zn2	Zn	1.295695	0.716960	-0.022926
Zn3	Zn	1.629028	1.050293	0.310408
Zn4	Zn	0.962302	0.544934	-0.250995
Zn5	Zn	1.295636	0.878267	0.082338
Zn6	Zn	1.628969	1.211600	0.415671
Zn7	Zn	0.857099	0.383699	-0.250969
Zn8	Zn	1.190433	0.717032	0.082364
Zn9	Zn	1.523766	1.050366	0.415698
Zn10	Zn	0.857077	0.544926	-0.356192
Zn11	Zn	1.190411	0.878259	-0.022858
Zn12	Zn	1.523744	1.211593	0.310475
O13	O	0.909710	0.464296	-0.303604
O14	O	1.243043	0.797630	0.029730
O15	O	1.576377	1.130963	0.363063
O16	O	1.050443	0.404998	-0.342335
O17	O	1.383776	0.738331	-0.009001
O18	O	1.717110	1.071664	0.324332
O19	O	0.948331	0.523579	-0.162902
O20	O	1.281665	0.856912	0.170431
O21	O	1.614998	1.190246	0.503764
O22	O	0.871097	0.248708	-0.264953
O23	O	1.204430	0.582041	0.068380
O24	O	1.537763	0.915374	0.401714
O25	O	1.050399	0.523509	-0.264998
O26	O	1.383733	0.856842	0.068335
O27	O	1.717066	1.190176	0.401669
O28	O	0.948432	0.248655	-0.342309
O29	O	1.281765	0.581988	-0.008976
O30	O	1.615099	0.915321	0.324357
O31	O	0.871039	0.405120	-0.162883
O32	O	1.204373	0.738454	0.170450
O33	O	1.537706	1.071787	0.503784
O34	O	0.769007	0.405113	-0.264888
O35	O	1.102340	0.738446	0.068446
O36	O	1.435674	1.071780	0.401779
O37	O	0.871059	0.523496	-0.444290
O38	O	1.204393	0.856829	-0.110957
O39	O	1.537726	1.190163	0.222377
O40	O	0.768991	0.523566	-0.342194
O41	O	1.102324	0.856899	-0.008861
O42	O	1.435658	1.190233	0.324472
O43	O	0.948411	0.404990	-0.444340
O44	O	1.281744	0.738323	-0.111006
O45	O	1.615077	1.071657	0.222327
O46	O	0.948310	0.679914	-0.264932
O47	O	1.281643	1.013248	0.068401
O48	O	1.614977	1.346581	0.401734
O49	O	0.871002	0.679909	-0.342220
O50	O	1.204335	1.013242	-0.008887
O51	O	1.537669	1.346575	0.324447
C52	C	0.746158	0.464347	-0.303531
C53	C	1.079492	0.797680	0.029802
C54	C	1.412825	1.131014	0.363135
C55	C	0.676190	0.464392	-0.303515
C56	C	1.009524	0.797725	0.029818
C57	C	1.342857	1.131059	0.363151
C58	C	0.909664	0.714911	-0.303585
C59	C	1.242998	1.048244	0.029748
C60	C	1.576331	1.381577	0.363081
C61	C	0.909702	0.822125	-0.303599
C62	C	1.243035	1.155458	0.029735
C63	C	1.576369	1.488791	0.363068
C64	C	0.909739	0.464234	-0.467794
C65	C	1.243072	0.797567	-0.134461
C66	C	1.576406	1.130901	0.198873
C67	C	0.909751	0.464208	-0.537762
C68	C	1.243085	0.797541	-0.204429
C69	C	1.576418	1.130874	0.128905
C70	C	0.643332	0.526152	-0.343709
C71	C	0.976665	0.859485	-0.010375
C72	C	1.309998	1.192819	0.322958
C73	C	0.577589	0.526128	-0.343737
C74	C	0.910923	0.859462	-0.010404
C75	C	1.244256	1.192795	0.322930
C76	C	0.544708	0.464355	-0.303560
C77	C	0.878041	0.797688	0.029773
C78	C	1.211375	1.131021	0.363106
C79	C	0.577574	0.402583	-0.263364
C80	C	0.910908	0.735916	0.069969
C81	C	1.244241	1.069249	0.403302
C82	C	0.643316	0.402601	-0.263342
C83	C	0.976649	0.735935	0.069992
C84	C	1.309982	1.069268	0.403325
N85	N	0.441439	0.456819	-0.248502
N86	N	0.774772	0.790152	0.084831
N87	N	1.108105	1.123485	0.418164
N88	N	0.378987	0.456807	-0.248526
N89	N	0.712320	0.790140	0.084808
N90	N	1.045654	1.123473	0.418141
C91	C	0.346633	0.464293	-0.303627
C92	C	0.679967	0.797626	0.029706
C93	C	1.013300	1.130960	0.363039
N94	N	0.379090	0.471811	-0.358706
N95	N	0.712423	0.805144	-0.025372
N96	N	1.045757	1.138478	0.307961
N97	N	0.441547	0.471828	-0.358682
N98	N	0.774880	0.805161	-0.025348
N99	N	1.108214	1.138495	0.307985
C100	C	0.473423	0.464327	-0.303581
C101	C	0.806756	0.797660	0.029753
C102	C	1.140089	1.130994	0.363086
C103	C	0.242489	0.526031	-0.343855
C104	C	0.575822	0.859364	-0.010521
C105	C	0.909156	1.192697	0.322812
C106	C	0.176745	0.526000	-0.343884
C107	C	0.510079	0.859334	-0.010551
C108	C	0.843412	1.192667	0.322783
C109	C	0.176732	0.402459	-0.263506
C110	C	0.510065	0.735793	0.069828
C111	C	0.843398	1.069126	0.403161
C112	C	0.242474	0.402485	-0.263482
C113	C	0.575808	0.735818	0.069851
C114	C	0.909141	1.069152	0.403185
C115	C	0.275349	0.464276	-0.303656
C116	C	0.608682	0.797609	0.029678
C117	C	0.942016	1.130942	0.363011
C118	C	1.073900	0.464246	-0.303677
C119	C	1.407234	0.797579	0.029657
C120	C	1.740567	1.130913	0.362990
C121	C	1.143869	0.464225	-0.303708
C122	C	1.477202	0.797558	0.029625
C123	C	1.810535	1.130891	0.362959
C124	C	0.909773	0.212703	-0.303636
C125	C	1.243107	0.546037	0.029698
C126	C	1.576440	0.879370	0.363031
C127	C	0.909800	0.105489	-0.303649
C128	C	1.243134	0.438823	0.029684
C129	C	1.576467	0.772156	0.363017
C130	C	0.909768	1.018420	-0.303638
C131	C	1.243102	1.351753	0.029695
C132	C	1.576435	1.685086	0.363028
C133	C	0.909730	0.909187	-0.303618
C134	C	1.243063	1.242521	0.029715
C135	C	1.576396	1.575854	0.363048
C136	C	0.950088	0.402349	-1.037247
C137	C	1.283422	0.735682	-0.703914
C138	C	1.616755	1.069015	-0.370581
C139	C	0.950083	0.402372	-0.971505
C140	C	1.283417	0.735705	-0.638171
C141	C	1.616750	1.069039	-0.304838
C142	C	0.909806	0.464080	-0.938602
C143	C	1.243139	0.797413	-0.605269
C144	C	1.576473	1.130747	-0.271935
C145	C	0.869542	0.525787	-0.971447
C146	C	1.202875	0.859120	-0.638114
C147	C	1.536209	1.192454	-0.304780
C148	C	0.869553	0.525769	-1.037188
C149	C	1.202886	0.859102	-0.703855
C150	C	1.536219	1.192435	-0.370522
N151	N	0.854686	0.471526	-0.835355
N152	N	1.188019	0.804859	-0.502022
N153	N	1.521352	1.138192	-0.168689
N154	N	0.854678	0.471537	-0.772904
N155	N	1.188011	0.804871	-0.439570
N156	N	1.521344	1.138204	-0.106237
C157	C	0.909773	0.464140	-0.740527
C158	C	1.243106	0.797474	-0.407194
C159	C	1.576440	1.130807	-0.073860
N160	N	0.964878	0.456712	-0.772961
N161	N	1.298211	0.790046	-0.439628
N162	N	1.631545	1.123379	-0.106294
N163	N	0.964886	0.456696	-0.835418
N164	N	1.298219	0.790029	-0.502085
N165	N	1.631552	1.123362	-0.168752
C166	C	0.909790	0.464107	-0.867316
C167	C	1.243124	0.797441	-0.533983
C168	C	1.576457	1.130774	-0.200650
C169	C	0.950032	0.402468	-0.636404
C170	C	1.283366	0.735801	-0.303071
C171	C	1.616699	1.069134	0.030262
C172	C	0.950028	0.402498	-0.570660
C173	C	1.283362	0.735831	-0.237327
C174	C	1.616695	1.069164	0.096006
C175	C	0.869482	0.525907	-0.570604
C176	C	1.202815	0.859241	-0.237271
C177	C	1.536148	1.192574	0.096063
C178	C	0.869491	0.525882	-0.636347
C179	C	1.202824	0.859216	-0.303013
C180	C	1.536158	1.192549	0.030320
C181	C	0.909765	0.464157	-0.669243
C182	C	1.243099	0.797491	-0.335909
C183	C	1.576432	1.130824	-0.002576
C184	C	0.909717	0.464289	-0.140052
C185	C	1.243051	0.797622	0.193281
C186	C	1.576384	1.130955	0.526615
C187	C	0.909827	0.464043	-0.070084
C188	C	1.243160	0.797377	0.263249
C189	C	1.576494	1.130710	0.596582
H190	H	0.670094	0.576466	-0.376422
H191	H	1.003428	0.909799	-0.043089
H192	H	1.336761	1.243132	0.290245
H193	H	0.836766	0.576009	-1.063924
H194	H	1.170100	0.909343	-0.730591
H195	H	1.503433	1.242676	-0.397257
F196	F	0.141741	0.336709	-0.220750
F197	F	0.475075	0.670043	0.112583
F198	F	0.808408	1.003376	0.445917
F199	F	0.992886	0.336762	-0.671417
F200	F	1.326220	0.670096	-0.338084
F201	F	1.659553	1.003429	-0.004750
F202	F	0.542612	0.591864	-0.386518
F203	F	0.875945	0.925198	-0.053185
F204	F	1.209278	1.258531	0.280149
H205	H	0.982868	0.352129	-0.944763
H206	H	1.316202	0.685463	-0.611430
H207	H	1.649535	1.018796	-0.278097
H208	H	0.269257	0.576340	-0.376570
H209	H	0.602591	0.909673	-0.043236
H210	H	0.935924	1.243006	0.290097
H211	H	0.149993	0.576291	-0.376618
H212	H	0.483326	0.909624	-0.043285
H213	H	0.816660	1.242958	0.290048
F214	F	0.542579	0.336835	-0.220608
F215	F	0.875912	0.670168	0.112725
F216	F	1.209246	1.003501	0.446059
F217	F	0.992886	0.336835	-0.535713
F218	F	1.326219	0.670169	-0.202379
F219	F	1.659552	1.003502	0.130954
H220	H	0.670069	0.352306	-0.230611
H221	H	1.003402	0.685639	0.102722
H222	H	1.336735	1.018972	0.436056
H223	H	0.269228	0.352198	-0.230749
H224	H	0.602561	0.685531	0.102584
H225	H	0.935895	1.018864	0.435918
H226	H	0.982886	0.352092	-1.064027
H227	H	1.316219	0.685425	-0.730694
H228	H	1.649552	1.018758	-0.397361
F229	F	0.826678	0.591463	-0.936429
F230	F	1.160011	0.924797	-0.603095
F231	F	1.493345	1.258130	-0.269762
F232	F	0.826621	0.591591	-0.535591
F233	F	1.159954	0.924924	-0.202258
F234	F	1.493287	1.258258	0.131076
F235	F	0.826638	0.591545	-0.671296
F236	F	1.159971	0.924879	-0.337962
F237	F	1.493304	1.258212	-0.004629
