data_functionalizedCrystal
_audit_creation_method	'MofGen! by Chris Wilmer'
_symmetry_space_group_name_H-M	'P1'
_symmetry_Int_Tables_number	1
_symmetry_cell_setting	triclinic
loop_
_symmetry_equiv_pos_as_xyz
  x,y,z
_cell_length_a	16.109301
_cell_length_b	13.930277
_cell_length_c	16.109301
_cell_angle_alpha	89.996786
_cell_angle_beta	83.461481
_cell_angle_gamma	90.003874
loop_
_atom_site_label
_atom_site_type_symbol
_atom_site_fract_x
_atom_site_fract_y
_atom_site_fract_z
O1	O	1.103136	0.079773	0.106855
O2	O	0.861074	0.079789	0.120155
O3	O	0.988754	0.079771	-0.007526
O4	O	0.975455	0.079791	0.234536
O5	O	0.988736	-0.079891	-0.007506
O6	O	0.861055	-0.079873	0.120174
O7	O	1.103117	-0.079889	0.106875
Zn8	Zn	0.982083	-0.105231	0.113528
Zn9	Zn	0.982108	0.105131	0.113502
O10	O	0.975436	-0.079871	0.234556
C11	C	0.830090	-0.000040	0.119626
C12	C	0.737794	-0.000035	0.118011
C13	C	0.515522	-0.000040	0.190018
C14	C	0.428801	-0.000046	0.188494
C15	C	0.448676	-0.000055	0.037006
C16	C	0.535394	-0.000055	0.038530
C17	C	0.568815	-0.000043	0.115039
C18	C	0.395376	-0.000049	0.111990
C19	C	0.301350	-0.000055	0.110337
C20	C	0.662847	-0.000038	0.116693
N21	N	0.982072	-0.248797	0.113545
C22	C	1.032527	-0.701055	0.163928
C23	C	0.931714	-0.701046	0.063042
C24	C	0.931701	-0.600551	0.063055
C25	C	0.982103	-0.550302	0.113505
C26	C	1.032518	-0.600550	0.163941
C27	C	0.881294	-0.550296	0.012614
C28	C	0.881280	-0.449794	0.012625
C29	C	0.931678	-0.399544	0.063079
C30	C	0.982094	-0.449797	0.113518
C31	C	1.032496	-0.399549	0.163968
C32	C	1.082908	-0.449801	0.214411
C33	C	1.082916	-0.550300	0.214396
C34	C	0.931670	-0.299045	0.063095
C35	C	1.032487	-0.299044	0.163981
C36	C	1.134101	-0.000057	0.107404
C37	C	1.226397	-0.000057	0.109019
C38	C	0.988206	-0.000061	-0.038491
C39	C	0.986591	-0.000062	-0.130786
N40	N	0.982125	0.248697	0.113478
C41	C	1.058599	-0.000051	-0.353059
C42	C	1.057075	-0.000043	-0.439779
C43	C	0.905586	-0.000037	-0.419905
C44	C	0.907111	-0.000038	-0.333186
C45	C	0.983620	-0.000050	-0.299766
C46	C	0.980571	-0.000041	-0.473205
C47	C	0.978918	-0.000032	-0.567231
C48	C	0.985273	-0.000057	-0.205734
C49	C	0.975984	-0.000037	0.265521
C50	C	0.977600	-0.000030	0.357816
H51	H	0.542730	-0.000037	0.252317
H52	H	0.421454	-0.000071	-0.025285
H53	H	1.118130	-0.000042	-0.483168
H54	H	1.123960	-0.591223	0.255462
O55	O	1.081400	-0.250343	0.213108
C56	C	1.058321	-0.274903	0.297491
H57	H	1.026079	-0.347877	0.301040
H58	H	1.116516	-0.278342	0.331563
H59	H	1.013708	-0.218352	0.328103
O60	O	0.831322	0.000093	-0.452471
C61	C	0.825905	0.082794	-0.502028
H62	H	0.891441	0.110362	-0.523647
H63	H	0.792776	0.064195	-0.558803
H64	H	0.789117	0.140698	-0.463709
O65	O	0.587051	-0.000015	-0.034386
C66	C	0.538960	-0.000041	-0.102241
H67	H	0.474233	0.030190	-0.081131
H68	H	0.570973	0.046309	-0.154778
H69	H	0.532787	-0.076640	-0.125685
H70	H	0.846050	-0.000035	-0.289792
H71	H	0.385413	-0.000045	0.249550
H72	H	1.123949	-0.408875	0.255484
O73	O	1.081473	-0.750011	0.212849
C74	C	1.070659	-0.849491	0.202043
H75	H	1.046981	-0.863213	0.139062
H76	H	1.132972	-0.887675	0.204156
H77	H	1.023281	-0.878026	0.254173
O78	O	0.882779	-0.749999	0.014113
C79	C	0.893551	-0.849479	0.024956
H80	H	0.917193	-0.863193	0.087956
H81	H	0.831228	-0.887645	0.022826
H82	H	0.940940	-0.878040	-0.027145
O83	O	0.832231	-0.401133	-0.036391
C84	C	0.787765	-0.467036	-0.080937
H85	H	0.782914	-0.538686	-0.046533
H86	H	0.722388	-0.438014	-0.086108
H87	H	0.822035	-0.477698	-0.146191
H88	H	0.840267	-0.591215	-0.028466
O89	O	1.132844	-0.000095	-0.320455
C90	C	1.118116	-0.000072	-0.232486
H91	H	1.053229	-0.030302	-0.212099
H92	H	1.167068	-0.046425	-0.205874
H93	H	1.122142	0.076526	-0.208352
O94	O	0.882584	-0.250273	0.014196
C95	C	0.798194	-0.274872	0.037181
H96	H	0.790131	-0.302519	0.104222
H97	H	0.757289	-0.208786	0.032331
H98	H	0.778922	-0.333199	-0.006424
