data_functionalizedCrystal
_audit_creation_method	'MofGen! by Chris Wilmer'
_symmetry_space_group_name_H-M	'P1'
_symmetry_Int_Tables_number	1
_symmetry_cell_setting	triclinic
loop_
_symmetry_equiv_pos_as_xyz
  x,y,z
_cell_length_a	12.759401
_cell_length_b	19.805405
_cell_length_c	12.759393
_cell_angle_alpha	89.962322
_cell_angle_beta	89.980163
_cell_angle_gamma	90.027935
loop_
_atom_site_label
_atom_site_type_symbol
_atom_site_fract_x
_atom_site_fract_y
_atom_site_fract_z
Zn1	Zn	1.606169	-0.269395	-0.593976
Zn2	Zn	1.606028	-0.382600	-0.418277
Zn3	Zn	1.430472	-0.269434	-0.418311
Zn4	Zn	1.430424	-0.382551	-0.593915
O5	O	1.518273	-0.325995	-0.506120
O6	O	1.753172	-0.284417	-0.570681
O7	O	1.582701	-0.367625	-0.271261
O8	O	1.453857	-0.174712	-0.441653
O9	O	1.753068	-0.367588	-0.441596
O10	O	1.582942	-0.174684	-0.570713
O11	O	1.453720	-0.284482	-0.271285
O12	O	1.283444	-0.284434	-0.441594
O13	O	1.453777	-0.367504	-0.740944
O14	O	1.283409	-0.367541	-0.570609
O15	O	1.582896	-0.284369	-0.740989
O16	O	1.582655	-0.477310	-0.441536
O17	O	1.453639	-0.477274	-0.570576
C18	C	1.245306	-0.325987	-0.506099
C19	C	1.128529	-0.326000	-0.506115
C20	C	1.518155	-0.501851	-0.506069
C21	C	1.518201	-0.577083	-0.506082
C22	C	1.073677	-0.369339	-0.573187
C23	C	0.963953	-0.369342	-0.573208
C24	C	0.963943	-0.282663	-0.439075
C25	C	1.073666	-0.282658	-0.439060
C26	C	1.585444	-0.612424	-0.438962
C27	C	1.585489	-0.683112	-0.438985
C28	C	1.518284	-0.718459	-0.506124
C29	C	1.451037	-0.683113	-0.573252
C30	C	1.450999	-0.612426	-0.573234
C31	C	1.451192	-0.968186	-0.573330
C32	C	1.451234	-1.038878	-0.573342
C33	C	1.585682	-1.038872	-0.439081
C34	C	1.585644	-0.968185	-0.439063
C35	C	1.518402	-0.932846	-0.506194
C36	C	1.518355	-0.856198	-0.506170
C37	C	1.518324	-0.795106	-0.506144
C38	C	1.792307	-0.326004	-0.506141
C39	C	1.909083	-0.326008	-0.506150
C40	C	1.518347	-0.325927	-0.780153
C41	C	1.518378	-0.325897	-0.896930
C42	C	1.518421	-0.149452	-0.506194
C43	C	1.518483	-0.074220	-0.506225
C44	C	1.451242	-0.282597	-0.951804
C45	C	1.451266	-0.282576	-1.061528
C46	C	1.585572	-0.369158	-1.061494
C47	C	1.585541	-0.369182	-0.951772
C48	C	1.518261	-0.326014	-0.233152
C49	C	1.518433	-0.325853	-0.116376
H50	H	1.118344	-0.404629	-0.627790
H51	H	1.640255	-0.404398	-1.106160
F52	F	1.379800	-0.236497	-1.119925
H53	H	1.640166	-0.583649	-0.384284
H54	H	1.396439	-0.939418	-0.627989
F55	F	1.379518	-0.720733	-0.644713
F56	F	1.657253	-1.076489	-0.367638
H57	H	1.396244	-0.583652	-0.627892
H58	H	1.396509	-1.067656	-0.628022
F59	F	1.656997	-0.415273	-0.893367
H60	H	0.919260	-0.247377	-0.384480
H61	H	1.118328	-0.247361	-0.384442
F62	F	1.657062	-0.720721	-0.367549
F63	F	0.905579	-0.415468	-0.644598
F64	F	1.657171	-0.930571	-0.367603
H65	H	1.396553	-0.247352	-0.907155
