data_functionalizedCrystal
_audit_creation_method	'MofGen! by Chris Wilmer'
_symmetry_space_group_name_H-M	'P1'
_symmetry_Int_Tables_number	1
_symmetry_cell_setting	triclinic
loop_
_symmetry_equiv_pos_as_xyz
  x,y,z
_cell_length_a	10.654550
_cell_length_b	14.044220
_cell_length_c	9.730223
_cell_angle_alpha	89.997406
_cell_angle_beta	89.996251
_cell_angle_gamma	88.836890
loop_
_atom_site_label
_atom_site_type_symbol
_atom_site_fract_x
_atom_site_fract_y
_atom_site_fract_z
O1	O	1.681222	0.133227	-0.114408
O2	O	1.317019	0.145921	-0.114387
O3	O	1.493654	0.001554	-0.114384
O4	O	1.504587	0.277595	-0.114411
O5	O	1.493652	0.001557	0.114196
O6	O	1.317017	0.145925	0.114193
O7	O	1.681220	0.133231	0.114172
Zn8	Zn	1.499118	0.139578	0.150474
Zn9	Zn	1.499121	0.139574	-0.150689
O10	O	1.504585	0.277598	0.114169
C11	C	1.270127	0.144991	-0.000094
C12	C	1.130403	0.142202	-0.000085
C13	C	1.059459	0.227203	-0.000114
C14	C	0.928175	0.224578	-0.000137
C15	C	0.938790	0.051942	-0.000109
C16	C	1.070072	0.054569	-0.000076
C17	C	1.119790	0.314837	-0.000123
C18	C	1.048846	0.399845	-0.000153
C19	C	0.917561	0.397219	-0.000177
C20	C	0.857221	0.309585	-0.000170
C21	C	1.488867	-0.033790	-0.000093
C22	C	1.474592	-0.139110	-0.000090
C23	C	1.448493	-0.331943	-0.000108
C24	C	1.549741	-0.388911	-0.000119
C25	C	1.535219	-0.496210	-0.000129
C26	C	1.463013	-0.224634	-0.000098
C27	C	1.728113	0.134161	-0.000124
C28	C	1.867836	0.136950	-0.000142
C29	C	1.509372	0.312942	-0.000125
C30	C	1.523648	0.418262	-0.000137
N31	N	1.499126	0.139581	0.356011
N32	N	1.499123	0.139563	-0.356226
C33	C	1.577364	0.075677	0.427938
C34	C	1.577359	0.075666	0.571821
C35	C	1.420876	0.203470	0.571837
C36	C	1.420875	0.203477	0.427956
C37	C	1.655615	0.011782	0.355993
C38	C	1.733861	-0.052127	0.427920
C39	C	1.733856	-0.052138	0.571803
C40	C	1.655606	0.011759	0.643759
H41	H	0.750320	0.307454	-0.000168
H42	H	1.350913	-0.363754	-0.000106
C43	C	0.742253	-0.028735	-0.000166
C44	C	0.872466	-0.044380	-0.000121
H45	H	0.701312	-0.088202	-0.000186
H46	H	0.718542	0.006293	0.079532
H47	H	0.718597	0.006304	-0.079890
H48	H	0.896123	-0.079413	0.079609
H49	H	0.896187	-0.079423	-0.079828
H50	H	1.797557	-0.104181	0.630365
H51	H	1.127836	-0.014647	-0.000056
H52	H	1.357169	0.255494	0.630432
H53	H	1.647328	-0.357098	-0.000217
H54	H	1.097984	0.471193	-0.000147
H55	H	1.655629	0.011787	0.238836
C56	C	0.920262	0.568124	-0.000212
C57	C	0.839577	0.490656	-0.000208
H58	H	0.872117	0.625809	-0.000245
H59	H	0.971664	0.565564	0.079506
H60	H	0.971710	0.565543	-0.079917
H61	H	0.788135	0.493233	0.079502
H62	H	0.788153	0.493218	-0.079934
C63	C	1.803275	-0.108913	0.207354
C64	C	1.819811	-0.122400	0.348833
H65	H	1.856328	-0.152307	0.158534
H66	H	1.718242	-0.119767	0.183814
H67	H	1.824063	-0.045519	0.183762
H68	H	1.799015	-0.185793	0.372426
H69	H	1.904864	-0.111554	0.372382
C70	C	1.266213	0.329817	0.442412
C71	C	1.334883	0.273726	0.348883
H72	H	1.213129	0.373189	0.393592
H73	H	1.216586	0.290013	0.498529
H74	H	1.322357	0.364302	0.498532
H75	H	1.278738	0.239235	0.292770
H76	H	1.384513	0.313535	0.292742
H77	H	1.226688	0.316985	-0.000110
H78	H	1.655600	0.011737	0.760918
