data_functionalizedCrystal
_audit_creation_method	'MofGen! by Chris Wilmer'
_symmetry_space_group_name_H-M	'P1'
_symmetry_Int_Tables_number	1
_symmetry_cell_setting	triclinic
loop_
_symmetry_equiv_pos_as_xyz
  x,y,z
_cell_length_a	13.448316
_cell_length_b	14.971486
_cell_length_c	17.019234
_cell_angle_alpha	96.499792
_cell_angle_beta	86.112093
_cell_angle_gamma	90.001801
loop_
_atom_site_label
_atom_site_type_symbol
_atom_site_fract_x
_atom_site_fract_y
_atom_site_fract_z
O1	O	-0.091384	-1.186684	0.102802
O2	O	-0.092466	-0.926252	0.115113
O3	O	-0.082081	-1.063742	-0.005870
O4	O	-0.101769	-1.049194	0.223786
O5	O	0.083304	-1.063725	-0.005878
O6	O	0.072919	-0.926235	0.115106
O7	O	0.074001	-1.186666	0.102795
Cu8	Cu	0.088561	-1.056449	0.108950
Cu9	Cu	-0.107026	-1.056469	0.108958
O10	O	0.063616	-1.049176	0.223778
C11	C	-0.009730	-0.892920	0.114559
C12	C	-0.009598	-0.793627	0.112909
C13	C	0.003128	-1.063184	-0.035264
C14	C	0.010629	-1.061538	-0.122837
N15	N	0.226126	-1.056441	0.108943
N16	N	-0.244590	-1.056484	0.108959
C17	C	0.282762	-1.117340	0.055394
C18	C	0.386866	-1.117346	0.055393
C19	C	0.434330	-1.056456	0.108946
C20	C	0.377686	-0.995550	0.162498
C21	C	0.273585	-0.995541	0.162494
C22	C	0.594665	-0.995575	0.162503
C23	C	0.698773	-0.995585	0.162508
C24	C	0.707946	-1.117380	0.055402
C25	C	0.603845	-1.117371	0.055398
C26	C	0.547208	-1.056466	0.108951
C27	C	-0.008738	-1.219998	0.103349
C28	C	-0.008875	-1.319291	0.104999
C29	C	-0.015690	-0.736219	0.183983
C30	C	-0.015542	-0.642924	0.182428
C31	C	-0.009309	-0.607038	0.109798
C32	C	-0.003214	-0.664453	0.038719
C33	C	-0.003355	-0.757747	0.040274
C34	C	-0.002923	-0.469999	0.035481
C35	C	-0.002784	-0.376699	0.033925
C36	C	-0.015110	-0.355176	0.177635
C37	C	-0.015251	-0.448470	0.179191
C38	C	-0.009157	-0.505878	0.108111
C39	C	0.057529	-1.052147	-0.618127
C40	C	0.050486	-1.053703	-0.535843
C41	C	-0.043189	-1.054496	-0.494690
C42	C	-0.129826	-1.053726	-0.535823
C43	C	-0.122783	-1.052164	-0.618104
C44	C	-0.068965	-1.059206	-0.246252
C45	C	-0.076002	-1.060771	-0.163965
C46	C	0.104311	-1.060745	-0.163991
C47	C	0.111346	-1.059189	-0.246275
C48	C	0.024708	-1.058414	-0.287400
C49	C	-0.050389	-1.056089	-0.410583
C50	C	0.031910	-1.056815	-0.371505
C51	C	-0.021596	-1.049734	0.253172
C52	C	-0.029103	-1.051380	0.340746
H53	H	0.244124	-1.166928	0.011788
C54	C	0.212960	-1.058306	-0.291093
C55	C	0.200586	-1.056771	-0.371955
C56	C	0.294170	-1.055946	-0.413265
H57	H	0.248366	-1.006415	-0.271716
H58	H	0.249427	-1.110692	-0.283652
H59	H	0.164134	-1.004390	-0.379391
H60	H	0.165196	-1.108658	-0.391355
H61	H	0.330637	-1.108332	-0.405823
H62	H	0.329569	-1.004054	-0.393881
H63	H	0.285787	-1.054913	-0.468134
H64	H	-0.193327	-1.051534	-0.651588
C65	C	0.003839	-0.337853	-0.044985
C66	C	-0.077544	-0.367053	-0.087972
C67	C	-0.071470	-0.331294	-0.160670
H68	H	0.003004	-0.274072	-0.035837
H69	H	0.063999	-0.357586	-0.074296
H70	H	-0.137688	-0.347315	-0.058667
H71	H	-0.076724	-0.430829	-0.097140
H72	H	-0.011310	-0.351027	-0.189981
H73	H	-0.072303	-0.267514	-0.151514
H74	H	-0.126681	-0.351107	-0.189849
H75	H	0.108179	-1.056164	-0.405015
C76	C	-0.022215	-0.580744	0.259682
C77	C	-0.027735	-0.632139	0.323620
C78	C	-0.033895	-0.574890	0.394801
H79	H	0.035233	-0.543887	0.262175
H80	H	-0.080114	-0.543910	0.262106
H81	H	0.030158	-0.668957	0.321197
H82	H	-0.085182	-0.668994	0.321153
H83	H	-0.091794	-0.538057	0.397225
H84	H	0.023555	-0.538036	0.397286
H85	H	-0.037651	-0.609754	0.438191
H86	H	-0.126660	-1.056740	-0.377067
C87	C	0.198330	-1.061389	-0.119271
C88	C	0.198788	-0.985355	-0.063237
C89	C	0.285391	-0.985906	-0.022032
H90	H	0.199944	-1.114071	-0.093073
H91	H	0.255157	-1.060642	-0.155531
H92	H	0.141976	-0.986110	-0.026983
H93	H	0.197189	-0.932661	-0.089414
H94	H	0.342218	-0.985159	-0.058292
H95	H	0.286998	-1.038591	0.004161
H96	H	0.285718	-0.934314	0.015986
H97	H	0.432979	-1.166934	0.011789
H98	H	0.754066	-1.166970	0.011797
C99	C	0.552497	-1.183520	-0.002832
C100	C	0.624377	-1.236844	-0.049746
C101	C	0.577113	-1.297781	-0.103405
H102	H	0.509443	-1.220791	0.025509
H103	H	0.514742	-1.151409	-0.035761
H104	H	0.662116	-1.268953	-0.016821
H105	H	0.667435	-1.199598	-0.078103
H106	H	0.539358	-1.265670	-0.136333
H107	H	0.534060	-1.335045	-0.075057
H108	H	0.625877	-1.333963	-0.135247
C109	C	0.533343	-0.929412	0.220737
C110	C	0.597187	-0.876107	0.267655
C111	C	0.540732	-0.815163	0.321317
H112	H	0.495166	-0.892130	0.192399
H113	H	0.489924	-0.961518	0.253663
H114	H	0.640589	-0.844004	0.234733
H115	H	0.635364	-0.913364	0.296010
H116	H	0.497313	-0.847268	0.354243
H117	H	0.502558	-0.777887	0.292972
H118	H	0.584041	-0.778993	0.353162
C119	C	-0.231624	-1.054540	-0.491281
C120	C	-0.305985	-1.053509	-0.544910
C121	C	-0.399775	-1.054249	-0.503909
H122	H	-0.237741	-1.107272	-0.465153
H123	H	-0.238694	-1.002995	-0.453223
H124	H	-0.298919	-1.105049	-0.582955
H125	H	-0.299901	-1.000781	-0.571041
H126	H	-0.406845	-1.002704	-0.465850
H127	H	-0.405882	-1.106982	-0.477782
H128	H	-0.450240	-1.053542	-0.540289
C129	C	0.003346	-0.625442	-0.040115
C130	C	-0.081314	-0.572529	-0.045211
C131	C	-0.075315	-0.536590	-0.117826
H132	H	0.061268	-0.589435	-0.043789
H133	H	0.006903	-0.672971	-0.082246
H134	H	-0.084862	-0.525007	-0.003091
H135	H	-0.139248	-0.608517	-0.041551
H136	H	-0.071758	-0.584119	-0.159957
H137	H	-0.017391	-0.500586	-0.121494
H138	H	-0.132759	-0.500691	-0.121296
H139	H	0.002040	-0.516739	-0.022400
H140	H	-0.152287	-1.061416	-0.130460
H141	H	0.737413	-0.946001	0.206116
C142	C	-0.021874	-0.292748	0.254751
C143	C	-0.107224	-0.238539	0.258047
C144	C	-0.113488	-0.181009	0.329066
H145	H	-0.025669	-0.327372	0.298292
H146	H	0.035568	-0.255857	0.257142
H147	H	-0.164652	-0.275426	0.255663
H148	H	-0.103448	-0.203896	0.214522
H149	H	-0.056046	-0.144118	0.331457
H150	H	-0.117280	-0.215641	0.372602
H151	H	-0.171393	-0.144216	0.331309
H152	H	0.416337	-0.945967	0.206099
H153	H	0.133809	-1.051505	-0.651629
H154	H	-0.139512	-1.058583	-0.279727
H155	H	0.121031	-1.054341	-0.502362
H156	H	0.001605	-0.804488	-0.017602
H157	H	0.227471	-0.945949	0.206098
H158	H	-0.020335	-0.477684	0.238333
C159	C	-0.022663	-0.775226	0.262819
C160	C	-0.108206	-0.828132	0.267924
C161	C	-0.114668	-0.864065	0.340542
H162	H	0.034623	-0.811237	0.266491
H163	H	-0.026325	-0.727694	0.304947
H164	H	-0.104537	-0.875657	0.225807
H165	H	-0.165507	-0.792140	0.264266
H166	H	-0.118329	-0.816533	0.382671
H167	H	-0.057378	-0.900072	0.344208
H168	H	-0.172713	-0.899958	0.344019
