data_functionalizedCrystal
_audit_creation_method	'MofGen! by Chris Wilmer'
_symmetry_space_group_name_H-M	'P1'
_symmetry_Int_Tables_number	1
_symmetry_cell_setting	triclinic
loop_
_symmetry_equiv_pos_as_xyz
  x,y,z
_cell_length_a	8.497374
_cell_length_b	19.077068
_cell_length_c	19.077105
_cell_angle_alpha	89.884684
_cell_angle_beta	87.699981
_cell_angle_gamma	87.715976
loop_
_atom_site_label
_atom_site_type_symbol
_atom_site_fract_x
_atom_site_fract_y
_atom_site_fract_z
Zn1	Zn	1.016648	-0.323110	-1.062860
Zn2	Zn	0.762970	-0.440586	-1.058079
Zn3	Zn	0.741875	-0.318369	-0.945387
Zn4	Zn	1.015701	-0.435851	-0.940595
O5	O	0.884299	-0.379479	-1.001730
O6	O	0.992222	-0.342659	-1.160556
O7	O	0.539410	-0.424372	-1.043135
O8	O	0.769893	-0.220667	-0.964977
O9	O	0.805846	-0.428968	-1.157044
O10	O	0.971767	-0.224150	-1.051283
O11	O	0.523911	-0.334579	-0.960341
O12	O	0.768974	-0.329988	-0.846421
O13	O	1.236588	-0.420898	-0.956809
O14	O	0.970152	-0.416301	-0.842901
O15	O	1.237285	-0.338067	-1.046636
O16	O	0.804927	-0.538289	-1.038488
O17	O	0.990607	-0.534810	-0.952173
C18	C	0.899989	-0.562047	-0.994311
C19	C	0.906761	-0.640152	-0.991201
C20	C	0.867172	-0.372117	-0.819165
C21	C	0.859884	-0.368984	-0.741062
C22	C	0.813355	-0.678636	-1.034715
C23	C	0.819734	-0.752025	-1.031794
C24	C	0.919510	-0.786928	-0.985356
C25	C	1.012926	-0.748439	-0.941841
C26	C	1.006555	-0.675052	-0.944765
C27	C	0.948930	-1.006221	-0.971789
C28	C	0.955291	-1.079613	-0.968866
C29	C	0.762100	-1.083193	-1.058821
C30	C	0.755730	-1.009804	-1.061739
C31	C	0.849152	-0.971322	-1.018226
N32	N	0.926029	-0.861943	-0.982368
N33	N	0.842641	-0.896309	-1.021218
C34	C	1.295778	-0.379480	-1.001725
C35	C	1.474423	-0.379487	-1.001726
C36	C	0.901493	-0.386870	-1.185009
C37	C	0.908820	-0.390020	-1.263111
C38	C	0.868583	-0.196199	-1.009198
C39	C	0.861886	-0.118097	-1.012380
C40	C	0.961050	-0.412519	-0.702552
C41	C	0.954209	-0.409566	-0.629166
C42	C	0.846193	-0.363082	-0.594292
C43	C	0.745023	-0.319542	-0.632808
C44	C	0.751873	-0.322492	-0.706192
C45	C	0.814499	-0.349430	-0.375011
C46	C	0.807654	-0.346485	-0.301621
C47	C	1.016843	-0.436509	-0.297985
C48	C	1.023677	-0.439457	-0.371371
C49	C	0.922512	-0.395915	-0.409880
N50	N	0.839195	-0.360064	-0.519280
N51	N	0.929519	-0.398930	-0.484891
H52	H	0.743672	-0.783355	-1.067227
C53	C	0.645984	-0.971413	-1.112827
C54	C	0.543244	-1.013744	-1.160695
C55	C	0.433494	-0.975352	-1.211782
C56	C	0.426483	-0.894629	-1.215000
C57	C	0.529227	-0.852293	-1.167129
C58	C	0.638977	-0.890685	-1.116043
H59	H	0.548431	-1.073504	-1.158315
H60	H	0.357436	-1.006692	-1.247219
H61	H	0.345239	-0.866208	-1.252817
H62	H	0.524040	-0.792533	-1.169510
H63	H	0.715034	-0.859345	-1.080606
H64	H	1.036570	-1.108030	-0.931059
C65	C	1.051696	-0.963901	-0.923924
C66	C	1.032074	-0.970846	-0.843643
C67	C	1.134850	-0.928525	-0.795775
C68	C	1.257249	-0.879259	-0.828189
C69	C	1.276876	-0.872311	-0.908474
C70	C	1.174100	-0.914633	-0.956342
H71	H	0.941462	-1.007318	-0.819645
H72	H	1.120320	-0.933668	-0.736343
H73	H	1.333330	-0.847930	-0.792755
H74	H	1.367488	-0.835840	-0.932473
H75	H	1.188630	-0.909489	-1.015775
H76	H	1.111631	-0.477312	-0.399760
C77	C	0.703598	-0.640245	-1.085799
C78	C	0.524595	-0.650147	-1.079733
C79	C	0.414840	-0.611758	-1.130820
C80	C	0.484088	-0.563467	-1.187973
C81	C	0.663101	-0.553563	-1.194041
C82	C	0.772856	-0.591952	-1.142954
H83	H	0.473324	-0.685897	-1.037423
H84	H	0.282322	-0.619090	-1.126328
H85	H	0.402841	-0.535049	-1.225790
H86	H	0.714371	-0.517813	-1.236350
H87	H	0.905374	-0.584620	-1.147446
H88	H	1.082618	-0.643719	-0.909333
C89	C	0.659354	-1.125526	-1.106688
C90	C	0.536974	-1.174803	-1.074278
C91	C	0.434229	-1.217136	-1.122149
C92	C	0.453863	-1.210191	-1.202430
C93	C	0.576248	-1.160911	-1.234844
C94	C	0.678993	-1.118578	-1.186973
H95	H	0.522435	-1.179946	-1.014846
H96	H	0.343631	-1.253616	-1.098154
H97	H	0.377805	-1.241528	-1.237867
H98	H	0.590787	-1.155768	-1.294276
H99	H	0.769591	-1.082098	-1.210968
C100	C	0.703210	-0.301548	-0.417373
C101	C	0.586576	-0.333947	-0.466582
C102	C	0.475279	-0.286066	-0.508952
C103	C	0.480616	-0.205786	-0.502111
C104	C	0.597254	-0.173383	-0.452900
C105	C	0.708551	-0.221264	-0.410531
H106	H	0.582622	-0.393378	-0.471648
H107	H	0.388936	-0.310053	-0.545381
H108	H	0.398228	-0.170342	-0.533476
H109	H	0.601209	-0.113952	-0.447834
H110	H	0.794894	-0.197277	-0.374101
C111	C	1.079871	-0.463653	-0.740910
C112	C	1.072633	-0.543120	-0.727574
C113	C	1.191461	-0.594254	-0.765930
C114	C	1.317527	-0.565921	-0.817623
C115	C	1.324770	-0.486450	-0.830962
C116	C	1.205942	-0.435316	-0.792605
H117	H	0.979308	-0.564098	-0.689305
H118	H	1.186099	-0.653084	-0.756055
H119	H	1.405490	-0.603773	-0.846016
H120	H	1.418095	-0.465472	-0.869230
H121	H	1.211304	-0.376486	-0.802480
H122	H	0.669500	-0.287037	-0.737547
H123	H	1.036588	-0.445018	-0.597814
H124	H	1.094174	-0.776864	-0.904033
H125	H	1.099208	-0.471957	-0.266623
H126	H	0.719703	-0.308624	-0.273229
H127	H	0.657081	-0.281691	-0.604407
