data_functionalizedCrystal
_audit_creation_method	'MofGen! by Chris Wilmer'
_symmetry_space_group_name_H-M	'P1'
_symmetry_Int_Tables_number	1
_symmetry_cell_setting	triclinic
loop_
_symmetry_equiv_pos_as_xyz
  x,y,z
_cell_length_a	16.793024
_cell_length_b	16.793047
_cell_length_c	33.586455
_cell_angle_alpha	113.253857
_cell_angle_beta	66.219990
_cell_angle_gamma	112.758327
loop_
_atom_site_label
_atom_site_type_symbol
_atom_site_fract_x
_atom_site_fract_y
_atom_site_fract_z
O1	O	0.005016	-0.570216	-0.583573
O2	O	-0.034529	-0.474528	-0.453458
O3	O	0.114723	-0.474535	-0.528082
O4	O	-0.144235	-0.570209	-0.508949
O5	O	0.108729	-0.346329	-0.530229
O6	O	-0.040523	-0.346322	-0.455605
O7	O	-0.000977	-0.442010	-0.585721
Zn8	Zn	-0.021701	-0.373810	-0.521004
Zn9	Zn	-0.013805	-0.542728	-0.518175
O10	O	-0.150229	-0.442003	-0.511097
C11	C	0.005100	-0.790970	-0.238461
C12	C	0.009223	-0.693065	-0.217557
C13	C	0.003804	-0.645758	-0.241627
C14	C	-0.075059	-0.538459	-0.266316
C15	C	0.049838	-0.422849	-0.250165
C16	C	-0.040584	-0.395375	-0.435637
C17	C	-0.044693	-0.353446	-0.386631
C18	C	-0.039275	-0.401741	-0.363054
C19	C	-0.040566	-0.125547	-0.300731
C20	C	-0.044689	-0.223451	-0.321635
C21	C	-0.039266	-0.270752	-0.297563
C22	C	0.039597	-0.378051	-0.272874
C23	C	-0.085304	-0.493667	-0.289026
C24	C	0.005118	-0.521142	-0.103554
C25	C	0.009231	-0.563064	-0.152559
C26	C	0.003809	-0.514775	-0.176138
C27	C	0.010758	-0.652581	-0.172822
C28	C	0.001010	-0.556371	-0.220792
C29	C	-0.008251	-0.506059	-0.245823
C30	C	-0.046224	-0.263935	-0.366370
C31	C	-0.036476	-0.360146	-0.318399
C32	C	-0.027211	-0.410451	-0.293367
C33	C	0.815184	-0.521162	-0.508596
C34	C	0.415541	-0.125553	-0.528781
C35	C	0.375032	-0.223457	-0.531493
C36	C	0.423813	-0.270761	-0.529101
C37	C	0.149318	-0.395376	-0.530584
C38	C	0.246774	-0.353455	-0.532364
C39	C	0.294574	-0.401748	-0.529976
C40	C	0.548961	-0.790984	-0.510398
C41	C	0.286104	-0.263940	-0.532530
C42	C	0.383336	-0.360149	-0.528302
C43	C	0.432207	-0.407971	-0.525810
C44	C	0.392316	-0.497392	-0.524993
C45	C	0.303554	-0.538991	-0.526667
C46	C	0.254683	-0.491169	-0.529159
C47	C	0.263666	-0.628421	-0.525851
C48	C	0.312537	-0.676243	-0.523359
C49	C	0.401299	-0.634644	-0.521685
C50	C	0.441190	-0.545223	-0.522502
C51	C	0.529952	-0.503624	-0.520828
C52	C	0.578823	-0.551446	-0.518336
C53	C	0.538939	-0.640864	-0.517520
C54	C	0.450177	-0.682463	-0.519194
C55	C	0.587810	-0.688687	-0.515028
C56	C	0.676572	-0.647088	-0.513354
C57	C	0.716463	-0.557666	-0.514172
C58	C	0.667586	-0.509847	-0.516662
C59	C	0.569840	-0.414195	-0.521644
C60	C	0.658602	-0.372596	-0.519970
C61	C	0.707476	-0.420426	-0.517480
C62	C	0.698493	-0.283174	-0.520788
C63	C	0.649622	-0.235352	-0.523280
C64	C	0.560860	-0.276951	-0.524954
C65	C	0.520969	-0.366372	-0.524136
C66	C	0.511989	-0.229129	-0.527446
C67	C	-0.040530	-0.395407	-0.935652
C68	C	0.005063	-0.791004	-0.738448
C69	C	0.009186	-0.693099	-0.717543
C70	C	0.003779	-0.645796	-0.741620
C71	C	0.005077	-0.521171	-0.603544
C72	C	0.009198	-0.563096	-0.652550
C73	C	0.003786	-0.514804	-0.676131
C74	C	-0.040516	-0.125574	-0.800747
C75	C	0.010719	-0.652613	-0.672809
C76	C	0.000994	-0.556406	-0.720789
C77	C	-0.004621	-0.508585	-0.744908
C78	C	-0.007444	-0.419162	-0.724369
C79	C	-0.004651	-0.377560	-0.679711
C80	C	0.000964	-0.425381	-0.655592
C81	C	-0.007471	-0.288129	-0.659174
C82	C	-0.013086	-0.240308	-0.683293
C83	C	-0.015878	-0.281910	-0.727951
C84	C	-0.013056	-0.371333	-0.748490
C85	C	-0.015848	-0.412935	-0.793148
C86	C	-0.021463	-0.365114	-0.817267
C87	C	-0.024282	-0.275694	-0.796731
C88	C	-0.021490	-0.234092	-0.752073
C89	C	-0.029897	-0.227873	-0.820850
C90	C	-0.032690	-0.269476	-0.865508
C91	C	-0.029867	-0.358899	-0.886047
C92	C	-0.024255	-0.406717	-0.861925
C93	C	-0.013028	-0.502367	-0.813685
C94	C	-0.015821	-0.543969	-0.858343
C95	C	-0.021433	-0.496140	-0.882464
C96	C	-0.012998	-0.633392	-0.878882
C97	C	-0.007383	-0.681213	-0.854763
C98	C	-0.004591	-0.639611	-0.810105
C99	C	-0.007414	-0.550188	-0.789566
C100	C	0.001024	-0.687432	-0.785986
O101	O	-0.000965	0.173549	-0.277957
O102	O	-0.040516	-0.085616	-0.325254
O103	O	0.108737	0.059592	-0.327284
O104	O	-0.150219	0.028341	-0.275927
O105	O	0.114753	0.055151	-0.263265
O106	O	-0.034500	-0.090057	-0.261234
O107	O	0.005051	0.169108	-0.213937
Zn108	Zn	-0.013769	0.038820	-0.227421
Zn109	Zn	-0.021696	0.044672	-0.311770
O110	O	-0.144202	0.023900	-0.211907
O111	O	-0.034458	-0.474571	0.046517
O112	O	0.005076	-0.570190	-0.083599
O113	O	-0.144170	-0.570237	-0.008972
O114	O	0.114787	-0.474523	-0.028110
O115	O	-0.150200	-0.442024	-0.011093
O116	O	-0.000954	-0.441976	-0.085720
O117	O	-0.040488	-0.346357	0.044396
Zn118	Zn	-0.021679	-0.373810	-0.020999
Zn119	Zn	-0.013734	-0.542737	-0.018204
O120	O	0.108757	-0.346309	-0.030231
C121	C	-0.850734	0.086244	-0.289716
C122	C	-0.753280	0.087165	-0.312001
C123	C	-0.705462	0.081107	-0.288506
C124	C	-0.599592	0.000085	-0.264184
C125	C	-0.481080	0.121287	-0.283645
C126	C	-0.450996	0.035117	-0.097351
C127	C	-0.410501	0.028587	-0.146852
C128	C	-0.459292	0.034683	-0.169840
C129	C	-0.184802	0.024283	-0.235878
C130	C	-0.282257	0.023363	-0.213592
C131	C	-0.330068	0.029423	-0.237088
C132	C	-0.435938	0.110445	-0.261411
C133	C	-0.554456	-0.010759	-0.241948
C134	C	-0.584541	0.075410	-0.428242
C135	C	-0.625029	0.081943	-0.378743
C136	C	-0.576244	0.075844	-0.355753
C137	C	-0.713963	0.086424	-0.357292
C138	C	-0.616708	0.075351	-0.310510
C139	C	-0.565963	0.065400	-0.286043
C140	C	-0.321573	0.024104	-0.168302
C141	C	-0.418828	0.035176	-0.215083
C142	C	-0.469568	0.045131	-0.239552
O143	O	0.585213	0.169090	-0.504004
O144	O	0.494056	-0.090076	-0.525516
O145	O	0.488081	0.055124	-0.449918
O146	O	0.591189	0.023889	-0.579602
O147	O	0.359978	0.059584	-0.452885
O148	O	0.365953	-0.085616	-0.528483
O149	O	0.457110	0.173550	-0.506971
Zn150	Zn	0.391193	0.044675	-0.518198
Zn151	Zn	0.559974	0.038798	-0.514289
O152	O	0.463086	0.028349	-0.582569
C153	C	0.815354	-0.521094	-0.008709
C154	C	0.717898	-0.563028	-0.006927
C155	C	0.670072	-0.514739	-0.009298
C156	C	0.564182	-0.463204	-0.048354
C157	C	0.445681	-0.498945	0.013847
C158	C	0.415547	-0.125494	-0.028771
C159	C	0.375059	-0.223405	-0.031498
C160	C	0.423859	-0.270708	-0.029121
C161	C	0.149365	-0.395355	-0.030599
C162	C	0.246820	-0.353421	-0.032381
C163	C	0.294640	-0.401713	-0.030008
C164	C	0.400530	-0.453248	0.009048
C165	C	0.519038	-0.417504	-0.053155
C166	C	0.549171	-0.790955	-0.010537
C167	C	0.589653	-0.693047	-0.007809
C168	C	0.540859	-0.645741	-0.010187
C169	C	0.678588	-0.652551	-0.006775
C170	C	0.581317	-0.556344	-0.010973
C171	C	0.530562	-0.506029	-0.015250
C172	C	0.286131	-0.263897	-0.032533
C173	C	0.383402	-0.360104	-0.028335
C174	C	0.434150	-0.410423	-0.024057
O175	O	-0.620614	0.089309	0.052274
O176	O	-0.529507	0.043784	-0.078544
O177	O	-0.523494	0.194833	-0.006033
O178	O	-0.626628	-0.061740	-0.020236
O179	O	-0.395386	0.185419	-0.005549
O180	O	-0.401400	0.034370	-0.078059
O181	O	-0.492507	0.079895	0.052758
Zn182	Zn	-0.426614	0.055638	-0.012574
Zn183	Zn	-0.595401	0.068041	-0.013212
O184	O	-0.498521	-0.071154	-0.019752
C185	C	-0.437537	0.048335	0.402491
C186	C	-0.397043	0.041789	0.352989
C187	C	-0.445822	0.047883	0.329994
C188	C	-0.496646	0.126653	0.277022
C189	C	-0.465894	-0.000633	0.218811
C190	C	-0.837226	0.099430	0.210091
C191	C	-0.739773	0.100339	0.187806
C192	C	-0.691967	0.094287	0.211308
C193	C	-0.571027	0.088563	0.071568
C194	C	-0.611521	0.095108	0.121070
C195	C	-0.562739	0.089011	0.144061
C196	C	-0.511915	0.010241	0.197033
C197	C	-0.542670	0.137531	0.255247
C198	C	-0.171338	0.037467	0.263967
C199	C	-0.268788	0.036555	0.286249
C200	C	-0.316597	0.042611	0.262750
C201	C	-0.308112	0.037305	0.331542
C202	C	-0.405351	0.048369	0.284750
C203	C	-0.456092	0.058317	0.260279
C204	C	-0.700452	0.099593	0.142516
C205	C	-0.603213	0.088528	0.189308
C206	C	-0.552469	0.078578	0.213776
O207	O	-0.040608	-1.085661	-0.825229
O208	O	-0.001018	-0.826491	-0.777938
O209	O	-0.150287	-0.971682	-0.775894
O210	O	0.108661	-0.940470	-0.827272
O211	O	-0.144253	-0.976123	-0.711878
O212	O	0.005016	-0.830932	-0.713922
O213	O	-0.034575	-1.090102	-0.761213
Zn214	Zn	-0.013821	-0.961222	-0.727403
Zn215	Zn	-0.021771	-0.955371	-0.811747
O216	O	0.114695	-0.944911	-0.763256
N217	N	-0.036408	-0.225917	-0.249165
H218	H	-0.093044	-0.205571	-0.229953
H219	H	-0.032473	-0.270126	-0.237035
N220	N	0.561222	-0.372950	-0.090861
H221	H	0.521209	-0.399081	-0.111277
H222	H	0.568100	-0.306065	-0.077422
H223	H	0.496488	-0.236853	-0.027824
N224	N	0.444659	-0.690579	-0.011911
H225	H	0.426633	-0.754775	-0.011033
H226	H	0.403123	-0.656692	0.015007
N227	N	-0.438894	0.195583	-0.306477
H228	H	-0.380038	0.186852	-0.330291
H229	H	-0.481509	0.193899	-0.321274
N230	N	-0.004318	-0.778060	-0.877002
H231	H	-0.057611	-0.817669	-0.859281
H232	H	-0.006918	-0.797162	-0.909084
H233	H	-0.489994	0.175891	0.311254
N234	N	-0.024359	-0.137187	-0.729859
H235	H	-0.021663	-0.117990	-0.697787
H236	H	0.029006	-0.097775	-0.747658
H237	H	-0.434254	-0.059305	0.203012
H238	H	0.182115	-0.525189	-0.530531
N239	N	0.692830	-0.138506	-0.524165
H240	H	0.693839	-0.132405	-0.553113
H241	H	0.656837	-0.098950	-0.497235
H242	H	-0.365918	0.157102	-0.260160
H243	H	0.544602	-0.156012	-0.528109
H244	H	0.245737	-0.223998	-0.033572
H245	H	-0.574318	0.196197	0.271049
H246	H	-0.047834	-0.232081	-0.882358
N247	N	0.721882	-0.696622	-0.503662
H248	H	0.777464	-0.707170	-0.529886
H249	H	0.739935	-0.659427	-0.475050
H250	H	0.279916	-0.749353	-0.522691
N251	N	0.656938	-0.469021	-0.080514
H252	H	0.702216	-0.441368	-0.062823
H253	H	0.655883	-0.534236	-0.096962
H254	H	-0.037138	-0.474881	-0.380005
N255	N	-0.542017	0.053954	0.353713
H256	H	-0.583622	0.001254	0.337366
H257	H	-0.559970	0.052717	0.386053
H258	H	-0.740818	0.102779	0.123104
N259	N	0.014189	-0.705474	-0.646419
H260	H	0.014894	-0.768833	-0.666277
H261	H	0.070702	-0.675459	-0.636441
H262	H	-0.283673	0.042875	0.225734
N263	N	-0.749071	0.080738	-0.239477
H264	H	-0.704679	0.075969	-0.227855
H265	H	-0.767393	0.138371	-0.220823
N266	N	-0.692340	-0.061719	-0.265856
H267	H	-0.710197	-0.106817	-0.248797
H268	H	-0.737557	-0.025049	-0.251426
N269	N	0.103815	-0.287101	-0.276638
H270	H	0.167527	-0.293054	-0.292625
H271	H	0.086410	-0.263561	-0.294506
N272	N	0.004086	-0.784278	-0.808233
H273	H	0.062062	-0.790377	-0.808775
H274	H	-0.049248	-0.823835	-0.790501
H275	H	-0.490116	0.084434	0.126151
H276	H	0.107243	-0.392097	-0.234140
H277	H	0.780052	-0.386407	-0.516111
H278	H	0.001650	-0.679613	-0.278166
N279	N	0.732066	-0.705431	-0.005399
H280	H	0.787141	-0.707543	-0.032892
H281	H	0.751677	-0.675396	0.023041
N282	N	0.794629	-0.238129	-0.518981
H283	H	0.812558	-0.173962	-0.519881
H284	H	0.799315	-0.238429	-0.489994
H285	H	-0.518563	-0.039000	0.162804
H286	H	-0.297145	0.029698	-0.274103
H287	H	-0.267732	0.034117	0.350946
N288	N	-0.480036	0.069813	-0.379472
H289	H	-0.455097	0.065833	-0.357728
H290	H	-0.478726	0.014420	-0.406422
N291	N	0.713663	-0.417851	-0.010060
H292	H	0.731985	-0.380978	0.018505
H293	H	0.768916	-0.414335	-0.037376
H294	H	0.001660	-0.441639	-0.159184
H295	H	-0.142704	-0.524425	-0.305055
H296	H	-0.005182	-0.254109	-0.622664
H297	H	-0.586315	-0.066836	-0.224702
N298	N	-0.016019	-0.678453	-0.927248
H299	H	-0.073993	-0.678217	-0.929624
H300	H	0.037317	-0.644682	-0.947859
N301	N	-0.735565	0.093943	0.260341
H302	H	-0.799432	0.098559	0.270620
H303	H	-0.736665	0.036151	0.263521
H304	H	0.013390	-0.692483	-0.152899
H305	H	-0.531920	0.039247	-0.151930
N306	N	-0.139289	-0.629388	-0.262510
H307	H	-0.202990	-0.623409	-0.246511
H308	H	-0.135896	-0.672698	-0.293863
N309	N	-0.049722	-0.211074	-0.392752
H310	H	-0.050566	-0.147757	-0.372868
H311	H	0.005237	-0.209020	-0.420275
H312	H	-0.281187	0.020914	-0.148901
H313	H	0.245727	-0.224039	-0.533582
H314	H	0.417564	-0.755580	-0.518528
N315	N	0.167542	-0.673470	-0.527667
H316	H	0.149617	-0.737639	-0.526769
H317	H	0.125877	-0.639658	-0.500794
H318	H	-0.754334	0.089615	-0.376700
N319	N	0.003999	-0.380324	-0.607230
H320	H	0.001352	-0.316154	-0.597841
H321	H	-0.049300	-0.414133	-0.586623
H322	H	-0.015393	-0.167196	-0.666497
H323	H	-0.023718	-0.530163	-0.918978
H324	H	0.261721	-0.474856	-0.029430
N325	N	0.307782	-0.447422	0.041208
H326	H	0.289938	-0.481071	0.063990
H327	H	0.308838	-0.382199	0.057628
H328	H	0.413839	-0.532573	0.042316
