data_functionalizedCrystal
_audit_creation_method	'MofGen! by Chris Wilmer'
_symmetry_space_group_name_H-M	'P1'
_symmetry_Int_Tables_number	1
_symmetry_cell_setting	triclinic
loop_
_symmetry_equiv_pos_as_xyz
  x,y,z
_cell_length_a	11.169416
_cell_length_b	18.101398
_cell_length_c	11.169409
_cell_angle_alpha	90.031820
_cell_angle_beta	89.968693
_cell_angle_gamma	89.997879
loop_
_atom_site_label
_atom_site_type_symbol
_atom_site_fract_x
_atom_site_fract_y
_atom_site_fract_z
Zn1	Zn	-0.477968	-1.132265	-0.678911
Zn2	Zn	-0.678708	-1.132195	-0.478231
Zn3	Zn	-0.478009	-1.008413	-0.478206
Zn4	Zn	-0.678579	-1.008420	-0.678837
O5	O	-0.578316	-1.070323	-0.578546
O6	O	-0.504633	-1.235889	-0.652332
O7	O	-0.652156	-1.115744	-0.310278
O8	O	-0.310054	-1.024869	-0.504851
O9	O	-0.652116	-1.235837	-0.504894
O10	O	-0.310023	-1.115862	-0.652308
O11	O	-0.504704	-1.024801	-0.310260
O12	O	-0.504579	-0.904781	-0.504779
O13	O	-0.651896	-1.024880	-0.846797
O14	O	-0.651937	-0.904786	-0.652181
O15	O	-0.504508	-1.115868	-0.846851
O16	O	-0.846640	-1.115750	-0.504822
O17	O	-0.846546	-1.024813	-0.652206
C18	C	-0.578249	-0.877913	-0.578470
C19	C	-0.578250	-0.795599	-0.578465
C20	C	-0.890141	-1.070295	-0.578535
C21	C	-1.023541	-1.070350	-0.578570
C22	C	-0.578297	-0.496508	-0.578544
C23	C	-0.485123	-0.527805	-0.486257
C24	C	-0.485381	-0.613423	-0.485870
C25	C	-0.578272	-0.644890	-0.578505
C26	C	-0.704702	-0.613799	-0.543957
C27	C	-0.704176	-0.528154	-0.543309
C28	C	-0.546143	-0.528122	-0.705599
C29	C	-0.543336	-0.613772	-0.704912
C30	C	-0.578266	-0.728750	-0.578485
C31	C	-0.578311	-0.412648	-0.578562
C32	C	-0.265274	-1.070372	-0.578585
C33	C	-0.131874	-1.070393	-0.578601
C34	C	-0.578183	-1.070383	-0.891589
C35	C	-0.578126	-1.070408	-1.024989
C36	C	-0.578360	-0.263485	-0.578606
C37	C	-0.578319	-0.345799	-0.578584
C38	C	-0.578362	-1.070307	-0.266722
C39	C	-0.578080	-1.070425	-0.133322
H40	H	-0.391628	-0.634444	-0.507524
H41	H	-0.506642	-0.633877	-0.391726
O42	O	-0.789615	-0.638210	-0.621709
C43	C	-0.735808	-0.683852	-0.708776
H44	H	-0.648516	-0.707249	-0.671976
H45	H	-0.799038	-0.731151	-0.732085
H46	H	-0.716364	-0.650064	-0.792669
H47	H	-0.391080	-0.507215	-0.507670
H48	H	-0.731443	-0.508143	-0.450426
H49	H	-0.614008	-0.507884	-0.774362
O50	O	-0.510452	-0.502114	-0.374643
C51	C	-0.611972	-0.455925	-0.379602
H52	H	-0.667246	-0.470228	-0.462194
H53	H	-0.668605	-0.464420	-0.295791
H54	H	-0.582159	-0.395779	-0.384829
H55	H	-0.775950	-0.507451	-0.607596
H56	H	-0.732445	-0.635215	-0.452081
H57	H	-0.455550	-0.506531	-0.737009
H58	H	-0.450297	-0.634096	-0.730962
H59	H	-0.606256	-0.635195	-0.777360
