data_functionalizedCrystal
_audit_creation_method	'MofGen! by Chris Wilmer'
_symmetry_space_group_name_H-M	'P1'
_symmetry_Int_Tables_number	1
_symmetry_cell_setting	triclinic
loop_
_symmetry_equiv_pos_as_xyz
  x,y,z
_cell_length_a	10.489741
_cell_length_b	8.965430
_cell_length_c	10.489741
_cell_angle_alpha	89.999293
_cell_angle_beta	84.539174
_cell_angle_gamma	90.001157
loop_
_atom_site_label
_atom_site_type_symbol
_atom_site_fract_x
_atom_site_fract_y
_atom_site_fract_z
O1	O	1.694053	0.123946	0.179958
O2	O	1.322858	0.123969	0.196851
O3	O	1.516902	0.123948	0.002807
O4	O	1.500009	0.123967	0.374003
O5	O	1.516886	-0.124130	0.002820
O6	O	1.322841	-0.124110	0.196864
O7	O	1.694037	-0.124133	0.179971
Cu8	Cu	1.508438	-0.146773	0.188419
Cu9	Cu	1.508457	0.146609	0.188404
O10	O	1.499993	-0.124112	0.374016
C11	C	1.275318	-0.000067	0.195582
C12	C	1.133688	-0.000059	0.191765
C13	C	1.065548	-0.000079	0.068300
C14	C	0.973430	0.122237	0.126617
C15	C	0.973447	-0.122349	0.126659
C16	C	1.043435	0.122358	0.250133
C17	C	1.043462	-0.122338	0.250158
C18	C	0.951371	0.000007	0.308564
N19	N	1.508433	-0.353122	0.188429
C20	C	1.418666	-0.450418	0.278138
C21	C	1.534163	-0.549838	0.303949
C22	C	1.392986	-0.549830	0.162629
C23	C	1.623988	-0.450352	0.214298
C24	C	1.482735	-0.450336	0.072927
C25	C	1.598314	-0.549711	0.098690
C26	C	1.741577	-0.000093	0.181241
C27	C	1.883206	-0.000092	0.185058
C28	C	1.515618	-0.000090	-0.044718
C29	C	1.511801	-0.000087	-0.186348
N30	N	1.508471	0.352958	0.188384
C31	C	1.388336	-0.000069	-0.254488
C32	C	1.446652	-0.122388	-0.346604
C33	C	1.446697	0.122198	-0.346591
C34	C	1.570167	-0.122508	-0.276599
C35	C	1.570195	0.122189	-0.276576
C36	C	1.628600	-0.000161	-0.368665
C37	C	1.501277	-0.000070	0.421541
C38	C	1.505094	-0.000063	0.563170
H39	H	1.074502	-0.225749	0.302361
N40	N	0.932396	-0.259327	0.057450
H41	H	0.974338	-0.259215	-0.033303
H42	H	0.959103	-0.351633	0.103273
N43	N	1.263639	-0.607700	0.133747
H44	H	1.243513	-0.569951	0.047184
H45	H	1.264935	-0.720339	0.133191
N46	N	1.318193	-0.392672	0.378707
H47	H	1.337791	-0.428874	0.465908
H48	H	1.318372	-0.280032	0.377361
H49	H	1.555925	-0.593543	0.401606
N50	N	0.932334	0.259204	0.057422
H51	H	0.959025	0.351591	0.103149
H52	H	0.974274	0.258978	-0.033327
N53	N	1.253876	-0.000204	-0.188717
H54	H	1.207401	-0.092685	-0.214007
H55	H	1.257508	0.000797	-0.092854
N56	N	1.753370	-0.392734	0.243325
H57	H	1.752546	-0.280084	0.243200
H58	H	1.772928	-0.429915	0.330239
N59	N	1.639337	0.259170	-0.235451
H60	H	1.642126	0.257623	-0.139481
H61	H	1.729543	0.260071	-0.278762
H62	H	1.460937	-0.406596	-0.024699
H63	H	1.674327	-0.593034	0.022803
N64	N	0.885888	0.000107	0.443141
H65	H	0.789979	-0.000775	0.439829
H66	H	0.912579	-0.091382	0.490095
H67	H	1.394404	-0.225794	-0.377610
N68	N	1.131337	0.000057	-0.066153
H69	H	1.104817	-0.091384	-0.113287
H70	H	1.106029	0.092595	-0.112529
H71	H	1.622355	-0.226035	-0.245761
N72	N	1.763176	-0.000240	-0.434150
H73	H	1.826595	-0.001162	-0.367491
H74	H	1.776144	-0.091774	-0.489999
H75	H	1.394447	0.225620	-0.377561
H76	H	1.074270	0.225883	0.302327
