data_functionalizedCrystal
_audit_creation_method	'MofGen! by Chris Wilmer'
_symmetry_space_group_name_H-M	'P1'
_symmetry_Int_Tables_number	1
_symmetry_cell_setting	triclinic
loop_
_symmetry_equiv_pos_as_xyz
  x,y,z
_cell_length_a	15.944545
_cell_length_b	15.944551
_cell_length_c	9.482900
_cell_angle_alpha	99.334197
_cell_angle_beta	80.712793
_cell_angle_gamma	83.497455
loop_
_atom_site_label
_atom_site_type_symbol
_atom_site_fract_x
_atom_site_fract_y
_atom_site_fract_z
O1	O	1.127608	0.095166	-0.120803
O2	O	0.883061	0.108525	-0.120827
O3	O	1.012011	-0.020428	-0.120801
O4	O	0.998658	0.224119	-0.120828
O5	O	0.985818	0.005870	0.120986
O6	O	0.856868	0.134823	0.120961
O7	O	1.101416	0.121464	0.120985
Cu8	Cu	0.976750	0.130545	0.143050
Cu9	Cu	1.007726	0.099444	-0.142892
O10	O	0.972465	0.250417	0.120959
C11	C	0.838671	0.121120	0.000064
C12	C	0.745425	0.119459	0.000055
C13	C	0.998360	-0.038573	0.000093
C14	C	0.996698	-0.131819	0.000094
C15	C	0.474790	0.034568	0.000080
C16	C	0.512457	0.088463	0.119293
C17	C	0.409779	0.113541	0.000081
C18	C	0.538262	0.062556	-0.119090
C19	C	0.574694	0.116444	0.000066
C20	C	0.446207	0.167426	0.119392
C21	C	0.472020	0.141496	-0.119098
C22	C	0.509651	0.195452	0.000144
C23	C	0.314775	0.111866	0.000091
C24	C	0.669693	0.118126	0.000067
C25	C	0.912796	-0.346677	0.000065
C26	C	0.938844	-0.394728	0.119285
C27	C	0.993692	-0.302546	0.000082
C28	C	0.964687	-0.420639	-0.119098
C29	C	0.990783	-0.467461	0.000065
C30	C	1.019751	-0.349358	0.119400
C31	C	1.045594	-0.375275	-0.119090
C32	C	1.071697	-0.423305	0.000158
C33	C	0.995365	-0.207542	0.000093
C34	C	0.989115	-0.562462	0.000064
C35	C	1.145806	0.108869	0.000091
C36	C	1.239052	0.110529	0.000090
C37	C	0.986116	0.268561	0.000062
C38	C	0.987780	0.361806	0.000052
N39	N	0.954969	0.152419	0.344166
N40	N	1.029513	0.077563	-0.344007
C41	C	1.001296	0.105891	0.416374
C42	C	0.983180	0.124098	0.583788
H43	H	0.459123	-0.033431	0.000204
O44	O	1.160733	-0.467161	0.000260
H45	H	1.205103	-0.458783	-0.097772
O46	O	1.099820	0.006937	0.573729
H47	H	1.085786	-0.055345	0.602867
O48	O	1.071576	0.035252	0.334086
H49	H	1.119987	0.062987	0.264708
O50	O	0.591038	0.003825	-0.252556
H51	H	0.660295	0.006054	-0.251833
H52	H	0.530469	0.066074	0.220085
O53	O	0.448129	0.171120	-0.252604
H54	H	0.378462	0.170208	-0.250788
O55	O	0.823842	-0.302527	0.000203
H56	H	0.779725	-0.309795	0.099315
O57	O	0.912885	0.194730	0.666068
H58	H	0.926923	0.257008	0.636917
H59	H	0.406468	0.211727	0.220285
O60	O	0.884667	0.223044	0.426430
H61	H	0.881476	0.226266	0.545014
H62	H	0.893710	-0.403873	0.220069
H63	H	1.090700	-0.366108	-0.219879
O64	O	0.530181	0.285614	0.000217
H65	H	0.492684	0.328962	0.099268
H66	H	1.043008	-0.318394	0.220302
O67	O	0.933819	-0.461770	-0.252610
H68	H	0.867854	-0.430738	-0.252355
