data_functionalizedCrystal
_audit_creation_method	'MofGen! by Chris Wilmer'
_symmetry_space_group_name_H-M	'P1'
_symmetry_Int_Tables_number	1
_symmetry_cell_setting	triclinic
loop_
_symmetry_equiv_pos_as_xyz
  x,y,z
_cell_length_a	14.971486
_cell_length_b	19.188930
_cell_length_c	18.266242
_cell_angle_alpha	89.990449
_cell_angle_beta	89.999167
_cell_angle_gamma	83.379455
loop_
_atom_site_label
_atom_site_type_symbol
_atom_site_fract_x
_atom_site_fract_y
_atom_site_fract_z
O1	O	1.186466	0.090986	-0.060805
O2	O	0.926008	0.101882	-0.060826
O3	O	1.063753	-0.005198	-0.060801
O4	O	1.048721	0.198065	-0.060831
O5	O	1.063738	-0.005200	0.060961
O6	O	0.925993	0.101879	0.060936
O7	O	1.186450	0.090984	0.060957
Zn8	Zn	1.056219	0.096431	0.080279
Zn9	Zn	1.056239	0.096434	-0.080148
O10	O	1.048705	0.198063	0.060931
C11	C	0.892678	0.101393	0.000052
C12	C	0.793389	0.099933	0.000045
C13	C	1.063259	-0.031211	0.000082
C14	C	1.061797	-0.108721	0.000088
C15	C	0.735831	0.162839	0.000037
C16	C	0.642539	0.161463	0.000048
C17	C	0.606806	0.097180	0.000062
C18	C	0.664371	0.034269	0.000072
C19	C	0.757662	0.035646	0.000066
C20	C	0.469924	0.031403	0.000083
C21	C	0.376627	0.030026	0.000087
C22	C	0.354801	0.157221	0.000064
C23	C	0.448092	0.158598	0.000058
C24	C	0.505650	0.095686	0.000067
C25	C	1.142622	-0.153384	0.000098
C26	C	1.141249	-0.226213	0.000087
C27	C	1.059047	-0.254374	0.000079
C28	C	0.978212	-0.209700	0.000065
C29	C	0.979587	-0.136873	0.000070
N30	N	0.996208	-0.362582	0.041512
N31	N	0.994908	-0.431765	0.041510
C32	C	1.054899	-0.473796	0.000064
N33	N	1.116254	-0.444032	-0.041369
N34	N	1.117557	-0.374843	-0.041363
C35	C	1.057547	-0.333341	0.000074
C36	C	1.134240	-0.597429	0.000060
C37	C	1.132864	-0.670258	0.000044
C38	C	0.969825	-0.653744	0.000030
C39	C	0.971203	-0.580916	0.000039
C40	C	1.053413	-0.552763	0.000058
C41	C	1.219780	0.091472	0.000077
C42	C	1.319070	0.092932	0.000079
C43	C	1.049200	0.224077	0.000047
C44	C	1.050661	0.301586	0.000036
N45	N	1.056212	0.096429	0.189765
C46	C	1.117245	0.049031	0.772054
C47	C	1.117247	0.049032	0.695409
C48	C	1.056238	0.096429	0.657078
C49	C	0.995238	0.143840	0.695398
C50	C	0.995244	0.143842	0.772042
N51	N	0.977052	0.105222	0.536744
N52	N	0.977049	0.105216	0.463936
C53	C	1.056216	0.096427	0.426156
N54	N	1.135390	0.087631	0.463934
N55	N	1.135392	0.087633	0.536748
C56	C	1.056224	0.096433	0.573971
C57	C	1.117218	0.049024	0.304737
C58	C	1.117221	0.049031	0.228091
C59	C	0.995204	0.143835	0.228082
C60	C	0.995209	0.143832	0.304727
C61	C	1.056215	0.096423	0.343050
N62	N	1.056250	0.096433	0.810365
H63	H	0.764917	0.215186	0.000025
H64	H	1.198683	-0.706623	0.000048
H65	H	0.902894	-0.676672	0.000021
N66	N	0.532001	-0.036453	0.000091
H67	H	0.571191	-0.038715	-0.045048
H68	H	0.571139	-0.038678	0.045256
H69	H	1.209564	-0.130467	0.000111
N70	N	0.889548	-0.240065	0.000066
H71	H	0.854155	-0.223775	-0.045074
H72	H	0.901011	-0.292973	0.000096
H73	H	1.207068	-0.262585	0.000092
N74	N	0.929401	0.194951	0.186742
H75	H	0.865955	0.186829	0.200085
H76	H	0.939583	0.244497	0.200083
H77	H	0.945538	0.182428	0.335922
N78	N	0.892409	-0.088695	0.000058
H79	H	0.840124	-0.117582	0.000050
H80	H	0.889423	-0.058130	0.045200
N81	N	0.819743	-0.032204	0.000069
H82	H	0.884264	-0.021578	0.000066
H83	H	0.808205	-0.060215	0.045214
H84	H	1.201180	-0.574506	0.000072
N85	N	0.884028	-0.532737	0.000033
H86	H	0.831743	-0.561626	0.000027
H87	H	0.881042	-0.502171	0.045173
H88	H	0.307932	0.208445	0.000060
H89	H	0.595679	0.212688	0.000040
N90	N	1.183071	-0.002078	0.813388
H91	H	1.221721	-0.032099	0.777483
H92	H	1.222499	0.024726	0.845165
N93	N	1.183037	-0.002095	0.654075
H94	H	1.221685	-0.032126	0.689983
H95	H	1.148907	-0.033001	0.622285
H96	H	0.347537	-0.022319	0.000100
N97	N	0.929437	0.194963	0.654061
H98	H	0.938686	0.187768	0.599694
H99	H	0.866020	0.186819	0.667466
H100	H	0.477182	0.210943	0.000040
H101	H	0.945574	0.182443	0.803235
H102	H	0.635271	-0.018072	0.000094
N103	N	1.183013	-0.002106	0.346079
H104	H	1.221659	-0.032132	0.310175
H105	H	1.222449	0.024672	0.377875
N106	N	1.183017	-0.002094	0.186766
H107	H	1.221661	-0.032125	0.222677
H108	H	1.148892	-0.033000	0.154972
