data_functionalizedCrystal
_audit_creation_method	'MofGen! by Chris Wilmer'
_symmetry_space_group_name_H-M	'P1'
_symmetry_Int_Tables_number	1
_symmetry_cell_setting	triclinic
loop_
_symmetry_equiv_pos_as_xyz
  x,y,z
_cell_length_a	15.297475
_cell_length_b	12.594516
_cell_length_c	15.296720
_cell_angle_alpha	99.650531
_cell_angle_beta	91.617114
_cell_angle_gamma	80.319586
loop_
_atom_site_label
_atom_site_type_symbol
_atom_site_fract_x
_atom_site_fract_y
_atom_site_fract_z
Zn1	Zn	1.253466	-0.828402	-0.726662
Zn2	Zn	1.278741	-0.981670	-0.580189
Zn3	Zn	1.132339	-0.768606	-0.554898
Zn4	Zn	1.106966	-0.971207	-0.701317
O5	O	1.192878	-0.887471	-0.640767
O6	O	1.379399	-0.878137	-0.728424
O7	O	1.280516	-0.932761	-0.454258
O8	O	1.148448	-0.627605	-0.577705
O9	O	1.397968	-0.990742	-0.620811
O10	O	1.237439	-0.671537	-0.703900
O11	O	1.172956	-0.776223	-0.435677
O12	O	1.006393	-0.766078	-0.553130
O13	O	1.105203	-0.972910	-0.827255
O14	O	0.987752	-0.914928	-0.660703
O15	O	1.212836	-0.867992	-0.845876
O16	O	1.255913	-1.129215	-0.596235
O17	O	1.129711	-1.121528	-0.685227
C18	C	0.965289	-0.832880	-0.601422
C19	C	0.867921	-0.809554	-0.584611
C20	C	0.554794	-1.054189	-0.760920
C21	C	0.646276	-1.076112	-0.776712
C22	C	0.701692	-1.009475	-0.728689
C23	C	0.665617	-0.920910	-0.664869
C24	C	0.574127	-0.898991	-0.649070
C25	C	0.721024	-0.854276	-0.616839
C26	C	0.684949	-0.765712	-0.553020
C27	C	0.593468	-0.743795	-0.537225
C28	C	0.538052	-0.810433	-0.585248
C29	C	0.812514	-0.876196	-0.632638
C30	C	0.831847	-0.720997	-0.520789
C31	C	0.740365	-0.699074	-0.504996
C32	C	1.192822	-1.163997	-0.640748
C33	C	1.192873	-1.282320	-0.640783
C34	C	1.124233	-1.347423	-0.689144
C35	C	1.116732	-1.399680	-0.605532
C36	C	1.200452	-1.440883	-0.724423
C37	C	1.185337	-1.333002	-0.557122
C38	C	1.269085	-1.374217	-0.676073
C39	C	1.261623	-1.426440	-0.592411
C40	C	1.421356	-0.942277	-0.680265
C41	C	1.518720	-0.965632	-0.697097
C42	C	1.153370	-0.925954	-0.869237
C43	C	1.136534	-0.942353	-0.966597
C44	C	1.192955	-0.609875	-0.640809
C45	C	1.192987	-0.491580	-0.640826
C46	C	1.313239	-0.770087	-1.279821
C47	C	1.329063	-0.754682	-1.188347
C48	C	1.280932	-0.801598	-1.132905
C49	C	1.216975	-0.863922	-1.168946
C50	C	1.201155	-0.879335	-1.260430
C51	C	1.168847	-0.910847	-1.113514
C52	C	1.104891	-0.973170	-1.149555
C53	C	1.089073	-0.988580	-1.241030
C54	C	1.137203	-0.941664	-1.296472
C55	C	1.184668	-0.895433	-1.022030
C56	C	1.072583	-1.004682	-1.002639
C57	C	1.056760	-1.020086	-1.094113
C58	C	1.232282	-0.849074	-0.413194
C59	C	1.249288	-0.832416	-0.315863
H60	H	0.463559	-0.792586	-0.572395
H61	H	1.236741	-0.844688	-0.992695
H62	H	0.509668	-1.108442	-0.800008
O63	O	1.398040	-0.687469	-1.149473
H64	H	1.428847	-0.657429	-1.203390
H65	H	1.033393	-1.042887	-0.957499
H66	H	1.333461	-1.362260	-0.705927
O67	O	1.020090	-1.055799	-1.279902
H68	H	1.038116	-1.139971	-1.264920
H69	H	1.293819	-0.789052	-1.058424
H70	H	0.710979	-0.626964	-0.453034
O71	O	1.031429	-1.415489	-0.566012
H72	H	1.046646	-1.454939	-0.506453
O73	O	1.176799	-1.271210	-0.463405
H74	H	1.176782	-1.183229	-0.464126
H75	H	1.319729	-1.460800	-0.551475
O76	O	1.208893	-1.502829	-0.818093
H77	H	1.151786	-1.471006	-0.858068
H78	H	1.352425	-0.731902	-1.324970
H79	H	0.876967	-0.666736	-0.481682
H80	H	1.124323	-0.954203	-1.370959
H81	H	0.564100	-0.671690	-0.485250
O82	O	0.987777	-1.087303	-1.132990
H83	H	1.019757	-1.157881	-1.181434
O84	O	0.851423	-0.971696	-0.701479
H85	H	0.836468	-1.048450	-0.683317
O86	O	0.800363	-1.033113	-0.745717
H87	H	0.816138	-1.105887	-0.798166
H88	H	0.675642	-1.148223	-0.828672
O89	O	1.047252	-1.301590	-0.743201
H90	H	0.984124	-1.311107	-0.713718
