data_functionalizedCrystal
_audit_creation_method	'MofGen! by Chris Wilmer'
_symmetry_space_group_name_H-M	'P1'
_symmetry_Int_Tables_number	1
_symmetry_cell_setting	triclinic
loop_
_symmetry_equiv_pos_as_xyz
  x,y,z
_cell_length_a	15.297327
_cell_length_b	11.169417
_cell_length_c	11.169409
_cell_angle_alpha	90.020564
_cell_angle_beta	99.639974
_cell_angle_gamma	80.292774
loop_
_atom_site_label
_atom_site_type_symbol
_atom_site_fract_x
_atom_site_fract_y
_atom_site_fract_z
Zn1	Zn	-0.359064	-1.752176	-0.761131
Zn2	Zn	-0.509957	-1.717269	-0.595155
Zn3	Zn	-0.359119	-1.551447	-0.560478
Zn4	Zn	-0.509883	-1.516693	-0.795783
O5	O	-0.434506	-1.634396	-0.678137
O6	O	-0.379088	-1.915493	-0.739125
O7	O	-0.490001	-1.695208	-0.422618
O8	O	-0.232867	-1.607227	-0.558081
O9	O	-0.489948	-1.889848	-0.617183
O10	O	-0.232827	-1.754702	-0.705500
O11	O	-0.379182	-1.573379	-0.397141
O12	O	-0.379111	-1.378889	-0.591682
O13	O	-0.489823	-1.547994	-0.959124
O14	O	-0.489876	-1.353355	-0.764559
O15	O	-0.379017	-1.721003	-0.933666
O16	O	-0.636191	-1.661509	-0.650783
O17	O	-0.636138	-1.514146	-0.798184
C18	C	-0.434492	-1.322575	-0.678119
C19	C	-0.434508	-1.189171	-0.678144
C20	C	-0.668898	-1.580301	-0.732033
C21	C	-0.769172	-1.557269	-0.755130
C22	C	-0.434406	-1.634515	-0.991157
C23	C	-0.434363	-1.634566	-1.124547
C24	C	-1.051815	-1.799506	-0.513469
C25	C	-0.957602	-1.821146	-0.491762
C26	C	-0.910490	-1.755179	-0.557602
C27	C	-0.957600	-1.667568	-0.645153
C28	C	-1.051821	-1.645920	-0.666855
C29	C	-0.910497	-1.601592	-0.710988
C30	C	-0.957606	-1.513981	-0.798539
C31	C	-1.051819	-1.492338	-0.820238
C32	C	-1.098931	-1.558305	-0.754398
C33	C	-0.816275	-1.623240	-0.689286
C34	C	-0.816282	-1.469654	-0.842672
C35	C	-0.910494	-1.448014	-0.864379
C36	C	-0.199198	-1.688735	-0.624057
C37	C	-0.098924	-1.711891	-0.601012
C38	C	-0.434520	-1.947435	-0.678157
C39	C	-0.434526	-2.080834	-0.678165
C40	C	-0.434540	-1.634361	-0.366320
C41	C	-0.434329	-1.634602	-0.232872
H42	H	-0.833778	-1.772802	-0.539922
H43	H	-0.777924	-1.415935	-0.896283
C44	C	-0.906620	-1.916362	-0.396715
C45	C	-0.968041	-1.969526	-0.343726
C46	C	-0.921108	-2.057264	-0.256174
H47	H	-0.869922	-1.879046	-0.335823
H48	H	-0.869827	-1.977149	-0.434173
H49	H	-1.004819	-1.908750	-0.306268
H50	H	-1.004741	-2.006867	-0.404588
H51	H	-0.884314	-2.118051	-0.293632
H52	H	-0.884411	-2.019938	-0.195290
H53	H	-0.962774	-2.093355	-0.220218
H54	H	-1.175646	-1.540693	-0.772069
C55	C	-1.103127	-1.870992	-0.442118
C56	C	-1.195719	-1.833278	-0.479864
C57	C	-1.243017	-1.899100	-0.414148
H58	H	-1.087839	-1.857014	-0.357908
H59	H	-1.087700	-1.955210	-0.456166
H60	H	-1.211141	-1.749079	-0.465806
H61	H	-1.211035	-1.847258	-0.564064
H62	H	-1.227589	-1.983318	-0.428196
H63	H	-1.227721	-1.885117	-0.329941
H64	H	-1.305845	-1.873528	-0.439756
C65	C	-0.961531	-1.352723	-0.959331
C66	C	-0.938691	-1.239235	-0.927861
C67	C	-0.985679	-1.151429	-1.015310
H68	H	-1.024403	-1.349117	-0.962903
H69	H	-0.946012	-1.373744	-1.036431
H70	H	-0.954216	-1.218219	-0.850782
H71	H	-0.875828	-1.242802	-0.924298
H72	H	-0.970160	-1.172450	-1.092410
H73	H	-1.048548	-1.147833	-1.018876
H74	H	-0.970182	-1.074419	-0.993976
C75	C	-1.102918	-1.397370	-0.915475
C76	C	-1.079929	-1.428751	-1.028950
C77	C	-1.126990	-1.341305	-1.116713
H78	H	-1.087575	-1.320221	-0.894468
H79	H	-1.165785	-1.393931	-0.919054
H80	H	-1.017076	-1.432177	-1.025368
H81	H	-1.095274	-1.505885	-1.049994
H82	H	-1.189857	-1.337865	-1.120293
H83	H	-1.111643	-1.264161	-1.095695
H84	H	-1.111405	-1.362590	-1.193718
H85	H	-0.777927	-1.694573	-0.618002
