data_functionalizedCrystal
_audit_creation_method	'MofGen! by Chris Wilmer'
_symmetry_space_group_name_H-M	'P1'
_symmetry_Int_Tables_number	1
_symmetry_cell_setting	triclinic
loop_
_symmetry_equiv_pos_as_xyz
  x,y,z
_cell_length_a	10.654562
_cell_length_b	12.811415
_cell_length_c	9.730223
_cell_angle_alpha	84.567795
_cell_angle_beta	89.996961
_cell_angle_gamma	84.265449
loop_
_atom_site_label
_atom_site_type_symbol
_atom_site_fract_x
_atom_site_fract_y
_atom_site_fract_z
O1	O	1.667058	0.147485	-0.132759
O2	O	1.301508	0.161517	-0.134491
O3	O	1.493480	0.001776	-0.114585
O4	O	1.475086	0.307225	-0.152665
O5	O	1.493478	0.001780	0.113995
O6	O	1.301506	0.161521	0.094089
O7	O	1.667056	0.147489	0.095820
Zn8	Zn	1.484281	0.154505	0.131246
Zn9	Zn	1.484283	0.154500	-0.169917
O10	O	1.475084	0.307229	0.075914
C11	C	1.254715	0.160486	-0.020070
C12	C	1.115289	0.157395	-0.019678
C13	C	1.049764	0.155955	0.105090
C14	C	0.918757	0.153059	0.105428
C15	C	0.918810	0.153047	-0.143781
C16	C	1.049815	0.155935	-0.144117
C17	C	1.049732	0.155967	0.248968
C18	C	0.918725	0.153071	0.249306
C19	C	1.492449	-0.037334	0.004579
C20	C	1.489363	-0.153874	0.019100
C21	C	1.483544	-0.372859	-0.202840
C22	C	1.480644	-0.482359	-0.189203
C23	C	1.480655	-0.482375	0.060010
C24	C	1.483554	-0.372875	0.046373
C25	C	1.485001	-0.318121	-0.085056
C26	C	1.487909	-0.208620	-0.098692
C27	C	1.487911	-0.208637	0.150519
C28	C	1.485011	-0.318137	0.164156
C29	C	1.713849	0.148520	-0.018603
C30	C	1.853275	0.151611	-0.019004
C31	C	1.476115	0.346339	-0.043252
C32	C	1.479201	0.462879	-0.057782
N33	N	1.484288	0.154508	0.336782
N34	N	1.484286	0.154489	-0.375452
C35	C	1.569315	0.083799	0.417520
C36	C	1.569311	0.083787	0.561404
C37	C	1.399250	0.225201	0.543800
C38	C	1.399248	0.225208	0.399919
C39	C	1.667502	0.002158	0.427684
C40	C	1.667499	0.002145	0.571569
H41	H	0.872061	0.225613	0.295498
C42	C	1.483252	-0.383837	-0.447807
C43	C	1.485138	-0.312666	-0.347301
H44	H	1.484229	-0.346675	-0.536991
H45	H	1.555264	-0.434011	-0.436379
H46	H	1.408969	-0.419081	-0.438224
H47	H	1.559426	-0.277428	-0.356877
H48	H	1.413118	-0.262473	-0.358733
H49	H	1.489102	-0.164059	0.246427
H50	H	1.330013	0.282762	0.595222
H51	H	1.103163	0.157091	-0.245713
H52	H	1.489090	-0.164041	-0.205709
C53	C	1.369540	-0.594478	-0.319788
C54	C	1.479040	-0.542533	-0.318669
H55	H	1.368546	-0.631623	-0.399723
H56	H	1.368277	-0.642754	-0.239574
H57	H	1.297535	-0.544281	-0.320851
H58	H	1.551045	-0.592731	-0.317595
H59	H	1.480314	-0.494252	-0.398904
C60	C	1.850743	-0.057951	0.711713
C61	C	1.797651	0.026425	0.621271
H62	H	1.931092	-0.042962	0.742389
H63	H	1.797177	-0.067947	0.788873
H64	H	1.859984	-0.120164	0.665200
H65	H	1.788401	0.088637	0.667787
H66	H	1.851230	0.036434	0.544099
C67	C	1.591962	-0.362867	0.382125
C68	C	1.483427	-0.378324	0.308621
H69	H	1.590981	-0.400017	0.471316
H70	H	1.664614	-0.388284	0.334083
H71	H	1.593886	-0.289815	0.390843
H72	H	1.481508	-0.451376	0.299893
H73	H	1.410755	-0.352912	0.356675
C74	C	1.476268	-0.650249	0.191555
C75	C	1.479105	-0.542578	0.204468
H76	H	1.475332	-0.687416	0.280740
H77	H	1.402633	-0.660721	0.141708
H78	H	1.548929	-0.675635	0.143479
H79	H	1.406439	-0.517190	0.252535
H80	H	1.552748	-0.532099	0.254336
C81	C	1.231144	0.364980	0.396978
C82	C	1.305777	0.302927	0.311172
H83	H	1.173442	0.412965	0.342185
H84	H	1.185758	0.320926	0.458584
H85	H	1.283620	0.403146	0.448341
H86	H	1.253301	0.264754	0.259816
H87	H	1.351166	0.346987	0.249541
H88	H	1.646479	-0.078520	0.398690
C89	C	1.784180	0.035020	0.219604
C90	C	1.790385	0.036724	0.363109
H91	H	1.860031	0.056384	0.179737
H92	H	1.773596	-0.034373	0.198093
H93	H	1.714713	0.081909	0.183658
H94	H	1.859847	-0.010172	0.399056
H95	H	1.800983	0.106128	0.384631
H96	H	1.637382	-0.074096	0.625691
H97	H	0.865485	0.151859	-0.245095
C98	C	1.082675	-0.032984	0.279245
C99	C	1.112706	0.058044	0.335750
H100	H	1.121560	-0.093434	0.332814
H101	H	0.993793	-0.034940	0.279480
H102	H	1.112325	-0.032317	0.187123
H103	H	1.083046	0.057382	0.427868
H104	H	1.201606	0.060000	0.335529
C105	C	0.981391	0.324220	0.327833
C106	C	1.089133	0.259301	0.296365
H107	H	1.005719	0.388011	0.357099
H108	H	0.928904	0.339524	0.248117
H109	H	0.936490	0.289155	0.399646
H110	H	1.134029	0.294362	0.224545
H111	H	1.141640	0.243998	0.376091
H112	H	0.889534	0.076522	0.303495
