data_functionalizedCrystal
_audit_creation_method	'MofGen! by Chris Wilmer'
_symmetry_space_group_name_H-M	'P1'
_symmetry_Int_Tables_number	1
_symmetry_cell_setting	triclinic
loop_
_symmetry_equiv_pos_as_xyz
  x,y,z
_cell_length_a	16.120530
_cell_length_b	16.120484
_cell_length_c	16.120297
_cell_angle_alpha	95.614431
_cell_angle_beta	90.128140
_cell_angle_gamma	90.167327
loop_
_atom_site_label
_atom_site_type_symbol
_atom_site_fract_x
_atom_site_fract_y
_atom_site_fract_z
Zn1	Zn	1.224987	-0.422264	-0.554813
Zn2	Zn	1.724987	0.077736	-0.054813
Zn3	Zn	1.224883	-0.554948	-0.422118
Zn4	Zn	1.724883	-0.054948	0.077882
Zn5	Zn	1.093726	-0.408180	-0.408056
Zn6	Zn	1.593726	0.091820	0.091944
Zn7	Zn	1.078880	-0.554181	-0.554051
Zn8	Zn	1.578880	-0.054181	-0.054051
O9	O	1.155619	-0.484893	-0.484760
O10	O	1.655619	0.015107	0.015240
O11	O	1.341009	-0.446081	-0.543415
O12	O	1.841009	0.053919	-0.043415
O13	O	1.213654	-0.529906	-0.303620
O14	O	1.713654	-0.029906	0.196380
O15	O	1.117395	-0.293418	-0.421958
O16	O	1.617395	0.206582	0.078042
O17	O	1.340932	-0.543563	-0.445925
O18	O	1.840932	-0.043563	0.054075
O19	O	1.213832	-0.303765	-0.529780
O20	O	1.713832	0.196235	-0.029780
O21	O	1.117294	-0.422076	-0.293289
O22	O	1.617294	0.077924	0.206711
O23	O	0.975721	-0.421332	-0.421218
O24	O	1.475721	0.078668	0.078782
O25	O	1.092092	-0.542255	-0.670785
O26	O	1.592092	-0.042255	-0.170785
O27	O	0.964814	-0.528598	-0.528480
O28	O	1.464814	-0.028598	-0.028480
O29	O	1.199436	-0.445336	-0.671345
O30	O	1.699436	0.054664	-0.171345
O31	O	1.199258	-0.671477	-0.445185
O32	O	1.699258	-0.171477	0.054815
O33	O	1.091990	-0.670913	-0.542116
O34	O	1.591990	-0.170913	-0.042116
C35	C	1.144023	-0.701438	-0.495113
C36	C	1.644023	-0.201438	0.004887
C37	C	1.139137	-0.794083	-0.499574
C38	C	1.639137	-0.294083	0.000426
C39	C	0.940181	-0.473354	-0.473241
C40	C	1.440181	0.026646	0.026759
C41	C	0.848013	-0.468438	-0.468334
C42	C	1.348013	0.031562	0.031666
C43	C	1.130220	-0.963706	-0.507736
C44	C	1.630220	-0.463706	-0.007736
C45	C	1.181166	-1.005249	-0.461804
C46	C	1.681166	-0.505249	0.038196
C47	C	1.176204	-1.099633	-0.466346
C48	C	1.676204	-0.599633	0.033654
C49	C	1.135180	-0.869313	-0.503196
C50	C	1.635180	-0.369313	-0.003196
C51	C	0.679262	-0.459445	-0.459381
C52	C	1.179262	0.040555	0.040619
C53	C	0.632810	-0.510407	-0.510202
C54	C	1.132810	-0.010407	-0.010202
C55	C	0.538911	-0.505403	-0.505220
C56	C	1.038911	-0.005403	-0.005220
C57	C	0.773169	-0.464448	-0.464361
C58	C	1.273169	0.035552	0.035639
C59	C	1.371899	-0.496479	-0.496324
C60	C	1.871899	0.003521	0.003676
C61	C	1.464064	-0.501416	-0.501252
C62	C	1.964064	-0.001416	-0.001252
C63	C	1.144119	-0.495281	-0.702152
C64	C	1.644119	0.004719	-0.202152
C65	C	1.139219	-0.499708	-0.794791
C66	C	1.639219	0.000292	-0.294791
C67	C	1.167282	-0.267505	-0.474385
C68	C	1.667282	0.232495	0.025615
C69	C	1.172251	-0.174867	-0.469964
C70	C	1.672251	0.325133	0.030036
C71	C	1.130243	-0.507770	-0.964403
C72	C	1.630243	-0.007770	-0.464403
C73	C	1.181172	-0.461776	-1.005965
C74	C	1.681172	0.038224	-0.505965
C75	C	1.176177	-0.466262	-1.100342
C76	C	1.676177	0.033738	-0.600342
C77	C	1.135236	-0.503285	-0.870017
C78	C	1.635236	-0.003285	-0.370017
C79	C	1.167125	-0.474489	-0.268213
C80	C	1.667125	0.025511	0.231787
C81	C	1.172198	-0.469836	-0.175571
C82	C	1.672198	0.030164	0.324429
H83	H	1.228508	-0.969931	-0.419069
H84	H	1.728508	-0.469931	0.080931
H85	H	0.663563	-0.557794	-0.557453
H86	H	1.163563	-0.057794	-0.057453
O87	O	0.642448	-0.402989	-0.403036
O88	O	1.142448	0.097011	0.096964
C89	C	0.555532	-0.410495	-0.410556
C90	C	1.055532	0.089505	0.089444
H91	H	0.538935	-0.475545	-0.440222
H92	H	1.038935	0.024455	0.059778
H93	H	0.531249	-0.361967	-0.451381
H94	H	1.031249	0.138033	0.048619
C95	C	0.536194	-0.316483	-0.287115
C96	C	1.036194	0.183517	0.212885
C97	C	0.515809	-0.396381	-0.323544
C98	C	1.015809	0.103619	0.176456
H99	H	0.511690	-0.307774	-0.233443
H100	H	1.011690	0.192226	0.266557
H101	H	0.594751	-0.311423	-0.282049
H102	H	1.094751	0.188577	0.217951
H103	H	0.515958	-0.276052	-0.321144
H104	H	1.015958	0.223948	0.178856
H105	H	0.536054	-0.436811	-0.289521
H106	H	1.036054	0.063189	0.210479
H107	H	0.457254	-0.401448	-0.328602
H108	H	0.957254	0.098552	0.171398
O109	O	1.073646	-0.558670	-1.006456
O110	O	1.573646	-0.058670	-0.506456
C111	C	0.993076	-0.535066	-0.979948
C112	C	1.493076	-0.035066	-0.479948
H113	H	0.993695	-0.467141	-0.952538
H114	H	1.493695	0.032859	-0.452538
H115	H	0.971622	-0.576243	-0.930477
H116	H	1.471622	-0.076243	-0.430477
C117	C	0.932448	-0.628839	-1.088511
C118	C	1.432448	-0.128839	-0.588511
C119	C	0.933208	-0.545410	-1.054852
C120	C	1.433208	-0.045410	-0.554852
H121	H	0.895517	-0.635223	-1.134714
H122	H	1.395517	-0.135223	-0.634714
H123	H	0.986730	-0.644744	-1.106369
H124	H	1.486730	-0.144744	-0.606369
H125	H	0.914572	-0.663144	-1.047278
H126	H	1.414572	-0.163144	-0.547278
H127	H	0.951093	-0.511108	-1.096082
H128	H	1.451093	-0.011108	-0.596082
H129	H	0.878928	-0.529499	-1.037004
H130	H	1.378928	-0.029499	-0.537004
H131	H	1.082881	-0.999022	-0.550467
H132	H	1.582881	-0.499022	-0.050467
O133	O	1.237632	-0.410841	-0.963735
O134	O	1.737632	0.089159	-0.463735
C135	C	1.230097	-0.417626	-0.877538
C136	C	1.730097	0.082374	-0.377538
H137	H	1.200113	-0.479947	-0.867371
H138	H	1.700113	0.020053	-0.367371
H139	H	1.189861	-0.364679	-0.848107
H140	H	1.689861	0.135321	-0.348107
C141	C	1.353552	-0.335829	-0.849358
C142	C	1.853552	0.164171	-0.349358
C143	C	1.316730	-0.412377	-0.836870
C144	C	1.816730	0.087623	-0.336870
H145	H	1.406990	-0.332588	-0.824270
H146	H	1.906990	0.167412	-0.324270
H147	H	1.358627	-0.331256	-0.907430
H148	H	1.858627	0.168744	-0.407430
H149	H	1.320013	-0.291715	-0.824832
H150	H	1.820013	0.208285	-0.324832
H151	H	1.350263	-0.456489	-0.861405
H152	H	1.850263	0.043511	-0.361405
H153	H	1.311663	-0.416958	-0.778801
H154	H	1.811663	0.083042	-0.278801
