data_functionalizedCrystal
_audit_creation_method	'MofGen! by Chris Wilmer'
_symmetry_space_group_name_H-M	'P1'
_symmetry_Int_Tables_number	1
_symmetry_cell_setting	triclinic
loop_
_symmetry_equiv_pos_as_xyz
  x,y,z
_cell_length_a	17.699104
_cell_length_b	14.853567
_cell_length_c	16.776229
_cell_angle_alpha	90.002853
_cell_angle_beta	90.008029
_cell_angle_gamma	83.463224
loop_
_atom_site_label
_atom_site_type_symbol
_atom_site_fract_x
_atom_site_fract_y
_atom_site_fract_z
O1	O	1.004365	0.114098	0.066298
O2	O	1.504365	0.614098	0.566298
O3	O	0.784027	0.128911	0.066295
O4	O	1.284027	0.628911	0.566295
O5	O	0.900081	-0.009747	0.066299
O6	O	1.400081	0.490253	0.566299
O7	O	0.888310	0.252755	0.066294
O8	O	1.388310	0.752755	0.566294
O9	O	0.900066	-0.009755	-0.066278
O10	O	1.400066	0.490245	0.433722
O11	O	0.784011	0.128902	-0.066282
O12	O	1.284011	0.628902	0.433718
O13	O	1.004349	0.114089	-0.066279
O14	O	1.504349	0.614089	0.433721
Zn15	Zn	0.894178	0.121494	-0.087330
Zn16	Zn	1.394178	0.621494	0.412670
Zn17	Zn	0.894198	0.121505	0.087346
Zn18	Zn	1.394198	0.621505	0.587346
O19	O	0.888295	0.252746	-0.066283
O20	O	1.388295	0.752746	0.433717
C21	C	0.755821	0.128372	0.000006
C22	C	1.255821	0.628372	0.500006
C23	C	0.671800	0.126770	0.000006
C24	C	1.171800	0.626770	0.500006
C25	C	0.147116	0.199125	0.000013
C26	C	0.647116	0.699125	0.500013
C27	C	0.226064	0.200625	0.000015
C28	C	0.726064	0.700625	0.500015
C29	C	0.274470	0.119228	0.000016
C30	C	0.774470	0.619228	0.500016
C31	C	0.243925	0.036325	0.000023
C32	C	0.743925	0.536325	0.500023
C33	C	0.164979	0.034827	0.000027
C34	C	0.664979	0.534827	0.500027
C35	C	0.562307	0.042368	0.000011
C36	C	1.062307	0.542368	0.500011
C37	C	0.641258	0.043873	0.000005
C38	C	1.141258	0.543873	0.500005
C39	C	0.623392	0.208167	-0.000001
C40	C	1.123392	0.708167	0.499999
C41	C	0.544446	0.206668	0.000002
C42	C	1.044446	0.706668	0.500002
C43	C	0.513908	0.123766	0.000013
C44	C	1.013908	0.623766	0.500013
C45	C	0.428304	0.122141	0.000012
C46	C	0.928304	0.622141	0.500012
C47	C	0.360073	0.120852	0.000011
C48	C	0.860073	0.620852	0.500011
C49	C	0.899540	-0.043338	0.000013
C50	C	1.399540	0.456662	0.500013
C51	C	0.897942	-0.143416	0.000020
C52	C	1.397942	0.356584	0.500020
C53	C	0.822247	-0.555678	0.000004
C54	C	1.322247	-0.055678	0.500004
C55	C	0.960122	-0.577454	0.000005
C56	C	1.460122	-0.077454	0.500005
C57	C	0.961625	-0.483426	0.000010
C58	C	1.461625	0.016574	0.500010
C59	C	0.893438	-0.425519	0.000010
C60	C	1.393438	0.074481	0.500010
C61	C	0.823748	-0.461640	0.000006
C62	C	1.323748	0.038360	0.500006
C63	C	1.031314	-0.447297	0.000006
C64	C	1.531314	0.052703	0.500006
C65	C	1.032819	-0.353263	0.000010
C66	C	1.532819	0.146737	0.500010
C67	C	0.964631	-0.295355	0.000016
C68	C	1.464631	0.204645	0.500016
C69	C	0.894938	-0.331481	0.000013
C70	C	1.394938	0.168519	0.500013
C71	C	0.826751	-0.273575	0.000013
C72	C	1.326751	0.226425	0.500013
C73	C	0.757057	-0.309700	0.000015
C74	C	1.257057	0.190300	0.500015
C75	C	0.755559	-0.403732	0.000012
C76	C	1.255559	0.096268	0.500012
C77	C	0.966129	-0.201323	0.000019
C78	C	1.466129	0.298677	0.500019
C79	C	0.828252	-0.179537	0.000015
C80	C	1.328252	0.320463	0.500015
C81	C	1.032555	0.114627	0.000011
C82	C	1.532555	0.614627	0.500011
C83	C	1.116576	0.116229	0.000017
C84	C	1.616576	0.616229	0.500017
C85	C	0.888836	0.286338	0.000005
C86	C	1.388836	0.786338	0.500005
C87	C	0.890434	0.386415	0.000003
C88	C	1.390434	0.886415	0.500003
N89	N	0.894170	0.121486	-0.206541
N90	N	1.394170	0.621486	0.293459
C91	C	0.945574	0.060114	-0.248256
C92	C	1.445574	0.560114	0.251744
C93	C	0.945578	0.060113	-0.331708
C94	C	1.445578	0.560113	0.168292
C95	C	0.894181	0.121490	-0.373444
C96	C	1.394181	0.621490	0.126556
C97	C	0.842771	0.182865	-0.331723
C98	C	1.342771	0.682865	0.168277
C99	C	0.842764	0.182861	-0.248272
C100	C	1.342764	0.682861	0.251728
C101	C	0.842798	0.182883	-0.668270
C102	C	1.342798	0.682883	-0.168270
C103	C	0.842811	0.182884	-0.751726
C104	C	1.342811	0.682884	-0.251726
C105	C	0.945613	0.060135	-0.751706
C106	C	1.445613	0.560135	-0.251706
C107	C	0.945606	0.060131	-0.668256
C108	C	1.445606	0.560131	-0.168256
C109	C	0.894193	0.121502	-0.626542
C110	C	1.394193	0.621502	-0.126542
C111	C	0.894188	0.121501	-0.536053
C112	C	1.394188	0.621501	-0.036053
C113	C	0.894189	0.121496	-0.463931
C114	C	1.394189	0.621496	0.036069
N115	N	0.894213	0.121506	0.206557
N116	N	1.394213	0.621506	0.706557
H117	H	0.250925	0.268127	0.000018
H118	H	0.750925	0.768127	0.500018
H119	H	0.987435	0.010138	-0.365673
H120	H	1.487435	0.510138	0.134327
H121	H	0.140115	-0.032676	0.000032
H122	H	0.640115	0.467324	0.500032
O123	O	0.754704	-0.117085	0.000007
O124	O	1.254704	0.382915	0.500007
H125	H	0.721361	-0.129911	0.054039
H126	H	1.221361	0.370089	0.554039
O127	O	1.001032	-0.006080	-0.623241
O128	O	1.501032	0.493920	-0.123241
H129	H	1.037856	0.031809	-0.585208
H130	H	1.537856	0.531809	-0.085208
H131	H	0.698818	-0.433154	0.000013
H132	H	1.198818	0.066846	0.500013
H133	H	0.701540	-0.262540	0.000010
H134	H	1.201540	0.237460	0.500010
O135	O	0.094913	0.286923	0.000004
O136	O	0.594913	0.786923	0.500004
H137	H	0.034885	0.271958	-0.000003
H138	H	0.534885	0.771958	0.499997
H139	H	0.987474	0.010160	-0.785679
H140	H	1.487474	0.510160	-0.285679
O141	O	0.787352	0.249081	-0.623287
O142	O	1.287352	0.749081	-0.123287
H143	H	0.819250	0.292847	-0.585250
H144	H	1.319250	0.792847	-0.085250
H145	H	0.800918	0.232836	-0.365708
H146	H	1.300918	0.732836	0.134292
O147	O	0.747078	-0.594631	-0.000004
O148	O	1.247078	-0.094631	0.499996
H149	H	0.757485	-0.669746	-0.000011
H150	H	1.257485	-0.169746	0.499989
O151	O	1.033664	-0.639906	-0.000006
O152	O	1.533664	-0.139906	0.499994
H153	H	1.036290	-0.683269	0.054029
H154	H	1.536290	-0.183269	0.554029
H155	H	0.800904	0.232835	-0.214308
H156	H	1.300904	0.732835	0.285692
H157	H	0.800954	0.232866	-0.785706
H158	H	1.300954	0.732866	-0.285706
O159	O	0.656327	0.297588	-0.000003
O160	O	1.156327	0.797588	0.499997
H161	H	0.719355	0.284961	0.000004
H162	H	1.219355	0.784961	0.500004
O163	O	0.693473	-0.043922	0.000011
O164	O	1.193473	0.456078	0.500011
H165	H	0.658976	-0.101822	0.000028
H166	H	1.158976	0.398178	0.500028
H167	H	0.987431	0.010138	-0.214281
H168	H	1.487431	0.510138	0.285719
O169	O	0.529373	-0.047042	0.000003
O170	O	1.029373	0.452958	0.500003
H171	H	0.576298	-0.103388	-0.000010
H172	H	1.076298	0.396612	0.499990
O173	O	1.104856	-0.509748	-0.000005
O174	O	1.604856	-0.009748	0.499995
H175	H	1.092102	-0.581203	0.000000
H176	H	1.592102	-0.081203	0.500000
H177	H	0.283344	-0.029950	0.000029
H178	H	0.783344	0.470050	0.500029
O179	O	1.107984	-0.314300	0.000027
O180	O	1.607984	0.185700	0.500027
H181	H	1.155145	-0.370365	0.000035
H182	H	1.655145	0.129635	0.500035
H183	H	0.505036	0.272950	-0.000003
H184	H	1.005036	0.772950	0.499997
H185	H	1.022873	-0.171914	0.000012
H186	H	1.522873	0.328086	0.500012
