data_functionalizedCrystal
_audit_creation_method	'MofGen! by Chris Wilmer'
_symmetry_space_group_name_H-M	'P1'
_symmetry_Int_Tables_number	1
_symmetry_cell_setting	triclinic
loop_
_symmetry_equiv_pos_as_xyz
  x,y,z
_cell_length_a	8.559649
_cell_length_b	17.666332
_cell_length_c	8.559649
_cell_angle_alpha	90.005352
_cell_angle_beta	110.221336
_cell_angle_gamma	89.990083
loop_
_atom_site_label
_atom_site_type_symbol
_atom_site_fract_x
_atom_site_fract_y
_atom_site_fract_z
O1	O	-2.126892	0.062949	-0.055034
O2	O	-1.651407	0.062949	0.028748
O3	O	-1.931040	0.062948	-0.250885
O4	O	-1.847259	0.062950	0.224599
O5	O	-1.930998	-0.062949	-0.250893
O6	O	-1.651365	-0.062948	0.028740
O7	O	-2.126850	-0.062948	-0.055042
Cu8	Cu	-1.889104	-0.074443	-0.013152
Cu9	Cu	-1.889154	0.074444	-0.013142
O10	O	-1.847217	-0.062947	0.224592
C11	C	-1.591077	0.000001	0.035093
C12	C	-1.411378	0.000001	0.053992
N13	N	-1.889081	-0.179163	-0.013161
C14	C	-2.012932	-0.218773	-0.136933
C15	C	-2.012942	-0.298020	-0.136942
C16	C	-1.889114	-0.337655	-0.013153
C17	C	-1.765241	-0.298035	0.110630
C18	C	-1.765225	-0.218789	0.110626
N19	N	-1.850848	-0.462073	0.132928
N20	N	-1.850874	-0.537353	0.132926
C21	C	-1.889154	-0.576419	-0.013135
N22	N	-1.927439	-0.537360	-0.159202
N23	N	-1.927421	-0.462072	-0.159199
C24	C	-1.889117	-0.423584	-0.013135
C25	C	-2.013023	-0.701958	-0.136927
C26	C	-2.013022	-0.781207	-0.136936
C27	C	-1.765328	-0.781221	0.110649
C28	C	-1.765322	-0.701973	0.110645
C29	C	-1.889178	-0.662347	-0.013142
C30	C	-1.187180	0.000001	-0.061387
C31	C	-1.366879	0.000001	-0.080286
C32	C	-1.937369	0.000001	-0.311198
C33	C	-1.956268	0.000005	-0.490898
N34	N	-1.889191	0.179164	-0.013148
C35	C	-1.840889	0.000002	0.284904
C36	C	-1.821990	0.000002	0.464604
H37	H	-1.466258	0.000005	-0.209705
C38	C	-2.128953	0.000121	-0.623230
C39	C	-2.215326	0.064884	-0.604868
C40	C	-2.374412	0.065012	-0.726727
H41	H	-2.119390	0.000155	-0.730534
H42	H	-2.187857	-0.043758	-0.611021
H43	H	-2.156436	0.108752	-0.617092
H44	H	-2.224935	0.064864	-0.497590
H45	H	-2.433316	0.021133	-0.714518
H46	H	-2.364832	0.065044	-0.834023
H47	H	-2.433040	0.108949	-0.714276
C48	C	-1.630770	-0.659099	0.245233
C49	C	-1.522349	-0.710768	0.353669
C50	C	-1.398384	-0.671301	0.477687
H51	H	-1.570228	-0.628194	0.195330
H52	H	-1.680774	-0.628191	0.305732
H53	H	-1.472348	-0.741663	0.293179
H54	H	-1.582843	-0.741675	0.403614
H55	H	-1.448389	-0.640393	0.538185
H56	H	-1.337855	-0.640396	0.427768
H57	H	-1.324815	-0.706351	0.551284
H58	H	-2.113779	-0.186511	-0.237730
H59	H	-1.311990	0.000005	0.183420
C60	C	-2.147692	-0.824079	-0.271418
C61	C	-2.256175	-0.772410	-0.379789
C62	C	-2.380268	-0.811877	-0.503680
H63	H	-2.097859	-0.855006	-0.332014
H64	H	-2.208138	-0.854966	-0.221344
H65	H	-2.195737	-0.741536	-0.429861
H66	H	-2.306048	-0.741482	-0.319243
H67	H	-2.440715	-0.842763	-0.453605
H68	H	-2.330421	-0.842802	-0.564262
H69	H	-2.453898	-0.776826	-0.577215
C70	C	-2.147599	-0.340901	-0.271431
C71	C	-2.256076	-0.289236	-0.379821
C72	C	-2.380149	-0.328707	-0.503723
H73	H	-2.097748	-0.371827	-0.332010
H74	H	-2.208054	-0.371789	-0.221368
H75	H	-2.195629	-0.258362	-0.429881
H76	H	-2.305969	-0.258308	-0.319292
H77	H	-2.440604	-0.359595	-0.453660
H78	H	-2.330282	-0.359632	-0.564289
H79	H	-2.453774	-0.293659	-0.577271
H80	H	-1.664499	-0.813490	0.211434
H81	H	-1.664369	-0.186538	0.211418
C82	C	-1.630989	-0.341200	0.244939
C83	C	-1.657538	-0.419079	0.218480
C84	C	-1.533902	-0.458864	0.342184
H85	H	-1.524807	-0.328321	0.240655
H86	H	-1.635318	-0.328246	0.351094
H87	H	-1.653193	-0.432027	0.112353
H88	H	-1.763696	-0.431981	0.222780
H89	H	-1.538231	-0.445911	0.448339
H90	H	-1.427728	-0.445979	0.337890
H91	H	-1.551907	-0.511709	0.324258
H92	H	-2.113870	-0.669693	-0.237726
C93	C	-1.649314	0.000125	-0.403072
C94	C	-1.562985	0.064886	-0.421443
C95	C	-1.403902	0.065020	-0.299579
H96	H	-1.658882	0.000168	-0.295770
H97	H	-1.590377	-0.043756	-0.415270
H98	H	-1.621907	0.108755	-0.409231
H99	H	-1.553372	0.064857	-0.528719
H100	H	-1.344966	0.021139	-0.311777
H101	H	-1.413487	0.065061	-0.192285
H102	H	-1.345303	0.108955	-0.312037
