data_functionalizedCrystal
_audit_creation_method	'MofGen! by Chris Wilmer'
_symmetry_space_group_name_H-M	'P1'
_symmetry_Int_Tables_number	1
_symmetry_cell_setting	triclinic
loop_
_symmetry_equiv_pos_as_xyz
  x,y,z
_cell_length_a	15.995350
_cell_length_b	19.188930
_cell_length_c	15.072220
_cell_angle_alpha	89.993728
_cell_angle_beta	89.991149
_cell_angle_gamma	83.318578
loop_
_atom_site_label
_atom_site_type_symbol
_atom_site_fract_x
_atom_site_fract_y
_atom_site_fract_z
O1	O	1.110666	0.089991	-0.073718
O2	O	1.610666	0.589991	0.426282
O3	O	0.866850	0.101105	-0.073737
O4	O	1.366850	0.601105	0.426263
O5	O	0.995794	-0.006090	-0.073709
O6	O	1.495794	0.493910	0.426291
O7	O	0.981722	0.197186	-0.073745
O8	O	1.481722	0.697186	0.426255
O9	O	0.995763	-0.006084	0.073856
O10	O	1.495763	0.493916	0.573856
O11	O	0.866819	0.101111	0.073828
O12	O	1.366819	0.601111	0.573828
O13	O	1.110634	0.089997	0.073848
O14	O	1.610634	0.589997	0.573848
Zn15	Zn	0.988721	0.095555	0.097267
Zn16	Zn	1.488721	0.595555	0.597267
Zn17	Zn	0.988763	0.095547	-0.097156
Zn18	Zn	1.488763	0.595547	0.402844
O19	O	0.981690	0.197192	0.073820
O20	O	1.481690	0.697192	0.573820
C21	C	0.835641	0.100648	0.000043
C22	C	1.335641	0.600648	0.500043
C23	C	0.742696	0.099271	0.000037
C24	C	1.242696	0.599271	0.500037
C25	C	0.404967	0.094324	0.000056
C26	C	0.904967	0.594324	0.500056
C27	C	0.452680	0.017982	0.000398
C28	C	0.952680	0.517982	0.500398
C29	C	0.549365	0.019360	0.000059
C30	C	1.049365	0.519360	0.500059
C31	C	0.572518	0.096778	0.000047
C32	C	1.072518	0.596778	0.500047
C33	C	0.531311	0.134429	-0.084223
C34	C	1.031311	0.634429	0.415777
C35	C	0.434683	0.132511	-0.084287
C36	C	0.934683	0.632511	0.415713
C37	C	0.434302	0.134095	0.083522
C38	C	0.934302	0.634095	0.583522
C39	C	0.531247	0.134077	0.084629
C40	C	1.031247	0.634077	0.584629
C41	C	0.667211	0.098169	0.000039
C42	C	1.167211	0.598169	0.500039
C43	C	0.310274	0.092936	0.000058
C44	C	0.810274	0.592936	0.500058
C45	C	0.995323	-0.032099	0.000076
C46	C	1.495323	0.467901	0.500076
C47	C	0.993955	-0.109607	0.000083
C48	C	1.493955	0.390393	0.500083
C49	C	1.069615	-0.154338	0.000093
C50	C	1.569615	0.345662	0.500093
C51	C	1.068330	-0.227165	0.000079
C52	C	1.568330	0.272835	0.500079
C53	C	0.991380	-0.255258	0.000072
C54	C	1.491380	0.244742	0.500072
C55	C	0.915710	-0.210517	0.000057
C56	C	1.415710	0.289483	0.500057
C57	C	0.916997	-0.137691	0.000062
C58	C	1.416997	0.362309	0.500062
N59	N	0.932550	-0.363410	0.050287
N60	N	1.432550	0.136590	0.550287
N61	N	0.931333	-0.432592	0.050284
N62	N	1.431333	0.067408	0.550284
C63	C	0.987497	-0.474676	0.000054
C64	C	1.487497	0.025324	0.500054
N65	N	1.044937	-0.444966	-0.050161
N66	N	1.544937	0.055034	0.449839
N67	N	1.046158	-0.375779	-0.050154
N68	N	1.546158	0.124221	0.449846
C69	C	0.989976	-0.334224	0.000066
C70	C	1.489976	0.165776	0.500066
C71	C	1.061769	-0.598375	0.000048
C72	C	1.561769	-0.098375	0.500048
C73	C	1.060480	-0.671204	0.000028
C74	C	1.560480	-0.171204	0.500028
C75	C	0.907859	-0.654553	0.000015
C76	C	1.407859	-0.154553	0.500015
C77	C	0.909149	-0.581727	0.000025
C78	C	1.409149	-0.081727	0.500025
C79	C	0.986106	-0.553643	0.000046
C80	C	1.486106	-0.053643	0.500046
C81	C	1.141843	0.090454	0.000065
C82	C	1.641843	0.590454	0.500065
C83	C	1.234789	0.091831	0.000066
C84	C	1.734789	0.591831	0.500066
C85	C	0.982162	0.223201	0.000033
C86	C	1.482162	0.723201	0.500033
C87	C	0.983530	0.300709	0.000019
C88	C	1.483530	0.800709	0.500019
N89	N	0.988699	0.095560	0.229956
N90	N	1.488699	0.595560	0.729956
N91	N	0.988792	0.095537	-0.229845
N92	N	1.488792	0.595537	0.270155
C93	C	0.988762	0.095544	0.589157
C94	C	1.488762	0.595544	1.089157
C95	C	0.919536	0.152710	0.551535
C96	C	1.419536	0.652710	1.051535
C97	C	0.919693	0.152918	0.448710
C98	C	1.419693	0.652918	0.948710
C99	C	0.988730	0.095552	0.410953
C100	C	1.488730	0.595552	0.910953
C101	C	1.076036	0.111464	0.448248
C102	C	1.576036	0.611464	0.948248
C103	C	1.075648	0.111870	0.551106
C104	C	1.575648	0.611870	1.051106
C105	C	0.971460	0.022298	0.551269
C106	C	1.471460	0.522298	1.051269
C107	C	0.969454	0.022787	0.448405
C108	C	1.469454	0.522787	0.948405
C109	C	0.988717	0.095555	0.310240
C110	C	1.488717	0.595555	0.810240
C111	C	0.988780	0.095543	0.689871
C112	C	1.488780	0.595543	1.189871
H113	H	0.402230	0.188560	-0.088121
H114	H	0.902230	0.688560	0.411879
H115	H	0.577345	-0.010441	-0.060444
H116	H	1.077345	0.489559	0.439556
N117	N	0.832710	-0.240806	0.000051
N118	N	1.332710	0.259194	0.500051
H119	H	0.828786	-0.270647	-0.054652
H120	H	1.328786	0.229353	0.445348
H121	H	0.828810	-0.270619	0.054789
H122	H	1.328810	0.229381	0.554789
H123	H	0.855384	-0.101270	0.000054
H124	H	1.355384	0.398730	0.500054
H125	H	0.413844	0.109140	0.147396
H126	H	0.913844	0.609140	0.647396
N127	N	0.587146	-0.019853	0.080072
N128	N	1.087146	0.480147	0.580072
H129	H	0.628643	-0.060487	0.059950
H130	H	1.128643	0.439513	0.559950
H131	H	0.617062	0.012888	0.117966
H132	H	1.117062	0.512888	0.617966
N133	N	1.144767	-0.568077	0.000066
N134	N	1.644767	-0.068077	0.500066
H135	H	1.192504	-0.607469	0.000063
H136	H	1.692504	-0.107469	0.500063
H137	H	1.148637	-0.538215	-0.054633
H138	H	1.648637	-0.038215	0.445367
H139	H	1.122095	-0.707624	0.000031
H140	H	1.622095	-0.207624	0.500031
N141	N	0.824861	-0.684842	-0.000003
N142	N	1.324861	-0.184842	0.499997
H143	H	0.835524	-0.737765	-0.000008
H144	H	1.335524	-0.237765	0.499992
H145	H	0.791749	-0.668485	0.054699
H146	H	1.291749	-0.168485	0.554699
N147	N	1.038327	-0.034050	0.583512
N148	N	1.538327	0.465950	1.083512
H149	H	1.011112	-0.070113	0.618729
H150	H	1.511112	0.429887	1.118729
H151	H	1.069019	-0.057456	0.530908
H152	H	1.569019	0.442544	1.030908
N153	N	1.149937	-0.275423	0.000088
N154	N	1.649937	0.224577	0.500088
H155	H	1.198883	-0.246581	0.000101
H156	H	1.698883	0.253419	0.500101
H157	H	1.152707	-0.306006	0.054792
H158	H	1.652707	0.193994	0.554792
H159	H	0.559795	0.108273	-0.146930
H160	H	1.059795	0.608273	0.353070
N161	N	1.145889	0.058809	0.584102
N162	N	1.645889	0.558809	1.084102
H163	H	1.136959	0.010621	0.561714
H164	H	1.636959	0.510621	1.061714
H165	H	1.201567	0.071648	0.561583
H166	H	1.701567	0.571648	1.061583
N167	N	0.391953	0.208650	0.084287
N168	N	0.891953	0.708650	0.584287
H169	H	0.436104	0.242208	0.082316
H170	H	0.936104	0.742208	0.582316
H171	H	0.353943	0.216597	0.030855
H172	H	0.853943	0.716597	0.530855
N173	N	0.934246	0.224954	0.416189
N174	N	1.434246	0.724954	0.916189
H175	H	0.987167	0.221361	0.379098
H176	H	1.487167	0.721361	0.879098
H177	H	0.884687	0.245120	0.379060
H178	H	1.384687	0.745120	0.879060
N179	N	0.549754	0.209766	-0.088403
N180	N	1.049754	0.709766	0.411597
H181	H	0.526332	0.235626	-0.033823
H182	H	1.026332	0.735626	0.466177
H183	H	0.612630	0.211140	-0.091126
H184	H	1.112630	0.711140	0.408874
H185	H	0.558651	0.106592	0.146972
H186	H	1.058651	0.606592	0.646972
N187	N	0.551314	0.208862	0.091365
N188	N	1.051314	0.708862	0.591365
H189	H	0.614297	0.209282	0.095120
H190	H	1.114297	0.709282	0.595120
H191	H	0.529051	0.235911	0.037186
H192	H	1.029051	0.735911	0.537186
H193	H	1.132280	-0.131477	0.000107
H194	H	1.632280	0.368523	0.500107
N195	N	1.145892	0.057781	0.415862
N196	N	1.645892	0.557781	0.915862
H197	H	1.121558	0.022546	0.376606
H198	H	1.621558	0.522546	0.876606
H199	H	1.187955	0.082105	0.380970
H200	H	1.687955	0.582105	0.880970
N201	N	0.827546	-0.533472	0.000025
N202	N	1.327546	-0.033472	0.500025
H203	H	0.793972	-0.542500	-0.054680
H204	H	1.293972	-0.042500	0.445320
H205	H	0.794017	-0.542534	0.054761
H206	H	1.294017	-0.042534	0.554761
N207	N	0.428284	-0.022438	0.080453
N208	N	0.928284	0.477562	0.580453
H209	H	0.386062	0.008342	0.117275
H210	H	0.886062	0.508342	0.617275
H211	H	0.402506	-0.065364	0.060288
H212	H	0.902506	0.434636	0.560288
H213	H	0.854788	0.143438	0.423496
H214	H	1.354788	0.643438	0.923496
N215	N	0.410569	0.096131	-0.167709
N216	N	0.910569	0.596131	0.332291
H217	H	0.427580	0.122760	-0.221314
H218	H	0.927580	0.622760	0.278686
H219	H	0.440298	0.046737	-0.169042
H220	H	0.940298	0.546737	0.330958
H221	H	0.930403	0.206759	0.577365
H222	H	1.430403	0.706759	1.077365
N223	N	0.833279	0.140367	0.584329
N224	N	1.333279	0.640367	1.084329
H225	H	0.838234	0.097602	0.623894
H226	H	1.338234	0.597602	1.123894
H227	H	0.807873	0.182661	0.618991
H228	H	1.307873	0.682661	1.118991
N229	N	1.096788	0.181413	0.414107
N230	N	1.596788	0.681413	0.914107
H231	H	1.049763	0.202890	0.374491
H232	H	1.549763	0.702890	0.874491
H233	H	1.103523	0.213724	0.465853
H234	H	1.603523	0.713724	0.965853
H235	H	1.090935	0.165288	0.575079
H236	H	1.590935	0.665288	1.075079
H237	H	0.909194	0.006998	0.577257
H238	H	1.409194	0.506998	1.077257
N239	N	0.884356	0.006811	0.416182
N240	N	1.384356	0.506811	0.916182
H241	H	0.858396	0.046534	0.377477
H242	H	1.358396	0.546534	0.877477
H243	H	0.891194	-0.038167	0.380760
H244	H	1.391194	0.461833	0.880760
N245	N	1.031935	-0.036204	0.414379
N246	N	1.531935	0.463796	0.914379
H247	H	1.001199	-0.070681	0.380233
H248	H	1.501199	0.429319	0.880233
H249	H	1.073789	-0.016448	0.374064
H250	H	1.573789	0.483552	0.874064
N251	N	0.426875	-0.022271	-0.079177
N252	N	0.926875	0.477729	0.420823
H253	H	0.384413	0.008731	-0.115448
H254	H	0.884413	0.508731	0.384552
H255	H	0.478035	-0.037505	-0.116748
H256	H	0.978035	0.462495	0.383252
