data_functionalizedCrystal
_audit_creation_method	'MofGen! by Chris Wilmer'
_symmetry_space_group_name_H-M	'P1'
_symmetry_Int_Tables_number	1
_symmetry_cell_setting	triclinic
loop_
_symmetry_equiv_pos_as_xyz
  x,y,z
_cell_length_a	18.760492
_cell_length_b	20.875641
_cell_length_c	20.875641
_cell_angle_alpha	89.846015
_cell_angle_beta	57.588317
_cell_angle_gamma	57.589356
loop_
_atom_site_label
_atom_site_type_symbol
_atom_site_fract_x
_atom_site_fract_y
_atom_site_fract_z
Zr1	Zr	0.733278	-0.063078	0.639048
O2	O	0.900021	-0.173616	0.528506
O3	O	0.579037	-0.029188	0.672938
O4	O	0.739529	-0.168313	0.667631
O5	O	0.730238	0.075249	0.537996
O6	O	0.730238	-0.164135	0.777371
O7	O	0.739529	-0.034491	0.533813
O8	O	0.443147	0.084735	0.786865
O9	O	1.017329	-0.173620	0.528502
O10	O	0.630914	-0.011621	0.769286
O11	O	0.630914	0.067159	0.690509
O12	O	0.819873	-0.096643	0.684260
O13	O	0.819873	-0.017864	0.605484
Zr14	Zr	0.703641	0.118609	0.820741
Zr15	Zr	0.718460	-0.056413	0.814070
Zr16	Zr	0.718459	0.111945	0.645718
Zr17	Zr	0.920370	-0.063085	0.639041
Zr18	Zr	0.516549	0.118616	0.820747
O19	O	0.857882	0.084720	0.786850
O20	O	0.878952	-0.164140	0.777366
O21	O	0.878951	0.075244	0.537991
O22	O	0.536898	0.229147	0.931282
O23	O	0.557968	-0.019712	0.921798
O24	O	0.557967	0.219671	0.682423
O25	O	0.706681	-0.019718	0.921793
O26	O	0.697390	0.223845	0.792158
O27	O	0.706681	0.219666	0.682418
O28	O	0.697390	0.090022	0.925975
O29	O	1.005551	-0.168323	0.667622
O30	O	0.431368	0.223854	0.792167
O31	O	0.419590	0.229152	0.931287
O32	O	0.431369	0.090032	0.925984
O33	O	1.005550	-0.034501	0.533804
O34	O	0.993772	-0.029203	0.672924
O35	O	0.617046	0.152175	0.775528
O36	O	0.617046	0.073396	0.854305
O37	O	0.806005	-0.011627	0.769279
O38	O	0.806005	0.067152	0.690503
C39	C	0.484436	0.027774	0.729902
C40	C	0.405010	0.027777	0.729905
C41	C	0.736995	0.019430	0.510968
C42	C	0.743285	0.016600	0.436666
C43	C	0.699924	0.246692	0.738238
C44	C	0.693633	0.320994	0.741070
C45	C	0.069218	0.068880	0.688763
C46	C	0.069223	-0.013367	0.771007
C47	C	0.143838	-0.013362	0.771013
C48	C	0.181147	0.027764	0.729893
C49	C	0.143842	0.068884	0.688766
C50	C	0.181157	-0.054489	0.812132
C51	C	0.255777	-0.054486	0.812139
C52	C	0.293082	-0.013355	0.771023
C53	C	0.255771	0.027768	0.729896
C54	C	0.293081	0.068893	0.688775
C55	C	0.255766	0.110022	0.647652
C56	C	0.181147	0.110015	0.647650
C57	C	0.367700	-0.013349	0.771026
C58	C	0.367705	0.068898	0.688778
C59	C	0.952483	0.027757	0.729886
C60	C	1.031909	0.027754	0.729883
C61	C	0.736995	-0.191161	0.721551
C62	C	0.743286	-0.265463	0.718719
C63	C	0.789309	0.311523	0.698020
C64	C	0.783392	0.381340	0.700677
C65	C	0.681798	0.460628	0.746390
C66	C	0.586114	0.470098	0.789441
C67	C	0.592033	0.400281	0.786779
C68	C	0.653521	0.674191	0.759108
C69	C	0.647610	0.744009	0.761769
C70	C	0.844889	0.655246	0.673003
C71	C	0.850798	0.585432	0.670349
C72	C	0.755115	0.594908	0.713396
N73	N	0.675747	0.531993	0.749109
N74	N	0.761167	0.523543	0.710672
C75	C	0.647609	0.059648	0.446139
C76	C	0.653526	0.056987	0.376322
C77	C	0.755121	0.011275	0.297032
C78	C	0.850804	-0.031774	0.287561
C79	C	0.844886	-0.029109	0.357378
C80	C	0.783398	-0.001452	0.083468
C81	C	0.789310	-0.004116	0.013650
C82	C	0.592031	0.084647	0.102416
C83	C	0.586122	0.087304	0.172229
C84	C	0.681805	0.044259	0.162752
N85	N	0.761172	0.008552	0.225667
N86	N	0.675752	0.046987	0.234117
C87	C	0.699924	0.036102	0.948821
C88	C	0.693634	0.038931	1.023123
C89	C	0.465900	0.036110	0.948829
C90	C	0.380184	0.038943	1.023133
C91	C	0.465900	0.246701	0.738246
C92	C	0.380183	0.321005	0.741081
C93	C	0.447365	0.255037	0.957173
C94	C	0.355358	0.332171	1.034309
C95	C	0.989554	-0.199506	0.502616
C96	C	1.081561	-0.276639	0.425480
C97	C	0.971019	0.019421	0.510960
C98	C	1.056735	0.016589	0.436655
C99	C	0.971019	-0.191169	0.721542
C100	C	1.056736	-0.265474	0.718708
C101	C	0.347170	-0.004112	1.013648
C102	C	0.266643	-0.001468	1.083458
C103	C	0.219126	0.044237	1.162752
C104	C	0.252147	0.087293	1.172236
C105	C	0.332678	0.084643	1.102427
C106	C	0.332691	0.400284	0.786791
C107	C	0.252161	0.470108	0.789452
C108	C	0.219120	0.460651	0.746406
C109	C	0.266622	0.381363	0.700690
C110	C	0.347155	0.311541	0.698025
C111	C	0.312150	0.327272	1.111661
C112	C	0.225710	0.399741	1.184145
C113	C	0.182474	0.477108	1.179276
C114	C	0.225690	0.482005	1.101916
C115	C	0.312134	0.409537	1.029433
C116	C	1.124778	-0.271741	0.348128
C117	C	1.211242	-0.344209	0.275644
C118	C	1.254481	-0.421576	0.280513
C119	C	1.211260	-0.426473	0.357873
C120	C	1.124804	-0.354005	0.430355
C121	C	1.089757	0.059637	0.446140
C122	C	1.170306	0.056973	0.376330
C123	C	1.217827	0.011266	0.297035
C124	C	1.184802	-0.031787	0.287552
C125	C	1.104259	-0.029128	0.357361
C126	C	1.089750	-0.255990	0.761763
C127	C	1.170278	-0.325800	0.759116
C128	C	1.217795	-0.405093	0.713408
C129	C	1.184774	-0.414575	0.670352
C130	C	1.104242	-0.344766	0.673004
H131	H	0.398075	0.102389	0.655294
H132	H	0.503394	0.124513	0.236786
Br133	Br	0.306420	0.165824	0.591839
H134	H	1.077376	-0.064180	0.349627
H135	H	1.197154	-0.318063	0.794176
Br136	Br	1.059456	-0.357652	0.614558
H137	H	0.190475	0.545007	1.097963
H138	H	0.575616	0.092043	0.384042
Br139	Br	1.066157	-0.360669	0.535330
H140	H	0.872039	0.246966	0.660799
Br141	Br	0.187710	0.577702	0.851500
Br142	Br	0.130488	0.165840	0.591857
H143	H	0.514131	0.119692	0.110122
H144	H	0.861302	0.373620	0.665622
H145	H	0.347303	0.413537	0.966453
H146	H	1.089578	-0.208751	0.344147
Br147	Br	0.109822	0.555419	0.750031
H148	H	0.038830	0.102369	0.655284
Br149	Br	1.269878	-0.337544	0.170667
Br150	Br	0.974737	-0.087526	0.344520
Br151	Br	1.327090	-0.499826	0.709816
Br152	Br	1.025278	-0.148387	0.823801
Br153	Br	1.025285	0.121672	0.553745
H154	H	1.223505	-0.069001	0.222981
Br155	Br	0.411645	-0.066149	0.906043
Br156	Br	0.974737	0.642392	0.614582
H157	H	0.150783	-0.087977	0.845606
H158	H	1.246477	-0.489474	0.361828
Br159	Br	1.371817	-0.519920	0.182135
Br160	Br	0.018601	-0.069188	0.826800
Br161	Br	0.509724	0.121683	0.553742
H162	H	0.359582	0.408001	0.821845
Br163	Br	0.448234	0.577703	0.851474
Br164	Br	1.215106	0.115409	0.389220
H165	H	0.933527	0.520876	0.633126
Br166	Br	0.221768	0.368543	0.642275
Br167	Br	0.187645	0.149320	1.279856
H168	H	0.564875	0.808571	0.798993
H169	H	0.347339	0.264283	1.115641
Br170	Br	1.327135	0.007665	0.202301
H171	H	0.286153	-0.087974	0.845625
Br172	Br	0.418349	-0.069168	0.826823
H173	H	0.575609	0.681917	0.794163
Br174	Br	0.462181	0.413136	0.845201
H175	H	0.872045	-0.041345	-0.050913
Br176	Br	0.913255	-0.059872	0.070598
H177	H	1.223475	-0.479144	0.633138
H178	H	0.239768	-0.036530	1.075720
Br179	Br	0.109833	0.047824	1.257486
Br180	Br	0.377466	0.143086	1.115315
Br181	Br	0.988684	-0.093806	0.179954
H182	H	0.190532	0.395739	1.247128
Br183	Br	0.411597	0.203951	0.635987
Br184	Br	0.065156	0.575451	1.277654
