data_functionalizedCrystal
_audit_creation_method	'MofGen! by Chris Wilmer'
_symmetry_space_group_name_H-M	'P1'
_symmetry_Int_Tables_number	1
_symmetry_cell_setting	triclinic
loop_
_symmetry_equiv_pos_as_xyz
  x,y,z
_cell_length_a	19.188930
_cell_length_b	19.188933
_cell_length_c	16.053789
_cell_angle_alpha	92.894649
_cell_angle_beta	92.901023
_cell_angle_gamma	83.145175
loop_
_atom_site_label
_atom_site_type_symbol
_atom_site_fract_x
_atom_site_fract_y
_atom_site_fract_z
O1	O	0.089791	0.928761	0.069411
O2	O	0.589791	1.428761	0.569411
O3	O	0.101524	0.725450	0.069421
O4	O	0.601524	1.225450	0.569421
O5	O	-0.005999	0.832972	0.069399
O6	O	0.494001	1.332972	0.569399
O7	O	0.197314	0.821239	0.069433
O8	O	0.697314	1.321239	0.569433
O9	O	-0.011237	0.827727	-0.069461
O10	O	0.488763	1.327727	0.430539
O11	O	0.096286	0.720205	-0.069440
O12	O	0.596286	1.220205	0.430560
O13	O	0.084553	0.923516	-0.069449
O14	O	0.584553	1.423516	0.430551
Zn15	Zn	0.089588	0.821028	-0.091491
Zn16	Zn	0.589588	1.321028	0.408509
Zn17	Zn	0.096489	0.827938	0.091463
Zn18	Zn	0.596489	1.327938	0.591463
O19	O	0.192075	0.815994	-0.069427
O20	O	0.692075	1.315994	0.430573
C21	C	0.098525	0.696817	-0.000009
C22	C	0.598525	1.196817	0.499991
C23	C	0.097384	0.619313	-0.000006
C24	C	0.597384	1.119313	0.499994
C25	C	0.092093	0.068916	0.075676
C26	C	0.592093	0.568916	0.575676
C27	C	0.093161	0.141740	0.075680
C28	C	0.593161	0.641740	0.575680
C29	C	0.090844	0.175298	-0.000012
C30	C	0.590844	0.675298	0.499988
C31	C	0.087439	0.136028	-0.075714
C32	C	0.587439	0.636028	0.424286
C33	C	0.086364	0.063206	-0.075715
C34	C	0.586364	0.563206	0.424285
N35	N	0.130137	0.282190	-0.056347
N36	N	0.630137	0.782190	0.443653
N37	N	0.131160	0.351368	-0.056341
N38	N	0.631160	0.851368	0.443659
C39	C	0.094081	0.394707	-0.000013
C40	C	0.594081	0.894707	0.499987
N41	N	0.055950	0.366253	0.056320
N42	N	0.555950	0.866253	0.556320
N43	N	0.054930	0.297069	0.056316
N44	N	0.554930	0.797069	0.556316
C45	C	0.092009	0.254261	-0.000020
C46	C	0.592009	0.754261	0.499980
C47	C	0.098639	0.512933	0.075687
C48	C	0.598639	1.012933	0.575687
C49	C	0.099703	0.585759	0.075687
C50	C	0.599703	1.085759	0.575687
C51	C	0.093987	0.580045	-0.075709
C52	C	0.593987	1.080045	0.424291
C53	C	0.092917	0.507221	-0.075707
C54	C	0.592917	1.007221	0.424293
C55	C	0.095246	0.473669	-0.000007
C56	C	0.595246	0.973669	0.499993
C57	C	-0.034629	0.829970	-0.000033
C58	C	0.465371	1.329970	0.499967
C59	C	-0.112134	0.828829	-0.000040
C60	C	0.387866	1.328829	0.499960
C61	C	-0.157058	0.891919	-0.000047
C62	C	0.342942	1.391919	0.499953
C63	C	-0.229881	0.890848	-0.000033
C64	C	0.270119	1.390848	0.499967
C65	C	-0.257778	0.826682	-0.000030
C66	C	0.242222	1.326682	0.499970
C67	C	-0.212844	0.763583	-0.000019
C68	C	0.287156	1.263583	0.499981
C69	C	-0.140022	0.764657	-0.000024
C70	C	0.359978	1.264657	0.499976
N71	N	-0.367566	0.775850	-0.047285
N72	N	0.132434	1.275850	0.452715
N73	N	-0.436744	0.774835	-0.047282
N74	N	0.063256	1.274835	0.452718
C75	C	-0.477186	0.823445	-0.000013
C76	C	0.022814	1.323445	0.499987
N77	N	-0.445837	0.873119	0.047242
N78	N	0.054163	1.373119	0.547242
N79	N	-0.376653	0.874136	0.047235
N80	N	0.123347	1.374136	0.547235
C81	C	-0.336740	0.825511	-0.000024
C82	C	0.163260	1.325511	0.499976
C83	C	-0.601073	0.885378	-0.000004
C84	C	-0.101073	1.385378	0.499996
C85	C	-0.673898	0.884304	0.000015
C86	C	-0.173898	1.384304	0.500015
C87	C	-0.656859	0.757038	0.000021
C88	C	-0.156859	1.257038	0.500021
C89	C	-0.584037	0.758114	0.000011
C90	C	-0.084037	1.258114	0.500011
C91	C	-0.556148	0.822285	-0.000006
C92	C	-0.056148	1.322285	0.499994
C93	C	0.220706	0.818997	0.000007
C94	C	0.720706	1.318997	0.500007
C95	C	0.298211	0.820138	0.000019
C96	C	0.798211	1.320138	0.500019
C97	C	0.087552	0.952150	-0.000018
C98	C	0.587552	1.452150	0.499982
C99	C	0.088693	1.029654	-0.000015
C100	C	0.588693	1.529654	0.499985
N101	N	0.084877	0.816317	-0.216352
N102	N	0.584877	1.316317	0.283648
C103	C	0.125473	0.856883	-0.260038
C104	C	0.625473	1.356883	0.239962
C105	C	0.122174	0.853597	-0.347445
C106	C	0.622174	1.353597	0.152555
C107	C	0.078281	0.809741	-0.391166
C108	C	0.578281	1.309741	0.108834
C109	C	0.037680	0.769173	-0.347474
C110	C	0.537680	1.269173	0.152526
C111	C	0.040977	0.772463	-0.260068
C112	C	0.540977	1.272463	0.239932
C113	C	0.063889	0.795377	-0.652578
C114	C	0.563889	1.295377	-0.152578
C115	C	0.060598	0.792089	-0.739990
C116	C	0.560598	1.292089	-0.239990
C117	C	0.145090	0.876514	-0.739955
C118	C	0.645090	1.376514	-0.239955
C119	C	0.148386	0.879798	-0.652548
C120	C	0.648386	1.379798	-0.152548
C121	C	0.107782	0.839233	-0.608864
C122	C	0.607782	1.339233	-0.108864
N123	N	0.074909	0.806379	-0.480510
N124	N	0.574909	1.306379	0.019490
N125	N	0.111151	0.842598	-0.519521
N126	N	0.611151	1.342598	-0.019521
N127	N	0.101194	0.832655	0.216324
N128	N	0.601194	1.332655	0.716324
H129	H	-0.134356	0.944173	-0.000058
H130	H	0.365644	1.444173	0.499942
O131	O	0.091700	0.612528	-0.149312
O132	O	0.591700	1.112528	0.350688
C133	C	0.088492	0.562250	-0.216122
C134	C	0.588492	1.062250	0.283878
H135	H	0.066465	0.514135	-0.193934
H136	H	0.566465	1.014135	0.306066
H137	H	0.052913	0.585829	-0.269067
H138	H	0.552913	1.085829	0.230933
H139	H	0.143500	0.546132	-0.239390
H140	H	0.643500	1.046132	0.260610
O141	O	-0.683909	0.694694	0.000173
O142	O	-0.183909	1.194694	0.500173
C143	C	-0.658191	0.658956	0.072080
C144	C	-0.158191	1.158956	0.572080
H145	H	-0.641252	0.698382	0.122341
H146	H	-0.141252	1.198382	0.622341
H147	H	-0.701302	0.630297	0.096228
H148	H	-0.201302	1.130297	0.596228
H149	H	-0.611226	0.619290	0.055819
H150	H	-0.111226	1.119290	0.555819
O151	O	0.085098	0.168714	-0.149188
O152	O	0.585098	0.668714	0.350812
C153	C	0.025086	0.218750	-0.153731
C154	C	0.525086	0.718750	0.346269
H155	H	0.007575	0.234837	-0.088011
H156	H	0.507575	0.734837	0.411989
H157	H	0.038230	0.266929	-0.185765
H158	H	0.538230	0.766929	0.314235
H159	H	-0.019073	0.194945	-0.191090
H160	H	0.480927	0.694945	0.308910
O161	O	0.089712	0.468988	-0.149179
O162	O	0.589712	0.968988	0.350821
C163	C	0.149381	0.418610	-0.153714
C164	C	0.649381	0.918610	0.346286
H165	H	0.171861	0.407484	-0.087991
H166	H	0.671861	0.907484	0.412009
H167	H	0.133815	0.368012	-0.185747
H168	H	0.633815	0.868012	0.314253
H169	H	0.190717	0.439594	-0.191069
H170	H	0.690717	0.939594	0.308931
H171	H	0.030827	0.762347	-0.617022
H172	H	0.530827	1.262347	-0.117022
O173	O	0.096597	0.179843	0.149230
O174	O	0.596597	0.679843	0.649230
C175	C	0.158526	0.155679	0.195283
C176	C	0.658526	0.655679	0.695283
H177	H	0.198803	0.128325	0.150990
H178	H	0.698803	0.628325	0.650990
H179	H	0.180831	0.202148	0.229610
H180	H	0.680831	0.702148	0.729610
H181	H	0.146020	0.117025	0.242488
H182	H	0.646020	0.617025	0.742488
O183	O	-0.273432	0.952200	-0.000080
O184	O	0.226568	1.452200	0.499920
C185	C	-0.233201	1.009069	-0.000071
C186	C	0.266799	1.509069	0.499929
H187	H	-0.179787	0.990189	-0.026358
H188	H	0.320213	1.490189	0.473642
H189	H	-0.261727	1.051734	-0.040393
H190	H	0.238273	1.551734	0.459607
H191	H	-0.225555	1.031271	0.066544
H192	H	0.274445	1.531271	0.566544
H193	H	0.093987	0.041603	0.137317
H194	H	0.593987	0.541603	0.637317
H195	H	0.161220	0.892592	-0.224447
H196	H	0.661220	1.392592	0.275553
O197	O	-0.717441	0.945657	-0.000028
O198	O	-0.217441	1.445657	0.499972
C199	C	-0.677206	1.002523	-0.000024
C200	C	-0.177206	1.502523	0.499976
H201	H	-0.623795	0.983639	-0.026317
H202	H	-0.123795	1.483639	0.473683
H203	H	-0.705732	1.045190	-0.040344
H204	H	-0.205732	1.545190	0.459656
H205	H	-0.669554	1.024725	0.066589
H206	H	-0.169554	1.524725	0.566589
O207	O	0.083095	0.025164	-0.149320
O208	O	0.583095	0.525164	0.350680
C209	C	0.081256	0.070397	-0.216130
C210	C	0.581256	0.570397	0.283870
H211	H	0.104957	0.120189	-0.193938
H212	H	0.604957	0.620189	0.306062
H213	H	0.112837	0.042823	-0.269067
H214	H	0.612837	0.542823	0.230933
H215	H	0.024490	0.084757	-0.239411
H216	H	0.524490	0.584757	0.260589
O217	O	0.184594	0.915946	-0.782261
O218	O	0.684594	1.415946	-0.282261
C219	C	0.224025	0.955375	-0.724928
C220	C	0.724025	1.455375	-0.224928
H221	H	0.230522	0.928804	-0.662628
H222	H	0.730522	1.428804	-0.162628
H223	H	0.277966	0.958590	-0.750171
H224	H	0.777966	1.458590	-0.250171
H225	H	0.195473	1.010615	-0.715627
H226	H	0.695473	1.510615	-0.215627
O227	O	0.100872	0.480451	0.149292
O228	O	0.600872	0.980451	0.649292
C229	C	0.104114	0.530723	0.216103
C230	C	0.604114	1.030723	0.716103
H231	H	0.081937	0.584753	0.193912
H232	H	0.581937	1.084753	0.693912
H233	H	0.071918	0.516213	0.269042
H234	H	0.571918	1.016213	0.769042
H235	H	0.161109	0.531855	0.239380
H236	H	0.661109	1.031855	0.739380
H237	H	0.102466	0.617726	0.137327
H238	H	0.602466	1.117726	0.637327
H239	H	-0.235562	0.711339	-0.000014
H240	H	0.264438	1.211339	0.499986
H241	H	0.024855	0.756372	-0.775585
H242	H	0.524855	1.256372	-0.275585
H243	H	-0.103444	0.713279	-0.000018
H244	H	0.396556	1.213279	0.499982
H245	H	-0.578366	0.937631	-0.000014
H246	H	-0.078366	1.437631	0.499986
O247	O	-0.540361	0.696850	0.000156
O248	O	-0.040361	1.196850	0.500156
C249	C	-0.494991	0.696386	0.072060
C250	C	0.005009	1.196386	0.572060
H251	H	-0.519866	0.734071	0.122325
H252	H	-0.019866	1.234071	0.622325
H253	H	-0.485718	0.641032	0.096203
H254	H	0.014282	1.141032	0.596203
H255	H	-0.442705	0.713679	0.055795
H256	H	0.057295	1.213679	0.555795
O257	O	0.161683	0.893023	-0.389751
O258	O	0.661683	1.393023	0.110249
C259	C	0.201121	0.932445	-0.332420
C260	C	0.701121	1.432445	0.167580
H261	H	0.207613	0.905875	-0.270118
H262	H	0.707613	1.405875	0.229882
H263	H	0.255064	0.935649	-0.357662
H264	H	0.755064	1.435649	0.142338
H265	H	0.172579	0.987689	-0.323120
H266	H	0.672579	1.487689	0.176880
H267	H	0.184126	0.915512	-0.616956
H268	H	0.684126	1.415512	-0.116956
H269	H	0.001939	0.733467	-0.383078
H270	H	0.501939	1.233467	0.116922
H271	H	0.007919	0.739429	-0.224501
H272	H	0.507919	1.239429	0.275499
