data_functionalizedCrystal
_audit_creation_method	'MofGen! by Chris Wilmer'
_symmetry_space_group_name_H-M	'P1'
_symmetry_Int_Tables_number	1
_symmetry_cell_setting	triclinic
loop_
_symmetry_equiv_pos_as_xyz
  x,y,z
_cell_length_a	10.685980
_cell_length_b	13.897447
_cell_length_c	13.897441
_cell_angle_alpha	90.028354
_cell_angle_beta	94.393822
_cell_angle_gamma	94.386237
loop_
_atom_site_label
_atom_site_type_symbol
_atom_site_fract_x
_atom_site_fract_y
_atom_site_fract_z
Zn1	Zn	1.929196	-0.270991	0.658612
Zn2	Zn	2.262530	0.062342	0.991945
Zn3	Zn	2.595863	0.395676	1.325279
Zn4	Zn	1.929059	-0.432318	0.497309
Zn5	Zn	2.262392	-0.098985	0.830642
Zn6	Zn	2.595725	0.234349	1.163975
Zn7	Zn	1.718174	-0.283391	0.484946
Zn8	Zn	2.051507	0.049942	0.818279
Zn9	Zn	2.384840	0.383276	1.151612
Zn10	Zn	1.718135	-0.444609	0.646183
Zn11	Zn	2.051469	-0.111275	0.979516
Zn12	Zn	2.384802	0.222058	1.312849
O13	O	1.823641	-0.357827	0.571762
O14	O	2.156974	-0.024494	0.905096
O15	O	2.490308	0.308840	1.238429
O16	O	2.105764	-0.282058	0.647590
O17	O	2.439097	0.051275	0.980924
O18	O	2.772431	0.384609	1.314257
O19	O	1.901043	-0.412608	0.360685
O20	O	2.234376	-0.079275	0.694018
O21	O	2.567710	0.254058	1.027351
O22	O	1.746240	-0.146760	0.508011
O23	O	2.079573	0.186573	0.841344
O24	O	2.412907	0.519906	1.174677
O25	O	2.105663	-0.400584	0.529082
O26	O	2.438996	-0.067251	0.862415
O27	O	2.772330	0.266082	1.195748
O28	O	1.901277	-0.137650	0.635602
O29	O	2.234611	0.195683	0.968936
O30	O	2.567944	0.529017	1.302269
O31	O	1.746107	-0.303192	0.351601
O32	O	2.079440	0.030141	0.684935
O33	O	2.412773	0.363474	1.018268
O34	O	1.541583	-0.315110	0.495958
O35	O	1.874916	0.018223	0.829292
O36	O	2.208249	0.351556	1.162625
O37	O	1.746174	-0.421532	0.782815
O38	O	2.079508	-0.088199	1.116149
O39	O	2.412841	0.245135	1.449482
O40	O	1.541554	-0.433556	0.614418
O41	O	1.874888	-0.100223	0.947752
O42	O	2.208221	0.233111	1.281085
O43	O	1.901240	-0.293976	0.791947
O44	O	2.234573	0.039358	1.125281
O45	O	2.567907	0.372691	1.458614
O46	O	1.901006	-0.568934	0.517030
O47	O	2.234339	-0.235601	0.850363
O48	O	2.567672	0.097732	1.183696
O49	O	1.746041	-0.577964	0.626406
O50	O	2.079374	-0.244631	0.959740
O51	O	2.412708	0.088703	1.293073
C52	C	1.495782	-0.377013	0.552499
C53	C	1.829115	-0.043680	0.885832
C54	C	2.162448	0.289654	1.219165
C55	C	1.355522	-0.385244	0.544280
C56	C	1.688855	-0.051911	0.877614
C57	C	2.022189	0.281423	1.210947
C58	C	1.823538	-0.608448	0.571734
C59	C	2.156872	-0.275114	0.905067
C60	C	2.490205	0.058219	1.238401
C61	C	1.823610	-0.715657	0.571761
C62	C	2.156943	-0.382324	0.905094
C63	C	2.490277	-0.048991	1.238427
C64	C	1.823671	-0.802723	0.571786
C65	C	2.157004	-0.469390	0.905120
C66	C	2.490338	-0.136057	1.238453
C67	C	1.823759	-0.911951	0.571816
C68	C	2.157093	-0.578617	0.905150
C69	C	2.490426	-0.245284	1.238483
C70	C	2.152781	-0.338567	0.591102
C71	C	2.486114	-0.005234	0.924435
C72	C	2.819447	0.328100	1.257768
C73	C	2.293040	-0.330360	0.599343
C74	C	2.626374	0.002974	0.932676
C75	C	2.959707	0.336307	1.266010
C76	C	1.823718	-0.357742	0.823360
C77	C	2.157052	-0.024408	1.156693
C78	C	2.490385	0.308925	1.490027
C79	C	1.823751	-0.357705	0.930576
C80	C	2.157085	-0.024372	1.263909
C81	C	2.490418	0.308961	1.597242
C82	C	1.823778	-0.106226	0.571814
C83	C	2.157112	0.227107	0.905147
C84	C	2.490445	0.560441	1.238480
C85	C	1.823837	0.000991	0.571836
C86	C	2.157170	0.334325	0.905169
C87	C	2.490504	0.667658	1.238502
C88	C	1.823637	-0.357838	0.321148
C89	C	2.156970	-0.024505	0.654481
C90	C	2.490303	0.308828	0.987814
C91	C	1.823848	-0.357589	0.213947
C92	C	2.157182	-0.024256	0.547280
C93	C	2.490515	0.309078	0.880613
C94	C	1.823777	-0.357676	1.017647
C95	C	2.157110	-0.024343	1.350980
C96	C	2.490444	0.308990	1.684314
C97	C	1.823813	-0.357631	1.126882
C98	C	2.157147	-0.024298	1.460215
C99	C	2.490480	0.309036	1.793549
H100	H	1.301706	-0.438533	0.490844
H101	H	1.635040	-0.105200	0.824177
H102	H	1.968373	0.228134	1.157510
Cl103	Cl	1.376114	-0.248079	0.681835
Cl104	Cl	1.709447	0.085254	1.015168
Cl105	Cl	2.042781	0.418587	1.348501
