data_functionalizedCrystal
_audit_creation_method	'MofGen! by Chris Wilmer'
_symmetry_space_group_name_H-M	'P1'
_symmetry_Int_Tables_number	1
_symmetry_cell_setting	triclinic
loop_
_symmetry_equiv_pos_as_xyz
  x,y,z
_cell_length_a	13.262390
_cell_length_b	13.339070
_cell_length_c	16.176319
_cell_angle_alpha	89.996815
_cell_angle_beta	74.075302
_cell_angle_gamma	99.429367
loop_
_atom_site_label
_atom_site_type_symbol
_atom_site_fract_x
_atom_site_fract_y
_atom_site_fract_z
O1	O	1.432462	0.136444	-0.390829
O2	O	1.932462	0.636444	0.109171
O3	O	1.131186	0.151275	-0.323089
O4	O	1.631186	0.651275	0.176911
O5	O	1.247247	-0.003550	-0.349182
O6	O	1.747247	0.496450	0.150818
O7	O	1.316401	0.291269	-0.364736
O8	O	1.816401	0.791269	0.135264
O9	O	1.247222	-0.003560	-0.211684
O10	O	1.747222	0.496440	0.288316
O11	O	1.131161	0.151265	-0.185591
O12	O	1.631161	0.651265	0.314409
O13	O	1.432437	0.136434	-0.253330
O14	O	1.932437	0.636434	0.246670
Cu15	Cu	1.281797	0.143849	-0.206906
Cu16	Cu	1.781797	0.643849	0.293094
Cu17	Cu	1.281826	0.143861	-0.369514
Cu18	Cu	1.781826	0.643861	0.130486
O19	O	1.316376	0.291259	-0.227237
O20	O	1.816376	0.791259	0.272763
C21	C	1.091826	0.150438	-0.245493
C22	C	1.591826	0.650438	0.254507
C23	C	0.974579	0.147948	-0.219131
C24	C	1.474579	0.647948	0.280869
C25	C	0.644138	0.140935	-0.444635
C26	C	1.144138	0.640935	0.055365
C27	C	0.754297	0.143270	-0.469404
C28	C	1.254297	0.643270	0.030596
C29	C	0.809373	0.144440	-0.406838
C30	C	1.309373	0.644440	0.093162
C31	C	0.754280	0.143274	-0.319498
C32	C	1.254280	0.643274	0.180502
C33	C	0.644109	0.140930	-0.294726
C34	C	1.144109	0.640930	0.205274
C35	C	0.809343	0.144435	-0.256929
C36	C	1.309343	0.644435	0.243071
C37	C	0.754250	0.143269	-0.169589
C38	C	1.254250	0.643269	0.330411
C39	C	0.644090	0.140927	-0.144821
C40	C	1.144090	0.640927	0.355179
C41	C	0.589014	0.139757	-0.207387
C42	C	1.089014	0.639757	0.292613
C43	C	0.919514	0.146779	-0.281701
C44	C	1.419514	0.646779	0.218299
C45	C	0.919485	0.146774	-0.131792
C46	C	1.419485	0.646774	0.368208
C47	C	0.809326	0.144439	-0.107023
C48	C	1.309326	0.644439	0.392977
C49	C	1.235553	-0.041293	-0.277808
C50	C	1.735553	0.458707	0.222192
C51	C	1.200734	-0.153742	-0.269982
C52	C	1.700734	0.346258	0.230018
C53	C	1.471471	-0.517392	-0.330855
C54	C	1.971471	-0.017392	0.169145
C55	C	1.504188	-0.411742	-0.338204
C56	C	2.004188	0.088258	0.161796
C57	C	1.428328	-0.347237	-0.321149
C58	C	1.928328	0.152763	0.178851
C59	C	1.319744	-0.388393	-0.296744
C60	C	1.819744	0.111607	0.203256
C61	C	1.287022	-0.494054	-0.289388
C62	C	1.787022	0.005946	0.210612
C63	C	1.243879	-0.323898	-0.279683
C64	C	1.743879	0.176102	0.220317
C65	C	1.135295	-0.365054	-0.255278
C66	C	1.635295	0.134946	0.244722
C67	C	1.102580	-0.470705	-0.247924
C68	C	1.602580	0.029295	0.252076
C69	C	1.178441	-0.535210	-0.264978
C70	C	1.678441	-0.035210	0.235022
C71	C	1.276600	-0.218237	-0.287038
C72	C	1.776600	0.281763	0.212962
C73	C	1.092152	-0.194898	-0.245572
C74	C	1.592152	0.305102	0.254428
C75	C	1.059434	-0.300549	-0.238223
C76	C	1.559434	0.199451	0.261777
C77	C	1.471797	0.137271	-0.330929
C78	C	1.971797	0.637271	0.169071
C79	C	1.589044	0.139762	-0.357296
C80	C	2.089044	0.639762	0.142704
C81	C	1.328070	0.329003	-0.298614
C82	C	1.828070	0.829003	0.201386
C83	C	1.362889	0.441451	-0.306445
C84	C	1.862889	0.941451	0.193555
N85	N	1.281783	0.143840	-0.092537
N86	N	1.781783	0.643840	0.407463
N87	N	1.281846	0.143861	-0.483884
N88	N	1.781846	0.643861	0.016116
C89	C	1.333205	0.075312	-0.060834
C90	C	1.833205	0.575312	0.439166
C91	C	1.333210	0.075311	0.025712
C92	C	1.833210	0.575311	0.525712
C93	C	1.281799	0.143843	0.080552
C94	C	1.781799	0.643843	0.580552
C95	C	1.230371	0.212375	0.048843
C96	C	1.730371	0.712375	0.548843
C97	C	1.230360	0.212370	-0.037700
C98	C	1.730360	0.712370	0.462300
C99	C	1.230413	0.212394	0.397862
C100	C	1.730413	0.712394	0.897862
C101	C	1.230430	0.212395	0.484410
C102	C	1.730430	0.712395	0.984410
C103	C	1.333262	0.075334	0.461274
C104	C	1.833262	0.575334	0.961274
C105	C	1.333251	0.075330	0.374731
C106	C	1.833251	0.575330	0.874731
C107	C	1.281819	0.143857	0.343031
C108	C	1.781819	0.643857	0.843031
C109	C	1.281812	0.143856	0.249189
C110	C	1.781812	0.643856	0.749189
C111	C	1.281812	0.143850	0.174391
C112	C	1.781812	0.643850	0.674391
H113	H	0.964361	0.147730	-0.352814
H114	H	1.464361	0.647730	0.147186
N115	N	1.174892	0.286282	-0.071891
N116	N	1.674892	0.786282	0.428109
H117	H	1.207927	0.358230	-0.064271
H118	H	1.707927	0.858230	0.435729
H119	H	1.182692	0.275791	-0.135023
H120	H	1.682692	0.775791	0.364977
H121	H	0.599284	0.139973	-0.495566
H122	H	1.099284	0.639973	0.004434
H123	H	1.188537	0.268193	0.372059
H124	H	1.688537	0.768193	0.872059
N125	N	0.584661	0.139652	-0.050620
N126	N	1.084661	0.639652	0.449380
H127	H	0.636148	0.140035	-0.014717
H128	H	1.136148	0.640035	0.485283
H129	H	0.549314	0.201758	-0.039158
H130	H	1.049314	0.701758	0.460842
H131	H	1.030380	-0.142378	-0.231681
H132	H	1.530380	0.357622	0.268319
H133	H	1.188505	0.268172	0.093500
H134	H	1.688505	0.768172	0.593500
N135	N	0.928185	0.146948	-0.433549
N136	N	1.428185	0.646948	0.066451
H137	H	0.954729	0.147508	-0.498371
H138	H	1.454729	0.647508	0.001629
H139	H	0.964394	0.210224	-0.412232
H140	H	1.464394	0.710224	0.087768
H141	H	0.499314	0.137859	-0.187224
H142	H	0.999314	0.637859	0.312776
N143	N	0.942325	-0.344954	-0.211892
N144	N	1.442325	0.155046	0.288108
H145	H	0.907687	-0.321473	-0.153135
H146	H	1.407687	0.178527	0.346865
H147	H	0.907794	-0.321451	-0.255131
H148	H	1.407794	0.178549	0.244869
N149	N	0.749890	0.143168	-0.012824
N150	N	1.249890	0.643168	0.487176
H151	H	0.758081	0.080139	0.017600
H152	H	1.258081	0.580139	0.517600
H153	H	0.779820	0.205628	0.013646
H154	H	1.279820	0.705628	0.513646
H155	H	0.964327	0.147725	-0.080845
H156	H	1.464327	0.647725	0.419155
N157	N	0.813716	0.144516	-0.563598
N158	N	1.313716	0.644516	-0.063598
H159	H	0.762112	0.143419	-0.599475
H160	H	1.262112	0.643419	-0.099475
H161	H	0.869184	0.208198	-0.579344
H162	H	1.369184	0.708198	-0.079344
H163	H	1.365010	-0.184738	-0.306909
H164	H	1.865010	0.315262	0.193091
N165	N	1.463608	-0.233284	-0.329088
N166	N	1.963608	0.266716	0.170912
H167	H	1.435268	-0.203250	-0.271752
H168	H	1.935268	0.296750	0.228248
H169	H	1.543906	-0.217083	-0.347171
H170	H	2.043906	0.282917	0.152829
N171	N	1.388663	0.001399	-0.119981
N172	N	1.888663	0.501399	0.380019
H173	H	1.421237	-0.042014	-0.086761
H174	H	1.921237	0.457986	0.413239
H175	H	1.335384	-0.043574	-0.143899
H176	H	1.835384	0.456426	0.356101
H177	H	1.592597	-0.378240	-0.358073
H178	H	2.092597	0.121760	0.141927
H179	H	1.533225	-0.569921	-0.344731
H180	H	2.033225	-0.069921	0.155269
H181	H	1.375080	0.019509	0.051524
H182	H	1.875080	0.519509	0.551524
N183	N	1.143149	-0.649165	-0.257053
N184	N	1.643149	-0.149165	0.242947
H185	H	1.207685	-0.683778	-0.271565
H186	H	1.707685	-0.183778	0.228435
H187	H	1.099028	-0.669956	-0.196163
H188	H	1.599028	-0.169956	0.303837
H189	H	1.014164	-0.504211	-0.228046
H190	H	1.514164	-0.004211	0.271954
H191	H	1.375119	0.019527	0.330081
H192	H	1.875119	0.519527	0.830081
N193	N	1.388736	0.001418	0.495464
N194	N	1.888736	0.501418	0.995464
H195	H	1.380942	0.011813	0.558610
H196	H	1.880942	0.511813	1.058610
H197	H	1.355676	-0.070496	0.487777
H198	H	1.855676	0.429504	0.987777
N199	N	1.174970	0.286310	0.543564
N200	N	1.674970	0.786310	1.043564
H201	H	1.142380	0.329718	0.510352
H202	H	1.642380	0.829718	1.010352
H203	H	1.117226	0.247299	0.592468
H204	H	1.617226	0.747299	1.092468
