data_functionalizedCrystal
_audit_creation_method	'MofGen! by Chris Wilmer'
_symmetry_space_group_name_H-M	'P1'
_symmetry_Int_Tables_number	1
_symmetry_cell_setting	triclinic
loop_
_symmetry_equiv_pos_as_xyz
  x,y,z
_cell_length_a	19.805399
_cell_length_b	18.215407
_cell_length_c	18.215405
_cell_angle_alpha	89.968971
_cell_angle_beta	90.029242
_cell_angle_gamma	89.986462
loop_
_atom_site_label
_atom_site_type_symbol
_atom_site_fract_x
_atom_site_fract_y
_atom_site_fract_z
Zn1	Zn	-0.382603	1.125064	0.292881
Zn2	Zn	-0.132603	1.375064	0.542881
Zn3	Zn	0.117397	1.625064	0.792881
Zn4	Zn	0.367397	1.875064	1.042881
Zn5	Zn	-0.269411	1.124975	0.415949
Zn6	Zn	-0.019411	1.374975	0.665949
Zn7	Zn	0.230589	1.624975	0.915949
Zn8	Zn	0.480589	1.874975	1.165949
Zn9	Zn	-0.269439	1.001999	0.292914
Zn10	Zn	-0.019439	1.251999	0.542914
Zn11	Zn	0.230561	1.501999	0.792914
Zn12	Zn	0.480561	1.751999	1.042914
Zn13	Zn	-0.382570	1.001963	0.415923
Zn14	Zn	-0.132570	1.251963	0.665923
Zn15	Zn	0.117430	1.501963	0.915923
Zn16	Zn	0.367430	1.751963	1.165923
O17	O	-0.326006	1.063500	0.354417
O18	O	-0.076006	1.313500	0.604417
O19	O	0.173994	1.563500	0.854417
O20	O	0.423994	1.813500	1.104417
O21	O	-0.367590	1.228037	0.309203
O22	O	-0.117590	1.478037	0.559203
O23	O	0.132410	1.728037	0.809203
O24	O	0.382410	1.978037	1.059203
O25	O	-0.174698	1.108640	0.399653
O26	O	0.075302	1.358640	0.649653
O27	O	0.325302	1.608640	0.899653
O28	O	0.575302	1.858640	1.149653
O29	O	-0.284476	1.018377	0.189926
O30	O	-0.034476	1.268377	0.439926
O31	O	0.215524	1.518377	0.689926
O32	O	0.465524	1.768377	0.939926
O33	O	-0.284428	1.227971	0.399621
O34	O	-0.034428	1.477971	0.649621
O35	O	0.215572	1.727971	0.899621
O36	O	0.465572	1.977971	1.149621
O37	O	-0.367617	1.108792	0.189901
O38	O	-0.117617	1.358792	0.439901
O39	O	0.132383	1.608792	0.689901
O40	O	0.382383	1.858792	0.939901
O41	O	-0.174719	1.018290	0.309260
O42	O	0.075281	1.268290	0.559260
O43	O	0.325281	1.518290	0.809260
O44	O	0.575281	1.768290	1.059260
O45	O	-0.284444	0.899010	0.309235
O46	O	-0.034444	1.149010	0.559235
O47	O	0.215556	1.399010	0.809235
O48	O	0.465556	1.649010	1.059235
O49	O	-0.477291	1.018315	0.399577
O50	O	-0.227291	1.268315	0.649577
O51	O	0.022709	1.518315	0.899577
O52	O	0.272709	1.768315	1.149577
O53	O	-0.367561	0.898983	0.399609
O54	O	-0.117561	1.148983	0.649609
O55	O	0.132439	1.398983	0.899609
O56	O	0.382439	1.648983	1.149609
O57	O	-0.477315	1.108757	0.309178
O58	O	-0.227315	1.358757	0.559178
O59	O	0.022685	1.608757	0.809178
O60	O	0.272685	1.858757	1.059178
O61	O	-0.284397	1.108604	0.518930
O62	O	-0.034397	1.358604	0.768930
O63	O	0.215603	1.608604	1.018930
O64	O	0.465603	1.858604	1.268930
O65	O	-0.367534	1.018228	0.518911
O66	O	-0.117534	1.268228	0.768911
O67	O	0.132466	1.518228	1.018911
O68	O	0.382466	1.768228	1.268911
C69	C	-0.325973	1.063423	0.545623
C70	C	-0.075973	1.313423	0.795623
C71	C	0.174027	1.563423	1.045623
C72	C	0.424027	1.813423	1.295623
C73	C	-0.325982	1.063457	0.627422
C74	C	-0.075982	1.313457	0.877422
C75	C	0.174018	1.563457	1.127422
C76	C	0.424018	1.813457	1.377422
C77	C	-0.326003	0.872294	0.354423
C78	C	-0.076003	1.122294	0.604423
C79	C	0.173997	1.372294	0.854423
C80	C	0.423997	1.622294	1.104423
C81	C	-0.326017	0.790495	0.354444
C82	C	-0.076017	1.040495	0.604444
C83	C	0.173983	1.290495	0.854444
C84	C	0.423983	1.540495	1.104444
C85	C	-0.502549	1.063542	0.354371
C86	C	-0.252549	1.313542	0.604371
C87	C	-0.002549	1.563542	0.854371
C88	C	0.247451	1.813542	1.104371
C89	C	-0.577781	1.063559	0.354351
C90	C	-0.327781	1.313559	0.604351
C91	C	-0.077781	1.563559	0.854351
C92	C	0.172219	1.813559	1.104351
C93	C	-0.613139	1.110653	0.307278
C94	C	-0.363139	1.360653	0.557278
C95	C	-0.113139	1.610653	0.807278
C96	C	0.136861	1.860653	1.057278
C97	C	-0.683827	1.110661	0.307256
C98	C	-0.433827	1.360661	0.557256
C99	C	-0.183827	1.610661	0.807256
C100	C	0.066173	1.860661	1.057256
C101	C	-0.719156	1.063577	0.354312
C102	C	-0.469156	1.313577	0.604312
C103	C	-0.219156	1.563577	0.854312
C104	C	0.030844	1.813577	1.104312
C105	C	-0.683794	1.016478	0.401387
C106	C	-0.433794	1.266478	0.651387
C107	C	-0.183794	1.516478	0.901387
C108	C	0.066206	1.766478	1.151387
C109	C	-0.613106	1.016467	0.401404
C110	C	-0.363106	1.266467	0.651404
C111	C	-0.113106	1.516467	0.901404
C112	C	0.136894	1.766467	1.151404
C113	C	-0.968867	1.016519	0.401319
C114	C	-0.718867	1.266519	0.651319
C115	C	-0.468867	1.516519	0.901319
C116	C	-0.218867	1.766519	1.151319
C117	C	-1.039559	1.016535	0.401300
C118	C	-0.789559	1.266535	0.651300
C119	C	-0.539559	1.516535	0.901300
C120	C	-0.289559	1.766535	1.151300
C121	C	-1.039588	1.110713	0.307171
C122	C	-0.789588	1.360713	0.557171
C123	C	-0.539588	1.610713	0.807171
C124	C	-0.289588	1.860713	1.057171
C125	C	-0.968900	1.110703	0.307188
C126	C	-0.718900	1.360703	0.557188
C127	C	-0.468900	1.610703	0.807188
C128	C	-0.218900	1.860703	1.057188
C129	C	-0.933544	1.063601	0.354260
C130	C	-0.683544	1.313601	0.604260
C131	C	-0.433544	1.563601	0.854260
C132	C	-0.183544	1.813601	1.104260
C133	C	-0.856895	1.063592	0.354281
C134	C	-0.606895	1.313592	0.604281
C135	C	-0.356895	1.563592	0.854281
C136	C	-0.106895	1.813592	1.104281
C137	C	-0.795804	1.063589	0.354295
C138	C	-0.545804	1.313589	0.604295
C139	C	-0.295804	1.563589	0.854295
C140	C	-0.045804	1.813589	1.104295
C141	C	-0.150150	1.063501	0.354410
C142	C	0.099850	1.313501	0.604410
C143	C	0.349850	1.563501	0.854410
C144	C	0.599850	1.813501	1.104410
C145	C	-0.074918	1.063627	0.354222
C146	C	0.175082	1.313627	0.604222
C147	C	0.425082	1.563627	0.854222
C148	C	0.675082	1.813627	1.104222
C149	C	-0.326010	1.255453	0.354411
C150	C	-0.076010	1.505453	0.604411
C151	C	0.173990	1.755453	0.854411
C152	C	0.423990	2.005453	1.104411
C153	C	-0.326011	1.337252	0.354408
C154	C	-0.076011	1.587252	0.604408
C155	C	0.173989	1.837252	0.854408
C156	C	0.423989	2.087252	1.104408
C157	C	-0.369312	1.525481	0.307349
C158	C	-0.119312	1.775481	0.557349
C159	C	0.130688	2.025481	0.807349
C160	C	0.380688	2.275481	1.057349
C161	C	-0.369315	1.602340	0.307356
C162	C	-0.119315	1.852340	0.557356
C163	C	0.130685	2.102340	0.807356
C164	C	0.380685	2.352340	1.057356
C165	C	-0.282715	1.602260	0.401508
C166	C	-0.032715	1.852260	0.651508
C167	C	0.217285	2.102260	0.901508
C168	C	0.467285	2.352260	1.151508
C169	C	-0.282716	1.525403	0.401504
C170	C	-0.032716	1.775403	0.651504
C171	C	0.217284	2.025403	0.901504
C172	C	0.467284	2.275403	1.151504
C173	C	-0.326014	1.487016	0.354421
C174	C	-0.076014	1.737016	0.604421
C175	C	0.173986	1.987016	0.854421
C176	C	0.423986	2.237016	1.104421
C177	C	-0.326015	1.640732	0.354431
C178	C	-0.076015	1.890732	0.604431
C179	C	0.173985	2.140732	0.854431
C180	C	0.423985	2.390732	1.104431
C181	C	-0.326017	1.724065	0.354439
C182	C	-0.076017	1.974065	0.604439
C183	C	0.173983	2.224065	0.854439
C184	C	0.423983	2.474065	1.104439
C185	C	-0.326012	1.403677	0.354414
C186	C	-0.076012	1.653677	0.604414
C187	C	0.173988	1.903677	0.854414
C188	C	0.423988	2.153677	1.104414
C189	C	-0.326053	1.063598	0.162464
C190	C	-0.076053	1.313598	0.412464
C191	C	0.173947	1.563598	0.662464
C192	C	0.423947	1.813598	0.912464
C193	C	-0.326074	1.063640	0.080665
C194	C	-0.076074	1.313640	0.330665
C195	C	0.173926	1.563640	0.580665
C196	C	0.423926	1.813640	0.830665
C197	C	-0.282772	1.110626	0.815601
C198	C	-0.032772	1.360626	1.065601
C199	C	0.217228	1.610626	1.315601
C200	C	0.467228	1.860626	1.565601
C201	C	-0.282789	1.110659	0.892460
C202	C	-0.032789	1.360659	1.142460
C203	C	0.217211	1.610659	1.392460
C204	C	0.467211	1.860659	1.642460
C205	C	-0.369288	1.016468	0.892480
C206	C	-0.119288	1.266468	1.142480
C207	C	0.130712	1.516468	1.392480
C208	C	0.380712	1.766468	1.642480
C209	C	-0.369275	1.016440	0.815623
C210	C	-0.119275	1.266440	1.065623
C211	C	0.130725	1.516440	1.315623
C212	C	0.380725	1.766440	1.565623
C213	C	-0.326013	1.063518	0.777185
C214	C	-0.076013	1.313518	1.027185
C215	C	0.173987	1.563518	1.277185
C216	C	0.423987	1.813518	1.527185
C217	C	-0.326043	1.063579	0.930902
C218	C	-0.076043	1.313579	1.180902
C219	C	0.173957	1.563579	1.430902
C220	C	0.423957	1.813579	1.680902
C221	C	-0.326061	1.063614	1.014235
C222	C	-0.076061	1.313614	1.264235
C223	C	0.173939	1.563614	1.514235
C224	C	0.423939	1.813614	1.764235
C225	C	-0.325996	1.063483	0.693847
C226	C	-0.075996	1.313483	0.943847
C227	C	0.174004	1.563483	1.193847
C228	C	0.424004	1.813483	1.443847
H229	H	-0.584378	1.148997	0.268962
H230	H	-0.334378	1.398997	0.518962
H231	H	-0.084378	1.648997	0.768962
H232	H	0.165622	1.898997	1.018962
Br233	Br	-0.920892	0.952594	0.465201
Br234	Br	-0.670892	1.202594	0.715201
Br235	Br	-0.420892	1.452594	0.965201
Br236	Br	-0.170892	1.702594	1.215201
H237	H	-0.404568	1.494228	0.269011
H238	H	-0.154568	1.744228	0.519011
H239	H	0.095432	1.994228	0.769011
H240	H	0.345432	2.244228	1.019011
H241	H	-0.247456	1.494083	0.439840
H242	H	0.002544	1.744083	0.689840
H243	H	0.252544	1.994083	0.939840
H244	H	0.502544	2.244083	1.189840
Br245	Br	-0.920957	1.174608	0.243328
Br246	Br	-0.670957	1.424608	0.493328
Br247	Br	-0.420957	1.674608	0.743328
Br248	Br	-0.170957	1.924608	0.993328
Br249	Br	-0.427969	0.952508	0.763482
Br250	Br	-0.177969	1.202508	1.013482
Br251	Br	0.072031	1.452508	1.263482
Br252	Br	0.322031	1.702508	1.513482
H253	H	-0.404573	1.633655	0.269027
H254	H	-0.154573	1.883655	0.519027
H255	H	0.095427	2.133655	0.769027
H256	H	0.345427	2.383655	1.019027
Br257	Br	-0.223954	1.654362	0.465402
Br258	Br	0.026046	1.904362	0.715402
Br259	Br	0.276046	2.154362	0.965402
Br260	Br	0.526046	2.404362	1.215402
Br261	Br	-0.224060	1.174517	0.763438
Br262	Br	0.025940	1.424517	1.013438
Br263	Br	0.275940	1.674517	1.263438
Br264	Br	0.525940	1.924517	1.513438
H265	H	-0.247579	1.149021	0.923735
H266	H	0.002421	1.399021	1.173735
H267	H	0.252421	1.649021	1.423735
H268	H	0.502421	1.899021	1.673735
H269	H	-0.404510	0.978138	0.923785
H270	H	-0.154510	1.228138	1.173785
H271	H	0.095490	1.478138	1.423785
H272	H	0.345490	1.728138	1.673785
H273	H	-0.712612	1.149012	0.268927
H274	H	-0.462612	1.399012	0.518927
H275	H	-0.212612	1.649012	0.768927
H276	H	0.037388	1.899012	1.018927
Br277	Br	-1.087575	1.174638	0.243285
Br278	Br	-0.837575	1.424638	0.493285
Br279	Br	-0.587575	1.674638	0.743285
Br280	Br	-0.337575	1.924638	0.993285
Br281	Br	-0.731740	0.952573	0.465245
Br282	Br	-0.481740	1.202573	0.715245
Br283	Br	-0.231740	1.452573	0.965245
Br284	Br	0.018260	1.702573	1.215245
H285	H	-0.584319	0.978111	0.439729
H286	H	-0.334319	1.228111	0.689729
H287	H	-0.084319	1.478111	0.939729
H288	H	0.165681	1.728111	1.189729
Br289	Br	-1.087506	0.952633	0.465167
Br290	Br	-0.837506	1.202633	0.715167
Br291	Br	-0.587506	1.452633	0.965167
Br292	Br	-0.337506	1.702633	1.215167
