data_functionalizedCrystal
_audit_creation_method	'MofGen! by Chris Wilmer'
_symmetry_space_group_name_H-M	'P1'
_symmetry_Int_Tables_number	1
_symmetry_cell_setting	triclinic
loop_
_symmetry_equiv_pos_as_xyz
  x,y,z
_cell_length_a	10.654541
_cell_length_b	10.654550
_cell_length_c	9.130313
_cell_angle_alpha	90.000276
_cell_angle_beta	89.995708
_cell_angle_gamma	95.515570
loop_
_atom_site_label
_atom_site_type_symbol
_atom_site_fract_x
_atom_site_fract_y
_atom_site_fract_z
O1	O	0.176399	-1.667838	-0.121689
O2	O	0.193205	-1.302359	-0.121716
O3	O	0.002063	-1.493503	-0.121693
O4	O	0.367542	-1.476694	-0.121712
O5	O	0.002057	-1.493490	0.121906
O6	O	0.193200	-1.302346	0.121883
O7	O	0.176393	-1.667825	0.121910
Cu8	Cu	0.184796	-1.485084	0.144139
Cu9	Cu	0.184803	-1.485100	-0.143945
O10	O	0.367536	-1.476681	0.121887
C11	C	0.191968	-1.255555	0.000080
C12	C	0.188276	-1.116112	0.000070
C13	C	-0.044738	-1.492263	0.000105
C14	C	-0.184182	-1.488572	0.000103
C15	C	0.177630	-1.714629	0.000110
C16	C	0.181322	-1.854072	0.000111
C17	C	-0.212153	-1.717137	0.000138
C18	C	-0.291647	-1.829680	0.000158
C19	C	-0.422665	-1.826204	0.000154
C20	C	-0.474190	-1.710173	0.000124
C21	C	-0.394696	-1.597630	0.000103
C22	C	-0.263676	-1.601118	0.000113
C23	C	-0.366725	-1.369069	0.000057
C24	C	-0.235707	-1.372541	0.000073
C25	C	-0.418251	-1.253037	0.000028
C26	C	-0.338756	-1.140492	0.000018
C27	C	-0.207731	-1.143972	0.000024
C28	C	-0.156213	-1.259998	0.000052
C29	C	0.414337	-1.477921	0.000085
C30	C	0.553780	-1.481612	0.000078
N31	N	0.184791	-1.485082	0.346761
C32	C	0.300818	-1.036625	0.000068
C33	C	0.297342	-0.905604	0.000094
C34	C	0.068772	-0.933569	0.000117
C35	C	0.072250	-1.064588	0.000102
N36	N	0.184798	-1.485111	-0.346568
C37	C	0.100189	-1.569750	0.423423
C38	C	0.100189	-1.569762	0.576760
C39	C	0.269404	-1.400435	0.576759
C40	C	0.269397	-1.400418	0.423425
H41	H	-0.105472	-1.719978	0.000162
H42	H	0.338290	-1.331465	0.361003
H43	H	-0.380719	-1.046028	-0.000016
H44	H	-0.249680	-1.924150	0.000195
O45	O	0.017877	-1.652027	0.349177
C46	C	-0.149917	-1.820021	0.365369
C47	C	-0.056781	-1.726891	0.449628
H48	H	-0.210284	-1.880590	0.446547
H49	H	-0.213253	-1.765315	0.293642
H50	H	-0.095090	-1.883165	0.293523
H51	H	-0.111505	-1.663724	0.521554
H52	H	0.006555	-1.781675	0.521264
H53	H	-0.487390	-1.917847	0.000159
H54	H	-0.025693	-0.891602	0.000151
O55	O	0.351463	-1.318028	0.651172
C56	C	0.423066	-1.100299	0.698054
C57	C	0.330041	-1.193485	0.613719
H58	H	0.405797	-0.999587	0.667781
H59	H	0.408540	-1.114749	0.820831
H60	H	0.523803	-1.117589	0.667905
H61	H	0.229268	-1.176252	0.643745
H62	H	0.344678	-1.179014	0.490962
H63	H	-0.019401	-1.129309	0.000107
H64	H	-0.524933	-1.250216	0.000015
H65	H	-0.580873	-1.707354	0.000102
H66	H	-0.143012	-1.052325	0.000001
H67	H	-0.049533	-1.262843	0.000067
H68	H	0.031297	-1.638704	0.639174
H69	H	0.395294	-1.078571	0.000053
H70	H	0.388985	-0.840891	0.000095
