data_functionalizedCrystal
_audit_creation_method	'MofGen! by Chris Wilmer'
_symmetry_space_group_name_H-M	'P1'
_symmetry_Int_Tables_number	1
_symmetry_cell_setting	triclinic
loop_
_symmetry_equiv_pos_as_xyz
  x,y,z
_cell_length_a	23.532407
_cell_length_b	23.532407
_cell_length_c	22.610064
_cell_angle_alpha	90.000603
_cell_angle_beta	89.997161
_cell_angle_gamma	97.151322
loop_
_atom_site_label
_atom_site_type_symbol
_atom_site_fract_x
_atom_site_fract_y
_atom_site_fract_z
O1	O	0.755263	-0.069127	-0.049117
O2	O	0.589400	-0.079130	-0.049135
O3	O	0.677333	0.008803	-0.049114
O4	O	0.667330	-0.157060	-0.049137
O5	O	0.677318	0.008790	0.049255
O6	O	0.589385	-0.079143	0.049234
O7	O	0.755248	-0.069140	0.049252
Zn8	Zn	0.672314	-0.074144	0.064862
Zn9	Zn	0.672334	-0.074127	-0.064744
O10	O	0.667315	-0.157073	0.049232
C11	C	0.568176	-0.078882	0.000048
C12	C	0.504959	-0.078116	0.000041
C13	C	0.105856	-0.125350	0.000061
C14	C	0.046456	-0.124638	0.000065
O15	O	0.009711	-0.168424	0.000081
N16	N	0.023830	-0.072362	0.000071
C17	C	0.060607	-0.020794	0.000080
O18	O	0.035908	0.023737	0.000086
C19	C	0.120006	-0.021506	0.000080
C20	C	0.142629	-0.073785	0.000068
C21	C	0.128479	-0.177625	0.000050
C22	C	0.187876	-0.178336	0.000045
C23	C	0.224649	-0.126772	0.000052
C24	C	0.202025	-0.074497	0.000063
C25	C	0.156783	0.030062	0.000093
C26	C	0.216185	0.029345	0.000094
C27	C	0.238808	-0.022934	0.000082
C28	C	0.298194	-0.023643	0.000065
N29	N	0.320820	-0.075920	0.000059
C30	C	0.284048	-0.127484	0.000052
C31	C	-0.064135	-0.019302	0.000080
C32	C	-0.123533	-0.018589	0.000075
C33	C	-0.137680	-0.122434	0.000061
C34	C	-0.078281	-0.123146	0.000062
C35	C	-0.041509	-0.071578	0.000074
C36	C	0.408784	-0.128974	0.000042
C37	C	0.468186	-0.129680	0.000034
C38	C	0.482329	-0.025836	0.000051
C39	C	0.422932	-0.025129	0.000055
C40	C	0.386160	-0.076702	0.000052
O41	O	0.334974	0.020119	0.000052
O42	O	0.308755	-0.172007	0.000054
C43	C	0.677071	0.030013	0.000072
C44	C	0.676305	0.093230	0.000076
C45	C	0.776472	-0.069388	0.000069
C46	C	0.839689	-0.070154	0.000071
C47	C	0.667577	-0.178283	0.000045
C48	C	0.668343	-0.241500	0.000036
N49	N	0.672304	-0.074155	0.153314
C50	C	0.723539	0.492333	0.000049
C51	C	0.722827	0.551733	0.000044
O52	O	0.766613	0.588478	0.000027
N53	N	0.670551	0.574359	0.000039
C54	C	0.618983	0.537582	0.000032
O55	O	0.574452	0.562281	0.000027
C56	C	0.619695	0.478182	0.000033
C57	C	0.671974	0.455560	0.000044
C58	C	0.775814	0.469710	0.000060
C59	C	0.776525	0.410313	0.000065
C60	C	0.724961	0.373540	0.000060
C61	C	0.672685	0.396164	0.000050
C62	C	0.568127	0.441406	0.000022
C63	C	0.568844	0.382004	0.000021
C64	C	0.621123	0.359381	0.000033
C65	C	0.621832	0.299995	0.000050
N66	N	0.674109	0.277368	0.000056
C67	C	0.725673	0.314141	0.000061
C68	C	0.617491	0.662324	0.000031
C69	C	0.616778	0.721722	0.000034
C70	C	0.720623	0.735869	0.000045
C71	C	0.721335	0.676470	0.000046
C72	C	0.669767	0.639698	0.000036
C73	C	0.727163	0.189405	0.000073
C74	C	0.727869	0.130003	0.000081
C75	C	0.624025	0.115860	0.000067
C76	C	0.623318	0.175257	0.000062
C77	C	0.674891	0.212029	0.000063
O78	O	0.578070	0.263215	0.000065
O79	O	0.770196	0.289433	0.000058
N80	N	0.672349	-0.074111	-0.153196
C81	C	0.711273	-0.035196	0.561965
C82	C	0.711276	-0.035192	0.623884
O83	O	0.744384	-0.002076	0.655911
N84	N	0.672334	-0.074115	0.654851
C85	C	0.633383	-0.113041	0.623895
O86	O	0.600259	-0.146147	0.655920
C87	C	0.633377	-0.113042	0.561976
C88	C	0.672326	-0.074120	0.531013
C89	C	0.750218	0.003724	0.531001
C90	C	0.750215	0.003719	0.469085
C91	C	0.711268	-0.035206	0.438133
C92	C	0.672323	-0.074125	0.469097
C93	C	0.594424	-0.151965	0.531021
C94	C	0.594422	-0.151962	0.469098
C95	C	0.633370	-0.113040	0.438134
C96	C	0.633374	-0.113054	0.376229
N97	N	0.672316	-0.074131	0.345262
C98	C	0.711263	-0.035207	0.376214
C99	C	0.633396	-0.113035	0.753928
C100	C	0.633403	-0.113037	0.815846
C101	C	0.711296	-0.035187	0.815831
C102	C	0.711291	-0.035188	0.753913
C103	C	0.672338	-0.074112	0.722962
C104	C	0.711255	-0.035220	0.246187
C105	C	0.711251	-0.035230	0.184266
C106	C	0.633357	-0.113078	0.184286
C107	C	0.633363	-0.113071	0.246202
C108	C	0.672314	-0.074137	0.277151
O109	O	0.600281	-0.146152	0.344163
O110	O	0.744376	-0.002101	0.344182
H111	H	0.138375	0.072634	0.000103
C112	C	0.754135	0.007635	0.849887
C113	C	0.753547	0.072485	0.841377
C114	C	0.796384	0.115303	0.875435
C115	C	0.839808	0.093271	0.918003
C116	C	0.840398	0.028418	0.926515
C117	C	0.797561	-0.014400	0.892457
H118	H	0.721401	0.088797	0.809864
H119	H	0.795947	0.163312	0.869134
H120	H	0.871518	0.124968	0.943215
H121	H	0.872544	0.012106	0.958028
H122	H	0.797998	-0.062409	0.898759
C123	C	0.590564	-0.155856	0.849903
C124	C	0.612565	-0.199301	0.892469
C125	C	0.569722	-0.242119	0.926523
C126	C	0.504878	-0.241492	0.918011
C127	C	0.482873	-0.198046	0.875443
C128	C	0.525717	-0.155228	0.841389
H129	H	0.660570	-0.199767	0.898771
H130	H	0.586011	-0.274281	0.958034
H131	H	0.473162	-0.273188	0.943219
H132	H	0.434869	-0.197580	0.869140
H133	H	0.509427	-0.123066	0.809877
H134	H	0.512280	0.016146	0.000054
C135	C	0.754095	0.007588	0.150206
C136	C	0.796932	0.050406	0.184257
C137	C	0.839774	0.093223	0.150200
C138	C	0.839777	0.093222	0.082092
C139	C	0.796938	0.050403	0.048037
C140	C	0.754097	0.007585	0.082094
H141	H	0.796931	0.050407	0.234679
H142	H	0.871486	0.124921	0.175410
H143	H	0.871491	0.124918	0.056881
H144	H	0.796939	0.050401	-0.002384
H145	H	0.722384	-0.024112	0.056884
H146	H	0.098544	-0.219617	0.000046
H147	H	-0.034198	0.022693	0.000084
H148	H	0.246123	0.071339	0.000104
H149	H	0.742973	-0.003516	0.271379
H150	H	0.763906	0.658056	0.000054
C151	C	0.212759	-0.235843	0.000047
C152	C	0.251652	-0.250622	-0.051029
C153	C	0.276533	-0.308131	-0.051020
C154	C	0.262519	-0.350862	0.000064
C155	C	0.223624	-0.336085	0.051143
C156	C	0.198744	-0.278576	0.051135
H157	H	0.262028	-0.218989	-0.088848
H158	H	0.305325	-0.319070	-0.088833
H159	H	0.280937	-0.393434	0.000070
H160	H	0.213249	-0.367718	0.088962
H161	H	0.169951	-0.267637	0.088948
C162	C	0.754131	0.007630	0.719856
C163	C	0.732127	0.051077	0.677295
C164	C	0.774968	0.093898	0.643242
C165	C	0.839812	0.093272	0.651750
C166	C	0.861820	0.049823	0.694313
C167	C	0.818979	0.007002	0.728366
H168	H	0.684122	0.051542	0.670994
H169	H	0.758676	0.126062	0.611734
H170	H	0.871526	0.124971	0.626542
H171	H	0.909824	0.049358	0.700613
H172	H	0.835270	-0.025162	0.759874
H173	H	0.762610	0.765821	0.000047
H174	H	0.526850	0.352066	0.000013
C175	C	0.834035	0.385436	0.000066
C176	C	0.876771	0.399449	0.051144
C177	C	0.934285	0.374578	0.051140
C178	C	0.949064	0.335693	0.000058
C179	C	0.906328	0.321678	-0.051024
C180	C	0.848813	0.346550	-0.051020
H181	H	0.865831	0.428235	0.088962
H182	H	0.965921	0.384953	0.088955
H183	H	0.991639	0.317282	0.000055
H184	H	0.917267	0.292892	-0.088841
H185	H	0.817177	0.336175	-0.088835
H186	H	0.404512	0.017441	0.000056
H187	H	0.574207	0.740136	0.000035
C188	C	-0.053399	-0.180654	0.000054
C189	C	-0.067412	-0.223396	0.051128
C190	C	-0.042534	-0.280906	0.051122
C191	C	-0.003642	-0.295675	0.000041
C192	C	0.010374	-0.252931	-0.051038
C193	C	-0.014505	-0.195421	-0.051031
H194	H	-0.096204	-0.212465	0.088945
H195	H	-0.052909	-0.312548	0.088933
H196	H	0.014775	-0.338247	0.000036
H197	H	0.039166	-0.263863	-0.088854
H198	H	-0.004129	-0.163780	-0.088843
C199	C	0.832541	0.510153	0.000068
C200	C	0.875459	0.507810	0.051158
C201	C	0.932190	0.548250	0.051173
C202	C	0.946005	0.591031	0.000097
C203	C	0.903087	0.593376	-0.050997
C204	C	0.846355	0.552937	-0.051012
H205	H	0.865233	0.476139	0.088971
H206	H	0.963961	0.546514	0.088996
H207	H	0.988001	0.620967	0.000107
H208	H	0.913312	0.625047	-0.088810
H209	H	0.814584	0.554673	-0.088835
C210	C	0.793053	0.046539	0.435029
C211	C	0.792462	0.111387	0.443548
C212	C	0.835300	0.154211	0.409495
C213	C	0.878729	0.132187	0.366923
C214	C	0.879322	0.067335	0.358401
C215	C	0.836484	0.024511	0.392454
H216	H	0.760311	0.127694	0.475064
H217	H	0.834860	0.202219	0.415803
H218	H	0.910440	0.163888	0.341715
H219	H	0.911472	0.051028	0.326885
H220	H	0.836923	-0.023497	0.386146
C221	C	0.560761	0.621877	0.000030
C222	C	0.517834	0.624212	-0.051051
C223	C	0.461105	0.583768	-0.051052
C224	C	0.447303	0.540990	0.000029
C225	C	0.490232	0.538653	0.051115
C226	C	0.546961	0.579096	0.051116
H227	H	0.528049	0.655881	-0.088868
H228	H	0.429326	0.585499	-0.088869
H229	H	0.405309	0.511051	0.000029
H230	H	0.480017	0.506984	0.088932
H231	H	0.578740	0.577366	0.088933
H232	H	-0.167632	-0.164421	0.000059
H233	H	0.525555	0.459814	0.000009
C234	C	0.565809	0.200142	0.000047
C235	C	0.551050	0.239019	-0.051048
C236	C	0.493539	0.263896	-0.051073
C237	C	0.450787	0.249897	-0.000003
C238	C	0.465545	0.211018	0.051096
C239	C	0.523055	0.186140	0.051121
H240	H	0.582699	0.249383	-0.088856
H241	H	0.482615	0.292677	-0.088900
H242	H	0.408214	0.268312	-0.000021
H243	H	0.433896	0.200653	0.088904
H244	H	0.533980	0.157360	0.088948
H245	H	0.781933	0.035423	0.556197
H246	H	0.770443	0.111587	0.000092
C247	C	0.551577	-0.194776	0.565072
C248	C	0.486734	-0.194138	0.556557
C249	C	0.443883	-0.236950	0.590608
C250	C	0.465874	-0.280401	0.633175
C251	C	0.530720	-0.281041	0.641691
C252	C	0.573571	-0.238228	0.607640
H253	H	0.470452	-0.161972	0.525045
H254	H	0.395880	-0.236476	0.584303
H255	H	0.434153	-0.312093	0.658381
H256	H	0.547002	-0.313207	0.673203
H257	H	0.621574	-0.238702	0.613945
C258	C	0.590523	-0.155888	0.280263
C259	C	0.525679	-0.155261	0.271747
C260	C	0.482833	-0.198075	0.305803
C261	C	0.504831	-0.241517	0.348374
C262	C	0.569678	-0.242147	0.356891
C263	C	0.612524	-0.199332	0.322836
H264	H	0.509392	-0.123101	0.240232
H265	H	0.434829	-0.197609	0.299497
H266	H	0.473115	-0.273211	0.373583
H267	H	0.585966	-0.274307	0.388407
H268	H	0.660528	-0.199798	0.329142
C269	C	0.590514	-0.155893	0.150233
C270	C	0.590510	-0.155891	0.082125
C271	C	0.547664	-0.198702	0.048070
C272	C	0.504820	-0.241515	0.082124
C273	C	0.504822	-0.241518	0.150236
C274	C	0.547669	-0.198707	0.184291
H275	H	0.622227	-0.124197	0.056912
H276	H	0.547662	-0.198699	-0.002351
H277	H	0.473103	-0.273206	0.056915
H278	H	0.473106	-0.273212	0.175449
H279	H	0.547670	-0.198710	0.234712
H280	H	0.769159	0.219337	0.000071
H281	H	0.601677	-0.144736	0.728731
H282	H	0.486602	-0.172255	0.000024
H283	H	0.562700	-0.183658	0.443901
H284	H	-0.141947	0.023982	0.000076
H285	H	0.582043	0.085909	0.000065
H286	H	0.378851	-0.170970	0.000041
