data_functionalizedCrystal
_audit_creation_method	'MofGen! by Chris Wilmer'
_symmetry_space_group_name_H-M	'P1'
_symmetry_Int_Tables_number	1
_symmetry_cell_setting	triclinic
loop_
_symmetry_equiv_pos_as_xyz
  x,y,z
_cell_length_a	25.639239
_cell_length_b	19.805407
_cell_length_c	19.805399
_cell_angle_alpha	90.016510
_cell_angle_beta	89.969866
_cell_angle_gamma	89.965164
loop_
_atom_site_label
_atom_site_type_symbol
_atom_site_fract_x
_atom_site_fract_y
_atom_site_fract_z
Zn1	Zn	-0.208209	-1.034660	-0.382707
Zn2	Zn	-0.295646	-1.034556	-0.269517
Zn3	Zn	-0.208220	-0.921480	-0.269533
Zn4	Zn	-0.295610	-0.921414	-0.382664
O5	O	-0.251921	-0.978027	-0.326105
O6	O	-0.219818	-1.129363	-0.367704
O7	O	-0.284068	-1.019540	-0.174802
O8	O	-0.135053	-0.936565	-0.284570
O9	O	-0.284057	-1.129286	-0.284543
O10	O	-0.135046	-1.019718	-0.367719
O11	O	-0.219837	-0.936464	-0.174814
O12	O	-0.219802	-0.826755	-0.284529
O13	O	-0.283996	-0.936452	-0.477387
O14	O	-0.284007	-0.826706	-0.367646
O15	O	-0.219784	-1.019654	-0.477418
O16	O	-0.368806	-1.019476	-0.284502
O17	O	-0.368780	-0.936351	-0.367630
C18	C	-0.251902	-0.802171	-0.326085
C19	C	-0.251906	-0.726939	-0.326092
C20	C	-0.218516	-0.691636	-0.369459
C21	C	-0.218517	-0.620947	-0.369459
C22	C	-0.251913	-0.585564	-0.326097
C23	C	-0.285305	-0.620872	-0.282725
C24	C	-0.285300	-0.691560	-0.282721
C25	C	-0.285324	-0.335799	-0.282739
C26	C	-0.285327	-0.265107	-0.282747
C27	C	-0.218541	-0.265187	-0.369477
C28	C	-0.218536	-0.335874	-0.369473
C29	C	-0.251926	-0.371176	-0.326100
C30	C	-0.251924	-0.447825	-0.326098
C31	C	-0.251919	-0.508917	-0.326101
C32	C	-0.387764	-0.977914	-0.326074
C33	C	-0.445878	-0.977927	-0.326084
C34	C	-0.806242	-1.021423	-0.282894
C35	C	-0.860846	-1.021450	-0.282903
O36	O	-0.889084	-1.058314	-0.246147
N37	N	-0.888160	-0.978146	-0.326150
C38	C	-0.860867	-0.934819	-0.369396
O39	O	-0.889114	-0.897989	-0.406183
C40	C	-0.806264	-0.934796	-0.369390
C41	C	-0.778953	-0.978098	-0.326135
C42	C	-0.778931	-1.064722	-0.239643
C43	C	-0.724330	-1.064695	-0.239633
C44	C	-0.697041	-1.021369	-0.282874
C45	C	-0.724352	-0.978071	-0.326125
C46	C	-0.778972	-0.891473	-0.412639
C47	C	-0.724365	-0.891455	-0.412629
C48	C	-0.697053	-0.934756	-0.369374
C49	C	-0.642462	-0.934718	-0.369357
N50	N	-0.615148	-0.978021	-0.326109
C51	C	-0.642438	-1.021347	-0.282868
C52	C	-0.975538	-0.934870	-0.369407
C53	C	-1.030140	-0.934888	-0.369410
C54	C	-1.030115	-1.021520	-0.282917
C55	C	-0.975512	-1.021498	-0.282911
C56	C	-0.948224	-0.978173	-0.326159
C57	C	-0.527772	-1.021286	-0.282851
C58	C	-0.473167	-1.021252	-0.282843
C59	C	-0.473196	-0.934623	-0.369337
C60	C	-0.527797	-0.934654	-0.369343
C61	C	-0.555084	-0.977990	-0.326097
O62	O	-0.614190	-0.897874	-0.406095
O63	O	-0.614184	-1.058177	-0.246094
C64	C	-0.115548	-0.978160	-0.326151
C65	C	-0.057434	-0.978217	-0.326171
C66	C	-0.251885	-0.978057	-0.502648
C67	C	-0.251869	-0.978070	-0.577880
C68	C	-0.251937	-0.154570	-0.326120
C69	C	-0.251933	-0.229802	-0.326111
C70	C	-0.218421	-0.934824	-0.613230
C71	C	-0.218411	-0.934834	-0.683918
C72	C	-0.251847	-0.978092	-0.719256
C73	C	-0.285299	-1.021340	-0.683901
C74	C	-0.285311	-1.021327	-0.613214
C75	C	-0.285250	-1.021393	-0.968975
C76	C	-0.285234	-1.021405	-1.039667
C77	C	-0.218350	-0.934900	-1.039679
C78	C	-0.218362	-0.934887	-0.968992
C79	C	-0.251816	-0.978132	-0.933643
C80	C	-0.251827	-0.978120	-0.856995
C81	C	-0.251833	-0.978108	-0.795903
C82	C	-0.251920	-0.978037	-0.150249
C83	C	-0.251788	-0.978155	-0.075018
H84	H	-0.312493	-0.592058	-0.247415
O85	O	-0.317828	-1.063384	-0.718121
C86	C	-0.347344	-1.101563	-0.671760
H87	H	-0.349161	-1.073826	-0.621369
H88	H	-0.388535	-1.108748	-0.692170
H89	H	-0.328204	-1.152985	-0.664252
H90	H	-0.312544	-1.056547	-0.584433
O91	O	-0.949089	-0.892808	-0.411508
C92	C	-0.962382	-0.907572	-0.478983
H93	H	-1.002006	-0.933612	-0.480412
H94	H	-0.964277	-0.858703	-0.509285
H95	H	-0.931613	-0.942337	-0.501814
O96	O	-1.056710	-1.063636	-0.241024
C97	C	-1.110760	-1.054380	-0.250324
H98	H	-1.118190	-1.032116	-0.302516
H99	H	-1.131462	-1.105109	-0.245869
H100	H	-1.126334	-1.018431	-0.210110
O101	O	-0.185900	-0.892915	-0.718337
C102	C	-0.152121	-0.931485	-0.759240
H103	H	-0.170561	-0.982766	-0.769824
H104	H	-0.145114	-0.903929	-0.808949
H105	H	-0.113375	-0.938947	-0.732024
H106	H	-0.312496	-1.056599	-0.940202
H107	H	-0.191344	-0.364680	-0.404786
H108	H	-0.312490	-0.720303	-0.247407
O109	O	-0.446719	-1.063382	-0.240802
C110	C	-0.482518	-1.101616	-0.202630
H111	H	-0.521424	-1.103959	-0.230365
H112	H	-0.466707	-1.154943	-0.195455
H113	H	-0.488372	-1.076866	-0.151202
O114	O	-1.056724	-0.892915	-0.411457
C115	C	-1.088246	-0.931435	-0.455230
H116	H	-1.096405	-0.982747	-0.431408
H117	H	-1.126657	-0.903874	-0.464288
H118	H	-1.067167	-0.938832	-0.505389
H119	H	-0.191112	-0.899687	-1.068468
H120	H	-0.191133	-0.899664	-0.940224
O121	O	-0.446708	-0.892446	-0.411274
C122	C	-0.460111	-0.824998	-0.396448
H123	H	-0.475150	-0.821607	-0.342375
H124	H	-0.424221	-0.791545	-0.402251
H125	H	-0.491801	-0.807300	-0.432728
O126	O	-0.805360	-1.106923	-0.197668
C127	C	-0.791943	-1.174354	-0.212553
H128	H	-0.752294	-1.175686	-0.238595
H129	H	-0.790043	-1.204743	-0.163739
H130	H	-0.822644	-1.197161	-0.247361
O131	O	-0.186085	-0.230997	-0.411671
C132	C	-0.156602	-0.277387	-0.449933
H133	H	-0.178019	-0.327760	-0.452220
H134	H	-0.151081	-0.256987	-0.503276
H135	H	-0.116867	-0.284925	-0.425243
O136	O	-0.697745	-1.106795	-0.197715
C137	C	-0.666121	-1.150486	-0.236288
H138	H	-0.657929	-1.126575	-0.287556
H139	H	-0.627733	-1.159566	-0.208718
H140	H	-0.687129	-1.200646	-0.243780
H141	H	-0.550035	-0.899396	-0.404567
O142	O	-0.949041	-1.063530	-0.240803
C143	C	-0.962418	-1.048772	-0.173331
H144	H	-1.002081	-1.022765	-0.171912
H145	H	-0.964271	-1.097641	-0.143026
H146	H	-0.931721	-1.013979	-0.150497
O147	O	-0.186027	-0.725900	-0.411606
C148	C	-0.156566	-0.679578	-0.449894
H149	H	-0.154731	-0.629182	-0.422175
H150	H	-0.115378	-0.700032	-0.457212
H151	H	-0.175765	-0.672063	-0.501254
O152	O	-0.186157	-0.586582	-0.411624
C153	C	-0.215973	-0.545701	-0.455281
H154	H	-0.255569	-0.535071	-0.431311
H155	H	-0.194686	-0.496013	-0.464411
H156	H	-0.221772	-0.572959	-0.505423
H157	H	-0.312463	-1.056633	-1.068437
H158	H	-0.801199	-0.856209	-0.447859
O159	O	-0.185925	-0.892737	-0.579011
C160	C	-0.156393	-0.854580	-0.625373
H161	H	-0.177799	-0.852228	-0.675753
H162	H	-0.150815	-0.801252	-0.604948
H163	H	-0.116684	-0.879404	-0.632908
O164	O	-0.317783	-0.230839	-0.240555
C165	C	-0.347262	-0.277155	-0.202282
H166	H	-0.325842	-0.327557	-0.199984
H167	H	-0.352784	-0.256704	-0.148943
H168	H	-0.386997	-0.284655	-0.226969
O169	O	-0.317788	-0.370158	-0.240706
C170	C	-0.351603	-0.411023	-0.279159
H171	H	-0.333212	-0.421651	-0.330493
H172	H	-0.358585	-0.460713	-0.251565
H173	H	-0.390356	-0.383753	-0.286512
H174	H	-0.702149	-0.856175	-0.447849
O175	O	-0.554336	-1.063291	-0.240817
C176	C	-0.585967	-1.024809	-0.197055
H177	H	-0.594176	-0.973501	-0.220873
H178	H	-0.624346	-1.052409	-0.188024
H179	H	-0.564957	-1.017400	-0.146883
