data_functionalizedCrystal
_audit_creation_method	'MofGen! by Chris Wilmer'
_symmetry_space_group_name_H-M	'P1'
_symmetry_Int_Tables_number	1
_symmetry_cell_setting	triclinic
loop_
_symmetry_equiv_pos_as_xyz
  x,y,z
_cell_length_a	6.817900
_cell_length_b	19.263509
_cell_length_c	16.418049
_cell_angle_alpha	83.309392
_cell_angle_beta	103.389670
_cell_angle_gamma	81.428207
loop_
_atom_site_label
_atom_site_type_symbol
_atom_site_fract_x
_atom_site_fract_y
_atom_site_fract_z
V1	V	-3.971754	0.219251	-0.116783
O2	O	-3.960848	0.214823	0.004690
O3	O	-3.923133	0.217996	-0.230675
O4	O	-3.899597	0.314762	-0.115392
O5	O	-3.984548	0.117387	-0.111391
V6	V	-4.458489	0.207037	-0.102206
O7	O	-4.225966	0.246042	-0.148760
O8	O	-4.654473	0.180246	-0.070229
O9	O	-4.283903	0.208292	0.011685
O10	O	-4.586791	0.211466	-0.223679
O11	O	-4.563091	0.308901	-0.107598
O12	O	-4.307439	0.111526	-0.103598
C13	C	-3.768849	0.214601	-0.258426
C14	C	-3.810224	0.214211	-0.351537
C15	C	-4.086602	0.216843	-0.570037
C16	C	-4.125465	0.216483	-0.657525
C17	C	-3.762997	0.209450	-0.648952
C18	C	-3.724139	0.209815	-0.561466
C19	C	-3.885947	0.213508	-0.522011
C20	C	-3.963669	0.212783	-0.696984
C21	C	-4.005805	0.212393	-0.791842
C22	C	-3.843809	0.213899	-0.427147
C23	C	-4.131554	0.088250	-0.107622
C24	C	-4.088507	0.010167	-0.108002
C25	C	-3.894792	-0.022928	-0.112385
C26	C	-3.854349	-0.096295	-0.112747
C27	C	-4.007643	-0.136562	-0.108744
C28	C	-4.201382	-0.103459	-0.104355
C29	C	-4.241814	-0.030094	-0.103984
N30	N	-4.108791	-0.248045	-0.154128
N31	N	-4.070372	-0.317738	-0.154483
C32	C	-3.885834	-0.357605	-0.109859
N33	N	-3.741146	-0.325144	-0.064879
N34	N	-3.779565	-0.255445	-0.064528
C35	C	-3.963821	-0.216113	-0.109145
C36	C	-3.648254	-0.470252	-0.114634
C37	C	-3.607812	-0.543621	-0.114991
C38	C	-3.954858	-0.550783	-0.106608
C39	C	-3.995287	-0.477416	-0.106242
C40	C	-3.841980	-0.437155	-0.110260
C41	C	-3.738825	0.338034	-0.111370
C42	C	-3.761111	0.416117	-0.110986
C43	C	-4.101529	0.211686	0.039433
C44	C	-4.039391	0.212080	0.132542
H45	H	-3.631264	0.206442	-0.681087
H46	H	-4.153032	-0.450470	-0.102677
H47	H	-3.450062	-0.570566	-0.118558
H48	H	-4.326193	-0.136249	-0.101096
H49	H	-4.079678	-0.583567	-0.103352
H50	H	-3.523416	-0.437470	-0.117899
H51	H	-4.288856	0.219200	-0.696624
H52	H	-3.560735	0.207102	-0.522362
H53	H	-4.399562	-0.003149	-0.100416
H54	H	-4.218359	0.219848	-0.537915
H55	H	-3.769952	0.009849	-0.115655
H56	H	-3.696588	-0.123248	-0.116303
