data_functionalizedCrystal
_audit_creation_method	'MofGen! by Chris Wilmer'
_symmetry_space_group_name_H-M	'P1'
_symmetry_Int_Tables_number	1
_symmetry_cell_setting	triclinic
loop_
_symmetry_equiv_pos_as_xyz
  x,y,z
_cell_length_a	15.995350
_cell_length_b	19.288865
_cell_length_c	17.766277
_cell_angle_alpha	90.011603
_cell_angle_beta	89.997008
_cell_angle_gamma	96.685688
loop_
_atom_site_label
_atom_site_type_symbol
_atom_site_fract_x
_atom_site_fract_y
_atom_site_fract_z
O1	O	1.110654	-0.089532	-0.062492
O2	O	0.866837	-0.100588	-0.062519
O3	O	0.995790	0.006052	-0.062490
O4	O	0.981700	-0.196172	-0.062521
O5	O	0.995768	0.006058	0.062699
O6	O	0.866814	-0.100582	0.062670
O7	O	1.110631	-0.089526	0.062697
Cu8	Cu	0.988720	-0.095054	0.074114
Cu9	Cu	0.988747	-0.095060	-0.073936
O10	O	0.981677	-0.196166	0.062667
C11	C	0.835632	-0.100128	0.000072
C12	C	0.742687	-0.098757	0.000063
C13	C	1.141835	-0.089986	0.000104
C14	C	1.234781	-0.091356	0.000109
C15	C	0.995326	0.031933	0.000107
C16	C	0.993965	0.109040	0.000113
C17	C	1.572509	-0.096277	0.000078
C18	C	1.524789	-0.172224	0.000349
C19	C	1.428104	-0.170854	0.000075
C20	C	1.404958	-0.093836	0.000094
C21	C	1.446173	-0.056380	-0.071391
C22	C	1.542802	-0.058287	-0.071459
C23	C	1.543173	-0.056713	0.070904
C24	C	1.446228	-0.056731	0.071857
C25	C	1.310266	-0.092453	0.000100
C26	C	1.667202	-0.097659	0.000066
C27	C	0.982142	-0.222047	0.000069
C28	C	0.983503	-0.299154	0.000058
N29	N	0.988708	-0.095049	0.178244
C30	C	1.069629	0.153540	0.000125
C31	C	1.068350	0.225990	0.000113
C32	C	0.991403	0.253937	0.000104
C33	C	0.915729	0.209428	0.000088
C34	C	0.917010	0.136979	0.000092
C35	C	0.930906	0.362384	0.043948
C36	C	0.929628	0.434832	0.043949
C37	C	0.987450	0.477393	0.000087
C38	C	1.046563	0.447500	-0.043765
C39	C	1.047844	0.375051	-0.043760
C40	C	0.990006	0.332495	0.000099
C41	C	1.061733	0.600453	0.000085
C42	C	1.060451	0.672904	0.000068
C43	C	0.907827	0.656340	0.000050
C44	C	0.909111	0.583890	0.000060
C45	C	0.986066	0.555951	0.000080
N46	N	0.988766	-0.095060	-0.178066
C47	C	1.045827	-0.047852	0.217644
C48	C	1.045832	-0.047848	0.296446
C49	C	0.988725	-0.095054	0.335845
C50	C	0.931596	-0.142255	0.296435
C51	C	0.931587	-0.142252	0.217635
C52	C	0.977516	-0.158313	0.460672
C53	C	0.977531	-0.158317	0.539471
C54	C	0.988748	-0.095063	0.578891
C55	C	0.999968	-0.031802	0.539503
C56	C	0.999959	-0.031800	0.460702
C57	C	0.988728	-0.095062	0.421290
C58	C	1.045875	-0.047858	0.703737
C59	C	1.045874	-0.047854	0.782540
C60	C	0.931642	-0.142267	0.782528
C61	C	0.931639	-0.142265	0.703726
C62	C	0.988760	-0.095061	0.664336
H63	H	1.399573	-0.200301	0.051315
H64	H	1.563624	-0.081540	0.125081
H65	H	1.092336	-0.009414	0.185574
H66	H	0.883818	0.327735	0.079670
H67	H	1.431080	-0.000566	0.076186
H68	H	1.124394	0.577704	0.000098
N69	N	1.411862	-0.091052	0.138194
N70	N	1.357175	-0.142649	0.132699
H71	H	1.332901	-0.166893	0.179548
N72	N	0.837137	0.237983	0.000072
N73	N	0.836003	0.302670	0.000069
H74	H	0.780494	0.322838	0.000054
H75	H	1.560997	-0.085608	-0.124904
H76	H	0.968367	-0.209825	0.428583
N77	N	1.583540	0.011653	-0.075541
N78	N	1.662104	0.022704	-0.076324
H79	H	1.690874	0.072098	-0.079214
N80	N	0.831821	0.538431	0.000042
N81	N	0.780594	0.540965	-0.052736
H82	H	0.726004	0.508859	-0.052752
H83	H	0.885098	-0.180689	0.328518
N84	N	1.583283	0.013532	0.071511
N85	N	1.633268	0.034446	0.020063
H86	H	1.661600	0.084054	0.020485
N87	N	1.148241	0.125013	0.000144
N88	N	1.215794	0.164760	0.000153
H89	H	1.271315	0.144612	0.000165
N90	N	0.873287	-0.190481	0.663488
N91	N	0.822300	-0.232624	0.698671
H92	H	0.781083	-0.266678	0.670253
H93	H	1.400125	-0.200498	-0.051262
H94	H	1.009102	0.019705	0.571597
H95	H	1.432261	0.000203	-0.074036
N96	N	1.145650	0.271447	0.000125
N97	N	1.214351	0.246492	0.000141
H98	H	1.268946	0.278593	0.000151
N99	N	0.873242	-0.190478	0.177398
N100	N	0.874144	-0.254681	0.186187
H101	H	0.832938	-0.288743	0.157769
N102	N	1.549212	-0.210153	-0.063606
N103	N	1.582833	-0.264900	-0.054571
H104	H	1.600083	-0.291686	-0.099740
H105	H	0.845176	0.679094	0.000039
H106	H	1.417667	-0.082382	-0.124593
N107	N	1.104120	0.000448	0.663506
N108	N	1.155043	0.042648	0.698699
H109	H	1.196140	0.076798	0.670288
N110	N	1.137752	0.718353	0.000070
N111	N	1.206451	0.693394	0.000086
H112	H	1.261047	0.725492	0.000086
N113	N	1.104211	0.000379	0.822778
N114	N	1.103302	0.064579	0.813976
H115	H	1.144503	0.098649	0.842391
N116	N	1.108227	0.344526	-0.088554
N117	N	1.159853	0.382528	-0.127713
H118	H	1.202499	0.360971	-0.159351
H119	H	0.885142	-0.180700	0.814606
N120	N	0.839725	0.091509	0.000077
N121	N	0.823428	0.049219	-0.052690
H122	H	0.768846	0.017103	-0.052700
H123	H	1.543210	-0.202578	0.051606
H124	H	0.968400	-0.209827	0.571535
H125	H	1.093646	0.482153	-0.079482
N126	N	0.869271	0.465355	0.088774
N127	N	0.817658	0.427350	0.127941
H128	H	0.775037	0.448906	0.159610
H129	H	1.092346	-0.009414	0.328531
H130	H	1.009093	0.019709	0.428636
