data_functionalizedCrystal
_audit_creation_method	'MofGen! by Chris Wilmer'
_symmetry_space_group_name_H-M	'P1'
_symmetry_Int_Tables_number	1
_symmetry_cell_setting	triclinic
loop_
_symmetry_equiv_pos_as_xyz
  x,y,z
_cell_length_a	14.044220
_cell_length_b	15.944545
_cell_length_c	13.101039
_cell_angle_alpha	93.360364
_cell_angle_beta	86.340132
_cell_angle_gamma	88.342525
loop_
_atom_site_label
_atom_site_type_symbol
_atom_site_fract_x
_atom_site_fract_y
_atom_site_fract_z
O1	O	1.262923	0.198266	-0.085114
O2	O	1.596256	0.531599	0.248219
O3	O	1.929589	0.864933	0.581552
O4	O	0.986955	0.190957	-0.085140
O5	O	1.320288	0.524290	0.248193
O6	O	1.653621	0.857624	0.581527
O7	O	1.132477	0.072901	-0.085114
O8	O	1.465810	0.406235	0.248219
O9	O	1.799144	0.739568	0.581552
O10	O	1.117400	0.316321	-0.085140
O11	O	1.450733	0.649655	0.248193
O12	O	1.784067	0.982988	0.581527
O13	O	1.122036	0.081387	0.085314
O14	O	1.455369	0.414720	0.418647
O15	O	1.788703	0.748054	0.751980
O16	O	0.976514	0.199443	0.085288
O17	O	1.309847	0.532776	0.418621
O18	O	1.643180	0.866109	0.751955
O19	O	1.252481	0.206752	0.085314
O20	O	1.585815	0.540085	0.418647
O21	O	1.919148	0.873418	0.751980
Zn22	Zn	1.112840	0.204444	0.112360
Zn23	Zn	1.446173	0.537778	0.445693
Zn24	Zn	1.779506	0.871111	0.779027
Zn25	Zn	1.126596	0.193264	-0.112186
Zn26	Zn	1.459930	0.526598	0.221147
Zn27	Zn	1.793263	0.859931	0.554480
O28	O	1.106959	0.324807	0.085288
O29	O	1.440292	0.658140	0.418621
O30	O	1.773626	0.991474	0.751955
C31	C	0.946420	0.192001	0.000071
C32	C	1.279753	0.525334	0.333404
C33	C	1.613086	0.858668	0.666738
C34	C	0.841194	0.182459	0.000062
C35	C	1.174527	0.515793	0.333395
C36	C	1.507861	0.849126	0.666728
C37	C	1.126631	0.045803	0.000101
C38	C	1.459965	0.379137	0.333434
C39	C	1.793298	0.712470	0.666767
C40	C	1.124758	-0.047583	0.000103
C41	C	1.458091	0.285750	0.333437
C42	C	1.791424	0.619084	0.666770
C43	C	0.648531	0.165017	0.000084
C44	C	0.981864	0.498350	0.333417
C45	C	1.315197	0.831684	0.666750
C46	C	0.590900	0.232688	0.000081
C47	C	0.924234	0.566021	0.333414
C48	C	1.257567	0.899354	0.666748
C49	C	0.483696	0.222982	0.000093
C50	C	0.817029	0.556316	0.333427
C51	C	1.150362	0.889649	0.666760
C52	C	0.755745	0.174721	0.000072
C53	C	1.089079	0.508054	0.333405
C54	C	1.422412	0.841387	0.666738
C55	C	1.028959	-0.325390	0.000074
C56	C	1.362292	0.007943	0.333407
C57	C	1.695626	0.341276	0.666740
C58	C	1.080294	-0.275530	-0.083952
C59	C	1.413627	0.057803	0.249381
C60	C	1.746961	0.391136	0.582714
C61	C	1.118078	-0.383729	0.000074
C62	C	1.451412	-0.050395	0.333407
C63	C	1.784745	0.282938	0.666740
C64	C	1.070024	-0.267189	0.084076
C65	C	1.403357	0.066144	0.417410
C66	C	1.736690	0.399477	0.750743
C67	C	1.121355	-0.218569	0.000090
C68	C	1.454688	0.114765	0.333423
C69	C	1.788022	0.448098	0.666757
C70	C	1.169394	-0.335102	-0.084022
C71	C	1.502727	-0.001769	0.249311
C72	C	1.836061	0.331565	0.582645
C73	C	1.159106	-0.326762	0.084082
C74	C	1.492439	0.006572	0.417416
C75	C	1.825773	0.339905	0.750749
C76	C	1.210508	-0.276930	0.000036
C77	C	1.543841	0.056403	0.333369
C78	C	1.877174	0.389736	0.666702
C79	C	1.116188	-0.478873	0.000063
C80	C	1.449521	-0.145539	0.333397
C81	C	1.782855	0.187794	0.666730
C82	C	1.123253	-0.123427	0.000093
C83	C	1.456586	0.209906	0.333426
C84	C	1.789920	0.543239	0.666760
C85	C	1.293016	0.205707	0.000101
C86	C	1.626350	0.539041	0.333434
C87	C	1.959683	0.872374	0.666767
C88	C	1.398242	0.215249	0.000103
C89	C	1.731576	0.548582	0.333436
C90	C	2.064909	0.881916	0.666770
C91	C	1.112805	0.351905	0.000071
C92	C	1.446138	0.685238	0.333404
C93	C	1.779471	1.018572	0.666738
C94	C	1.114679	0.445291	0.000061
C95	C	1.448012	0.778624	0.333395
C96	C	1.781345	1.111958	0.666728
N97	N	1.103458	0.212075	0.265607
N98	N	1.436792	0.545408	0.598940
N99	N	1.770125	0.878741	0.932274
N100	N	1.135985	0.185628	-0.265433
N101	N	1.469319	0.518961	0.067900
N102	N	1.802652	0.852295	0.401234
C103	C	1.090694	0.222463	0.474647
C104	C	1.424028	0.555797	0.807981
C105	C	1.757361	0.889130	1.141314
C106	C	1.148746	0.175242	0.525533
C107	C	1.482080	0.508575	0.858866
C108	C	1.815413	0.841908	1.192200
C109	C	1.141644	0.181022	0.641850
C110	C	1.474978	0.514355	0.975184
C111	C	1.808311	0.847689	1.308517
C112	C	1.097795	0.216684	0.358320
C113	C	1.431128	0.550017	0.691653
C114	C	1.764462	0.883351	1.024986
H115	H	0.622075	0.297911	0.000069
H116	H	0.955408	0.631244	0.333402
H117	H	1.288741	0.964578	0.666736
H118	H	0.617358	0.099799	0.000096
H119	H	0.950692	0.433132	0.333430
H120	H	1.284025	0.766465	0.666763
H121	H	0.952214	-0.346794	-0.000015
H122	H	1.285547	-0.013461	0.333318
H123	H	1.618880	0.319872	0.666651
H124	H	1.047009	-0.252951	-0.154998
H125	H	1.380342	0.080382	0.178336
H126	H	1.713676	0.413715	0.511669
H127	H	1.211360	-0.364633	-0.155138
H128	H	1.544694	-0.031299	0.178195
H129	H	1.878027	0.302034	0.511529
H130	H	1.287320	-0.255690	-0.000005
H131	H	1.620654	0.077643	0.333329
H132	H	1.953987	0.410976	0.666662
H133	H	1.192358	-0.349358	0.155130
H134	H	1.525691	-0.016025	0.488464
H135	H	1.859024	0.317309	0.821797
H136	H	1.035665	0.267230	0.518435
H137	H	1.368998	0.600564	0.851768
H138	H	1.702331	0.933897	1.185101
H139	H	1.203781	0.130473	0.481741
H140	H	1.537114	0.463806	0.815074
H141	H	1.870447	0.797140	1.148407
H142	H	1.028019	-0.237558	0.155112
H143	H	1.361353	0.095776	0.488445
H144	H	1.694686	0.429109	0.821779
