data_functionalizedCrystal
_audit_creation_method	'MofGen! by Chris Wilmer'
_symmetry_space_group_name_H-M	'P1'
_symmetry_Int_Tables_number	1
_symmetry_cell_setting	triclinic
loop_
_symmetry_equiv_pos_as_xyz
  x,y,z
_cell_length_a	13.032831
_cell_length_b	12.645330
_cell_length_c	13.032328
_cell_angle_alpha	97.150231
_cell_angle_beta	90.887223
_cell_angle_gamma	82.822813
loop_
_atom_site_label
_atom_site_type_symbol
_atom_site_fract_x
_atom_site_fract_y
_atom_site_fract_z
Zn1	Zn	1.498472	-0.715913	-0.780853
Zn2	Zn	1.520216	-0.873863	-0.608879
Zn3	Zn	1.348332	-0.671632	-0.587094
Zn4	Zn	1.326463	-0.868129	-0.759003
O5	O	1.423371	-0.782384	-0.683957
O6	O	1.645277	-0.757798	-0.776302
O7	O	1.515667	-0.830905	-0.462073
O8	O	1.368302	-0.529169	-0.612823
O9	O	1.661252	-0.873843	-0.649953
O10	O	1.478609	-0.561702	-0.755177
O11	O	1.389385	-0.682327	-0.446067
O12	O	1.201511	-0.676766	-0.591636
O13	O	1.331028	-0.864069	-0.905818
O14	O	1.185443	-0.821131	-0.717938
O15	O	1.457403	-0.752237	-0.921871
O16	O	1.494461	-1.021440	-0.628767
O17	O	1.352111	-1.017226	-0.739062
C18	C	1.156160	-0.743522	-0.650053
C19	C	1.041843	-0.726925	-0.635572
C20	C	0.982966	-0.791047	-0.691515
C21	C	0.864814	-0.773894	-0.676550
C22	C	1.423297	-1.057802	-0.683933
C23	C	1.423356	-1.175644	-0.683969
C24	C	1.334100	-1.340676	-0.753643
C25	C	1.333728	-1.218029	-0.753335
C26	C	1.407789	-1.203795	-0.571869
C27	C	1.407245	-1.326378	-0.572291
C28	C	1.528774	-1.361692	-0.725579
C29	C	1.527805	-1.239255	-0.727865
C30	C	1.691625	-0.821399	-0.717995
C31	C	1.805939	-0.838025	-0.732500
C32	C	1.389351	-0.812453	-0.952204
C33	C	1.374853	-0.825266	-1.066514
C34	C	1.423469	-0.505898	-0.684007
C35	C	1.423511	-0.388076	-0.684029
C36	C	1.415948	-0.788897	-1.243568
C37	C	1.430927	-0.775644	-1.125422
C38	C	1.457318	-0.752365	-0.416762
C39	C	1.472014	-0.739282	-0.302477
H40	H	1.004777	-0.659325	-0.576604
Cl41	Cl	1.506084	-1.160749	-0.488661
Cl42	Cl	1.324712	-0.869624	-1.300735
H43	H	1.545666	-1.405156	-0.806661
H44	H	1.342042	-1.381792	-0.836576
Cl45	Cl	0.807600	-0.669518	-0.585499
Cl46	Cl	1.290981	-1.134729	-0.519501
H47	H	1.539795	-1.222283	-0.810433
Cl48	Cl	1.563240	-0.658544	-1.245310
Cl49	Cl	1.040184	-0.895418	-0.782562
Cl50	Cl	0.863146	-0.942383	-0.823573
Cl51	Cl	1.213920	-1.367274	-0.709948
Cl52	Cl	1.346296	-1.189529	-0.881005
Cl53	Cl	1.522157	-0.694902	-1.068258
H54	H	1.315750	-0.877546	-1.103540
Cl55	Cl	1.212814	-1.151596	-0.709160
Cl56	Cl	1.634373	-1.196550	-0.656982
Cl57	Cl	1.289076	-1.348754	-0.520421
H58	H	1.470288	-1.357167	-0.517913
H59	H	1.595218	-1.392746	-0.675044
