data_functionalizedCrystal
_audit_creation_method	'MofGen! by Chris Wilmer'
_symmetry_space_group_name_H-M	'P1'
_symmetry_Int_Tables_number	1
_symmetry_cell_setting	triclinic
loop_
_symmetry_equiv_pos_as_xyz
  x,y,z
_cell_length_a	10.685661
_cell_length_b	10.685194
_cell_length_c	11.169409
_cell_angle_alpha	85.594469
_cell_angle_beta	85.612724
_cell_angle_gamma	89.666413
loop_
_atom_site_label
_atom_site_type_symbol
_atom_site_fract_x
_atom_site_fract_y
_atom_site_fract_z
Zn1	Zn	1.879763	-0.646589	-0.768232
Zn2	Zn	2.379763	-0.146589	-0.268232
Zn3	Zn	1.863570	-0.856426	-0.551058
Zn4	Zn	2.363570	-0.356426	-0.051058
Zn5	Zn	1.669958	-0.630560	-0.553459
Zn6	Zn	2.169958	-0.130560	-0.053459
Zn7	Zn	1.653902	-0.840227	-0.737618
Zn8	Zn	2.153902	-0.340227	-0.237618
O9	O	1.766798	-0.743450	-0.652592
O10	O	2.266798	-0.243450	-0.152592
O11	O	2.053166	-0.687912	-0.751231
O12	O	2.553166	-0.187912	-0.251231
O13	O	1.837830	-0.826535	-0.383417
O14	O	2.337830	-0.326535	0.116583
O15	O	1.711285	-0.457123	-0.595767
O16	O	2.211285	0.042877	-0.095767
O17	O	2.041269	-0.842078	-0.591673
O18	O	2.541269	-0.342078	-0.091673
O19	O	1.865428	-0.468899	-0.753560
O20	O	2.365428	0.031101	-0.253560
O21	O	1.695583	-0.660592	-0.385182
O22	O	2.195583	-0.160592	0.114818
O23	O	1.492277	-0.644885	-0.566081
O24	O	1.992277	-0.144885	-0.066081
O25	O	1.683920	-0.814470	-0.909638
O26	O	2.183920	-0.314470	-0.409638
O27	O	1.480481	-0.798927	-0.701382
O28	O	1.980481	-0.298927	-0.201382
O29	O	1.849859	-0.672205	-0.932130
O30	O	2.349859	-0.172205	-0.432130
O31	O	1.822261	-1.029840	-0.561988
O32	O	2.322261	-0.529840	-0.061988
O33	O	1.668219	-1.017939	-0.699053
O34	O	2.168219	-0.517939	-0.199053
C35	C	1.440861	-0.718410	-0.630671
C36	C	1.940861	-0.218410	-0.130671
C37	C	1.301421	-0.707728	-0.621319
C38	C	1.801421	-0.207728	-0.121319
C39	C	1.741775	-1.069414	-0.626966
C40	C	2.241775	-0.569414	-0.126966
C41	C	1.731184	-1.208872	-0.616051
C42	C	2.231184	-0.708872	-0.116051
C43	C	2.094008	-0.768590	-0.674599
C44	C	2.594008	-0.268590	-0.174599
C45	C	2.233446	-0.779303	-0.683977
C46	C	2.733446	-0.279303	-0.183977
C47	C	1.766905	-0.743319	-0.965652
C48	C	2.266905	-0.243319	-0.465652
C49	C	1.766951	-0.743262	-1.099059
C50	C	2.266951	-0.243262	-0.599059
C51	C	1.791954	-0.416217	-0.678346
C52	C	2.291954	0.083783	-0.178346
C53	C	1.802673	-0.276769	-0.689321
C54	C	2.302673	0.223231	-0.189321
C55	C	1.766771	-0.743497	-0.340762
C56	C	2.266771	-0.243497	0.159238
C57	C	1.766995	-0.743218	-0.207399
C58	C	2.266995	-0.243218	0.292601
H59	H	1.281932	-0.848756	-0.744783
H60	H	1.781932	-0.348756	-0.244783
H61	H	1.252942	-0.638268	-0.560529
H62	H	1.752942	-0.138268	-0.060529
H63	H	1.871982	-1.228211	-0.760408
H64	H	2.371982	-0.728211	-0.260408
C65	C	1.637568	-1.274478	-0.519988
C66	C	2.137568	-0.774478	-0.019988
N67	N	1.567069	-1.323895	-0.447624
N68	N	2.067069	-0.823895	0.052376
