data_functionalizedCrystal
_audit_creation_method	'MofGen! by Chris Wilmer'
_symmetry_space_group_name_H-M	'P1'
_symmetry_Int_Tables_number	1
_symmetry_cell_setting	triclinic
loop_
_symmetry_equiv_pos_as_xyz
  x,y,z
_cell_length_a	12.503572
_cell_length_b	11.792241
_cell_length_c	11.792241
_cell_angle_alpha	95.806584
_cell_angle_beta	86.452757
_cell_angle_gamma	86.461724
loop_
_atom_site_label
_atom_site_type_symbol
_atom_site_fract_x
_atom_site_fract_y
_atom_site_fract_z
O1	O	0.089216	-1.513406	0.149050
O2	O	0.339216	-1.263406	0.399050
O3	O	0.589216	-1.013406	0.649050
O4	O	0.839216	-0.763406	0.899050
O5	O	0.089241	-1.183067	0.165081
O6	O	0.339241	-0.933067	0.415081
O7	O	0.589241	-0.683067	0.665081
O8	O	0.839241	-0.433067	0.915081
O9	O	0.089221	-1.356252	-0.008105
O10	O	0.339221	-1.106252	0.241895
O11	O	0.589221	-0.856252	0.491895
O12	O	0.839221	-0.606252	0.741895
O13	O	0.089237	-1.340220	0.322235
O14	O	0.339237	-1.090220	0.572235
O15	O	0.589237	-0.840220	0.822235
O16	O	0.839237	-0.590220	1.072235
O17	O	-0.089420	-1.343228	0.004941
O18	O	0.160580	-1.093228	0.254941
O19	O	0.410580	-0.843228	0.504941
O20	O	0.660580	-0.593228	0.754941
O21	O	-0.089399	-1.170042	0.178127
O22	O	0.160601	-0.920042	0.428127
O23	O	0.410601	-0.670042	0.678127
O24	O	0.660601	-0.420042	0.928127
O25	O	-0.089424	-1.500381	0.162096
O26	O	0.160576	-1.250381	0.412096
O27	O	0.410576	-1.000381	0.662096
O28	O	0.660576	-0.750381	0.912096
Cu29	Cu	-0.105723	-1.334023	0.171303
Cu30	Cu	0.144277	-1.084023	0.421303
Cu31	Cu	0.394277	-0.834023	0.671303
Cu32	Cu	0.644277	-0.584023	0.921303
Cu33	Cu	0.105540	-1.349425	0.155874
Cu34	Cu	0.355540	-1.099425	0.405874
Cu35	Cu	0.605540	-0.849425	0.655874
Cu36	Cu	0.855540	-0.599425	0.905874
O37	O	-0.089403	-1.327196	0.335281
O38	O	0.160597	-1.077196	0.585281
O39	O	0.410597	-0.827196	0.835281
O40	O	0.660597	-0.577196	1.085281
C41	C	-0.000076	-1.134264	0.170596
C42	C	0.249924	-0.884264	0.420596
C43	C	0.499924	-0.634264	0.670596
C44	C	0.749924	-0.384264	0.920596
C45	C	-0.000066	-1.008251	0.167581
C46	C	0.249934	-0.758251	0.417581
C47	C	0.499934	-0.508251	0.667581
C48	C	0.749934	-0.258251	0.917581
N49	N	-0.254314	-1.323197	0.182154
N50	N	-0.004314	-1.073197	0.432154
N51	N	0.245686	-0.823197	0.682154
N52	N	0.495686	-0.573197	0.932154
C53	C	-0.000099	-1.348733	-0.043873
C54	C	0.249901	-1.098733	0.206127
C55	C	0.499901	-0.848733	0.456127
C56	C	0.749901	-0.598733	0.706127
C57	C	-0.000098	-1.345718	-0.169886
C58	C	0.249902	-1.095718	0.080114
C59	C	0.499902	-0.845718	0.330114
C60	C	0.749902	-0.595718	0.580114
C61	C	-0.473427	-1.307273	0.198126
C62	C	-0.223427	-1.057273	0.448126
C63	C	0.026573	-0.807273	0.698126
C64	C	0.276573	-0.557273	0.948126
C65	C	-0.526763	-1.376180	0.129046
C66	C	-0.276763	-1.126180	0.379046
C67	C	-0.026763	-0.876180	0.629046
C68	C	0.223237	-0.626180	0.879046
C69	C	-0.648685	-1.367320	0.137933
C70	C	-0.398685	-1.117320	0.387933
C71	C	-0.148685	-0.867320	0.637933
C72	C	0.101315	-0.617320	0.887933
C73	C	-0.351494	-1.316132	0.189240
C74	C	-0.101494	-1.066132	0.439240
C75	C	0.148506	-0.816132	0.689240
C76	C	0.398506	-0.566132	0.939240
N77	N	0.254131	-1.360260	0.145014
N78	N	0.504131	-1.110260	0.395014
N79	N	0.754131	-0.860260	0.645014
N80	N	1.004131	-0.610260	0.895014
C81	C	-0.000105	-1.549185	0.156580
C82	C	0.249895	-1.299185	0.406580
C83	C	0.499895	-1.049185	0.656580
C84	C	0.749895	-0.799185	0.906580
C85	C	-0.000107	-1.675198	0.159594
C86	C	0.249893	-1.425198	0.409594
C87	C	0.499893	-1.175198	0.659594
C88	C	0.749893	-0.925198	0.909594
C89	C	-0.000097	-0.777536	0.162041
C90	C	0.249903	-0.527536	0.412041
C91	C	0.499903	-0.277536	0.662041
C92	C	0.749903	-0.027536	0.912041
C93	C	-0.000080	-0.905923	0.165119
C94	C	0.249920	-0.655923	0.415119
C95	C	0.499920	-0.405923	0.665119
C96	C	0.749920	-0.155923	0.915119
C97	C	-0.000079	-1.340177	-0.400600
C98	C	0.249921	-1.090177	-0.150600
C99	C	0.499921	-0.840177	0.099400
C100	C	0.749921	-0.590177	0.349400
C101	C	-0.000089	-1.343256	-0.272214
C102	C	0.249911	-1.093256	-0.022214
C103	C	0.499911	-0.843256	0.227786
C104	C	0.749911	-0.593256	0.477786
C105	C	-0.000081	-1.334715	0.371049
C106	C	0.249919	-1.084715	0.621049
C107	C	0.499919	-0.834715	0.871049
C108	C	0.749919	-0.584715	1.121049
C109	C	-0.000076	-1.337730	0.497062
C110	C	0.249924	-1.087730	0.747062
C111	C	0.499924	-0.837730	0.997062
C112	C	0.749924	-0.587730	1.247062
H113	H	-0.480857	-1.441829	0.063231
H114	H	-0.230857	-1.191829	0.313231
H115	H	0.019143	-0.941829	0.563231
H116	H	0.269143	-0.691829	0.813231
Br117	Br	-0.549931	-1.197861	0.307820
Br118	Br	-0.299931	-0.947861	0.557820
Br119	Br	-0.049931	-0.697861	0.807820
Br120	Br	0.200069	-0.447861	1.057820
