data_functionalizedCrystal
_audit_creation_method	'MofGen! by Chris Wilmer'
_symmetry_space_group_name_H-M	'P1'
_symmetry_Int_Tables_number	1
_symmetry_cell_setting	triclinic
loop_
_symmetry_equiv_pos_as_xyz
  x,y,z
_cell_length_a	16.625548
_cell_length_b	12.759394
_cell_length_c	12.759387
_cell_angle_alpha	89.968340
_cell_angle_beta	90.022878
_cell_angle_gamma	89.984095
loop_
_atom_site_label
_atom_site_type_symbol
_atom_site_fract_x
_atom_site_fract_y
_atom_site_fract_z
Zn1	Zn	1.232742	0.418181	0.594065
Zn2	Zn	1.232657	0.593898	0.418383
Zn3	Zn	1.097898	0.418237	0.418395
Zn4	Zn	1.097892	0.593822	0.594015
O5	O	1.165297	0.506035	0.506214
O6	O	1.345563	0.441499	0.570777
O7	O	1.214749	0.570652	0.271363
O8	O	1.115823	0.271208	0.441724
O9	O	1.345501	0.570597	0.441704
O10	O	1.214892	0.271167	0.570788
O11	O	1.115741	0.441594	0.271372
O12	O	0.985065	0.441520	0.441675
O13	O	1.115813	0.570468	0.741043
O14	O	0.985060	0.570522	0.570702
O15	O	1.214886	0.441425	0.741080
O16	O	1.214743	0.740909	0.441655
O17	O	1.115731	0.740853	0.570691
C18	C	0.955806	0.506020	0.506185
C19	C	0.866185	0.506038	0.506197
C20	C	1.165249	0.779002	0.506189
C21	C	1.165302	0.895779	0.506213
C22	C	1.165358	0.505932	0.780248
C23	C	1.165384	0.505888	0.897025
C24	C	0.538010	0.506045	0.506242
C25	C	0.629318	0.506040	0.506227
C26	C	0.702094	0.506042	0.506219
C27	C	0.793409	0.506036	0.506205
C28	C	1.375606	0.506050	0.506245
C29	C	1.465227	0.506057	0.506257
C30	C	1.165368	0.232001	0.506263
C31	C	1.165398	0.115224	0.506284
C32	C	1.268480	0.895784	0.371949
C33	C	1.320090	0.950647	0.304829
C34	C	1.320137	1.060368	0.304858
C35	C	1.268571	1.115229	0.372015
C36	C	1.216961	1.060366	0.439135
C37	C	1.216917	0.950642	0.439097
C38	C	1.113788	1.060361	0.573403
C39	C	1.113735	0.950640	0.573371
C40	C	1.062221	1.115222	0.640561
C41	C	1.010606	1.060359	0.707677
C42	C	1.010560	0.950631	0.707645
C43	C	1.062125	0.895776	0.640491
C44	C	1.165283	0.506061	0.233247
C45	C	1.165413	0.505809	0.116471
C46	C	1.268556	0.371524	0.897083
C47	C	1.320154	0.304327	0.951973
C48	C	1.320173	0.304289	1.061695
C49	C	1.268588	0.371453	1.116529
C50	C	1.216991	0.438650	1.061639
C51	C	1.216979	0.438683	0.951915
C52	C	1.113816	0.573007	1.061581
C53	C	1.113799	0.573052	0.951859
C54	C	1.062231	0.640171	1.116415
C55	C	1.010636	0.707375	1.061525
C56	C	1.010619	0.707411	0.951797
C57	C	1.062202	0.640249	0.896969
H58	H	1.268436	0.806443	0.371905
H59	H	1.362152	0.249642	0.907315
C60	C	1.376280	0.231292	1.121107
C61	C	1.421464	0.172497	1.049609
C62	C	1.473164	0.105252	1.104300
H63	H	1.345546	0.185406	1.163918
H64	H	1.411447	0.271455	1.163886
H65	H	1.386301	0.132337	1.006848
H66	H	1.452214	0.218355	1.006796
H67	H	1.508331	0.145415	1.147079
H68	H	1.442423	0.059373	1.147109
H69	H	1.503833	0.065358	1.055798
H70	H	1.062247	0.640131	1.205756
C71	C	0.954723	0.780248	1.121248
C72	C	0.965793	0.765843	1.229085
C73	C	0.914307	0.832968	1.284137
H74	H	0.900517	0.764939	1.103379
H75	H	0.966508	0.850872	1.103322
H76	H	0.954002	0.695236	1.247003
H77	H	1.019988	0.781160	1.246984
H78	H	0.926092	0.903591	1.266211
H79	H	0.860104	0.817653	1.266260
H80	H	0.921816	0.823210	1.357310
H81	H	0.968594	0.762120	0.907112
H82	H	0.968536	0.905967	0.762307
C83	C	1.375938	0.891026	0.231785
C84	C	1.330275	0.828162	0.164363
C85	C	1.381693	0.773238	0.097054
H86	H	1.411055	0.848064	0.271876
H87	H	1.406668	0.939380	0.191754
H88	H	1.299559	0.779813	0.204390
H89	H	1.295160	0.871098	0.124249
H90	H	1.412423	0.821593	0.057023
H91	H	1.416808	0.730283	0.137153
H92	H	1.350719	0.730587	0.051294
C93	C	1.268717	1.234356	0.371863
C94	C	1.324941	1.270661	0.298697
C95	C	1.325090	1.380394	0.298519
H96	H	1.282676	1.259232	0.439623
H97	H	1.216716	1.259291	0.353592
H98	H	1.376931	1.245736	0.316973
H99	H	1.310995	1.245814	0.230926
H100	H	1.273089	1.405330	0.280249
H101	H	1.339047	1.405260	0.366283
H102	H	1.363232	1.405041	0.248870
C103	C	1.062358	1.234348	0.640795
C104	C	1.082933	1.270543	0.740845
C105	C	1.083076	1.380276	0.741097
H106	H	1.010368	1.259375	0.622647
H107	H	1.100503	1.259208	0.591251
H108	H	1.044789	1.245695	0.790373
H109	H	1.134923	1.245545	0.759012
H110	H	1.121221	1.405136	0.691554
H111	H	1.031085	1.405293	0.722946
H112	H	1.097043	1.404848	0.808977
C113	C	0.954726	1.119866	0.780762
C114	C	0.972249	1.093085	0.884724
C115	C	0.920796	1.147898	0.952078
H116	H	0.900518	1.102010	0.765461
H117	H	0.962158	1.193079	0.771241
H118	H	0.964810	1.019889	0.894239
H119	H	1.026448	1.110944	0.900057
H120	H	0.928228	1.221110	0.942558
H121	H	0.866590	1.130037	0.936768
H122	H	0.932683	1.129742	1.022624
H123	H	1.362167	1.105038	0.250208
H124	H	1.062087	0.806435	0.640452
C125	C	1.062104	0.640493	0.777842
C126	C	1.005896	0.713737	0.741503
C127	C	1.005797	0.714001	0.631769
H128	H	1.048157	0.572764	0.752890
H129	H	1.114116	0.658737	0.753007
H130	H	0.953895	0.695486	0.766327
H131	H	1.019831	0.781475	0.766426
H132	H	1.057809	0.732245	0.606934
H133	H	0.991851	0.646269	0.606827
H134	H	0.967666	0.763702	0.607098
H135	H	1.268553	0.371559	0.807742
H136	H	1.268602	0.371407	1.205870
