data_functionalizedCrystal
_audit_creation_method	'MofGen! by Chris Wilmer'
_symmetry_space_group_name_H-M	'P1'
_symmetry_Int_Tables_number	1
_symmetry_cell_setting	triclinic
loop_
_symmetry_equiv_pos_as_xyz
  x,y,z
_cell_length_a	6.817900
_cell_length_b	12.908942
_cell_length_c	23.752930
_cell_angle_alpha	96.512954
_cell_angle_beta	100.066047
_cell_angle_gamma	100.860556
loop_
_atom_site_label
_atom_site_type_symbol
_atom_site_fract_x
_atom_site_fract_y
_atom_site_fract_z
V1	V	-3.975259	-0.147240	-0.178072
O2	O	-3.977550	0.005645	-0.175009
O3	O	-3.913857	-0.290576	-0.176539
O4	O	-3.910450	-0.145602	-0.255879
O5	O	-3.980981	-0.140332	-0.095120
V6	V	-4.462697	-0.128879	-0.168188
O7	O	-4.227927	-0.187516	-0.199752
O8	O	-4.660226	-0.088602	-0.146508
O9	O	-4.300892	0.014458	-0.169721
O10	O	-4.577802	-0.281764	-0.171251
O11	O	-4.574372	-0.135786	-0.251140
O12	O	-4.304299	-0.130516	-0.090381
C13	C	-3.756226	-0.325499	-0.173648
C14	C	-3.787201	-0.442682	-0.172914
C15	C	-4.207470	-0.673669	-0.177231
C16	C	-4.236583	-0.783774	-0.176541
C17	C	-3.874544	-0.772999	-0.170847
C18	C	-3.845432	-0.662895	-0.171538
C19	C	-4.011902	-0.613234	-0.174729
C20	C	-3.982784	-0.503126	-0.175415
C21	C	-3.620751	-0.492355	-0.169725
C22	C	-3.649863	-0.602459	-0.169035
C23	C	-3.751879	-0.140569	-0.274853
C24	C	-3.780089	-0.140179	-0.338459
C25	C	-4.136212	-0.142946	-0.735777
C26	C	-4.162742	-0.142565	-0.795541
O27	O	-4.330385	-0.146826	-0.828915
N28	N	-3.995002	-0.137097	-0.822529
C29	C	-3.800715	-0.131998	-0.789750
O30	O	-3.660475	-0.127311	-0.818193
C31	C	-3.774186	-0.132371	-0.729987
C32	C	-3.941943	-0.137851	-0.703003
C33	C	-4.303953	-0.148424	-0.708793
C34	C	-4.277426	-0.148806	-0.649034
C35	C	-4.083156	-0.143711	-0.616259
C36	C	-3.915415	-0.138233	-0.643244
C37	C	-3.579900	-0.127265	-0.697208
C38	C	-3.553384	-0.127637	-0.637441
C39	C	-3.721141	-0.133117	-0.610457
C40	C	-3.694617	-0.133520	-0.550710
N41	N	-3.862357	-0.138989	-0.523722
C42	C	-4.056627	-0.144084	-0.556496
C43	C	-3.856442	-0.131214	-0.915256
C44	C	-3.882971	-0.130848	-0.975018
C45	C	-4.244996	-0.141413	-0.980805
C46	C	-4.218466	-0.141786	-0.921042
C47	C	-4.024182	-0.136682	-0.888267
C48	C	-4.000903	-0.144888	-0.430998
C49	C	-3.974358	-0.145274	-0.371234
C50	C	-3.612335	-0.134703	-0.365451
C51	C	-3.638878	-0.134323	-0.425211
C52	C	-3.833177	-0.139411	-0.457983
O53	O	-3.527034	-0.129258	-0.517298
O54	O	-4.196834	-0.148756	-0.528044
C55	C	-4.121865	0.049375	-0.172610
C56	C	-4.070128	0.166557	-0.173348
C57	C	-4.126213	-0.135553	-0.071404
C58	C	-4.077242	-0.135938	-0.007798
H59	H	-4.343012	-0.633232	-0.179821
Br60	Br	-4.567635	-0.155342	-0.753262
Br61	Br	-3.648655	-0.840418	-0.166526
Br62	Br	-4.208702	-0.435728	-0.179744
H63	H	-4.395831	-0.832977	-0.178580
Br64	Br	-3.355319	-0.410329	-0.166328
H65	H	-3.502280	-0.129873	-0.447183
H66	H	-3.514337	-0.642909	-0.166439
Br67	Br	-3.289696	-0.120699	-0.592964
Br68	Br	-4.202048	-0.152717	-0.334617
Br69	Br	-3.348692	-0.127795	-0.320961
Br70	Br	-4.264590	-0.151791	-0.475464
H71	H	-4.414033	-0.153263	-0.627069
H72	H	-4.355071	-0.146248	-0.899076
Br73	Br	-4.508655	-0.148327	-1.025296
H74	H	-3.746368	-0.126403	-0.996984
H75	H	-3.698226	-0.127056	-0.888574
H76	H	-3.443289	-0.122804	-0.719168
