data_functionalizedCrystal
_audit_creation_method	'MofGen! by Chris Wilmer'
_symmetry_space_group_name_H-M	'P1'
_symmetry_Int_Tables_number	1
_symmetry_cell_setting	triclinic
loop_
_symmetry_equiv_pos_as_xyz
  x,y,z
_cell_length_a	8.559649
_cell_length_b	12.811415
_cell_length_c	7.681481
_cell_angle_alpha	101.166393
_cell_angle_beta	85.086760
_cell_angle_gamma	76.944044
loop_
_atom_site_label
_atom_site_type_symbol
_atom_site_fract_x
_atom_site_fract_y
_atom_site_fract_z
O1	O	2.105266	-0.024742	0.142450
O2	O	1.639523	0.030102	0.151216
O3	O	1.886640	-0.152948	0.121974
O4	O	1.858148	0.158308	0.171692
O5	O	1.917057	-0.175524	-0.174491
O6	O	1.669939	0.007526	-0.145248
O7	O	2.135683	-0.047318	-0.154015
Zn8	Zn	1.907640	-0.023480	-0.196701
Zn9	Zn	1.867565	0.006264	0.193903
O10	O	1.888565	0.135732	-0.124772
C11	C	1.595160	0.022970	0.003649
C12	C	1.417658	0.035342	0.005628
C13	C	1.901185	-0.203714	-0.032561
C14	C	1.899187	-0.321346	-0.051339
C15	C	1.862241	-0.517760	0.236617
C16	C	1.860364	-0.628284	0.218981
C17	C	1.893543	-0.652920	-0.104244
C18	C	1.895420	-0.542396	-0.086608
C19	C	1.879771	-0.474819	0.083828
C20	C	1.881661	-0.364294	0.101461
C21	C	1.914828	-0.388930	-0.221762
C22	C	1.912950	-0.499455	-0.239398
C23	C	2.180045	-0.040186	-0.006443
C24	C	2.357545	-0.052557	-0.008410
C25	C	1.874020	0.186499	0.029766
C26	C	1.876016	0.304131	0.048556
N27	N	1.935002	-0.043782	-0.463279
N28	N	1.840216	0.026556	0.460479
H29	H	1.868923	-0.309275	0.240239
F30	F	1.307427	0.146086	0.023333
F31	F	1.845608	-0.445841	0.418003
H32	H	1.743458	0.098351	-0.452855
F33	F	2.061495	-0.137621	-0.576564
F34	F	1.841701	-0.673980	0.381601
H35	H	1.441874	-0.137275	-0.021934
H36	H	1.925685	-0.554489	-0.378162
F37	F	1.910157	-0.724850	-0.285618
H38	H	1.929109	-0.353958	-0.346175
