data_functionalizedCrystal
_audit_creation_method	'MofGen! by Chris Wilmer'
_symmetry_space_group_name_H-M	'P1'
_symmetry_Int_Tables_number	1
_symmetry_cell_setting	triclinic
loop_
_symmetry_equiv_pos_as_xyz
  x,y,z
_cell_length_a	15.624803
_cell_length_b	15.625429
_cell_length_c	13.448316
_cell_angle_alpha	71.916250
_cell_angle_beta	71.907267
_cell_angle_gamma	78.660423
loop_
_atom_site_label
_atom_site_type_symbol
_atom_site_fract_x
_atom_site_fract_y
_atom_site_fract_z
O1	O	1.196482	0.117638	-0.556659
O2	O	0.933998	0.131674	-0.467047
O3	O	1.072251	-0.006574	-0.467062
O4	O	1.058229	0.255886	-0.556643
O5	O	1.072234	-0.006582	-0.301669
O6	O	0.933980	0.131666	-0.301653
O7	O	1.196465	0.117629	-0.391265
Cu8	Cu	1.065221	0.124647	-0.331358
Cu9	Cu	1.065242	0.124657	-0.526954
O10	O	1.058212	0.255877	-0.391250
C11	C	0.900397	0.131037	-0.372006
C12	C	0.800304	0.129138	-0.335220
C13	C	0.471251	0.122870	-0.665096
C14	C	0.377200	0.121068	-0.630522
C15	C	0.377158	0.121058	-0.450209
C16	C	0.471211	0.122855	-0.484766
C17	C	0.518250	0.123762	-0.592211
C18	C	0.518211	0.123748	-0.411881
C19	C	0.612255	0.125549	-0.446437
C20	C	0.659300	0.126459	-0.553878
C21	C	0.612294	0.125563	-0.626767
C22	C	0.471169	0.122848	-0.304439
C23	C	0.518169	0.123740	-0.231554
C24	C	0.612216	0.125535	-0.266107
C25	C	0.659260	0.126444	-0.373549
C26	C	0.659221	0.126430	-0.193219
C27	C	0.753265	0.128232	-0.227775
C28	C	0.753305	0.128246	-0.408105
C29	C	1.071607	-0.040167	-0.372027
C30	C	1.069703	-0.140250	-0.335259
C31	C	1.063462	-0.469390	-0.665064
C32	C	1.061668	-0.563433	-0.630482
C33	C	1.061650	-0.563428	-0.450183
C34	C	1.063448	-0.469384	-0.484751
C35	C	1.064352	-0.422372	-0.592193
C36	C	1.064338	-0.422366	-0.411879
C37	C	1.066131	-0.328329	-0.446443
C38	C	1.067033	-0.281310	-0.553880
C39	C	1.066145	-0.328335	-0.626757
C40	C	1.063427	-0.469379	-0.304436
C41	C	1.064318	-0.422361	-0.231564
C42	C	1.066117	-0.328324	-0.266130
C43	C	1.067019	-0.281305	-0.373566
C44	C	1.067005	-0.281299	-0.193253
C45	C	1.068798	-0.187262	-0.227817
C46	C	1.068812	-0.187268	-0.408131
C47	C	1.230066	0.118267	-0.486309
C48	C	1.330159	0.120165	-0.523101
C49	C	1.058856	0.289470	-0.486287
C50	C	1.060760	0.389554	-0.523062
N51	N	1.065213	0.124639	-0.193788
N52	N	1.065257	0.124657	-0.664524
C53	C	1.126451	0.063448	-0.141770
C54	C	1.126457	0.063447	-0.037669
C55	C	1.065228	0.124643	0.014410
C56	C	1.003984	0.185837	-0.037613
C57	C	1.003975	0.185832	-0.141710
C58	C	1.004009	0.185843	0.179356
C59	C	1.004019	0.185848	0.283458
C60	C	1.126491	0.063458	0.283396
C61	C	1.126482	0.063453	0.179300
C62	C	1.065238	0.124649	0.127283
H63	H	0.338846	0.120324	-0.362728
Br64	Br	0.313416	0.119865	-0.729453
H65	H	0.791532	0.128964	-0.168426
H66	H	0.735876	0.127931	-0.582014
H67	H	0.954135	0.235672	0.137009
Br68	Br	0.920920	0.268903	0.354130
H69	H	1.064207	-0.431111	-0.752557
Br70	Br	1.209584	-0.019589	0.108612
Br71	Br	1.209609	-0.019588	0.353991
Br72	Br	1.209558	-0.019601	-0.212443
Br73	Br	0.676143	0.126778	-0.772582
H74	H	1.060910	-0.601718	-0.362702
Br75	Br	1.063078	-0.486170	-0.085751
H76	H	0.509553	0.123605	-0.752587
Br77	Br	0.920879	0.268883	0.033066
H78	H	1.069557	-0.148989	-0.495623
H79	H	1.176320	0.013620	0.004684
H80	H	1.069504	-0.148977	-0.168471
H81	H	0.394592	0.121386	-0.276308
Br82	Br	0.454322	0.122517	-0.085743
H83	H	0.620907	0.125701	-0.105740
Br84	Br	1.060988	-0.597002	-0.257524
Br85	Br	0.920857	0.268875	-0.212301
H86	H	0.791607	0.128981	-0.495596
H87	H	1.068484	-0.204738	-0.582017
Br88	Br	1.065754	-0.345109	-0.047437
Br89	Br	1.060450	-0.627240	-0.729390
Br90	Br	1.067391	-0.264526	-0.772579
