data_functionalizedCrystal
_audit_creation_method	'MofGen! by Chris Wilmer'
_symmetry_space_group_name_H-M	'P1'
_symmetry_Int_Tables_number	1
_symmetry_cell_setting	triclinic
loop_
_symmetry_equiv_pos_as_xyz
  x,y,z
_cell_length_a	19.188930
_cell_length_b	15.944499
_cell_length_c	14.421503
_cell_angle_alpha	89.997978
_cell_angle_beta	89.978657
_cell_angle_gamma	96.688805
loop_
_atom_site_label
_atom_site_type_symbol
_atom_site_fract_x
_atom_site_fract_y
_atom_site_fract_z
O1	O	-0.926404	0.104859	0.077411
O2	O	-0.426404	0.604859	0.577411
O3	O	-0.723127	0.118976	0.077347
O4	O	-0.223127	0.618976	0.577347
O5	O	-0.830335	-0.010381	0.077374
O6	O	-0.330335	0.489619	0.577374
O7	O	-0.819195	0.234216	0.077384
O8	O	-0.319195	0.734216	0.577384
O9	O	-0.830318	-0.010366	-0.076850
O10	O	-0.330318	0.489634	0.423150
O11	O	-0.723110	0.118991	-0.076876
O12	O	-0.223110	0.618991	0.423124
O13	O	-0.926387	0.104874	-0.076813
O14	O	-0.426387	0.604874	0.423187
Cu15	Cu	-0.824747	0.111934	-0.090926
Cu16	Cu	-0.324747	0.611934	0.409074
Cu17	Cu	-0.824767	0.111916	0.091461
Cu18	Cu	-0.324767	0.611916	0.591461
O19	O	-0.819178	0.234231	-0.076839
O20	O	-0.319178	0.734231	0.423161
C21	C	-0.697106	0.118526	0.000227
C22	C	-0.197106	0.618526	0.500227
C23	C	-0.619598	0.117154	0.000203
C24	C	-0.119598	0.617154	0.500203
C25	C	-0.829870	-0.041667	0.000262
C26	C	-0.329870	0.458333	0.500262
C27	C	-0.828503	-0.134910	0.000262
C28	C	-0.328503	0.365090	0.500262
C29	C	-0.952407	0.105324	0.000309
C30	C	-0.452407	0.605324	0.500309
C31	C	-1.029915	0.106696	0.000340
C32	C	-0.529915	0.606696	0.500340
C33	C	-0.574859	0.193057	0.000221
C34	C	-0.074859	0.693057	0.500221
C35	C	-0.502032	0.191767	0.000231
C36	C	-0.002032	0.691767	0.500231
C37	C	-0.473948	0.114571	0.000242
C38	C	0.026052	0.614571	0.500242
C39	C	-0.518697	0.038659	0.000219
C40	C	-0.018697	0.538659	0.500219
C41	C	-0.591522	0.039950	0.000199
C42	C	-0.091522	0.539950	0.500199
N43	N	-0.365830	0.055559	0.052766
N44	N	0.134170	0.555559	0.552766
N45	N	-0.296648	0.054338	0.052786
N46	N	0.203352	0.554338	0.552786
C47	C	-0.254529	0.110676	0.000298
C48	C	0.245471	0.610676	0.500298
N49	N	-0.284204	0.168294	-0.052199
N50	N	0.215796	0.668294	0.447801
N51	N	-0.353392	0.169518	-0.052215
N52	N	0.146608	0.669518	0.447785
C53	C	-0.394982	0.113162	0.000262
C54	C	0.105018	0.613162	0.500262
C55	C	-0.130822	0.185185	0.000326
C56	C	0.369178	0.685185	0.500326
C57	C	-0.057994	0.183893	0.000330
C58	C	0.442006	0.683893	0.500330
C59	C	-0.074661	0.030782	0.000327
C60	C	0.425339	0.530782	0.500327
C61	C	-0.147487	0.032077	0.000314
C62	C	0.352513	0.532077	0.500314
C63	C	-0.175563	0.109281	0.000317
C64	C	0.324437	0.609281	0.500317
C65	C	-0.819643	0.265517	0.000275
C66	C	-0.319643	0.765517	0.500275
C67	C	-0.821010	0.358760	0.000281
C68	C	-0.321010	0.858760	0.500281
N69	N	-0.824737	0.111946	-0.219207
N70	N	-0.324737	0.611946	0.280793
C71	C	-0.758725	0.650529	0.000252
C72	C	-0.258725	1.150529	0.500252
C73	C	-0.791094	0.589386	-0.075780
C74	C	-0.291094	1.089386	0.424220
C75	C	-0.825978	0.694378	0.000267
C76	C	-0.325978	1.194378	0.500267
C77	C	-0.791129	0.589385	0.076272
C78	C	-0.291129	1.089385	0.576272
C79	C	-0.823533	0.529478	0.000275
C80	C	-0.323533	1.029478	0.500275
C81	C	-0.858365	0.634463	-0.075829
C82	C	-0.358365	1.134463	0.424171
C83	C	-0.858391	0.634469	0.076292
C84	C	-0.358391	1.134469	0.576292
C85	C	-0.890809	0.573343	0.000240
C86	C	-0.390809	1.073343	0.500240
C87	C	-0.827384	0.789373	0.000261
C88	C	-0.327384	1.289373	0.500261
C89	C	-0.822132	0.434485	0.000274
C90	C	-0.322132	0.934485	0.500274
C91	C	-0.775573	0.172226	-0.530673
C92	C	-0.275573	0.672226	-0.030673
C93	C	-0.761458	0.096608	-0.468854
C94	C	-0.261458	0.596608	0.031146
C95	C	-0.824766	0.111912	-0.591096
C96	C	-0.324766	0.611912	-0.091096
C97	C	-0.838835	0.187545	-0.468822
C98	C	-0.338835	0.687545	0.031178
C99	C	-0.824750	0.111933	-0.408375
C100	C	-0.324750	0.611933	0.091625
C101	C	-0.810619	0.036256	-0.530638
C102	C	-0.310619	0.536256	-0.030638
C103	C	-0.888024	0.127243	-0.530612
C104	C	-0.388024	0.627243	-0.030612
C105	C	-0.873935	0.051570	-0.468820
C106	C	-0.373935	0.551570	0.031180
C107	C	-0.824774	0.111902	-0.696358
C108	C	-0.324774	0.611902	-0.196358
C109	C	-0.824743	0.111935	-0.303116
C110	C	-0.324743	0.611935	0.196884
N111	N	-0.824781	0.111898	0.219742
N112	N	-0.324781	0.611898	0.719742
H113	H	-0.597713	0.255922	0.000226
H114	H	-0.097713	0.755922	0.500226
H115	H	-0.465598	0.253578	0.000243
H116	H	0.034402	0.753578	0.500243
H117	H	-0.707956	0.083647	-0.441719
H118	H	-0.207956	0.583647	0.058281
C119	C	-0.752659	0.562386	-0.162635
C120	C	-0.252659	1.062386	0.337365
H121	H	-0.705738	0.589083	-0.162557
H122	H	-0.205738	1.089083	0.337443
H123	H	-0.776091	0.578577	-0.216625
H124	H	-0.276091	1.078577	0.283375
H125	H	-0.752422	0.502839	-0.162291
H126	H	-0.252422	1.002839	0.337709
C127	C	-0.196706	-0.051415	0.000308
C128	C	0.303294	0.448585	0.500308
H129	H	-0.244100	-0.039590	0.000289
H130	H	0.255900	0.460410	0.500289
H131	H	-0.188217	-0.083086	0.054091
H132	H	0.311783	0.416914	0.554091
H133	H	-0.188172	-0.083075	-0.053478
H134	H	0.311828	0.416925	0.446522
C135	C	-0.966268	0.528224	0.000205
C136	C	-0.466268	1.028224	0.500205
H137	H	-0.990035	0.543643	-0.053853
H138	H	-0.490035	1.043643	0.446147
H139	H	-0.990341	0.544341	0.053716
H140	H	-0.490341	1.044341	0.553716
H141	H	-0.964976	0.468845	0.000708
H142	H	-0.464976	0.968845	0.500708
H143	H	-0.021567	0.245705	0.000340
H144	H	0.478433	0.745705	0.500340
C145	C	-0.487807	-0.046255	0.000236
C146	C	0.012193	0.453745	0.500236
H147	H	-0.438027	-0.036153	0.000261
H148	H	0.061973	0.463847	0.500261
H149	H	-0.503139	-0.077495	-0.053548
H150	H	-0.003139	0.422505	0.446452
H151	H	-0.503191	-0.077499	0.054021
H152	H	-0.003191	0.422501	0.554021
C153	C	-0.896744	0.661311	-0.162764
C154	C	-0.396744	1.161311	0.337236
H155	H	-0.897371	0.720801	-0.162254
H156	H	-0.397371	1.220801	0.337746
H157	H	-0.943522	0.634187	-0.162975
H158	H	-0.443522	1.134187	0.337025
H159	H	-0.872999	0.645522	-0.216701
H160	H	-0.372999	1.145522	0.283299
H161	H	-0.733951	0.223165	-0.557830
H162	H	-0.233951	0.723165	-0.057830
C163	C	-0.794444	-0.050154	-0.567158
C164	C	-0.294444	0.449846	-0.067158
H165	H	-0.794523	-0.049624	-0.633032
H166	H	-0.294523	0.450376	-0.133032
H167	H	-0.829173	-0.093005	-0.545486
H168	H	-0.329173	0.406995	-0.045486
H169	H	-0.749643	-0.061132	-0.545499
H170	H	-0.249643	0.438868	-0.045499
H171	H	-0.915531	0.000518	-0.441835
H172	H	-0.415531	0.500518	0.058165
H173	H	-0.762683	0.569420	0.140555
H174	H	-0.262683	1.069420	0.640555
H175	H	-0.627950	-0.021861	0.000185
H176	H	-0.127950	0.478139	0.500185
H177	H	-0.153683	0.248049	0.000315
H178	H	0.346317	0.748049	0.500315
H179	H	-0.941509	0.140232	-0.557763
H180	H	-0.441509	0.640232	-0.057763
C181	C	-0.683332	0.695846	0.000131
C182	C	-0.183332	1.195846	0.500131
H183	H	-0.659542	0.680530	-0.053973
H184	H	-0.159542	1.180530	0.446027
H185	H	-0.659207	0.679769	0.053594
H186	H	-0.159207	1.179769	0.553594
H187	H	-0.684737	0.755205	0.000678
H188	H	-0.184737	1.255205	0.500678
C189	C	-0.043777	-0.054132	0.000345
C190	C	0.456223	0.445868	0.500345
H191	H	0.006003	-0.044032	0.000366
H192	H	0.506003	0.455968	0.500366
H193	H	-0.059112	-0.085375	-0.053437
H194	H	0.440888	0.414625	0.446563
H195	H	-0.059159	-0.085374	0.054132
H196	H	0.440841	0.414626	0.554132
C197	C	-0.896794	0.661502	0.163150
C198	C	-0.396794	1.161502	0.663150
H199	H	-0.872837	0.646254	0.217122
H200	H	-0.372837	1.146254	0.717122
H201	H	-0.943452	0.634012	0.163711
H202	H	-0.443452	1.134012	0.663711
H203	H	-0.897768	0.720930	0.162215
H204	H	-0.397768	1.220930	0.662215
H205	H	-0.850751	0.251500	-0.441686
H206	H	-0.350751	0.751500	0.058314
