data_functionalizedCrystal
_audit_creation_method	'MofGen! by Chris Wilmer'
_symmetry_space_group_name_H-M	'P1'
_symmetry_Int_Tables_number	1
_symmetry_cell_setting	triclinic
loop_
_symmetry_equiv_pos_as_xyz
  x,y,z
_cell_length_a	10.489741
_cell_length_b	10.868271
_cell_length_c	11.792241
_cell_angle_alpha	90.005737
_cell_angle_beta	84.366295
_cell_angle_gamma	89.997969
loop_
_atom_site_label
_atom_site_type_symbol
_atom_site_fract_x
_atom_site_fract_y
_atom_site_fract_z
O1	O	1.693501	0.102247	0.160139
O2	O	2.026834	0.435580	0.493472
O3	O	2.360167	0.768913	0.826805
O4	O	1.322254	0.102266	0.175170
O5	O	1.655587	0.435599	0.508503
O6	O	1.988920	0.768933	0.841837
O7	O	1.516886	0.102247	0.002508
O8	O	1.850220	0.435581	0.335841
O9	O	2.183553	0.768914	0.669175
O10	O	1.498868	0.102265	0.332801
O11	O	1.832201	0.435599	0.666134
O12	O	2.165535	0.768932	0.999467
O13	O	1.516884	-0.102397	0.002499
O14	O	1.850217	0.230936	0.335832
O15	O	2.183551	0.564269	0.669165
O16	O	1.322252	-0.102379	0.175160
O17	O	1.655585	0.230955	0.508494
O18	O	1.988918	0.564288	0.841827
O19	O	1.693498	-0.102398	0.160129
O20	O	2.026832	0.230935	0.493462
O21	O	2.360165	0.564269	0.826796
Zn22	Zn	1.507875	-0.134880	0.167643
Zn23	Zn	1.841208	0.198453	0.500977
Zn24	Zn	2.174541	0.531787	0.834310
Zn25	Zn	1.507878	0.134748	0.167656
Zn26	Zn	1.841211	0.468081	0.500989
Zn27	Zn	2.174544	0.801415	0.834323
O28	O	1.498866	-0.102379	0.332791
O29	O	1.832199	0.230954	0.666124
O30	O	2.165533	0.564287	0.999458
C31	C	1.274725	-0.000054	0.174030
C32	C	1.608058	0.333279	0.507363
C33	C	1.941392	0.666613	0.840697
C34	C	1.133107	-0.000047	0.170633
C35	C	1.466440	0.333286	0.503967
C36	C	1.799774	0.666620	0.837300
N37	N	1.507882	-0.318894	0.167634
N38	N	1.841215	0.014439	0.500967
N39	N	2.174548	0.347773	0.834301
C40	C	1.065341	-0.000065	0.060774
C41	C	1.398675	0.333269	0.394107
C42	C	1.732008	0.666602	0.727440
C43	C	0.973039	0.100836	0.112675
C44	C	1.306372	0.434170	0.446008
C45	C	1.639705	0.767503	0.779342
C46	C	0.973070	-0.100927	0.112692
C47	C	1.306404	0.232406	0.446025
C48	C	1.639737	0.565739	0.779358
C49	C	1.042670	0.100937	0.222580
C50	C	1.376003	0.434271	0.555913
C51	C	1.709336	0.767604	0.889247
C52	C	1.042711	-0.100917	0.222581
C53	C	1.376044	0.232416	0.555915
C54	C	1.709378	0.565750	0.889248
C55	C	0.950436	0.000008	0.274563
C56	C	1.283769	0.333342	0.607896
C57	C	1.617102	0.666675	0.941229
N58	N	1.507880	0.318762	0.167656
N59	N	1.841214	0.652095	0.500990
N60	N	2.174547	0.985429	0.834323
C61	C	1.741027	-0.000075	0.161269
C62	C	2.074361	0.333258	0.494603
C63	C	2.407694	0.666591	0.827936
C64	C	1.882645	-0.000074	0.164666
C65	C	2.215979	0.333259	0.497999
C66	C	2.549312	0.666592	0.831332
C67	C	1.515753	-0.000075	-0.039791
C68	C	1.849087	0.333259	0.293543
C69	C	2.182420	0.666592	0.626876
C70	C	1.512366	-0.000073	-0.165813
C71	C	1.845699	0.333260	0.167520
C72	C	2.179032	0.666593	0.500853
C73	C	1.507877	0.569768	0.167649
C74	C	1.841210	0.903102	0.500982
C75	C	2.174544	1.236435	0.834316
C76	C	1.507875	0.430091	0.167657
C77	C	1.841209	0.763424	0.500990
C78	C	2.174542	1.096757	0.834323
C79	C	1.506136	-0.000052	-0.396542
C80	C	1.839470	0.333281	-0.063209
C81	C	2.172803	0.666614	0.270124
C82	C	1.509598	-0.000064	-0.268148
C83	C	1.842931	0.333270	0.065185
C84	C	2.176264	0.666603	0.398519
C85	C	1.499999	-0.000055	0.375090
C86	C	1.833332	0.333279	0.708423
C87	C	2.166665	0.666612	1.041756
C88	C	1.503387	-0.000048	0.501113
C89	C	1.836720	0.333285	0.834446
C90	C	2.170053	0.666619	1.167779
H91	H	1.115339	0.000057	-0.029538
H92	H	1.448672	0.333390	0.303795
H93	H	1.782005	0.666723	0.637129
H94	H	1.073598	-0.186222	0.269023
H95	H	1.406931	0.147112	0.602357
H96	H	1.740264	0.480445	0.935690
H97	H	0.942184	0.186137	0.066195
H98	H	1.275517	0.519470	0.399528
H99	H	1.608850	0.852804	0.732862
F100	F	1.082753	0.212563	0.283296
F101	F	1.416086	0.545896	0.616629
F102	F	1.749420	0.879229	0.949963
H103	H	0.942250	-0.186231	0.066184
H104	H	1.275583	0.147102	0.399517
H105	H	1.608916	0.480435	0.732851
H106	H	0.900704	0.000068	0.364970
H107	H	1.234037	0.333402	0.698303
H108	H	1.567370	0.666735	1.031637
