data_functionalizedCrystal
_audit_creation_method	'MofGen! by Chris Wilmer'
_symmetry_space_group_name_H-M	'P1'
_symmetry_Int_Tables_number	1
_symmetry_cell_setting	triclinic
loop_
_symmetry_equiv_pos_as_xyz
  x,y,z
_cell_length_a	12.759401
_cell_length_b	14.908520
_cell_length_c	12.759393
_cell_angle_alpha	93.263453
_cell_angle_beta	89.981287
_cell_angle_gamma	93.322137
loop_
_atom_site_label
_atom_site_type_symbol
_atom_site_fract_x
_atom_site_fract_y
_atom_site_fract_z
Zn1	Zn	1.582056	-0.359078	-0.618119
Zn2	Zn	1.571791	-0.509962	-0.452566
Zn3	Zn	1.406359	-0.359126	-0.442458
Zn4	Zn	1.396188	-0.509898	-0.628199
O5	O	1.489098	-0.434516	-0.535335
O6	O	1.727715	-0.379099	-0.596170
O7	O	1.549806	-0.489999	-0.304207
O8	O	1.438218	-0.232875	-0.457311
O9	O	1.720173	-0.489953	-0.474539
O10	O	1.567302	-0.232839	-0.586369
O11	O	1.428264	-0.379181	-0.296781
O12	O	1.257989	-0.379120	-0.467085
O13	O	1.420883	-0.489845	-0.773880
O14	O	1.250516	-0.489892	-0.603548
O15	O	1.557440	-0.379038	-0.766474
O16	O	1.539944	-0.636198	-0.484313
O17	O	1.410929	-0.636151	-0.613349
C18	C	1.216132	-0.434505	-0.535314
C19	C	1.099354	-0.434522	-0.535331
C20	C	1.040623	-0.492289	-0.606288
C21	C	0.930898	-0.492292	-0.606309
C22	C	0.938646	-0.376759	-0.464407
C23	C	1.048369	-0.376752	-0.464392
C24	C	0.778817	-0.524663	-0.732342
C25	C	0.720081	-0.582444	-0.803290
C26	C	0.749748	-0.670486	-0.825147
C27	C	0.838148	-0.700764	-0.776041
C28	C	0.896878	-0.642988	-0.705085
C29	C	0.867213	-0.554934	-0.683248
C30	C	1.200452	-0.344390	-0.338358
C31	C	1.259183	-0.286618	-0.267397
C32	C	1.229519	-0.198575	-0.245529
C33	C	1.141115	-0.168300	-0.294617
C34	C	1.082384	-0.226072	-0.365578
C35	C	1.112056	-0.314114	-0.387447
C36	C	1.473248	-0.668908	-0.551045
C37	C	1.466563	-0.769182	-0.557800
C38	C	1.588482	-0.957595	-0.436237
C39	C	1.582205	-1.051812	-0.442581
C40	C	1.447736	-1.051833	-0.576837
C41	C	1.454014	-0.957617	-0.570493
C42	C	1.524388	-0.910501	-0.500189
C43	C	1.530660	-0.816283	-0.493841
C44	C	1.396197	-0.816306	-0.628101
C45	C	1.389919	-0.910523	-0.634445
C46	C	1.763131	-0.434528	-0.535358
C47	C	1.879907	-0.434533	-0.535367
C48	C	1.489172	-0.434429	-0.809363
C49	C	1.489204	-0.434392	-0.926137
C50	C	1.505040	-0.199208	-0.519588
C51	C	1.511833	-0.098934	-0.512877
C52	C	1.418123	-0.492063	-0.984855
C53	C	1.418163	-0.492029	-1.094577
C54	C	1.560367	-0.376647	-1.086853
C55	C	1.560332	-0.376686	-0.977134
C56	C	1.373463	-0.598369	-1.251648
C57	C	1.302366	-0.656032	-1.310369
C58	C	1.198902	-0.669889	-1.275684
C59	C	1.166515	-0.626071	-1.182278
C60	C	1.237606	-0.568402	-1.123562
C61	C	1.341084	-0.554562	-1.158247
C62	C	1.605020	-0.270344	-0.820060
C63	C	1.676108	-0.212670	-0.761342
C64	C	1.779574	-0.198803	-0.796025
C65	C	1.811959	-0.242605	-0.889433
C66	C	1.740872	-0.300280	-0.948151
C67	C	1.637406	-0.314148	-0.913461
C68	C	1.489090	-0.434537	-0.262369
C69	C	1.489279	-0.434320	-0.145579
H70	H	0.897121	-0.329727	-0.406650
H71	H	1.520770	-0.281634	-0.791809
H72	H	1.010407	-0.201412	-0.405555
H73	H	1.837449	-0.151828	-0.748213
H74	H	1.224620	-0.416080	-0.356167
H75	H	1.767247	-0.335942	-1.024212
Br76	Br	1.683967	-0.893648	-0.340809
H77	H	1.344004	-0.777952	-0.680173
H78	H	1.082259	-0.637350	-1.154051
H79	H	1.360200	-0.539046	-0.943337
Br80	Br	1.100841	-0.048813	-0.264930
Br81	Br	1.669199	-1.115723	-0.355790
H82	H	1.618276	-0.329663	-1.128388
H83	H	1.587959	-0.777922	-0.436593
Br84	Br	1.379147	-0.327713	-0.200757
Br85	Br	1.193663	-0.508935	-0.996806
Br86	Br	1.294422	-0.974474	-0.729858
H87	H	1.390448	-1.090211	-0.634081
Br88	Br	1.102415	-0.748143	-1.355381
Br89	Br	1.346320	-0.715500	-1.437128
Br90	Br	1.952382	-0.223789	-0.936509
Br91	Br	1.513891	-0.579583	-1.298717
H92	H	1.277343	-0.151540	-0.187738
H93	H	0.701918	-0.717531	-0.882915
Br94	Br	1.632155	-0.153218	-0.634574
H95	H	0.968850	-0.667640	-0.665104
Br96	Br	1.109814	-0.570688	-0.702563
H97	H	0.648107	-0.557783	-0.843272
Br98	Br	0.878392	-0.820263	-0.805689
H99	H	0.754662	-0.452970	-0.714562
