data_functionalizedCrystal
_audit_creation_method	'MofGen! by Chris Wilmer'
_symmetry_space_group_name_H-M	'P1'
_symmetry_Int_Tables_number	1
_symmetry_cell_setting	triclinic
loop_
_symmetry_equiv_pos_as_xyz
  x,y,z
_cell_length_a	13.635800
_cell_length_b	9.170285
_cell_length_c	9.582880
_cell_angle_alpha	97.329273
_cell_angle_beta	68.792966
_cell_angle_gamma	112.460155
loop_
_atom_site_label
_atom_site_type_symbol
_atom_site_fract_x
_atom_site_fract_y
_atom_site_fract_z
V1	V	-2.073838	-0.215213	0.438183
O2	O	-2.050398	0.011019	0.459174
O3	O	-2.064615	-0.427382	0.406975
O4	O	-2.068965	-0.211605	0.642160
O5	O	-2.046019	-0.206252	0.222361
V6	V	-2.311207	-0.188188	0.415796
O7	O	-2.214103	-0.274494	0.487291
O8	O	-2.396041	-0.128907	0.366688
O9	O	-2.208827	0.023982	0.447004
O10	O	-2.393346	-0.414420	0.394805
O11	O	-2.397725	-0.197149	0.631618
O12	O	-2.204477	-0.191796	0.211819
V13	V	-1.573838	-0.215213	0.438183
O14	O	-1.550398	0.011019	0.459174
O15	O	-1.564615	-0.427382	0.406975
O16	O	-1.568965	-0.211605	0.642160
O17	O	-1.546019	-0.206252	0.222361
V18	V	-1.811207	-0.188188	0.415796
O19	O	-1.714103	-0.274494	0.487291
O20	O	-1.896041	-0.128907	0.366688
O21	O	-1.708827	0.023982	0.447004
O22	O	-1.893346	-0.414420	0.394805
O23	O	-1.897725	-0.197149	0.631618
O24	O	-1.704477	-0.191796	0.211819
C25	C	-1.990134	-0.479114	0.392784
C26	C	-2.023365	-0.652564	0.368627
C27	C	-1.995681	-0.203867	0.692784
C28	C	-2.032438	-0.202321	0.859351
C29	C	-2.114980	0.075705	0.461190
C30	C	-2.071368	0.249153	0.485356
C31	C	-2.109431	-0.199539	0.161187
C32	C	-2.062294	-0.201077	-0.005381
C33	C	-1.490134	-0.479114	0.392784
C34	C	-1.523365	-0.652564	0.368627
C35	C	-1.495681	-0.203867	0.692784
C36	C	-1.532438	-0.202321	0.859351
C37	C	-1.614980	0.075705	0.461190
C38	C	-1.571368	0.249153	0.485356
C39	C	-1.609431	-0.199539	0.161187
C40	C	-1.562294	-0.201077	-0.005381
C41	C	-1.631331	-0.741962	0.363711
C42	C	-1.662576	-0.904941	0.341036
C43	C	-1.585850	-0.978517	0.323267
C44	C	-1.477876	-0.889107	0.328189
C45	C	-1.446636	-0.726132	0.350874
C46	C	-1.635897	0.338551	0.490276
C47	C	-1.594925	0.501528	0.512958
C48	C	-1.489428	0.575104	0.530731
C49	C	-1.424894	0.485695	0.525805
C50	C	-1.465863	0.322722	0.503113
H51	H	-2.087006	-0.702290	0.603738
O52	O	-1.330178	-0.629710	0.356157
H53	H	-1.282081	-0.708262	0.339973
H54	H	-1.611302	-1.111222	0.304796
O55	O	-2.002632	-0.716867	0.211798
H56	H	-2.032897	-0.847587	0.216828
H57	H	-1.721801	0.278668	0.475809
O58	O	-1.395126	-0.968470	0.309025
H59	H	-1.434997	-1.096811	0.292413
H60	H	-1.750496	-0.977716	0.337029
O61	O	-1.664553	0.597938	0.518321
H62	H	-1.744806	0.519379	0.502192
O63	O	-1.714103	-0.662628	0.382906
H64	H	-1.794429	-0.752198	0.375701
O65	O	-1.311119	0.565053	0.545006
H66	H	-1.293493	0.693391	0.561636
H67	H	-1.456082	0.707808	0.549207
O68	O	-1.396269	0.226298	0.497839
H69	H	-1.316038	0.304849	0.514031
