data_functionalizedCrystal
_audit_creation_method	'MofGen! by Chris Wilmer'
_symmetry_space_group_name_H-M	'P1'
_symmetry_Int_Tables_number	1
_symmetry_cell_setting	triclinic
loop_
_symmetry_equiv_pos_as_xyz
  x,y,z
_cell_length_a	25.639239
_cell_length_b	25.639242
_cell_length_c	13.897441
_cell_angle_alpha	90.029951
_cell_angle_beta	89.966666
_cell_angle_gamma	89.966288
loop_
_atom_site_label
_atom_site_type_symbol
_atom_site_fract_x
_atom_site_fract_y
_atom_site_fract_z
Zn1	Zn	-0.208208	-0.799258	-0.545648
Zn2	Zn	-0.295649	-0.799172	-0.384339
Zn3	Zn	-0.208222	-0.711824	-0.384335
Zn4	Zn	-0.295607	-0.711779	-0.545560
O5	O	-0.251922	-0.755508	-0.464971
O6	O	-0.219820	-0.872412	-0.524289
O7	O	-0.284076	-0.787568	-0.249357
O8	O	-0.135055	-0.723478	-0.405769
O9	O	-0.284062	-0.872348	-0.405776
O10	O	-0.135045	-0.787715	-0.524285
O11	O	-0.219843	-0.723394	-0.249354
O12	O	-0.219802	-0.638653	-0.405683
O13	O	-0.283990	-0.723401	-0.680553
O14	O	-0.284003	-0.638620	-0.524134
O15	O	-0.219779	-0.787671	-0.680618
O16	O	-0.368809	-0.787524	-0.405690
O17	O	-0.368778	-0.723317	-0.524139
C18	C	-0.251900	-0.619666	-0.464899
C19	C	-0.251903	-0.561552	-0.464891
C20	C	-0.285402	-0.201180	-0.526564
C21	C	-0.285405	-0.146576	-0.526577
O22	O	-0.313864	-0.118332	-0.578971
N23	N	-0.251931	-0.119269	-0.465004
C24	C	-0.218448	-0.146570	-0.403422
O25	O	-0.189975	-0.118329	-0.351051
C26	C	-0.218443	-0.201173	-0.403415
C27	C	-0.251923	-0.228477	-0.464984
C28	C	-0.318880	-0.228484	-0.588130
C29	C	-0.318878	-0.283085	-0.588116
C30	C	-0.285398	-0.310381	-0.526536
C31	C	-0.251921	-0.283077	-0.464970
C32	C	-0.184957	-0.228472	-0.341838
C33	C	-0.184955	-0.283080	-0.341836
C34	C	-0.218435	-0.310383	-0.403406
C35	C	-0.218439	-0.364975	-0.403376
N36	N	-0.251914	-0.392281	-0.464949
C37	C	-0.285393	-0.364985	-0.526529
C38	C	-0.218460	-0.031899	-0.403443
C39	C	-0.218467	0.022703	-0.403444
C40	C	-0.285424	0.022693	-0.526601
C41	C	-0.285419	-0.031910	-0.526594
C42	C	-0.251934	-0.059206	-0.465015
C43	C	-0.285386	-0.479650	-0.526494
C44	C	-0.285383	-0.534255	-0.526471
C45	C	-0.218424	-0.534240	-0.403318
C46	C	-0.218429	-0.479640	-0.403337
C47	C	-0.251912	-0.452346	-0.464932
O48	O	-0.189993	-0.393253	-0.351012
O49	O	-0.313856	-0.393232	-0.578899
C50	C	-0.387764	-0.755420	-0.464926
C51	C	-0.445878	-0.755431	-0.464940
C52	C	-0.806245	-0.789028	-0.403400
C53	C	-0.860849	-0.789048	-0.403413
O54	O	-0.889089	-0.817523	-0.351041
N55	N	-0.888161	-0.755600	-0.465035
C56	C	-0.860865	-0.722133	-0.526654
O57	O	-0.889110	-0.693685	-0.579070
C58	C	-0.806262	-0.722116	-0.526646
C59	C	-0.778953	-0.755563	-0.465013
C60	C	-0.778936	-0.822472	-0.341773
C61	C	-0.724336	-0.822451	-0.341759
C62	C	-0.697044	-0.788986	-0.403372
C63	C	-0.724353	-0.755542	-0.464999
C64	C	-0.778967	-0.688652	-0.588270
C65	C	-0.724360	-0.688638	-0.588256
C66	C	-0.697052	-0.722085	-0.526623
C67	C	-0.642460	-0.722055	-0.526598
N68	N	-0.615149	-0.755503	-0.464976
C69	C	-0.642441	-0.788969	-0.403363
C70	C	-0.975536	-0.722173	-0.526669
C71	C	-1.030138	-0.722187	-0.526674
C72	C	-1.030119	-0.789103	-0.403433
C73	C	-0.975515	-0.789086	-0.403424
C74	C	-0.948224	-0.755621	-0.465048
C75	C	-0.527776	-0.788922	-0.403338
C76	C	-0.473170	-0.788896	-0.403327
C77	C	-0.473195	-0.721982	-0.526571
C78	C	-0.527795	-0.722006	-0.526579
C79	C	-0.555084	-0.755480	-0.464959
O80	O	-0.614186	-0.693597	-0.578946
O81	O	-0.614190	-0.817417	-0.350965
C82	C	-0.115549	-0.755611	-0.465036
C83	C	-0.057435	-0.755655	-0.465064
C84	C	-0.251878	-0.755540	-0.716564
C85	C	-0.251859	-0.755554	-0.823778
C86	C	-0.251942	0.108119	-0.465032
C87	C	-0.251945	0.050005	-0.465028
C88	C	-0.251844	-0.755565	-0.910848
C89	C	-0.251821	-0.755580	-1.020080
C90	C	-0.251928	-0.755507	-0.214356
C91	C	-0.251799	-0.755594	-0.107143
H92	H	-0.346143	-0.206265	-0.638281
O93	O	-0.446703	-0.689404	-0.586325
C94	C	-0.460107	-0.637302	-0.565180
H95	H	-0.475147	-0.634680	-0.488119
H96	H	-0.491794	-0.623633	-0.616878
C97	C	-0.393153	-0.605615	-0.670988
C98	C	-0.411622	-0.602394	-0.576338
H99	H	-0.363246	-0.584081	-0.677875
H100	H	-0.384124	-0.640717	-0.685238
H101	H	-0.419563	-0.594225	-0.714060
H102	H	-0.385214	-0.613789	-0.533270
H103	H	-0.420645	-0.567292	-0.562082
H104	H	-0.953318	-0.694918	-0.576847
H105	H	-0.312683	0.044928	-0.576746
O106	O	-0.317960	-0.453222	-0.586358
C107	C	-0.347493	-0.489039	-0.640706
H108	H	-0.349272	-0.527945	-0.601171
H109	H	-0.328394	-0.494886	-0.714025
C110	C	-0.400968	-0.419926	-0.702992
C111	C	-0.403156	-0.467709	-0.654431
H112	H	-0.435302	-0.406769	-0.711462
H113	H	-0.381070	-0.395795	-0.666380
H114	H	-0.385050	-0.424805	-0.764086
H115	H	-0.419068	-0.462829	-0.593334
H116	H	-0.423058	-0.491839	-0.691033
H117	H	-0.312681	-0.054137	-0.576731
H118	H	-0.702104	-0.849688	-0.291575
O119	O	-0.805405	-0.656147	-0.648235
C120	C	-0.769597	-0.626604	-0.702593
H121	H	-0.730655	-0.648010	-0.705951
H122	H	-0.763839	-0.586903	-0.667195
C123	C	-0.838695	-0.592757	-0.801128
C124	C	-0.790866	-0.619050	-0.805259
H125	H	-0.851815	-0.588095	-0.864456
H126	H	-0.862820	-0.612659	-0.764504
H127	H	-0.833890	-0.559675	-0.771626
H128	H	-0.795673	-0.652134	-0.834749
H129	H	-0.766742	-0.599154	-0.841890
H130	H	-0.191167	-0.556475	-0.353178
O131	O	-0.554385	-0.689586	-0.586487
C132	C	-0.585903	-0.719349	-0.648875
H133	H	-0.594056	-0.758986	-0.614939
H134	H	-0.564823	-0.725062	-0.720362
C135	C	-0.627779	-0.641917	-0.707982
C136	C	-0.637797	-0.690598	-0.666296
H137	H	-0.659789	-0.624181	-0.718732
H138	H	-0.606544	-0.621865	-0.665952
H139	H	-0.610211	-0.646684	-0.767549
H140	H	-0.655358	-0.685830	-0.606725
H141	H	-0.659036	-0.710649	-0.708316
O142	O	-0.351414	-0.309523	-0.648023
C143	C	-0.380968	-0.273712	-0.702355
H144	H	-0.359554	-0.234803	-0.705759
H145	H	-0.420655	-0.267871	-0.666904
C146	C	-0.414871	-0.342833	-0.800812
C147	C	-0.388567	-0.295045	-0.805000
H148	H	-0.419560	-0.355992	-0.864127
H149	H	-0.394961	-0.366960	-0.764205
H150	H	-0.447940	-0.337959	-0.771265
H151	H	-0.355496	-0.299921	-0.834535
H152	H	-0.408471	-0.270919	-0.841614
O153	O	-0.805362	-0.854999	-0.281823
C154	C	-0.769539	-0.884519	-0.227455
H155	H	-0.730639	-0.863087	-0.224084
H156	H	-0.763682	-0.924216	-0.262853
C157	C	-0.838646	-0.918413	-0.128945
C158	C	-0.790869	-0.892088	-0.124797
H159	H	-0.851803	-0.923085	-0.065622
H160	H	-0.862781	-0.898527	-0.165576
H161	H	-0.833758	-0.951491	-0.158448
H162	H	-0.795758	-0.859009	-0.095306
H163	H	-0.766735	-0.911970	-0.088159
H164	H	-0.702142	-0.661388	-0.638440
O165	O	-0.554199	-0.821452	-0.343387
C166	C	-0.518377	-0.850971	-0.289014
H167	H	-0.479478	-0.829538	-0.285635
H168	H	-0.512517	-0.890668	-0.324413
C169	C	-0.587488	-0.884870	-0.190517
C170	C	-0.539712	-0.858543	-0.186360
H171	H	-0.600649	-0.889543	-0.127197
H172	H	-0.611622	-0.864984	-0.227152
H173	H	-0.582598	-0.917947	-0.220020
H174	H	-0.544604	-0.825464	-0.156869
H175	H	-0.515580	-0.878423	-0.149718
O176	O	-0.185899	0.049142	-0.343597
C177	C	-0.156362	0.013334	-0.289228
H178	H	-0.154579	-0.025603	-0.328740
H179	H	-0.175460	0.007561	-0.215905
C180	C	-0.102895	0.082435	-0.226983
C181	C	-0.100702	0.034614	-0.275516
H182	H	-0.068562	0.095562	-0.218520
H183	H	-0.122796	0.106561	-0.263609
H184	H	-0.118812	0.077618	-0.165886
H185	H	-0.084790	0.039433	-0.336616
H186	H	-0.080797	0.010490	-0.238899
O187	O	-0.185876	-0.453061	-0.343667
C188	C	-0.152134	-0.421536	-0.398724
H189	H	-0.170631	-0.413366	-0.471755
H190	H	-0.113402	-0.442617	-0.409464
C191	C	-0.119891	-0.379691	-0.256005
C192	C	-0.142611	-0.369653	-0.345700
H193	H	-0.114015	-0.347688	-0.223297
H194	H	-0.142622	-0.400931	-0.218911
H195	H	-0.087617	-0.397260	-0.264968
H196	H	-0.174887	-0.352091	-0.336735
H197	H	-0.119885	-0.348409	-0.382791
H198	H	-0.191193	-0.054120	-0.353291
H199	H	-0.450937	-0.816132	-0.353135
H200	H	-0.157695	-0.206251	-0.291698
O201	O	-0.949071	-0.821626	-0.343528
C202	C	-0.984875	-0.851153	-0.289132
H203	H	-1.023781	-0.852960	-0.328656
H204	H	-0.990727	-0.832029	-0.215837
C205	C	-0.915740	-0.904579	-0.226789
C206	C	-0.963524	-0.906802	-0.275336
H207	H	-0.902570	-0.938905	-0.218274
H208	H	-0.891618	-0.884685	-0.263433
H209	H	-0.920623	-0.888640	-0.165715
H210	H	-0.958639	-0.922735	-0.336413
H211	H	-0.987645	-0.926700	-0.238702
O212	O	-1.056639	-0.689749	-0.586675
C213	C	-1.043233	-0.701133	-0.682829
H214	H	-1.028184	-0.742896	-0.687777
H215	H	-1.011552	-0.673084	-0.707971
C216	C	-1.110199	-0.643748	-0.741136
C217	C	-1.091720	-0.695044	-0.747215
H218	H	-1.140107	-0.639990	-0.780854
H219	H	-1.119229	-0.636076	-0.676356
H220	H	-1.083793	-0.620380	-0.762086
H221	H	-1.118123	-0.718410	-0.726253
H222	H	-1.082695	-0.702719	-0.811993
H223	H	-0.312649	-0.556483	-0.576609
H224	H	-0.157684	-0.305301	-0.291696
H225	H	-1.052350	-0.816354	-0.353268
