data_functionalizedCrystal
_audit_creation_method	'MofGen! by Chris Wilmer'
_symmetry_space_group_name_H-M	'P1'
_symmetry_Int_Tables_number	1
_symmetry_cell_setting	triclinic
loop_
_symmetry_equiv_pos_as_xyz
  x,y,z
_cell_length_a	23.204015
_cell_length_b	23.204065
_cell_length_c	23.204063
_cell_angle_alpha	59.996978
_cell_angle_beta	90.002791
_cell_angle_gamma	119.999888
loop_
_atom_site_label
_atom_site_type_symbol
_atom_site_fract_x
_atom_site_fract_y
_atom_site_fract_z
O1	O	0.491189	-0.412503	0.017166
O2	O	0.407386	-0.294487	-0.017046
O3	O	0.407381	-0.412500	0.100968
O4	O	0.491193	-0.294491	-0.100847
O5	O	0.311531	-0.508349	0.100965
O6	O	0.311536	-0.390336	-0.017048
O7	O	0.395339	-0.508352	0.017164
Zn8	Zn	0.338219	-0.464562	0.000057
Zn9	Zn	0.464506	-0.338277	0.000061
O10	O	0.395343	-0.390340	-0.100850
C11	C	0.248541	-0.108436	-0.035743
C12	C	0.284103	-0.037314	-0.030847
C13	C	0.179183	-0.142951	-0.036231
C14	C	0.248543	-0.212792	-0.035749
C15	C	0.284106	-0.253247	-0.030858
C16	C	0.179185	-0.247148	-0.036236
C17	C	0.144182	-0.212794	-0.035745
C18	C	0.068163	-0.253251	-0.030851
C19	C	0.283385	-0.142949	-0.036234
C20	C	0.006747	-0.285937	-0.026895
C21	C	0.312832	0.020145	-0.026889
C22	C	0.312838	-0.285931	-0.026904
C23	C	-0.070302	-0.326943	-0.021934
C24	C	0.348876	0.092231	-0.021925
C25	C	0.348883	-0.326935	-0.021946
O26	O	-0.096356	-0.390345	-0.017034
O27	O	-0.298172	-0.508366	0.017186
O28	O	-0.180180	-0.390354	-0.100831
O29	O	-0.214349	-0.508357	0.100983
O30	O	-0.180181	-0.294505	-0.100829
O31	O	-0.298173	-0.412516	0.017188
O32	O	-0.096357	-0.294496	-0.017032
Zn33	Zn	-0.197265	-0.338288	0.000078
Zn34	Zn	-0.197264	-0.464574	0.000076
O35	O	-0.214350	-0.412507	0.100985
C36	C	0.144182	-0.694408	0.445864
C37	C	0.068163	-0.765532	0.481425
C38	C	0.179183	-0.659894	0.480708
C39	C	0.248541	-0.590049	0.341506
C40	C	0.284104	-0.549593	0.265487
C41	C	0.283384	-0.555694	0.376508
C42	C	0.248541	-0.590050	0.445865
C43	C	0.284103	-0.549594	0.481428
C44	C	0.179184	-0.659894	0.376507
C45	C	0.312833	-0.516908	0.510158
C46	C	0.006747	-0.822992	0.510155
C47	C	0.312834	-0.516907	0.204070
C48	C	0.348877	-0.475903	0.546202
C49	C	-0.070302	-0.895079	0.546197
C50	C	0.348879	-0.475902	0.127021
C51	C	0.596427	-0.517030	0.024965
C52	C	0.672445	-0.476576	0.020075
C53	C	0.561426	-0.586875	0.025453
C54	C	0.492071	-0.517024	0.024956
C55	C	0.456510	-0.476564	0.020056
C56	C	0.457227	-0.586870	0.025444
C57	C	0.492069	-0.621387	0.024962
C58	C	0.456507	-0.692513	0.020069
C59	C	0.561427	-0.482671	0.025447
O60	O	0.395334	0.280993	0.017182
O61	O	0.311527	0.113384	-0.017023
O62	O	0.311530	0.113374	0.100988
O63	O	0.395331	0.281003	-0.100829
O64	O	0.407382	0.113375	0.100985
O65	O	0.407379	0.113385	-0.017026
O66	O	0.491186	0.280994	0.017179
Zn67	Zn	0.464501	0.197190	0.000076
Zn68	Zn	0.338212	0.197188	0.000080
O69	O	0.491183	0.281005	-0.100831
C70	C	-0.172429	-0.181487	-0.310587
C71	C	-0.177328	-0.110364	-0.346149
C72	C	-0.171946	-0.216002	-0.345430
C73	C	-0.172413	-0.285841	-0.206230
C74	C	-0.177296	-0.326295	-0.130212
C75	C	-0.171930	-0.320198	-0.241231
C76	C	-0.172428	-0.285846	-0.310587
C77	C	-0.177327	-0.326304	-0.346148
C78	C	-0.171931	-0.215998	-0.241231
C79	C	0.492076	-0.285824	-0.310609
C80	C	0.456514	-0.326281	-0.346171
C81	C	0.561434	-0.215980	-0.345452
C82	C	0.492077	-0.285823	-0.206250
C83	C	0.456515	-0.326280	-0.130231
C84	C	0.561435	-0.215979	-0.241252
C85	C	0.596436	-0.181465	-0.310609
C86	C	0.672455	-0.110341	-0.346171
C87	C	0.457233	-0.320179	-0.241252
O88	O	0.491192	-0.294492	0.592657
O89	O	0.407380	-0.412501	0.508854
O90	O	0.407384	-0.294489	0.508844
O91	O	0.491187	-0.412505	0.592667
O92	O	0.311534	-0.390338	0.604695
O93	O	0.311529	-0.508350	0.604705
O94	O	0.395341	-0.390341	0.688508
Zn95	Zn	0.338217	-0.464564	0.661825
Zn96	Zn	0.464504	-0.338279	0.535537
O97	O	0.395337	-0.508354	0.688518
O98	O	-0.298170	-1.083847	0.688500
O99	O	-0.096358	-0.916234	0.604700
O100	O	-0.214360	-0.916228	0.604689
O101	O	-0.180168	-1.083853	0.688511
O102	O	-0.214357	-0.916225	0.508837
O103	O	-0.096355	-0.916232	0.508848
O104	O	-0.298167	-1.083844	0.592648
Zn105	Zn	-0.197261	-1.000037	0.535529
Zn106	Zn	-0.197265	-1.000041	0.661819
O107	O	-0.180165	-1.083851	0.592659
C108	C	0.596426	0.483012	-0.310587
C109	C	0.672446	0.523474	-0.346150
C110	C	0.561424	0.517372	-0.345428
C111	C	0.492067	0.378638	-0.206230
C112	C	0.456504	0.307502	-0.130212
C113	C	0.457223	0.413156	-0.241229
C114	C	0.492067	0.483011	-0.310584
C115	C	0.456504	0.523471	-0.346143
C116	C	0.561425	0.413157	-0.241232
C117	C	-0.233010	-0.590046	0.445878
C118	C	-0.228111	-0.549589	0.481439
C119	C	-0.233492	-0.659890	0.480720
C120	C	-0.233025	-0.590050	0.341520
C121	C	-0.228142	-0.549596	0.265502
C122	C	-0.233507	-0.659893	0.376521
C123	C	-0.233009	-0.694405	0.445877
C124	C	-0.228109	-0.765528	0.481438
C125	C	-0.233508	-0.555693	0.376522
C126	C	-0.224149	-0.822987	0.510167
C127	C	-0.224151	-0.516902	0.510169
C128	C	-0.224195	-0.516912	0.204087
C129	C	-0.219182	-0.895072	0.546210
C130	C	-0.219185	-0.475895	0.546212
C131	C	-0.219246	-0.475909	0.127039
O132	O	-0.214420	-0.508372	-0.395275
O133	O	-0.180210	-0.390365	-0.311470
O134	O	-0.298220	-0.508378	-0.311457
O135	O	-0.096411	-0.390359	-0.395288
O136	O	-0.298234	-0.412530	-0.407305
O137	O	-0.180225	-0.294516	-0.407318
O138	O	-0.214435	-0.412524	-0.491123
Zn139	Zn	-0.197332	-0.338302	-0.464439
Zn140	Zn	-0.197313	-0.464586	-0.338154
O141	O	-0.096425	-0.294511	-0.491136
C142	C	0.248541	-0.212862	0.445876
C143	C	0.284105	-0.253322	0.481435
C144	C	0.179183	-0.247224	0.480719
C145	C	0.248541	-0.108489	0.341521
C146	C	0.284104	-0.037353	0.265503
C147	C	0.179183	-0.143009	0.376523
C148	C	0.144181	-0.212864	0.445879
C149	C	0.068162	-0.253326	0.481441
C150	C	0.283385	-0.143007	0.376520
C151	C	0.006745	-0.286016	0.510171
C152	C	0.312836	-0.286010	0.510162
C153	C	0.312834	0.020116	0.204088
C154	C	-0.070304	-0.327027	0.546215
C155	C	0.348880	-0.327019	0.546203
C156	C	0.348879	0.092216	0.127041
H157	H	0.340368	-0.499485	0.348401
H158	H	-0.234295	-0.499491	0.348423
O159	O	0.598644	-0.625145	0.026501
H160	H	0.601419	-0.625463	-0.021084
H161	H	0.151082	-0.114122	0.348419
H162	H	-0.234306	-0.688784	0.348421
H163	H	-0.171141	-0.376399	-0.213127
O164	O	0.598722	-0.177845	-0.420875
H165	H	0.652952	-0.123421	-0.439304
O166	O	0.598662	-0.177672	-0.204061
H167	H	0.646571	-0.177338	-0.201275
H168	H	0.400246	-0.376380	-0.213154
H169	H	0.151087	-0.303429	0.537707
O170	O	-0.170920	-0.177749	-0.420913
H171	H	-0.122831	-0.114232	-0.454731
H172	H	0.340371	-0.114122	0.348420
O173	O	0.358865	-0.104709	-0.037256
H174	H	0.392680	-0.086308	-0.085352
H175	H	0.151086	-0.114060	-0.037019
H176	H	0.400236	0.384265	-0.213123
H177	H	0.151080	-0.688784	0.537695
O178	O	0.141958	-0.321589	-0.037282
H179	H	0.177967	-0.339791	-0.037537
O180	O	0.141968	-0.698151	0.339278
H181	H	0.087756	-0.752616	0.375285
O182	O	0.381760	-0.625125	0.026430
H183	H	0.378702	-0.580303	-0.021183
H184	H	-0.171198	-0.187145	-0.213115
H185	H	0.589527	0.573579	-0.402416
O186	O	0.598644	-0.408223	0.026484
H187	H	0.652855	-0.390021	0.026739
O188	O	0.598641	0.374883	-0.204007
H189	H	0.652853	0.410643	-0.240014
O190	O	-0.234515	-0.698152	0.556202
H191	H	-0.234753	-0.662389	0.574655
