data_functionalizedCrystal
_audit_creation_method	'MofGen! by Chris Wilmer'
_symmetry_space_group_name_H-M	'P1'
_symmetry_Int_Tables_number	1
_symmetry_cell_setting	triclinic
loop_
_symmetry_equiv_pos_as_xyz
  x,y,z
_cell_length_a	19.805407
_cell_length_b	29.839131
_cell_length_c	19.805399
_cell_angle_alpha	89.970435
_cell_angle_beta	89.980427
_cell_angle_gamma	90.041420
loop_
_atom_site_label
_atom_site_type_symbol
_atom_site_fract_x
_atom_site_fract_y
_atom_site_fract_z
Zn1	Zn	1.034665	-0.178864	-0.382710
Zn2	Zn	1.034550	-0.253991	-0.269518
Zn3	Zn	0.921480	-0.178876	-0.269535
Zn4	Zn	0.921414	-0.253967	-0.382665
O5	O	0.978027	-0.216425	-0.326107
O6	O	1.129366	-0.188834	-0.367707
O7	O	1.019531	-0.244042	-0.174804
O8	O	0.936570	-0.116007	-0.284574
O9	O	1.129282	-0.244030	-0.284545
O10	O	1.019727	-0.115998	-0.367723
O11	O	0.936458	-0.188856	-0.174816
O12	O	0.826754	-0.188832	-0.284530
O13	O	0.936457	-0.243990	-0.477388
O14	O	0.826706	-0.244002	-0.367646
O15	O	1.019662	-0.188811	-0.477421
O16	O	1.019467	-0.316855	-0.284501
O17	O	0.936346	-0.316838	-0.367630
C18	C	0.802171	-0.216416	-0.326085
C19	C	0.726939	-0.216423	-0.326092
C20	C	0.691587	-0.245193	-0.369300
C21	C	0.620899	-0.245194	-0.369310
C22	C	0.585564	-0.216427	-0.326107
C23	C	0.620920	-0.187654	-0.282897
C24	C	0.691607	-0.187651	-0.282891
C25	C	0.335847	-0.187664	-0.282919
C26	C	0.265155	-0.187669	-0.282927
C27	C	0.265139	-0.245207	-0.369338
C28	C	0.335826	-0.245204	-0.369332
C29	C	0.371176	-0.216429	-0.326125
C30	C	0.447825	-0.216428	-0.326116
C31	C	0.508916	-0.216430	-0.326112
C32	C	0.977905	-0.333147	-0.326073
C33	C	0.977915	-0.383082	-0.326082
C34	C	1.021387	-0.692722	-0.282885
C35	C	1.021471	-0.880395	-0.282912
O36	O	1.058335	-0.904656	-0.246159
N37	N	0.978168	-0.903867	-0.326158
C38	C	0.934844	-0.880418	-0.369404
O39	O	0.898019	-0.904688	-0.406194
C40	C	0.934764	-0.692746	-0.369381
C41	C	0.978065	-0.669276	-0.326127
C42	C	1.064685	-0.669252	-0.239635
C43	C	1.064661	-0.622336	-0.239626
C44	C	1.021339	-0.598891	-0.282868
C45	C	0.978041	-0.622360	-0.326118
C46	C	0.891444	-0.669297	-0.412630
C47	C	0.891429	-0.622376	-0.412621
C48	C	0.934730	-0.598907	-0.369367
C49	C	0.934695	-0.551999	-0.369351
N50	N	0.977998	-0.528527	-0.326104
C51	C	1.021320	-0.551973	-0.282863
C52	C	0.934888	-0.978948	-0.369412
C53	C	0.934907	-1.025866	-0.369418
C54	C	1.021534	-1.025840	-0.282926
C55	C	1.021512	-0.978921	-0.282918
C56	C	0.978191	-0.955476	-0.326166
C57	C	1.021266	-0.453447	-0.282847
C58	C	1.021237	-0.406527	-0.282840
C59	C	0.934611	-0.406558	-0.369334
C60	C	0.934638	-0.453473	-0.369339
C61	C	0.977971	-0.476917	-0.326093
O62	O	0.897855	-0.527708	-0.406090
O63	O	1.058150	-0.527694	-0.246090
C64	C	1.021411	-0.739637	-0.282894
C65	C	0.978113	-0.763107	-0.326144
C66	C	0.934791	-0.739661	-0.369386
C67	C	0.978132	-0.810025	-0.326149
C68	C	1.021454	-0.833470	-0.282908
C69	C	1.064757	-0.809998	-0.239661
C70	C	1.064733	-0.763083	-0.239653
C71	C	0.891488	-0.763133	-0.412632
C72	C	0.891515	-0.810049	-0.412637
C73	C	0.934837	-0.833494	-0.369395
C74	C	1.154570	-0.216434	-0.326129
C75	C	1.229802	-0.216437	-0.326139
C76	C	0.978065	-0.216396	-0.502650
C77	C	0.978081	-0.216384	-0.577882
C78	C	0.978168	-0.099246	-0.326156
C79	C	0.978228	-0.049312	-0.326176
C80	C	1.021407	-0.187652	-0.613244
C81	C	1.021414	-0.187638	-0.683933
C82	C	0.978098	-0.216361	-0.719258
C83	C	0.934767	-0.245095	-0.683890
C84	C	0.934757	-0.245105	-0.613203
C85	C	0.934806	-0.245053	-0.968963
C86	C	0.934820	-0.245041	-1.039656
C87	C	1.021462	-0.187586	-1.039694
C88	C	1.021453	-0.187597	-0.969006
C89	C	0.978120	-0.216329	-0.933645
C90	C	0.978112	-0.216342	-0.856997
C91	C	0.978109	-0.216350	-0.795905
C92	C	0.978028	-0.216420	-0.150251
C93	C	0.978143	-0.216306	-0.075019
H94	H	0.592119	-0.268622	-0.404494
C95	C	0.887164	-0.276634	-1.078514
C96	C	0.839496	-0.308237	-1.039620
C97	C	0.791842	-0.339828	-1.078480
C98	C	0.791858	-0.339816	-1.156233
C99	C	0.839528	-0.308213	-1.195131
C100	C	0.887181	-0.276622	-1.156272
H101	H	0.839483	-0.308247	-0.982059
H102	H	0.756554	-0.363223	-1.049684
H103	H	0.756582	-0.363202	-1.184999
H104	H	0.839541	-0.308203	-1.252693
H105	H	0.922470	-0.253226	-1.185067
H106	H	1.056696	-0.164242	-0.712722
C107	C	1.069147	-0.953106	-0.235342
C108	C	1.063673	-0.959594	-0.158393
C109	C	1.111313	-0.933782	-0.110817
C110	C	1.164426	-0.901483	-0.140190
C111	C	1.169902	-0.894994	-0.217144
C112	C	1.122263	-0.920806	-0.264720
H113	H	1.024354	-0.983505	-0.136646
H114	H	1.107258	-0.938585	-0.053851
H115	H	1.199691	-0.882375	-0.104972
H116	H	1.209222	-0.871083	-0.238891
H117	H	1.126317	-0.916002	-0.321686
C118	C	0.887134	-0.276661	-0.930086
C119	C	0.810198	-0.272983	-0.939819
C120	C	0.762519	-0.304593	-0.900946
C121	C	0.791774	-0.339881	-0.852340
C122	C	0.868714	-0.343560	-0.842605
C123	C	0.916393	-0.311950	-0.881478
H124	H	0.788538	-0.246860	-0.975802
H125	H	0.705563	-0.301869	-0.908153
H126	H	0.756479	-0.363281	-0.823563
H127	H	0.890374	-0.369684	-0.806622
H128	H	0.973349	-0.314674	-0.874271
H129	H	0.236348	-0.268634	-0.404522
H130	H	1.056727	-0.164209	-0.940249
H131	H	0.592145	-0.164229	-0.247723
H132	H	0.899470	-0.268498	-0.584411
C133	C	0.374735	-0.156020	-0.235387
C134	C	0.423290	-0.175445	-0.182196
C135	C	0.462185	-0.143803	-0.134660
C136	C	0.452524	-0.092736	-0.140315
C137	C	0.403967	-0.073308	-0.193507
C138	C	0.365072	-0.104950	-0.241043
H139	H	0.430443	-0.213251	-0.178009
H140	H	0.498130	-0.158185	-0.095284
H141	H	0.481316	-0.069312	-0.105126
H142	H	0.396813	-0.035503	-0.197695
H143	H	0.329126	-0.090568	-0.280420
H144	H	0.364592	-0.268631	-0.404510
H145	H	0.856153	-0.603290	-0.447842
H146	H	0.720390	-0.164221	-0.247710
C147	C	1.069193	-1.051635	-0.235362
C148	C	1.069212	-1.103243	-0.235377
C149	C	1.116872	-1.129041	-0.187821
C150	C	1.164513	-1.103232	-0.140250
C151	C	1.164496	-1.051621	-0.140233
C152	C	1.116836	-1.025823	-0.187790
H153	H	1.033943	-1.122352	-0.270594
H154	H	1.116884	-1.167247	-0.187834
H155	H	1.199794	-1.122329	-0.105046
H156	H	1.199765	-1.032512	-0.105017
H157	H	1.116824	-0.987617	-0.187777
C158	C	1.069057	-0.156056	-0.574391
C159	C	1.122169	-0.175531	-0.525800
C160	C	1.169819	-0.143934	-0.486949
C161	C	1.164357	-0.092860	-0.496689
C162	C	1.111242	-0.073382	-0.545283
C163	C	1.063592	-0.104980	-0.584134
H164	H	1.126215	-0.213341	-0.518587
H165	H	1.209138	-0.158353	-0.450976
H166	H	1.199630	-0.069470	-0.467930
H167	H	1.107197	-0.035572	-0.552496
H168	H	1.024274	-0.090561	-0.620106
C169	C	0.843879	-0.835863	-0.460219
C170	C	0.873195	-0.868072	-0.513394
C171	C	0.825565	-0.893885	-0.560979
C172	C	0.748620	-0.887488	-0.555389
C173	C	0.719300	-0.855277	-0.502212
C174	C	0.766930	-0.829465	-0.454627
H175	H	0.930158	-0.872809	-0.517534
H176	H	0.847270	-0.917730	-0.600344
H177	H	0.713362	-0.906596	-0.590614
H178	H	0.662337	-0.850541	-0.498072
H179	H	0.745225	-0.805620	-0.415261
H180	H	1.056497	-0.387420	-0.247615
C181	C	0.730453	-0.276838	-0.416825
C182	C	0.720679	-0.327905	-0.411165
C183	C	0.759543	-0.359550	-0.458692
C184	C	0.808181	-0.340127	-0.511881
C185	C	0.817958	-0.289057	-0.517543
C186	C	0.779094	-0.257413	-0.470015
H187	H	0.684671	-0.342285	-0.371790
H188	H	0.752305	-0.397355	-0.454500
H189	H	0.836951	-0.363552	-0.547063
H190	H	0.853966	-0.274677	-0.556918
H191	H	0.786332	-0.219608	-0.474207
C192	C	1.068927	-0.479230	-0.235273
C193	C	1.063438	-0.472809	-0.158323
C194	C	1.111094	-0.498593	-0.110746
C195	C	1.164240	-0.530797	-0.140118
C196	C	1.169732	-0.537220	-0.217071
C197	C	1.122076	-0.511436	-0.264649
H198	H	1.024094	-0.448968	-0.136577
H199	H	1.107028	-0.493838	-0.053779
H200	H	1.199518	-0.549884	-0.104898
H201	H	1.209076	-0.561061	-0.238818
H202	H	1.126142	-0.516191	-0.321615
C203	C	1.112343	-0.695036	-0.192063
C204	C	1.106855	-0.688610	-0.115114
C205	C	1.154513	-0.714390	-0.067533
C206	C	1.207659	-0.746596	-0.096902
C207	C	1.213149	-0.753024	-0.173854
C208	C	1.165491	-0.727244	-0.221435
H209	H	1.067512	-0.664767	-0.093370
H210	H	1.150449	-0.709631	-0.010567
H211	H	1.242938	-0.765680	-0.061680
H212	H	1.252493	-0.776866	-0.195598
H213	H	1.169556	-0.732002	-0.278401
C214	C	0.887269	-1.051680	-0.416993
C215	C	0.839622	-1.025884	-0.464558
C216	C	0.791986	-1.051695	-0.512138
C217	C	0.791998	-1.103303	-0.512153
C218	C	0.839648	-1.129102	-0.464586
C219	C	0.887283	-1.103290	-0.417006
H220	H	0.839611	-0.987678	-0.464548
H221	H	0.756713	-1.032597	-0.547350
H222	H	0.756736	-1.122410	-0.547375
H223	H	0.839659	-1.167308	-0.464596
H224	H	0.922557	-1.122389	-0.381794
H225	H	0.899496	-0.268480	-0.712657
H226	H	0.899337	-0.387461	-0.404539
H227	H	1.099922	-0.603230	-0.204407
C228	C	0.843828	-0.737349	-0.460201
C229	C	0.766891	-0.743862	-0.454601
C230	C	0.719225	-0.718081	-0.502171
C231	C	0.748496	-0.685785	-0.555341
C232	C	0.825437	-0.679270	-0.560943
C233	C	0.873103	-0.705052	-0.513373
H234	H	0.745219	-0.767771	-0.415239
H235	H	0.662268	-0.722904	-0.498023
H236	H	0.713211	-0.666700	-0.590555
H237	H	0.847109	-0.655362	-0.600305
H238	H	0.930060	-0.700228	-0.517520
C239	C	0.887006	-0.479295	-0.416913
C240	C	0.810060	-0.472905	-0.411320
C241	C	0.762433	-0.498724	-0.458899
C242	C	0.791752	-0.530933	-0.512073
C243	C	0.868702	-0.537324	-0.517669
C244	C	0.916329	-0.511506	-0.470089
H245	H	0.788352	-0.449060	-0.371955
H246	H	0.705469	-0.493992	-0.454756
H247	H	0.756496	-0.550045	-0.547294
H248	H	0.890410	-0.561169	-0.557033
H249	H	0.973293	-0.516237	-0.474232
H250	H	0.236387	-0.164241	-0.247745
H251	H	0.899609	-0.959863	-0.404631
H252	H	0.856180	-0.688398	-0.447849
H253	H	1.100029	-0.829096	-0.204451
H254	H	1.099993	-0.743977	-0.204431
H255	H	1.056744	-0.164189	-1.068493
