data_functionalizedCrystal
_audit_creation_method	'MofGen! by Chris Wilmer'
_symmetry_space_group_name_H-M	'P1'
_symmetry_Int_Tables_number	1
_symmetry_cell_setting	triclinic
loop_
_symmetry_equiv_pos_as_xyz
  x,y,z
_cell_length_a	17.019372
_cell_length_b	17.038272
_cell_length_c	9.130313
_cell_angle_alpha	89.998262
_cell_angle_beta	93.876188
_cell_angle_gamma	87.242864
loop_
_atom_site_label
_atom_site_type_symbol
_atom_site_fract_x
_atom_site_fract_y
_atom_site_fract_z
O1	O	1.053349	0.099574	0.010941
O2	O	0.824538	0.112280	-0.017897
O3	O	0.937584	-0.007888	-0.003638
O4	O	0.940303	0.219741	-0.003318
O5	O	0.937582	-0.007884	0.239961
O6	O	0.824537	0.112283	0.225702
O7	O	1.053348	0.099577	0.254540
Cu8	Cu	0.938942	0.105930	0.262363
Cu9	Cu	0.938944	0.105926	-0.025720
O10	O	0.940302	0.219744	0.240281
C11	C	0.795116	0.111800	0.100195
C12	C	0.707450	0.110358	0.089146
C13	C	0.211629	0.102174	0.019899
C14	C	0.294001	0.103529	0.030300
C15	C	0.335177	0.104215	0.168287
C16	C	0.293979	0.103536	0.295882
C17	C	0.211609	0.102176	0.285480
C18	C	0.583881	0.108319	0.206339
C19	C	0.666257	0.109682	0.216731
C20	C	0.666273	0.109674	-0.048852
C21	C	0.583901	0.108317	-0.059242
C22	C	0.542710	0.107635	0.068352
C23	C	0.419375	0.105602	0.178922
C24	C	0.458515	0.106242	0.057716
C25	C	0.935109	-0.037012	0.117850
C26	C	0.927729	-0.123798	0.116919
C27	C	0.995489	-0.173972	0.125461
C28	C	0.988549	-0.255517	0.124572
C29	C	0.913850	-0.286886	0.115153
C30	C	0.846085	-0.236705	0.106606
C31	C	0.853025	-0.155163	0.107484
C32	C	0.889332	-0.532622	0.112043
C33	C	0.882397	-0.614171	0.111169
C34	C	1.024862	-0.632977	0.129133
C35	C	1.031795	-0.551432	0.130019
C36	C	0.964031	-0.501259	0.121465
C37	C	0.906755	-0.370237	0.114249
C38	C	0.971126	-0.417909	0.122358
C39	C	1.082769	0.100056	0.136445
C40	C	1.170436	0.101498	0.147484
C41	C	0.942776	0.248868	0.118790
C42	C	0.950157	0.335655	0.119711
N43	N	0.938947	0.105932	0.464987
N44	N	0.938945	0.105918	-0.228343
C45	C	0.989018	0.052740	0.547954
C46	C	0.989015	0.052731	0.701291
C47	C	0.888868	0.159113	0.688678
C48	C	0.888867	0.159118	0.535344
C49	C	1.039098	-0.000445	0.477597
C50	C	1.089174	-0.053641	0.560565
C51	C	1.089171	-0.053650	0.713902
C52	C	1.039092	-0.000464	0.784270
H53	H	0.327537	0.104075	-0.073594
C54	C	1.188159	-0.158800	0.588434
C55	C	1.144214	-0.112106	0.483224
H56	H	1.222135	-0.194898	0.540686
H57	H	1.218711	-0.126275	0.652092
H58	H	1.153431	-0.186905	0.643861
H59	H	1.178942	-0.083996	0.427804
H60	H	1.113661	-0.144634	0.419541
C61	C	0.390970	0.037903	0.462210
C62	C	0.339241	0.104290	0.447559
H63	H	0.418915	0.038374	0.555848
H64	H	0.361798	-0.008189	0.453024
H65	H	0.427288	0.038509	0.387703
H66	H	0.302919	0.103681	0.522060
H67	H	0.368416	0.150394	0.456759
H68	H	1.129939	-0.096969	0.781453
C69	C	0.755398	0.205088	0.719093
C70	C	0.833828	0.217574	0.766029
H71	H	0.721420	0.241179	0.766855
H72	H	0.748234	0.212709	0.615913
H73	H	0.743346	0.152911	0.742706
H74	H	0.845881	0.269749	0.742406
H75	H	0.840995	0.209959	0.869232
H76	H	0.699781	0.110245	0.329103
H77	H	1.080032	-0.673836	0.136094
H78	H	1.039089	-0.000481	0.909127
H79	H	1.056317	-0.148439	0.133140
C80	C	0.851627	0.294489	0.483424
C81	C	0.833834	0.217589	0.444128
H82	H	0.817652	0.330584	0.427101
H83	H	0.844454	0.302097	0.584798
H84	H	0.904840	0.302940	0.464997
H85	H	0.780622	0.209135	0.462565
H86	H	0.841000	0.209977	0.342731
H87	H	0.178108	0.101622	-0.092466
H88	H	0.550381	0.107758	-0.171606
H89	H	0.699820	0.110228	-0.152732
C90	C	0.778185	-0.052550	-0.027179
C91	C	0.778542	-0.100008	0.098095
H92	H	0.732198	-0.018504	-0.032983
H93	H	0.823661	-0.022202	-0.021433
H94	H	0.778442	-0.084760	-0.112083
H95	H	0.778292	-0.067798	0.183000
H96	H	0.733054	-0.130358	0.092361
H97	H	0.424985	0.105681	-0.054632
H98	H	0.550354	0.107752	0.310236
C99	C	1.105689	-0.434784	0.139331
C100	C	1.113907	-0.516953	0.140361
H101	H	1.156382	-0.413500	0.145727
H102	H	1.077562	-0.417561	0.050845
H103	H	1.077558	-0.417567	0.220742
H104	H	1.142033	-0.534170	0.058944
H105	H	1.142045	-0.534183	0.228857
H106	H	1.031946	-0.392365	0.129995
H107	H	0.178070	0.101633	0.389373
H108	H	1.043727	-0.296366	0.131531
C109	C	0.516368	0.039975	0.345241
C110	C	0.464643	0.106364	0.330594
H111	H	0.544320	0.040449	0.438873
H112	H	0.487193	-0.006115	0.336071
H113	H	0.552681	0.040576	0.270724
H114	H	0.428326	0.105760	0.405105
H115	H	0.493820	0.152467	0.339779
C116	C	0.742267	-0.587396	0.093455
C117	C	0.800281	-0.648653	0.100791
H118	H	0.691576	-0.608686	0.087039
H119	H	0.747924	-0.555985	0.179114
H120	H	0.747949	-0.555979	0.009220
H121	H	0.794603	-0.680066	0.185033
H122	H	0.794621	-0.680077	0.015124
C123	C	0.814476	-0.430025	-0.022629
C124	C	0.814843	-0.477483	0.102647
H125	H	0.768483	-0.395987	-0.028432
H126	H	0.859946	-0.399670	-0.016887
H127	H	0.814736	-0.462236	-0.107532
H128	H	0.814588	-0.445272	0.187551
H129	H	0.769360	-0.507841	0.096917
H130	H	0.845934	-0.395787	0.106583
C131	C	0.705964	-0.209920	0.088919
C132	C	0.763973	-0.271183	0.096241
H133	H	0.655271	-0.231206	0.082512
H134	H	0.711629	-0.178511	0.174578
H135	H	0.711644	-0.178504	0.004683
H136	H	0.758296	-0.302596	0.180484
H137	H	0.758305	-0.302605	0.010573
C138	C	1.114477	0.015299	0.267457
C139	C	1.039104	-0.000440	0.309049
H140	H	1.114482	0.015298	0.163403
H141	H	1.128607	0.065258	0.303928
H142	H	1.151459	-0.023996	0.306815
H143	H	1.002123	0.038858	0.269700
H144	H	1.024965	-0.050405	0.272561
