data_functionalizedCrystal
_audit_creation_method	'MofGen! by Chris Wilmer'
_symmetry_space_group_name_H-M	'P1'
_symmetry_Int_Tables_number	1
_symmetry_cell_setting	triclinic
loop_
_symmetry_equiv_pos_as_xyz
  x,y,z
_cell_length_a	6.817900
_cell_length_b	17.110477
_cell_length_c	17.296770
_cell_angle_alpha	100.223588
_cell_angle_beta	102.619669
_cell_angle_gamma	99.060298
loop_
_atom_site_label
_atom_site_type_symbol
_atom_site_fract_x
_atom_site_fract_y
_atom_site_fract_z
V1	V	-4.003342	-0.127387	-0.250239
O2	O	-4.013980	-0.012310	-0.245582
O3	O	-3.933207	-0.234861	-0.248425
O4	O	-3.954678	-0.133515	-0.359424
O5	O	-3.992360	-0.114357	-0.133815
V6	V	-4.489820	-0.112667	-0.236326
O7	O	-4.258117	-0.159677	-0.280758
O8	O	-4.685242	-0.080377	-0.205807
O9	O	-4.336749	-0.005194	-0.238140
O10	O	-4.596579	-0.227744	-0.240983
O11	O	-4.618199	-0.125697	-0.352750
O12	O	-4.315277	-0.106539	-0.127142
C13	C	-3.772929	-0.260807	-0.244451
C14	C	-3.796870	-0.348720	-0.243696
C15	C	-3.800317	-0.131531	-0.386040
C16	C	-3.841669	-0.137252	-0.475298
C17	C	-4.076968	-0.173384	-0.980714
C18	C	-4.038079	-0.167990	-0.896843
C19	C	-3.993104	-0.092012	-0.843522
C20	C	-3.986999	-0.021423	-0.874075
C21	C	-4.025873	-0.026817	-0.957944
C22	C	-3.874438	-0.072058	-0.589721
C23	C	-3.835569	-0.066669	-0.505846
C24	C	-3.886648	-0.213236	-0.528620
C25	C	-3.925533	-0.218624	-0.612491
C26	C	-3.919413	-0.148035	-0.643036
C27	C	-3.953359	-0.086497	-0.757792
C28	C	-3.959144	-0.153551	-0.728764
C29	C	-3.989392	-0.394339	-0.247342
C30	C	-4.011878	-0.476943	-0.246637
C31	C	-3.841837	-0.513926	-0.242280
C32	C	-3.649301	-0.468302	-0.238636
C33	C	-3.626820	-0.385701	-0.239347
C34	C	-3.900648	-0.763114	-0.239939
C35	C	-3.923143	-0.845721	-0.239226
C36	C	-4.285720	-0.854356	-0.247229
C37	C	-4.263219	-0.771752	-0.247935
C38	C	-4.070689	-0.726136	-0.244295
C39	C	-3.864816	-0.598360	-0.241557
C40	C	-4.047716	-0.641705	-0.245024
C41	C	-4.160368	0.020749	-0.242112
C42	C	-4.115665	0.108661	-0.242873
C43	C	-4.132980	-0.108526	-0.100521
C44	C	-4.070868	-0.102800	-0.011262
H45	H	-4.043053	-0.225467	-0.871976
N46	N	-3.703967	-0.716541	-0.236212
N47	N	-3.556040	-0.710074	-0.176604
H48	H	-3.417121	-0.677182	-0.173972
H49	H	-4.113594	-0.235254	-1.024124
N50	N	-3.971486	-0.296241	-0.666943
N51	N	-3.976933	-0.359258	-0.639657
H52	H	-4.009398	-0.414078	-0.678114
H53	H	-3.510855	-0.498422	-0.235093
H54	H	-3.470052	-0.348560	-0.236381
N55	N	-3.892892	-0.285329	-0.497404
N56	N	-3.858184	-0.280506	-0.422521
H57	H	-3.862590	-0.331424	-0.400473
N58	N	-3.868166	0.000047	-0.620912
N59	N	-3.706530	0.053000	-0.600761
H60	H	-3.702100	0.103928	-0.622791
H61	H	-4.186163	-0.611591	-0.248575
H62	H	-3.798945	-0.004795	-0.462433
N63	N	-4.005060	-0.231165	-0.783214
N64	N	-3.877631	-0.276352	-0.778317
H65	H	-3.910066	-0.331168	-0.816777
N66	N	-3.941034	0.056182	-0.819600
N67	N	-3.906329	0.060989	-0.744718
H68	H	-3.873870	0.115799	-0.706245
N69	N	-4.019613	0.045290	-0.989137
N70	N	-3.979446	0.113124	-0.941523
H71	H	-3.975011	0.164054	-0.963550
H72	H	-3.916746	-0.024635	-0.714369
N73	N	-4.163118	-0.356581	-0.251802
N74	N	-4.316058	-0.381511	-0.311256
H75	H	-4.438763	-0.354849	-0.314409
N76	N	-4.208543	-0.523540	-0.250371
N77	N	-4.356474	-0.530010	-0.309979
H78	H	-4.495379	-0.562919	-0.312618
N79	N	-3.749469	-0.883516	-0.234791
N80	N	-3.769579	-0.957267	-0.234156
H81	H	-3.646931	-0.983962	-0.231024
N82	N	-4.436963	-0.734004	-0.252404
N83	N	-4.589897	-0.758943	-0.311860
H84	H	-4.712616	-0.732289	-0.315017
N85	N	-4.482366	-0.900969	-0.250963
N86	N	-4.564398	-0.960832	-0.308313
H87	H	-4.703288	-0.993755	-0.310955
H88	H	-3.726371	-0.628481	-0.238007
