data_functionalizedCrystal
_audit_creation_method	'MofGen! by Chris Wilmer'
_symmetry_space_group_name_H-M	'P1'
_symmetry_Int_Tables_number	1
_symmetry_cell_setting	triclinic
loop_
_symmetry_equiv_pos_as_xyz
  x,y,z
_cell_length_a	16.109302
_cell_length_b	17.019294
_cell_length_c	15.186229
_cell_angle_alpha	93.883247
_cell_angle_beta	90.005906
_cell_angle_gamma	83.427801
loop_
_atom_site_label
_atom_site_type_symbol
_atom_site_fract_x
_atom_site_fract_y
_atom_site_fract_z
O1	O	1.103040	0.101398	0.080956
O2	O	1.436373	0.434731	0.414289
O3	O	1.769706	0.768065	0.747622
O4	O	0.860966	0.114016	0.081905
O5	O	1.194300	0.447349	0.415239
O6	O	1.527633	0.780683	0.748572
O7	O	0.988756	-0.007127	0.072719
O8	O	1.322089	0.326206	0.406052
O9	O	1.655423	0.659539	0.739385
O10	O	0.975250	0.222541	0.090142
O11	O	1.308583	0.555875	0.423475
O12	O	1.641917	0.889208	0.756809
O13	O	0.988746	-0.007130	-0.073739
O14	O	1.322080	0.326203	0.259595
O15	O	1.655413	0.659536	0.592928
O16	O	0.860957	0.114013	-0.064552
O17	O	1.194290	0.447346	0.268781
O18	O	1.527623	0.780680	0.602114
O19	O	1.103030	0.101395	-0.065502
O20	O	1.436363	0.434729	0.267831
O21	O	1.769696	0.768062	0.601165
Zn22	Zn	0.981992	0.107704	-0.088280
Zn23	Zn	1.315325	0.441037	0.245053
Zn24	Zn	1.648658	0.774370	0.578386
Zn25	Zn	0.982005	0.107707	0.104684
Zn26	Zn	1.315338	0.441041	0.438017
Zn27	Zn	1.648671	0.774374	0.771350
O28	O	0.975240	0.222539	-0.056315
O29	O	1.308573	0.555872	0.277018
O30	O	1.641907	0.889205	0.610351
C31	C	0.829987	0.113503	0.008637
C32	C	1.163320	0.446837	0.341970
C33	C	1.496654	0.780170	0.675304
C34	C	0.737693	0.111971	0.008518
C35	C	1.071026	0.445304	0.341851
C36	C	1.404360	0.778637	0.675185
C37	C	0.525350	0.108425	-0.071576
C38	C	0.858683	0.441759	0.261757
C39	C	1.192017	0.775092	0.595090
C40	C	0.438631	0.106977	-0.071683
C41	C	0.771965	0.440310	0.261650
C42	C	1.105298	0.773643	0.594984
C43	C	0.438652	0.106984	0.087993
C44	C	0.771986	0.440317	0.421327
C45	C	1.105319	0.773650	0.754660
C46	C	0.525370	0.108427	0.088099
C47	C	0.858704	0.441760	0.421432
C48	C	1.192037	0.775093	0.754765
C49	C	0.568716	0.109151	0.008312
C50	C	0.902050	0.442485	0.341645
C51	C	1.235383	0.775818	0.674978
C52	C	0.395280	0.106260	0.008099
C53	C	0.728613	0.439593	0.341433
C54	C	1.061946	0.772927	0.674766
C55	C	0.301255	0.104689	0.007984
C56	C	0.634589	0.438023	0.341317
C57	C	0.967922	0.771356	0.674651
C58	C	0.662747	0.110721	0.008426
C59	C	0.996080	0.444054	0.341760
C60	C	1.329414	0.777387	0.675093
C61	C	0.988239	-0.036518	-0.002738
C62	C	1.321572	0.296815	0.330596
C63	C	1.654906	0.630149	0.663929
C64	C	0.986703	-0.124088	-0.009376
C65	C	1.320036	0.209245	0.323958
C66	C	1.653369	0.542579	0.657291
C67	C	0.985988	-0.165223	0.067339
C68	C	1.319321	0.168111	0.400672
C69	C	1.652655	0.501444	0.734006
C70	C	0.984539	-0.247503	0.061099
C71	C	1.317873	0.085830	0.394433
C72	C	1.651206	0.419163	0.727766
C73	C	0.983811	-0.288649	-0.021856
C74	C	1.317144	0.044685	0.311477
C75	C	1.650478	0.378018	0.644810
C76	C	0.984523	-0.247508	-0.098577
C77	C	1.317856	0.085825	0.234756
C78	C	1.651190	0.419159	0.568090
C79	C	0.985966	-0.165228	-0.092336
C80	C	1.319299	0.168105	0.240997
C81	C	1.652632	0.501439	0.574331
C82	C	0.979449	-0.537080	-0.044693
C83	C	1.312782	-0.203747	0.288640
C84	C	1.646115	0.129586	0.621974
C85	C	0.978008	-0.619366	-0.050928
C86	C	1.311341	-0.286033	0.282405
C87	C	1.644675	0.047300	0.615739
C88	C	0.978023	-0.619356	0.108749
C89	C	1.311356	-0.286022	0.442082
C90	C	1.644690	0.047311	0.775416
C91	C	0.979471	-0.537075	0.114982
C92	C	1.312804	-0.203742	0.448316
C93	C	1.646138	0.129592	0.781649
C94	C	0.980178	-0.495941	0.038262
C95	C	1.313512	-0.162608	0.371595
C96	C	1.646845	0.170726	0.704928
C97	C	0.982332	-0.372753	-0.028236
C98	C	1.315666	-0.039420	0.305097
C99	C	1.648999	0.293914	0.638430
C100	C	0.981651	-0.411837	0.044643
C101	C	1.314984	-0.078504	0.377976
C102	C	1.648317	0.254829	0.711309
C103	C	1.134009	0.101908	0.007768
C104	C	1.467342	0.435241	0.341102
C105	C	1.800676	0.768575	0.674435
C106	C	1.226303	0.103441	0.007893
C107	C	1.559636	0.436774	0.341227
C108	C	1.892970	0.770107	0.674560
C109	C	0.975757	0.251929	0.019143
C110	C	1.309091	0.585262	0.352476
C111	C	1.642424	0.918596	0.685810
C112	C	0.977294	0.339499	0.025787
C113	C	1.310627	0.672832	0.359120
C114	C	1.643960	1.006166	0.692454
N115	N	0.981989	0.107701	-0.219973
N116	N	1.315322	0.441034	0.113360
N117	N	1.648655	0.774367	0.446693
C118	C	1.038597	0.054076	-0.541958
C119	C	1.371930	0.387410	-0.208625
C120	C	1.705264	0.720743	0.124709
C121	C	1.038595	0.054077	-0.449768
C122	C	1.371928	0.387410	-0.116435
C123	C	1.705261	0.720743	0.216898
C124	C	0.925403	0.161334	-0.441645
C125	C	1.258736	0.494668	-0.108312
C126	C	1.592070	0.828001	0.225022
C127	C	0.925410	0.161337	-0.533833
C128	C	1.258743	0.494671	-0.200499
C129	C	1.592077	0.828004	0.132834
C130	C	0.982006	0.107704	-0.583987
C131	C	1.315339	0.441037	-0.250654
C132	C	1.648673	0.774370	0.082679
C133	C	0.981997	0.107701	-0.399610
C134	C	1.315330	0.441035	-0.066277
C135	C	1.648663	0.774368	0.267057
C136	C	0.981994	0.107702	-0.299654
C137	C	1.315327	0.441035	0.033680
C138	C	1.648661	0.774369	0.367013
C139	C	0.982010	0.107704	-0.683950
C140	C	1.315343	0.441037	-0.350616
C141	C	1.648677	0.774370	-0.017283
N142	N	0.982014	0.107704	0.236376
N143	N	1.315347	0.441038	0.569709
N144	N	1.648681	0.774371	0.903043
H145	H	0.403326	0.106386	-0.136736
H146	H	0.736660	0.439719	0.196598
H147	H	1.069993	0.773052	0.529931
F148	F	1.098834	-0.003003	-0.595333
F149	F	1.432167	0.330330	-0.261999
F150	F	1.765500	0.663663	0.071334
F151	F	0.977269	-0.663139	0.190394
F152	F	1.310603	-0.329806	0.523728
F153	F	1.643936	0.003527	0.857061
H154	H	0.560640	0.109015	-0.136544
H155	H	0.893973	0.442349	0.196789
H156	H	1.227306	0.775682	0.530123
F157	F	0.392516	0.106197	0.172902
F158	F	0.725849	0.439530	0.506236
F159	F	1.059182	0.772863	0.839569
H160	H	0.879326	0.205011	-0.568055
H161	H	1.212660	0.538344	-0.234721
H162	H	1.545993	0.871678	0.098612
F163	F	0.571528	0.109194	0.173131
F164	F	0.904861	0.442528	0.506464
F165	F	1.238194	0.775861	0.839797
F166	F	0.865170	0.218410	-0.388261
F167	F	1.198504	0.551744	-0.054928
F168	F	1.531837	0.885077	0.278405
H169	H	0.986536	-0.131736	-0.154806
H170	H	1.319869	0.201598	0.178528
H171	H	1.653202	0.534931	0.511861
F172	F	0.986769	-0.121441	0.155632
F173	F	1.320102	0.211893	0.488966
F174	F	1.653436	0.545226	0.822299
F175	F	0.983780	-0.291278	0.142750
F176	F	1.317113	0.042055	0.476084
F177	F	1.650446	0.375388	0.809417
H178	H	1.084677	0.010409	-0.415551
H179	H	1.418010	0.343743	-0.082218
H180	H	1.751344	0.677076	0.251116
H181	H	0.980041	-0.503601	-0.107165
H182	H	1.313375	-0.170268	0.226169
H183	H	1.646708	0.163066	0.559502
F184	F	0.980248	-0.493291	0.203275
F185	F	1.313581	-0.159958	0.536608
F186	F	1.646914	0.173376	0.869942
H187	H	0.977411	-0.652864	-0.118484
H188	H	1.310744	-0.319531	0.214850
H189	H	1.644077	0.013803	0.548183
H190	H	0.983925	-0.281014	-0.166121
H191	H	1.317258	0.052319	0.167212
H192	H	1.650591	0.385652	0.500546
H193	H	0.982238	-0.378332	0.112185
H194	H	1.315571	-0.044999	0.445518
H195	H	1.648905	0.288334	0.778851
F196	F	0.981554	-0.416550	-0.116522
F197	F	1.314887	-0.083216	0.216812
F198	F	1.648221	0.250117	0.550145
