data_functionalizedCrystal
_audit_creation_method	'MofGen! by Chris Wilmer'
_symmetry_space_group_name_H-M	'P1'
_symmetry_Int_Tables_number	1
_symmetry_cell_setting	triclinic
loop_
_symmetry_equiv_pos_as_xyz
  x,y,z
_cell_length_a	8.559649
_cell_length_b	8.559649
_cell_length_c	16.098687
_cell_angle_alpha	92.345250
_cell_angle_beta	87.661560
_cell_angle_gamma	69.778664
loop_
_atom_site_label
_atom_site_type_symbol
_atom_site_fract_x
_atom_site_fract_y
_atom_site_fract_z
O1	O	-2.118747	0.046901	-0.069242
O2	O	-1.643262	-0.036880	-0.069245
O3	O	-1.922895	0.242753	-0.069242
O4	O	-1.839113	-0.232732	-0.069245
O5	O	-1.939147	0.259029	0.069268
O6	O	-1.659513	-0.020605	0.069265
O7	O	-2.134999	0.063177	0.069268
Zn8	Zn	-1.899836	0.023870	0.091258
Zn9	Zn	-1.878424	0.002426	-0.091235
O10	O	-1.855365	-0.216456	0.069265
C11	C	-1.591078	-0.035092	0.000009
C12	C	-1.411379	-0.053991	0.000008
C13	C	-1.937370	0.311200	0.000011
C14	C	-1.956268	0.490898	0.000007
C15	C	-2.187182	0.061388	0.000012
C16	C	-2.366880	0.080287	0.000008
C17	C	-1.840890	-0.284903	0.000010
C18	C	-1.821991	-0.464603	0.000009
N19	N	-1.914462	0.038508	0.215805
N20	N	-1.863813	-0.012197	-0.215782
C21	C	-1.982516	0.106454	0.740613
C22	C	-1.972244	0.096189	0.653426
C23	C	-1.843261	-0.032720	0.609846
C24	C	-1.724552	-0.151382	0.653457
C25	C	-1.734832	-0.141123	0.740643
C26	C	-1.806033	-0.069895	0.346602
C27	C	-1.795759	-0.080142	0.259410
C28	C	-2.043454	0.167428	0.259385
C29	C	-2.053716	0.177682	0.346572
C30	C	-1.935013	0.059015	0.390176
C31	C	-1.832756	-0.043213	0.520726
C32	C	-1.945526	0.069501	0.479294
H33	H	-1.466258	0.209706	0.000004
F34	F	-2.119792	0.243665	0.786986
F35	F	-1.587284	-0.288586	0.607076
H36	H	-2.158744	0.282650	0.382053
H37	H	-1.311990	-0.183420	0.000003
H38	H	-1.692572	0.436019	0.000011
F39	F	-2.125444	0.620801	0.000018
H40	H	-2.068902	0.192802	0.617922
F41	F	-1.679697	-0.196184	0.393002
H42	H	-2.050549	0.174455	0.514779
H43	H	-2.140098	0.264040	0.223874
F44	F	-1.658466	-0.217353	0.213035
H45	H	-1.638173	-0.237742	0.776146
F46	F	-1.695481	-0.180404	0.474340
