data_functionalizedCrystal
_audit_creation_method	'MofGen! by Chris Wilmer'
_symmetry_space_group_name_H-M	'P1'
_symmetry_Int_Tables_number	1
_symmetry_cell_setting	triclinic
loop_
_symmetry_equiv_pos_as_xyz
  x,y,z
_cell_length_a	11.169417
_cell_length_b	19.077068
_cell_length_c	11.169409
_cell_angle_alpha	87.740935
_cell_angle_beta	90.019824
_cell_angle_gamma	92.327792
loop_
_atom_site_label
_atom_site_type_symbol
_atom_site_fract_x
_atom_site_fract_y
_atom_site_fract_z
Zn1	Zn	1.815630	-0.280126	0.697665
Zn2	Zn	2.315630	0.219874	1.197665
Zn3	Zn	1.807395	-0.397846	0.505018
Zn4	Zn	2.307395	0.102154	1.005018
Zn5	Zn	1.614913	-0.280169	0.497002
Zn6	Zn	2.114913	0.219831	0.997002
Zn7	Zn	1.606803	-0.397789	0.705659
Zn8	Zn	2.106803	0.102211	1.205659
O9	O	1.711185	-0.338983	0.601336
O10	O	2.211185	0.161017	1.101336
O11	O	1.982486	-0.295748	0.672119
O12	O	2.482486	0.204252	1.172119
O13	O	1.781809	-0.382278	0.336008
O14	O	2.281809	0.117722	0.836008
O15	O	1.648378	-0.181673	0.516921
O16	O	2.148378	0.318327	1.016921
O17	O	1.976436	-0.382237	0.530582
O18	O	2.476436	0.117763	1.030582
O19	O	1.795844	-0.181642	0.664347
O20	O	2.295844	0.318358	1.164347
O21	O	1.640393	-0.295821	0.330119
O22	O	2.140393	0.204179	0.830119
O23	O	1.445887	-0.295766	0.524672
O24	O	1.945887	0.204234	1.024672
O25	O	1.634556	-0.382139	0.872546
O26	O	2.134556	0.117861	1.372546
O27	O	1.439929	-0.382181	0.677971
O28	O	1.939929	0.117819	1.177971
O29	O	1.787981	-0.295693	0.866672
O30	O	2.287981	0.204307	1.366672
O31	O	1.773945	-0.496329	0.538333
O32	O	2.273945	0.003671	1.038333
O33	O	1.626571	-0.496287	0.685743
O34	O	2.126571	0.003713	1.185743
C35	C	1.399361	-0.338972	0.601320
C36	C	1.899361	0.161028	1.101320
C37	C	1.265960	-0.338984	0.601343
C38	C	1.765960	0.161016	1.101343
C39	C	1.698517	-0.521846	0.613802
C40	C	2.198517	-0.021846	1.113802
C41	C	1.693208	-0.600075	0.619175
C42	C	2.193208	-0.100075	1.119175
C43	C	1.767503	-0.636826	0.545014
C44	C	2.267503	-0.136826	1.045014
C45	C	1.762516	-0.710331	0.550075
C46	C	2.262516	-0.210331	1.050075
C47	C	1.683227	-0.747084	0.629291
C48	C	2.183227	-0.247084	1.129291
C49	C	1.608929	-0.710328	0.703460
C50	C	2.108929	-0.210328	1.203460
C51	C	1.613923	-0.636824	0.698404
C52	C	2.113923	-0.136824	1.198404
C53	C	1.660064	-0.966916	0.652640
C54	C	2.160064	-0.466916	1.152640
C55	C	1.655073	-1.040425	0.657687
C56	C	2.155073	-0.540425	1.157687
C57	C	1.808662	-1.040424	0.504303
C58	C	2.308662	-0.540424	1.004303
C59	C	1.813643	-0.966918	0.499250
C60	C	2.313643	-0.466918	0.999250
C61	C	1.739350	-0.930169	0.573423
C62	C	2.239350	-0.430169	1.073423
N63	N	1.678125	-0.822218	0.634463
N64	N	2.178125	-0.322218	1.134463
N65	N	1.744459	-0.855036	0.568256
N66	N	2.244459	-0.355036	1.068256
C67	C	2.024226	-0.338994	0.601353
C68	C	2.524226	0.161006	1.101353
C69	C	2.157626	-0.338999	0.601360
C70	C	2.657626	0.161001	1.101360
C71	C	1.711282	-0.338905	0.914373
C72	C	2.211282	0.161095	1.414373
C73	C	1.711324	-0.338871	1.047771
C74	C	2.211324	0.161129	1.547771
C75	C	1.723935	-0.155406	0.588848
C76	C	2.223935	0.344594	1.088848
C77	C	1.729368	-0.077176	0.583526
C78	C	2.229368	0.422824	1.083526
C79	C	1.711160	-0.339010	0.289513
C80	C	2.211160	0.160990	0.789513
C81	C	1.711365	-0.338845	0.156103
C82	C	2.211365	0.161155	0.656103
H83	H	1.832062	-0.606907	0.480503
H84	H	2.332062	-0.106907	0.980503
H85	H	1.599569	-0.937001	0.713032
H86	H	2.099569	-0.437001	1.213032
F87	F	1.898046	-0.927809	0.414950
F88	F	2.398046	-0.427809	0.914950
H89	H	1.823014	-0.740251	0.489685
H90	H	2.323014	-0.240251	0.989685
H91	H	1.553426	-0.606902	0.758795
H92	H	2.053426	-0.106902	1.258795
H93	H	1.590521	-1.070347	0.722215
H94	H	2.090521	-0.570347	1.222215
F95	F	1.887730	-1.079540	0.425374
F96	F	2.387730	-0.579540	0.925374
F97	F	1.524551	-0.749445	0.787775
F98	F	2.024551	-0.249445	1.287775
