data_functionalizedCrystal
_audit_creation_method	'MofGen! by Chris Wilmer'
_symmetry_space_group_name_H-M	'P1'
_symmetry_Int_Tables_number	1
_symmetry_cell_setting	triclinic
loop_
_symmetry_equiv_pos_as_xyz
  x,y,z
_cell_length_a	18.426585
_cell_length_b	14.560432
_cell_length_c	14.560432
_cell_angle_alpha	90.000001
_cell_angle_beta	60.000804
_cell_angle_gamma	59.999157
loop_
_atom_site_label
_atom_site_type_symbol
_atom_site_fract_x
_atom_site_fract_y
_atom_site_fract_z
Zr1	Zr	0.794340	0.884764	-0.120466
O2	O	0.945743	0.738116	-0.267111
O3	O	0.642939	0.929720	-0.075516
O4	O	0.794341	0.929721	-0.267113
O5	O	0.794339	0.738113	0.075627
O6	O	0.794339	1.080862	-0.267109
O7	O	0.794341	0.738115	-0.075514
O8	O	0.523509	1.080860	0.075623
O9	O	1.065170	0.738115	-0.267105
O10	O	0.705210	1.061687	-0.056337
O11	O	0.705210	0.948892	0.056455
O12	O	0.883466	0.948893	-0.169126
O13	O	0.883466	0.836097	-0.056334
Zr14	Zr	0.794333	1.125814	0.120593
Zr15	Zr	0.794337	1.125816	-0.120459
Zr16	Zr	0.794337	0.884762	0.120587
Zr17	Zr	0.984811	0.884763	-0.120457
Zr18	Zr	0.603862	1.125815	0.120584
O19	O	0.945734	1.080858	0.075643
O20	O	0.945739	1.080861	-0.267102
O21	O	0.945739	0.738113	0.075634
O22	O	0.642930	1.272462	0.267238
O23	O	0.642935	1.272465	-0.075507
O24	O	0.642935	0.929717	0.267229
O25	O	0.794334	1.272464	-0.075500
O26	O	0.794332	1.080857	0.267240
O27	O	0.794334	0.929716	0.267236
O28	O	0.794332	1.272463	0.075641
O29	O	1.065167	0.929719	-0.267100
O30	O	0.523506	1.080859	0.267227
O31	O	0.523504	1.272463	0.267232
O32	O	0.523506	1.272465	0.075628
O33	O	1.065167	0.738113	-0.075501
O34	O	1.065165	0.929717	-0.075496
O35	O	0.705207	1.061685	0.169253
O36	O	0.705207	1.174481	0.056461
O37	O	0.883463	1.061686	-0.056328
O38	O	0.883463	0.948891	0.056464
C39	C	0.556086	1.005290	0.000052
C40	C	0.475226	1.005291	0.000048
C41	C	0.794341	0.703769	0.000056
C42	C	0.794342	0.601436	0.000053
C43	C	0.794341	1.005292	-0.301456
C44	C	0.794342	1.005293	-0.403789
C45	C	0.179116	1.005285	0.000081
C46	C	0.261503	1.005283	0.000075
C47	C	0.327169	1.005287	0.000064
C48	C	0.409560	1.005288	0.000059
C49	C	1.032587	1.005287	0.000075
C50	C	1.113448	1.005287	0.000079
C51	C	0.794357	0.601413	-0.166491
C52	C	0.794368	0.553325	-0.249763
C53	C	0.794367	0.457175	-0.249759
C54	C	0.794353	0.409114	-0.166473
C55	C	0.794342	0.457203	-0.083201
C56	C	0.794346	0.553352	-0.083216
C57	C	0.794320	0.457230	0.083346
C58	C	0.794328	0.553375	0.083339
C59	C	0.794306	0.409169	0.166632
C60	C	0.794303	0.457253	0.249901
C61	C	0.794304	0.553408	0.249893
C62	C	0.794317	0.601464	0.166611
C63	C	0.794333	1.306809	0.000071
C64	C	0.794331	1.409142	0.000074
C65	C	0.794352	1.171821	-0.403809
C66	C	0.794361	1.255080	-0.451896
C67	C	0.794361	1.255077	-0.548046
C68	C	0.794349	1.171807	-0.596109
C69	C	0.794340	1.088548	-0.548022
C70	C	0.794343	1.088558	-0.451872
C71	C	0.794323	0.922026	-0.547997
C72	C	0.794330	0.922023	-0.451852
C73	C	0.794311	0.838756	-0.596059
C74	C	0.794309	0.755491	-0.547977
C75	C	0.794311	0.755497	-0.451822
C76	C	0.794321	0.838764	-0.403765
C77	C	0.794333	1.005286	0.301583
C78	C	0.794331	1.005285	0.403916
C79	C	0.556082	1.306810	0.000060
C80	C	0.475220	1.409144	0.000059
C81	C	0.556082	1.005288	0.301572
C82	C	0.475220	1.005287	0.403901
C83	C	0.556078	1.306807	0.301580
C84	C	0.475215	1.409140	0.403911
C85	C	1.032595	0.703771	-0.301453
C86	C	1.113458	0.601438	-0.403784
C87	C	1.032591	0.703768	0.000067
C88	C	1.113453	0.601434	0.000068
C89	C	1.032591	1.005290	-0.301445
C90	C	1.113453	1.005291	-0.403774
C91	C	0.437249	1.398323	-0.058831
C92	C	0.361281	1.494467	-0.058855
C93	C	0.323282	1.601430	0.000019
C94	C	0.361261	1.612249	0.058911
C95	C	0.437232	1.516106	0.058927
C96	C	0.437246	1.064164	0.510845
C97	C	0.361278	1.064160	0.607004
C98	C	0.323282	1.005284	0.596215
C99	C	0.361264	0.946400	0.489260
C100	C	0.437236	0.946398	0.393104
C101	C	0.437241	1.516085	0.393091
C102	C	0.361272	1.612246	0.489234
C103	C	0.323274	1.601460	0.596195
C104	C	0.361256	1.494504	0.607013
C105	C	0.437228	1.398345	0.510872
C106	C	1.151441	0.494493	-0.392964
C107	C	1.227434	0.398332	-0.489107
C108	C	1.265436	0.409117	-0.596068
C109	C	1.227450	0.516074	-0.606886
C110	C	1.151464	0.612233	-0.510745
C111	C	1.151433	0.612255	0.058948
C112	C	1.227421	0.516111	0.058945
C113	C	1.265423	0.409147	0.000068
C114	C	1.227440	0.398329	-0.058819
C115	C	1.151458	0.494472	-0.058822
C116	C	1.151425	1.064178	-0.392950
C117	C	1.227393	1.064200	-0.489090
C118	C	1.265392	1.005328	-0.596053
C119	C	1.227413	0.946439	-0.606875
C120	C	1.151441	0.946424	-0.510736
H121	H	0.794369	0.679696	-0.166510
H122	H	0.794365	1.171824	-0.325527
H123	H	0.330311	1.699351	0.106843
H124	H	0.330368	1.485637	-0.106811
C125	C	0.239709	1.005301	0.701993
H126	H	0.222532	1.048811	0.767227
H127	H	0.264602	0.930292	0.702013
H128	H	0.180420	1.036840	0.702008
H129	H	0.468168	1.524888	0.306007
H130	H	1.258334	0.524941	0.106902
C131	C	1.109663	0.482607	-0.275320
H132	H	1.143187	0.405136	-0.282661
H133	H	1.037934	0.517657	-0.235355
H134	H	1.122123	0.517674	-0.235371
H135	H	1.327292	0.330871	0.000080
H136	H	0.468139	1.524931	0.106889
H137	H	0.330317	0.898465	0.480492
C138	C	0.239706	1.707178	0.000004
H139	H	0.222531	1.685404	-0.043494
H140	H	0.264596	1.750686	-0.031516
H141	H	0.180417	1.750670	0.075020
C142	C	0.478993	0.881639	0.275471
H143	H	0.445472	0.846587	0.282828
H144	H	0.550724	0.825917	0.235500
H145	H	0.466524	0.932468	0.235521
C146	C	0.794325	0.838768	-0.298005
H147	H	0.794324	0.777255	-0.276250
H148	H	0.734804	0.907195	-0.238594
H149	H	0.853865	0.831840	-0.313934
H150	H	1.258349	0.311253	-0.480277
H151	H	1.258308	1.112153	-0.480256
C152	C	1.109678	0.729866	-0.522661
H153	H	1.143191	0.722507	-0.600134
H154	H	1.122115	0.769846	-0.487602
H155	H	1.037946	0.769810	-0.487616
C156	C	0.479041	1.128915	0.522735
H157	H	0.445546	1.163961	0.600205
H158	H	0.466592	1.184641	0.487683
H159	H	0.550775	1.078075	0.487671
C160	C	1.349004	0.303336	-0.701813
H161	H	1.366168	0.238102	-0.680040
H162	H	1.408294	0.303309	-0.745323
H163	H	1.324091	0.303326	-0.745304
H164	H	1.120533	0.898466	-0.519565
C165	C	1.269279	0.881605	-0.724535
H166	H	1.235801	0.846509	-0.717224
H167	H	1.341006	0.825912	-0.764418
H168	H	1.256858	0.932382	-0.764546
C169	C	0.794389	0.606189	-0.341374
H170	H	0.794398	0.670334	-0.329461
H171	H	0.734869	0.628094	-0.337935
H172	H	0.853930	0.552750	-0.413249
H173	H	1.120497	1.112118	-0.305863
H174	H	1.258401	0.524842	-0.693985
C175	C	0.319496	1.729883	0.477314
H176	H	0.352998	1.722525	0.399841
H177	H	0.331952	1.769849	0.512359
H178	H	0.247762	1.769839	0.512374
H179	H	1.258393	0.311227	-0.106755
H180	H	1.327254	1.005349	-0.674326
C181	C	1.109674	0.482562	-0.123578
H182	H	1.058981	0.555134	-0.115159
H183	H	1.080047	0.442602	-0.094496
H184	H	1.164223	0.442610	-0.201043
H185	H	1.120497	0.699341	0.106900
H186	H	0.330362	1.112114	0.694082
H187	H	0.794371	0.418025	-0.317562
H188	H	0.261412	1.679769	0.674470
H189	H	0.794336	1.171817	-0.674391
H190	H	0.794341	0.330832	-0.166467
H191	H	0.468137	1.311270	0.519697
C192	C	0.794358	0.303374	0.166609
H193	H	0.794357	0.281635	0.228129
H194	H	0.853905	0.243975	0.098187
H195	H	0.734845	0.319244	0.173509
C196	C	0.794290	0.404388	0.341503
H197	H	0.794284	0.446796	0.391097
H198	H	0.853812	0.329210	0.307306
H199	H	0.734752	0.404561	0.382634
C200	C	0.794299	0.606294	0.341489
H201	H	0.794298	0.563891	0.391081
H202	H	0.734777	0.681472	0.382610
H203	H	0.853837	0.606120	0.307280
H204	H	0.794323	0.679750	0.166594
C205	C	0.319441	1.482655	0.724673
H206	H	0.268748	1.555246	0.780373
H207	H	0.373969	1.442705	0.733134
H208	H	0.289785	1.442718	0.733109
H209	H	0.794362	1.322877	-0.587195
C210	C	0.794375	1.346672	-0.399032
H211	H	0.794372	1.396261	-0.441437
H212	H	0.853902	1.312465	-0.399188
H213	H	0.734841	1.387812	-0.323855
C214	C	0.479040	1.280677	-0.123604
H215	H	0.445545	1.288018	-0.158686
H216	H	0.466587	1.240713	-0.072793
H217	H	0.550775	1.240726	-0.179320
C218	C	0.794300	0.838753	-0.701814
H219	H	0.794281	0.777245	-0.723543
H220	H	0.853827	0.831830	-0.761241
H221	H	0.734767	0.907180	-0.685892
H222	H	0.794293	0.687703	-0.587111
H223	H	0.794298	0.687701	-0.412671
