data_functionalizedCrystal
_audit_creation_method	'MofGen! by Chris Wilmer'
_symmetry_space_group_name_H-M	'P1'
_symmetry_Int_Tables_number	1
_symmetry_cell_setting	triclinic
loop_
_symmetry_equiv_pos_as_xyz
  x,y,z
_cell_length_a	14.519731
_cell_length_b	19.188924
_cell_length_c	12.996460
_cell_angle_alpha	89.991787
_cell_angle_beta	89.994327
_cell_angle_gamma	83.415409
loop_
_atom_site_label
_atom_site_type_symbol
_atom_site_fract_x
_atom_site_fract_y
_atom_site_fract_z
O1	O	1.223285	0.091596	-0.085574
O2	O	1.723285	0.591596	0.414426
O3	O	0.954743	0.102358	-0.085576
O4	O	1.454743	0.602358	0.414424
O5	O	1.096767	-0.004651	-0.085563
O6	O	1.596767	0.495349	0.414437
O7	O	1.081261	0.198605	-0.085587
O8	O	1.581261	0.698605	0.414413
O9	O	1.096752	-0.004657	0.085571
O10	O	1.596752	0.495343	0.585571
O11	O	0.954729	0.102352	0.085558
O12	O	1.454729	0.602352	0.585558
O13	O	1.223270	0.091590	0.085560
O14	O	1.723270	0.591590	0.585560
Cu15	Cu	1.088998	0.096970	0.101185
Cu16	Cu	1.588998	0.596970	0.601185
Cu17	Cu	1.089015	0.096977	-0.101201
Cu18	Cu	1.589015	0.596977	0.398799
O19	O	1.081246	0.198599	0.085547
O20	O	1.581246	0.698599	0.585547
C21	C	0.920380	0.101851	-0.000009
C22	C	1.420380	0.601851	0.499991
C23	C	0.818009	0.100340	-0.000010
C24	C	1.318009	0.600340	0.499990
C25	C	0.734872	0.099112	-0.000014
C26	C	1.234872	0.599112	0.499986
C27	C	0.630573	0.097578	-0.000014
C28	C	1.130573	0.597578	0.499986
C29	C	0.547442	0.096360	-0.000014
C30	C	1.047442	0.596360	0.499986
C31	C	0.443136	0.094826	-0.000016
C32	C	0.943136	0.594826	0.499984
C33	C	1.096258	-0.030667	0.000005
C34	C	1.596258	0.469333	0.500005
C35	C	1.094754	-0.108177	0.000008
C36	C	1.594754	0.391823	0.500008
C37	C	1.094060	-0.144575	-0.093277
C38	C	1.594060	0.355425	0.406723
C39	C	1.092634	-0.217403	-0.093285
C40	C	1.592634	0.282597	0.406715
C41	C	1.091920	-0.253832	-0.000003
C42	C	1.591920	0.246168	0.499997
C43	C	1.092609	-0.217424	0.093295
C44	C	1.592609	0.282576	0.593295
C45	C	1.094026	-0.144597	0.093300
C46	C	1.594026	0.355403	0.593300
N47	N	1.142169	-0.373316	0.069426
N48	N	1.642169	0.126684	0.569426
N49	N	1.140825	-0.442499	0.069415
N50	N	1.640825	0.057501	0.569415
C51	C	1.087648	-0.473256	-0.000013
C52	C	1.587648	0.026744	0.499987
N53	N	1.035879	-0.432219	-0.069444
N54	N	1.535879	0.067781	0.430556
N55	N	1.037227	-0.363029	-0.069435
N56	N	1.537227	0.136971	0.430565
C57	C	1.090383	-0.332801	0.000002
C58	C	1.590383	0.167199	0.500002
C59	C	1.085406	-0.588623	-0.093313
C60	C	1.585406	-0.088623	0.406687
C61	C	1.083974	-0.661451	-0.093317
C62	C	1.583974	-0.161451	0.406683
C63	C	1.083959	-0.661472	0.093266
C64	C	1.583959	-0.161472	0.593266
C65	C	1.085381	-0.588644	0.093268
C66	C	1.585381	-0.088644	0.593268
C67	C	1.086110	-0.552224	-0.000025
C68	C	1.586110	-0.052224	0.499975
C69	C	1.257634	0.092097	-0.000009
C70	C	1.757634	0.592097	0.499991
C71	C	1.360004	0.093608	-0.000016
C72	C	1.860004	0.593608	0.499984
C73	C	1.081755	0.224615	-0.000023
C74	C	1.581755	0.724615	0.499977
C75	C	1.083259	0.302125	-0.000033
C76	C	1.583259	0.802125	0.499967
N77	N	1.088992	0.096965	0.243532
N78	N	1.588992	0.596965	0.743532
N79	N	1.089028	0.096977	-0.243548
N80	N	1.589028	0.596977	0.256452
C81	C	1.089014	0.096978	0.663346
C82	C	1.589014	0.596978	1.163346
C83	C	1.089005	0.096977	0.546541
C84	C	1.589005	0.596977	1.046541
C85	C	1.089004	0.096972	0.453443
C86	C	1.589004	0.596972	0.953443
C87	C	1.088994	0.096970	0.336630
C88	C	1.588994	0.596970	0.836630
H89	H	1.092063	-0.247044	-0.169252
H90	H	1.592063	0.252956	0.330748
O91	O	1.091790	-0.252871	0.183846
O92	O	1.591790	0.247129	0.683846
C93	C	1.011107	-0.287180	0.189432
C94	C	1.511107	0.212820	0.689432
H95	H	0.984285	-0.295480	0.108433
H96	H	1.484285	0.204520	0.608433
H97	H	0.955731	-0.253652	0.235464
H98	H	1.455731	0.246348	0.735464
C99	C	1.066955	-0.348540	0.342250
C100	C	1.566955	0.151460	0.842250
C101	C	1.034015	-0.358740	0.242766
C102	C	1.534015	0.141260	0.742766
H103	H	1.081083	-0.392680	0.375153
H104	H	1.581083	0.107320	0.875153
H105	H	1.121311	-0.325424	0.338490
H106	H	1.621311	0.174576	0.838490
H107	H	1.020802	-0.320598	0.380598
H108	H	1.520802	0.179402	0.880598
H109	H	1.080172	-0.386673	0.204417
H110	H	1.580172	0.113327	0.704417
H111	H	0.979667	-0.381862	0.246521
H112	H	1.479667	0.118138	0.746521
O113	O	1.094742	-0.109348	0.184014
O114	O	1.594742	0.390652	0.684014
C115	C	1.093775	-0.157111	0.266350
C116	C	1.593775	0.342889	0.766350
H117	H	1.121956	-0.211876	0.239003
H118	H	1.621956	0.288124	0.739003
H119	H	1.019652	-0.157627	0.295028
H120	H	1.519652	0.342373	0.795028
C121	C	1.120169	-0.067345	0.388082
C122	C	1.620169	0.432655	0.888082
C123	C	1.154789	-0.134607	0.354495
C124	C	1.654789	0.365393	0.854495
H125	H	1.157801	-0.053463	0.442456
H126	H	1.657801	0.446537	0.942456
H127	H	1.120817	-0.035165	0.332611
H128	H	1.620817	0.464835	0.832611
H129	H	1.058400	-0.067783	0.411973
H130	H	1.558400	0.432217	0.911973
H131	H	1.216552	-0.134165	0.330593
H132	H	1.716552	0.365835	0.830593
H133	H	1.154153	-0.166786	0.409964
H134	H	1.654153	0.333214	0.909964
H135	H	1.083405	-0.691085	-0.169284
H136	H	1.583405	-0.191085	0.330716
O137	O	1.086060	-0.553342	-0.184024
O138	O	1.586060	-0.053342	0.315976
C139	C	1.085155	-0.601091	-0.266365
C140	C	1.585155	-0.101091	0.233635
H141	H	1.054950	-0.650153	-0.239020
H142	H	1.554950	-0.150153	0.260980
H143	H	1.158974	-0.616065	-0.295051
H144	H	1.658974	-0.116065	0.204949
C145	C	1.062350	-0.506485	-0.388084
C146	C	1.562350	-0.006485	0.111916
C147	C	1.025244	-0.566742	-0.354500
C148	C	1.525244	-0.066742	0.145500
H149	H	1.025398	-0.485297	-0.442453
H150	H	1.525398	0.014703	0.057547
H151	H	1.062963	-0.474315	-0.332610
H152	H	1.562963	0.025685	0.167390
H153	H	1.123864	-0.518972	-0.411982
H154	H	1.623864	-0.018972	0.088018
H155	H	0.963735	-0.554253	-0.330591
H156	H	1.463735	-0.054253	0.169409
H157	H	1.024619	-0.598909	-0.409973
H158	H	1.524619	-0.098909	0.090027
O159	O	1.094715	-0.109301	-0.183991
O160	O	1.594715	0.390699	0.316009
C161	C	1.093819	-0.157053	-0.266329
C162	C	1.593819	0.342947	0.233671
H163	H	1.063619	-0.206117	-0.238983
H164	H	1.563619	0.293883	0.261017
H165	H	1.167640	-0.172023	-0.295012
H166	H	1.667640	0.327977	0.204988
C167	C	1.071006	-0.062451	-0.388055
C168	C	1.571006	0.437549	0.111945
C169	C	1.033907	-0.122710	-0.354469
C170	C	1.533907	0.377290	0.145531
H171	H	1.034054	-0.041267	-0.442426
H172	H	1.534054	0.458733	0.057574
H173	H	1.071613	-0.030279	-0.332583
H174	H	1.571613	0.469721	0.167417
H175	H	1.132523	-0.074934	-0.411950
H176	H	1.632523	0.425066	0.088050
H177	H	0.972396	-0.110225	-0.330563
H178	H	1.472396	0.389775	0.169437
H179	H	1.033288	-0.154879	-0.409940
H180	H	1.533288	0.345121	0.090060
O181	O	1.083383	-0.696791	0.183943
O182	O	1.583383	-0.196791	0.683943
C183	C	1.163584	-0.686832	0.240700
C184	C	1.663584	-0.186832	0.740700
H185	H	1.191246	-0.636554	0.214193
H186	H	1.691246	-0.136554	0.714193
H187	H	1.218699	-0.733286	0.227762
H188	H	1.718699	-0.233286	0.727762
C189	C	1.105398	-0.742873	0.388535
C190	C	1.605398	-0.242873	0.888535
C191	C	1.139369	-0.681117	0.355986
C192	C	1.639369	-0.181117	0.855986
H193	H	1.090463	-0.739351	0.459650
H194	H	1.590463	-0.239351	0.959650
H195	H	1.051367	-0.749586	0.350297
H196	H	1.551367	-0.249586	0.850297
H197	H	1.151333	-0.781579	0.377745
H198	H	1.651333	-0.281579	0.877745
H199	H	1.093430	-0.642414	0.366764
H200	H	1.593430	-0.142414	0.866764
H201	H	1.193392	-0.674398	0.394229
H202	H	1.693392	-0.174398	0.894229
H203	H	1.085954	-0.559009	0.169231
H204	H	1.585954	-0.059009	0.669231
