data_functionalizedCrystal
_audit_creation_method	'MofGen! by Chris Wilmer'
_symmetry_space_group_name_H-M	'P1'
_symmetry_Int_Tables_number	1
_symmetry_cell_setting	triclinic
loop_
_symmetry_equiv_pos_as_xyz
  x,y,z
_cell_length_a	6.817900
_cell_length_b	11.102216
_cell_length_c	11.102291
_cell_angle_alpha	91.951271
_cell_angle_beta	108.605752
_cell_angle_gamma	108.604437
loop_
_atom_site_label
_atom_site_type_symbol
_atom_site_fract_x
_atom_site_fract_y
_atom_site_fract_z
V1	V	-4.111535	-0.175856	-0.396265
O2	O	-4.070571	0.008434	-0.388716
O3	O	-4.088309	-0.348677	-0.393560
O4	O	-4.088320	-0.173158	-0.569087
O5	O	-4.070560	-0.168300	-0.211974
V6	V	-4.588638	-0.153812	-0.374221
O7	O	-4.386877	-0.224211	-0.444618
O8	O	-4.763493	-0.105456	-0.325867
O9	O	-4.388658	0.019009	-0.376926
O10	O	-4.746999	-0.338102	-0.381770
O11	O	-4.747010	-0.161368	-0.558512
O12	O	-4.388647	-0.156510	-0.201399
C13	C	-3.938619	-0.390806	-0.387310
C14	C	-4.001084	-0.532090	-0.386251
C15	C	-4.149292	-0.749378	-0.501130
C16	C	-4.090609	-0.616629	-0.502137
C17	C	-3.970262	-0.580305	-0.269351
C18	C	-4.028960	-0.713052	-0.268347
C19	C	-4.218764	-0.770349	-0.635527
C20	C	-4.160080	-0.637600	-0.636534
C21	C	-3.938632	-0.166913	-0.611210
C22	C	-4.001101	-0.165851	-0.752493
C23	C	-4.214455	-0.171690	-0.825341
C24	C	-4.273127	-0.170667	-0.958088
C25	C	-3.905070	-0.157970	-0.945126
C26	C	-3.846398	-0.158984	-0.812381
C27	C	-4.426953	-0.179027	-0.832827
C28	C	-4.485625	-0.178004	-0.965573
C29	C	-4.201690	0.061132	-0.383172
C30	C	-4.118465	0.202414	-0.384240
C31	C	-4.201677	-0.162758	-0.159269
C32	C	-4.118445	-0.163814	-0.017985
H33	H	-4.112790	-0.812911	-0.671903
H34	H	-4.309198	-0.608060	-0.683584
H35	H	-4.629320	-0.269898	-1.018423
H36	H	-3.897383	-0.511463	-0.174995
H37	H	-3.672670	-0.154231	-0.753073
Br38	Br	-4.585940	-0.336993	-0.792044
H39	H	-4.402639	-0.819389	-0.691729
H40	H	-4.029558	-0.604659	-0.683537
H41	H	-3.779124	-0.152377	-0.993903
H42	H	-4.003881	-0.752297	-0.173164
Br43	Br	-4.459395	-0.035253	-0.754312
Br44	Br	-4.546408	-0.027609	-1.014088
