data_functionalizedCrystal
_audit_creation_method	'MofGen! by Chris Wilmer'
_symmetry_space_group_name_H-M	'P1'
_symmetry_Int_Tables_number	1
_symmetry_cell_setting	triclinic
loop_
_symmetry_equiv_pos_as_xyz
  x,y,z
_cell_length_a	18.101398
_cell_length_b	18.101397
_cell_length_c	19.078593
_cell_angle_alpha	92.214579
_cell_angle_beta	92.228540
_cell_angle_gamma	90.016023
loop_
_atom_site_label
_atom_site_type_symbol
_atom_site_fract_x
_atom_site_fract_y
_atom_site_fract_z
Zn1	Zn	1.115800	-0.311351	-0.397698
Zn2	Zn	1.120565	-0.430337	-0.280017
Zn3	Zn	0.996803	-0.306506	-0.280055
Zn4	Zn	0.991934	-0.435144	-0.397672
O5	O	1.056276	-0.370834	-0.338860
O6	O	1.220065	-0.327150	-0.382082
O7	O	1.108179	-0.409871	-0.181549
O8	O	1.012632	-0.203517	-0.295687
O9	O	1.223566	-0.414569	-0.295623
O10	O	1.100059	-0.207076	-0.382119
O11	O	1.017252	-0.318892	-0.181577
O12	O	0.892524	-0.323554	-0.295662
O13	O	1.004334	-0.422763	-0.496148
O14	O	0.888947	-0.418064	-0.382075
O15	O	1.095338	-0.331812	-0.496167
O16	O	1.103458	-0.534606	-0.295598
O17	O	1.008953	-0.538138	-0.382038
C18	C	0.863865	-0.370806	-0.338870
C19	C	0.781550	-0.370812	-0.338891
C20	C	0.482460	-0.370854	-0.338862
C21	C	0.511570	-0.430583	-0.392962
C22	C	0.597179	-0.430412	-0.393184
C23	C	0.630842	-0.370834	-0.338876
C24	C	0.598938	-0.293669	-0.359146
C25	C	0.513278	-0.294030	-0.359530
C26	C	0.517079	-0.387597	-0.264362
C27	C	0.602713	-0.389325	-0.264760
C28	C	0.714701	-0.370818	-0.338883
C29	C	0.398601	-0.370866	-0.338856
C30	C	1.056214	-0.563244	-0.338826
C31	C	1.056254	-0.645558	-0.338835
C32	C	1.056346	-0.944652	-0.338900
C33	C	1.115652	-0.911067	-0.284368
C34	C	1.115844	-0.825455	-0.284509
C35	C	1.056300	-0.796268	-0.338867
C36	C	1.074402	-0.830340	-0.413038
C37	C	1.074856	-0.915973	-0.412741
C38	C	0.978759	-0.912370	-0.319902
C39	C	0.979214	-0.826652	-0.318247
C40	C	1.056273	-0.712408	-0.338853
C41	C	1.056375	-1.028512	-0.338918
C42	C	1.249438	-0.370864	-0.338851
C43	C	1.331752	-0.370876	-0.338847
C44	C	1.048761	-0.378364	-0.522405
C45	C	1.045559	-0.381573	-0.600620
C46	C	1.056357	-0.177675	-0.338910
C47	C	1.056392	-0.095361	-0.338931
C48	C	1.063804	-0.363281	-0.156030
C49	C	1.067149	-0.359863	-0.077815
C50	C	1.021695	-0.405944	-0.040868
C51	C	1.024834	-0.402727	0.032624
C52	C	1.073432	-0.353431	0.069167
C53	C	1.118889	-0.307345	0.032215
C54	C	1.115745	-0.310560	-0.041276
C55	C	1.087872	-0.338701	0.288937
C56	C	1.091013	-0.335492	0.362433
C57	C	0.996957	-0.430873	0.362837
C58	C	0.993821	-0.434086	0.289345
C59	C	1.039275	-0.387997	0.252399
N60	N	1.076643	-0.350143	0.144287
N61	N	1.036060	-0.391282	0.177280
H62	H	0.491071	-0.279469	-0.413993
H63	H	0.982124	-0.446089	-0.070616
H64	H	0.987828	-0.440259	0.062703
H65	H	0.615406	-0.419578	-0.448384
H66	H	1.158455	-0.267205	0.061974
H67	H	1.152757	-0.273033	-0.071357
Cl68	Cl	0.630420	-0.518916	-0.373601
H69	H	0.620866	-0.248093	-0.320971
Cl70	Cl	1.145054	-0.280800	0.242501
H71	H	0.491483	-0.488096	-0.380400
H72	H	0.494096	-0.248105	-0.321933
H73	H	0.961701	-0.931834	-0.266756
H74	H	0.618182	-0.278780	-0.413016
Cl75	Cl	1.098857	-0.789580	-0.199608
H76	H	1.033385	-0.938432	-0.454771
Cl77	Cl	1.009542	-0.801574	-0.477456
H78	H	1.104847	-0.929431	-0.229206
Cl79	Cl	0.932732	-0.496068	0.243410
H80	H	0.496234	-0.442743	-0.245942
Cl81	Cl	1.204001	-0.945006	-0.303548
Cl82	Cl	0.635036	-0.476975	-0.241161
Cl83	Cl	1.204670	-0.794540	-0.303918
H84	H	0.625854	-0.348735	-0.222286
Cl85	Cl	0.939815	-0.488805	0.409287
Cl86	Cl	0.488350	-0.320373	-0.202126
H87	H	0.487798	-0.419903	-0.447842
H88	H	1.131477	-0.936561	-0.428834
Cl89	Cl	1.160814	-0.798189	-0.438307
Cl90	Cl	1.152115	-0.273518	0.408372
Cl91	Cl	0.958049	-0.791887	-0.233976
Cl92	Cl	0.907701	-0.795979	-0.375080
H93	H	0.934609	-0.934273	-0.359620
