data_functionalizedCrystal
_audit_creation_method	'MofGen! by Chris Wilmer'
_symmetry_space_group_name_H-M	'P1'
_symmetry_Int_Tables_number	1
_symmetry_cell_setting	triclinic
loop_
_symmetry_equiv_pos_as_xyz
  x,y,z
_cell_length_a	14.750779
_cell_length_b	16.109301
_cell_length_c	16.109301
_cell_angle_alpha	83.461481
_cell_angle_beta	102.640104
_cell_angle_gamma	77.359167
loop_
_atom_site_label
_atom_site_type_symbol
_atom_site_fract_x
_atom_site_fract_y
_atom_site_fract_z
O1	O	-0.079770	-1.085092	-0.124898
O2	O	-0.079786	-0.843026	-0.138200
O3	O	-0.079768	-0.970711	-0.010516
O4	O	-0.079788	-0.957407	-0.252582
O5	O	0.079888	-1.006806	0.025575
O6	O	0.079870	-0.879121	-0.102109
O7	O	0.079885	-1.121187	-0.088807
Zn8	Zn	0.105226	-1.005885	-0.089728
Zn9	Zn	-0.105127	-0.958328	-0.137279
O10	O	0.079867	-0.993502	-0.216491
C11	C	0.000040	-0.830099	-0.119617
C12	C	0.000035	-0.737802	-0.118003
N13	N	0.248787	-1.038347	-0.057275
N14	N	-0.248687	-0.925873	-0.169726
C15	C	0.600576	-0.835210	-0.260326
C16	C	0.701078	-0.857964	-0.237590
C17	C	0.701057	-0.971052	-0.124567
C18	C	0.600553	-0.948305	-0.147290
C19	C	0.550320	-0.880384	-0.215171
C20	C	0.550297	-0.993479	-0.102136
C21	C	0.449801	-0.970737	-0.124861
C22	C	0.399562	-0.902821	-0.192740
C23	C	0.449825	-0.857642	-0.237896
C24	C	0.600531	-1.061404	-0.034259
C25	C	0.550275	-1.106578	0.010895
C26	C	0.449778	-1.083832	-0.011825
C27	C	0.399538	-1.015915	-0.079705
C28	C	0.399515	-1.129010	0.033331
C29	C	0.299019	-1.106268	0.010606
C30	C	0.299043	-0.993173	-0.102429
C31	C	0.000061	-0.988220	0.038505
C32	C	0.000062	-0.986605	0.130800
C33	C	0.000057	-1.134114	-0.107391
C34	C	0.000057	-1.226409	-0.109006
C35	C	0.000040	-0.515531	-0.190009
C36	C	0.000046	-0.428812	-0.188484
C37	C	0.000055	-0.448688	-0.036993
C38	C	0.000055	-0.535407	-0.038518
C39	C	0.000043	-0.568825	-0.115030
C40	C	0.000049	-0.395387	-0.111979
C41	C	0.000055	-0.301362	-0.110325
C42	C	0.000038	-0.662855	-0.116684
C43	C	0.000037	-0.975993	-0.265512
C44	C	0.000030	-0.977606	-0.357809
C45	C	0.000051	-1.058610	0.353070
C46	C	0.000043	-1.057085	0.439789
C47	C	0.000037	-0.905595	0.419913
C48	C	0.000038	-0.907120	0.333195
C49	C	0.000050	-0.983631	0.299777
C50	C	0.000041	-0.980580	0.473214
C51	C	0.000032	-0.978925	0.567238
C52	C	0.000057	-0.985286	0.205747
H53	H	0.258141	-0.937859	-0.157699
C54	C	0.000086	-0.825629	0.275475
C55	C	0.000109	-0.758305	0.323307
C56	C	0.000162	-0.683230	0.270168
H57	H	-0.055574	-0.810374	0.228629
H58	H	0.055784	-0.835625	0.253839
H59	H	-0.055583	-0.748309	0.344930
H60	H	0.055766	-0.773532	0.370151
H61	H	0.055859	-0.693226	0.248531
H62	H	-0.055500	-0.667983	0.223324
H63	H	0.000186	-0.637544	0.302616
H64	H	0.000061	-0.578802	0.022544
C65	C	0.000001	-1.141748	0.316934
C66	C	-0.000028	-1.207077	0.382165
C67	C	-0.000092	-1.283673	0.348907
H68	H	0.055661	-1.158201	0.296116
H69	H	-0.055697	-1.132939	0.270948
H70	H	0.055665	-1.215887	0.428136
H71	H	-0.055683	-1.190653	0.402989
H72	H	-0.055791	-1.274864	0.302921
H73	H	0.055568	-1.300118	0.328090
H74	H	-0.000121	-1.328006	0.393158
H75	H	0.000042	-1.118140	0.483177
H76	H	0.000071	-0.421470	0.025301
C77	C	0.000183	-0.551965	-0.272980
C78	C	0.082308	-0.619759	-0.259705
C79	C	0.082467	-0.653349	-0.336116
H80	H	0.000232	-0.507901	-0.317478
H81	H	-0.055465	-0.572843	-0.289313
H82	H	0.137941	-0.598880	-0.243384
H83	H	0.082276	-0.663841	-0.215221
H84	H	0.026819	-0.674227	-0.352449
H85	H	0.082514	-0.609279	-0.380608
H86	H	0.138183	-0.699356	-0.327117
C87	C	0.755597	-0.808764	-0.286527
C88	C	0.731188	-0.721550	-0.278520
C89	C	0.781403	-0.676206	-0.323575
H90	H	0.739171	-0.813941	-0.345771
H91	H	0.822652	-0.831982	-0.263263
H92	H	0.664148	-0.698339	-0.301788
H93	H	0.747617	-0.716347	-0.219286
H94	H	0.848458	-0.699424	-0.300311
H95	H	0.764973	-0.681391	-0.382817
H96	H	0.764855	-0.617029	-0.318142
H97	H	0.000029	-0.843302	0.447133
H98	H	0.408923	-0.802328	-0.293165
C99	C	0.290451	-0.878303	-0.217411
C100	C	0.257178	-0.949166	-0.241725
C101	C	0.156672	-0.926616	-0.264447
H102	H	0.267609	-0.831419	-0.264325
H103	H	0.267683	-0.861834	-0.169406
H104	H	0.279936	-0.965623	-0.289726
H105	H	0.279993	-0.996057	-0.194824
H106	H	0.133905	-0.910146	-0.216442
H107	H	0.133840	-0.879731	-0.311359
H108	H	0.134084	-0.974694	-0.280939
C109	C	0.546076	-0.761570	-0.334145
C110	C	0.570492	-0.780560	-0.410332
C111	C	0.520295	-0.712753	-0.478350
H112	H	0.562511	-0.709771	-0.321492
H113	H	0.479018	-0.754503	-0.341266
H114	H	0.637534	-0.787616	-0.403211
H115	H	0.554054	-0.832348	-0.423011
H116	H	0.453237	-0.705686	-0.485471
H117	H	0.536734	-0.660957	-0.465689
H118	H	0.536847	-0.725631	-0.530052
H119	H	0.591186	-1.161882	0.066163
C120	C	0.755482	-1.044716	-0.050759
C121	C	0.731022	-1.025724	0.025411
C122	C	0.781129	-1.093563	0.093423
H123	H	0.822545	-1.051850	-0.043573
H124	H	0.738984	-1.096485	-0.063474
H125	H	0.747527	-0.973969	0.038124
H126	H	0.663968	-1.018598	0.018254
H127	H	0.764631	-1.145333	0.080708
H128	H	0.848190	-1.100693	0.100601
H129	H	0.764534	-1.080690	0.145110
C130	C	0.454233	-1.202700	0.107026
C131	C	0.553000	-1.212938	0.117271
C132	C	0.603434	-1.280806	0.185158
H133	H	0.437863	-1.254514	0.094333
H134	H	0.437828	-1.189969	0.158827
H135	H	0.569398	-1.225674	0.065482
H136	H	0.569399	-1.161142	0.129977
H137	H	0.587030	-1.268075	0.236959
H138	H	0.587056	-1.332614	0.172459
H139	H	0.670452	-1.287756	0.192124
H140	H	0.258100	-1.143054	0.047375
H141	H	0.682361	-1.079920	-0.015762
H142	H	0.000045	-0.385423	-0.249540
