data_functionalizedCrystal
_audit_creation_method	'MofGen! by Chris Wilmer'
_symmetry_space_group_name_H-M	'P1'
_symmetry_Int_Tables_number	1
_symmetry_cell_setting	triclinic
loop_
_symmetry_equiv_pos_as_xyz
  x,y,z
_cell_length_a	12.827893
_cell_length_b	14.908178
_cell_length_c	12.827879
_cell_angle_alpha	86.637317
_cell_angle_beta	89.958408
_cell_angle_gamma	93.314160
loop_
_atom_site_label
_atom_site_type_symbol
_atom_site_fract_x
_atom_site_fract_y
_atom_site_fract_z
Zn1	Zn	1.573885	-0.358862	-0.566822
Zn2	Zn	1.563607	-0.509850	-0.381973
Zn3	Zn	1.399049	-0.358993	-0.392086
Zn4	Zn	1.389018	-0.509698	-0.556683
O5	O	1.481390	-0.434351	-0.474391
O6	O	1.718757	-0.378901	-0.542312
O7	O	1.541675	-0.489957	-0.237070
O8	O	1.430741	-0.232716	-0.423741
O9	O	1.711205	-0.489831	-0.406504
O10	O	1.559192	-0.232620	-0.552119
O11	O	1.420775	-0.379123	-0.244501
O12	O	1.251483	-0.378975	-0.413910
O13	O	1.413644	-0.489571	-0.704272
O14	O	1.244113	-0.489697	-0.534838
O15	O	1.549465	-0.378753	-0.711721
O16	O	1.531947	-0.636089	-0.396672
O17	O	1.403677	-0.635977	-0.525031
C18	C	1.209881	-0.434334	-0.474372
C19	C	1.093727	-0.434349	-0.474387
C20	C	1.045672	-0.379554	-0.541682
C21	C	0.925621	-0.379568	-0.541699
C22	C	1.465637	-0.668771	-0.458677
C23	C	1.458993	-0.769057	-0.451989
C24	C	1.580164	-0.957255	-0.573245
C25	C	1.573926	-1.051483	-0.566965
C26	C	1.440273	-1.051741	-0.433155
C27	C	1.446512	-0.957514	-0.439435
C28	C	1.516461	-0.910274	-0.509482
C29	C	1.522704	-0.816045	-0.515756
C30	C	1.389047	-0.816305	-0.381951
C31	C	1.382808	-0.910533	-0.375671
C32	C	1.753959	-0.434368	-0.474410
C33	C	1.870111	-0.434375	-0.474419
C34	C	1.481582	-0.434130	-0.746976
C35	C	1.481664	-0.434036	-0.863136
C36	C	1.497232	-0.199015	-0.490189
C37	C	1.503984	-0.098729	-0.496921
C38	C	1.481263	-0.434506	-0.202870
C39	C	1.481400	-0.434345	-0.086728
C40	C	1.541907	-0.488546	0.088782
C41	C	1.541766	-0.488713	-0.031256
H42	H	1.579662	-0.777583	-0.572788
H43	H	1.593342	-0.535383	-0.072620
H44	H	0.911444	-0.481294	-0.416808
N45	N	1.655614	-0.906296	-0.648778
H46	H	1.695029	-0.950358	-0.688217
H47	H	1.615661	-0.867175	-0.699709
N48	N	0.870873	-0.317429	-0.618026
H49	H	0.792873	-0.326248	-0.607221
H50	H	0.894205	-0.252965	-0.606219
H51	H	1.045991	-0.481269	-0.416785
N52	N	1.642645	-1.102154	-0.635730
H53	H	1.628082	-1.169015	-0.621125
H54	H	1.627460	-1.085609	-0.711452
H55	H	1.383320	-1.090220	-0.376132
N56	N	1.307372	-0.961486	-0.300121
H57	H	1.313086	-1.028308	-0.305815
H58	H	1.324752	-0.945087	-0.226599
N59	N	1.320331	-0.765635	-0.313172
H60	H	1.335493	-0.782112	-0.237425
H61	H	1.334929	-0.698789	-0.327861
N62	N	1.610377	-0.550199	0.151957
H63	H	1.600765	-0.541346	0.228755
H64	H	1.590312	-0.614778	0.137481
N65	N	1.413070	-0.372518	-0.031966
H66	H	1.362553	-0.409454	0.015995
H67	H	1.458181	-0.330425	0.010233
N68	N	1.108889	-0.317413	-0.618003
H69	H	1.185688	-0.326220	-0.607182
H70	H	1.088973	-0.331504	-0.691677
H71	H	1.429987	-0.387487	0.089160
