data_functionalizedCrystal
_audit_creation_method	'MofGen! by Chris Wilmer'
_symmetry_space_group_name_H-M	'P1'
_symmetry_Int_Tables_number	1
_symmetry_cell_setting	triclinic
loop_
_symmetry_equiv_pos_as_xyz
  x,y,z
_cell_length_a	19.288865
_cell_length_b	19.288840
_cell_length_c	18.366186
_cell_angle_alpha	89.983729
_cell_angle_beta	89.988521
_cell_angle_gamma	83.131131
loop_
_atom_site_label
_atom_site_type_symbol
_atom_site_fract_x
_atom_site_fract_y
_atom_site_fract_z
O1	O	0.086566	0.921364	-0.060680
O2	O	0.586566	1.421364	0.439320
O3	O	0.098273	0.719101	-0.060655
O4	O	0.598273	1.219101	0.439345
O5	O	-0.008712	0.826077	-0.060654
O6	O	0.491288	1.326077	0.439346
O7	O	0.193550	0.814388	-0.060681
O8	O	0.693550	1.314388	0.439319
O9	O	-0.008717	0.826059	0.060446
O10	O	0.491283	1.326059	0.560446
O11	O	0.098268	0.719083	0.060444
O12	O	0.598268	1.219083	0.560444
O13	O	0.086561	0.921346	0.060420
O14	O	0.586561	1.421346	0.560420
Zn15	Zn	0.092413	0.820211	0.079659
Zn16	Zn	0.592413	1.320211	0.579659
Zn17	Zn	0.092420	0.820235	-0.079895
Zn18	Zn	0.592420	1.320235	0.420105
O19	O	0.193545	0.814370	0.060418
O20	O	0.693545	1.314370	0.560418
C21	C	-0.034591	0.825692	-0.000102
C22	C	0.465409	1.325692	0.499898
C23	C	-0.111694	0.824563	-0.000095
C24	C	0.388306	1.324563	0.499905
C25	C	0.097896	0.693215	-0.000102
C26	C	0.597896	1.193215	0.499898
C27	C	0.096774	0.616110	-0.000093
C28	C	0.596774	1.116110	0.499907
C29	C	-0.156396	0.887331	-0.000099
C30	C	0.343604	1.387331	0.499901
C31	C	-0.228843	0.886270	-0.000111
C32	C	0.271157	1.386270	0.499889
C33	C	-0.256585	0.822438	-0.000103
C34	C	0.243415	1.322438	0.499897
C35	C	-0.211873	0.759661	-0.000104
C36	C	0.288127	1.259661	0.499896
C37	C	-0.139428	0.760723	-0.000100
C38	C	0.360572	1.260723	0.499900
C39	C	-0.364870	0.772251	0.042321
C40	C	0.135130	1.272251	0.542321
C41	C	-0.437314	0.771191	0.042321
C42	C	0.062686	1.271191	0.542321
C43	C	-0.480030	0.819158	-0.000119
C44	C	0.019970	1.319158	0.499881
C45	C	-0.450295	0.868196	-0.042551
C46	C	0.049705	1.368196	0.457449
C47	C	-0.377849	0.869259	-0.042547
C48	C	0.122151	1.369259	0.457453
C49	C	-0.335139	0.821278	-0.000108
C50	C	0.164861	1.321278	0.499892
C51	C	-0.603288	0.880781	-0.000137
C52	C	-0.103288	1.380781	0.499863
C53	C	-0.675736	0.879717	-0.000153
C54	C	-0.175736	1.379717	0.499847
C55	C	-0.658764	0.753106	-0.000138
C56	C	-0.158764	1.253106	0.499862
C57	C	-0.586318	0.754171	-0.000130
C58	C	-0.086318	1.254171	0.499870
C59	C	-0.558584	0.818010	-0.000125
C60	C	-0.058584	1.318010	0.499875
C61	C	0.096238	0.579917	-0.066106
C62	C	0.596238	1.079917	0.433894
C63	C	0.095176	0.507470	-0.066114
C64	C	0.595176	1.007470	0.433886
C65	C	0.094636	0.471221	-0.000106
C66	C	0.594636	0.971221	0.499894
C67	C	0.095176	0.507423	0.065915
C68	C	0.595176	1.007423	0.565915
C69	C	0.096245	0.579868	0.065922
C70	C	0.596245	1.079868	0.565922
C71	C	0.052256	0.361886	0.050461
C72	C	0.552256	0.861886	0.550461
C73	C	0.051183	0.289443	0.050451
C74	C	0.551183	0.789443	0.550451
C75	C	0.091342	0.247778	-0.000125
C76	C	0.591342	0.747778	0.499875
C77	C	0.132566	0.278565	-0.050703
C78	C	0.632566	0.778565	0.449297
C79	C	0.133635	0.351009	-0.050697
C80	C	0.633635	0.851009	0.449303
C81	C	0.093477	0.392667	-0.000107
C82	C	0.593477	0.892667	0.499893
C83	C	0.089655	0.133029	-0.066152
C84	C	0.589655	0.633029	0.433848
C85	C	0.088598	0.060580	-0.066158
C86	C	0.588598	0.560580	0.433842
C87	C	0.088591	0.060535	0.065874
C88	C	0.588591	0.560535	0.565874
C89	C	0.089656	0.132982	0.065878
C90	C	0.589656	0.632982	0.565878
C91	C	0.090185	0.169225	-0.000137
C92	C	0.590185	0.669225	0.499863
C93	C	0.219424	0.814755	-0.000135
C94	C	0.719424	1.314755	0.499865
C95	C	0.296527	0.815884	-0.000147
C96	C	0.796527	1.315884	0.499853
C97	C	0.086937	0.947232	-0.000135
C98	C	0.586937	1.447232	0.499865
C99	C	0.088059	1.024336	-0.000149
C100	C	0.588059	1.524336	0.499851
N101	N	0.092408	0.820200	0.188550
N102	N	0.592408	1.320200	0.688550
N103	N	0.092420	0.820252	-0.188786
N104	N	0.592420	1.320252	0.311214
C105	C	0.045059	0.867584	0.226651
C106	C	0.545059	1.367584	0.726651
C107	C	0.045055	0.867589	0.302879
C108	C	0.545055	1.367589	0.802879
C109	C	0.092414	0.820215	0.341003
C110	C	0.592414	1.320215	0.841003
C111	C	0.139767	0.772822	0.302893
C112	C	0.639767	1.272822	0.802893
C113	C	0.139764	0.772814	0.226666
C114	C	0.639764	1.272814	0.726666
C115	C	0.155702	0.810917	0.461755
C116	C	0.655702	1.310917	0.961755
C117	C	0.155706	0.810930	0.537980
C118	C	0.655706	1.310930	1.037980
C119	C	0.092422	0.820235	0.576110
C120	C	0.592422	1.320235	1.076110
C121	C	0.029132	0.829543	0.538006
C122	C	0.529132	1.329543	1.038006
C123	C	0.029129	0.829535	0.461780
C124	C	0.529129	1.329535	0.961780
C125	C	0.092422	0.820218	0.423658
C126	C	0.592422	1.320218	0.923658
C127	C	0.045066	0.867627	0.696866
C128	C	0.545066	1.367627	1.196866
C129	C	0.045062	0.867627	0.773096
C130	C	0.545062	1.367627	1.273096
C131	C	0.139779	0.772863	0.773108
C132	C	0.639779	1.272863	1.273108
C133	C	0.139777	0.772860	0.696880
C134	C	0.639777	1.272860	1.196880
C135	C	0.092421	0.820246	0.658764
C136	C	0.592421	1.320246	1.158764
H137	H	-0.133820	0.939314	-0.000098
H138	H	0.366180	1.439314	0.499902
N139	N	0.094616	0.470412	0.133348
N140	N	0.594616	0.970412	0.633348
N141	N	0.095091	0.502740	0.192286
N142	N	0.595091	1.002740	0.692286
H143	H	0.094698	0.476602	0.239913
H144	H	0.594698	0.976602	0.739913
H145	H	-0.712132	0.930833	-0.000160
H146	H	-0.212132	1.430833	0.499840
H147	H	0.017613	0.264383	0.091632
H148	H	0.517613	0.764383	0.591632
N149	N	-0.687104	0.687907	-0.000139
N150	N	-0.187104	1.187907	0.499861
N151	N	-0.751788	0.686966	-0.000147
N152	N	-0.251788	1.186966	0.499853
H153	H	-0.771807	0.640917	-0.000151
H154	H	-0.271807	1.140917	0.499849
H155	H	0.088165	0.031112	-0.119916
H156	H	0.588165	0.531112	0.380084
H157	H	0.178322	0.734228	0.195644
H158	H	0.678322	1.234228	0.695644
N159	N	-0.321244	0.723260	0.085691
N160	N	0.178756	1.223260	0.585691
N161	N	-0.283601	0.744493	0.134265
N162	N	0.216399	1.244493	0.634265
H163	H	-0.252791	0.709894	0.164896
H164	H	0.247209	1.209894	0.664896
H165	H	-0.549920	0.703058	-0.000122
H166	H	-0.049920	1.203058	0.499878
N167	N	0.173615	0.236001	-0.102341
N168	N	0.673615	0.736001	0.397659
N169	N	0.238479	0.235413	-0.103373
N170	N	0.738479	0.735413	0.396627
H171	H	0.267473	0.205345	-0.139835
H172	H	0.767473	0.705345	0.360165
H173	H	-0.353642	0.909186	-0.077098
H174	H	0.146358	1.409186	0.422902
H175	H	-0.580706	0.932763	-0.000137
H176	H	-0.080706	1.432763	0.499863
N177	N	-0.467709	0.721121	0.085665
N178	N	0.032291	1.221121	0.585665
N179	N	-0.510913	0.741177	0.134228
N180	N	-0.010913	1.241177	0.634228
H181	H	-0.532384	0.705818	0.164840
H182	H	-0.032384	1.205818	0.664840
H183	H	-0.234465	0.707687	-0.000099
H184	H	0.265535	1.207687	0.499901
H185	H	0.019552	0.395805	0.091649
H186	H	0.519552	0.895805	0.591649
H187	H	-0.103030	0.709608	-0.000096
H188	H	0.396970	1.209608	0.499904
N189	N	0.220348	0.801431	0.422805
N190	N	0.720348	1.301431	0.922805
N191	N	0.235807	0.847783	0.380250
N192	N	0.735807	1.347783	0.880250
H193	H	0.281461	0.841085	0.352739
H194	H	0.781461	1.341085	0.852739
H195	H	0.090088	0.162452	0.119633
H196	H	0.590088	0.662452	0.619633
N197	N	0.096779	0.616926	-0.133542
N198	N	0.596779	1.116926	0.366458
N199	N	0.096301	0.584595	-0.192479
N200	N	0.596301	1.084595	0.307521
H201	H	0.096683	0.610733	-0.240108
H202	H	0.596683	1.110733	0.259892
H203	H	0.006497	0.906167	0.195619
H204	H	0.506497	1.406167	0.695619
N205	N	0.094628	0.470499	-0.133555
N206	N	0.594628	0.970499	0.366445
N207	N	0.095101	0.502867	-0.192489
N208	N	0.595101	1.002867	0.307511
H209	H	0.094712	0.476759	-0.240120
H210	H	0.594712	0.976759	0.259880
N211	N	-0.003321	0.915969	0.657876
N212	N	0.496679	1.415969	1.157876
N213	N	-0.046337	0.893992	0.615361
N214	N	0.453663	1.393992	1.115361
H215	H	-0.080512	0.928117	0.587807
H216	H	0.419488	1.428117	1.087807
N217	N	-0.274506	0.950396	-0.000101
N218	N	0.225494	1.450396	0.499899
N219	N	-0.272105	0.992885	0.050949
N220	N	0.227895	1.492885	0.550949
H221	H	-0.304353	1.038174	0.050958
H222	H	0.195647	1.538174	0.550958
H223	H	0.178326	0.734249	0.333937
H224	H	0.678326	1.234249	0.833937
H225	H	-0.022404	0.837112	0.430759
H226	H	0.477596	1.337112	0.930759
H227	H	0.167202	0.376073	-0.091878
H228	H	0.667202	0.876073	0.408122
H229	H	0.006496	0.906176	0.333907
H230	H	0.506496	1.406176	0.833907
N231	N	0.090196	0.170044	-0.133587
N232	N	0.590196	0.670044	0.366413
N233	N	0.089723	0.137715	-0.192525
N234	N	0.589723	0.637715	0.307475
H235	H	0.090104	0.163855	-0.240153
H236	H	0.590104	0.663855	0.259847
H237	H	0.088156	0.031022	0.119619
H238	H	0.588156	0.531022	0.619619
H239	H	-0.022400	0.837120	0.569050
H240	H	0.477600	1.337120	1.069050
H241	H	0.096683	0.609336	0.119680
H242	H	0.596683	1.109336	0.619680
H243	H	0.207241	0.803355	0.568999
H244	H	0.707241	1.303355	1.068999
N245	N	-0.003318	0.916030	0.812006
N246	N	0.496682	1.416030	1.312006
N247	N	-0.045594	0.958330	0.777962
N248	N	0.454406	1.458330	1.277962
H249	H	-0.079764	0.992517	0.805442
H250	H	0.420236	1.492517	1.305442
H251	H	0.178336	0.734288	0.804147
H252	H	0.678336	1.234288	1.304147
H253	H	0.178336	0.734278	0.665856
H254	H	0.678336	1.234278	1.165856
H255	H	-0.485073	0.907255	-0.077111
H256	H	0.014927	1.407255	0.422889
