data_functionalizedCrystal
_audit_creation_method	'MofGen! by Chris Wilmer'
_symmetry_space_group_name_H-M	'P1'
_symmetry_Int_Tables_number	1
_symmetry_cell_setting	triclinic
loop_
_symmetry_equiv_pos_as_xyz
  x,y,z
_cell_length_a	9.065218
_cell_length_b	11.026607
_cell_length_c	8.140239
_cell_angle_alpha	89.998310
_cell_angle_beta	89.997198
_cell_angle_gamma	96.800951
loop_
_atom_site_label
_atom_site_type_symbol
_atom_site_fract_x
_atom_site_fract_y
_atom_site_fract_z
O1	O	2.004900	0.178453	-0.136613
O2	O	2.504900	0.678453	0.363387
O3	O	1.579265	0.193091	-0.136615
O4	O	2.079265	0.693091	0.363385
O5	O	1.756806	0.008731	-0.136608
O6	O	2.256806	0.508731	0.363392
O7	O	1.827358	0.362813	-0.136620
O8	O	2.327358	0.862813	0.363380
O9	O	1.756793	0.008729	0.136619
O10	O	2.256793	0.508729	0.636619
O11	O	1.579252	0.193088	0.136612
O12	O	2.079252	0.693088	0.636612
O13	O	2.004886	0.178451	0.136614
O14	O	2.504886	0.678451	0.636614
Zn15	Zn	1.792067	0.185769	0.179994
Zn16	Zn	2.292067	0.685769	0.679994
Zn17	Zn	1.792084	0.185772	-0.179994
Zn18	Zn	2.292084	0.685772	0.320006
O19	O	1.827345	0.362810	0.136608
O20	O	2.327345	0.862810	0.636608
C21	C	1.523921	0.191683	-0.000001
C22	C	2.023921	0.691683	0.499999
C23	C	1.359029	0.187476	-0.000002
C24	C	1.859029	0.687476	0.499998
C25	C	1.743784	-0.036624	0.000004
C26	C	2.243784	0.463376	0.500004
C27	C	1.704984	-0.171765	-0.000002
C28	C	2.204984	0.328235	0.499998
C29	C	1.812117	-0.244393	-0.000004
C30	C	2.312117	0.255607	0.499996
C31	C	1.772018	-0.384068	-0.000011
C32	C	2.272018	0.115932	0.499989
C33	C	2.060230	0.179859	-0.000003
C34	C	2.560230	0.679859	0.499997
C35	C	2.225122	0.184065	-0.000013
C36	C	2.725122	0.684065	0.499987
C37	C	1.840368	0.408165	-0.000008
C38	C	2.340368	0.908165	0.499992
C39	C	1.879168	0.543306	-0.000012
C40	C	2.379168	1.043306	0.499988
N41	N	1.792066	0.185767	0.425677
N42	N	2.292066	0.685767	0.925677
N43	N	1.792095	0.185765	-0.425677
N44	N	2.292095	0.685765	0.074323
H45	H	1.933525	-0.203167	0.000006
H46	H	2.433525	0.296833	0.500006
H47	H	1.583576	-0.212990	-0.000014
H48	H	2.083576	0.287010	0.499986
N49	N	2.039995	-0.402098	-0.000003
N50	N	2.539995	0.097902	0.499997
H51	H	2.090940	-0.429836	0.101284
H52	H	2.590940	0.070164	0.601284
H53	H	2.090835	-0.429841	-0.101354
H54	H	2.590835	0.070159	0.398646
N55	N	1.611187	-0.438653	-0.000028
N56	N	2.111187	0.061347	0.499972
H57	H	1.605338	-0.530695	-0.000033
H58	H	2.105338	-0.030695	0.499967
H59	H	1.560321	-0.410836	0.101262
H60	H	2.060321	0.089164	0.601262
