data_functionalizedCrystal
_audit_creation_method	'MofGen! by Chris Wilmer'
_symmetry_space_group_name_H-M	'P1'
_symmetry_Int_Tables_number	1
_symmetry_cell_setting	triclinic
loop_
_symmetry_equiv_pos_as_xyz
  x,y,z
_cell_length_a	14.519709
_cell_length_b	19.288813
_cell_length_c	17.766277
_cell_angle_alpha	89.984873
_cell_angle_beta	89.996216
_cell_angle_gamma	83.397823
loop_
_atom_site_label
_atom_site_type_symbol
_atom_site_fract_x
_atom_site_fract_y
_atom_site_fract_z
O1	O	1.223274	0.091052	-0.062513
O2	O	1.556608	0.424385	0.270820
O3	O	1.889941	0.757719	0.604153
O4	O	0.954727	0.101774	-0.062538
O5	O	1.288060	0.435108	0.270795
O6	O	1.621394	0.768441	0.604128
O7	O	1.096785	-0.004692	-0.062501
O8	O	1.430118	0.328642	0.270832
O9	O	1.763451	0.661975	0.604165
O10	O	1.081216	0.197518	-0.062550
O11	O	1.414550	0.530851	0.270783
O12	O	1.747883	0.864185	0.604116
O13	O	1.096759	-0.004695	0.062687
O14	O	1.430093	0.328639	0.396021
O15	O	1.763426	0.661972	0.729354
O16	O	0.954702	0.101771	0.062650
O17	O	1.288035	0.435105	0.395984
O18	O	1.621368	0.768438	0.729317
O19	O	1.223249	0.091049	0.062675
O20	O	1.556582	0.424382	0.396009
O21	O	1.889916	0.757715	0.729342
Cu22	Cu	1.088973	0.096410	0.074093
Cu23	Cu	1.422306	0.429743	0.407427
Cu24	Cu	1.755640	0.763076	0.740760
Cu25	Cu	1.089003	0.096413	-0.073957
Cu26	Cu	1.422336	0.429747	0.259377
Cu27	Cu	1.755670	0.763080	0.592710
O28	O	1.081191	0.197515	0.062638
O29	O	1.414524	0.530848	0.395971
O30	O	1.747858	0.864182	0.729305
C31	C	0.920358	0.101273	0.000053
C32	C	1.253691	0.434607	0.333386
C33	C	1.587024	0.767940	0.666720
C34	C	0.817986	0.099776	0.000045
C35	C	1.151320	0.433109	0.333378
C36	C	1.484653	0.766442	0.666711
C37	C	1.096279	-0.030572	0.000097
C38	C	1.429612	0.302761	0.333431
C39	C	1.762946	0.636095	0.666764
C40	C	1.094799	-0.107683	0.000111
C41	C	1.428132	0.225651	0.333444
C42	C	1.761465	0.558984	0.666777
N43	N	1.088959	0.096407	0.178224
N44	N	1.422292	0.429740	0.511557
N45	N	1.755625	0.763073	0.844890
C46	C	0.443127	0.094263	0.000080
C47	C	0.776460	0.427596	0.333414
C48	C	1.109793	0.760930	0.666747
C49	C	0.547425	0.095794	0.000070
C50	C	0.880758	0.429127	0.333404
C51	C	1.214091	0.762460	0.666737
C52	C	0.630553	0.097019	0.000062
C53	C	0.963887	0.430352	0.333395
C54	C	1.297220	0.763686	0.666728
C55	C	0.734858	0.098550	0.000053
C56	C	1.068191	0.431884	0.333386
C57	C	1.401524	0.765217	0.666720
C58	C	1.257618	0.091550	0.000082
C59	C	1.590952	0.424883	0.333415
C60	C	1.924285	0.758217	0.666749
C61	C	1.359990	0.093048	0.000086
C62	C	1.693323	0.426381	0.333419
C63	C	2.026656	0.759714	0.666752
C64	C	1.081697	0.223395	0.000038
C65	C	1.415030	0.556729	0.333371
C66	C	1.748364	0.890062	0.666704
C67	C	1.083177	0.300506	0.000019
C68	C	1.416511	0.633839	0.333353
C69	C	1.749844	0.967173	0.666686
C70	C	1.083882	0.336701	0.068264
C71	C	1.417215	0.670034	0.401597
C72	C	1.750549	1.003368	0.734930
C73	C	1.085298	0.409153	0.068277
C74	C	1.418632	0.742486	0.401610
C75	C	1.751965	1.075819	0.734943
C76	C	1.086028	0.445404	0.000042
C77	C	1.419362	0.778738	0.333375
C78	C	1.752695	1.112071	0.666708
C79	C	1.085318	0.409201	-0.068211
C80	C	1.418651	0.742534	0.265122
C81	C	1.751985	1.075868	0.598455
C82	C	1.083893	0.336752	-0.068223
C83	C	1.417226	0.670085	0.265111
C84	C	1.750559	1.003418	0.598444
C85	C	1.142315	0.554935	-0.052215
C86	C	1.475648	0.888269	0.281118
C87	C	1.808982	1.221602	0.614451
C88	C	1.143746	0.627383	-0.052201
C89	C	1.477079	0.960716	0.281132
C90	C	1.810413	1.294049	0.614465
C91	C	1.090421	0.668862	0.000073
C92	C	1.423754	1.002195	0.333407
C93	C	1.757087	1.335528	0.666740
C94	C	1.035676	0.637884	0.052347
C95	C	1.369009	0.971217	0.385680
C96	C	1.702343	1.304550	0.719013
C97	C	1.034251	0.565435	0.052335
C98	C	1.367584	0.898768	0.385669
C99	C	1.700917	1.232101	0.719002
C100	C	1.087573	0.523963	0.000046
C101	C	1.420907	0.857297	0.333380
C102	C	1.754240	1.190630	0.666713
C103	C	1.092660	0.783617	0.068336
C104	C	1.425993	1.116950	0.401670
C105	C	1.759326	1.450284	0.735003
C106	C	1.094070	0.856070	0.068346
C107	C	1.427404	1.189404	0.401680
C108	C	1.760737	1.522737	0.735013
C109	C	1.094099	0.856116	-0.068144
C110	C	1.427433	1.189450	0.265190
C111	C	1.760766	1.522783	0.598523
C112	C	1.092680	0.783665	-0.068152
C113	C	1.426013	1.116999	0.265181
C114	C	1.759346	1.450332	0.598515
C115	C	1.091964	0.747420	0.000090
C116	C	1.425298	1.080753	0.333423
C117	C	1.758631	1.414086	0.666757
N118	N	1.089025	0.096411	-0.178087
N119	N	1.422358	0.429744	0.155246
N120	N	1.755691	0.763078	0.488580
C121	C	1.144696	0.138632	0.217599
C122	C	1.478029	0.471966	0.550932
C123	C	1.811362	0.805299	0.884266
C124	C	1.144710	0.138630	0.296401
C125	C	1.478044	0.471964	0.629734
C126	C	1.811377	0.805297	0.963068
C127	C	1.088970	0.096411	0.335824
C128	C	1.422304	0.429744	0.669158
C129	C	1.755637	0.763078	1.002491
C130	C	1.033230	0.054177	0.296439
C131	C	1.366563	0.387510	0.629773
C132	C	1.699897	0.720844	0.963106
C133	C	1.033224	0.054175	0.217639
C134	C	1.366557	0.387508	0.550973
C135	C	1.699891	0.720842	0.884306
C136	C	1.005840	0.094355	0.460677
C137	C	1.339173	0.427688	0.794010
C138	C	1.672506	0.761021	1.127344
C139	C	1.005843	0.094362	0.539476
C140	C	1.339177	0.427695	0.872809
C141	C	1.672510	0.761028	1.206143
C142	C	1.088990	0.096413	0.578871
C143	C	1.422323	0.429746	0.912204
C144	C	1.755656	0.763080	1.245537
C145	C	1.172133	0.098472	0.539457
C146	C	1.505467	0.431805	0.872790
C147	C	1.838800	0.765139	1.206124
C148	C	1.172127	0.098470	0.460657
C149	C	1.505461	0.431803	0.793990
C150	C	1.838794	0.765137	1.127323
C151	C	1.088971	0.096408	0.421270
C152	C	1.422305	0.429741	0.754603
C153	C	1.755638	0.763075	1.087937
C154	C	1.144747	0.138639	0.703692
C155	C	1.478081	0.471972	1.037025
C156	C	1.811414	0.805305	1.370359
C157	C	1.144764	0.138632	0.782495
C158	C	1.478097	0.471965	1.115828
C159	C	1.811431	0.805298	1.449162
C160	C	1.033275	0.054182	0.782532
C161	C	1.366608	0.387516	1.115866
C162	C	1.699941	0.720849	1.449199
C163	C	1.033267	0.054185	0.703731
C164	C	1.366600	0.387519	1.037064
C165	C	1.699934	0.720852	1.370397
C166	C	1.089002	0.096417	0.664315
C167	C	1.422335	0.429751	0.997648
C168	C	1.755668	0.763084	1.330982
H169	H	1.083298	0.307194	0.123832
H170	H	1.416632	0.640528	0.457165
H171	H	1.749965	0.973861	0.790498
H172	H	1.185735	0.521169	-0.094792
H173	H	1.519068	0.854502	0.238542
H174	H	1.852401	1.187835	0.571875
F175	F	1.091894	0.745040	0.140964
F176	F	1.425228	1.078373	0.474297
F177	F	1.758561	1.411706	0.807631
H178	H	0.989676	0.540215	0.094898
H179	H	1.323010	0.873549	0.428232
H180	H	1.656343	1.206882	0.761565
H181	H	1.094642	0.885539	0.123921
H182	H	1.427975	1.218873	0.457255
H183	H	1.761308	1.552206	0.790588
F184	F	1.094847	0.894696	-0.140765
F185	F	1.428180	1.228030	0.192568
F186	F	1.761513	1.561363	0.525902
F187	F	1.204095	0.183573	0.824401
F188	F	1.537428	0.516906	1.157734
F189	F	1.870762	0.850240	1.491068
H190	H	0.987847	0.019801	0.328543
H191	H	1.321180	0.353134	0.661876
H192	H	1.654514	0.686468	0.995210
H193	H	1.190083	0.173018	0.185512
H194	H	1.523416	0.506351	0.518845
H195	H	1.856750	0.839685	0.852178
H196	H	1.190099	0.173017	0.328466
H197	H	1.523432	0.506350	0.661800
H198	H	1.856765	0.839684	0.995133
F199	F	1.086055	0.447681	0.140914
F200	F	1.419388	0.781015	0.474248
F201	F	1.752722	1.114348	0.807581
H202	H	1.083317	0.307282	-0.123797
H203	H	1.416651	0.640616	0.209537
H204	H	1.749984	0.973949	0.542870
F205	F	0.978923	0.682023	0.107989
F206	F	1.312256	1.015356	0.441322
F207	F	1.645590	1.348690	0.774655
H208	H	0.987834	0.019789	0.185580
H209	H	1.321168	0.353122	0.518914
H210	H	1.654501	0.686456	0.852247
F211	F	1.086098	0.447783	-0.140832
F212	F	1.419432	0.781116	0.192502
F213	F	1.752765	1.114450	0.525835
F214	F	1.091937	0.745142	-0.140788
F215	F	1.425270	1.078475	0.192546
F216	F	1.758603	1.411808	0.525879
F217	F	1.202013	0.660345	-0.107832
F218	F	1.535346	0.993678	0.225501
F219	F	1.868679	1.327011	0.558835
H220	H	1.239826	0.100145	0.428569
H221	H	1.573159	0.433478	0.761902
H222	H	1.906492	0.766811	1.095236
H223	H	1.239838	0.100146	0.571530
H224	H	1.573172	0.433479	0.904864
H225	H	1.906505	0.766812	1.238197
H226	H	1.190131	0.173026	0.671598
H227	H	1.523464	0.506359	1.004931
H228	H	1.856797	0.839692	1.338265
F229	F	0.973961	0.009242	0.824484
F230	F	1.307294	0.342576	1.157818
F231	F	1.640627	0.675909	1.491151
F232	F	0.973928	0.009254	0.661823
F233	F	1.307261	0.342587	0.995156
F234	F	1.640595	0.675920	1.328489
F235	F	0.917355	0.092177	0.581416
F236	F	1.250688	0.425510	0.914749
F237	F	1.584021	0.758844	1.248082
H238	H	0.938126	0.092689	0.428608
H239	H	1.271459	0.426022	0.761942
H240	H	1.604793	0.759356	1.095275
