data_functionalizedCrystal
_audit_creation_method	'MofGen! by Chris Wilmer'
_symmetry_space_group_name_H-M	'P1'
_symmetry_Int_Tables_number	1
_symmetry_cell_setting	triclinic
loop_
_symmetry_equiv_pos_as_xyz
  x,y,z
_cell_length_a	6.817900
_cell_length_b	15.866870
_cell_length_c	10.943624
_cell_angle_alpha	110.425160
_cell_angle_beta	108.838799
_cell_angle_gamma	102.655915
loop_
_atom_site_label
_atom_site_type_symbol
_atom_site_fract_x
_atom_site_fract_y
_atom_site_fract_z
V1	V	-4.123267	-0.132606	-0.465660
O2	O	-4.072829	0.006398	-0.391843
O3	O	-4.108858	-0.262961	-0.524945
O4	O	-4.101110	-0.130555	-0.640251
O5	O	-4.080631	-0.126924	-0.275739
V6	V	-4.599090	-0.115981	-0.435356
O7	O	-4.401416	-0.169075	-0.532137
O8	O	-4.771139	-0.079512	-0.368879
O9	O	-4.390293	0.014373	-0.376071
O10	O	-4.766925	-0.254985	-0.509173
O11	O	-4.759124	-0.121663	-0.625277
O12	O	-4.398041	-0.118032	-0.260765
C13	C	-3.961278	-0.294739	-0.533718
C14	C	-4.030959	-0.401305	-0.583354
C15	C	-3.951393	-0.125841	-0.680800
C16	C	-4.014785	-0.125027	-0.823939
C17	C	-3.950655	-0.683418	-0.122938
C18	C	-4.016146	-0.783558	-0.169621
C19	C	-4.139936	-0.810895	-0.419093
C20	C	-4.074444	-0.710755	-0.372429
C21	C	-3.979808	-0.647024	-0.224350
C22	C	-4.103597	-0.674361	-0.473842
C23	C	-4.038121	-0.574230	-0.427182
C24	C	-3.943492	-0.510493	-0.279110
C25	C	-3.914333	-0.546893	-0.177691
C26	C	-4.198248	-0.738094	-0.621921
C27	C	-4.227401	-0.701700	-0.723333
C28	C	-4.161910	-0.601567	-0.676673
C29	C	-4.067281	-0.537830	-0.528601
C30	C	-4.191070	-0.565167	-0.778093
C31	C	-4.125594	-0.465036	-0.731433
C32	C	-4.001805	-0.437699	-0.481941
C33	C	-3.859294	-0.119542	-0.898476
C34	C	-4.053424	-0.200952	-1.043210
C35	C	-3.933636	-0.042175	-0.934259
C36	C	-4.208130	-0.206513	-0.966833
C37	C	-4.088258	-0.047664	-0.857824
C38	C	-4.282526	-0.129097	-1.002539
C39	C	-4.201216	0.046146	-0.367297
C40	C	-4.110775	0.152712	-0.317670
C41	C	-4.211100	-0.122749	-0.220211
C42	C	-4.126945	-0.123559	-0.077068
H43	H	-3.924711	-0.385804	-0.361359
H44	H	-4.251560	-0.819627	-0.659906
H45	H	-4.268149	-0.617072	-0.898660
H46	H	-4.304468	-0.753604	-0.843900
H47	H	-4.149366	-0.435405	-0.814015
O48	O	-4.346177	-0.289403	-0.981843
C49	C	-4.724704	-0.388621	-1.053359
C50	C	-4.568631	-0.294706	-1.036404
H51	H	-4.904596	-0.392949	-1.097502
H52	H	-4.675028	-0.388616	-0.943391
H53	H	-4.710031	-0.453867	-1.131838
H54	H	-4.583224	-0.229409	-0.957984
H55	H	-4.618351	-0.294796	-1.146429
H56	H	-3.992393	-0.813184	-0.087027
H57	H	-3.679863	-0.115611	-0.853157
O58	O	-3.795618	0.040668	-0.919387
C59	C	-3.417417	0.139254	-0.849645
C60	C	-3.573478	0.045418	-0.866389
H61	H	-3.237791	0.143115	-0.806825
H62	H	-3.430383	0.204660	-0.770294
H63	H	-3.468587	0.139422	-0.959535
H64	H	-3.522412	0.045155	-0.756570
H65	H	-3.560491	-0.019946	-0.945810
O66	O	-4.037069	-0.278338	-1.138540
C67	C	-4.229073	-0.424398	-1.365490
C68	C	-4.247941	-0.336823	-1.257649
H69	H	-4.399528	-0.471696	-1.461829
H70	H	-4.169374	-0.468675	-1.309479
H71	H	-4.104282	-0.397611	-1.405041
H72	H	-4.372754	-0.363525	-1.218061
H73	H	-4.307534	-0.292563	-1.313725
H74	H	-4.462079	-0.133156	-1.047716
O75	O	-4.104553	0.029684	-0.762392
C76	C	-3.913147	0.174833	-0.534235
C77	C	-3.894435	0.087258	-0.642182
H78	H	-3.743280	0.221416	-0.437035
H79	H	-4.040158	0.148132	-0.496093
H80	H	-3.969844	0.219822	-0.589726
H81	H	-3.837671	0.042232	-0.586790
H82	H	-3.767485	0.114024	-0.680320
H83	H	-3.890189	-0.428961	-0.241122
H84	H	-4.217003	-0.862798	-0.539660
O85	O	-3.822779	-0.485020	-0.033849
C86	C	-3.872160	-0.435679	0.185342
C87	C	-3.976111	-0.505798	0.022458
H88	H	-3.996063	-0.452467	0.230922
H89	H	-3.830479	-0.357850	0.201329
H90	H	-3.712890	-0.444854	0.244386
H91	H	-4.135443	-0.496710	-0.036691
H92	H	-4.017629	-0.583601	0.006579
O93	O	-3.858865	-0.621639	0.020957
C94	C	-3.742902	-0.605076	0.263506
C95	C	-3.846902	-0.675148	0.100599
H96	H	-3.733152	-0.648309	0.327945
H97	H	-3.850749	-0.561290	0.284914
H98	H	-3.567646	-0.553738	0.298265
H99	H	-4.022141	-0.726545	0.065728
H100	H	-3.738892	-0.718864	0.079282
