data_functionalizedCrystal
_audit_creation_method	'MofGen! by Chris Wilmer'
_symmetry_space_group_name_H-M	'P1'
_symmetry_Int_Tables_number	1
_symmetry_cell_setting	triclinic
loop_
_symmetry_equiv_pos_as_xyz
  x,y,z
_cell_length_a	10.540558
_cell_length_b	9.730217
_cell_length_c	10.654541
_cell_angle_alpha	90.004361
_cell_angle_beta	95.491468
_cell_angle_gamma	90.000613
loop_
_atom_site_label
_atom_site_type_symbol
_atom_site_fract_x
_atom_site_fract_y
_atom_site_fract_z
O1	O	-1.685801	0.114249	0.177105
O2	O	-1.316385	0.114260	0.193756
O3	O	-1.509588	0.114246	0.002694
O4	O	-1.492598	0.114263	0.368166
O5	O	-1.509586	-0.114334	0.002688
O6	O	-1.316382	-0.114320	0.193749
O7	O	-1.685798	-0.114331	0.177098
Zn8	Zn	-1.501090	-0.150618	0.185422
Zn9	Zn	-1.501094	0.150546	0.185431
O10	O	-1.492595	-0.114317	0.368159
C11	C	-1.269082	-0.000028	0.192499
C12	C	-1.128136	-0.000024	0.188748
N13	N	-1.501097	-0.356154	0.185416
C14	C	-1.508340	-0.000043	-0.044108
C15	C	-1.504610	-0.000041	-0.183553
C16	C	-0.944764	-0.000567	0.045364
C17	C	-1.091379	-0.000036	0.049167
C18	C	-1.066441	0.130504	0.255919
C19	C	-0.919899	0.130596	0.251146
C20	C	-0.919407	-0.129342	0.253977
C21	C	-1.066387	-0.131051	0.255273
C22	C	-0.733104	-0.000043	0.178338
C23	C	-0.874056	-0.000049	0.182039
N24	N	-1.501097	0.356083	0.185429
C25	C	-1.672520	0.356061	0.016562
C26	C	-1.758226	0.427990	-0.067881
C27	C	-1.758226	0.571870	-0.067895
C28	C	-1.672511	0.643824	0.016545
C29	C	-1.586804	0.571895	0.100987
C30	C	-1.586812	0.428012	0.100990
C31	C	-1.415390	0.571917	0.269858
C32	C	-1.415382	0.428037	0.269868
C33	C	-1.329675	0.643871	0.354298
C34	C	-1.243960	0.571942	0.438736
C35	C	-1.243964	0.428054	0.438746
C36	C	-1.329676	0.356108	0.354311
C37	C	-1.735637	-0.000066	-0.211427
C38	C	-1.849392	-0.000081	-0.290874
C39	C	-1.845879	-0.000076	-0.421893
C40	C	-1.728598	-0.000053	-0.473467
C41	C	-1.614842	-0.000038	-0.394021
C42	C	-1.618368	-0.000046	-0.263000
C43	C	-1.383818	-0.000003	-0.366147
C44	C	-1.387328	-0.000017	-0.235127
C45	C	-1.266537	0.000020	-0.417721
C46	C	-1.152779	0.000026	-0.338274
C47	C	-1.156297	0.000020	-0.207247
C48	C	-1.273573	-0.000002	-0.155680
C49	C	-1.493843	-0.000025	0.414961
C50	C	-1.497574	-0.000018	0.554407
H51	H	-1.134011	-0.093604	-0.003686
C52	C	-1.739506	-0.000075	-0.067310
H53	H	-1.825642	-0.000083	-0.047973
H54	H	-1.697626	-0.079777	-0.032529
H55	H	-1.697654	0.079655	-0.032520
H56	H	-1.828017	0.369392	-0.136629
C57	C	-1.978392	-0.000112	-0.234140
H58	H	-1.964198	-0.000126	-0.144731
H59	H	-2.025291	0.079590	-0.261330
H60	H	-2.025262	-0.079842	-0.261347
H61	H	-1.329684	0.761026	0.354288
H62	H	-1.133145	0.093691	-0.004053
H63	H	-1.938509	-0.000078	-0.486580
H64	H	-1.672526	0.760978	0.016538
H65	H	-1.090575	-0.138926	0.357036
H66	H	-0.887876	-0.228282	0.208801
C67	C	-1.262671	0.000021	-0.561838
H68	H	-1.347215	-0.000006	-0.601770
H69	H	-1.219222	0.079737	-0.586330
H70	H	-1.219204	-0.079695	-0.586328
H71	H	-0.891709	0.228163	0.201501
H72	H	-1.725748	-0.000032	-0.580152
C73	C	-1.672509	0.197798	0.016569
H74	H	-1.609184	0.165265	0.078946
H75	H	-1.753744	0.165243	0.034679
H76	H	-1.654569	0.165246	-0.063920
H77	H	-1.107366	-0.227615	0.206202
C78	C	-1.277448	-0.000000	-0.011564
H79	H	-1.363585	-0.000003	0.007768
H80	H	-1.235571	-0.079699	0.023227
H81	H	-1.235597	0.079733	0.023221
C82	C	-1.149662	0.348943	0.531613
H83	H	-1.098608	0.412407	0.581882
H84	H	-1.195655	0.292807	0.584436
H85	H	-1.096518	0.292825	0.485799
C86	C	-1.023788	0.000050	-0.395007
H87	H	-1.037989	0.000050	-0.484415
H88	H	-0.976903	0.079761	-0.367798
H89	H	-0.976899	-0.079671	-0.367826
C90	C	-0.855561	-0.130542	0.390165
H91	H	-0.883344	-0.208895	0.433160
H92	H	-0.765627	-0.133905	0.388877
H93	H	-0.878345	-0.049561	0.432481
H94	H	-1.828020	0.630434	-0.136651
H95	H	-1.063662	0.000038	-0.142568
C96	C	-1.149688	0.651091	0.531607
H97	H	-1.161963	0.747082	0.519504
H98	H	-1.164045	0.627522	0.615604
H99	H	-1.064886	0.627517	0.516989
H100	H	-0.916198	-0.094177	-0.009782
C101	C	-0.855041	0.138642	0.386741
H102	H	-0.918287	0.141848	0.444496
H103	H	-0.802862	0.059937	0.403605
H104	H	-0.803979	0.219139	0.395777
C105	C	-0.903992	0.125169	-0.028824
H106	H	-0.947149	0.124064	-0.111291
H107	H	-0.925065	0.206912	0.013293
H108	H	-0.814601	0.122086	-0.034260
H109	H	-1.329681	0.238954	0.354307
H110	H	-1.088756	0.135365	0.358424
H111	H	-1.109047	0.227642	0.209264
