data_functionalizedCrystal
_audit_creation_method	'MofGen! by Chris Wilmer'
_symmetry_space_group_name_H-M	'P1'
_symmetry_Int_Tables_number	1
_symmetry_cell_setting	triclinic
loop_
_symmetry_equiv_pos_as_xyz
  x,y,z
_cell_length_a	18.760492
_cell_length_b	27.440280
_cell_length_c	27.440280
_cell_angle_alpha	90.005633
_cell_angle_beta	60.003698
_cell_angle_gamma	59.997169
loop_
_atom_site_label
_atom_site_type_symbol
_atom_site_fract_x
_atom_site_fract_y
_atom_site_fract_z
Zr1	Zr	0.780161	0.469484	-0.063911
O2	O	0.928874	0.391664	-0.141734
O3	O	0.631449	0.493343	-0.040051
O4	O	0.780144	0.493342	-0.141717
O5	O	0.780193	0.391662	0.040126
O6	O	0.780130	0.573545	-0.141707
O7	O	0.780179	0.391664	-0.040067
O8	O	0.514142	0.573546	0.040155
O9	O	1.046181	0.391661	-0.141737
O10	O	0.692606	0.563370	-0.029871
O11	O	0.692627	0.503514	0.029969
O12	O	0.867696	0.503513	-0.089730
O13	O	0.867717	0.443656	-0.029890
Zr14	Zr	0.780161	0.597395	0.064005
Zr15	Zr	0.780139	0.597398	-0.063895
Zr16	Zr	0.780183	0.469481	0.063989
Zr17	Zr	0.967252	0.469480	-0.063915
Zr18	Zr	0.593070	0.597399	0.064009
O19	O	0.928874	0.573536	0.040145
O20	O	0.928843	0.573541	-0.141711
O21	O	0.928905	0.391659	0.040122
O22	O	0.631449	0.675215	0.141828
O23	O	0.631418	0.675220	-0.040028
O24	O	0.631480	0.493338	0.141805
O25	O	0.780130	0.675217	-0.040032
O26	O	0.780179	0.573537	0.141812
O27	O	0.780193	0.493334	0.141801
O28	O	0.780144	0.675214	0.040161
O29	O	1.046163	0.493335	-0.141724
O30	O	0.514159	0.573543	0.141818
O31	O	0.514142	0.675218	0.141831
O32	O	0.514124	0.675221	0.040168
O33	O	1.046198	0.391658	-0.040074
O34	O	1.046181	0.493333	-0.040061
O35	O	0.692627	0.563366	0.089824
O36	O	0.692606	0.623222	0.029984
O37	O	0.867696	0.563365	-0.029875
O38	O	0.867717	0.503509	0.029965
C39	C	0.546139	0.533445	0.000053
C40	C	0.466714	0.533447	0.000055
C41	C	0.130930	0.502187	0.031278
C42	C	0.130913	0.564678	-0.031196
C43	C	0.205528	0.564683	-0.031193
C44	C	0.242849	0.533438	0.000046
C45	C	0.205554	0.502190	0.031281
C46	C	0.242836	0.595926	-0.062432
C47	C	0.317457	0.595931	-0.062431
C48	C	0.354774	0.564690	-0.031188
C49	C	0.317474	0.533440	0.000049
C50	C	0.354794	0.502196	0.031287
C51	C	0.317490	0.470950	0.062528
C52	C	0.242871	0.470948	0.062523
C53	C	0.429393	0.564691	-0.031184
C54	C	0.429419	0.502198	0.031290
C55	C	0.780189	0.373438	0.000027
C56	C	0.780198	0.319135	0.000020
C57	C	0.688750	0.013682	0.031309
C58	C	0.688744	-0.037336	0.031315
O59	O	0.611016	-0.037151	0.057906
N60	N	0.780138	-0.094098	0.000068
C61	C	0.871544	-0.099840	-0.031181
O62	O	0.949281	-0.152805	-0.057757
C63	C	0.871548	-0.048822	-0.031182
C64	C	0.780148	0.007939	0.000061
C65	C	0.597357	0.070441	0.062551
C66	C	0.597363	0.121456	0.062545
C67	C	0.688762	0.115712	0.031297
C68	C	0.780154	0.058954	0.000055
C69	C	0.962953	-0.054565	-0.062427
C70	C	0.962949	-0.003541	-0.062426
C71	C	0.871549	0.053220	-0.031182
C72	C	0.871559	0.104225	-0.031199
N73	N	0.780165	0.160986	0.000047
C74	C	0.688766	0.166730	0.031295
C75	C	0.871527	-0.206979	-0.031174
C76	C	0.871524	-0.257996	-0.031177
C77	C	0.688724	-0.195488	0.031320
C78	C	0.688728	-0.144470	0.031318
C79	C	0.780133	-0.150217	0.000072
C80	C	0.688785	0.273862	0.031279
C81	C	0.688800	0.324879	0.031268
C82	C	0.871599	0.262367	-0.031226
C83	C	0.871585	0.211355	-0.031217
C84	C	0.780171	0.217107	0.000040
O85	O	0.949247	0.104086	-0.057775
O86	O	0.611042	0.219696	0.057874
C87	C	1.014184	0.533434	0.000041
C88	C	1.093609	0.533432	0.000039
C89	C	0.780134	0.533444	-0.159935
C90	C	0.780124	0.533445	-0.214232
C91	C	0.780134	0.693441	0.000067
C92	C	0.780125	0.747743	0.000074
C93	C	0.688750	0.564697	-0.417694
C94	C	0.688744	0.564699	-0.366672
O95	O	0.611016	0.591288	-0.313710
N96	N	0.780138	0.533451	-0.372400
C97	C	0.871544	0.502205	-0.429156
O98	O	0.949281	0.475627	-0.429343
C99	C	0.871548	0.502207	-0.480177
C100	C	0.780148	0.533452	-0.474443
C101	C	0.597357	0.595940	-0.411963
C102	C	0.597363	0.595938	-0.462982
C103	C	0.688762	0.564692	-0.519732
C104	C	0.780154	0.533449	-0.525462
C105	C	0.962953	0.470965	-0.536931
C106	C	0.962949	0.470970	-0.587953
C107	C	0.871549	0.502215	-0.582219
C108	C	0.871559	0.502201	-0.633231
N109	N	0.780165	0.533449	-0.627502
C110	C	0.688766	0.564695	-0.570753
C111	C	0.871527	0.502203	-0.322006
C112	C	0.871524	0.502197	-0.270986
C113	C	0.688724	0.564692	-0.208505
C114	C	0.688728	0.564694	-0.259526
C115	C	0.780133	0.533451	-0.316277
C116	C	0.688786	0.564686	-0.677898
C117	C	0.688800	0.564679	-0.728925
C118	C	0.871599	0.502187	-0.791401
C119	C	0.871586	0.502191	-0.740379
C120	C	0.780171	0.533446	-0.683626
O121	O	0.949247	0.475628	-0.686211
O122	O	0.611042	0.591274	-0.570576
C123	C	0.780189	0.533435	0.160029
C124	C	0.780198	0.533434	0.214326
C125	C	0.546111	0.693446	0.000073
C126	C	0.466677	0.747751	0.000082
C127	C	0.546166	0.533441	0.160035
C128	C	0.466751	0.533441	0.214334
C129	C	0.546139	0.693442	0.160055
C130	C	0.466714	0.747745	0.214361
C131	C	1.014184	0.373437	-0.159961
C132	C	1.093609	0.319134	-0.214267
C133	C	1.014211	0.373433	0.000021
C134	C	1.093646	0.319128	0.000012
C135	C	1.014156	0.533438	-0.159941
C136	C	1.093572	0.533438	-0.214240
C137	C	0.429374	0.742011	-0.031163
C138	C	0.354747	0.793031	-0.031167
C139	C	0.317420	0.849791	0.000078
C140	C	0.354730	0.855530	0.031324
C141	C	0.429361	0.804511	0.031324
C142	C	0.429456	0.564684	0.271082
C143	C	0.354847	0.564682	0.322106
C144	C	0.317529	0.533441	0.316381
C145	C	0.354831	0.502194	0.259627
C146	C	0.429443	0.502193	0.208604
C147	C	0.429404	0.804496	0.208627
C148	C	0.354786	0.855525	0.259648
C149	C	0.317474	0.849801	0.316402
C150	C	0.354791	0.793044	0.322134
C151	C	0.429413	0.742017	0.271114
C152	C	1.130927	0.262383	-0.208533
C153	C	1.205569	0.211354	-0.259554
C154	C	1.242884	0.217078	-0.316308
C155	C	1.205563	0.273835	-0.322040
C156	C	1.130928	0.324862	-0.271020
C157	C	1.130957	0.324868	0.031252
C158	C	1.205604	0.273848	0.031241
C159	C	1.242934	0.217088	-0.000005
C160	C	1.205620	0.211348	-0.031249
C161	C	1.130979	0.262368	-0.031242
C162	C	1.130867	0.564685	-0.208495
C163	C	1.205476	0.564696	-0.259510
C164	C	1.242795	0.533456	-0.316268
C165	C	1.205493	0.502208	-0.322011
C166	C	1.130880	0.502200	-0.270997
H167	H	0.212491	0.445510	0.087958
H168	H	0.324328	0.901751	0.056763
H169	H	0.324378	0.788346	-0.056611
H170	H	0.347824	0.621374	-0.087868
C171	C	1.089874	0.387287	-0.277337
N172	N	1.058954	0.434305	-0.282099
C173	C	0.089860	0.599044	-0.065558
N174	N	0.058933	0.624930	-0.091439
H175	H	1.303550	0.533467	-0.357802
H176	H	0.459799	0.476756	0.056730
H177	H	1.303711	0.175549	-0.000007
H178	H	1.236025	0.165128	-0.056689
H179	H	0.256650	0.891330	0.000074
H180	H	0.614302	0.590137	-0.254852
C181	C	0.588248	0.599052	-0.722611
N182	N	0.512515	0.624943	-0.717855
C183	C	1.089900	0.256072	-0.146109
N184	N	1.059009	0.251314	-0.099092
H185	H	0.614347	0.590136	-0.631693
C186	C	0.470376	0.810835	0.065705
N187	N	0.501265	0.815603	0.091603
C188	C	0.470448	0.467829	0.146182
N189	N	0.501328	0.441945	0.099166
C190	C	0.313742	0.917952	0.253329
N191	N	0.282828	0.964971	0.248568
H192	H	1.100602	0.257686	-0.056679
H193	H	0.459833	0.590125	0.275755
H194	H	0.100551	0.476749	0.056715
C195	C	0.496802	0.076772	0.096923
N196	N	0.421058	0.081547	0.122809
C197	C	1.246500	0.599070	-0.253179
N198	N	1.277397	0.624960	-0.248408
C199	C	1.089913	0.387300	0.065625
N200	N	1.059008	0.434322	0.091513
C201	C	1.246519	0.467870	-0.384451
N202	N	1.277412	0.442014	-0.431482
H203	H	0.347891	0.445507	0.087959
H204	H	0.459765	0.695798	-0.056614
H205	H	0.324485	0.590129	0.368313
H206	H	1.235955	0.278488	-0.368255
H207	H	0.212452	0.621361	-0.087869
H208	H	1.100494	0.590125	-0.162284
H209	H	0.256774	0.533447	0.357932
H210	H	0.459767	0.590129	-0.056622
H211	H	0.324435	0.476758	0.254974
C212	C	1.063502	0.436598	-0.543252
N213	N	1.139242	0.410714	-0.548016
C214	C	0.235381	0.905939	0.372520
N215	N	0.173544	0.948225	0.414786
C216	C	0.588224	0.280198	0.065659
N217	N	0.512482	0.284971	0.091549
H218	H	1.235973	0.278532	0.056686
C219	C	0.313729	0.786758	0.384569
N220	N	0.282792	0.782025	0.431596
H221	H	1.235943	0.165145	-0.254875
C222	C	0.496815	0.183889	0.096921
N223	N	0.421076	0.230912	0.122818
C224	C	0.588182	-0.082036	0.065693
N225	N	0.512446	-0.035012	0.091587
H226	H	0.614367	0.371096	0.056712
C227	C	1.324977	0.160940	-0.372426
N228	N	1.386805	0.118654	-0.414692
H229	H	0.614302	-0.190819	0.056762
H230	H	0.459781	0.695810	0.275790
H231	H	0.945951	-0.304209	-0.056626
H232	H	1.037384	0.445528	-0.634161
H233	H	0.945965	-0.211666	-0.056622
H234	H	1.037381	-0.100774	-0.087869
H235	H	1.037384	-0.008227	-0.087863
H236	H	1.100523	0.476752	-0.275683
H237	H	0.946011	0.165137	-0.056666
C238	C	0.496815	0.630312	-0.456666
N239	N	0.421076	0.656207	-0.451904
H240	H	0.946013	0.257701	-0.056669
H241	H	0.459773	0.809168	0.162420
H242	H	0.614302	0.590134	-0.162289
C243	C	0.496802	0.630313	-0.349541
N244	N	0.421058	0.656200	-0.302526
H245	H	0.945951	0.476747	-0.275661
H246	H	0.945965	0.476755	-0.368214
H247	H	0.946014	0.476746	-0.837614
C248	C	0.972130	0.467816	-0.746686
N249	N	1.047861	0.441929	-0.751441
