data_functionalizedCrystal
_audit_creation_method	'MofGen! by Chris Wilmer'
_symmetry_space_group_name_H-M	'P1'
_symmetry_Int_Tables_number	1
_symmetry_cell_setting	triclinic
loop_
_symmetry_equiv_pos_as_xyz
  x,y,z
_cell_length_a	29.839131
_cell_length_b	19.805407
_cell_length_c	19.805398
_cell_angle_alpha	90.018017
_cell_angle_beta	89.972098
_cell_angle_gamma	89.957352
loop_
_atom_site_label
_atom_site_type_symbol
_atom_site_fract_x
_atom_site_fract_y
_atom_site_fract_z
Zn1	Zn	-0.178856	-1.034640	-0.382749
Zn2	Zn	0.321144	-0.534640	0.117251
Zn3	Zn	-0.253982	-1.034533	-0.269557
Zn4	Zn	0.246018	-0.534533	0.230443
Zn5	Zn	-0.178868	-0.921462	-0.269569
Zn6	Zn	0.321132	-0.421462	0.230431
Zn7	Zn	-0.253962	-0.921389	-0.382699
Zn8	Zn	0.246038	-0.421389	0.117301
O9	O	-0.216417	-0.978006	-0.326144
O10	O	0.283583	-0.478006	0.173856
O11	O	-0.188825	-1.129343	-0.367750
O12	O	0.311175	-0.629343	0.132250
O13	O	-0.244031	-1.019520	-0.174842
O14	O	0.255969	-0.519520	0.325158
O15	O	-0.116000	-0.936551	-0.284609
O16	O	0.384000	-0.436551	0.215391
O17	O	-0.244020	-1.129264	-0.284588
O18	O	0.255980	-0.629264	0.215412
O19	O	-0.115991	-1.019703	-0.367762
O20	O	0.384009	-0.519703	0.132238
O21	O	-0.188846	-0.936447	-0.174851
O22	O	0.311154	-0.436447	0.325149
O23	O	-0.188826	-0.826736	-0.284561
O24	O	0.311174	-0.326736	0.215439
O25	O	-0.243985	-0.936426	-0.477423
O26	O	0.256015	-0.436426	0.022577
O27	O	-0.243997	-0.826682	-0.367677
O28	O	0.256003	-0.326682	0.132323
O29	O	-0.188806	-1.019632	-0.477459
O30	O	0.311194	-0.519632	0.022541
O31	O	-0.316846	-1.019448	-0.284540
O32	O	0.183154	-0.519448	0.215460
O33	O	-0.316832	-0.936322	-0.367665
O34	O	0.183168	-0.436322	0.132335
C35	C	-0.216411	-0.802150	-0.326115
C36	C	0.283589	-0.302150	0.173885
C37	C	-0.216419	-0.726918	-0.326119
C38	C	0.283581	-0.226918	0.173881
C39	C	-0.187725	-0.265172	-0.369522
C40	C	0.312275	0.234828	0.130478
C41	C	-0.187727	-0.335860	-0.369519
C42	C	0.312273	0.164140	0.130481
C43	C	-0.216419	-0.371156	-0.326152
C44	C	0.283581	0.128844	0.173848
C45	C	-0.245115	-0.335761	-0.282790
C46	C	0.254885	0.164239	0.217210
C47	C	-0.245115	-0.265073	-0.282797
C48	C	0.254885	0.234927	0.217203
C49	C	-0.245114	-0.620834	-0.282760
C50	C	0.254886	-0.120834	0.217240
C51	C	-0.245110	-0.691526	-0.282755
C52	C	0.254890	-0.191526	0.217245
C53	C	-0.187725	-0.691620	-0.369483
C54	C	0.312275	-0.191620	0.130517
C55	C	-0.187726	-0.620933	-0.369490
C56	C	0.312274	-0.120933	0.130510
C57	C	-0.216423	-0.585544	-0.326131
C58	C	0.283577	-0.085544	0.173869
C59	C	-0.216422	-0.508895	-0.326135
C60	C	0.283578	-0.008895	0.173865
C61	C	-0.216418	-0.447803	-0.326143
C62	C	0.283582	0.052197	0.173857
C63	C	-0.333140	-0.977884	-0.326110
C64	C	0.166860	-0.477884	0.173890
C65	C	-0.383074	-0.977893	-0.326118
C66	C	0.116926	-0.477893	0.173882
C67	C	-0.692712	-1.021369	-0.282924
C68	C	-0.192712	-0.521369	0.217076
C69	C	-0.880385	-1.021452	-0.282950
C70	C	-0.380385	-0.521452	0.217050
O71	O	-0.904646	-1.058319	-0.246198
O72	O	-0.404646	-0.558319	0.253802
N73	N	-0.903859	-0.978146	-0.326195
N74	N	-0.403859	-0.478146	0.173805
C75	C	-0.880412	-0.934820	-0.369439
C76	C	-0.380412	-0.434820	0.130561
O77	O	-0.904683	-0.897992	-0.406227
O78	O	-0.404683	-0.397992	0.093773
C79	C	-0.692739	-0.934740	-0.369416
C80	C	-0.192739	-0.434740	0.130584
C81	C	-0.669268	-0.978044	-0.326163
C82	C	-0.169268	-0.478044	0.173837
C83	C	-0.669241	-1.064669	-0.239675
C84	C	-0.169241	-0.564669	0.260325
C85	C	-0.622326	-1.064646	-0.239666
C86	C	-0.122326	-0.564646	0.260334
C87	C	-0.598882	-1.021321	-0.282906
C88	C	-0.098882	-0.521321	0.217094
C89	C	-0.622353	-0.978020	-0.326155
C90	C	-0.122353	-0.478020	0.173845
C91	C	-0.669293	-0.891417	-0.412663
C92	C	-0.169293	-0.391417	0.087337
C93	C	-0.622372	-0.891403	-0.412655
C94	C	-0.122372	-0.391403	0.087345
C95	C	-0.598900	-0.934706	-0.369402
C96	C	-0.098900	-0.434706	0.130598
C97	C	-0.551993	-0.934671	-0.369386
C98	C	-0.051993	-0.434671	0.130614
N99	N	-0.528519	-0.977977	-0.326141
N100	N	-0.028519	-0.477977	0.173859
C101	C	-0.551964	-1.021302	-0.282901
C102	C	-0.051964	-0.521302	0.217099
C103	C	-0.978942	-0.934864	-0.369448
C104	C	-0.478942	-0.434864	0.130552
C105	C	-1.025860	-0.934883	-0.369453
C106	C	-0.525860	-0.434883	0.130547
C107	C	-1.025831	-1.021516	-0.282964
C108	C	-0.525831	-0.521516	0.217036
C109	C	-0.978912	-1.021493	-0.282956
C110	C	-0.478912	-0.521493	0.217044
C111	C	-0.955469	-0.978170	-0.326203
C112	C	-0.455469	-0.478170	0.173797
C113	C	-0.453438	-1.021248	-0.282886
C114	C	0.046562	-0.521248	0.217114
C115	C	-0.406518	-1.021218	-0.282879
C116	C	0.093482	-0.521218	0.217121
C117	C	-0.406552	-0.934588	-0.369370
C118	C	0.093448	-0.434588	0.130630
C119	C	-0.453467	-0.934614	-0.369374
C120	C	0.046533	-0.434614	0.130626
C121	C	-0.476909	-0.977950	-0.326130
C122	C	0.023091	-0.477950	0.173870
O123	O	-0.527704	-0.897829	-0.406123
O124	O	-0.027704	-0.397829	0.093877
O125	O	-0.527684	-1.058134	-0.246129
O126	O	-0.027684	-0.558134	0.253871
C127	C	-0.739628	-1.021393	-0.282932
C128	C	-0.239628	-0.521393	0.217068
C129	C	-0.763099	-0.978092	-0.326181
C130	C	-0.263099	-0.478092	0.173819
C131	C	-0.739655	-0.934767	-0.369421
C132	C	-0.239655	-0.434767	0.130579
C133	C	-0.810017	-0.978111	-0.326186
C134	C	-0.310017	-0.478111	0.173814
C135	C	-0.833461	-1.021435	-0.282946
C136	C	-0.333461	-0.521435	0.217054
C137	C	-0.809988	-1.064741	-0.239701
C138	C	-0.309988	-0.564741	0.260299
C139	C	-0.763072	-1.064717	-0.239693
C140	C	-0.263072	-0.564717	0.260307
C141	C	-0.763128	-0.891461	-0.412666
C142	C	-0.263128	-0.391461	0.087334
C143	C	-0.810044	-0.891488	-0.412670
C144	C	-0.310044	-0.391488	0.087330
C145	C	-0.833488	-0.934813	-0.369430
C146	C	-0.333488	-0.434813	0.130570
C147	C	-0.099239	-0.978147	-0.326192
C148	C	0.400761	-0.478147	0.173808
C149	C	-0.049304	-0.978207	-0.326213
C150	C	0.450696	-0.478207	0.173787
C151	C	-0.216392	-0.978033	-0.502687
C152	C	0.283608	-0.478033	-0.002687
C153	C	-0.216382	-0.978044	-0.577919
C154	C	0.283618	-0.478044	-0.077919
C155	C	-0.216421	-0.154549	-0.326167
C156	C	0.283579	0.345451	0.173833
C157	C	-0.216418	-0.229781	-0.326162
C158	C	0.283582	0.270219	0.173838
C159	C	-0.187570	-1.021451	-1.039730
C160	C	0.312430	-0.521451	-0.539730
C161	C	-0.187584	-1.021440	-0.969041
C162	C	0.312416	-0.521440	-0.469041
C163	C	-0.216319	-0.978113	-0.933681
C164	C	0.283681	-0.478113	-0.433681
C165	C	-0.245046	-0.934799	-0.969012
C166	C	0.254954	-0.434799	-0.469012
C167	C	-0.245034	-0.934814	-1.039699
C168	C	0.254966	-0.434814	-0.539699
C169	C	-0.245094	-0.934741	-0.683938
C170	C	0.254906	-0.434741	-0.183938
C171	C	-0.245103	-0.934728	-0.613246
C172	C	0.254897	-0.434728	-0.113246
C173	C	-0.187644	-1.021367	-0.613281
C174	C	0.312356	-0.521367	-0.113281
C175	C	-0.187633	-1.021381	-0.683968
C176	C	0.312367	-0.521381	-0.183968
C177	C	-0.216361	-0.978070	-0.719293
C178	C	0.283639	-0.478070	-0.219293
C179	C	-0.216346	-0.978083	-0.795941
C180	C	0.283654	-0.478083	-0.295941
C181	C	-0.216332	-0.978097	-0.857033
C182	C	0.283668	-0.478097	-0.357033
C183	C	-0.216409	-0.978019	-0.150288
C184	C	0.283591	-0.478019	0.349712
C185	C	-0.216293	-0.978138	-0.075056
C186	C	0.283707	-0.478138	0.424944
H187	H	-0.268478	-0.364504	-0.247482
H188	H	0.231522	0.135496	0.252518
H189	H	-0.268444	-0.899525	-0.940215
H190	H	0.231556	-0.399525	-0.440215
H191	H	-0.268481	-0.236259	-0.247490
H192	H	0.231519	0.263741	0.252510
N193	N	-0.156773	-0.374042	-0.416268
N194	N	0.343227	0.125958	0.083732
H195	H	-0.175052	-0.403366	-0.447585
H196	H	0.324948	0.096634	0.052415
H197	H	-0.138595	-0.340921	-0.443694
H198	H	0.361405	0.159079	0.056306
H199	H	-0.164195	-1.056711	-0.940282
H200	H	0.335805	-0.556711	-0.440282
H201	H	-1.044927	-1.056793	-0.247757
H202	H	-0.544927	-0.556793	0.252243
N203	N	-0.156773	-0.582864	-0.416255
N204	N	0.343227	-0.082864	0.083745
H205	H	-0.138595	-0.616011	-0.443723
H206	H	0.361405	-0.116011	0.056277
H207	H	-0.175085	-0.553524	-0.447532
H208	H	0.324915	-0.053524	0.052468
H209	H	-0.164359	-0.720443	-0.404790
H210	H	0.335641	-0.220443	0.095210
N211	N	-0.156774	-0.227104	-0.416291
N212	N	0.343226	0.272896	0.083709
H213	H	-0.138598	-0.260254	-0.443758
H214	H	0.361402	0.239746	0.056242
H215	H	-0.175087	-0.197766	-0.447568
H216	H	0.324913	0.302234	0.052432
N217	N	-0.737849	-0.844723	-0.459302
N218	N	-0.237849	-0.344723	0.040698
H219	H	-0.718418	-0.813364	-0.431759
H220	H	-0.218418	-0.313364	0.068241
H221	H	-0.718375	-0.872238	-0.490689
H222	H	-0.218375	-0.372238	0.009311
N223	N	-0.276104	-0.888002	-0.575107
N224	N	0.223896	-0.388002	-0.075107
H225	H	-0.271750	-0.894566	-0.524967
H226	H	0.228250	-0.394566	-0.024967
H227	H	-0.269113	-0.839671	-0.587458
H228	H	0.230887	-0.339671	-0.087458
N229	N	-0.276057	-0.729598	-0.235977
N230	N	0.223943	-0.229598	0.264023
H231	H	-0.294238	-0.696453	-0.208511
H232	H	0.205762	-0.196453	0.291489
H233	H	-0.296868	-0.758918	-0.263471
H234	H	0.203132	-0.258918	0.236529
H235	H	-0.268480	-0.592028	-0.247453
H236	H	0.231520	-0.092028	0.252547
H237	H	-0.387410	-1.056481	-0.247655
H238	H	0.112590	-0.556481	0.252345
H239	H	-0.472519	-1.056538	-0.247674
H240	H	0.027481	-0.556538	0.252326
H241	H	-0.603218	-1.099909	-0.204449
H242	H	-0.103218	-0.599909	0.295551
H243	H	-0.688325	-1.099953	-0.204464
H244	H	-0.188325	-0.599953	0.295536
H245	H	-0.959804	-1.056755	-0.247737
H246	H	-0.459804	-0.556755	0.252263
N247	N	-0.381257	-0.887860	-0.416000
N248	N	0.118743	-0.387860	0.084000
H249	H	-0.361759	-0.915344	-0.447385
H250	H	0.138241	-0.415344	0.052615
H251	H	-0.403268	-0.860436	-0.443359
H252	H	0.096732	-0.360436	0.056641
N253	N	-1.051173	-0.888165	-0.416092
N254	N	-0.551173	-0.388165	0.083908
H255	H	-1.029197	-0.860719	-0.443481
H256	H	-0.529197	-0.360719	0.056519
H257	H	-1.070609	-0.915700	-0.447447
H258	H	-0.570609	-0.415700	0.052553
H259	H	-0.959858	-0.899583	-0.404665
H260	H	-0.459858	-0.399583	0.095335
H261	H	-0.688395	-0.856152	-0.447881
H262	H	-0.188395	-0.356152	0.052119
H263	H	-0.268424	-0.899545	-1.068461
H264	H	0.231576	-0.399545	-0.568461
H265	H	-0.268486	-0.899473	-0.712691
H266	H	0.231514	-0.399473	-0.212691
H267	H	-0.603286	-0.856124	-0.447874
H268	H	-0.103286	-0.356124	0.052126
H269	H	-0.472578	-0.899355	-0.404596
H270	H	0.027422	-0.399355	0.095404
H271	H	-0.743965	-1.099979	-0.204473
H272	H	-0.243965	-0.599979	0.295527
H273	H	-0.829084	-1.100016	-0.204492
H274	H	-0.329084	-0.600016	0.295508
H275	H	-0.164167	-1.056728	-1.068516
H276	H	0.335833	-0.556728	-0.568516
N277	N	-0.835357	-0.844772	-0.459318
N278	N	-0.335357	-0.344772	0.040682
H279	H	-0.813381	-0.817326	-0.486707
H280	H	-0.313381	-0.317326	0.013293
H281	H	-0.854790	-0.872312	-0.490674
H282	H	-0.354790	-0.372312	0.009326
H283	H	-0.164232	-1.056660	-0.712755
H284	H	0.335768	-0.556660	-0.212755
N285	N	-0.156667	-1.068097	-0.575181
N286	N	0.343333	-0.568097	-0.075181
H287	H	-0.161037	-1.061522	-0.525035
H288	H	0.338963	-0.561522	-0.025035
H289	H	-0.163665	-1.116426	-0.587549
H290	H	0.336335	-0.616426	-0.087549
