data_functionalizedCrystal
_audit_creation_method	'MofGen! by Chris Wilmer'
_symmetry_space_group_name_H-M	'P1'
_symmetry_Int_Tables_number	1
_symmetry_cell_setting	triclinic
loop_
_symmetry_equiv_pos_as_xyz
  x,y,z
_cell_length_a	16.625547
_cell_length_b	16.625545
_cell_length_c	19.077579
_cell_angle_alpha	87.676268
_cell_angle_beta	87.682431
_cell_angle_gamma	90.025495
loop_
_atom_site_label
_atom_site_type_symbol
_atom_site_fract_x
_atom_site_fract_y
_atom_site_fract_z
Zn1	Zn	1.250944	-0.302698	-0.398045
Zn2	Zn	1.245435	-0.442953	-0.280350
Zn3	Zn	1.110701	-0.308138	-0.280352
Zn4	Zn	1.116067	-0.437494	-0.398000
O5	O	1.180786	-0.372821	-0.339187
O6	O	1.363046	-0.321311	-0.382451
O7	O	1.223010	-0.429631	-0.181858
O8	O	1.129364	-0.194583	-0.295985
O9	O	1.358999	-0.424356	-0.295981
O10	O	1.232400	-0.190586	-0.382453
O11	O	1.124022	-0.330583	-0.181860
O12	O	0.998579	-0.325289	-0.295940
O13	O	1.138510	-0.415052	-0.496497
O14	O	1.002522	-0.420327	-0.382375
O15	O	1.237604	-0.316018	-0.496531
O16	O	1.228214	-0.555062	-0.295936
O17	O	1.133168	-0.551052	-0.382373
C18	C	0.971294	-0.372807	-0.339154
C19	C	0.881673	-0.372819	-0.339156
C20	C	0.808891	-0.372820	-0.339165
C21	C	0.717583	-0.372824	-0.339182
C22	C	0.644808	-0.372830	-0.339200
C23	C	0.553494	-0.372835	-0.339217
C24	C	1.180698	-0.582313	-0.339165
C25	C	1.180735	-0.671933	-0.339179
C26	C	1.180767	-0.744715	-0.339193
C27	C	1.180814	-0.836022	-0.339208
C28	C	1.180857	-0.908799	-0.339217
C29	C	1.180903	-1.000112	-0.339232
C30	C	1.391097	-0.372835	-0.339221
C31	C	1.480719	-0.372842	-0.339235
C32	C	1.189270	-0.364319	-0.522766
C33	C	1.192885	-0.360696	-0.600997
C34	C	1.180898	-0.162510	-0.339225
C35	C	1.180946	-0.072888	-0.339241
C36	C	1.218815	-0.334770	-1.041354
C37	C	1.215413	-0.338178	-0.967848
C38	C	1.162115	-0.391439	-0.931081
C39	C	1.112222	-0.441302	-0.967824
C40	C	1.115628	-0.437897	-1.041328
C41	C	1.146398	-0.407154	-0.711244
C42	C	1.142994	-0.410553	-0.637734
C43	C	1.246186	-0.307430	-0.637764
C44	C	1.249585	-0.304027	-0.711270
C45	C	1.199695	-0.353892	-0.748006
N46	N	1.158635	-0.394922	-0.855946
N47	N	1.203179	-0.350412	-0.823140
C48	C	1.172382	-0.381231	-0.156322
C49	C	1.168923	-0.384627	-0.078092
H50	H	1.262210	-0.291394	-1.071284
C51	C	1.301068	-0.252591	-0.597353
H52	H	1.291413	-0.262249	-0.548310
H53	H	1.289862	-0.197855	-0.609408
H54	H	1.355796	-0.263850	-0.609402
C55	C	1.091528	-0.462006	-0.751648
H56	H	1.101195	-0.452364	-0.800691
H57	H	1.036799	-0.450766	-0.739605
H58	H	1.102753	-0.516740	-0.739585
H59	H	1.068829	-0.484672	-0.937882
H60	H	1.099573	-0.453909	-0.607801
H61	H	1.256042	-0.297582	-0.937940
C62	C	1.060750	-0.492738	-1.081743
H63	H	1.070418	-0.483090	-1.130785
H64	H	1.006022	-0.481494	-1.069698
H65	H	1.071970	-0.547475	-1.069686
C66	C	1.308216	-0.245443	-0.751708
H67	H	1.337448	-0.216242	-0.719301
H68	H	1.278723	-0.208980	-0.780388
H69	H	1.344661	-0.274971	-0.780378
