data_functionalizedCrystal
_audit_creation_method	'MofGen! by Chris Wilmer'
_symmetry_space_group_name_H-M	'P1'
_symmetry_Int_Tables_number	1
_symmetry_cell_setting	triclinic
loop_
_symmetry_equiv_pos_as_xyz
  x,y,z
_cell_length_a	6.817900
_cell_length_b	19.551823
_cell_length_c	10.992410
_cell_angle_alpha	94.485119
_cell_angle_beta	108.764651
_cell_angle_gamma	101.663376
loop_
_atom_site_label
_atom_site_type_symbol
_atom_site_fract_x
_atom_site_fract_y
_atom_site_fract_z
V1	V	-4.078420	-0.096675	-0.401194
O2	O	-4.074098	0.004646	-0.392939
O3	O	-4.020787	-0.191690	-0.399044
O4	O	-4.056564	-0.095188	-0.575897
O5	O	-4.038073	-0.092525	-0.214862
V6	V	-4.559806	-0.084556	-0.378835
O7	O	-4.344369	-0.123259	-0.450240
O8	O	-4.744055	-0.057972	-0.329788
O9	O	-4.394233	0.010459	-0.380984
O10	O	-4.681525	-0.185876	-0.387090
O11	O	-4.717550	-0.088706	-0.565167
O12	O	-4.358456	-0.086043	-0.204132
C13	C	-3.862682	-0.214853	-0.392869
C14	C	-3.897024	-0.292529	-0.392276
C15	C	-3.908318	-0.091754	-0.618460
C16	C	-3.971670	-0.091166	-0.761285
C17	C	-4.095899	-0.332575	-0.398422
C18	C	-4.128173	-0.405561	-0.397879
C19	C	-3.961548	-0.438496	-0.391162
C20	C	-3.762648	-0.398442	-0.385022
C21	C	-3.730386	-0.325458	-0.385579
C22	C	-3.835941	-0.544984	-0.309690
C23	C	-3.868206	-0.617965	-0.309125
C24	C	-4.061050	-0.663602	-0.389449
C25	C	-4.221650	-0.636247	-0.470323
C26	C	-4.189388	-0.563263	-0.470880
C27	C	-3.996510	-0.517634	-0.390558
C28	C	-4.294934	-0.782788	-0.395008
C29	C	-4.327205	-0.855776	-0.394472
C30	C	-3.961667	-0.848654	-0.381602
C31	C	-3.929408	-0.775669	-0.382152
C32	C	-4.096046	-0.742740	-0.388849
C33	C	-3.840776	-0.085817	-0.956375
C34	C	-3.774892	-0.086717	-0.807897
C35	C	-4.144154	-0.160061	-0.838817
C36	C	-4.208693	-0.159452	-0.987380
C37	C	-4.135899	-0.026047	-0.948519
C38	C	-4.065311	-0.025720	-0.799504
C39	C	-4.215678	0.033618	-0.387156
C40	C	-4.160576	0.111294	-0.387757
C41	C	-4.170042	-0.089479	-0.161562
C42	C	-4.085929	-0.090063	-0.018736
H43	H	-4.231596	-0.305769	-0.403884
H44	H	-3.568436	-0.292853	-0.380575
H45	H	-3.742058	-0.035938	-0.974894
H46	H	-4.388475	-0.165443	-1.030049
O47	O	-3.781953	-0.884172	-0.374371
H48	H	-3.638238	-0.844061	-0.370197
O49	O	-4.371747	-0.029354	-1.002639
H50	H	-4.395971	0.019254	-1.045134
O51	O	-4.429665	-0.685455	-0.556972
H52	H	-4.397701	-0.723140	-0.624928
O53	O	-4.342678	-0.448766	-0.404491
H54	H	-4.453123	-0.413605	-0.409231
H55	H	-4.292401	-0.165805	-0.810050
H56	H	-3.678891	-0.507832	-0.244285
O57	O	-4.059701	-0.224431	-0.805325
H58	H	-3.895007	-0.207524	-0.733525
H59	H	-4.320154	-0.540994	-0.536731
O60	O	-4.253926	-0.024642	-0.756405
H61	H	-4.397034	-0.026974	-0.842578
O62	O	-3.582929	-0.433960	-0.377789
H63	H	-3.546153	-0.459576	-0.289199
O64	O	-4.541726	-0.898969	-0.401105
H65	H	-4.536179	-0.955253	-0.399609
H66	H	-3.798792	-0.131813	-1.004653
O67	O	-3.676260	-0.148490	-0.775392
H68	H	-3.675509	-0.177841	-0.865787
O69	O	-4.474673	-0.747272	-0.402254
H70	H	-4.426036	-0.706737	-0.314785
O71	O	-3.714897	-0.732468	-0.375508
H72	H	-3.604443	-0.767628	-0.370737
O73	O	-3.694993	-0.647470	-0.221911
H74	H	-3.555458	-0.603478	-0.166173
H75	H	-4.175167	-0.207924	-1.033951
O76	O	-3.602534	-0.021107	-0.736819
H77	H	-3.565591	0.011551	-0.808431
O78	O	-4.025255	0.043258	-0.975037
H79	H	-3.933403	0.032846	-1.038567
H80	H	-3.940945	0.025245	-0.746830
