data_functionalizedCrystal
_audit_creation_method	'MofGen! by Chris Wilmer'
_symmetry_space_group_name_H-M	'P1'
_symmetry_Int_Tables_number	1
_symmetry_cell_setting	triclinic
loop_
_symmetry_equiv_pos_as_xyz
  x,y,z
_cell_length_a	10.723023
_cell_length_b	9.798715
_cell_length_c	8.559649
_cell_angle_alpha	90.001415
_cell_angle_beta	77.123106
_cell_angle_gamma	90.003551
loop_
_atom_site_label
_atom_site_type_symbol
_atom_site_fract_x
_atom_site_fract_y
_atom_site_fract_z
O1	O	1.634237	0.113480	0.223863
O2	O	1.268887	0.113483	0.245293
O3	O	1.483750	0.113480	0.002329
O4	O	1.419374	0.113483	0.466827
O5	O	1.483735	-0.113502	0.002328
O6	O	1.268873	-0.113499	0.245292
O7	O	1.634223	-0.113502	0.223862
Zn8	Zn	1.451546	-0.149539	0.234577
Zn9	Zn	1.451564	0.149520	0.234578
O10	O	1.419360	-0.113499	0.466827
C11	C	1.222540	-0.000008	0.243734
C12	C	1.084464	-0.000006	0.239068
C13	C	1.022913	0.117578	0.236989
C14	C	0.880204	0.117582	0.232167
N15	N	1.451542	-0.353639	0.234576
C16	C	1.541803	-0.421417	0.132112
C17	C	1.541823	-0.578579	0.132107
C18	C	1.680569	-0.000008	0.225422
C19	C	1.818645	-0.000001	0.230087
C20	C	1.488621	-0.000009	-0.057148
C21	C	1.503143	-0.000001	-0.234369
N22	N	1.451579	0.353620	0.234567
C23	C	1.414489	-0.000007	0.526303
C24	C	1.399967	-0.000006	0.703524
H25	H	0.871571	-0.100674	0.231868
H26	H	1.374303	-0.588103	0.322301
O27	O	0.816955	0.237649	0.230317
C28	C	0.642911	0.381027	0.363354
C29	C	0.714445	0.245012	0.365665
H30	H	0.560001	0.387012	0.472752
H31	H	0.711386	0.469611	0.365773
H32	H	0.604337	0.387112	0.249742
H33	H	0.753025	0.238795	0.479257
H34	H	0.645920	0.156494	0.363159
O35	O	1.021482	-0.120194	0.236724
C36	C	1.008844	-0.331609	0.097276
C37	C	1.080300	-0.195556	0.099755
H38	H	1.056353	-0.392564	-0.013469
H39	H	1.012213	-0.392757	0.209568
H40	H	0.904993	-0.310176	0.093846
H41	H	1.184178	-0.216864	0.103129
H42	H	1.076826	-0.134448	-0.012530
O43	O	1.621856	0.000175	-0.332514
C44	C	1.823215	0.117809	-0.414233
C45	C	1.688826	0.117762	-0.302969
H46	H	1.877390	0.212882	-0.390410
H47	H	1.877550	0.022886	-0.390328
H48	H	1.814156	0.117733	-0.544430
H49	H	1.697768	0.117887	-0.172734
H50	H	1.634541	0.212677	-0.327013
O51	O	1.281261	0.000184	-0.198339
C52	C	1.079919	0.117829	-0.116630
C53	C	1.214306	0.117767	-0.227899
H54	H	1.025757	0.212899	-0.140466
H55	H	1.025569	0.022902	-0.140515
H56	H	1.088982	0.117772	0.013565
H57	H	1.205360	0.117873	-0.358133
H58	H	1.268606	0.212685	-0.203875
H59	H	1.619061	-0.363095	0.044386
H60	H	1.619104	-0.636866	0.044389
O61	O	1.086173	0.237588	0.239343
C62	C	1.205397	0.381027	0.382392
C63	C	1.133821	0.245050	0.379909
H64	H	1.243916	0.387116	0.496044
H65	H	1.288319	0.387142	0.273016
H66	H	1.136855	0.469540	0.379998
H67	H	1.202263	0.156459	0.382357
H68	H	1.050882	0.239053	0.489275
H69	H	1.374277	-0.411962	0.322289
