data_functionalizedCrystal
_audit_creation_method	'MofGen! by Chris Wilmer'
_symmetry_space_group_name_H-M	'P1'
_symmetry_Int_Tables_number	1
_symmetry_cell_setting	triclinic
loop_
_symmetry_equiv_pos_as_xyz
  x,y,z
_cell_length_a	23.532355
_cell_length_b	14.853567
_cell_length_c	13.930277
_cell_angle_alpha	89.998141
_cell_angle_beta	89.997955
_cell_angle_gamma	96.768786
loop_
_atom_site_label
_atom_site_type_symbol
_atom_site_fract_x
_atom_site_fract_y
_atom_site_fract_z
O1	O	0.755758	-0.109211	-0.079693
O2	O	1.255758	0.390789	0.420307
O3	O	0.589960	-0.125095	-0.079722
O4	O	1.089960	0.374905	0.420278
O5	O	0.677288	0.014127	-0.079710
O6	O	1.177288	0.514127	0.420290
O7	O	0.668431	-0.248432	-0.079705
O8	O	1.168431	0.251568	0.420295
O9	O	0.677274	0.014122	0.079952
O10	O	1.177274	0.514122	0.579952
O11	O	0.589946	-0.125099	0.079940
O12	O	1.089946	0.374901	0.579940
O13	O	0.755745	-0.109215	0.079969
O14	O	1.255745	0.390785	0.579969
Zn15	Zn	0.672843	-0.117158	0.105304
Zn16	Zn	1.172843	0.382842	0.605304
Zn17	Zn	0.672862	-0.117152	-0.105057
Zn18	Zn	1.172862	0.382848	0.394943
O19	O	0.668417	-0.248437	0.079956
O20	O	1.168417	0.251563	0.579956
C21	C	0.568735	-0.124700	0.000105
C22	C	1.068735	0.375300	0.500105
C23	C	0.505511	-0.123506	0.000093
C24	C	1.005511	0.376494	0.500093
C25	C	0.113457	-0.116008	0.087165
C26	C	0.613457	0.383992	0.587165
C27	C	0.054053	-0.114873	0.087169
C28	C	0.554053	0.385127	0.587169
O29	O	0.023325	-0.114257	0.161185
O30	O	0.523325	0.385743	0.661185
N31	N	0.024349	-0.114307	0.000137
N32	N	0.524349	0.385693	0.500137
C33	C	0.054054	-0.114868	-0.086903
C34	C	0.554054	0.385132	0.413097
O35	O	0.023334	-0.114282	-0.160930
O36	O	0.523334	0.385718	0.339070
C37	C	0.113458	-0.115997	-0.086906
C38	C	0.613458	0.384003	0.413094
C39	C	0.143158	-0.116572	0.000131
C40	C	0.643158	0.383428	0.500131
C41	C	0.143157	-0.116582	0.174195
C42	C	0.643157	0.383418	0.674195
C43	C	0.202557	-0.117719	0.174191
C44	C	0.702557	0.382281	0.674191
C45	C	0.232257	-0.118283	0.087157
C46	C	0.732257	0.381717	0.587157
C47	C	0.202558	-0.117709	0.000127
C48	C	0.702558	0.382291	0.500127
C49	C	0.143162	-0.116552	-0.173946
C50	C	0.643162	0.383448	0.326054
C51	C	0.202570	-0.117681	-0.173941
C52	C	0.702570	0.382319	0.326059
C53	C	0.232270	-0.118255	-0.086904
C54	C	0.732270	0.381745	0.413096
C55	C	0.291658	-0.119410	-0.086911
C56	C	0.791658	0.380590	0.413089
N57	N	0.321362	-0.119976	0.000120
N58	N	0.821362	0.380024	0.500120
C59	C	0.291661	-0.119412	0.087154
C60	C	0.791661	0.380588	0.587154
C61	C	-0.070698	-0.112495	-0.086891
C62	C	0.429302	0.387505	0.413109
C63	C	-0.130101	-0.111372	-0.086889
C64	C	0.369899	0.388628	0.413111
C65	C	-0.130098	-0.111375	0.087183
C66	C	0.369902	0.388625	0.587183
C67	C	-0.070694	-0.112504	0.087180
C68	C	0.429306	0.387496	0.587180
C69	C	-0.040994	-0.113061	0.000140
C70	C	0.459006	0.386939	0.500140
C71	C	0.416406	-0.121801	0.087139
C72	C	0.916406	0.378199	0.587139
C73	C	0.475811	-0.122942	0.087127
C74	C	0.975811	0.377058	0.587127
C75	C	0.475803	-0.122935	-0.086945
C76	C	0.975803	0.377065	0.413055
C77	C	0.416403	-0.121799	-0.086933
C78	C	0.916403	0.378201	0.413067
C79	C	0.386706	-0.121229	0.000116
C80	C	0.886706	0.378771	0.500116
O81	O	0.322424	-0.120023	-0.160890
O82	O	0.822424	0.379977	0.339110
O83	O	0.322389	-0.119986	0.161168
O84	O	0.822389	0.380014	0.661168
C85	C	0.676880	0.047709	0.000118
C86	C	1.176880	0.547709	0.500118
C87	C	0.675677	0.147779	0.000110
C88	C	1.175677	0.647779	0.500110
C89	C	0.776970	-0.109610	0.000140
C90	C	1.276970	0.390390	0.500140
C91	C	0.840194	-0.110804	0.000145
C92	C	1.340194	0.389196	0.500145
C93	C	0.668825	-0.282019	0.000126
C94	C	1.168825	0.217981	0.500126
C95	C	0.670028	-0.382089	0.000129
C96	C	1.170028	0.117911	0.500129
N97	N	0.672835	-0.117161	0.248870
N98	N	1.172835	0.382839	0.748870
C99	C	0.618719	0.559673	0.000118
C100	C	1.118719	1.059673	0.500118
C101	C	0.722466	0.582119	0.000136
C102	C	1.222466	1.082119	0.500136
C103	C	0.723597	0.488098	0.000131
C104	C	1.223597	0.988098	0.500131
C105	C	0.672288	0.429860	0.000121
C106	C	1.172288	0.929860	0.500121
C107	C	0.619848	0.465643	0.000116
C108	C	1.119848	0.965643	0.500116
C109	C	0.776036	0.452308	0.000146
C110	C	1.276036	0.952308	0.500146
C111	C	0.777169	0.358282	0.000141
C112	C	1.277169	0.858282	0.500141
C113	C	0.725859	0.300042	0.000124
C114	C	1.225859	0.800042	0.500124
C115	C	0.673417	0.335830	0.000118
C116	C	1.173417	0.835830	0.500118
C117	C	0.622108	0.277592	0.000107
C118	C	1.122108	0.777592	0.500107
C119	C	0.569665	0.313378	0.000095
C120	C	1.069665	0.813378	0.500095
C121	C	0.568538	0.407403	0.000098
C122	C	1.068538	0.907403	0.500098
C123	C	0.726986	0.206017	0.000120
C124	C	1.226986	0.706017	0.500120
C125	C	0.623237	0.183562	0.000105
C126	C	1.123237	0.683562	0.500105
C127	C	0.638255	-0.062770	0.299126
C128	C	1.138255	0.437230	0.799126
C129	C	0.707422	-0.171548	0.299120
C130	C	1.207422	0.328452	0.799120
C131	C	0.707429	-0.171548	0.399615
C132	C	1.207429	0.328452	0.899615
C133	C	0.672848	-0.117158	0.449871
C134	C	1.172848	0.382842	0.949871
C135	C	0.638262	-0.062767	0.399631
C136	C	1.138262	0.437233	0.899631
C137	C	0.742019	-0.225931	0.449863
C138	C	1.242019	0.274069	0.949863
C139	C	0.742027	-0.225933	0.550365
C140	C	1.242027	0.274067	1.050365
C141	C	0.707443	-0.171546	0.600622
C142	C	1.207443	0.328454	1.100622
C143	C	0.672855	-0.117154	0.550376
C144	C	1.172855	0.382846	1.050376
C145	C	0.638275	-0.062763	0.600632
C146	C	1.138275	0.437237	1.100632
C147	C	0.603683	-0.008375	0.550387
C148	C	1.103683	0.491625	1.050387
C149	C	0.603678	-0.008380	0.449888
C150	C	1.103678	0.491620	0.949888
C151	C	0.707448	-0.171541	0.701121
C152	C	1.207448	0.328459	1.201121
C153	C	0.638281	-0.062760	0.701137
C154	C	1.138281	0.437240	1.201137
N155	N	0.672868	-0.117151	0.751377
N156	N	1.172868	0.382849	1.251377
H157	H	0.392233	-0.121345	0.158023
H158	H	0.892233	0.378655	0.658023
C159	C	0.227179	-0.040549	0.322551
C160	C	0.727179	0.459451	0.822551
C161	C	0.235199	-0.118336	0.269866
C162	C	0.735199	0.381664	0.769866
H163	H	0.247331	-0.040926	0.381618
H164	H	0.747331	0.459074	0.881618
H165	H	0.187552	-0.039803	0.334993
H166	H	0.687552	0.460197	0.834993
H167	H	0.241224	0.011836	0.286777
H168	H	0.741224	0.511836	0.786777
H169	H	0.221149	-0.170722	0.305638
H170	H	0.721149	0.329278	0.805638
H171	H	0.274833	-0.119090	0.257427
H172	H	0.774833	0.380910	0.757427
H173	H	0.576021	0.588815	0.000104
H174	H	1.076021	1.088815	0.500104
H175	H	-0.046517	-0.112973	0.158054
H176	H	0.453483	0.387027	0.658054
C177	C	0.536274	-0.201708	-0.187919
C178	C	1.036274	0.298292	0.312081
C179	C	0.508461	-0.123551	-0.182607
C180	C	1.008461	0.376449	0.317393
H181	H	0.556440	-0.202079	-0.246974
H182	H	1.056440	0.297921	0.253026
H183	H	0.508796	-0.253837	-0.184318
H184	H	1.008796	0.246163	0.315682
H185	H	0.562457	-0.202203	-0.136073
H186	H	1.062457	0.297797	0.363927
H187	H	0.482275	-0.123059	-0.234449
H188	H	0.982275	0.376941	0.265551
H189	H	0.535943	-0.071409	-0.186217
H190	H	1.035943	0.428591	0.313783
H191	H	0.118991	-0.116083	-0.244821
H192	H	0.618991	0.383917	0.255179
C193	C	0.500446	-0.045782	0.235498
C194	C	1.000446	0.454218	0.735498
C195	C	0.508457	-0.123567	0.182804
C196	C	1.008457	0.376433	0.682804
H197	H	0.520603	-0.046165	0.294559
H198	H	1.020603	0.453835	0.794559
H199	H	0.460821	-0.045031	0.247949
H200	H	0.960821	0.454969	0.747949
H201	H	0.514492	0.006605	0.199724
H202	H	1.014492	0.506605	0.699724
H203	H	0.494408	-0.175954	0.218575
H204	H	0.994408	0.324046	0.718575
H205	H	0.548091	-0.124326	0.170355
H206	H	1.048091	0.375674	0.670355
C207	C	0.864124	0.500399	-0.081910
C208	C	1.364124	1.000399	0.418090
C209	C	0.832432	0.516324	0.000157
C210	C	1.332432	1.016324	0.500157
H211	H	0.898943	0.539921	-0.081899
H212	H	1.398943	1.039921	0.418101
H213	H	0.842630	0.511197	-0.137582
H214	H	1.342630	1.011197	0.362418
H215	H	0.872302	0.439279	-0.081895
H216	H	1.372302	0.939279	0.418105
H217	H	0.824250	0.577442	0.000138
H218	H	1.324250	1.077442	0.500138
H219	H	0.853930	0.505533	0.055843
H220	H	1.353930	1.005533	0.555843
C221	C	0.082710	-0.037801	0.275213
C222	C	0.582710	0.462199	0.775213
C223	C	0.110520	-0.115960	0.269877
C224	C	0.610520	0.384040	0.769877
H225	H	0.062568	-0.037420	0.334291
H226	H	0.562568	0.462580	0.834291
H227	H	0.056513	-0.037308	0.223401
H228	H	0.556513	0.462692	0.723401
H229	H	0.110193	0.014332	0.271583
H230	H	0.610193	0.514332	0.771583
H231	H	0.083036	-0.168093	0.273500
H232	H	0.583036	0.331907	0.773500
H233	H	0.136720	-0.116462	0.321704
H234	H	0.636720	0.383538	0.821704
H235	H	0.527890	0.265948	0.000093
H236	H	1.027890	0.765948	0.500093
H237	H	0.735579	-0.215825	0.258195
H238	H	1.235579	0.284175	0.758195
H239	H	0.819871	0.329153	0.000151
H240	H	1.319871	0.829153	0.500151
H241	H	0.769684	0.176884	0.000137
H242	H	1.269684	0.676884	0.500137
H243	H	0.525842	0.436549	0.000089
H244	H	1.025842	0.936549	0.500089
C245	C	0.766798	0.736218	0.000153
C246	C	1.266798	1.236218	0.500153
C247	C	0.778863	0.646132	0.000150
C248	C	1.278863	1.146132	0.500150
H249	H	0.801617	0.775737	0.000155
H250	H	1.301617	1.275737	0.500155
H251	H	0.745298	0.747002	0.055826
H252	H	1.245298	1.247002	0.555826
H253	H	0.745302	0.747011	-0.055530
H254	H	1.245302	1.247011	0.444470
H255	H	0.800355	0.635337	0.055837
H256	H	1.300355	1.135337	0.555837
H257	H	0.800371	0.635343	-0.055529
H258	H	1.300371	1.135343	0.444471
H259	H	0.610119	-0.018472	0.742048
H260	H	1.110119	0.481528	1.242048
H261	H	0.575516	0.035901	0.408970
H262	H	1.075516	0.535901	0.908970
H263	H	0.581454	0.136149	0.000092
H264	H	1.081454	0.636149	0.500092
C265	C	0.572943	0.039858	0.704454
C266	C	1.072943	0.539858	1.204454
C267	C	0.565672	0.051410	0.605633
C268	C	1.065672	0.551410	1.105633
H269	H	0.549474	0.076763	0.738560
H270	H	1.049474	0.576763	1.238560
H271	H	0.611889	0.056901	0.720950
H272	H	1.111889	0.556901	1.220950
H273	H	0.562388	-0.021924	0.720871
H274	H	1.062388	0.478076	1.220871
H275	H	0.576231	0.113192	0.589214
H276	H	1.076231	0.613192	1.089214
H277	H	0.526717	0.034373	0.589131
H278	H	1.026717	0.534373	1.089131
C279	C	0.810392	-0.333465	0.540253
C280	C	1.310392	0.166535	1.040253
C281	C	0.780043	-0.285724	0.605588
C282	C	1.280043	0.214276	1.105588
H283	H	0.833857	-0.370383	0.574349
H284	H	1.333857	0.129617	1.074349
H285	H	0.833694	-0.291780	0.501054
H286	H	1.333694	0.208220	1.001054
H287	H	0.784205	-0.370623	0.501055
H288	H	1.284205	0.129377	1.001055
H289	H	0.806231	-0.248561	0.644781
H290	H	1.306231	0.251439	1.144781
H291	H	0.756739	-0.327414	0.644804
H292	H	1.256739	0.172586	1.144804
H293	H	0.735615	-0.215820	0.742026
H294	H	1.235615	0.284180	1.242026
C295	C	0.615765	0.088065	0.268191
C296	C	1.115765	0.588065	0.768191
C297	C	0.600232	-0.002986	0.243907
C298	C	1.100232	0.497014	0.743907
H299	H	0.592288	0.124972	0.234105
H300	H	1.092288	0.624972	0.734105
H301	H	0.654709	0.105137	0.251699
H302	H	1.154709	0.605137	0.751699
H303	H	0.610822	0.095839	0.335240
H304	H	1.110822	0.595839	0.835240
H305	H	0.605179	-0.010761	0.176859
H306	H	1.105179	0.489239	0.676859
H307	H	0.561279	-0.020064	0.260393
H308	H	1.061279	0.479936	0.760393
C309	C	-0.221161	-0.109611	0.164467
C310	C	0.278839	0.390389	0.664467
C311	C	-0.162751	-0.110735	0.182855
C312	C	0.337249	0.389265	0.682855
H313	H	-0.241319	-0.109208	0.223529
H314	H	0.258681	0.390792	0.723529
H315	H	-0.235199	-0.162006	0.128723
H316	H	0.264801	0.337994	0.628723
H317	H	-0.226579	-0.056847	0.128692
H318	H	0.273421	0.443153	0.628692
H319	H	-0.157333	-0.163504	0.218624
H320	H	0.342667	0.336496	0.718624
H321	H	-0.148709	-0.058335	0.218615
H322	H	0.351291	0.441665	0.718615
C323	C	-0.124122	-0.111484	-0.258950
C324	C	0.375878	0.388516	0.241050
C325	C	-0.162744	-0.110750	-0.182563
C326	C	0.337256	0.389250	0.317437
H327	H	-0.144273	-0.111090	-0.318016
H328	H	0.355727	0.388910	0.181984
H329	H	-0.105261	-0.164504	-0.255326
H330	H	0.394739	0.335496	0.244674
H331	H	-0.096645	-0.059344	-0.255318
H332	H	0.403355	0.440656	0.244682
H333	H	-0.190218	-0.162893	-0.186191
H334	H	0.309782	0.337107	0.313809
H335	H	-0.181614	-0.057724	-0.186189
H336	H	0.318386	0.442276	0.313811
C337	C	-0.010243	-0.191282	-0.187889
C338	C	0.489757	0.308718	0.312111
C339	C	-0.038054	-0.113123	-0.182573
C340	C	0.461946	0.386877	0.317427
H341	H	0.009910	-0.191665	-0.246956
H342	H	0.509910	0.308335	0.253044
H343	H	-0.037722	-0.243409	-0.184265
H344	H	0.462278	0.256591	0.315735
H345	H	0.015950	-0.191769	-0.136058
H346	H	0.515950	0.308231	0.363942
H347	H	-0.064251	-0.112639	-0.234400
H348	H	0.435749	0.387361	0.265600
H349	H	-0.010572	-0.060982	-0.186207
H350	H	0.489428	0.439018	0.313793
C351	C	0.196596	-0.117565	-0.346006
C352	C	0.696596	0.382435	0.153994
C353	C	0.235214	-0.118303	-0.269621
C354	C	0.735214	0.381697	0.230379
H355	H	0.216748	-0.117958	-0.405073
H356	H	0.716748	0.382042	0.094927
H357	H	0.177736	-0.064543	-0.342384
H358	H	0.677736	0.435457	0.157616
H359	H	0.169117	-0.169703	-0.342372
H360	H	0.669117	0.330297	0.157628
H361	H	0.262690	-0.066161	-0.273252
H362	H	0.762690	0.433839	0.226748
H363	H	0.254084	-0.171330	-0.273245
H364	H	0.754084	0.328670	0.226755
C365	C	0.343245	-0.198030	-0.187914
C366	C	0.843245	0.301970	0.312086
C367	C	0.383750	-0.121178	-0.182602
C368	C	0.883750	0.378822	0.317398
H369	H	0.323092	-0.197642	-0.246980
H370	H	0.823092	0.302358	0.253020
H371	H	0.317058	-0.197520	-0.136085
H372	H	0.817058	0.302480	0.363915
H373	H	0.362116	-0.251049	-0.184297
H374	H	0.862116	0.248951	0.315703
H375	H	0.364878	-0.068158	-0.186212
H376	H	0.864878	0.431842	0.313788
H377	H	0.409941	-0.121680	-0.234446
H378	H	0.909941	0.378320	0.265554
H379	H	0.770176	-0.270207	0.408937
H380	H	1.270176	0.229793	0.908937
