data_functionalizedCrystal
_audit_creation_method	'MofGen! by Chris Wilmer'
_symmetry_space_group_name_H-M	'P1'
_symmetry_Int_Tables_number	1
_symmetry_cell_setting	triclinic
loop_
_symmetry_equiv_pos_as_xyz
  x,y,z
_cell_length_a	10.967926
_cell_length_b	11.026607
_cell_length_c	10.065907
_cell_angle_alpha	100.715461
_cell_angle_beta	93.099207
_cell_angle_gamma	96.380754
loop_
_atom_site_label
_atom_site_type_symbol
_atom_site_fract_x
_atom_site_fract_y
_atom_site_fract_z
O1	O	1.659038	0.213623	0.276707
O2	O	1.309783	0.217148	0.194562
O3	O	1.455464	0.037425	0.228831
O4	O	1.513357	0.393347	0.242438
O5	O	1.427629	0.071769	0.449272
O6	O	1.281948	0.251492	0.415003
O7	O	1.631204	0.247967	0.497148
Zn8	Zn	1.452157	0.255183	0.491075
Zn9	Zn	1.488830	0.209933	0.200635
O10	O	1.485523	0.427691	0.462879
C11	C	1.250458	0.231469	0.294103
C12	C	1.115156	0.222957	0.262279
C13	C	1.040414	0.236954	0.362286
C14	C	0.900572	0.228157	0.329398
C15	C	1.430867	0.008903	0.336538
C16	C	1.399030	-0.127251	0.329045
C17	C	1.486939	-0.197083	0.349720
C18	C	1.454036	-0.337806	0.341976
C19	C	1.690529	0.233646	0.397605
C20	C	1.825832	0.242156	0.429419
N21	N	1.427137	0.286064	0.689295
C22	C	1.510120	0.456212	0.355169
C23	C	1.541958	0.592365	0.362653
C24	C	1.460875	0.244441	0.922174
C25	C	1.480119	0.220664	0.769534
N26	N	1.513849	0.179051	1.002415
H27	H	1.586559	-0.152686	0.373159
O28	O	1.335234	-0.390942	0.314089
C29	C	1.328832	-0.519620	0.312540
H30	H	1.411864	-0.538728	0.375043
H31	H	1.240802	-0.552237	0.357731
H32	H	1.328651	-0.571947	0.203597
H33	H	1.641599	-0.363262	0.385986
O34	O	1.087705	0.258851	0.493424
C35	C	1.151121	0.159118	0.515654
H36	H	1.180147	0.108891	0.415023
H37	H	1.236246	0.196363	0.587910
H38	H	1.088254	0.091453	0.562006
H39	H	1.075615	0.204459	0.152311
H40	H	1.299410	-0.171648	0.305605
O41	O	1.389664	0.332082	0.975148
C42	C	1.290438	0.275498	1.034456
H43	H	1.315401	0.184985	1.061578
H44	H	1.270086	0.340903	1.130215
H45	H	1.205594	0.254850	0.959536
H46	H	1.539718	0.147069	0.725233
O47	O	1.355921	0.373711	0.742255
C48	C	1.256691	0.317133	0.801562
H49	H	1.281651	0.226623	0.828694
H50	H	1.236334	0.382545	0.897314
H51	H	1.171850	0.296481	0.726637
O52	O	0.853378	0.206311	0.198222
C53	C	0.789906	0.306013	0.176011
H54	H	0.826130	0.392745	0.254690
H55	H	0.804845	0.324754	0.070090
H56	H	0.687422	0.281163	0.185292
O57	O	0.873111	0.264052	0.560567
C58	C	0.936523	0.164318	0.582800
H59	H	0.965557	0.114095	0.482172
H60	H	1.021643	0.201561	0.655064
H61	H	0.873651	0.096651	0.629143
H62	H	1.573445	0.105461	0.958107
