data_functionalizedCrystal
_audit_creation_method	'MofGen! by Chris Wilmer'
_symmetry_space_group_name_H-M	'P1'
_symmetry_Int_Tables_number	1
_symmetry_cell_setting	triclinic
loop_
_symmetry_equiv_pos_as_xyz
  x,y,z
_cell_length_a	15.995300
_cell_length_b	17.038274
_cell_length_c	15.500227
_cell_angle_alpha	86.974526
_cell_angle_beta	87.154472
_cell_angle_gamma	92.708204
loop_
_atom_site_label
_atom_site_type_symbol
_atom_site_fract_x
_atom_site_fract_y
_atom_site_fract_z
O1	O	1.121816	-0.096958	-0.071992
O2	O	1.621816	0.403042	0.428008
O3	O	0.878924	-0.109444	-0.071988
O4	O	1.378924	0.390556	0.428012
O5	O	0.998925	0.010613	-0.071966
O6	O	1.498925	0.510613	0.428034
O7	O	1.001815	-0.217015	-0.072014
O8	O	1.501815	0.282985	0.427986
O9	O	0.991641	0.003357	0.071921
O10	O	1.491641	0.503357	0.571921
O11	O	0.871640	-0.116701	0.071899
O12	O	1.371640	0.383299	0.571899
O13	O	1.114532	-0.104215	0.071896
O14	O	1.614532	0.395785	0.571896
Cu15	Cu	0.992421	-0.111120	0.085035
Cu16	Cu	1.492421	0.388880	0.585035
Cu17	Cu	1.001035	-0.102538	-0.085128
Cu18	Cu	1.501035	0.397462	0.414872
O19	O	0.994531	-0.224272	0.071873
O20	O	1.494531	0.275728	0.571873
C21	C	0.844051	-0.112563	-0.000044
C22	C	1.344051	0.387437	0.499956
C23	C	0.750989	-0.111037	-0.000042
C24	C	1.250989	0.388963	0.499958
C25	C	0.580606	-0.108217	-0.000048
C26	C	1.080606	0.391783	0.499952
C27	C	0.539230	-0.193700	-0.000064
C28	C	1.039230	0.306300	0.499936
C29	C	0.442448	-0.192124	-0.000392
C30	C	0.942448	0.307876	0.499608
C31	C	0.412851	-0.105442	-0.000053
C32	C	0.912851	0.394558	0.499947
C33	C	0.455114	-0.058894	-0.082048
C34	C	0.955114	0.441106	0.417952
C35	C	0.551905	-0.061054	-0.082115
C36	C	1.051905	0.438946	0.417885
C37	C	0.543810	-0.068041	0.081517
C38	C	1.043810	0.431959	0.581517
C39	C	0.446812	-0.068103	0.082593
C40	C	0.946812	0.431897	0.582593
C41	C	0.318044	-0.103868	-0.000058
C42	C	0.818044	0.396132	0.499942
C43	C	0.675413	-0.109787	-0.000048
C44	C	1.175413	0.390213	0.499952
C45	C	0.992657	0.036113	-0.000018
C46	C	1.492657	0.536113	0.499982
C47	C	0.984822	0.122906	-0.000005
C48	C	1.484822	0.622906	0.499995
C49	C	1.056751	0.173014	0.000002
C50	C	1.556751	0.673014	0.500002
C51	C	1.049384	0.254565	0.000006
C52	C	1.549384	0.754565	0.500006
C53	C	0.970087	0.286006	0.000009
C54	C	1.470087	0.786006	0.500009
C55	C	0.898153	0.235891	-0.000000
C56	C	1.398153	0.735891	0.500000
C57	C	0.905521	0.154342	-0.000010
C58	C	1.405521	0.654342	0.499990
C59	C	0.944059	0.531764	0.000035
C60	C	1.444059	1.031764	0.500035
C61	C	0.936697	0.613320	0.000048
C62	C	1.436697	1.113320	0.500048
C63	C	1.087928	0.631988	0.000052
C64	C	1.587928	1.131988	0.500052
C65	C	1.095289	0.550436	0.000047
C66	C	1.595289	1.050436	0.500047
C67	C	1.023355	0.500329	0.000033
C68	C	1.523355	1.000329	0.500033
C69	C	0.962555	0.369364	0.000016
C70	C	1.462555	0.869364	0.500016
C71	C	1.030888	0.416973	0.000020
C72	C	1.530888	0.916973	0.500020
C73	C	1.149406	-0.101095	-0.000051
C74	C	1.649406	0.398905	0.499949
C75	C	1.242468	-0.102622	-0.000059
C76	C	1.742468	0.397378	0.499941
N77	N	0.986369	-0.117156	0.204719
N78	N	1.486369	0.382844	0.704719
C79	C	1.000797	0.750226	-0.000039
C80	C	1.500797	1.250226	0.499961
C81	C	1.008626	0.663428	0.000055
C82	C	1.508626	1.163428	0.500055
N83	N	1.007094	-0.096497	-0.204812
N84	N	1.507094	0.403503	0.295188
C85	C	1.037237	-0.066302	0.250005
C86	C	1.537237	0.433698	0.750005
C87	C	1.032668	-0.070874	0.340577
C88	C	1.532668	0.429126	0.840577
C89	C	0.977234	-0.126304	0.385862
C90	C	1.477234	0.373696	0.885862
C91	C	0.926359	-0.177160	0.340569
C92	C	1.426359	0.322840	0.840569
C93	C	0.930925	-0.172584	0.249999
C94	C	1.430925	0.327416	0.749999
C95	C	0.960785	-0.142776	0.659325
C96	C	1.460785	0.357224	1.159325
C97	C	0.956225	-0.147350	0.749902
C98	C	1.456225	0.352650	1.249902
C99	C	1.062534	-0.041063	0.749904
C100	C	1.562534	0.458937	1.249904
C101	C	1.067098	-0.036495	0.659332
C102	C	1.567098	0.463505	1.159332
C103	C	1.016220	-0.087348	0.614047
C104	C	1.516220	0.412652	1.114047
C105	C	0.972564	-0.130980	0.478441
C106	C	1.472564	0.369020	0.978441
C107	C	1.020887	-0.082667	0.521470
C108	C	1.520887	0.417333	1.021470
H109	H	0.557192	-0.231019	0.058726
H110	H	1.057192	0.268981	0.558726
H111	H	0.897991	0.394972	0.000021
H112	H	1.397991	0.894972	0.500021
H113	H	0.571061	-0.005055	0.082319
H114	H	1.071061	0.494945	0.582319
F115	F	0.582770	-0.096948	-0.162551
F116	F	1.082770	0.403052	0.337449
H117	H	0.872120	0.638914	0.000065
H118	H	1.372120	1.138914	0.500065
H119	H	1.107956	0.295361	0.000014
H120	H	1.607956	0.795361	0.500014
H121	H	1.082382	-0.021169	0.213141
H122	H	1.582382	0.478831	0.713141
H123	H	1.121322	0.147422	0.000004
H124	H	1.621322	0.647422	0.500004
H125	H	1.074089	-0.029465	0.377449
H126	H	1.574089	0.470535	0.877449
H127	H	0.431901	-0.084881	-0.143312
H128	H	0.931901	0.415119	0.356688
H129	H	0.419957	-0.222323	-0.059526
H130	H	0.919957	0.277677	0.440474
H131	H	0.418608	-0.102134	0.143255
H132	H	0.918608	0.397866	0.643255
H133	H	1.112237	0.008641	0.622463
H134	H	1.612237	0.508641	1.122463
F135	F	1.179688	0.516983	0.000022
F136	F	1.679688	1.016983	0.500022
F137	F	1.115279	0.383510	0.000011
F138	F	1.615279	0.883510	0.500011
H139	H	0.564222	-0.224580	-0.058789
H140	H	1.064222	0.275420	0.441211
H141	H	0.911082	-0.192491	0.786768
H142	H	1.411082	0.307509	1.286768
H143	H	0.919360	-0.184185	0.622462
H144	H	1.419360	0.315815	1.122462
H145	H	1.103955	0.000340	0.786783
H146	H	1.603955	0.500340	1.286783
F147	F	0.867499	0.478447	0.000018
F148	F	1.367499	0.978447	0.500018
F149	F	0.404456	-0.239561	0.076413
F150	F	0.904456	0.260439	0.576413
F151	F	1.164480	0.685321	0.000066
F152	F	1.664480	1.185321	0.500066
F153	F	1.079879	-0.023674	0.473274
F154	F	1.579879	0.476326	0.973274
H155	H	0.881219	-0.222290	0.377445
H156	H	1.381219	0.277710	0.877445
F157	F	0.813760	0.269355	-0.000006
F158	F	1.313760	0.769355	0.499994
F159	F	0.876780	-0.226708	0.201803
F160	F	1.376780	0.273292	0.701803
H161	H	0.927429	-0.176114	0.515319
H162	H	1.427429	0.323886	1.015319
F163	F	0.588477	0.021221	-0.086673
F164	F	1.088477	0.521221	0.413327
H165	H	0.436618	0.004952	-0.084854
H166	H	0.936618	0.504952	0.415146
H167	H	0.426707	-0.005156	0.087800
H168	H	0.926707	0.494844	0.587800
F169	F	0.569112	-0.108925	0.162777
F170	F	1.069112	0.391075	0.662777
H171	H	0.846948	0.113544	-0.000016
H172	H	1.346948	0.613544	0.499984
