data_functionalizedCrystal
_audit_creation_method	'MofGen! by Chris Wilmer'
_symmetry_space_group_name_H-M	'P1'
_symmetry_Int_Tables_number	1
_symmetry_cell_setting	triclinic
loop_
_symmetry_equiv_pos_as_xyz
  x,y,z
_cell_length_a	16.109296
_cell_length_b	15.072220
_cell_length_c	16.109301
_cell_angle_alpha	90.001893
_cell_angle_beta	83.460385
_cell_angle_gamma	89.996229
loop_
_atom_site_label
_atom_site_type_symbol
_atom_site_fract_x
_atom_site_fract_y
_atom_site_fract_z
O1	O	-1.103137	0.073743	-0.106836
O2	O	-0.769804	0.407077	0.226497
O3	O	-0.436471	0.740410	0.559831
O4	O	-0.861075	0.073755	-0.120140
O5	O	-0.527741	0.407088	0.213193
O6	O	-0.194408	0.740421	0.546527
O7	O	-0.988756	0.073740	0.007543
O8	O	-0.655422	0.407073	0.340877
O9	O	-0.322089	0.740406	0.674210
O10	O	-0.975456	0.073759	-0.234519
O11	O	-0.642123	0.407092	0.098814
O12	O	-0.308790	0.740425	0.432148
O13	O	-0.988739	-0.073825	0.007527
O14	O	-0.655406	0.259508	0.340860
O15	O	-0.322073	0.592841	0.674194
O16	O	-0.861058	-0.073810	-0.120156
O17	O	-0.527725	0.259523	0.213177
O18	O	-0.194392	0.592856	0.546511
O19	O	-1.103121	-0.073822	-0.106852
O20	O	-0.769788	0.259512	0.226481
O21	O	-0.436454	0.592845	0.559815
Zn22	Zn	-0.982087	-0.097245	-0.113507
Zn23	Zn	-0.648754	0.236088	0.219827
Zn24	Zn	-0.315420	0.569422	0.553160
Zn25	Zn	-0.982109	0.097178	-0.113485
Zn26	Zn	-0.648775	0.430512	0.219848
Zn27	Zn	-0.315442	0.763845	0.553181
O28	O	-0.975440	-0.073807	-0.234535
O29	O	-0.642107	0.259527	0.098798
O30	O	-0.308773	0.592860	0.432132
C31	C	-0.830092	-0.000026	-0.119610
C32	C	-0.496758	0.333307	0.213724
C33	C	-0.163425	0.666640	0.547057
C34	C	-0.737796	-0.000022	-0.117996
C35	C	-0.404463	0.333311	0.215337
C36	C	-0.071129	0.666644	0.548670
N37	N	-0.982078	-0.229934	-0.113520
N38	N	-0.648745	0.103399	0.219813
N39	N	-0.315412	0.436733	0.553146
C40	C	-0.428797	-0.000034	-0.188486
C41	C	-0.095464	0.333299	0.144848
C42	C	0.237870	0.666632	0.478181
C43	C	-0.515517	-0.000029	-0.190009
C44	C	-0.182184	0.333305	0.143324
C45	C	0.151149	0.666638	0.476657
C46	C	-0.535391	-0.000028	-0.038520
C47	C	-0.202057	0.333305	0.294813
C48	C	0.131276	0.666638	0.628146
C49	C	-0.448672	-0.000028	-0.036998
C50	C	-0.115338	0.333306	0.296336
C51	C	0.217995	0.666639	0.629669
C52	C	-0.395377	-0.000035	-0.111983
C53	C	-0.062043	0.333298	0.221351
C54	C	0.271290	0.666631	0.554684
C55	C	-0.568816	-0.000030	-0.115029
C56	C	-0.235483	0.333303	0.218304
C57	C	0.097850	0.666637	0.551637
C58	C	-0.662842	-0.000024	-0.116681
C59	C	-0.329509	0.333310	0.216653
C60	C	0.003824	0.666643	0.549986
C61	C	-0.301345	-0.000040	-0.110332
C62	C	0.031989	0.333293	0.223002
C63	C	0.365322	0.666627	0.556335
C64	C	-0.982094	-0.410931	-0.113501
C65	C	-0.648760	-0.077598	0.219832
C66	C	-0.315427	0.255735	0.553165
C67	C	-0.913763	-0.448592	-0.181797
C68	C	-0.580430	-0.115259	0.151536
C69	C	-0.247097	0.218075	0.484870
C70	C	-0.913530	-0.551418	-0.181611
C71	C	-0.580196	-0.218085	0.151723
C72	C	-0.246863	0.115249	0.485056
C73	C	-0.982109	-0.589135	-0.113484
C74	C	-0.648775	-0.255802	0.219849
C75	C	-0.315442	0.077531	0.553183
C76	C	-0.963539	-0.551799	-0.026634
C77	C	-0.630206	-0.218465	0.306699
C78	C	-0.296872	0.114868	0.640032
C79	C	-0.963040	-0.448941	-0.027045
C80	C	-0.629706	-0.115608	0.306288
C81	C	-0.296373	0.217725	0.639621
C82	C	-1.069204	-0.448822	-0.131271
C83	C	-0.735871	-0.115489	0.202062
C84	C	-0.402537	0.217845	0.535395
C85	C	-1.068628	-0.551687	-0.133232
C86	C	-0.735295	-0.218353	0.200101
C87	C	-0.401961	0.114980	0.533434
C88	C	-0.982119	-0.689849	-0.113469
C89	C	-0.648786	-0.356515	0.219865
C90	C	-0.315452	-0.023182	0.553198
C91	C	-0.982082	-0.310218	-0.113511
C92	C	-0.648748	0.023115	0.219822
C93	C	-0.315415	0.356449	0.553156
C94	C	-0.134103	-0.000040	-0.107387
C95	C	0.199230	0.333293	0.225946
C96	C	0.532563	0.666627	0.559280
C97	C	-0.226397	-0.000043	-0.109016
C98	C	0.106936	0.333290	0.224318
C99	C	0.440270	0.666624	0.557651
C100	C	-0.988209	-0.000043	0.038510
C101	C	-0.654876	0.333290	0.371843
C102	C	-0.321542	0.666624	0.705177
C103	C	-0.986594	-0.000044	0.130805
C104	C	-0.653260	0.333289	0.464139
C105	C	-0.319927	0.666622	0.797472
N106	N	-0.982124	0.229867	-0.113465
N107	N	-0.648791	0.563200	0.219869
N108	N	-0.315457	0.896534	0.553202
C109	C	-0.975987	-0.000022	-0.265502
C110	C	-0.642654	0.333312	0.067831
C111	C	-0.309320	0.666645	0.401165
C112	C	-0.977602	-0.000015	-0.357797
C113	C	-0.644269	0.333319	-0.024464
C114	C	-0.310935	0.666652	0.308869
C115	C	-1.058602	-0.000034	0.353079
C116	C	-0.725268	0.333300	0.686412
C117	C	-0.391935	0.666633	1.019746
C118	C	-1.057078	-0.000026	0.439799
C119	C	-0.723744	0.333307	0.773133
C120	C	-0.390411	0.666640	1.106466
C121	C	-0.905588	-0.000023	0.419922
C122	C	-0.572255	0.333311	0.753256
C123	C	-0.238922	0.666644	1.086589
C124	C	-0.907113	-0.000024	0.333204
C125	C	-0.573780	0.333310	0.666537
C126	C	-0.240447	0.666643	0.999870
C127	C	-0.983622	-0.000034	0.299785
C128	C	-0.650289	0.333300	0.633118
C129	C	-0.316956	0.666633	0.966451
C130	C	-0.980573	-0.000025	0.473224
C131	C	-0.647240	0.333308	0.806557
C132	C	-0.313907	0.666641	1.139890
C133	C	-0.978920	-0.000017	0.567250
C134	C	-0.645587	0.333316	0.900583
C135	C	-0.312254	0.666649	1.233916
C136	C	-0.985276	-0.000040	0.205753
C137	C	-0.651942	0.333293	0.539086
C138	C	-0.318609	0.666627	0.872419
H139	H	-0.385406	-0.000040	-0.249544
H140	H	-0.052073	0.333293	0.083790
H141	H	0.281261	0.666627	0.417123
H142	H	-1.120900	-0.000040	0.325873
H143	H	-0.787567	0.333293	0.659206
H144	H	-0.454233	0.666627	0.992539
H145	H	-0.578794	-0.000024	0.022530
H146	H	-0.245460	0.333309	0.355863
H147	H	0.087873	0.666642	0.689197
H148	H	-0.924578	-0.423864	-0.246565
H149	H	-0.591245	-0.090530	0.086768
H150	H	-0.257911	0.242803	0.420101
H151	H	-1.118133	-0.000024	0.483189
H152	H	-0.784800	0.333309	0.816522
H153	H	-0.451467	0.666642	1.149856
F154	F	-0.413102	-0.000019	0.044432
F155	F	-0.079769	0.333314	0.377765
F156	F	0.253565	0.666647	0.711098
F157	F	-1.135664	-0.416981	-0.066181
F158	F	-0.802331	-0.083648	0.267153
F159	F	-0.468997	0.249686	0.600486
F160	F	-0.551081	-0.000024	-0.271434
F161	F	-0.217748	0.333309	0.061899
F162	F	0.115585	0.666642	0.395232
H163	H	-0.899522	-0.424965	-0.011434
H164	H	-0.566189	-0.091631	0.321899
H165	H	-0.232856	0.241702	0.655233
H166	H	-0.924535	-0.576663	-0.246159
H167	H	-0.591201	-0.243330	0.087175
H168	H	-0.257868	0.090004	0.420508
H169	H	-0.849476	-0.422760	-0.170572
H170	H	-0.516143	-0.089427	0.162761
H171	H	-0.182810	0.243906	0.496095
F172	F	-1.138179	-0.585243	-0.072456
F173	F	-0.804846	-0.251910	0.260877
F174	F	-0.471513	0.081423	0.594211
F175	F	-1.025640	-0.416372	0.041399
F176	F	-0.692307	-0.083039	0.374732
F177	F	-0.358974	0.250294	0.708065
F178	F	-0.829034	-0.583604	-0.166721
F179	F	-0.495701	-0.250271	0.166612
F180	F	-0.162368	0.083063	0.499946
F181	F	-1.026887	-0.583728	0.041418
F182	F	-0.693554	-0.250394	0.374752
F183	F	-0.360220	0.082939	0.708085
F184	F	-0.881476	-0.585485	-0.005731
F185	F	-0.548143	-0.252152	0.327602
F186	F	-0.214809	0.081181	0.660935
H187	H	-1.087133	-0.422885	-0.193271
H188	H	-0.753800	-0.089551	0.140063
H189	H	-0.420466	0.243782	0.473396
F190	F	-1.087058	-0.583579	-0.216744
F191	F	-0.753725	-0.250246	0.116589
F192	F	-0.420391	0.083088	0.449922
H193	H	-0.846052	-0.000021	0.289808
H194	H	-0.512719	0.333312	0.623142
H195	H	-0.179386	0.666646	0.956475
H196	H	-0.843297	-0.000016	0.447143
H197	H	-0.509964	0.333317	0.780476
H198	H	-0.176631	0.666650	1.113810
