data_functionalizedCrystal
_audit_creation_method	'MofGen! by Chris Wilmer'
_symmetry_space_group_name_H-M	'P1'
_symmetry_Int_Tables_number	1
_symmetry_cell_setting	triclinic
loop_
_symmetry_equiv_pos_as_xyz
  x,y,z
_cell_length_a	17.019383
_cell_length_b	16.098524
_cell_length_c	16.109301
_cell_angle_alpha	86.933289
_cell_angle_beta	96.569407
_cell_angle_gamma	96.939080
loop_
_atom_site_label
_atom_site_type_symbol
_atom_site_fract_x
_atom_site_fract_y
_atom_site_fract_z
O1	O	1.053217	0.144720	-0.112909
O2	O	0.822801	0.128213	-0.125613
O3	O	0.944338	0.136912	0.001754
O4	O	0.931680	0.136022	-0.240276
O5	O	0.938011	-0.002056	0.008409
O6	O	0.816474	-0.010754	-0.118958
O7	O	1.046890	0.005753	-0.106254
Zn8	Zn	0.930678	-0.024565	-0.111549
Zn9	Zn	0.939014	0.158531	-0.120318
O10	O	0.925353	-0.002945	-0.233621
C11	C	0.790153	0.056617	-0.121670
C12	C	0.702298	0.050323	-0.119828
C13	C	0.664465	0.123111	-0.122592
C14	C	0.581914	0.117185	-0.120873
C15	C	0.537198	0.038470	-0.116385
C16	C	0.575036	-0.034323	-0.113623
C17	C	0.657585	-0.028396	-0.115348
C18	C	0.287781	0.016784	-0.111002
C19	C	0.205226	0.010862	-0.109276
C20	C	0.212109	0.162371	-0.116527
C21	C	0.294660	0.168291	-0.118246
C22	C	0.332491	0.095498	-0.115489
C23	C	0.452818	0.032410	-0.114626
C24	C	0.416869	0.101558	-0.117254
N25	N	0.924994	-0.149522	-0.105564
C26	C	0.970989	-0.189805	-0.154038
C27	C	0.967024	-0.277278	-0.149846
C28	C	0.917059	-0.324468	-0.097184
C29	C	0.871063	-0.284179	-0.048705
C30	C	0.875032	-0.196706	-0.052893
C31	C	0.902676	-0.588750	-0.082005
C32	C	0.898708	-0.676229	-0.077822
C33	C	0.994671	-0.669322	-0.178962
C34	C	0.998633	-0.581849	-0.183150
C35	C	0.952640	-0.541567	-0.134667
C36	C	0.913003	-0.413880	-0.092900
C37	C	0.956700	-0.452156	-0.138948
C38	C	1.079538	0.077351	-0.110197
C39	C	1.167393	0.083650	-0.112039
C40	C	0.940662	0.067391	0.036058
C41	C	0.939125	0.067280	0.128357
N42	N	0.944703	0.283488	-0.126296
C43	C	0.929029	0.066577	-0.267925
C44	C	0.930567	0.066694	-0.360224
C45	C	1.007668	0.072203	0.350452
C46	C	1.006218	0.072106	0.437175
C47	C	0.862018	0.061772	0.417674
C48	C	0.863469	0.061876	0.330952
C49	C	0.936297	0.067087	0.297343
C50	C	0.933395	0.066887	0.470790
C51	C	0.931822	0.066781	0.564819
C52	C	0.937870	0.067194	0.203307
H53	H	0.181298	0.221635	-0.118774
C54	C	1.084733	0.077727	0.495592
N55	N	1.143873	0.081959	0.539591
H56	H	0.997384	-0.413730	-0.181822
H57	H	0.805346	0.057711	0.287708
C58	C	1.087781	0.077945	0.313485
N59	N	1.148125	0.082274	0.285644
C60	C	1.053604	-0.529946	-0.241076
N61	N	1.095008	-0.490853	-0.284707
C62	C	0.540303	0.197258	-0.123902
N63	N	0.508963	0.257573	-0.126180
H64	H	0.802724	0.057528	0.445049
C65	C	0.699201	-0.108469	-0.112305
N66	N	0.730545	-0.168782	-0.110014
C67	C	0.156041	-0.075734	-0.104335
N68	N	0.118994	-0.140955	-0.100611
H69	H	0.700867	0.187209	-0.126244
C70	C	0.329385	-0.063292	-0.107960
N71	N	0.360724	-0.123609	-0.105665
H72	H	0.538622	-0.098415	-0.109974
H73	H	1.032117	-0.702129	-0.218433
H74	H	0.331063	0.232389	-0.121895
H75	H	0.872321	-0.452311	-0.050023
C76	C	1.025955	-0.137904	-0.211970
N77	N	1.067360	-0.098814	-0.255603
H78	H	0.416401	-0.031680	-0.110969
C79	C	1.017591	-0.321588	-0.203204
N80	N	1.055670	-0.354961	-0.243408
C81	C	0.843748	-0.728135	-0.019880
N82	N	0.802355	-0.767231	0.023761
H83	H	0.453279	0.165648	-0.120913
H84	H	0.865225	-0.555964	-0.042527
C85	C	0.824432	-0.152396	0.000430
N86	N	0.786320	-0.119023	0.040596
C87	C	0.816099	-0.336091	0.009222
N88	N	0.774696	-0.375190	0.052850
