data_functionalizedCrystal
_audit_creation_method	'MofGen! by Chris Wilmer'
_symmetry_space_group_name_H-M	'P1'
_symmetry_Int_Tables_number	1
_symmetry_cell_setting	triclinic
loop_
_symmetry_equiv_pos_as_xyz
  x,y,z
_cell_length_a	18.050582
_cell_length_b	12.759401
_cell_length_c	12.759400
_cell_angle_alpha	89.985155
_cell_angle_beta	89.980852
_cell_angle_gamma	90.011721
loop_
_atom_site_label
_atom_site_type_symbol
_atom_site_fract_x
_atom_site_fract_y
_atom_site_fract_z
Zn1	Zn	-0.419867	-1.606185	-0.418329
Zn2	Zn	-0.295684	-1.606100	-0.594009
Zn3	Zn	-0.295698	-1.430508	-0.418346
Zn4	Zn	-0.419840	-1.430476	-0.593967
O5	O	-0.357772	-1.518317	-0.506162
O6	O	-0.403399	-1.753195	-0.441644
O7	O	-0.191761	-1.582786	-0.570732
O8	O	-0.312186	-1.453861	-0.271322
O9	O	-0.312163	-1.753133	-0.570716
O10	O	-0.403413	-1.582930	-0.271310
O11	O	-0.191771	-1.453779	-0.441673
O12	O	-0.312160	-1.283483	-0.441631
O13	O	-0.523768	-1.453806	-0.570643
O14	O	-0.403366	-1.283459	-0.570659
O15	O	-0.523788	-1.582899	-0.441602
O16	O	-0.312137	-1.582754	-0.741025
O17	O	-0.403353	-1.453724	-0.740993
C18	C	-0.357762	-1.245350	-0.506143
C19	C	-0.357775	-1.128573	-0.506160
C20	C	-0.551478	-1.518359	-0.506116
C21	C	-0.634024	-1.518376	-0.506096
C22	C	-0.357757	-1.518255	-0.779130
C23	C	-0.357775	-1.518324	-0.895906
C24	C	-0.833464	-1.448229	-0.576172
C25	C	-0.882852	-1.544088	-0.601854
C26	C	-0.785154	-1.518428	-0.506016
C27	C	-0.882847	-1.422622	-0.480305
C28	C	-0.931139	-1.518469	-0.505940
C29	C	-0.833455	-1.614337	-0.531747
C30	C	-0.833446	-1.492806	-0.410155
C31	C	-0.882813	-1.588731	-0.435799
C32	C	-0.701056	-1.518402	-0.506062
C33	C	-1.015236	-1.518506	-0.505894
C34	C	-0.164820	-1.518337	-0.506133
C35	C	-0.082275	-1.518523	-0.505857
C36	C	-0.357783	-1.792351	-0.506183
C37	C	-0.357787	-1.909127	-0.506191
C38	C	-0.405188	-1.073727	-0.573453
C39	C	-0.405196	-0.964003	-0.573466
C40	C	-0.310372	-0.963982	-0.438891
C41	C	-0.310369	-1.073704	-0.438874
C42	C	-0.459931	-1.073738	-0.651151
C43	C	-0.459940	-0.964014	-0.651165
C44	C	-0.310331	-1.585585	-0.950750
C45	C	-0.310354	-1.585650	-1.060474
C46	C	-0.405267	-1.451184	-1.060501
C47	C	-0.405247	-1.451125	-0.950779
C48	C	-0.255531	-1.663215	-0.950735
C49	C	-0.255554	-1.663279	-1.060459
C50	C	-0.357804	-1.518409	-0.232129
C51	C	-0.357818	-1.518447	-0.115353
H52	H	-0.811796	-1.388920	-0.635579
F53	F	-0.180366	-1.634882	-1.099473
F54	F	-0.911219	-1.572448	-0.707772
F55	F	-0.259917	-1.132072	-0.367236
F56	F	-0.805220	-1.720291	-0.560259
H57	H	-0.276203	-1.740580	-1.094410
F58	F	-0.805057	-1.464412	-0.304265
F59	F	-0.259923	-0.905576	-0.367283
H60	H	-0.904344	-1.648182	-0.376438
F61	F	-0.911206	-1.316699	-0.451921
H62	H	-0.517475	-1.103536	-0.629470
H63	H	-0.270978	-1.744556	-0.920882
F64	F	-0.432931	-1.118207	-0.752145
H65	H	-0.514617	-0.930007	-0.622137
F66	F	-0.455753	-1.379552	-0.892414
F67	F	-0.439657	-0.925067	-0.757478
H68	H	-0.200872	-1.634099	-0.916771
H69	H	-0.443917	-1.396473	-1.105192
