data_functionalizedCrystal
_audit_creation_method	'MofGen! by Chris Wilmer'
_symmetry_space_group_name_H-M	'P1'
_symmetry_Int_Tables_number	1
_symmetry_cell_setting	triclinic
loop_
_symmetry_equiv_pos_as_xyz
  x,y,z
_cell_length_a	18.050591
_cell_length_b	10.685676
_cell_length_c	10.686551
_cell_angle_alpha	89.695509
_cell_angle_beta	94.392811
_cell_angle_gamma	94.386127
loop_
_atom_site_label
_atom_site_type_symbol
_atom_site_fract_x
_atom_site_fract_y
_atom_site_fract_z
Zn1	Zn	-1.149107	0.444954	-0.747513
Zn2	Zn	-0.649107	0.944954	-0.247513
Zn3	Zn	-1.130090	0.670863	-0.553848
Zn4	Zn	-0.630090	1.170863	-0.053848
Zn5	Zn	-1.014707	0.461111	-0.537779
Zn6	Zn	-0.514707	0.961111	-0.037779
Zn7	Zn	-1.016166	0.654666	-0.763565
Zn8	Zn	-0.516166	1.154666	-0.263565
O9	O	-1.077517	0.557899	-0.650676
O10	O	-0.577517	1.057899	-0.150676
O11	O	-1.250508	0.474938	-0.721830
O12	O	-0.750508	0.974938	-0.221830
O13	O	-1.106214	0.656579	-0.376175
O14	O	-0.606214	1.156579	0.123825
O15	O	-1.039884	0.283421	-0.552157
O16	O	-0.539884	0.783421	-0.052157
O17	O	-1.236536	0.640912	-0.579545
O18	O	-0.736536	1.140912	-0.079545
O19	O	-1.138627	0.271551	-0.706248
O20	O	-0.638627	0.771551	-0.206248
O21	O	-1.021443	0.502475	-0.364369
O22	O	-0.521443	1.002475	0.135631
O23	O	-0.910976	0.486770	-0.567722
O24	O	-0.410976	0.986770	-0.067722
O25	O	-1.042371	0.613308	-0.936977
O26	O	-0.542371	1.113308	-0.436977
O27	O	-0.912049	0.628974	-0.733606
O28	O	-0.412049	1.128974	-0.233606
O29	O	-1.140042	0.459233	-0.925184
O30	O	-0.640042	0.959233	-0.425184
O31	O	-1.107629	0.844261	-0.595110
O32	O	-0.607629	1.344261	-0.095110
O33	O	-1.023930	0.832362	-0.749188
O34	O	-0.523930	1.332362	-0.249188
C35	C	-0.884566	0.557869	-0.650663
C36	C	-0.384566	1.057869	-0.150663
C37	C	-0.802021	0.557884	-0.650690
C38	C	-0.302021	1.057884	-0.150690
C39	C	-1.063896	0.883827	-0.675662
C40	C	-0.563896	1.383827	-0.175662
C41	C	-1.058139	1.023257	-0.686394
C42	C	-0.558139	1.523257	-0.186394
C43	C	-1.093490	0.532662	-0.977869
C44	C	-0.593490	1.032662	-0.477869
C45	C	-1.100297	0.521907	-1.117299
C46	C	-0.600297	1.021907	-0.617299
C47	C	-1.271222	0.557930	-0.650690
C48	C	-0.771222	1.057930	-0.150690
C49	C	-1.353768	0.557943	-0.650695
C50	C	-0.853768	1.057943	-0.150695
C51	C	-0.553787	0.635397	-0.740797
C52	C	-0.053787	1.135397	-0.240797
C53	C	-0.596311	0.674733	-0.628641
C54	C	-0.096311	1.174733	-0.128641
C55	C	-0.504899	0.557924	-0.650691
C56	C	-0.004899	1.057924	-0.150691
C57	C	-0.609454	0.518627	-0.762844
C58	C	-0.109454	1.018627	-0.262844
C59	C	-0.650885	0.557907	-0.650697
C60	C	-0.150885	1.057907	-0.150697
C61	C	-0.546330	0.597324	-0.538479
C62	C	-0.046330	1.097324	-0.038479
C63	C	-0.559475	0.441159	-0.672755
C64	C	-0.059475	0.941159	-0.172755
C65	C	-0.601975	0.480458	-0.560517
C66	C	-0.101975	0.980458	-0.060517
C67	C	-0.420800	0.557936	-0.650689
C68	C	0.079200	1.057936	-0.150689
C69	C	-0.734981	0.557895	-0.650685
C70	C	-0.234981	1.057895	-0.150685
C71	C	-1.091208	1.230695	-0.625634
C72	C	-0.591208	1.730695	-0.125634
C73	C	-1.097027	1.091257	-0.614999
C74	C	-0.597027	1.591257	-0.114999
C75	C	-1.061653	0.582947	-0.324749
C76	C	-0.561653	1.082947	0.175251
C77	C	-1.055005	0.593348	-0.185292
C78	C	-0.555005	1.093348	0.314708
H79	H	-0.532601	0.700981	-0.816910
H80	H	-0.032601	1.200981	-0.316910
F81	F	-0.997516	0.684055	-1.121960
F82	F	-0.497516	1.184055	-0.621960
F83	F	-1.157796	0.431208	-1.180638
F84	F	-0.657796	0.931208	-0.680638
H85	H	-1.020443	1.071708	-0.755731
H86	H	-0.520443	1.571708	-0.255731
F87	F	-0.617734	0.803791	-0.604239
F88	F	-0.117734	1.303791	-0.104239
F89	F	-0.510501	0.640907	-0.414485
F90	F	-0.010501	1.140907	0.085515
H91	H	-0.623013	0.414940	-0.484238
H92	H	-0.123013	0.914940	0.015762
H93	H	-0.636954	0.485398	-0.857688
H94	H	-0.136954	0.985398	-0.357688
F95	F	-0.538033	0.312132	-0.697204
F96	F	-0.038033	0.812132	-0.197204
H97	H	-1.134732	1.042801	-0.545667
H98	H	-0.634732	1.542801	-0.045667
