data_functionalizedCrystal
_audit_creation_method	'MofGen! by Chris Wilmer'
_symmetry_space_group_name_H-M	'P1'
_symmetry_Int_Tables_number	1
_symmetry_cell_setting	triclinic
loop_
_symmetry_equiv_pos_as_xyz
  x,y,z
_cell_length_a	10.686220
_cell_length_b	10.685194
_cell_length_c	10.686551
_cell_angle_alpha	98.415440
_cell_angle_beta	89.692081
_cell_angle_gamma	99.069920
loop_
_atom_site_label
_atom_site_type_symbol
_atom_site_fract_x
_atom_site_fract_y
_atom_site_fract_z
Zn1	Zn	1.946782	-0.311304	0.540468
Zn2	Zn	2.280115	0.022029	0.873801
Zn3	Zn	2.613449	0.355363	1.207134
Zn4	Zn	1.911616	-0.542425	0.314432
Zn5	Zn	2.244950	-0.209091	0.647765
Zn6	Zn	2.578283	0.124242	0.981099
Zn7	Zn	1.718224	-0.343970	0.344484
Zn8	Zn	2.051557	-0.010636	0.677817
Zn9	Zn	2.384891	0.322697	1.011151
Zn10	Zn	1.718258	-0.539838	0.540391
Zn11	Zn	2.051592	-0.206504	0.873724
Zn12	Zn	2.384925	0.126829	1.207058
O13	O	1.823720	-0.434384	0.434944
O14	O	2.157054	-0.101051	0.768277
O15	O	2.490387	0.232283	1.101610
O16	O	2.118691	-0.329375	0.497939
O17	O	2.452024	0.003959	0.831272
O18	O	2.785357	0.337292	1.164605
O19	O	1.871231	-0.530853	0.141834
O20	O	2.204564	-0.197519	0.475167
O21	O	2.537898	0.135814	0.808500
O22	O	1.763245	-0.160940	0.383091
O23	O	2.096579	0.172393	0.716424
O24	O	2.429912	0.505726	1.049757
O25	O	2.092854	-0.499178	0.331871
O26	O	2.426188	-0.165845	0.665205
O27	O	2.759521	0.167489	0.998538
O28	O	1.931166	-0.136941	0.527079
O29	O	2.264499	0.196392	0.860412
O30	O	2.597833	0.529726	1.193746
O31	O	1.729147	-0.385049	0.163913
O32	O	2.062480	-0.051715	0.497246
O33	O	2.395813	0.281618	0.830580
O34	O	1.541655	-0.382540	0.383016
O35	O	1.874989	-0.049207	0.716350
O36	O	2.208322	0.284127	1.049683
O37	O	1.763304	-0.494769	0.716986
O38	O	2.096637	-0.161435	1.050319
O39	O	2.429971	0.171898	1.383653
O40	O	1.541681	-0.526443	0.526948
O41	O	1.875014	-0.193110	0.860282
O42	O	2.208347	0.140223	1.193615
O43	O	1.931199	-0.326866	0.717042
O44	O	2.264533	0.006467	1.050376
O45	O	2.597866	0.339801	1.383709
O46	O	1.871265	-0.720778	0.331797
O47	O	2.204598	-0.387444	0.665130
O48	O	2.537931	-0.054111	0.998464
O49	O	1.729205	-0.718877	0.497808
O50	O	2.062539	-0.385544	0.831142
O51	O	2.395872	-0.052210	1.164475
C52	C	1.495884	-0.457757	0.458236
C53	C	1.829218	-0.124423	0.791569
C54	C	2.162551	0.208910	1.124902
C55	C	1.355635	-0.467784	0.468228
C56	C	1.688968	-0.134450	0.801561
C57	C	2.022302	0.198883	1.134895
C58	C	1.796459	-0.766156	0.411558
C59	C	2.129793	-0.432823	0.744892
C60	C	2.463126	-0.099490	1.078225
C61	C	1.784916	-0.908078	0.401588
C62	C	2.118249	-0.574745	0.734921
C63	C	2.451582	-0.241412	1.068254
C64	C	2.152836	-0.410921	0.411561
C65	C	2.486169	-0.077588	0.744895
C66	C	2.819503	0.255746	1.078228
C67	C	2.293086	-0.400922	0.401597
C68	C	2.626419	-0.067589	0.734930
C69	C	2.959752	0.265744	1.068264
C70	C	1.851178	-0.406885	0.764081
C71	C	2.184511	-0.073552	1.097414
C72	C	2.517845	0.259782	1.430747
C73	C	1.862879	-0.395166	0.904339
C74	C	2.196212	-0.061833	1.237673
C75	C	2.529546	0.271500	1.571006
C76	C	1.851124	-0.101311	0.458446
C77	C	2.184458	0.232022	0.791779
C78	C	2.517791	0.565355	1.125112
C79	C	1.862802	0.040625	0.468461
C80	C	2.196136	0.373958	0.801794
C81	C	2.529469	0.707291	1.135127
C82	C	1.796449	-0.461679	0.107089
C83	C	2.129783	-0.128345	0.440422
C84	C	2.463116	0.204988	0.773755
C85	C	1.785022	-0.473020	-0.033161
C86	C	2.118356	-0.139687	0.300172
C87	C	2.451689	0.193647	0.633505
H88	H	1.301890	-0.532699	0.532916
H89	H	1.635224	-0.199366	0.866250
H90	H	1.968557	0.133967	1.199583
H91	H	1.709386	-0.972743	0.336709
H92	H	2.042719	-0.639409	0.670042
H93	H	2.376052	-0.306076	1.003375
C94	C	1.964817	-0.872042	0.556126
C95	C	2.298150	-0.538708	0.889459
C96	C	2.631483	-0.205375	1.222793
H97	H	2.012122	-0.923252	0.596753
H98	H	2.345456	-0.589919	0.930086
H99	H	2.678789	-0.256585	1.263419
H100	H	2.020002	-0.820090	0.507619
H101	H	2.353335	-0.486756	0.840952
H102	H	2.686669	-0.153423	1.174286
H103	H	1.925250	-0.818911	0.618115
H104	H	2.258583	-0.485577	0.951448
H105	H	2.591917	-0.152244	1.284782
H106	H	1.709418	-0.548642	0.913044
H107	H	2.042751	-0.215309	1.246378
H108	H	2.376085	0.118025	1.579711
H109	H	1.346835	-0.336011	0.336896
H110	H	1.680168	-0.002678	0.670229
H111	H	2.013502	0.330655	1.003563
C112	C	1.965032	-0.293010	0.977007
C113	C	2.298366	0.040323	1.310340
C114	C	2.631699	0.373656	1.643673
H115	H	1.959761	-0.298265	1.064906
H116	H	2.293095	0.035069	1.398240
H117	H	2.626428	0.368402	1.731573
H118	H	2.046495	-0.307435	0.948120
H119	H	2.379829	0.025898	1.281453
H120	H	2.713162	0.359231	1.614787
H121	H	1.951844	-0.210300	0.962839
H122	H	2.285177	0.123033	1.296172
H123	H	2.618510	0.456366	1.629505
