data_functionalizedCrystal
_audit_creation_method	'MofGen! by Chris Wilmer'
_symmetry_space_group_name_H-M	'P1'
_symmetry_Int_Tables_number	1
_symmetry_cell_setting	triclinic
loop_
_symmetry_equiv_pos_as_xyz
  x,y,z
_cell_length_a	6.817900
_cell_length_b	15.866870
_cell_length_c	10.943624
_cell_angle_alpha	110.425160
_cell_angle_beta	108.838799
_cell_angle_gamma	102.655915
loop_
_atom_site_label
_atom_site_type_symbol
_atom_site_fract_x
_atom_site_fract_y
_atom_site_fract_z
V1	V	-4.123267	-0.132606	-0.465660
O2	O	-4.072829	0.006398	-0.391843
O3	O	-4.108858	-0.262961	-0.524945
O4	O	-4.101110	-0.130555	-0.640251
O5	O	-4.080631	-0.126924	-0.275739
V6	V	-4.599090	-0.115981	-0.435356
O7	O	-4.401416	-0.169075	-0.532137
O8	O	-4.771139	-0.079512	-0.368879
O9	O	-4.390293	0.014373	-0.376071
O10	O	-4.766925	-0.254985	-0.509173
O11	O	-4.759124	-0.121663	-0.625277
O12	O	-4.398041	-0.118032	-0.260765
C13	C	-3.961278	-0.294739	-0.533718
C14	C	-4.030959	-0.401305	-0.583354
C15	C	-3.950655	-0.683418	-0.122938
C16	C	-4.016146	-0.783558	-0.169621
C17	C	-4.139936	-0.810895	-0.419093
C18	C	-4.074444	-0.710755	-0.372429
C19	C	-3.979808	-0.647024	-0.224350
C20	C	-4.103597	-0.674361	-0.473842
C21	C	-4.038121	-0.574230	-0.427182
C22	C	-3.943492	-0.510493	-0.279110
C23	C	-3.914333	-0.546893	-0.177691
C24	C	-4.198248	-0.738094	-0.621921
C25	C	-4.227401	-0.701700	-0.723333
C26	C	-4.161910	-0.601567	-0.676673
C27	C	-4.067281	-0.537830	-0.528601
C28	C	-4.191070	-0.565167	-0.778093
C29	C	-4.125594	-0.465036	-0.731433
C30	C	-4.001805	-0.437699	-0.481941
C31	C	-3.951393	-0.125841	-0.680800
C32	C	-4.014785	-0.125027	-0.823939
C33	C	-3.859294	-0.119542	-0.898476
C34	C	-4.053424	-0.200952	-1.043210
C35	C	-3.933636	-0.042175	-0.934259
C36	C	-4.208130	-0.206513	-0.966833
C37	C	-4.088258	-0.047664	-0.857824
C38	C	-4.282526	-0.129097	-1.002539
C39	C	-4.201216	0.046146	-0.367297
C40	C	-4.110775	0.152712	-0.317670
C41	C	-4.211100	-0.122749	-0.220211
C42	C	-4.126945	-0.123559	-0.077068
H43	H	-3.837238	-0.494998	-0.057108
H44	H	-3.992393	-0.813184	-0.087027
C45	C	-4.270112	-0.848238	-0.673236
N46	N	-4.324178	-0.931196	-0.711882
H47	H	-3.924711	-0.385804	-0.361359
C48	C	-3.616896	-0.114234	-0.837239
N49	N	-3.434329	-0.110243	-0.791115
C50	C	-4.525101	-0.134598	-1.063631
N51	N	-4.707814	-0.138753	-1.109672
C52	C	-3.871464	-0.400345	-0.227783
N53	N	-3.817207	-0.317382	-0.189123
C54	C	-4.331476	-0.771814	-0.886215
N55	N	-4.409849	-0.824623	-1.008899
C56	C	-4.034421	-0.288493	-1.151015
N57	N	-4.020091	-0.354424	-1.232208
C58	C	-4.107129	0.039890	-0.749968
N59	N	-4.121317	0.105843	-0.668721
C60	C	-3.846544	-0.613307	0.039958
N61	N	-3.768137	-0.560501	0.162645
C62	C	-4.364106	-0.300448	-0.983788
N63	N	-4.481575	-0.371201	-0.996556
H64	H	-4.217003	-0.862798	-0.539660
C65	C	-4.295167	-0.635284	-0.940975
N66	N	-4.373565	-0.688096	-1.063659
H67	H	-4.149366	-0.435405	-0.814015
C68	C	-3.777697	0.051661	-0.917581
N69	N	-3.660230	0.122335	-0.905016
