data_functionalizedCrystal
_audit_creation_method	'MofGen! by Chris Wilmer'
_symmetry_space_group_name_H-M	'P1'
_symmetry_Int_Tables_number	1
_symmetry_cell_setting	triclinic
loop_
_symmetry_equiv_pos_as_xyz
  x,y,z
_cell_length_a	20.919309
_cell_length_b	16.704494
_cell_length_c	16.704494
_cell_angle_alpha	60.174809
_cell_angle_beta	90.228451
_cell_angle_gamma	60.955789
loop_
_atom_site_label
_atom_site_type_symbol
_atom_site_fract_x
_atom_site_fract_y
_atom_site_fract_z
Zr1	Zr	0.680589	0.800964	-0.107766
O2	O	0.586906	0.963754	-0.241974
O3	O	0.704162	0.636000	-0.061232
O4	O	0.717617	0.785055	-0.227157
O5	O	0.568691	0.828005	0.048702
O6	O	0.826579	0.774979	-0.221603
O7	O	0.573450	0.814698	-0.076049
O8	O	0.802510	0.508347	0.075207
O9	O	0.592760	1.094638	-0.248108
O10	O	0.801750	0.697137	-0.043755
O11	O	0.716881	0.714588	0.045200
O12	O	0.732723	0.890081	-0.150156
O13	O	0.647854	0.907532	-0.061201
Zr14	Zr	0.846780	0.806117	0.100055
Zr15	Zr	0.854371	0.784893	-0.098908
Zr16	Zr	0.672998	0.822187	0.091197
Zr17	Zr	0.689926	1.009709	-0.117549
Zr18	Zr	0.837443	0.597371	0.109838
O19	O	0.823207	0.971080	0.053521
O20	O	0.834001	0.940904	-0.229379
O21	O	0.576112	0.993930	0.040926
O22	O	0.940464	0.643327	0.234263
O23	O	0.951257	0.613150	-0.048636
O24	O	0.693368	0.666177	0.221668
O25	O	0.958679	0.779075	-0.056412
O26	O	0.809752	0.822025	0.219446
O27	O	0.700790	0.832101	0.213892
O28	O	0.953919	0.792382	0.068338
O29	O	0.730893	1.081864	-0.241067
O30	O	0.796476	0.525216	0.233356
O31	O	0.934609	0.512442	0.240397
O32	O	0.940643	0.495573	0.082248
O33	O	0.586726	1.111507	-0.089959
O34	O	0.724859	1.098734	-0.082918
O35	O	0.794646	0.716999	0.142445
O36	O	0.879515	0.699549	0.053490
O37	O	0.810488	0.892492	-0.052911
O38	O	0.725619	0.909943	0.036044
C39	C	0.752006	0.542432	0.008381
C40	C	0.748042	0.453814	0.012534
C41	C	0.829216	0.269056	-0.072524
C42	C	0.825494	0.185791	-0.068624
C43	C	0.736881	0.204012	0.024239
C44	C	0.740603	0.287277	0.020340
C45	C	0.786771	0.319796	-0.028045
C46	C	0.790488	0.403069	-0.031950
C47	C	0.701880	0.421282	0.060919
C48	C	0.698158	0.338018	0.064818
C49	C	0.546310	0.823642	-0.014936
C50	C	0.472535	0.830464	-0.018696
C51	C	0.473905	0.732957	0.035072
C52	C	0.404584	0.739373	0.031536
C53	C	0.333893	0.843298	-0.025774
C54	C	0.332525	0.940813	-0.079544
C55	C	0.401846	0.934396	-0.076002
C56	C	0.122787	0.867714	-0.039242
C57	C	0.053464	0.874124	-0.042783
C58	C	0.125528	0.672683	0.068299
C59	C	0.194846	0.666275	0.071832
C60	C	0.193472	0.763790	0.018066
C61	C	0.263034	0.849860	-0.029392
C62	C	0.264330	0.757228	0.021690
C63	C	0.981059	0.783439	0.007225
C64	C	1.054834	0.776616	0.010986
C65	C	0.773180	0.776993	-0.252728
C66	C	0.776403	0.767984	-0.337193
C67	C	0.775364	1.064649	-0.016092
C68	C	0.779327	1.153267	-0.020245
C69	C	0.710400	0.952503	-0.607005
C70	C	0.713426	0.944043	-0.686370
C71	C	0.785486	0.742603	-0.575291
C72	C	0.782459	0.751064	-0.495925
C73	C	0.744914	0.856017	-0.511787
C74	C	0.741884	0.864477	-0.432420
C75	C	0.813948	0.663038	-0.321343
C76	C	0.816974	0.654577	-0.400708
C77	C	0.754189	0.830087	0.245017
C78	C	0.750967	0.839097	0.329482
C79	C	0.969380	0.522330	0.019462
C80	C	1.039191	0.426890	0.027375
C81	C	0.742510	0.568978	0.257254
C82	C	0.735324	0.489370	0.345872
C83	C	0.959885	0.548877	0.268334
C84	C	1.026473	0.462447	0.360713
C85	C	0.567485	1.058203	-0.276045
C86	C	0.500896	1.144634	-0.368424
C87	C	0.557989	1.084750	-0.027173
C88	C	0.488178	1.180190	-0.035086
C89	C	0.784859	1.038102	-0.264965
C90	C	0.792045	1.117710	-0.353583
C91	C	1.031383	0.380811	-0.019677
C92	C	1.096973	0.291145	-0.012261
C93	C	1.170369	0.247555	0.042214
C94	C	1.178176	0.293642	0.089268
C95	C	1.112588	0.383312	0.081846
C96	C	0.772542	0.453245	0.438257
C97	C	0.765786	0.378457	0.521530
C98	C	0.721818	0.339790	0.512416
C99	C	0.684596	0.375923	0.420021
C100	C	0.691347	0.450716	0.336750
C101	C	1.102052	0.412748	0.357662
C102	C	1.164627	0.331548	0.444454
C103	C	1.151620	0.300042	0.534296
C104	C	1.076034	0.349749	0.537344
C105	C	1.013461	0.430953	0.450553
C106	C	0.425318	1.194342	-0.365373
C107	C	0.362744	1.275568	-0.452166
C108	C	0.375751	1.307079	-0.542009
C109	C	0.451337	1.257366	-0.545057
C110	C	0.513909	1.176147	-0.458265
C111	C	0.495987	1.226277	0.011958
C112	C	0.430399	1.315964	0.004519
C113	C	0.357003	1.359557	-0.049960
C114	C	0.349196	1.313466	-0.097010
C115	C	0.414783	1.223786	-0.089576
C116	C	0.836020	1.156353	-0.344437
C117	C	0.842787	1.231142	-0.427695
C118	C	0.805575	1.267292	-0.520097
C119	C	0.761599	1.228641	-0.529240
C120	C	0.754837	1.153848	-0.445983
H121	H	0.531461	0.648330	0.081744
F122	F	0.870671	0.131789	-0.115962
H123	H	1.237944	0.258138	0.133621
F124	F	0.637804	0.334760	0.410337
H125	H	0.808345	0.484720	0.445697
H126	H	1.223769	0.174539	0.048251
H127	H	0.679821	1.037962	-0.619921
F128	F	0.574095	1.179901	0.069941
H129	H	0.828078	0.429548	-0.071350
F130	F	0.687773	0.169357	0.075762
H131	H	0.661042	0.480118	0.261529
H132	H	0.667315	0.462609	0.097132
H133	H	0.405706	0.659973	0.075321
F134	F	0.287205	1.455003	-0.057862
H135	H	0.126637	0.593292	0.112073
H136	H	0.685322	1.022612	-0.763898
H137	H	0.408414	1.186265	-0.127883
F138	F	0.721993	1.267133	-0.627590
H139	H	0.400725	1.013798	-0.119775
H140	H	0.289428	1.348973	-0.141366
F141	F	0.856930	0.542885	-0.383839
H142	H	0.796101	0.349047	0.596754
F143	F	1.245065	0.278656	0.441189
H144	H	0.866802	0.295541	-0.111928
F145	F	0.649033	0.303388	0.116321
H146	H	0.436771	1.353477	0.042838
F147	F	0.933025	0.483833	0.453816
H148	H	0.301204	1.316032	-0.449665
F149	F	0.708025	1.112737	-0.455732
F150	F	1.115912	0.446269	0.262054
H151	H	0.274962	1.025431	-0.126202
F152	F	1.120909	0.432338	0.131936
H153	H	0.252403	0.581646	0.118482
F154	F	0.701925	0.976176	-0.449303
F155	F	-0.021773	0.984739	-0.103791
F156	F	0.875631	1.117893	-0.246104
H157	H	0.716327	0.278890	0.580229
F158	F	1.218224	0.213613	0.626660
F159	F	0.953275	0.427189	-0.077663
F160	F	0.889589	1.272269	-0.417944
H161	H	0.205470	0.934475	-0.076054
F162	F	0.121315	0.971499	-0.096468
F163	F	0.309148	1.393521	-0.634373
F164	F	0.339564	0.646628	0.082690
F165	F	1.088648	0.242108	-0.062343
H166	H	0.811087	1.328194	-0.587882
H167	H	1.065455	0.324084	0.610506
H168	H	0.414712	1.168692	-0.292227
H169	H	0.461918	1.283033	-0.618217
H170	H	0.816063	0.657155	-0.562393
F171	F	0.850678	0.560344	-0.219996
F172	F	0.594344	1.123245	-0.461527
