data_functionalizedCrystal
_audit_creation_method	'MofGen! by Chris Wilmer'
_symmetry_space_group_name_H-M	'P1'
_symmetry_Int_Tables_number	1
_symmetry_cell_setting	triclinic
loop_
_symmetry_equiv_pos_as_xyz
  x,y,z
_cell_length_a	16.109293
_cell_length_b	15.186229
_cell_length_c	16.109301
_cell_angle_alpha	89.994833
_cell_angle_beta	96.540124
_cell_angle_gamma	90.006769
loop_
_atom_site_label
_atom_site_type_symbol
_atom_site_fract_x
_atom_site_fract_y
_atom_site_fract_z
O1	O	-1.103135	-0.073301	0.106835
O2	O	-0.861072	-0.073288	0.120141
O3	O	-0.988753	-0.073286	-0.007543
O4	O	-0.975454	-0.073303	0.234519
O5	O	-0.988744	0.073172	-0.007545
O6	O	-0.861063	0.073169	0.120139
O7	O	-1.103126	0.073156	0.106833
Zn8	Zn	-0.982093	0.096416	0.113486
Zn9	Zn	-0.982105	-0.096548	0.113488
O10	O	-0.975445	0.073154	0.234517
C11	C	-0.830093	-0.000057	0.119602
C12	C	-0.737797	-0.000052	0.117990
C13	C	-0.525451	0.079779	0.114260
C14	C	-0.438730	0.079779	0.112736
C15	C	-0.438750	-0.079897	0.112742
C16	C	-0.525469	-0.079896	0.114260
C17	C	-0.568817	-0.000055	0.115024
C18	C	-0.395377	-0.000057	0.111981
C19	C	-0.301351	-0.000058	0.110329
C20	C	-0.662849	-0.000053	0.116675
C21	C	-0.988210	-0.000057	-0.038519
C22	C	-0.986595	-0.000055	-0.130814
N23	N	-0.982092	0.228109	0.113484
C24	C	-0.134104	-0.000069	0.107380
C25	C	-0.226397	-0.000060	0.109015
N26	N	-0.982113	-0.228240	0.113484
C27	C	-1.038648	0.453833	0.056964
C28	C	-1.038651	0.546022	0.056962
C29	C	-0.925550	0.546030	0.170006
C30	C	-0.925544	0.453842	0.170003
C31	C	-0.982098	0.407745	0.113483
C32	C	-0.982107	0.592123	0.113484
C33	C	-0.982109	0.692079	0.113482
C34	C	-0.982095	0.307783	0.113484
C35	C	-1.058603	-0.000073	-0.353089
C36	C	-1.057079	-0.000080	-0.439809
C37	C	-0.905589	-0.000069	-0.419930
C38	C	-0.907114	-0.000068	-0.333212
C39	C	-0.983624	-0.000066	-0.299793
C40	C	-0.980575	-0.000074	-0.473232
C41	C	-0.978921	-0.000081	-0.567258
C42	C	-0.985277	-0.000059	-0.205761
C43	C	-0.975988	-0.000077	0.265493
C44	C	-0.977603	-0.000084	0.357788
H45	H	-0.560780	-0.144910	0.114880
O46	O	-1.093608	0.409191	0.001978
C47	C	-1.143534	0.469642	-0.047894
H48	H	-1.109451	0.535363	-0.048838
H49	H	-1.156232	0.443014	-0.114290
H50	H	-1.205287	0.479431	-0.020885
H51	H	-0.403446	-0.144901	0.112122
H52	H	-1.084698	0.583544	0.010938
H53	H	-0.879507	0.583570	0.216025
O54	O	-0.396496	0.157272	0.112103
C55	C	-0.336905	0.162058	0.183194
H56	H	-0.320775	0.092741	0.206962
H57	H	-0.278044	0.195845	0.165934
H58	H	-0.363708	0.201458	0.234170
O59	O	-0.870577	0.409203	0.224991
C60	C	-0.820654	0.469655	0.274868
H61	H	-0.854741	0.535363	0.275823
H62	H	-0.807949	0.443007	0.341260
H63	H	-0.758904	0.479475	0.247856
O64	O	-1.132993	-0.000121	-0.320763
C65	C	-1.198844	-0.000110	-0.386403
H66	H	-1.175549	-0.027833	-0.445303
H67	H	-1.252257	-0.042640	-0.368297
H68	H	-1.221975	0.070149	-0.398688
O69	O	-0.834297	-0.000216	-0.281401
C70	C	-0.830662	-0.076058	-0.230626
H71	H	-0.873186	-0.129075	-0.262398
H72	H	-0.763690	-0.101515	-0.220847
H73	H	-0.852169	-0.058911	-0.167576
O74	O	-1.129892	-0.000242	-0.491613
C75	C	-1.133539	-0.076087	-0.542373
H76	H	-1.091017	-0.129098	-0.510593
H77	H	-1.200514	-0.101552	-0.552140
H78	H	-1.112037	-0.058941	-0.605429
O79	O	-0.831325	-0.000180	-0.452495
C80	C	-0.825902	-0.076041	-0.502040
H81	H	-0.891437	-0.101336	-0.523658
H82	H	-0.792774	-0.058976	-0.558816
H83	H	-0.789111	-0.129152	-0.463712
O84	O	-0.567437	0.157412	0.114953
C85	C	-0.510557	0.227874	0.113971
H86	H	-0.452193	0.204465	0.086586
H87	H	-0.540896	0.283711	0.074063
H88	H	-0.492590	0.252424	0.180468
