data_functionalizedCrystal
_audit_creation_method	'MofGen! by Chris Wilmer'
_symmetry_space_group_name_H-M	'P1'
_symmetry_Int_Tables_number	1
_symmetry_cell_setting	triclinic
loop_
_symmetry_equiv_pos_as_xyz
  x,y,z
_cell_length_a	23.532361
_cell_length_b	23.532407
_cell_length_c	14.586319
_cell_angle_alpha	89.991006
_cell_angle_beta	90.000145
_cell_angle_gamma	82.839173
loop_
_atom_site_label
_atom_site_type_symbol
_atom_site_fract_x
_atom_site_fract_y
_atom_site_fract_z
O1	O	0.755276	0.069008	-0.076158
O2	O	1.255276	0.569008	0.423842
O3	O	0.589409	0.079039	-0.076181
O4	O	1.089409	0.579039	0.423819
O5	O	0.677345	-0.008909	-0.076152
O6	O	1.177345	0.491091	0.423848
O7	O	0.667341	0.156956	-0.076187
O8	O	1.167341	0.656956	0.423813
O9	O	0.677338	-0.008911	0.076329
O10	O	1.177338	0.491089	0.576329
O11	O	0.589402	0.079037	0.076300
O12	O	1.089402	0.579037	0.576300
O13	O	0.755269	0.069006	0.076323
O14	O	1.255269	0.569006	0.576323
Cu15	Cu	0.672335	0.074021	0.090234
Cu16	Cu	1.172335	0.574021	0.590234
Cu17	Cu	0.672344	0.074024	-0.090092
Cu18	Cu	1.172344	0.574024	0.409908
O19	O	0.667334	0.156954	0.076294
O20	O	1.167334	0.656954	0.576294
C21	C	0.568189	0.078787	0.000057
C22	C	1.068189	0.578787	0.500057
C23	C	0.504971	0.078032	0.000049
C24	C	1.004971	0.578032	0.500049
C25	C	0.231731	0.074729	-0.083063
C26	C	0.731731	0.574729	0.416937
C27	C	0.291131	0.075444	-0.083065
C28	C	0.791131	0.575444	0.416935
O29	O	0.321860	0.075795	-0.153751
O30	O	0.821860	0.575795	0.346249
N31	N	0.320832	0.075804	0.000053
N32	N	0.820832	0.575804	0.500053
C33	C	0.291132	0.075444	0.083178
C34	C	0.791132	0.575444	0.583178
O35	O	0.321850	0.075815	0.153876
O36	O	0.821850	0.575815	0.653876
C37	C	0.231734	0.074725	0.083179
C38	C	0.731734	0.574725	0.583179
C39	C	0.202035	0.074370	0.000056
C40	C	0.702035	0.574370	0.500056
C41	C	0.202031	0.074375	-0.166179
C42	C	0.702031	0.574375	0.333821
C43	C	0.142636	0.073661	-0.166176
C44	C	0.642636	0.573661	0.333824
C45	C	0.112939	0.073302	-0.083057
C46	C	0.612939	0.573302	0.416943
C47	C	0.142639	0.073657	0.000059
C48	C	0.642639	0.573657	0.500059
C49	C	0.202036	0.074360	0.166304
C50	C	0.702036	0.574360	0.666304
C51	C	0.142634	0.073640	0.166298
C52	C	0.642634	0.573640	0.666298
C53	C	0.112934	0.073286	0.083175
C54	C	0.612934	0.573286	0.583175
C55	C	0.053547	0.072584	0.083181
C56	C	0.553547	0.572584	0.583181
N57	N	0.023845	0.072224	0.000063
N58	N	0.523845	0.572224	0.500063
C59	C	0.053541	0.072583	-0.083056
C60	C	0.553541	0.572583	0.416944
C61	C	0.415872	0.076953	0.083169
C62	C	0.915872	0.576953	0.583169
C63	C	0.475269	0.077676	0.083168
C64	C	0.975269	0.577676	0.583168
C65	C	0.475263	0.077675	-0.083075
C66	C	0.975263	0.577675	0.416925
C67	C	0.415865	0.076956	-0.083074
C68	C	0.915865	0.576956	0.416926
C69	C	0.386171	0.076593	0.000051
C70	C	0.886171	0.576593	0.500051
C71	C	-0.071194	0.071084	-0.083044
C72	C	0.428806	0.571084	0.416956
C73	C	-0.130596	0.070373	-0.083033
C74	C	0.369404	0.570373	0.416967
C75	C	-0.130585	0.070370	0.083209
C76	C	0.369415	0.570370	0.583209
C77	C	-0.071189	0.071085	0.083200
C78	C	0.428811	0.571085	0.583200
C79	C	-0.041495	0.071440	0.000066
C80	C	0.458505	0.571440	0.500066
O81	O	0.022780	0.072230	0.153831
O82	O	0.522780	0.572230	0.653831
O83	O	0.022817	0.072204	-0.153741
O84	O	0.522817	0.572204	0.346259
C85	C	0.677086	-0.030126	0.000091
C86	C	1.177086	0.469874	0.500091
C87	C	0.676320	-0.093343	0.000098
C88	C	1.176320	0.406657	0.500098
C89	C	0.723555	-0.492454	0.000054
C90	C	1.223555	0.007546	0.500054
C91	C	0.722844	-0.551854	0.000047
C92	C	1.222844	-0.051854	0.500047
O93	O	0.766630	-0.588606	0.000019
O94	O	1.266630	-0.088606	0.500019
N95	N	0.670566	-0.574471	0.000041
N96	N	1.170566	-0.074471	0.500041
C97	C	0.618997	-0.537685	0.000032
C98	C	1.118997	-0.037685	0.500032
O99	O	0.574465	-0.562377	0.000024
O100	O	1.074465	-0.062377	0.500024
C101	C	0.619709	-0.478286	0.000032
C102	C	1.119709	0.021714	0.500032
C103	C	0.671990	-0.455672	0.000048
C104	C	1.171990	0.044328	0.500048
C105	C	0.775832	-0.469839	0.000069
C106	C	1.275832	0.030161	0.500069
C107	C	0.776543	-0.410443	0.000078
C108	C	1.276543	0.089557	0.500078
C109	C	0.724977	-0.373662	0.000072
C110	C	1.224977	0.126338	0.500072
C111	C	0.672701	-0.396276	0.000057
C112	C	1.172701	0.103724	0.500057
C113	C	0.568140	-0.441501	0.000017
C114	C	1.068140	0.058499	0.500017
C115	C	0.568857	-0.382099	0.000016
C116	C	1.068857	0.117901	0.500016
C117	C	0.621137	-0.359485	0.000032
C118	C	1.121137	0.140515	0.500032
C119	C	0.621847	-0.300099	0.000059
C120	C	1.121847	0.199901	0.500059
N121	N	0.674124	-0.277481	0.000066
N122	N	1.174124	0.222519	0.500066
C123	C	0.725690	-0.314263	0.000072
C124	C	1.225690	0.185737	0.500072
C125	C	0.617505	-0.662427	0.000029
C126	C	1.117505	-0.162427	0.500029
C127	C	0.616793	-0.721825	0.000035
C128	C	1.116793	-0.221825	0.500035
C129	C	0.720640	-0.735990	0.000049
C130	C	1.220640	-0.235990	0.500049
C131	C	0.721352	-0.676591	0.000049
C132	C	1.221352	-0.176591	0.500049
C133	C	0.669783	-0.639810	0.000036
C134	C	1.169783	-0.139810	0.500036
C135	C	0.727179	-0.189526	0.000091
C136	C	1.227179	0.310474	0.500091
C137	C	0.727886	-0.130124	0.000104
C138	C	1.227886	0.369876	0.500104
C139	C	0.624039	-0.115965	0.000085
C140	C	1.124039	0.384035	0.500085
C141	C	0.623332	-0.175361	0.000078
C142	C	1.123332	0.324639	0.500078
C143	C	0.674907	-0.212141	0.000078
C144	C	1.174907	0.287859	0.500078
O145	O	0.578083	-0.263312	0.000083
O146	O	1.078083	0.236688	0.500083
O147	O	0.770214	-0.289562	0.000067
O148	O	1.270214	0.210438	0.500067
C149	C	0.776489	0.069258	0.000083
C150	C	1.276489	0.569258	0.500083
C151	C	0.839708	0.070014	0.000086
C152	C	1.339708	0.570014	0.500086
C153	C	0.667592	0.178171	0.000049
C154	C	1.167592	0.678171	0.500049
C155	C	0.668358	0.241388	0.000036
C156	C	1.168358	0.741388	0.500036
N157	N	0.672334	0.074019	0.217066
N158	N	1.172334	0.574019	0.717066
N159	N	0.672350	0.074021	-0.216924
N160	N	1.172350	0.574021	0.283076
C161	C	0.711286	0.035089	0.548073
C162	C	1.211286	0.535089	1.048073
C163	C	0.711285	0.035089	0.452091
C164	C	1.211285	0.535089	0.952091
C165	C	0.633395	0.112956	0.452076
C166	C	1.133395	0.612956	0.952076
C167	C	0.633400	0.112958	0.548056
C168	C	1.133400	0.612958	1.048056
C169	C	0.672345	0.074021	0.596051
C170	C	1.172345	0.574021	1.096051
C171	C	0.672339	0.074020	0.404091
C172	C	1.172339	0.574020	0.904091
C173	C	0.672337	0.074020	0.300024
C174	C	1.172337	0.574020	0.800024
C175	C	0.672347	0.074021	0.700125
C176	C	1.172347	0.574021	1.200125
H177	H	-0.154775	0.070086	-0.150725
H178	H	0.345225	0.570086	0.349275
O179	O	0.770680	-0.771807	0.000003
O180	O	1.270680	-0.271807	0.500003
C181	C	0.758835	-0.829081	0.000017
C182	C	1.258835	-0.329081	0.500017
H183	H	0.714113	-0.831094	-0.028851
H184	H	1.214113	-0.331094	0.471149
H185	H	0.791720	-0.856177	-0.044258
H186	H	1.291720	-0.356177	0.455742
H187	H	0.761094	-0.846285	0.073166
H188	H	1.261094	-0.346285	0.573166
H189	H	0.763923	-0.658183	0.000062
H190	H	1.263923	-0.158183	0.500062
H191	H	0.226204	0.074665	-0.233868
H192	H	0.726204	0.574665	0.266132
O193	O	-0.042447	0.071459	-0.163880
O194	O	0.457553	0.571459	0.336120
C195	C	-0.081406	0.070980	-0.237231
C196	C	0.418594	0.570980	0.262769
H197	H	-0.126206	0.088499	-0.212850
H198	H	0.373794	0.588499	0.287150
H199	H	-0.068028	0.098846	-0.295371
H200	H	0.431972	0.598846	0.204629
H201	H	-0.081487	0.025210	-0.262785
H202	H	0.418513	0.525210	0.237215
H203	H	0.819115	-0.392037	0.000087
H204	H	1.319115	0.107963	0.500087
O205	O	0.566057	-0.743884	0.000068
O206	O	1.066057	-0.243884	0.500068
C207	C	0.576478	-0.804198	0.000037
C208	C	1.076478	-0.304198	0.500037
H209	H	0.621000	-0.818409	0.028912
H210	H	1.121000	-0.318409	0.528912
H211	H	0.543041	-0.822251	0.044295
H212	H	1.043041	-0.322251	0.544295
H213	H	0.573817	-0.820707	-0.073119
H214	H	1.073817	-0.320707	0.426881
H215	H	0.391698	0.076664	0.150863
H216	H	0.891698	0.576664	0.650863
O217	O	0.518797	-0.346313	0.000127
O218	O	1.018797	0.153687	0.500127
C219	C	0.516085	-0.311550	0.079113
C220	C	1.016085	0.188450	0.579113
H221	H	0.561270	-0.308802	0.105454
H222	H	1.061270	0.191198	0.605454
H223	H	0.494608	-0.266782	0.061351
H224	H	0.994608	0.233218	0.561351
H225	H	0.490185	-0.330957	0.134403
H226	H	0.990185	0.169043	0.634403
H227	H	0.742998	0.003384	0.587149
H228	H	1.242998	0.503384	1.087149
O229	O	0.386966	0.076531	-0.163761
O230	O	0.886966	0.576531	0.336239
C231	C	0.359358	0.026777	-0.168741
C232	C	0.859358	0.526777	0.331259
H233	H	0.352701	0.010221	-0.096572
H234	H	0.852701	0.510221	0.403428
H235	H	0.316077	0.037365	-0.203931
H236	H	0.816077	0.537365	0.296069
H237	H	0.386971	-0.007488	-0.209748
H238	H	0.886971	0.492512	0.290252
O239	O	0.113873	0.073314	0.247131
O240	O	0.613873	0.573314	0.747131
C241	C	0.152831	0.073766	0.320487
C242	C	0.652831	0.573766	0.820487
H243	H	0.192710	0.092309	0.296111
H244	H	0.692710	0.592309	0.796111
H245	H	0.131899	0.101210	0.378620
H246	H	0.631899	0.601210	0.878620
H247	H	0.165387	0.028144	0.346050
H248	H	0.665387	0.528144	0.846050
O249	O	-0.159450	0.069919	0.163923
O250	O	0.340550	0.569919	0.663923
C251	C	-0.187085	0.020180	0.168883
C252	C	0.312915	0.520180	0.668883
H253	H	-0.164474	-0.014080	0.121722
H254	H	0.335526	0.485920	0.621722
H255	H	-0.185505	0.003609	0.242400
H256	H	0.314495	0.503609	0.742400
H257	H	-0.233623	0.030791	0.146540
H258	H	0.266377	0.530791	0.646540
O259	O	0.777241	-0.225306	0.000218
O260	O	1.277241	0.274694	0.500218
C261	C	0.779942	-0.260089	0.079198
C262	C	1.279942	0.239911	0.579198
H263	H	0.734754	-0.262849	0.105514
H264	H	1.234754	0.237151	0.605514
H265	H	0.801427	-0.304851	0.061439
H266	H	1.301427	0.195149	0.561439
H267	H	0.805830	-0.240694	0.134506
H268	H	1.305830	0.259306	0.634506
H269	H	0.601688	0.144665	0.587123
H270	H	1.101688	0.644665	1.087123
O271	O	-0.042420	0.071405	0.164025
O272	O	0.457580	0.571405	0.664025
C273	C	-0.081374	0.070952	0.237387
C274	C	0.418626	0.570952	0.737387
H275	H	-0.121257	0.052417	0.213021
H276	H	0.378743	0.552417	0.713021
H277	H	-0.060441	0.043499	0.295525
H278	H	0.439559	0.543499	0.795525
H279	H	-0.093921	0.116571	0.262940
H280	H	0.406079	0.616571	0.762940
H281	H	0.226207	0.074646	0.233992
H282	H	0.726207	0.574646	0.733992
O283	O	0.778689	-0.108186	-0.000047
O284	O	1.278689	0.391814	0.499953
C285	C	0.810110	-0.127012	-0.079005
C286	C	1.310110	0.372988	0.420995
H287	H	0.779534	-0.139186	-0.134207
H288	H	1.279534	0.360814	0.365793
H289	H	0.834133	-0.091161	-0.105505
H290	H	1.334133	0.408839	0.394495
H291	H	0.842069	-0.165912	-0.061151
H292	H	1.342069	0.334088	0.438849
O293	O	0.113882	0.073284	-0.247004
O294	O	0.613882	0.573284	0.252996
C295	C	0.152839	0.073765	-0.320357
C296	C	0.652839	0.573765	0.179643
H297	H	0.197640	0.056249	-0.295971
H298	H	0.697640	0.556249	0.204029
H299	H	0.139461	0.045898	-0.378483
H300	H	0.639461	0.545898	0.121517
H301	H	0.152917	0.119536	-0.345934
H302	H	0.652917	0.619536	0.154066
H303	H	0.575509	-0.632483	0.000026
H304	H	1.075509	-0.132483	0.500026
H305	H	0.817825	-0.499782	0.000071
H306	H	1.317825	0.000218	0.500071
O307	O	0.595584	0.150719	0.405309
O308	O	1.095584	0.650719	0.905309
C309	C	0.603937	0.142378	0.310306
C310	C	1.103937	0.642378	0.810306
H311	H	0.625479	0.096985	0.297210
H312	H	1.125479	0.596985	0.797210
H313	H	0.560770	0.148940	0.273834
H314	H	1.060770	0.648940	0.773834
H315	H	0.632315	0.174463	0.283052
H316	H	1.132315	0.674463	0.783052
O317	O	0.504169	0.078097	-0.163762
O318	O	1.004169	0.578097	0.336238
C319	C	0.531783	0.127848	-0.168757
C320	C	1.031783	0.627848	0.331243
H321	H	0.538432	0.144404	-0.096594
H322	H	1.038432	0.644404	0.403406
H323	H	0.575069	0.117255	-0.203926
H324	H	1.075069	0.617255	0.296074
H325	H	0.504179	0.162114	-0.209792
H326	H	1.004179	0.662114	0.290208
O327	O	0.504030	0.078000	0.163996
O328	O	1.004030	0.578000	0.663996
C329	C	0.465073	0.077545	0.237352
C330	C	0.965073	0.577545	0.737352
H331	H	0.425194	0.059004	0.212982
H332	H	0.925194	0.559004	0.712982
H333	H	0.486005	0.050098	0.295496
H334	H	0.986005	0.550098	0.795496
H335	H	0.452518	0.123165	0.262898
H336	H	0.952518	0.623165	0.762898
H337	H	0.525567	-0.459902	-0.000002
H338	H	1.025567	0.040098	0.499998
H339	H	0.742995	0.003387	0.413030
H340	H	1.242995	0.503387	0.913030
O341	O	0.572498	-0.197237	0.000025
O342	O	1.072498	0.302763	0.500025
C343	C	0.527138	-0.152032	0.000048
C344	C	1.027138	0.347968	0.500048
H345	H	0.542871	-0.111762	-0.028800
H346	H	1.042871	0.388238	0.471200
H347	H	0.490622	-0.164229	-0.044238
H348	H	0.990622	0.335771	0.455762
H349	H	0.511241	-0.143553	0.073198
H350	H	1.011241	0.356447	0.573198
H351	H	0.582056	-0.086007	0.000084
H352	H	1.082056	0.413993	0.500084
