data_functionalizedCrystal
_audit_creation_method	'MofGen! by Chris Wilmer'
_symmetry_space_group_name_H-M	'P1'
_symmetry_Int_Tables_number	1
_symmetry_cell_setting	triclinic
loop_
_symmetry_equiv_pos_as_xyz
  x,y,z
_cell_length_a	14.519731
_cell_length_b	14.519731
_cell_length_c	11.892095
_cell_angle_alpha	86.093342
_cell_angle_beta	86.097868
_cell_angle_gamma	96.311147
loop_
_atom_site_label
_atom_site_type_symbol
_atom_site_fract_x
_atom_site_fract_y
_atom_site_fract_z
O1	O	-0.115099	1.229750	-0.093992
O2	O	-0.129315	0.961277	-0.093992
O3	O	0.012030	1.102622	-0.094001
O4	O	-0.256444	1.088405	-0.093984
O5	O	0.000264	1.090837	0.094008
O6	O	-0.141081	0.949492	0.094016
O7	O	-0.126866	1.217965	0.094016
Zn8	Zn	-0.135842	1.081858	0.123866
Zn9	Zn	-0.120338	1.097385	-0.123843
O10	O	-0.268211	1.076620	0.094024
C11	C	-0.134532	0.921025	0.000011
C12	C	-0.132536	0.818645	0.000011
C13	C	-0.130914	0.735501	0.000006
C14	C	-0.128887	0.631192	0.000005
C15	C	-0.127279	0.548053	0.000005
C16	C	-0.125252	0.443737	0.000003
C17	C	-0.296687	1.083179	0.000022
C18	C	-0.399068	1.085174	0.000028
C19	C	-0.482212	1.086797	0.000023
C20	C	-0.586520	1.088824	0.000013
C21	C	-0.669658	1.090433	0.000003
C22	C	-0.773973	1.092460	-0.000005
C23	C	0.040507	1.096064	-0.000001
C24	C	0.142888	1.094069	-0.000014
C25	C	-0.121648	1.258217	0.000009
C26	C	-0.123644	1.360598	0.000003
N27	N	-0.146422	1.071267	0.292921
N28	N	-0.109751	1.107982	-0.292897
C29	C	-0.036077	1.181675	0.529562
C30	C	-0.043479	1.174279	0.647905
C31	C	-0.168623	1.049076	0.647950
C32	C	-0.161221	1.056472	0.529608
C33	C	-0.094947	1.122774	0.470418
C34	C	-0.087550	1.130174	0.352073
C35	C	-0.212689	1.004967	0.352121
C36	C	-0.220091	0.997571	0.470463
H37	H	-0.033588	1.184163	0.303882
H38	H	-0.260627	0.957009	0.303952
Cl39	Cl	0.047228	1.265034	0.455151
Cl40	Cl	0.030534	1.248326	0.722254
H41	H	-0.222576	0.995088	0.696157
H42	H	-0.274048	0.943587	0.518669
