data_functionalizedCrystal
_audit_creation_method	'MofGen! by Chris Wilmer'
_symmetry_space_group_name_H-M	'P1'
_symmetry_Int_Tables_number	1
_symmetry_cell_setting	triclinic
loop_
_symmetry_equiv_pos_as_xyz
  x,y,z
_cell_length_a	10.654547
_cell_length_b	10.654541
_cell_length_c	7.681481
_cell_angle_alpha	84.202506
_cell_angle_beta	95.778576
_cell_angle_gamma	84.484992
loop_
_atom_site_label
_atom_site_type_symbol
_atom_site_fract_x
_atom_site_fract_y
_atom_site_fract_z
O1	O	1.656065	0.188205	-0.146459
O2	O	1.290587	0.205007	-0.146456
O3	O	1.481731	0.013866	-0.146447
O4	O	1.464920	0.379347	-0.146468
O5	O	1.505257	-0.009714	0.146412
O6	O	1.314113	0.181427	0.146403
O7	O	1.679591	0.164625	0.146400
Zn8	Zn	1.500587	0.169282	0.192899
Zn9	Zn	1.469590	0.200350	-0.192955
O10	O	1.488446	0.355767	0.146391
C11	C	1.255552	0.191983	-0.000026
C12	C	1.116109	0.188289	-0.000024
C13	C	1.492261	-0.044722	-0.000018
C14	C	1.488570	-0.184165	-0.000021
C15	C	0.828438	0.207037	-0.319331
C16	C	0.881132	0.221627	-0.478968
C17	C	1.012150	0.225107	-0.478964
C18	C	1.090479	0.213991	-0.319304
C19	C	1.037785	0.199400	-0.159667
C20	C	0.906762	0.195926	-0.159688
C21	C	1.063415	0.173699	0.159613
C22	C	0.932396	0.170228	0.159613
C23	C	1.141744	0.162583	0.319273
C24	C	1.089049	0.148001	0.478915
C25	C	0.958023	0.144523	0.478903
C26	C	0.879702	0.155638	0.319251
C27	C	1.717136	-0.212136	-0.000001
C28	C	1.829680	-0.291630	0.000013
C29	C	1.826204	-0.422647	0.000007
C30	C	1.710171	-0.474172	-0.000017
C31	C	1.597627	-0.394678	-0.000031
C32	C	1.601116	-0.263659	-0.000020
C33	C	1.369063	-0.366707	-0.000064
C34	C	1.372537	-0.235690	-0.000046
C35	C	1.253030	-0.418231	-0.000088
C36	C	1.140484	-0.338737	-0.000089
C37	C	1.143965	-0.207713	-0.000082
C38	C	1.259993	-0.156195	-0.000059
C39	C	1.714625	0.177650	-0.000034
C40	C	1.854068	0.181344	-0.000047
C41	C	1.477917	0.414355	-0.000041
C42	C	1.481607	0.553799	-0.000050
N43	N	1.521751	0.148079	0.456234
N44	N	1.448437	0.221544	-0.456290
H45	H	0.817343	0.230673	-0.608960
H46	H	1.262839	-0.049517	-0.000043
C47	C	1.347328	0.322842	0.442137
H48	H	1.303456	0.366820	0.523321
H49	H	1.288853	0.283001	0.370229
H50	H	1.387308	0.381221	0.370209
C51	C	1.622866	0.046777	0.557815
H52	H	1.666748	0.002812	0.476628
H53	H	1.582900	-0.011597	0.629754
H54	H	1.681350	0.086629	0.629711
C55	C	1.234595	0.217809	-0.319301
H56	H	1.254759	0.228094	-0.437241
H57	H	1.277912	0.140742	-0.260325
H58	H	1.260022	0.286971	-0.260355
C59	C	0.735586	0.151814	0.319240
H60	H	0.715416	0.141539	0.437177
H61	H	0.710159	0.082667	0.260277
H62	H	0.692271	0.228894	0.260275
H63	H	0.721753	0.204222	-0.319350
H64	H	1.248426	0.165408	0.319265
C65	C	1.249205	-0.562347	-0.000089
H66	H	1.332849	-0.602315	-0.000059
H67	H	1.198013	-0.578600	-0.102220
H68	H	1.214406	-0.595040	0.102046
H69	H	1.055052	0.236986	-0.608955
C70	C	1.957310	-0.234958	0.000048
H71	H	2.023836	-0.301066	0.000042
H72	H	1.971614	-0.192657	0.102178
H73	H	1.955224	-0.176202	-0.102087
H74	H	1.152835	0.138944	0.608896
C75	C	1.012866	-0.395416	-0.000115
H76	H	1.026915	-0.484830	-0.000115
H77	H	0.958276	-0.359967	-0.102239
H78	H	0.974682	-0.376437	0.102027
C79	C	1.720965	-0.068021	0.000011
H80	H	1.806183	-0.048720	0.000017
H81	H	1.687736	-0.041443	0.102128
H82	H	1.671352	-0.024991	-0.102137
C83	C	1.706340	-0.618284	-0.000054
H84	H	1.621120	-0.637584	-0.000083
H85	H	1.755960	-0.661331	0.102063
H86	H	1.739556	-0.644841	-0.102202
H87	H	0.915128	0.132647	0.608901
H88	H	1.052316	-0.142994	-0.000101
H89	H	1.917846	-0.487372	0.000005
