data_functionalizedCrystal
_audit_creation_method	'MofGen! by Chris Wilmer'
_symmetry_space_group_name_H-M	'P1'
_symmetry_Int_Tables_number	1
_symmetry_cell_setting	triclinic
loop_
_symmetry_equiv_pos_as_xyz
  x,y,z
_cell_length_a	14.519731
_cell_length_b	14.044190
_cell_length_c	13.596369
_cell_angle_alpha	90.005026
_cell_angle_beta	90.006024
_cell_angle_gamma	88.440315
loop_
_atom_site_label
_atom_site_type_symbol
_atom_site_fract_x
_atom_site_fract_y
_atom_site_fract_z
O1	O	1.233892	0.124362	0.081805
O2	O	1.483892	0.374362	0.331805
O3	O	1.733892	0.624362	0.581805
O4	O	1.983892	0.874362	0.831805
O5	O	0.966597	0.138975	0.081808
O6	O	1.216597	0.388975	0.331808
O7	O	1.466597	0.638975	0.581808
O8	O	1.716597	0.888975	0.831808
O9	O	1.096229	-0.006323	0.081787
O10	O	1.346229	0.243677	0.331787
O11	O	1.596229	0.493677	0.581787
O12	O	1.846229	0.743677	0.831787
O13	O	1.104260	0.269661	0.081826
O14	O	1.354260	0.519661	0.331826
O15	O	1.604260	0.769661	0.581826
O16	O	1.854260	1.019661	0.831826
O17	O	1.096212	-0.006315	-0.081796
O18	O	1.346212	0.243685	0.168204
O19	O	1.596212	0.493685	0.418204
O20	O	1.846212	0.743685	0.668204
O21	O	0.966580	0.138984	-0.081775
O22	O	1.216580	0.388984	0.168225
O23	O	1.466580	0.638984	0.418225
O24	O	1.716580	0.888984	0.668225
O25	O	1.233875	0.124370	-0.081778
O26	O	1.483875	0.374370	0.168222
O27	O	1.733875	0.624370	0.418222
O28	O	1.983875	0.874370	0.668222
Zn29	Zn	1.100225	0.131678	-0.107749
Zn30	Zn	1.350225	0.381678	0.142251
Zn31	Zn	1.600225	0.631678	0.392251
Zn32	Zn	1.850225	0.881678	0.642251
Zn33	Zn	1.100247	0.131667	0.107779
Zn34	Zn	1.350247	0.381667	0.357779
Zn35	Zn	1.600247	0.631667	0.607779
Zn36	Zn	1.850247	0.881667	0.857779
O37	O	1.104243	0.269669	-0.081757
O38	O	1.354243	0.519669	0.168243
O39	O	1.604243	0.769669	0.418243
O40	O	1.854243	1.019669	0.668243
C41	C	0.932174	0.138295	0.000017
C42	C	1.182174	0.388295	0.250017
C43	C	1.432174	0.638295	0.500017
C44	C	1.682174	0.888295	0.750017
C45	C	0.829628	0.136243	0.000017
C46	C	1.079628	0.386243	0.250017
C47	C	1.329628	0.636243	0.500017
C48	C	1.579628	0.886243	0.750017
C49	C	0.746349	0.134576	0.000021
C50	C	0.996349	0.384576	0.250021
C51	C	1.246349	0.634576	0.500021
C52	C	1.496349	0.884576	0.750021
C53	C	0.641872	0.132492	0.000021
C54	C	0.891872	0.382492	0.250021
C55	C	1.141872	0.632492	0.500021
C56	C	1.391872	0.882492	0.750021
C57	C	0.558600	0.130839	0.000020
C58	C	0.808600	0.380839	0.250020
C59	C	1.058600	0.630839	0.500020
C60	C	1.308600	0.880839	0.750020
C61	C	0.454117	0.128756	0.000022
C62	C	0.704117	0.378756	0.250022
C63	C	0.954117	0.628756	0.500022
C64	C	1.204117	0.878756	0.750022
C65	C	1.092707	-0.041640	-0.000007
C66	C	1.342707	0.208360	0.249993
C67	C	1.592707	0.458360	0.499993
C68	C	1.842707	0.708360	0.749993
C69	C	1.082228	-0.146884	-0.000016
C70	C	1.332228	0.103116	0.249984
C71	C	1.582228	0.353116	0.499984
C72	C	1.832228	0.603116	0.749984
C73	C	1.137393	-0.397073	0.000022
C74	C	1.387393	-0.147073	0.250022
C75	C	1.637393	0.102927	0.500022
C76	C	1.887393	0.352927	0.750022
C77	C	1.063083	-0.339576	0.000016
C78	C	1.313083	-0.089576	0.250016
C79	C	1.563083	0.160424	0.500016
C80	C	1.813083	0.410424	0.750016
C81	C	1.073738	-0.232353	-0.000001
C82	C	1.323738	0.017647	0.249999
C83	C	1.573738	0.267647	0.499999
C84	C	1.823738	0.517647	0.749999
C85	C	1.126740	-0.504306	0.000040
C86	C	1.376740	-0.254306	0.250040
C87	C	1.626740	-0.004306	0.500040
C88	C	1.876740	0.245694	0.750040
C89	C	1.268298	0.125051	0.000016
C90	C	1.518298	0.375051	0.250016
C91	C	1.768298	0.625051	0.500016
C92	C	2.018298	0.875051	0.750016
C93	C	1.370844	0.127102	0.000022
C94	C	1.620844	0.377102	0.250022
C95	C	1.870844	0.627102	0.500022
C96	C	2.120844	0.877102	0.750022
C97	C	1.107765	0.304985	0.000039
C98	C	1.357765	0.554985	0.250039
C99	C	1.607765	0.804985	0.500039
C100	C	1.857765	1.054985	0.750039
C101	C	1.118244	0.410230	0.000054
C102	C	1.368244	0.660230	0.250054
C103	C	1.618244	0.910230	0.500054
C104	C	1.868244	1.160230	0.750054
N105	N	1.100217	0.131685	-0.254841
N106	N	1.350217	0.381685	-0.004841
N107	N	1.600217	0.631685	0.245159
N108	N	1.850217	0.881685	0.495159
C109	C	1.100221	0.131687	-0.343838
C110	C	1.350221	0.381687	-0.093838
C111	C	1.600221	0.631687	0.156162
C112	C	1.850221	0.881687	0.406162
C113	C	1.100230	0.131680	-0.455490
C114	C	1.350230	0.381680	-0.205490
C115	C	1.600230	0.631680	0.044510
C116	C	1.850230	0.881680	0.294510
C117	C	1.100241	0.131670	-0.544480
C118	C	1.350241	0.381670	-0.294480
C119	C	1.600241	0.631670	-0.044480
C120	C	1.850241	0.881670	0.205520
C121	C	1.100251	0.131664	-0.656139
C122	C	1.350251	0.381664	-0.406139
C123	C	1.600251	0.631664	-0.156139
C124	C	1.850251	0.881664	0.093861
N125	N	1.100262	0.131653	0.254871
N126	N	1.350262	0.381653	0.504871
N127	N	1.600262	0.631653	0.754871
N128	N	1.850262	0.881653	1.004871
H129	H	1.209007	-0.365772	0.000011
H130	H	1.459007	-0.115772	0.250011
H131	H	1.709007	0.134228	0.500011
H132	H	1.959007	0.384228	0.750011
H133	H	0.991463	-0.370878	0.000023
H134	H	1.241463	-0.120878	0.250023
H135	H	1.491463	0.129122	0.500023
H136	H	1.741463	0.379122	0.750023
