data_functionalizedCrystal
_audit_creation_method	'MofGen! by Chris Wilmer'
_symmetry_space_group_name_H-M	'P1'
_symmetry_Int_Tables_number	1
_symmetry_cell_setting	triclinic
loop_
_symmetry_equiv_pos_as_xyz
  x,y,z
_cell_length_a	20.875790
_cell_length_b	15.698487
_cell_length_c	20.875684
_cell_angle_alpha	87.032244
_cell_angle_beta	60.168897
_cell_angle_gamma	61.745152
loop_
_atom_site_label
_atom_site_type_symbol
_atom_site_fract_x
_atom_site_fract_y
_atom_site_fract_z
Zr1	Zr	0.667526	-0.110739	0.652454
O2	O	0.794759	-0.231393	0.556608
O3	O	0.540296	-0.079516	0.677274
O4	O	0.667528	-0.248919	0.683849
O5	O	0.667524	0.078195	0.550037
O6	O	0.667526	-0.256189	0.789409
O7	O	0.667527	-0.061989	0.550033
O8	O	0.439931	0.046843	0.777648
O9	O	0.895119	-0.224837	0.561798
O10	O	0.592625	-0.064661	0.772150
O11	O	0.592625	0.045381	0.693374
O12	O	0.742424	-0.154069	0.701115
O13	O	0.742423	-0.044026	0.622340
Zr14	Zr	0.667519	0.101244	0.820815
Zr15	Zr	0.667523	-0.122333	0.820810
Zr16	Zr	0.667522	0.112838	0.652460
Zr17	Zr	0.827589	-0.100284	0.660731
Zr18	Zr	0.507456	0.090789	0.812538
O19	O	0.794749	0.070021	0.795995
O20	O	0.794755	-0.247878	0.795988
O21	O	0.794753	0.086506	0.556616
O22	O	0.540286	0.221898	0.916662
O23	O	0.540292	-0.096001	0.916654
O24	O	0.540290	0.238383	0.677282
O25	O	0.667521	-0.087690	0.923233
O26	O	0.667517	0.239424	0.789421
O27	O	0.667519	0.246693	0.683861
O28	O	0.667518	0.052494	0.923237
O29	O	0.895117	-0.234053	0.695618
O30	O	0.439928	0.224558	0.777652
O31	O	0.439926	0.215342	0.911472
O32	O	0.439929	0.037628	0.911468
O33	O	0.895116	-0.047123	0.561802
O34	O	0.895114	-0.056338	0.695622
O35	O	0.592621	0.144574	0.772155
O36	O	0.592622	0.034531	0.850930
O37	O	0.742421	-0.054877	0.779896
O38	O	0.742420	0.055166	0.701120
C39	C	0.467308	-0.017826	0.726282
C40	C	0.399357	-0.022265	0.722768
C41	C	0.312136	0.045258	0.776399
C42	C	0.248308	0.041084	0.773064
C43	C	0.271703	-0.030618	0.716099
C44	C	0.358933	-0.098143	0.662462
C45	C	0.422759	-0.093964	0.665795
C46	C	0.086744	-0.050577	0.700198
C47	C	0.022909	-0.054753	0.696870
C48	C	-0.087711	0.084476	0.807471
C49	C	-0.023879	0.088645	0.810802
C50	C	0.063345	0.021123	0.757163
N51	N	0.206462	-0.034888	0.712690
N52	N	0.128584	0.025398	0.760570
C53	C	0.667527	-0.284409	0.736628
C54	C	0.667529	-0.379323	0.736626
C55	C	0.667514	-0.553090	0.736643
C56	C	0.667519	-0.456392	0.736635
C57	C	0.867737	0.008331	0.746988
C58	C	0.935688	0.012769	0.750502
C59	C	0.667526	0.009755	0.526048
C60	C	0.667527	0.014677	0.454577
C61	C	0.667518	0.274914	0.736642
C62	C	0.667516	0.369828	0.736644
C63	C	0.667515	0.050741	0.052278
C64	C	0.667512	0.046106	0.119434
C65	C	0.667519	-0.033446	0.153000
C66	C	0.667519	-0.108363	0.119412
C67	C	0.667516	-0.103723	0.052261
C68	C	0.667524	-0.055600	0.353837
C69	C	0.667530	-0.060236	0.420992
C70	C	0.667522	0.094234	0.421009
C71	C	0.667523	0.098863	0.353854
C72	C	0.667519	0.023950	0.320274
N73	N	0.667519	-0.038188	0.221643
N74	N	0.667513	0.028696	0.251636
C75	C	0.667519	-0.019250	0.947222
C76	C	0.667518	-0.024172	1.018693
C77	C	0.467305	-0.032328	0.936869
C78	C	0.399352	-0.041689	1.004826
C79	C	0.467303	0.261835	0.726288
C80	C	0.399350	0.352311	0.722777
C81	C	0.467300	0.247333	0.936875
C82	C	0.399346	0.332887	1.004835
C83	C	0.867745	-0.256828	0.536394
C84	C	0.935699	-0.342382	0.468434
C85	C	0.867741	0.022833	0.536401
C86	C	0.935693	0.032194	0.468443
C87	C	0.867742	-0.271331	0.746981
C88	C	0.935695	-0.361806	0.750493
C89	C	0.367443	-0.097871	0.995617
C90	C	0.303603	-0.106687	1.059465
C91	C	0.271670	-0.059312	1.132520
C92	C	0.303586	-0.003128	1.141728
C93	C	0.367429	0.005681	1.077882
C94	C	0.367438	0.446587	0.762250
C95	C	0.303598	0.531608	0.758949
C96	C	0.271668	0.522350	0.716177
C97	C	0.303587	0.428065	0.676699
C98	C	0.367430	0.343047	0.679997
C99	C	0.367434	0.315622	1.077877
C100	C	0.303593	0.396001	1.141739
C101	C	0.271661	0.493643	1.132558
C102	C	0.303579	0.510907	1.059509
C103	C	0.367423	0.430529	0.995648
C104	C	0.967619	-0.325117	0.395393
C105	C	1.031479	-0.405494	0.331532
C106	C	1.063415	-0.503136	0.340713
C107	C	1.031493	-0.520400	0.413762
C108	C	0.967638	-0.440023	0.477622
C109	C	0.967609	0.088367	0.477653
C110	C	1.031466	0.097159	0.413806
C111	C	1.063401	0.049782	0.340751
C112	C	1.031483	-0.006399	0.331543
C113	C	0.967631	-0.015196	0.395389
C114	C	0.967605	-0.352518	0.793271
C115	C	1.031445	-0.437522	0.796586
C116	C	1.063378	-0.531814	0.757117
C117	C	1.031462	-0.541101	0.714337
C118	C	0.967619	-0.456098	0.711027
H119	H	0.177290	0.096067	0.816736
Cl120	Cl	0.407527	0.452251	0.903826
Cl121	Cl	1.071625	-0.659646	0.664714
Cl122	Cl	1.143671	0.060853	0.260494
H123	H	0.941650	-0.454093	0.537094
H124	H	1.057459	-0.391418	0.272058
Cl125	Cl	1.071560	-0.425824	0.850365
H126	H	0.277577	0.035441	1.201218
Cl127	Cl	1.143690	-0.604172	0.260423
H128	H	0.941620	-0.245619	0.387903
H129	H	1.057494	-0.044971	0.272053
Cl130	Cl	0.927510	-0.085813	0.383798
H131	H	0.941614	-0.275748	0.825412
Cl132	Cl	0.407578	-0.157443	0.903784
H133	H	0.277580	0.420543	0.641875
Cl134	Cl	1.071647	-0.643157	0.425292
H135	H	0.393405	0.266287	0.647855
Cl136	Cl	0.191397	0.594680	1.212849
H137	H	0.277570	0.590417	1.052045
Cl138	Cl	0.927519	-0.467792	0.657235
Cl139	Cl	0.927479	0.147932	0.569487
H140	H	0.277617	0.608370	0.791100
Cl141	Cl	1.143643	-0.638667	0.761282
Cl142	Cl	0.667517	0.198871	0.311655
Cl143	Cl	0.282715	0.135396	0.848019
Cl144	Cl	0.388344	-0.188276	0.590845
Cl145	Cl	-0.053297	0.178792	0.882414
Cl146	Cl	-0.197363	0.169359	0.874895
H147	H	0.277612	0.381927	1.201214
Cl148	Cl	0.191405	0.629242	0.712040
Cl149	Cl	0.667540	-0.160255	0.463184
Cl150	Cl	0.263490	-0.177317	1.047872
H151	H	0.041969	-0.113146	0.650482
H152	H	1.057444	0.142910	0.421318
H153	H	0.393424	0.236123	1.085367
H154	H	0.393401	0.051436	1.085390
Cl155	Cl	0.532411	-0.178850	0.598368
Cl156	Cl	0.196389	-0.135461	0.632765
H157	H	0.667515	0.115517	0.024950
Cl158	Cl	0.667507	0.140283	0.161656
H159	H	0.667524	0.155226	0.448357
H160	H	0.393428	0.454143	0.797080
H161	H	0.667523	-0.116599	0.326500
H162	H	0.667517	-0.164724	0.024917
Cl163	Cl	0.667521	-0.208369	0.161612
H164	H	0.219685	-0.066492	1.184502
