data_functionalizedCrystal
_audit_creation_method	'MofGen! by Chris Wilmer'
_symmetry_space_group_name_H-M	'P1'
_symmetry_Int_Tables_number	1
_symmetry_cell_setting	triclinic
loop_
_symmetry_equiv_pos_as_xyz
  x,y,z
_cell_length_a	16.625548
_cell_length_b	16.625546
_cell_length_c	12.759393
_cell_angle_alpha	89.963806
_cell_angle_beta	89.978332
_cell_angle_gamma	90.023536
loop_
_atom_site_label
_atom_site_type_symbol
_atom_site_fract_x
_atom_site_fract_y
_atom_site_fract_z
Zn1	Zn	1.232689	-0.320931	-0.594036
Zn2	Zn	1.732689	0.179069	-0.094036
Zn3	Zn	1.232590	-0.455788	-0.418342
Zn4	Zn	1.732590	0.044212	0.081658
Zn5	Zn	1.097848	-0.320975	-0.418366
Zn6	Zn	1.597848	0.179025	0.081634
Zn7	Zn	1.097821	-0.455728	-0.593974
Zn8	Zn	1.597821	0.044272	-0.093974
O9	O	1.165237	-0.388356	-0.506180
O10	O	1.665237	0.111644	-0.006180
O11	O	1.345508	-0.338827	-0.570746
O12	O	1.845508	0.161173	-0.070746
O13	O	1.214686	-0.437948	-0.271324
O14	O	1.714686	0.062052	0.228676
O15	O	1.115788	-0.208137	-0.441705
O16	O	1.615788	0.291863	0.058295
O17	O	1.345435	-0.437905	-0.441665
O18	O	1.845435	0.062095	0.058335
O19	O	1.214855	-0.208105	-0.570769
O20	O	1.714855	0.291895	-0.070769
O21	O	1.115692	-0.338902	-0.271342
O22	O	1.615692	0.161098	0.228658
O23	O	0.985012	-0.338844	-0.441645
O24	O	1.485012	0.161156	0.058355
O25	O	1.115742	-0.437803	-0.741004
O26	O	1.615742	0.062197	-0.241004
O27	O	0.984993	-0.437846	-0.570663
O28	O	1.484993	0.062154	-0.070663
O29	O	1.214829	-0.338769	-0.741049
O30	O	1.714829	0.161231	-0.241049
O31	O	1.214660	-0.568612	-0.441604
O32	O	1.714660	-0.068612	0.058396
O33	O	1.115646	-0.568568	-0.570640
O34	O	1.615646	-0.068568	-0.070640
C35	C	0.955746	-0.388344	-0.506150
C36	C	1.455746	0.111656	-0.006150
C37	C	0.866125	-0.388359	-0.506163
C38	C	1.366125	0.111641	-0.006163
C39	C	0.537950	-0.388364	-0.506208
C40	C	1.037950	0.111636	-0.006208
C41	C	0.629258	-0.388360	-0.506192
C42	C	1.129258	0.111640	-0.006192
C43	C	0.702035	-0.388362	-0.506184
C44	C	1.202035	0.111638	-0.006184
C45	C	0.793349	-0.388357	-0.506170
C46	C	1.293349	0.111643	-0.006170
C47	C	1.165161	-0.597846	-0.506136
C48	C	1.665161	-0.097846	-0.006136
C49	C	1.165202	-0.687468	-0.506152
C50	C	1.665202	-0.187468	-0.006152
C51	C	1.165343	-1.015643	-0.506262
C52	C	1.665343	-0.515643	-0.006262
C53	C	1.165301	-0.924335	-0.506234
C54	C	1.665301	-0.424335	-0.006234
C55	C	1.165272	-0.851558	-0.506206
C56	C	1.665272	-0.351558	-0.006206
C57	C	1.165231	-0.760244	-0.506180
C58	C	1.665231	-0.260244	-0.006180
C59	C	1.375546	-0.388368	-0.506210
C60	C	1.875546	0.111632	-0.006210
C61	C	1.465167	-0.388373	-0.506223
C62	C	1.965167	0.111627	-0.006223
C63	C	1.165294	-0.388274	-0.780213
C64	C	1.665294	0.111726	-0.280213
C65	C	1.165318	-0.388240	-0.896990
C66	C	1.665318	0.111760	-0.396990
C67	C	1.165336	-0.178047	-0.506247
C68	C	1.665336	0.321953	-0.006247
C69	C	1.165378	-0.088425	-0.506276
C70	C	1.665378	0.411575	-0.006276
C71	C	1.216919	-0.336667	-0.951878
C72	C	1.716919	0.163333	-0.451878
C73	C	1.216939	-0.336638	-1.061602
C74	C	1.716939	0.163362	-0.561602
C75	C	1.113752	-0.439760	-1.061541
C76	C	1.613752	0.060240	-0.561541
C77	C	1.113730	-0.439785	-0.951819
C78	C	1.613730	0.060215	-0.451819
C79	C	1.268507	-0.285122	-0.897049
C80	C	1.768507	0.214878	-0.397049
C81	C	1.320114	-0.233546	-0.951936
C82	C	1.820114	0.266454	-0.451936
C83	C	1.320133	-0.233517	-1.061661
C84	C	1.820133	0.266483	-0.561661
C85	C	1.268546	-0.285064	-1.116497
C86	C	1.768546	0.214936	-0.616497
C87	C	1.165227	-0.388378	-0.233212
C88	C	1.665227	0.111622	0.266788
C89	C	1.165360	-0.388186	-0.116436
C90	C	1.665360	0.111814	0.383564
H91	H	1.362109	-0.191574	-0.907281
H92	H	1.862109	0.308426	-0.407281
C93	C	1.376245	-0.177490	-1.121065
C94	C	1.876245	0.322510	-0.621065
C95	C	1.421430	-0.132372	-1.049559
C96	C	1.921430	0.367628	-0.549559
C97	C	1.473141	-0.080760	-1.104242
C98	C	1.973141	0.419240	-0.604242
H99	H	1.345520	-0.142272	-1.163881
H100	H	1.845520	0.357728	-0.663881
H101	H	1.411412	-0.208310	-1.163839
H102	H	1.911412	0.291690	-0.663839
H103	H	1.386267	-0.101554	-1.006804
H104	H	1.886267	0.398446	-0.506804
H105	H	1.452172	-0.167569	-1.006742
H106	H	1.952172	0.332431	-0.506742
H107	H	1.508308	-0.111581	-1.147016
H108	H	2.008308	0.388419	-0.647016
H109	H	1.442408	-0.045547	-1.147056
H110	H	1.942408	0.454453	-0.647056
H111	H	1.503809	-0.050147	-1.055734
H112	H	2.003809	0.449853	-0.555734
H113	H	1.268556	-0.285026	-1.205842
H114	H	1.768556	0.214974	-0.705842
C115	C	1.057842	-0.495699	-1.121264
C116	C	1.557842	0.004301	-0.621264
C117	C	1.068924	-0.484656	-1.229102
C118	C	1.568924	0.015344	-0.729102
C119	C	1.017443	-0.536183	-1.284150
C120	C	1.517443	-0.036183	-0.784150
H121	H	1.003634	-0.483953	-1.103411
H122	H	1.503634	0.016047	-0.603411
H123	H	1.069623	-0.549896	-1.103319
H124	H	1.569623	-0.049896	-0.603319
H125	H	1.057137	-0.430471	-1.247040
H126	H	1.557137	0.069529	-0.747040
H127	H	1.123121	-0.496407	-1.246987
H128	H	1.623121	0.003593	-0.746987
H129	H	1.029224	-0.590380	-1.266204
H130	H	1.529224	-0.090380	-0.766204
H131	H	0.963239	-0.524433	-1.266288
H132	H	1.463239	-0.024433	-0.766288
H133	H	1.024960	-0.528703	-1.357323
H134	H	1.524960	-0.028703	-0.857323
C135	C	1.057695	-0.495885	-0.892408
C136	C	1.557695	0.004115	-0.392408
C137	C	1.012549	-0.541050	-0.963906
C138	C	1.512549	-0.041050	-0.463906
C139	C	0.960934	-0.592751	-0.909215
C140	C	1.460934	-0.092751	-0.409215
H141	H	1.022493	-0.465153	-0.849597
H142	H	1.522493	0.034847	-0.349597
H143	H	1.088513	-0.531065	-0.849628
H144	H	1.588513	-0.031065	-0.349628
H145	H	0.981733	-0.505874	-1.006667
H146	H	1.481733	-0.005874	-0.506667
H147	H	1.047730	-0.571798	-1.006719
H148	H	1.547730	-0.071798	-0.506719
H149	H	0.991753	-0.627931	-0.866435
H150	H	1.491753	-0.127931	-0.366435
H151	H	0.925738	-0.562013	-0.866406
H152	H	1.425738	-0.062013	-0.366406
H153	H	0.930302	-0.623407	-0.957718
H154	H	1.430302	-0.123407	-0.457718
H155	H	1.268499	-0.285142	-0.807706
H156	H	1.768499	0.214858	-0.307706
