data_functionalizedCrystal
_audit_creation_method	'MofGen! by Chris Wilmer'
_symmetry_space_group_name_H-M	'P1'
_symmetry_Int_Tables_number	1
_symmetry_cell_setting	triclinic
loop_
_symmetry_equiv_pos_as_xyz
  x,y,z
_cell_length_a	25.639242
_cell_length_b	10.685383
_cell_length_c	10.685880
_cell_angle_alpha	89.701762
_cell_angle_beta	85.595088
_cell_angle_gamma	85.617391
loop_
_atom_site_label
_atom_site_type_symbol
_atom_site_fract_x
_atom_site_fract_y
_atom_site_fract_z
Zn1	Zn	0.803082	0.553940	-0.671280
Zn2	Zn	0.789690	0.747696	-0.445409
Zn3	Zn	0.709487	0.537909	-0.461491
Zn4	Zn	0.708458	0.763654	-0.655093
O5	O	0.752679	0.650800	-0.558318
O6	O	0.874471	0.579673	-0.641362
O7	O	0.773877	0.706480	-0.271991
O8	O	0.727937	0.364473	-0.502824
O9	O	0.864632	0.722025	-0.475415
O10	O	0.796701	0.376251	-0.656956
O11	O	0.714952	0.552350	-0.283807
O12	O	0.636185	0.567824	-0.487128
O13	O	0.726184	0.749223	-0.832791
O14	O	0.635429	0.733678	-0.629367
O15	O	0.795703	0.595147	-0.844683
O16	O	0.772880	0.925376	-0.459719
O17	O	0.713199	0.937100	-0.613773
C18	C	0.616836	0.650744	-0.558237
C19	C	0.558721	0.650753	-0.558229
C20	C	0.741490	0.976762	-0.533272
C21	C	0.736752	1.116213	-0.522599
C22	C	0.762323	0.675753	-0.885528
C23	C	0.766432	0.686387	-1.024966
C24	C	0.197968	0.737289	-0.632295
C25	C	0.143364	0.737298	-0.632314
O26	O	0.114796	0.810807	-0.695221
N27	N	0.116441	0.650841	-0.558397
C28	C	0.144126	0.564361	-0.484466
O29	O	0.116212	0.490822	-0.421596
C30	C	0.198729	0.564347	-0.484454
C31	C	0.225649	0.650818	-0.558366
C32	C	0.224888	0.823751	-0.706203
C33	C	0.279488	0.823743	-0.706181
C34	C	0.307168	0.737272	-0.632253
C35	C	0.280249	0.650810	-0.558345
C36	C	0.226413	0.477862	-0.410530
C37	C	0.281021	0.477855	-0.410526
C38	C	0.307940	0.564326	-0.484438
C39	C	0.362530	0.564331	-0.484395
N40	N	0.389452	0.650788	-0.558312
C41	C	0.361772	0.737258	-0.632241
C42	C	0.029455	0.564395	-0.484497
C43	C	-0.025148	0.564414	-0.484501
C44	C	-0.025906	0.737350	-0.632352
C45	C	0.028698	0.737336	-0.632340
C46	C	0.056378	0.650852	-0.558414
C47	C	0.476436	0.737236	-0.632190
C48	C	0.531041	0.737224	-0.632158
C49	C	0.531794	0.564284	-0.484313
C50	C	0.477194	0.564300	-0.484339
C51	C	0.449516	0.650781	-0.558288
O52	O	0.391133	0.490856	-0.421525
O53	O	0.389693	0.810774	-0.695113
C54	C	0.889053	0.650857	-0.558400
C55	C	0.947167	0.650881	-0.558435
C56	C	0.763907	1.323567	-0.583479
C57	C	0.768641	1.184117	-0.594173
C58	C	0.743106	0.625853	-0.232388
C59	C	0.739110	0.614866	-0.092978
H60	H	0.552956	0.807643	-0.692347
H61	H	0.705820	1.164761	-0.453161
N62	N	0.799720	0.773421	-1.085754
N63	N	0.803126	0.782235	-1.202738
H64	H	0.826635	0.843702	-1.245672
H65	H	0.453907	0.807654	-0.692409
H66	H	-0.047061	0.494012	-0.424300
N67	N	0.057729	0.476044	-0.408984
N68	N	0.055845	0.360942	-0.426391
H69	H	0.075812	0.298540	-0.373063
H70	H	0.712570	0.545502	-1.044533
H71	H	0.202356	0.894167	-0.766411
N72	N	0.306973	0.912079	-0.781692
N73	N	0.282243	0.989269	-0.847691
H74	H	0.301651	1.051659	-0.901028
H75	H	0.050612	0.807747	-0.692528
N76	N	0.807451	1.123206	-0.681273
N77	N	0.841943	1.046662	-0.642743
H78	H	0.869355	1.003643	-0.704252
N79	N	-0.054195	0.825679	-0.707856
N80	N	-0.102947	0.825669	-0.707847
H81	H	-0.122929	0.888050	-0.761165
H82	H	0.204505	0.407451	-0.350339
H83	H	0.455275	0.493891	-0.424151
N84	N	0.309287	0.389492	-0.335014
N85	N	0.285241	0.312295	-0.269039
H86	H	0.305203	0.249887	-0.215710
H87	H	0.554341	0.493885	-0.424118
