data_functionalizedCrystal
_audit_creation_method	'MofGen! by Chris Wilmer'
_symmetry_space_group_name_H-M	'P1'
_symmetry_Int_Tables_number	1
_symmetry_cell_setting	triclinic
loop_
_symmetry_equiv_pos_as_xyz
  x,y,z
_cell_length_a	19.121063
_cell_length_b	19.805407
_cell_length_c	19.805399
_cell_angle_alpha	89.978275
_cell_angle_beta	87.588895
_cell_angle_gamma	87.529649
loop_
_atom_site_label
_atom_site_type_symbol
_atom_site_fract_x
_atom_site_fract_y
_atom_site_fract_z
Zn1	Zn	-0.279608	-1.023235	0.394240
Zn2	Zn	-0.397060	-1.018318	0.285875
Zn3	Zn	-0.279630	-0.910048	0.281062
Zn4	Zn	-0.397026	-0.905183	0.399016
O5	O	-0.338331	-0.964196	0.340048
O6	O	-0.295194	-1.117299	0.379881
O7	O	-0.381507	-1.003935	0.190521
O8	O	-0.181342	-0.929156	0.292062
O9	O	-0.381485	-1.113687	0.300266
O10	O	-0.181326	-1.012314	0.375214
O11	O	-0.295231	-0.924389	0.186984
O12	O	-0.295197	-0.814687	0.296693
O13	O	-0.381426	-0.920864	0.493098
O14	O	-0.381447	-0.811112	0.383353
O15	O	-0.295160	-1.007596	0.489589
O16	O	-0.495341	-0.999217	0.304897
O17	O	-0.495315	-0.916097	0.388021
C18	C	-0.338321	-0.788341	0.340019
C19	C	-0.338334	-0.713108	0.340024
C20	C	-0.293474	-0.253198	0.381583
C21	C	-0.293476	-0.323887	0.381580
C22	C	-0.338334	-0.357346	0.340056
C23	C	-0.383197	-0.320114	0.298538
C24	C	-0.383198	-0.249426	0.298545
C25	C	-0.383196	-0.605187	0.298509
C26	C	-0.383190	-0.675879	0.298503
C27	C	-0.293473	-0.679647	0.381544
C28	C	-0.293474	-0.608960	0.381551
C29	C	-0.338340	-0.571733	0.340035
C30	C	-0.338338	-0.495085	0.340040
C31	C	-0.338333	-0.433993	0.340047
C32	C	-0.520812	-0.956614	0.347514
C33	C	-0.598878	-0.953432	0.350731
C34	C	-0.635544	-0.995247	0.309000
C35	C	-0.708895	-0.992259	0.312029
C36	C	-0.745580	-0.947452	0.356786
C37	C	-0.708909	-0.905635	0.398522
C38	C	-0.635559	-0.908627	0.395496
C39	C	-0.967050	-0.936253	0.368090
C40	C	-1.040405	-0.933263	0.371112
C41	C	-1.040387	-1.019888	0.284619
C42	C	-0.967035	-1.022873	0.281594
C43	C	-0.930371	-0.981059	0.323332
C44	C	-0.820557	-0.944395	0.359882
C45	C	-0.855395	-0.984120	0.320239
C46	C	-0.155137	-0.971826	0.332568
C47	C	-0.077071	-0.975078	0.329380
C48	C	-0.338287	-0.964236	0.516589
C49	C	-0.338268	-0.964253	0.591821
C50	C	-0.338338	-0.140739	0.340072
C51	C	-0.338332	-0.215971	0.340067
C52	C	-0.338324	-0.964198	0.164192
C53	C	-0.338145	-0.964320	0.088953
C54	C	-0.293347	-1.009415	0.625339
C55	C	-0.293326	-1.009423	0.696026
C56	C	-0.338231	-0.964271	0.733195
C57	C	-0.383154	-0.919104	0.699672
C58	C	-0.383170	-0.919093	0.628985
C59	C	-0.383089	-0.919145	0.984742
C60	C	-0.383070	-0.919160	1.055434
C61	C	-0.293245	-1.009475	1.051784
C62	C	-0.293261	-1.009464	0.981097
C63	C	-0.338181	-0.964295	0.947580
C64	C	-0.338202	-0.964286	0.870933
C65	C	-0.338215	-0.964283	0.809841
H66	H	-0.256950	-0.354194	0.415389
Cl67	Cl	-0.439588	-0.717942	0.246298
Cl68	Cl	-0.809276	-1.040450	0.263977
Cl69	Cl	-0.439643	-0.862313	0.586848
Cl70	Cl	-0.236895	-1.066184	0.578620
H71	H	-0.419728	-0.219116	0.264740
H72	H	-0.256666	-1.046251	1.079081
H73	H	-0.605680	-1.031731	0.272550
Cl74	Cl	-0.237073	-0.211142	0.433784
Cl75	Cl	-0.589465	-0.856060	0.447963
H76	H	-0.419639	-0.882389	1.085695
H77	H	-0.256944	-0.581721	0.415361
Cl78	Cl	-0.237072	-0.726451	0.433739
H79	H	-0.419724	-0.347362	0.264732
Cl80	Cl	-0.439560	-0.862361	0.942616
Cl81	Cl	-0.439604	-0.862339	0.746398
H82	H	-0.850433	-0.907911	0.396323
H83	H	-0.738745	-1.026309	0.278046
H84	H	-0.256749	-1.046200	0.723314
H85	H	-1.070272	-0.896783	0.407571
Cl86	Cl	-0.236809	-1.066230	0.934375
H87	H	-0.419727	-0.574886	0.264702
H88	H	-0.738783	-0.869155	0.434968
H89	H	-0.937168	-1.059359	0.245149
Cl90	Cl	-1.086483	-1.072455	0.232156
Cl91	Cl	-0.920967	-0.883685	0.420560
