data_functionalizedCrystal
_audit_creation_method	'MofGen! by Chris Wilmer'
_symmetry_space_group_name_H-M	'P1'
_symmetry_Int_Tables_number	1
_symmetry_cell_setting	triclinic
loop_
_symmetry_equiv_pos_as_xyz
  x,y,z
_cell_length_a	8.559649
_cell_length_b	16.974885
_cell_length_c	7.088929
_cell_angle_alpha	99.820446
_cell_angle_beta	84.655815
_cell_angle_gamma	76.599917
loop_
_atom_site_label
_atom_site_type_symbol
_atom_site_fract_x
_atom_site_fract_y
_atom_site_fract_z
O1	O	0.203487	1.036844	0.001299
O2	O	0.233183	0.802992	-0.034853
O3	O	-0.014642	0.940521	-0.013590
O4	O	0.451313	0.899315	-0.019964
O5	O	-0.047836	0.958905	0.307227
O6	O	0.199989	0.821376	0.285964
O7	O	0.170294	1.055228	0.322116
Cu8	Cu	0.182111	0.939980	0.333333
Cu9	Cu	0.221366	0.918239	-0.046071
O10	O	0.418119	0.917699	0.300853
C11	C	0.216075	0.782522	0.120970
C12	C	0.214534	0.694143	0.107307
C13	C	0.207761	0.195583	0.011493
C14	C	0.209207	0.278627	0.024357
C15	C	0.191847	0.330160	0.205669
C16	C	0.173025	0.298648	0.374127
C17	C	0.171568	0.215608	0.361261
C18	C	0.194255	0.579591	0.262899
C19	C	0.195718	0.662636	0.275752
C20	C	0.231897	0.642608	-0.074019
C21	C	0.230448	0.559566	-0.086869
C22	C	0.211617	0.528063	0.081590
N23	N	0.193330	0.415043	0.218822
N24	N	0.210123	0.443182	0.068435
C25	C	-0.090826	0.952835	0.147297
C26	C	-0.268374	0.962129	0.148724
C27	C	0.494303	0.905384	0.139961
C28	C	0.671853	0.896089	0.138522
C29	C	0.187402	1.075697	0.166289
C30	C	0.188945	1.164076	0.179939
N31	N	0.154500	0.955278	0.600186
N32	N	0.248964	0.902949	-0.312923
H33	H	0.158880	0.340615	0.521755
F34	F	0.248925	0.504725	-0.279845
H35	H	-0.243491	0.832439	0.128688
F36	F	-0.379034	1.045334	0.161609
H37	H	0.056612	1.009519	0.690228
F38	F	0.376920	0.832062	0.569402
F39	F	0.174246	0.546069	0.442189
H40	H	0.247226	0.668268	-0.211168
H41	H	0.181592	0.704592	0.423405
F42	F	0.229226	0.312156	-0.154927
F43	F	0.226249	0.140742	-0.181485
H44	H	0.156262	0.189955	0.498428
