data_functionalizedCrystal
_audit_creation_method	'MofGen! by Chris Wilmer'
_symmetry_space_group_name_H-M	'P1'
_symmetry_Int_Tables_number	1
_symmetry_cell_setting	triclinic
loop_
_symmetry_equiv_pos_as_xyz
  x,y,z
_cell_length_a	10.654549
_cell_length_b	17.699092
_cell_length_c	9.730223
_cell_angle_alpha	89.997288
_cell_angle_beta	89.997731
_cell_angle_gamma	83.885573
loop_
_atom_site_label
_atom_site_type_symbol
_atom_site_fract_x
_atom_site_fract_y
_atom_site_fract_z
O1	O	1.665984	0.106301	-0.114253
O2	O	1.300328	0.116429	-0.114262
O3	O	1.493481	0.001242	-0.114254
O4	O	1.472831	0.221488	-0.114261
O5	O	1.493469	0.001238	0.114326
O6	O	1.300316	0.116426	0.114318
O7	O	1.665971	0.106298	0.114327
Zn8	Zn	1.483142	0.111361	0.150615
Zn9	Zn	1.483158	0.111365	-0.150549
O10	O	1.472819	0.221485	0.114319
C11	C	1.253537	0.115684	0.000027
C12	C	1.114133	0.113459	0.000023
C13	C	1.492734	-0.026962	0.000034
C14	C	1.490508	-0.110993	0.000028
C15	C	0.902471	0.179183	0.000027
C16	C	1.033455	0.181279	0.000019
C17	C	1.063821	0.043538	0.000022
C18	C	0.932839	0.041442	0.000021
C19	C	1.489473	-0.150466	-0.124573
C20	C	1.487374	-0.229422	-0.124575
C21	C	1.486320	-0.268905	0.000026
C22	C	1.487352	-0.229427	0.124636
C23	C	1.489442	-0.150472	0.124636
C24	C	1.478922	-0.547846	0.124638
C25	C	1.476836	-0.626807	0.124628
C26	C	1.476855	-0.626796	-0.124573
C27	C	1.478944	-0.547841	-0.124573
C28	C	1.479970	-0.508369	0.000036
C29	C	1.482243	-0.422755	0.000037
C30	C	1.484055	-0.354518	0.000027
C31	C	1.712763	0.107043	0.000036
C32	C	1.852167	0.109268	0.000030
C33	C	1.473566	0.249688	0.000029
C34	C	1.475792	0.333720	0.000026
N35	N	1.483140	0.111358	0.356151
N36	N	1.483170	0.111363	-0.356086
C37	C	1.568697	0.060375	0.428081
C38	C	1.568709	0.060375	0.571964
C39	C	1.397604	0.162348	0.571975
C40	C	1.397586	0.162344	0.428095
H41	H	0.836790	0.234411	0.000033
C42	C	1.303519	0.218467	0.348968
N43	N	1.232690	0.260749	0.289369
H44	H	1.486486	-0.261580	0.226088
C45	C	1.088782	0.258192	0.000026
N46	N	1.130453	0.316126	0.000034
H47	H	1.638376	0.018859	0.630525
H48	H	1.475975	-0.658952	0.226099
C49	C	0.877503	-0.035474	0.000033
N50	N	0.835823	-0.093405	0.000043
H51	H	1.490267	-0.118333	0.226099
C52	C	1.662798	0.004283	0.348948
N53	N	1.733674	-0.037970	0.289349
C54	C	1.490632	-0.107042	-0.261645
N55	N	1.491499	-0.074336	-0.364893
H56	H	1.129520	-0.011683	0.000018
H57	H	1.486536	-0.261557	-0.226037
H58	H	1.327950	0.203861	0.630566
H59	H	1.476013	-0.658943	-0.226036
C60	C	1.480103	-0.504414	-0.261642
N61	N	1.480970	-0.471705	-0.364887
H62	H	1.479782	-0.515719	0.226102
