data_functionalizedCrystal
_audit_creation_method	'MofGen! by Chris Wilmer'
_symmetry_space_group_name_H-M	'P1'
_symmetry_Int_Tables_number	1
_symmetry_cell_setting	triclinic
loop_
_symmetry_equiv_pos_as_xyz
  x,y,z
_cell_length_a	17.019282
_cell_length_b	17.019294
_cell_length_c	15.500227
_cell_angle_alpha	88.951630
_cell_angle_beta	91.034464
_cell_angle_gamma	83.655696
loop_
_atom_site_label
_atom_site_type_symbol
_atom_site_fract_x
_atom_site_fract_y
_atom_site_fract_z
O1	O	1.046640	0.100371	-0.001416
O2	O	0.817876	0.112284	-0.019354
O3	O	0.938207	-0.008055	-0.001416
O4	O	0.926309	0.220711	-0.019354
O5	O	0.930905	-0.000782	0.141386
O6	O	0.810574	0.119558	0.123448
O7	O	1.039338	0.107645	0.141386
Cu8	Cu	0.924289	0.114266	0.145456
Cu9	Cu	0.932925	0.105664	-0.023424
O10	O	0.919007	0.227985	0.123448
C11	C	0.784946	0.115328	0.049909
C12	C	0.697702	0.113551	0.043538
C13	C	0.652740	0.116679	0.118389
C14	C	0.570767	0.114996	0.112407
C15	C	0.533757	0.110191	0.031573
C16	C	0.578726	0.107061	-0.043283
C17	C	0.660699	0.108737	-0.037300
C18	C	0.286454	0.104925	0.009613
C19	C	0.204475	0.103250	0.003635
C20	C	0.196521	0.111185	0.159327
C21	C	0.278495	0.112866	0.165302
C22	C	0.323457	0.109731	0.090446
C23	C	0.449967	0.108474	0.025456
C24	C	0.407246	0.111443	0.096565
C25	C	0.933961	-0.033698	0.072121
C26	C	0.932179	-0.120943	0.078485
C27	C	0.935323	-0.165891	0.003635
C28	C	0.933643	-0.247865	0.009617
C29	C	0.928824	-0.284891	0.090451
C30	C	0.925677	-0.239937	0.165307
C31	C	0.927351	-0.157963	0.159324
C32	C	0.923563	-0.532200	0.112412
C33	C	0.921891	-0.614180	0.118390
C34	C	0.929856	-0.622103	-0.037302
C35	C	0.931535	-0.540128	-0.043278
C36	C	0.928384	-0.495180	0.031578
C37	C	0.927109	-0.368682	0.096568
C38	C	0.930093	-0.411390	0.025460
C39	C	1.072269	0.104601	0.072121
C40	C	1.159512	0.106378	0.078486
C41	C	0.923253	0.253628	0.049909
C42	C	0.925036	0.340872	0.043539
N43	N	0.918221	0.120316	0.264238
N44	N	0.938999	0.099608	-0.142205
C45	C	0.969228	0.069342	0.317115
C46	C	0.964646	0.073925	0.407005
C47	C	0.909061	0.129485	0.444016
C48	C	0.858049	0.180461	0.391131
C49	C	0.862628	0.175874	0.301243
C50	C	0.892566	0.145996	0.715022
C51	C	0.887993	0.150581	0.804917
C52	C	0.994589	0.044044	0.820785
C53	C	0.999166	0.039465	0.730895
C54	C	0.948152	0.090437	0.678018
C55	C	0.904378	0.134172	0.535897
C56	C	0.952832	0.085746	0.586138
H57	H	0.534163	0.117530	0.173360
H58	H	0.682865	0.120598	0.184213
H59	H	1.044428	-0.005777	0.700763
F60	F	0.920539	-0.279343	0.251337
F61	F	0.410576	0.103333	-0.060569
H62	H	0.821092	0.217381	0.258190
H63	H	0.308622	0.116775	0.231127
F64	F	0.935224	-0.371983	-0.060567
H65	H	0.159904	0.113735	0.220270
H66	H	0.917963	-0.644323	0.184218
H67	H	0.924779	-0.121365	0.220275
F68	F	0.165089	0.098138	-0.082404
F69	F	0.940458	-0.126493	-0.082401
H70	H	0.548588	0.103143	-0.109100
F71	F	0.838275	0.200247	0.658754
H72	H	0.932421	-0.658708	-0.098245
H73	H	0.697306	0.106192	-0.098252
F74	F	0.334296	0.101589	-0.070056
H75	H	0.437383	0.115351	0.162380
H76	H	1.006179	0.032418	0.450058
H77	H	0.936207	-0.284459	-0.051335
F78	F	0.921977	-0.408095	0.182596
F79	F	0.936666	-0.500729	-0.129313
H80	H	0.842727	0.195828	0.835046
H81	H	0.812786	0.225697	0.421270
H82	H	0.998086	0.040506	0.556002
F83	F	0.920199	-0.484372	0.192080
H84	H	1.014494	0.024102	0.286988
H85	H	1.036122	0.002543	0.863845
H86	H	0.859120	0.179412	0.566038
