data_functionalizedCrystal
_audit_creation_method	'MofGen! by Chris Wilmer'
_symmetry_space_group_name_H-M	'P1'
_symmetry_Int_Tables_number	1
_symmetry_cell_setting	triclinic
loop_
_symmetry_equiv_pos_as_xyz
  x,y,z
_cell_length_a	10.686220
_cell_length_b	14.908520
_cell_length_c	14.908308
_cell_angle_alpha	96.360765
_cell_angle_beta	97.378149
_cell_angle_gamma	97.432447
loop_
_atom_site_label
_atom_site_type_symbol
_atom_site_fract_x
_atom_site_fract_y
_atom_site_fract_z
Zn1	Zn	1.872173	-0.280779	-0.423725
Zn2	Zn	1.872028	-0.423432	-0.281103
Zn3	Zn	1.672207	-0.283733	-0.284008
Zn4	Zn	1.646075	-0.445272	-0.445549
O5	O	1.765621	-0.358304	-0.358596
O6	O	2.050402	-0.289325	-0.394457
O7	O	1.856397	-0.396998	-0.154196
O8	O	1.709730	-0.156036	-0.294624
O9	O	2.050296	-0.394132	-0.289673
O10	O	1.856644	-0.153865	-0.397273
O11	O	1.709590	-0.294361	-0.156330
O12	O	1.490492	-0.315538	-0.315786
O13	O	1.665191	-0.431355	-0.569946
O14	O	1.471293	-0.434220	-0.434469
O15	O	1.831304	-0.310502	-0.553912
O16	O	1.831058	-0.553635	-0.310835
O17	O	1.665051	-0.569680	-0.431652
C18	C	1.434675	-0.377571	-0.377811
C19	C	1.293091	-0.385836	-0.386054
C20	C	1.745236	-0.594666	-0.373315
C21	C	1.736629	-0.695777	-0.379635
C22	C	1.893478	-0.869004	-0.265789
C23	C	1.885396	-0.964007	-0.271724
C24	C	1.712389	-0.980788	-0.397445
C25	C	1.720471	-0.885785	-0.391509
C26	C	1.811018	-0.829896	-0.325678
C27	C	1.819093	-0.734891	-0.319739
C28	C	1.646093	-0.751674	-0.445463
C29	C	1.638011	-0.846677	-0.451399
C30	C	2.097859	-0.338963	-0.339307
C31	C	2.239439	-0.330721	-0.331087
C32	C	1.745349	-0.373035	-0.595858
C33	C	1.736710	-0.379313	-0.696965
C34	C	1.786118	-0.121019	-0.343838
C35	C	1.794853	-0.019902	-0.337549
C36	C	1.893449	-0.265244	-0.870260
C37	C	1.885336	-0.271139	-0.965258
C38	C	1.712367	-0.396993	-0.981962
C39	C	1.720480	-0.391098	-0.886963
C40	C	1.811025	-0.325222	-0.831115
C41	C	1.819143	-0.319332	-0.736115
C42	C	1.646169	-0.445181	-0.752821
C43	C	1.638056	-0.451076	-0.847819
C44	C	1.785893	-0.343560	-0.122249
C45	C	1.794800	-0.337012	-0.021112
H46	H	1.967196	-0.823498	-0.212181
C47	C	1.917247	-0.247760	-0.675372
C48	C	1.854808	-0.190285	-0.621380
C49	C	1.945138	-0.124345	-0.565408
H50	H	1.965213	-0.212787	-0.712185
H51	H	1.972902	-0.276993	-0.637200
H52	H	1.799175	-0.161054	-0.659548
H53	H	1.806848	-0.225231	-0.584549
H54	H	2.000794	-0.153578	-0.527236
H55	H	1.993099	-0.089379	-0.602228
H56	H	1.902787	-0.085346	-0.528762
H57	H	1.564294	-0.892194	-0.504998
C58	C	1.322548	-0.259474	-0.259785
C59	C	1.296277	-0.275433	-0.172833
C60	C	1.372833	-0.209827	-0.107126
H61	H	1.304995	-0.200414	-0.270516
H62	H	1.409861	-0.263218	-0.263456
H63	H	1.208984	-0.271680	-0.169165
H64	H	1.313836	-0.334481	-0.162073
H65	H	1.460147	-0.213571	-0.110797
H66	H	1.355275	-0.150771	-0.117866
H67	H	1.355028	-0.220651	-0.048122
H68	H	1.952546	-0.995844	-0.222957
C69	C	1.209980	-0.457335	-0.457113
C70	C	1.236185	-0.544213	-0.440895
C71	C	1.159637	-0.610098	-0.506328
H72	H	1.227585	-0.446777	-0.516220
H73	H	1.122664	-0.453660	-0.453381
H74	H	1.323480	-0.547886	-0.444636
H75	H	1.218573	-0.554800	-0.381801
H76	H	1.072322	-0.606423	-0.502596
H77	H	1.177248	-0.599532	-0.565430
H78	H	1.177398	-0.669053	-0.495328
C79	C	1.556714	-0.709039	-0.510440
C80	C	1.583185	-0.613877	-0.491168
C81	C	1.500886	-0.574571	-0.551009
H82	H	1.470911	-0.728723	-0.503072
H83	H	1.568751	-0.727235	-0.571479
H84	H	1.571137	-0.595689	-0.430144
H85	H	1.668972	-0.594167	-0.498541
H86	H	1.512924	-0.592767	-0.612048
H87	H	1.415088	-0.594262	-0.543636
H88	H	1.518843	-0.510000	-0.537947
C89	C	1.614133	-1.041631	-0.468822
C90	C	1.624693	-1.133200	-0.461185
C91	C	1.534189	-1.189275	-0.526913
H92	H	1.628706	-1.028859	-0.527949
H93	H	1.530993	-1.030336	-0.459450
H94	H	1.707814	-1.144491	-0.470564
H95	H	1.610108	-1.146000	-0.402072
H96	H	1.451048	-1.177979	-0.517541
H97	H	1.548769	-1.176495	-0.586036
H98	H	1.541334	-1.251410	-0.521735
C99	C	1.991906	-0.193870	-0.809573
C100	C	2.073773	-0.237249	-0.753516
C101	C	2.164500	-0.171529	-0.697609
H102	H	1.949929	-0.154736	-0.772791
H103	H	2.039914	-0.159006	-0.846461
H104	H	2.025771	-0.272097	-0.716631
H105	H	2.115780	-0.276377	-0.790273
H106	H	2.212508	-0.136665	-0.734498
H107	H	2.122512	-0.132399	-0.660834
H108	H	2.220064	-0.200952	-0.659574
H109	H	1.892817	-0.689387	-0.266134
C110	C	1.556591	-0.510411	-0.710494
C111	C	1.475582	-0.569372	-0.779740
C112	C	1.393061	-0.629480	-0.740783
H113	H	1.507142	-0.476649	-0.674502
H114	H	1.605021	-0.544966	-0.673096
H115	H	1.427156	-0.534821	-0.817123
H116	H	1.524996	-0.603155	-0.815736
H117	H	1.441491	-0.664035	-0.703385
H118	H	1.343620	-0.595710	-0.704792
H119	H	1.338094	-0.669498	-0.787760
C120	C	1.974985	-0.205969	-1.007584
C121	C	2.056032	-0.147034	-0.938338
C122	C	2.138646	-0.086991	-0.977293
H123	H	1.926665	-0.171381	-1.044998
H124	H	2.024391	-0.239810	-1.043560
H125	H	2.006632	-0.113196	-0.902378
H126	H	2.104381	-0.181597	-0.900919
H127	H	2.188052	-0.120833	-1.013269
H128	H	2.090315	-0.052410	-1.014706
H129	H	2.193654	-0.047003	-0.930316
H130	H	1.638650	-0.450625	-1.027449
H131	H	1.564335	-0.504708	-0.893303
