data_functionalizedCrystal
_audit_creation_method	'MofGen! by Chris Wilmer'
_symmetry_space_group_name_H-M	'P1'
_symmetry_Int_Tables_number	1
_symmetry_cell_setting	triclinic
loop_
_symmetry_equiv_pos_as_xyz
  x,y,z
_cell_length_a	6.817900
_cell_length_b	7.190334
_cell_length_c	12.000032
_cell_angle_alpha	96.817014
_cell_angle_beta	119.142083
_cell_angle_gamma	60.611776
loop_
_atom_site_label
_atom_site_type_symbol
_atom_site_fract_x
_atom_site_fract_y
_atom_site_fract_z
V1	V	-4.310133	0.668555	-0.174816
O2	O	-4.201494	0.652128	0.010498
O3	O	-4.347000	0.667542	-0.348648
O4	O	-4.345498	0.958512	-0.171206
O5	O	-4.203007	0.359144	-0.168172
V6	V	-4.771859	0.631115	-0.152759
O7	O	-4.619207	0.750684	-0.223200
O8	O	-4.912983	0.548986	-0.104375
O9	O	-4.511785	0.632128	0.021073
O10	O	-4.997895	0.647542	-0.338073
O11	O	-4.996382	0.940526	-0.159403
O12	O	-4.513288	0.341159	-0.156368
C13	C	-4.210034	0.657913	-0.391053
C14	C	-4.322022	0.659018	-0.533158
C15	C	-4.192827	0.649269	-0.590357
C16	C	-4.308569	0.650410	-0.737229
C17	C	-4.208125	1.029071	-0.164703
C18	C	-4.320966	1.270591	-0.162866
C19	C	-4.312095	0.641751	0.063472
C20	C	-4.179350	0.640661	0.205575
H21	H	-3.983042	0.631463	-0.734668
O22	O	-4.542934	0.661666	-0.808402
C23	C	-4.998867	0.866432	-0.877433
C24	C	-4.733610	0.853937	-0.796753
H25	H	-5.153109	1.021893	-0.868065
H26	H	-4.989523	0.721425	-0.840885
H27	H	-5.050367	0.865287	-0.983165
H28	H	-4.681950	0.855148	-0.691004
H29	H	-4.743093	0.998936	-0.833408
O30	O	-3.958514	0.638025	-0.518910
C31	C	-3.519683	0.438319	-0.343752
C32	C	-3.784926	0.450814	-0.424542
H33	H	-3.379248	0.286948	-0.267455
H34	H	-3.542870	0.587428	-0.294371
H35	H	-3.440518	0.431267	-0.409695
H36	H	-3.864239	0.457798	-0.358689
H37	H	-3.761579	0.301708	-0.473937
O38	O	-4.556377	0.670272	-0.604334
C39	C	-5.012311	0.875039	-0.673366
C40	C	-4.747053	0.862544	-0.592686
H41	H	-5.166553	1.030499	-0.663997
H42	H	-5.002967	0.730031	-0.636818
H43	H	-5.063810	0.873893	-0.779098
H44	H	-4.695393	0.863754	-0.486937
H45	H	-4.756537	1.007542	-0.629341
