data_functionalizedCrystal
_audit_creation_method	'MofGen! by Chris Wilmer'
_symmetry_space_group_name_H-M	'P1'
_symmetry_Int_Tables_number	1
_symmetry_cell_setting	triclinic
loop_
_symmetry_equiv_pos_as_xyz
  x,y,z
_cell_length_a	16.053802
_cell_length_b	23.532350
_cell_length_c	23.532407
_cell_angle_alpha	82.837000
_cell_angle_beta	87.461127
_cell_angle_gamma	92.558867
loop_
_atom_site_label
_atom_site_type_symbol
_atom_site_fract_x
_atom_site_fract_y
_atom_site_fract_z
O1	O	-0.069338	-0.757694	-0.066570
O2	O	-0.069366	-0.591827	-0.076607
O3	O	-0.069324	-0.679761	0.011343
O4	O	-0.069381	-0.669760	-0.154520
O5	O	0.069533	-0.674921	0.006522
O6	O	0.069490	-0.586987	-0.081428
O7	O	0.069518	-0.752854	-0.071391
Zn8	Zn	0.091551	-0.669152	-0.077175
Zn9	Zn	-0.091399	-0.675529	-0.070823
O10	O	0.069476	-0.664920	-0.159341
C11	C	0.000059	-0.568190	-0.078767
C12	C	0.000049	-0.504972	-0.078014
N13	N	0.216409	-0.664804	-0.081510
C14	C	0.075779	-0.110317	-0.075913
C15	C	0.075783	-0.050918	-0.075197
O16	O	0.140155	-0.017955	-0.077042
N17	N	0.000093	-0.023847	-0.072213
C18	C	-0.075606	-0.056181	-0.069940
O19	O	-0.139986	-0.027701	-0.067337
C20	C	-0.075609	-0.115580	-0.070653
C21	C	0.000086	-0.142646	-0.073642
C22	C	0.151468	-0.137384	-0.078901
C23	C	0.151464	-0.196779	-0.079618
C24	C	0.075771	-0.229108	-0.077347
C25	C	0.000082	-0.202042	-0.074359
C26	C	-0.151307	-0.147913	-0.068375
C27	C	-0.151304	-0.207316	-0.069087
C28	C	-0.075608	-0.234382	-0.072076
C29	C	-0.075615	-0.293766	-0.072805
N30	N	0.000075	-0.320836	-0.075788
C31	C	0.075768	-0.288507	-0.078059
C32	C	-0.075594	0.068562	-0.068444
C33	C	-0.075592	0.127960	-0.067736
C34	C	0.075797	0.133219	-0.072991
C35	C	0.075794	0.073820	-0.073703
C36	C	0.000096	0.041491	-0.071427
C37	C	0.075753	-0.413242	-0.079565
C38	C	0.075743	-0.472643	-0.080285
C39	C	-0.075646	-0.477897	-0.075027
C40	C	-0.075636	-0.418501	-0.074310
C41	C	0.000071	-0.386175	-0.076578
O42	O	-0.139954	-0.326765	-0.070959
O43	O	0.140137	-0.316996	-0.080655
N44	N	-0.216257	-0.679881	-0.066484
C45	C	0.260121	-0.702234	-0.044100
C46	C	0.347526	-0.699197	-0.047138
C47	C	0.391218	-0.658734	-0.087588
C48	C	0.347500	-0.621300	-0.125000
C49	C	0.260096	-0.624334	-0.121959
C50	C	0.652621	-0.645482	-0.100854
C51	C	0.740031	-0.642452	-0.103893
C52	C	0.740052	-0.720348	-0.026031
C53	C	0.652646	-0.723381	-0.022996
C54	C	0.608936	-0.685945	-0.060405
N55	N	0.480560	-0.655631	-0.090695
N56	N	0.519595	-0.689046	-0.057295
C57	C	0.000110	-0.677086	0.030148
C58	C	0.000126	-0.676320	0.093365
C59	C	0.000093	0.223510	-0.069236
C60	C	0.000102	0.160294	-0.070004
C61	C	0.000078	-0.621124	0.359522
C62	C	0.000081	-0.621836	0.300122
O63	O	0.000046	-0.578050	0.263370
N64	N	0.000098	-0.674113	0.277506
C65	C	0.000104	-0.725682	0.314294
O66	O	0.000118	-0.770214	0.289603
C67	C	0.000094	-0.724971	0.373693
C68	C	0.000085	-0.672690	0.396306
C69	C	0.000068	-0.568848	0.382135
C70	C	0.000066	-0.568137	0.441531
C71	C	0.000074	-0.619702	0.478315
C72	C	0.000083	-0.671979	0.455702
C73	C	0.000093	-0.776540	0.410481
C74	C	0.000083	-0.775823	0.469883
C75	C	0.000074	-0.723543	0.492495
C76	C	0.000089	-0.722833	0.551881
N77	N	0.000072	-0.670556	0.574497
C78	C	0.000064	-0.618990	0.537714
C79	C	0.000122	-0.727173	0.189551
C80	C	0.000138	-0.727885	0.130153
C81	C	0.000114	-0.624038	0.115985
C82	C	0.000104	-0.623327	0.175384
C83	C	0.000105	-0.674896	0.212167
C84	C	0.000061	-0.617501	0.662450
C85	C	0.000062	-0.616794	0.721852
C86	C	0.000082	-0.720641	0.736015
C87	C	0.000085	-0.721348	0.676618
C88	C	0.000071	-0.669773	0.639837
O89	O	0.000121	-0.766596	0.588668
O90	O	0.000039	-0.574467	0.562414
C91	C	0.000053	-0.667594	0.821853
C92	C	0.000070	-0.668359	0.758636
H93	H	0.137385	-0.494677	-0.082721
O94	O	0.224948	-0.105912	-0.081180
C95	C	0.229479	-0.064674	-0.130264
H96	H	0.163756	-0.055808	-0.144321
H97	H	0.261532	-0.023308	-0.119783
H98	H	0.266811	-0.081559	-0.166379
O99	O	0.000086	-0.566055	0.743911
C100	C	0.000064	-0.576480	0.804226
H101	H	0.026365	-0.620087	0.817523
H102	H	0.040366	-0.541641	0.820881
H103	H	-0.066555	-0.576140	0.823047
O104	O	0.000121	-0.770780	0.771670
C105	C	0.000105	-0.817081	0.738980
H106	H	0.026402	-0.801459	0.693654
H107	H	0.040415	-0.851787	0.759714
H108	H	-0.066511	-0.835437	0.737141
O109	O	0.389892	-0.735543	-0.010721
C110	C	0.368578	-0.727349	0.046353
H111	H	0.305124	-0.707594	0.048376
H112	H	0.365585	-0.770425	0.074722
H113	H	0.417787	-0.697401	0.062112
O114	O	0.000193	-0.517361	0.463517
C115	C	0.072088	-0.511330	0.494983
H116	H	0.122369	-0.539254	0.479374
H117	H	0.096208	-0.464556	0.488552
H118	H	0.055825	-0.525302	0.542466
O119	O	0.000051	-0.572493	0.197254
C120	C	0.000070	-0.527136	0.152043
H121	H	-0.026204	-0.543787	0.112687
H122	H	-0.040256	-0.492020	0.165634
H123	H	0.066685	-0.508924	0.141250
H124	H	0.000079	-0.817819	0.499830
O125	O	0.149240	-0.381775	-0.081844
C126	C	0.153768	-0.340534	-0.130926
H127	H	0.088044	-0.331667	-0.144981
H128	H	0.185822	-0.299169	-0.120443
H129	H	0.191099	-0.357416	-0.167043
H130	H	0.617074	-0.756330	0.009942
H131	H	0.775649	-0.750826	0.004427
H132	H	0.137431	0.159552	-0.074840
O133	O	0.217761	-0.587950	-0.158360
C134	C	0.275064	-0.551576	-0.194706
H135	H	0.337364	-0.572759	-0.197395
H136	H	0.249787	-0.543504	-0.239355
H137	H	0.284378	-0.509053	-0.176759
O138	O	0.000118	-0.778722	0.108287
C139	C	0.000147	-0.824077	0.153496
H140	H	-0.026146	-0.809260	0.194667
H141	H	-0.040158	-0.862005	0.142687
H142	H	0.066767	-0.837643	0.159692
H143	H	0.000108	-0.582051	0.086025
O144	O	0.000245	-0.777230	0.225334
C145	C	0.072167	-0.777427	0.257625
H146	H	0.096130	-0.731404	0.259551
H147	H	0.055993	-0.799472	0.302950
H148	H	0.122535	-0.801564	0.236488
O149	O	-0.000017	-0.827295	0.388463
C150	C	-0.071942	-0.833329	0.357027
H151	H	-0.095916	-0.789189	0.342793
H152	H	-0.055769	-0.855253	0.317705
H153	H	-0.122301	-0.860421	0.385161
H154	H	0.775601	-0.609500	-0.136835
H155	H	0.000059	-0.526855	0.352192
O156	O	0.610126	-0.609072	-0.137119
C157	C	0.559571	-0.575872	-0.105052
H158	H	0.585932	-0.574244	-0.061059
H159	H	0.558572	-0.530511	-0.128499
H160	H	0.493329	-0.596015	-0.099667
H161	H	0.000104	-0.763918	0.658206
H162	H	-0.137231	0.149993	-0.065311
O163	O	0.225069	-0.222981	-0.082492
C164	C	0.291869	-0.181698	-0.084356
H165	H	0.269675	-0.142591	-0.065045
H166	H	0.344820	-0.200788	-0.058744
H167	H	0.315130	-0.168333	-0.130783
H168	H	-0.137241	0.042243	-0.066596
H169	H	0.137432	0.051787	-0.076138
O170	O	-0.224819	-0.238756	-0.066779
C171	C	-0.229328	-0.280018	-0.017714
H172	H	-0.186357	-0.265336	0.015490
H173	H	-0.296268	-0.285275	0.001162
H174	H	-0.209006	-0.322807	-0.030117
H175	H	-0.212946	-0.125886	-0.065941
O176	O	0.000088	-0.567348	0.626806
C177	C	0.000058	-0.521062	0.659513
H178	H	0.026345	-0.534869	0.703023
H179	H	0.040368	-0.483546	0.636010
H180	H	-0.066561	-0.507342	0.665955
H181	H	-0.137273	-0.396462	-0.071886
H182	H	-0.137274	-0.504230	-0.073180
H183	H	0.224553	-0.735186	-0.011164
H184	H	0.383079	-0.588351	-0.157933
