data_functionalizedCrystal
_audit_creation_method	'MofGen! by Chris Wilmer'
_symmetry_space_group_name_H-M	'P1'
_symmetry_Int_Tables_number	1
_symmetry_cell_setting	triclinic
loop_
_symmetry_equiv_pos_as_xyz
  x,y,z
_cell_length_a	16.974897
_cell_length_b	15.995350
_cell_length_c	16.053802
_cell_angle_alpha	92.572097
_cell_angle_beta	91.071702
_cell_angle_gamma	83.446790
loop_
_atom_site_label
_atom_site_type_symbol
_atom_site_fract_x
_atom_site_fract_y
_atom_site_fract_z
O1	O	1.042404	0.113883	0.139784
O2	O	0.812946	0.126675	0.124298
O3	O	0.933948	-0.001594	0.132463
O4	O	0.921403	0.242152	0.131618
O5	O	0.940601	-0.008633	-0.005946
O6	O	0.819599	0.119636	-0.014112
O7	O	1.049057	0.106844	0.001374
Zn8	Zn	0.935385	0.112123	-0.028345
Zn9	Zn	0.926619	0.121397	0.154016
O10	O	0.928056	0.235113	-0.006792
C11	C	0.786910	0.122536	0.053111
C12	C	0.699419	0.120680	0.047206
C13	C	0.654682	0.123647	0.119873
C14	C	0.572473	0.121916	0.114313
C15	C	0.535004	0.117212	0.036084
C16	C	0.579747	0.114248	-0.036588
C17	C	0.661953	0.115985	-0.031027
C18	C	0.289533	0.111612	0.011362
C19	C	0.207322	0.109872	0.005806
C20	C	0.200053	0.117542	0.156707
C21	C	0.282262	0.119274	0.162262
C22	C	0.326997	0.116314	0.089589
N23	N	0.450974	0.115440	0.030399
N24	N	0.411025	0.118092	0.095276
C25	C	0.936755	-0.036309	0.063225
C26	C	0.935200	-0.129263	0.063125
C27	C	0.929617	-0.467024	0.062745
C28	C	0.843427	-0.419775	0.057240
C29	C	0.844997	-0.323097	0.057033
C30	C	0.932386	-0.299457	0.062934
C31	C	0.978690	-0.344455	-0.013235
C32	C	0.976528	-0.441099	-0.013447
C33	C	0.970743	-0.433448	0.144071
C34	C	0.970672	-0.336450	0.145114
C35	C	0.933956	-0.204756	0.063038
C36	C	0.928050	-0.561725	0.062636
C37	C	1.075093	0.110983	0.072563
C38	C	1.162584	0.112839	0.078473
C39	C	0.925248	0.269829	0.062449
C40	C	0.926803	0.362783	0.062554
N41	N	0.920637	0.127720	0.278473
N42	N	0.941372	0.105793	-0.152801
C43	C	0.972222	0.073246	0.325648
C44	C	0.968036	0.077667	0.412773
C45	C	0.912261	0.136559	0.452720
C46	C	0.860674	0.191039	0.405538
C47	C	0.864864	0.186621	0.318416
C48	C	0.893976	0.155854	0.712895
C49	C	0.889787	0.160267	0.800024
C50	C	0.997152	0.046896	0.807252
C51	C	1.001334	0.042479	0.720128
C52	C	0.949749	0.096962	0.672954
N53	N	0.907979	0.141078	0.541775
N54	N	0.954036	0.092446	0.583901
H55	H	0.325948	0.109196	-0.047813
H56	H	1.010041	0.033311	0.451182
H57	H	0.536051	0.124332	0.173486
H58	H	0.951996	-0.319133	-0.074046
H59	H	0.814089	-0.298197	-0.001991
H60	H	0.312764	0.123098	0.225964
H61	H	0.163621	0.119954	0.215873
F62	F	0.709565	0.112830	-0.108369
F63	F	0.809962	0.244603	0.268210
H64	H	0.808862	-0.291872	0.111435
H65	H	1.046751	-0.005475	0.687605
F66	F	1.052175	-0.010948	0.857472
H67	H	0.811846	-0.442315	-0.001438
F68	F	0.930148	-0.456389	0.219887
F69	F	0.794843	-0.440332	0.128286
F70	F	0.167448	0.104852	-0.077459
H71	H	1.043034	-0.330328	-0.011838
H72	H	0.549233	0.110423	-0.100283
H73	H	1.034254	-0.465034	0.148893
H74	H	0.948374	-0.462477	-0.074623
H75	H	1.039969	-0.473382	-0.012761
F76	F	0.926692	-0.296652	0.218830
H77	H	1.034171	-0.320696	0.154190
F78	F	1.031583	0.010560	0.283142
H79	H	0.844365	0.208226	0.832544
F80	F	0.839074	0.213836	0.662696
H81	H	0.685183	0.127475	0.183575
F82	F	0.801316	0.253721	0.448054
