data_functionalizedCrystal
_audit_creation_method	'MofGen! by Chris Wilmer'
_symmetry_space_group_name_H-M	'P1'
_symmetry_Int_Tables_number	1
_symmetry_cell_setting	triclinic
loop_
_symmetry_equiv_pos_as_xyz
  x,y,z
_cell_length_a	12.594516
_cell_length_b	12.759401
_cell_length_c	12.759393
_cell_angle_alpha	89.981504
_cell_angle_beta	90.029124
_cell_angle_gamma	89.983786
loop_
_atom_site_label
_atom_site_type_symbol
_atom_site_fract_x
_atom_site_fract_y
_atom_site_fract_z
Zn1	Zn	-0.423675	-1.606246	0.593999
Zn2	Zn	-0.601694	-1.606136	0.418327
Zn3	Zn	-0.423730	-1.430547	0.418339
Zn4	Zn	-0.601612	-1.430532	0.593968
O5	O	-0.512678	-1.518365	0.506158
O6	O	-0.447300	-1.753252	0.570704
O7	O	-0.578144	-1.582804	0.271307
O8	O	-0.274777	-1.453907	0.441658
O9	O	-0.578090	-1.753171	0.441638
O10	O	-0.274736	-1.582991	0.570715
O11	O	-0.447395	-1.453800	0.271316
O12	O	-0.447316	-1.283524	0.441628
O13	O	-0.577951	-1.453880	0.740993
O14	O	-0.578005	-1.283513	0.570663
O15	O	-0.447221	-1.582976	0.741016
O16	O	-0.750629	-1.582789	0.441608
O17	O	-0.750569	-1.453774	0.570651
C18	C	-0.512658	-1.245398	0.506144
C19	C	-0.512676	-1.128621	0.506163
C20	C	-0.789219	-1.518296	0.506148
C21	C	-0.907524	-1.518363	0.506179
C22	C	-0.512570	-1.518439	0.780192
C23	C	-0.512525	-1.518470	0.896968
C24	C	-0.976783	-1.448185	0.576316
C25	C	-1.047654	-1.422585	0.480449
C26	C	-1.047453	-1.544058	0.602062
C27	C	-0.976836	-1.492713	0.410261
C28	C	-0.976629	-1.614230	0.531938
C29	C	-1.047468	-1.588667	0.436006
C30	C	-0.235057	-1.518463	0.506192
C31	C	-0.116752	-1.518505	0.506206
C32	C	-0.512698	-1.792398	0.506173
C33	C	-0.512707	-1.909175	0.506179
C34	C	-0.580834	-1.073781	0.573240
C35	C	-0.580848	-0.964057	0.573251
C36	C	-0.444541	-0.964023	0.439099
C37	C	-0.444523	-1.073745	0.439094
C38	C	-0.648987	-1.128657	0.640308
C39	C	-0.717152	-1.073816	0.707390
C40	C	-0.717165	-0.964092	0.707402
C41	C	-0.649014	-0.909209	0.640331
C42	C	-0.512708	-1.518352	0.233191
C43	C	-0.512454	-1.518525	0.116415
C44	C	-0.444447	-1.585700	0.951844
C45	C	-0.444409	-1.585725	1.061568
C46	C	-0.580534	-1.451288	1.061531
C47	C	-0.580567	-1.451258	0.951809
C48	C	-0.376405	-1.652912	0.897003
C49	C	-0.308323	-1.720147	0.951879
C50	C	-0.308284	-1.720172	1.061603
C51	C	-0.376328	-1.652962	1.116451
H52	H	-0.945746	-1.388731	0.635542
C53	C	-0.369545	-1.134074	0.365316
H54	H	-0.328967	-1.085679	0.325365
H55	H	-0.323216	-1.176894	0.405590
H56	H	-0.410200	-1.176857	0.319464
H57	H	-0.376279	-1.652975	1.205796
C58	C	-1.089803	-1.313151	0.451022
H59	H	-1.065608	-1.263317	0.500913
H60	H	-1.064586	-1.294464	0.383400
H61	H	-1.165225	-1.314156	0.450624
C62	C	-0.649020	-0.788514	0.640346
H63	H	-0.598669	-0.763686	0.590798
H64	H	-0.717686	-0.763670	0.622069
H65	H	-0.630689	-0.763729	0.708182
H66	H	-1.078309	-1.648075	0.376636
H67	H	-0.945412	-1.695219	0.553750
H68	H	-0.376431	-1.652901	0.807660
C69	C	-0.935114	-1.463293	0.300707
H70	H	-0.859684	-1.463384	0.301376
H71	H	-0.959879	-1.512878	0.250852
H72	H	-0.960025	-1.395448	0.282317
C73	C	-0.233479	-1.794071	0.891551
H74	H	-0.243257	-1.784436	0.818344
H75	H	-0.161957	-1.778729	0.909542
H76	H	-0.249067	-1.864663	0.909538
C77	C	-0.655386	-1.377374	1.121862
H78	H	-0.645624	-1.387029	1.195068
H79	H	-0.639815	-1.306782	1.103885
H80	H	-0.726910	-1.392731	1.103863
H81	H	-1.078472	-1.565734	0.683138
H82	H	-0.648985	-1.217999	0.640305
H83	H	-0.389056	-0.919328	0.384493
H84	H	-0.772632	-1.118509	0.762003
C85	C	-0.792133	-0.903770	0.781195
H86	H	-0.832720	-0.952170	0.821131
H87	H	-0.751478	-0.860993	0.827044
H88	H	-0.838471	-0.860944	0.740927
C89	C	-0.233398	-1.794125	1.121964
H90	H	-0.192888	-1.834152	1.073584
H91	H	-0.187001	-1.753970	1.164774
H92	H	-0.274115	-1.839899	1.164759
H93	H	-0.635985	-1.396498	0.907128
