data_functionalizedCrystal
_audit_creation_method	'MofGen! by Chris Wilmer'
_symmetry_space_group_name_H-M	'P1'
_symmetry_Int_Tables_number	1
_symmetry_cell_setting	triclinic
loop_
_symmetry_equiv_pos_as_xyz
  x,y,z
_cell_length_a	12.837943
_cell_length_b	14.519709
_cell_length_c	11.892095
_cell_angle_alpha	93.895429
_cell_angle_beta	85.689438
_cell_angle_gamma	89.254542
loop_
_atom_site_label
_atom_site_type_symbol
_atom_site_fract_x
_atom_site_fract_y
_atom_site_fract_z
O1	O	1.382515	0.234472	-0.093988
O2	O	1.080688	0.222627	-0.093995
O3	O	1.239604	0.095003	-0.093981
O4	O	1.223600	0.362096	-0.094002
O5	O	1.226354	0.105626	0.094025
O6	O	1.067438	0.233250	0.094012
O7	O	1.369265	0.245095	0.094018
Zn8	Zn	1.216248	0.240859	0.123865
Zn9	Zn	1.233706	0.226863	-0.123842
O10	O	1.210350	0.372719	0.094005
C11	C	1.035435	0.223937	0.000008
C12	C	0.920336	0.212002	0.000006
C13	C	0.679644	0.355473	0.000011
C14	C	0.571497	0.344264	0.000010
C15	C	0.595894	0.178377	0.000010
C16	C	0.704041	0.189586	0.000012
C17	C	0.745911	0.278137	0.000010
C18	C	0.854060	0.289344	0.000003
C19	C	0.878455	0.123458	0.000012
C20	C	0.770308	0.112249	0.000011
C21	C	1.232233	0.065890	0.000022
C22	C	1.229998	-0.036684	0.000023
C23	C	1.221771	-0.412293	-0.000007
C24	C	1.224055	-0.307787	0.000002
C25	C	1.225884	-0.224492	0.000009
C26	C	1.228169	-0.119979	0.000016
C27	C	1.414519	0.243785	0.000013
C28	C	1.529618	0.255719	0.000008
C29	C	1.217721	0.401831	-0.000001
C30	C	1.219957	0.504405	-0.000009
N31	N	1.204341	0.250411	0.292918
N32	N	1.245621	0.217304	-0.292895
C33	C	1.328473	0.150784	0.529576
C34	C	1.320158	0.157468	0.647918
C35	C	1.179391	0.270458	0.647944
C36	C	1.187707	0.263774	0.529603
C37	C	1.262251	0.203936	0.470423
C38	C	1.270570	0.197257	0.352080
C39	C	1.129800	0.310242	0.352108
C40	C	1.121484	0.316926	0.470449
H41	H	0.561777	0.106288	0.000105
H42	H	1.331271	0.148537	0.303897
N43	N	0.503791	0.423253	0.000022
N44	N	0.435140	0.439975	0.079274
H45	H	0.387320	0.495764	0.079287
N46	N	0.946134	0.044445	-0.000000
N47	N	0.947800	-0.016815	-0.079252
H48	H	0.995599	-0.072618	-0.079267
N49	N	1.404527	0.089571	0.469137
N50	N	1.463588	0.042057	0.521967
H51	H	1.517265	-0.001214	0.479284
N52	N	1.387805	0.103163	0.708324
N53	N	1.454351	0.049740	0.655467
H54	H	1.502129	0.011382	0.698128
H55	H	0.736201	0.040154	0.000025
N56	N	1.062169	0.364544	0.291666
N57	N	1.069609	0.358578	0.186005
H58	H	1.021851	0.396931	0.143316
N59	N	0.722437	0.445914	0.000015
N60	N	0.818997	0.455909	0.000019
H61	H	0.849221	0.519784	0.000022
N62	N	1.103234	0.331553	0.708413
N63	N	1.034193	0.300313	0.774456
H64	H	0.980403	0.343458	0.817167
N65	N	0.896815	0.379800	0.000018
N66	N	0.870980	0.438552	0.079273
H67	H	0.901171	0.502439	0.079289
N68	N	1.045343	0.378035	0.530921
N69	N	1.037924	0.383993	0.636582
H70	H	0.984149	0.427154	0.679291
