data_functionalizedCrystal
_audit_creation_method	'MofGen! by Chris Wilmer'
_symmetry_space_group_name_H-M	'P1'
_symmetry_Int_Tables_number	1
_symmetry_cell_setting	triclinic
loop_
_symmetry_equiv_pos_as_xyz
  x,y,z
_cell_length_a	17.699083
_cell_length_b	11.792241
_cell_length_c	16.176319
_cell_angle_alpha	89.993071
_cell_angle_beta	89.998611
_cell_angle_gamma	83.738215
loop_
_atom_site_label
_atom_site_type_symbol
_atom_site_fract_x
_atom_site_fract_y
_atom_site_fract_z
O1	O	1.004844	0.143527	-0.068631
O2	O	0.784565	0.162200	-0.068658
O3	O	0.900050	-0.012371	-0.068638
O4	O	0.889359	0.318098	-0.068651
O5	O	0.900034	-0.012382	0.068855
O6	O	0.784549	0.162189	0.068835
O7	O	1.004828	0.143516	0.068862
Cu8	Cu	0.894687	0.152851	0.081403
Cu9	Cu	0.894706	0.152865	-0.081199
O10	O	0.889343	0.318087	0.068842
C11	C	0.756356	0.161525	0.000085
C12	C	0.672328	0.159518	0.000075
C13	C	0.624253	0.261988	0.000071
C14	C	0.545299	0.260095	0.000082
C15	C	0.514422	0.155731	0.000091
C16	C	0.562503	0.053254	0.000097
C17	C	0.641455	0.055148	0.000092
C18	C	0.244099	0.045613	0.000118
C19	C	0.165141	0.043727	0.000120
C20	C	0.147944	0.250560	0.000108
C21	C	0.226896	0.252454	0.000103
C22	C	0.274970	0.149977	0.000113
C23	C	0.360580	0.152031	0.000103
C24	C	0.428814	0.153676	0.000095
C25	C	0.899370	-0.054660	0.000108
C26	C	0.897360	-0.180649	0.000107
C27	C	0.893664	-0.411317	0.000093
C28	C	0.895718	-0.282956	0.000101
C29	C	1.033036	0.144190	0.000117
C30	C	1.117065	0.146198	0.000122
C31	C	0.890022	0.360375	0.000094
C32	C	0.892032	0.486365	0.000090
N33	N	0.894679	0.152841	0.195768
N34	N	0.894720	0.152865	-0.195564
C35	C	0.945831	0.075573	0.239041
C36	C	0.945835	0.075572	0.325588
C37	C	0.894690	0.152845	0.368861
C38	C	0.843532	0.230118	0.325582
C39	C	0.843525	0.230113	0.239036
C40	C	0.843558	0.230139	0.674610
C41	C	0.843570	0.230140	0.761161
C42	C	0.945868	0.075598	0.761162
C43	C	0.945861	0.075593	0.674617
C44	C	0.894701	0.152861	0.631345
C45	C	0.894697	0.152860	0.537501
C46	C	0.894697	0.152853	0.462703
H47	H	0.537357	-0.031721	0.000116
C48	C	0.740220	-0.062725	0.070774
C49	C	0.694301	-0.057492	0.000094
H50	H	0.772840	-0.132270	0.070779
H51	H	0.769906	-0.000308	0.070763
H52	H	0.709055	-0.059165	0.118716
H53	H	0.725466	-0.061043	-0.047848
H54	H	0.664613	-0.119926	0.000098
H55	H	0.108792	0.334002	0.000103
C56	C	0.236528	0.429346	-0.070588
C57	C	0.260828	0.367179	0.000092
H58	H	0.257471	0.500177	-0.070588
H59	H	0.253006	0.387170	-0.118524
H60	H	0.182626	0.442868	-0.070576
H61	H	0.314730	0.353650	0.000077
H62	H	0.244354	0.409364	0.048041
H63	H	0.987511	0.012673	0.639387
H64	H	0.987483	0.012653	0.203814
C65	C	1.046975	-0.077159	0.316896
C66	C	1.002076	-0.009347	0.373154
H67	H	1.081701	-0.129578	0.346263
H68	H	1.015310	-0.117942	0.283155
H69	H	1.074374	-0.029944	0.283125
H70	H	0.974672	-0.056562	0.406921
H71	H	1.033745	0.031438	0.406909
C72	C	0.989517	-0.120976	0.787817
C73	C	1.002097	-0.009352	0.808729
H74	H	1.024234	-0.173416	0.817179
H75	H	0.938965	-0.133199	0.802010
H76	H	0.996836	-0.132018	0.730080
H77	H	0.994773	0.001692	0.866466
H78	H	1.052662	0.002875	0.794541
C79	C	0.742428	0.382890	0.752472
C80	C	0.787340	0.315076	0.808729
H81	H	0.707714	0.435316	0.781841
H82	H	0.774087	0.423664	0.718709
H83	H	0.715016	0.335677	0.718724
H84	H	0.814756	0.362288	0.842473
H85	H	0.755677	0.274298	0.842506
C86	C	0.703050	0.384125	-0.070629
C87	C	0.658186	0.376711	0.000057
H88	H	0.723992	0.454956	-0.070637
H89	H	0.742981	0.323380	-0.070622
H90	H	0.672597	0.379085	-0.118566
H91	H	0.688641	0.381743	0.047995
H92	H	0.618250	0.437473	0.000058
H93	H	0.801903	0.293055	0.639385
H94	H	0.801884	0.293032	0.360819
C95	C	0.190068	-0.160547	0.000152
C96	C	0.131200	-0.070998	0.000138
H97	H	0.169112	-0.231368	0.000167
H98	H	0.220504	-0.155516	-0.047794
H99	H	0.220506	-0.155497	0.048100
H100	H	0.100766	-0.076043	-0.047814
H101	H	0.100752	-0.076032	0.048088
H102	H	0.283232	-0.037830	0.000127
C103	C	0.799882	0.426679	0.212364
C104	C	0.787301	0.315052	0.191465
H105	H	0.765172	0.479114	0.182991
H106	H	0.792564	0.437736	0.270092
H107	H	0.850443	0.438895	0.198167
H108	H	0.736741	0.302833	0.205667
H109	H	0.794613	0.303991	0.133724
C110	C	0.536230	0.464735	0.000057
C111	C	0.492455	0.372733	0.000074
H112	H	0.503605	0.534275	0.000048
H113	H	0.567383	0.461172	0.047998
H114	H	0.567381	0.461161	-0.047896
H115	H	0.461308	0.376302	0.048031
H116	H	0.461289	0.376298	-0.047872
