data_functionalizedCrystal
_audit_creation_method	'MofGen! by Chris Wilmer'
_symmetry_space_group_name_H-M	'P1'
_symmetry_Int_Tables_number	1
_symmetry_cell_setting	triclinic
loop_
_symmetry_equiv_pos_as_xyz
  x,y,z
_cell_length_a	14.519709
_cell_length_b	11.792241
_cell_length_c	10.268362
_cell_angle_alpha	90.003760
_cell_angle_beta	90.002293
_cell_angle_gamma	83.936780
loop_
_atom_site_label
_atom_site_type_symbol
_atom_site_fract_x
_atom_site_fract_y
_atom_site_fract_z
O1	O	0.126399	1.506209	0.108277
O2	O	0.459733	1.839542	0.441611
O3	O	0.793066	2.172875	0.774944
O4	O	0.139427	1.175796	0.108286
O5	O	0.472760	1.509129	0.441619
O6	O	0.806093	1.842462	0.774953
O7	O	-0.001293	1.349763	0.108270
O8	O	0.332040	1.683096	0.441603
O9	O	0.665373	2.016429	0.774936
O10	O	0.267119	1.332242	0.108294
O11	O	0.600453	1.665575	0.441627
O12	O	0.933786	1.998908	0.774960
O13	O	-0.001289	1.349746	-0.108331
O14	O	0.332045	1.683079	0.225003
O15	O	0.665378	2.016413	0.558336
O16	O	0.139431	1.175779	-0.108315
O17	O	0.472765	1.509112	0.225019
O18	O	0.806098	1.842446	0.558352
O19	O	0.126404	1.506192	-0.108323
O20	O	0.459737	1.839525	0.225010
O21	O	0.793071	2.172859	0.558344
Cu22	Cu	0.132918	1.340984	-0.128096
Cu23	Cu	0.466251	1.674317	0.205237
Cu24	Cu	0.799585	2.007651	0.538570
Cu25	Cu	0.132912	1.341004	0.128059
Cu26	Cu	0.466246	1.674337	0.461392
Cu27	Cu	0.799579	2.007670	0.794726
O28	O	0.267124	1.332225	-0.108307
O29	O	0.600457	1.665558	0.225026
O30	O	0.933791	1.998892	0.558360
C31	C	-0.035654	1.348938	-0.000031
C32	C	0.297679	1.682271	0.333303
C33	C	0.631013	2.015604	0.666636
C34	C	-0.138044	1.346491	-0.000031
C35	C	0.195289	1.679824	0.333302
C36	C	0.528623	2.013158	0.666635
C37	C	0.127220	1.548487	-0.000021
C38	C	0.460553	1.881820	0.333312
C39	C	0.793887	2.215154	0.666646
C40	C	0.129669	1.674487	-0.000015
C41	C	0.463003	2.007820	0.333318
C42	C	0.796336	2.341154	0.666651
C43	C	0.138611	1.133501	-0.000013
C44	C	0.471944	1.466834	0.333320
C45	C	0.805277	1.800167	0.666653
C46	C	0.136161	1.007501	-0.000010
C47	C	0.469495	1.340834	0.333323
C48	C	0.802828	1.674167	0.666656
C49	C	-0.512973	1.337483	0.000003
C50	C	-0.179640	1.670816	0.333336
C51	C	0.153694	2.004149	0.666669
C52	C	-0.408656	1.339984	-0.000007
C53	C	-0.075322	1.673318	0.333326
C54	C	0.258011	2.006651	0.666659
C55	C	-0.325512	1.341987	-0.000016
C56	C	0.007822	1.675320	0.333318
C57	C	0.341155	2.008653	0.666651
C58	C	-0.221188	1.344489	-0.000023
C59	C	0.112145	1.677822	0.333310
C60	C	0.445479	2.011155	0.666644
C61	C	0.301484	1.333050	-0.000004
C62	C	0.634818	1.666383	0.333330
C63	C	0.968151	1.999717	0.666663
C64	C	0.403875	1.335497	0.000006
C65	C	0.737208	1.668830	0.333339
C66	C	1.070541	2.002164	0.666672
N67	N	0.132922	1.340978	-0.308262
N68	N	0.466255	1.674312	0.025071
N69	N	0.799588	2.007645	0.358405
C70	C	0.134173	1.905174	-0.000015
C71	C	0.467506	2.238508	0.333318
C72	C	0.800840	2.571841	0.666651
C73	C	0.131671	1.776803	-0.000016
C74	C	0.465004	2.110136	0.333318
C75	C	0.798337	2.443470	0.666651
C76	C	0.132922	1.340987	-0.426104
C77	C	0.466255	1.674320	-0.092771
C78	C	0.799589	2.007653	0.240562
C79	C	0.132914	1.341001	-0.573942
C80	C	0.466247	1.674334	-0.240609
C81	C	0.799580	2.007668	0.092724
N82	N	0.132902	1.341018	0.308225
N83	N	0.466235	1.674352	0.641558
N84	N	0.799568	2.007685	0.974892
