data_functionalizedCrystal
_audit_creation_method	'MofGen! by Chris Wilmer'
_symmetry_space_group_name_H-M	'P1'
_symmetry_Int_Tables_number	1
_symmetry_cell_setting	triclinic
loop_
_symmetry_equiv_pos_as_xyz
  x,y,z
_cell_length_a	14.519731
_cell_length_b	14.519709
_cell_length_c	26.809956
_cell_angle_alpha	90.003406
_cell_angle_beta	90.008732
_cell_angle_gamma	96.315501
loop_
_atom_site_label
_atom_site_type_symbol
_atom_site_fract_x
_atom_site_fract_y
_atom_site_fract_z
O1	O	1.223863	-0.120972	0.041479
O2	O	0.955388	-0.135188	0.041481
O3	O	1.096744	0.006158	0.041476
O4	O	1.082507	-0.262318	0.041485
O5	O	1.096717	0.006137	-0.041484
O6	O	0.955362	-0.135209	-0.041478
O7	O	1.223836	-0.120993	-0.041480
Zn8	Zn	1.089595	-0.128105	-0.054651
Zn9	Zn	1.089630	-0.128076	0.054652
O10	O	1.082481	-0.262339	-0.041475
C11	C	0.921016	-0.134532	0.000001
C12	C	0.818635	-0.132536	0.000002
C13	C	1.096067	0.040507	-0.000004
C14	C	1.094079	0.142889	-0.000004
C15	C	1.258209	-0.121649	0.000001
C16	C	1.360589	-0.123645	0.000004
C17	C	1.083157	-0.296688	0.000006
C18	C	1.085146	-0.399070	0.000010
C19	C	1.443733	-0.125267	0.000005
C20	C	1.548042	-0.127293	0.000004
C21	C	1.631181	-0.128902	0.000003
C22	C	1.735496	-0.130928	0.000003
N23	N	1.089577	-0.128124	-0.129247
C24	C	1.086759	0.517785	0.000009
C25	C	1.088792	0.413477	0.000005
C26	C	1.090419	0.330340	0.000002
C27	C	1.092452	0.226025	-0.000001
C28	C	1.152214	-0.065504	-0.473875
C29	C	1.152236	-0.065490	-0.682753
O30	O	1.205454	-0.012254	-0.709759
N31	N	1.089635	-0.128056	-0.708874
C32	C	1.027020	-0.190626	-0.682772
O33	O	0.973768	-0.243836	-0.709783
C34	C	1.026994	-0.190635	-0.473895
C35	C	1.089606	-0.128071	-0.447777
C36	C	1.214819	-0.002944	-0.447757
C37	C	1.214817	-0.002952	-0.395540
C38	C	1.152208	-0.065519	-0.369442
C39	C	1.089603	-0.128079	-0.395561
C40	C	0.964376	-0.253200	-0.447795
C41	C	0.964373	-0.253195	-0.395572
C42	C	1.026985	-0.190631	-0.369454
C43	C	1.026992	-0.190653	-0.317247
N44	N	1.089593	-0.128087	-0.291126
C45	C	1.152201	-0.065520	-0.317224
C46	C	1.027039	-0.190618	-0.792435
C47	C	1.027046	-0.190617	-0.844654
C48	C	1.152261	-0.065480	-0.844631
C49	C	1.152258	-0.065486	-0.792411
C50	C	1.089640	-0.128052	-0.766314
C51	C	1.152191	-0.065541	-0.207566
C52	C	1.152186	-0.065556	-0.155345
C53	C	1.026968	-0.190690	-0.155372
C54	C	1.026976	-0.190679	-0.207589
C55	C	1.089592	-0.128096	-0.233684
O56	O	0.973794	-0.243854	-0.290209
O57	O	1.205431	-0.012304	-0.290204
C58	C	1.152217	-0.065496	-0.526091
C59	C	1.089611	-0.128056	-0.552210
C60	C	1.027003	-0.190623	-0.526112
C61	C	1.089618	-0.128055	-0.604429
C62	C	1.152227	-0.065488	-0.630527
C63	C	1.214828	-0.002922	-0.604406
C64	C	1.214825	-0.002929	-0.552189
C65	C	0.964402	-0.253189	-0.552233
C66	C	0.964410	-0.253177	-0.604449
C67	C	1.027019	-0.190610	-0.630547
N68	N	1.089654	-0.128050	0.129248
H69	H	1.203174	-0.014609	-0.134081
C70	C	1.283679	0.065880	-0.366817
H71	H	1.320954	0.103145	-0.389845
H72	H	1.322125	0.032627	-0.346441
H73	H	1.250435	0.104351	-0.346451
H74	H	1.265809	0.048016	-0.530927
H75	H	1.265803	0.048010	-0.469001
H76	H	1.203240	-0.014540	-0.771149
C77	C	1.221121	0.003350	-0.873345
H78	H	1.212147	-0.005610	-0.908185
H79	H	1.282688	-0.006793	-0.864785
H80	H	1.210990	0.064924	-0.864787
C81	C	0.895510	-0.322029	-0.476514
H82	H	0.858224	-0.359282	-0.453485
H83	H	0.928744	-0.360500	-0.496880
H84	H	0.857061	-0.288769	-0.496888
C85	C	0.958174	-0.259438	-0.873379
H86	H	0.920882	-0.296690	-0.850353
H87	H	0.991398	-0.297911	-0.893750
H88	H	0.919733	-0.226162	-0.893749
H89	H	0.913379	-0.304143	-0.374327
C90	C	0.958071	-0.259462	-0.236320
H91	H	0.920770	-0.296710	-0.213296
H92	H	0.991260	-0.297942	-0.256705
H93	H	0.919642	-0.226145	-0.256676
C94	C	0.958162	-0.259454	-0.763735
H95	H	0.920893	-0.296717	-0.786775
H96	H	0.919712	-0.226201	-0.743367
H97	H	0.991400	-0.297927	-0.743364
H98	H	0.913417	-0.304138	-0.530988
C99	C	0.958102	-0.259510	-0.126660
H100	H	0.920816	-0.296777	-0.149692
H101	H	0.919667	-0.226240	-0.106291
H102	H	0.991340	-0.297982	-0.106289
H103	H	0.913426	-0.304133	-0.625711
C104	C	1.221070	0.003294	-0.236263
H105	H	1.258355	0.040541	-0.213223
H106	H	1.187847	0.041771	-0.256635
H107	H	1.259518	-0.029972	-0.256630
C108	C	1.283691	0.065904	-0.633120
H109	H	1.274714	0.056946	-0.667959
H110	H	1.345256	0.055754	-0.624561
H111	H	1.273567	0.127479	-0.624561
