data_functionalizedCrystal
_audit_creation_method	'MofGen! by Chris Wilmer'
_symmetry_space_group_name_H-M	'P1'
_symmetry_Int_Tables_number	1
_symmetry_cell_setting	triclinic
loop_
_symmetry_equiv_pos_as_xyz
  x,y,z
_cell_length_a	29.917948
_cell_length_b	29.917021
_cell_length_c	29.913391
_cell_angle_alpha	60.005297
_cell_angle_beta	60.010472
_cell_angle_gamma	59.993667
loop_
_atom_site_label
_atom_site_type_symbol
_atom_site_fract_x
_atom_site_fract_y
_atom_site_fract_z
O1	O	0.061938	-0.653075	0.546110
O2	O	0.561938	-0.153075	1.046110
O3	O	0.023328	-0.508466	0.440017
O4	O	0.523328	-0.008466	0.940017
O5	O	0.114898	-0.599963	0.439941
O6	O	0.614898	-0.099963	0.939941
O7	O	-0.029633	-0.561578	0.546186
O8	O	0.470367	-0.061578	1.046186
O9	O	0.145278	-0.569587	0.470242
O10	O	0.645278	-0.069587	0.970242
O11	O	0.053708	-0.478090	0.470318
O12	O	0.553708	0.021910	0.970318
O13	O	0.092318	-0.622699	0.576411
O14	O	0.592318	-0.122699	1.076411
Zn15	Zn	0.077836	-0.545572	0.528175
Zn16	Zn	0.577836	-0.045572	1.028175
Zn17	Zn	0.037809	-0.585593	0.488253
Zn18	Zn	0.537809	-0.085593	0.988253
O19	O	0.000747	-0.531202	0.576487
O20	O	0.500747	-0.031202	1.076487
N21	N	0.105154	-0.518262	0.555424
N22	N	0.605154	-0.018262	1.055424
N23	N	0.010496	-0.612908	0.461004
N24	N	0.510496	-0.112908	0.961004
C25	C	0.164136	-0.309209	0.614352
C26	C	0.664136	0.190791	1.114352
C27	C	0.164251	-0.459335	0.764424
C28	C	0.664251	0.040665	1.264424
C29	C	0.164150	-0.459313	0.614341
C30	C	0.664150	0.040687	1.114341
C31	C	0.314282	-0.459305	0.614278
C32	C	0.814282	0.040695	1.114278
C33	C	0.180666	-0.358742	0.630849
C34	C	0.680666	0.141258	1.130849
C35	C	0.180732	-0.442815	0.714891
C36	C	0.680732	0.057185	1.214891
C37	C	0.264747	-0.442797	0.630809
C38	C	0.764747	0.057203	1.130809
C39	C	0.180676	-0.442802	0.630843
C40	C	0.680676	0.057198	1.130843
C41	C	0.143097	-0.246161	0.593354
C42	C	0.643097	0.253839	1.093354
C43	C	0.143120	-0.480326	0.593337
C44	C	0.643120	0.019674	1.093337
C45	C	0.201706	-0.421790	0.651848
C46	C	0.701706	0.078210	1.151848
C47	C	0.405963	-0.443499	0.565998
C48	C	0.905963	0.056501	1.065998
C49	C	0.463273	-0.462598	0.546874
C50	C	0.963273	0.037402	1.046874
C51	C	0.463297	-0.555329	0.582235
C52	C	0.963297	-0.055329	1.082235
C53	C	0.405988	-0.536228	0.601360
C54	C	0.905988	-0.036228	1.101360
C55	C	0.156905	-0.217495	0.537012
C56	C	0.656905	0.282505	1.037012
C57	C	0.137776	-0.160180	0.517926
C58	C	0.637776	0.339820	1.017926
C59	C	0.091035	-0.160201	0.611524
C60	C	0.591035	0.339799	1.111524
C61	C	0.110164	-0.217516	0.630611
C62	C	0.610164	0.282484	1.130611
C63	C	0.086772	-0.466488	0.607209
C64	C	0.586772	0.033512	1.107209
C65	C	0.067659	-0.485590	0.588108
C66	C	0.567659	0.014410	1.088108
C67	C	0.161236	-0.532368	0.541277
C68	C	0.661236	-0.032368	1.041277
C69	C	0.180352	-0.513266	0.560371
C70	C	0.680352	-0.013266	1.060371
C71	C	0.086942	-0.466529	0.856152
C72	C	0.586942	0.033471	1.356152
C73	C	0.067877	-0.485647	0.913465
C74	C	0.567877	0.014353	1.413465
C75	C	0.161489	-0.532436	0.913415
C76	C	0.661489	-0.032436	1.413415
C77	C	0.180552	-0.513318	0.856101
C78	C	0.680552	-0.013318	1.356101
C79	C	0.143277	-0.480363	0.827471
C80	C	0.643277	0.019637	1.327471
C81	C	0.377323	-0.480313	0.593239
C82	C	0.877323	0.019687	1.093239
C83	C	-0.111377	-0.650681	0.422736
C84	C	0.388623	-0.150681	0.922736
C85	C	-0.027364	-0.650787	0.422929
C86	C	0.472636	-0.150787	0.922929
C87	C	-0.048335	-0.671770	0.401835
C88	C	0.451665	-0.171770	0.901835
C89	C	-0.064214	-0.763416	0.450041
C90	C	0.435786	-0.263416	0.950041
C91	C	-0.045160	-0.820731	0.469172
C92	C	0.454840	-0.320731	0.969172
C93	C	0.047573	-0.820841	0.433980
C94	C	0.547573	-0.320841	0.933980
C95	C	0.028517	-0.763527	0.414847
C96	C	0.528517	-0.263527	0.914847
C97	C	-0.140115	-0.664483	0.479060
C98	C	0.359885	-0.164483	0.979060
C99	C	-0.197425	-0.645309	0.498058
C100	C	0.302575	-0.145309	0.998058
C101	C	-0.197256	-0.598535	0.404405
C102	C	0.302744	-0.098535	0.904405
C103	C	-0.139946	-0.617709	0.385407
C104	C	0.360054	-0.117709	0.885407
C105	C	-0.041168	-0.594444	0.409067
C106	C	0.458832	-0.094444	0.909067
C107	C	-0.022104	-0.575374	0.428250
C108	C	0.477896	-0.075374	0.928250
C109	C	0.024568	-0.668986	0.475143
C110	C	0.524568	-0.168986	0.975143
C111	C	0.005504	-0.688059	0.455967
C112	C	0.505504	-0.188059	0.955967
C113	C	-0.041000	-0.594453	0.310105
C114	C	0.459000	-0.094453	0.810105
C115	C	-0.021803	-0.575386	0.252792
C116	C	0.478197	-0.075386	0.752792
C117	C	0.024951	-0.669004	0.252854
C118	C	0.524951	-0.169004	0.752854
C119	C	0.005755	-0.688070	0.310168
C120	C	0.505755	-0.188070	0.810168
C121	C	-0.027222	-0.650793	0.338792
C122	C	0.472778	-0.150793	0.838792
C123	C	-0.027377	-0.734817	0.422881
C124	C	0.472623	-0.234817	0.922881
N125	N	0.491125	-0.518235	0.555255
N126	N	0.991125	-0.018235	1.055255
O127	O	0.678406	-0.527360	0.420422
O128	O	1.178406	-0.027360	0.920422
O129	O	0.678588	-0.633782	0.564887
O130	O	1.178588	-0.133782	1.064887
O131	O	0.678516	-0.633539	0.473265
O132	O	1.178516	-0.133539	0.973265
O133	O	0.678478	-0.527602	0.512044
O134	O	1.178478	-0.027602	1.012044
O135	O	0.587469	-0.603251	0.503685
O136	O	1.087469	-0.103251	1.003685
O137	O	0.587541	-0.603493	0.595307
O138	O	1.087541	-0.103493	1.095307
O139	O	0.587359	-0.497071	0.450842
O140	O	1.087359	0.002929	0.950842
Zn141	Zn	0.572994	-0.545473	0.527905
Zn142	Zn	1.072994	-0.045473	1.027905
Zn143	Zn	0.692953	-0.585380	0.487825
Zn144	Zn	1.192953	-0.085380	0.987825
O145	O	0.587431	-0.497313	0.542465
O146	O	1.087431	0.002687	1.042465
N147	N	0.774821	-0.612618	0.460470
N148	N	1.274821	-0.112618	0.960470
N149	N	0.105125	-0.132348	0.555445
N150	N	0.605125	0.367652	1.055445
O151	O	-0.029633	0.055031	0.546198
O152	O	0.470367	0.555031	1.046198
O153	O	0.114837	0.055047	0.439777
O154	O	0.614837	0.555047	0.939777
O155	O	0.023189	0.055024	0.440050
O156	O	0.523189	0.555024	0.940050
O157	O	0.062016	0.055054	0.545925
O158	O	0.562016	0.555054	1.045925
O159	O	0.053572	-0.036031	0.470398
O160	O	0.553572	0.463969	0.970398
O161	O	0.145220	-0.036008	0.470125
O162	O	0.645220	0.463992	0.970125
O163	O	0.000750	-0.036024	0.576546
O164	O	0.500750	0.463976	1.076546
Zn165	Zn	0.077809	-0.050473	0.528154
Zn166	Zn	0.577809	0.449527	1.028154
Zn167	Zn	0.037778	0.069496	0.488169
Zn168	Zn	0.537778	0.569496	0.988169
O169	O	0.092399	-0.036001	0.576273
O170	O	0.592399	0.463999	1.076273
N171	N	0.010456	0.151371	0.460879
N172	N	0.510456	0.651371	0.960879
N173	N	0.105414	-0.518315	0.941279
N174	N	0.605414	-0.018315	1.441279
O175	O	0.096182	-0.653057	1.128644
O176	O	0.596182	-0.153057	1.628644
O177	O	-0.010215	-0.508539	1.128670
O178	O	0.489785	-0.008539	1.628670
O179	O	-0.009968	-0.600172	1.128636
O180	O	0.490032	-0.100172	1.628636
O181	O	0.095935	-0.561424	1.128678
O182	O	0.595935	-0.061424	1.628678
O183	O	0.020367	-0.569808	1.037586
O184	O	0.520367	-0.069808	1.537586
O185	O	0.020121	-0.478175	1.037620
O186	O	0.520121	0.021825	1.537620
O187	O	0.126517	-0.622693	1.037594
O188	O	0.626517	-0.122693	1.537594
Zn189	Zn	0.078135	-0.545613	1.023151
Zn190	Zn	0.578135	-0.045613	1.523151
Zn191	Zn	0.038167	-0.585619	1.143113
Zn192	Zn	0.538167	-0.085619	1.643113
O193	O	0.126270	-0.531061	1.037628
O194	O	0.626270	-0.031061	1.537628
N195	N	0.010887	-0.612923	1.224985
N196	N	0.510887	-0.112923	1.724985
C197	C	0.034899	-0.475056	0.440551
C198	C	0.534899	0.024944	0.940551
C199	C	0.148298	-0.588365	0.440456
C200	C	0.648298	-0.088365	0.940456
C201	C	0.080746	-0.656109	0.575876
C202	C	0.580746	-0.156109	1.075876
C203	C	-0.032653	-0.542801	0.575971
C204	C	0.467347	-0.042801	1.075971
C205	C	0.633086	-0.633292	0.598298
C206	C	1.133086	-0.133292	1.098298
C207	C	0.632998	-0.632993	0.484834
C208	C	1.132998	-0.132993	0.984834
C209	C	0.632857	-0.497559	0.417433
C210	C	1.132857	0.002441	0.917433
C211	C	0.632949	-0.497860	0.530895
C212	C	1.132949	0.002140	1.030895
C213	C	0.148191	0.009634	0.440259
C214	C	0.648191	0.509634	0.940259
C215	C	0.034733	0.009493	0.440634
C216	C	0.534733	0.509493	0.940634
C217	C	-0.032641	0.009502	0.576027
C218	C	0.467359	0.509502	1.076027
C219	C	0.080854	0.009529	0.575690
C220	C	0.580854	0.509529	1.075690
C221	C	-0.009699	-0.475150	1.083148
C222	C	0.490301	0.024850	1.583148
C223	C	-0.009388	-0.588620	1.083088
C224	C	0.490612	-0.088620	1.583088
C225	C	0.126001	-0.656082	1.083116
C226	C	0.626001	-0.156082	1.583116
C227	C	0.125697	-0.542605	1.083155
C228	C	0.625697	-0.042605	1.583155
H229	H	0.022003	-0.474373	0.936811
H230	H	0.522003	0.025627	1.436811
H231	H	0.089168	0.009538	0.608950
H232	H	0.589168	0.509538	1.108950
O233	O	0.165837	-0.705593	1.083033
O234	O	0.665837	-0.205593	1.583033
C235	C	0.223742	-0.771511	1.035821
C236	C	0.723742	-0.271511	1.535821
C237	C	0.178618	-0.715437	1.035855
C238	C	0.678618	-0.215437	1.535855
H239	H	0.234097	-0.779483	0.997676
H240	H	0.734097	-0.279483	1.497676
H241	H	0.208703	-0.804968	1.073890
H242	H	0.708703	-0.304968	1.573890
H243	H	0.261862	-0.771578	1.035857
H244	H	0.761862	-0.271578	1.535857
H245	H	0.140482	-0.715317	1.035799
H246	H	0.640482	-0.215317	1.535799
H247	H	0.193701	-0.682004	0.997789
H248	H	0.693701	-0.182004	1.497789
H249	H	0.026652	-0.433515	0.407232
H250	H	0.526652	0.066485	0.907232
H251	H	0.088995	-0.697649	0.609197
H252	H	0.588995	-0.197649	1.109197
H253	H	0.158967	-0.534314	1.083161
H254	H	0.658967	-0.034314	1.583161
H255	H	-0.074166	-0.534620	0.609333
H256	H	0.425834	-0.034620	1.109333
O257	O	0.197857	-0.598204	0.400719
O258	O	0.697857	-0.098204	0.900719
C259	C	0.287997	-0.663084	0.375392
C260	C	0.787997	-0.163084	0.875392
C261	C	0.231901	-0.652010	0.420447
C262	C	0.731901	-0.152010	0.920447
H263	H	0.315533	-0.706589	0.391322
H264	H	0.815533	-0.206589	0.891322
H265	H	0.307731	-0.632755	0.363422
H266	H	0.807731	-0.132755	0.863422
H267	H	0.282240	-0.658114	0.338059
H268	H	0.782240	-0.158114	0.838059
H269	H	0.237610	-0.656987	0.457811
H270	H	0.737610	-0.156987	0.957811
H271	H	0.212186	-0.682336	0.432371
H272	H	0.712186	-0.182336	0.932371
O273	O	0.633038	-0.672766	0.475021
O274	O	1.133038	-0.172766	0.975021
C275	C	0.633088	-0.765021	0.510830
C276	C	1.133088	-0.265021	1.010830
C277	C	0.633056	-0.720032	0.522012
C278	C	1.133056	-0.220032	1.022012
H279	H	0.633091	-0.803242	0.548818
H280	H	1.133091	-0.303242	1.048818
H281	H	0.671180	-0.775266	0.474995
H282	H	1.171180	-0.275266	0.974995
H283	H	0.594974	-0.749842	0.500407
H284	H	1.094974	-0.249842	1.000407
H285	H	0.671144	-0.735173	0.532458
H286	H	1.171144	-0.235173	1.032458
H287	H	0.594939	-0.709794	0.557832
H288	H	1.094939	-0.209794	1.057832
H289	H	0.633132	-0.666701	0.639790
H290	H	1.133132	-0.166701	1.139790
H291	H	0.026418	0.009490	0.407371
H292	H	0.526418	0.509490	0.907371
H293	H	0.632798	-0.464146	0.375944
H294	H	1.132798	0.035854	0.875944
O295	O	0.096720	-0.245276	0.685359
O296	O	0.596720	0.254724	1.185359
C297	C	0.048308	-0.239245	0.776183
C298	C	0.548308	0.260755	1.276183
C299	C	0.063506	-0.207738	0.714193
C300	C	0.563506	0.292262	1.214193
H301	H	0.021443	-0.208909	0.799513
H302	H	0.521443	0.291091	1.299513
H303	H	0.087194	-0.266060	0.787479
H304	H	0.587194	0.233940	1.287479
H305	H	0.025005	-0.266098	0.787448
H306	H	0.525005	0.233902	1.287448
H307	H	0.086795	-0.180856	0.702884
H308	H	0.586795	0.319144	1.202884
H309	H	0.024600	-0.180957	0.702930
H310	H	0.524600	0.319043	1.202930
H311	H	0.632941	-0.464583	0.539193
H312	H	1.132941	0.035417	1.039193
H313	H	0.189596	0.009891	0.406765
H314	H	0.689596	0.509891	0.906765
O315	O	-0.082179	0.009531	0.615816
O316	O	0.417821	0.509531	1.115816
C317	C	-0.172362	0.009501	0.641294
C318	C	0.327638	0.509501	1.141294
C319	C	-0.116288	0.009475	0.596184
C320	C	0.383712	0.509475	1.096184
H321	H	-0.199950	0.009444	0.625442
H322	H	0.300050	0.509444	1.125442
H323	H	-0.192050	0.047624	0.653217
H324	H	0.307950	0.547624	1.153217
H325	H	-0.166580	-0.028589	0.678640
H326	H	0.333420	0.471411	1.178640
H327	H	-0.122022	0.047539	0.558809
H328	H	0.377978	0.547539	1.058809
H329	H	-0.096618	-0.028673	0.584307
H330	H	0.403382	0.471327	1.084307
O331	O	0.064374	-0.735829	0.388496
O332	O	0.564374	-0.235829	0.888496
C333	C	0.158368	-0.741990	0.355581
C334	C	0.658368	-0.241990	0.855581
C335	C	0.117819	-0.773425	0.385446
C336	C	0.617819	-0.273425	0.885446
H337	H	0.201589	-0.772372	0.353096
H338	H	0.701589	-0.272372	0.853096
H339	H	0.146878	-0.715165	0.379024
H340	H	0.646878	-0.215165	0.879024
H341	H	0.156658	-0.715153	0.312476
H342	H	0.656658	-0.215153	0.812476
H343	H	0.119508	-0.800291	0.428552
H344	H	0.619508	-0.300291	0.928552
H345	H	0.129322	-0.800215	0.361962
H346	H	0.629322	-0.300215	0.861962
H347	H	-0.043102	-0.433644	1.083156
H348	H	0.456898	0.066356	1.583156
O349	O	-0.049045	-0.598577	1.083100
O350	O	0.450955	-0.098577	1.583100
C351	C	-0.106626	-0.654089	1.130192
C352	C	0.393374	-0.154089	1.630192
C353	C	-0.061704	-0.642879	1.130241
C354	C	0.438296	-0.142879	1.630241
H355	H	-0.116882	-0.689899	1.168307
H356	H	0.383118	-0.189899	1.668307
H357	H	-0.091438	-0.664542	1.092093
H358	H	0.408562	-0.164542	1.592093
H359	H	-0.144844	-0.616090	1.130156
H360	H	0.355156	-0.116090	1.630156
H361	H	-0.023470	-0.680859	1.130296
H362	H	0.476530	-0.180859	1.630296
H363	H	-0.076936	-0.632402	1.168337
H364	H	0.423064	-0.132402	1.668337
O365	O	0.050656	-0.434539	0.828428
O366	O	0.550656	0.065461	1.328428
C367	C	-0.044207	-0.390119	0.834531
C368	C	0.455793	0.109881	1.334531
C369	C	-0.003176	-0.426359	0.865996
C370	C	0.496824	0.073641	1.365996
H371	H	-0.087739	-0.383484	0.864891
H372	H	0.412261	0.116516	1.364891
H373	H	-0.037664	-0.411104	0.807712
H374	H	0.462336	0.088896	1.307712
H375	H	-0.037590	-0.348904	0.807688
H376	H	0.462410	0.151096	1.307688
H377	H	-0.009768	-0.467580	0.892869
H378	H	0.490232	0.032420	1.392869
H379	H	-0.009729	-0.405330	0.892780
H380	H	0.490271	0.094670	1.392780
H381	H	0.191844	-0.559260	0.936723
H382	H	0.691844	-0.059260	1.436723
O383	O	0.378113	-0.571932	0.627759
O384	O	0.878113	-0.071932	1.127759
C385	C	0.313440	-0.598172	0.628662
C386	C	0.813440	-0.098172	1.128662
C387	C	0.344961	-0.557688	0.598724
C388	C	0.844961	-0.057688	1.098724
H389	H	0.286637	-0.586677	0.605194
H390	H	0.786637	-0.086677	1.105194
H391	H	0.286589	-0.596430	0.671753
H392	H	0.786589	-0.096430	1.171753
H393	H	0.343792	-0.641411	0.631186
H394	H	0.843792	-0.141411	1.131186
H395	H	0.314648	-0.514430	0.596159
H396	H	0.814648	-0.014430	1.096159
H397	H	0.371819	-0.559478	0.555650
H398	H	0.871819	-0.059478	1.055650
H399	H	0.056452	-0.439666	0.634048
H400	H	0.556452	0.060334	1.134048
O401	O	0.235293	-0.526854	0.828302
O402	O	0.735293	-0.026854	1.328302
C403	C	0.321135	-0.599506	0.810700
C404	C	0.821135	-0.099506	1.310700
C405	C	0.259153	-0.584255	0.842222
C406	C	0.759153	-0.084255	1.342222
H407	H	0.340443	-0.645914	0.821934
H408	H	0.840443	-0.145914	1.321934
H409	H	0.340494	-0.583729	0.821971
H410	H	0.840494	-0.083729	1.321971
H411	H	0.328348	-0.580157	0.764822
H412	H	0.828348	-0.080157	1.264822
H413	H	0.251891	-0.603598	0.888108
H414	H	0.751891	-0.103598	1.388108
H415	H	0.239825	-0.600022	0.830906
H416	H	0.739825	-0.100022	1.330906
O417	O	0.012904	-0.472124	0.601655
O418	O	0.512904	0.027876	1.101655
C419	C	-0.077899	-0.423701	0.650110
C420	C	0.422101	0.076299	1.150110
C421	C	-0.015907	-0.438918	0.634818
C422	C	0.484093	0.061082	1.134818
H423	H	-0.101211	-0.396843	0.676915
H424	H	0.398789	0.103157	1.176915
H425	H	-0.089186	-0.462583	0.673471
H426	H	0.410814	0.037417	1.173471
H427	H	-0.089194	-0.400381	0.611225
H428	H	0.410806	0.099619	1.111225
H429	H	-0.004567	-0.462225	0.673674
H430	H	0.495433	0.037775	1.173674
H431	H	-0.004653	-0.400016	0.611435
H432	H	0.495347	0.099984	1.111435
H433	H	0.226235	-0.524529	0.549071
H434	H	0.726235	-0.024529	1.049071
O435	O	0.197432	-0.564287	0.509177
O436	O	0.697432	-0.064287	1.009177
C437	C	0.271564	-0.571598	0.424817
C438	C	0.771564	-0.071598	0.924817
C439	C	0.230595	-0.535392	0.461111
C440	C	0.730595	-0.035392	0.961111
H441	H	0.298395	-0.548255	0.385953
H442	H	0.798395	-0.048255	0.885953
H443	H	0.248257	-0.582866	0.413498
H444	H	0.748257	-0.082866	0.913498
H445	H	0.298395	-0.610499	0.448154
H446	H	0.798395	-0.110499	0.948154
H447	H	0.203754	-0.496468	0.437807
H448	H	0.703754	0.003532	0.937807
H449	H	0.253936	-0.524168	0.472432
H450	H	0.753936	-0.024168	0.972432
O451	O	0.491058	-0.609665	0.590186
O452	O	0.991058	-0.109665	1.090186
C453	C	0.485038	-0.699623	0.627244
C454	C	0.985038	-0.199623	1.127244
C455	C	0.453528	-0.638103	0.618289
C456	C	0.953528	-0.138103	1.118289
H457	H	0.454709	-0.722631	0.649956
H458	H	0.954709	-0.222631	1.149956
H459	H	0.511877	-0.715793	0.652457
H460	H	1.011877	-0.215793	1.152457
H461	H	0.511863	-0.705981	0.585908
H462	H	1.011863	-0.205981	1.085908
H463	H	0.426673	-0.631698	0.659599
H464	H	0.926673	-0.131698	1.159599
H465	H	0.426724	-0.621963	0.593051
H466	H	0.926724	-0.121963	1.093051
H467	H	0.486593	-0.432619	0.524694
H468	H	0.986593	0.067381	1.024694
H469	H	0.183721	-0.240813	0.506671
H470	H	0.683721	0.259187	1.006671
O471	O	0.378176	-0.389159	0.558016
O472	O	0.878176	0.110841	1.058016
C473	C	0.360573	-0.298024	0.492472
C474	C	0.860573	0.201976	0.992472
C475	C	0.392082	-0.359545	0.501436
C476	C	0.892082	0.140455	1.001436
H477	H	0.371795	-0.274064	0.446729
H478	H	0.871795	0.225936	0.946729
H479	H	0.371866	-0.283758	0.513211
H480	H	0.871866	0.216242	1.013211
H481	H	0.314694	-0.290710	0.510844
H482	H	0.814694	0.209290	1.010844
H483	H	0.437967	-0.366905	0.483062
H484	H	0.937967	0.133095	0.983062
H485	H	0.380743	-0.373780	0.480709
H486	H	0.880743	0.126220	0.980709
O487	O	0.151256	-0.132414	0.463176
O488	O	0.651256	0.367586	0.963176
C489	C	0.199602	-0.138440	0.372350
C490	C	0.699602	0.361560	0.872350
C491	C	0.184390	-0.169950	0.434340
C492	C	0.684390	0.330050	0.934340
H493	H	0.226383	-0.168774	0.349018
H494	H	0.726383	0.331226	0.849018
H495	H	0.222960	-0.111614	0.361027
H496	H	0.722960	0.388386	0.861027
H497	H	0.160685	-0.111598	0.361115
H498	H	0.660685	0.388402	0.861115
H499	H	0.223279	-0.196822	0.445619
H500	H	0.723279	0.303178	0.945619
H501	H	0.161011	-0.196741	0.445630
H502	H	0.661011	0.303259	0.945630
H503	H	0.064226	-0.136878	0.641864
H504	H	0.564226	0.363122	1.141864
O505	O	0.056553	-0.705246	0.507168
O506	O	0.556553	-0.205246	1.007168
C507	C	0.140852	-0.779453	0.514639
C508	C	0.640852	-0.279453	1.014639
C509	C	0.104677	-0.738425	0.478315
C510	C	0.604677	-0.238425	0.978315
H511	H	0.179773	-0.806281	0.491322
H512	H	0.679773	-0.306281	0.991322
H513	H	0.117499	-0.806285	0.553492
H514	H	0.617499	-0.306285	1.053492
H515	H	0.152080	-0.756135	0.525983
H516	H	0.652080	-0.256135	1.025983
H517	H	0.093440	-0.761698	0.466929
H518	H	0.593440	-0.261698	0.966929
H519	H	0.128051	-0.711594	0.439488
H520	H	0.628051	-0.211594	0.939488
O521	O	-0.035267	-0.520635	0.225015
O522	O	0.464733	-0.020635	0.725015
C523	C	-0.083651	-0.429793	0.231008
C524	C	0.416349	0.070207	0.731008
C525	C	-0.068455	-0.491781	0.262535
C526	C	0.431545	0.008219	0.762535
H527	H	-0.110476	-0.406446	0.261329
H528	H	0.389524	0.093554	0.761329
H529	H	-0.106958	-0.418461	0.204120
H530	H	0.393042	0.081539	0.704120
H531	H	-0.044729	-0.418581	0.204230
H532	H	0.455271	0.081419	0.704230
H533	H	-0.107348	-0.503037	0.289343
H534	H	0.392652	-0.003037	0.789343
H535	H	-0.045126	-0.503080	0.289388
H536	H	0.454874	-0.003080	0.789388
O537	O	-0.073113	-0.558256	0.337929
O538	O	0.426887	-0.058256	0.837929
C539	C	-0.160400	-0.525413	0.402529
C540	C	0.339600	-0.025413	0.902529
C541	C	-0.124098	-0.566426	0.371046
C542	C	0.375902	-0.066426	0.871046
H543	H	-0.201625	-0.532011	0.429321
H544	H	0.298375	-0.032011	0.929321
H545	H	-0.166994	-0.481859	0.372199
H546	H	0.333006	0.018141	0.872199
H547	H	-0.139435	-0.532031	0.429404
H548	H	0.360565	-0.032031	0.929404
H549	H	-0.145032	-0.559858	0.344170
H550	H	0.354968	-0.059858	0.844170
H551	H	-0.117503	-0.609965	0.401406
H552	H	0.382497	-0.109965	0.901406
H553	H	0.051792	-0.699362	0.229554
H554	H	0.551792	-0.199362	0.729554
O555	O	-0.112336	-0.696589	0.515296
O556	O	0.387664	-0.196589	1.015296
C557	C	-0.047711	-0.783865	0.548158
C558	C	0.452289	-0.283865	1.048158
C559	C	-0.079146	-0.747569	0.507098
C560	C	0.420854	-0.247569	1.007098
H561	H	-0.020860	-0.825086	0.541537
H562	H	0.479140	-0.325086	1.041537
H563	H	-0.078071	-0.790479	0.591692
H564	H	0.421929	-0.290479	1.091692
H565	H	-0.020902	-0.762882	0.541617
H566	H	0.479098	-0.262882	1.041617
H567	H	-0.105956	-0.768522	0.513589
H568	H	0.394044	-0.268522	1.013589
H569	H	-0.048756	-0.740954	0.463578
H570	H	0.451244	-0.240954	0.963578
H571	H	-0.067926	-0.564092	0.382165
H572	H	0.432074	-0.064092	0.882165
O573	O	0.019170	-0.742821	0.337949
O574	O	0.519170	-0.242821	0.837949
C575	C	0.067591	-0.833664	0.331958
C576	C	0.567591	-0.333664	0.831958
C577	C	0.052431	-0.771676	0.300430
C578	C	0.552431	-0.271676	0.800430
H579	H	0.094494	-0.857012	0.301638
H580	H	0.594494	-0.357012	0.801638
H581	H	0.028693	-0.844921	0.358704
H582	H	0.528693	-0.344921	0.858704
H583	H	0.090842	-0.844949	0.358879
H584	H	0.590842	-0.344949	0.858879
H585	H	0.029193	-0.760346	0.273480
H586	H	0.529193	-0.260346	0.773480
H587	H	0.091349	-0.760452	0.273719
H588	H	0.591349	-0.260452	0.773719
H589	H	0.016742	-0.733938	0.467255
H590	H	0.516742	-0.233938	0.967255
O591	O	-0.035431	-0.520637	0.414687
O592	O	0.464569	-0.020637	0.914687
C593	C	-0.030917	-0.434850	0.342000
C594	C	0.469083	0.065150	0.842000
C595	C	-0.015786	-0.496830	0.357287
C596	C	0.484214	0.003170	0.857287
H597	H	-0.015050	-0.415581	0.295591
H598	H	0.484950	0.084419	0.795591
H599	H	-0.011622	-0.427599	0.361342
H600	H	0.488378	0.072401	0.861342
H601	H	-0.077321	-0.415477	0.357754
H602	H	0.422679	0.084523	0.857754
H603	H	0.030610	-0.516244	0.341536
H604	H	0.530610	-0.016244	0.841536
H605	H	-0.035120	-0.504042	0.337952
H606	H	0.464880	-0.004042	0.837952
O607	O	-0.081029	-0.848429	0.495630
O608	O	0.418971	-0.348429	0.995630
C609	C	-0.175036	-0.842274	0.528640
C610	C	0.324964	-0.342274	1.028640
C611	C	-0.134469	-0.810836	0.498637
C612	C	0.365531	-0.310836	0.998637
H613	H	-0.218249	-0.811893	0.531070
H614	H	0.281751	-0.311893	1.031070
H615	H	-0.173352	-0.869044	0.571764
H616	H	0.326648	-0.369044	1.071764
H617	H	-0.163530	-0.869164	0.505261
H618	H	0.336470	-0.369164	1.005261
H619	H	-0.145947	-0.783915	0.521970
H620	H	0.354053	-0.283915	1.021970
H621	H	-0.136160	-0.784100	0.455510
H622	H	0.363840	-0.284100	0.955510
O623	O	0.101852	-0.848758	0.426278
O624	O	0.601852	-0.348758	0.926278
C625	C	0.171083	-0.913550	0.468654
C626	C	0.671083	-0.413550	0.968654
C627	C	0.109600	-0.881961	0.477456
C628	C	0.609600	-0.381961	0.977456
H629	H	0.177366	-0.940410	0.510022
H630	H	0.677366	-0.440410	1.010022
H631	H	0.194163	-0.883287	0.445985
H632	H	0.694163	-0.383287	0.945985
H633	H	0.187235	-0.940369	0.443428
H634	H	0.687235	-0.440369	0.943428
H635	H	0.093398	-0.855141	0.502694
H636	H	0.593398	-0.355141	1.002694
H637	H	0.086557	-0.912253	0.500100
H638	H	0.586557	-0.412253	1.000100
H639	H	-0.220824	-0.656545	0.543924
H640	H	0.279176	-0.156545	1.043924
O641	O	-0.224926	-0.566498	0.368072
O642	O	0.275074	-0.066498	0.868072
C643	C	-0.218713	-0.522172	0.273175
C644	C	0.281287	-0.022172	0.773175
C645	C	-0.187310	-0.558448	0.314262
C646	C	0.312690	-0.058448	0.814262
H647	H	-0.188314	-0.515662	0.229661
H648	H	0.311686	-0.015662	0.729661
H649	H	-0.245516	-0.480903	0.279698
H650	H	0.254484	0.019097	0.779698
H651	H	-0.245565	-0.543132	0.279755
H652	H	0.254435	-0.043132	0.779755
H653	H	-0.160429	-0.537537	0.307707
H654	H	0.339571	-0.037537	0.807707
H655	H	-0.160542	-0.599716	0.307729
H656	H	0.339458	-0.099716	0.807729
O657	O	-0.118485	-0.735461	0.457739
O658	O	0.381515	-0.235461	0.957739
C659	C	-0.187707	-0.670714	0.415343
C660	C	0.312293	-0.170714	0.915343
C661	C	-0.126229	-0.702334	0.406553
C662	C	0.373771	-0.202334	0.906553
H663	H	-0.193989	-0.643932	0.373966
H664	H	0.306011	-0.143932	0.873966
H665	H	-0.203889	-0.643830	0.440511
H666	H	0.296111	-0.143830	0.940511
H667	H	-0.210761	-0.701005	0.438064
H668	H	0.289239	-0.201005	0.938064
H669	H	-0.103130	-0.672083	0.383817
H670	H	0.396870	-0.172083	0.883817
H671	H	-0.110089	-0.729226	0.381407
H672	H	0.389911	-0.229226	0.881407
H673	H	-0.116547	-0.606465	0.339541
H674	H	0.383453	-0.106465	0.839541
