data_functionalizedCrystal
_audit_creation_method	'MofGen! by Chris Wilmer'
_symmetry_space_group_name_H-M	'P1'
_symmetry_Int_Tables_number	1
_symmetry_cell_setting	triclinic
loop_
_symmetry_equiv_pos_as_xyz
  x,y,z
_cell_length_a	12.594516
_cell_length_b	13.032831
_cell_length_c	13.032268
_cell_angle_alpha	90.886977
_cell_angle_beta	82.847564
_cell_angle_gamma	97.178696
loop_
_atom_site_label
_atom_site_type_symbol
_atom_site_fract_x
_atom_site_fract_y
_atom_site_fract_z
Zn1	Zn	-0.718822	-1.498496	0.780872
Zn2	Zn	-0.877407	-1.520242	0.608900
Zn3	Zn	-0.674358	-1.348353	0.587111
Zn4	Zn	-0.871652	-1.326490	0.759025
O5	O	-0.785560	-1.423395	0.683977
O6	O	-0.760876	-1.645302	0.776322
O7	O	-0.834272	-1.515691	0.462092
O8	O	-0.531320	-1.368319	0.612838
O9	O	-0.877387	-1.661279	0.649975
O10	O	-0.563987	-1.478628	0.755193
O11	O	-0.685093	-1.389406	0.446084
O12	O	-0.679512	-1.201532	0.591654
O13	O	-0.867579	-1.331056	0.905841
O14	O	-0.824463	-1.185469	0.717958
O15	O	-0.755295	-1.457428	0.921892
O16	O	-1.025580	-1.494491	0.628791
O17	O	-1.021351	-1.352143	0.739087
C18	C	-0.746539	-1.156183	0.650071
C19	C	-0.729875	-1.041866	0.635591
C20	C	-0.815755	-1.389378	0.952226
C21	C	-0.828622	-1.374882	1.066537
C22	C	-1.062090	-1.423329	0.683958
C23	C	-1.180408	-1.423391	0.683997
C24	C	-1.247394	-1.345967	0.743938
C25	C	-1.304009	-1.332833	0.646920
C26	C	-1.334607	-1.436617	0.781043
C27	C	-1.235453	-1.410213	0.586923
C28	C	-1.266057	-1.514033	0.721115
C29	C	-1.322639	-1.500943	0.624037
C30	C	-0.507956	-1.423487	0.684022
C31	C	-0.389658	-1.423526	0.684041
C32	C	-0.824733	-1.691651	0.718016
C33	C	-0.841426	-1.805965	0.732521
C34	C	-0.794257	-0.982991	0.691535
C35	C	-0.777035	-0.864838	0.676569
C36	C	-0.755414	-1.457340	0.416779
C37	C	-0.742276	-1.472035	0.302494
C38	C	-0.778803	-1.430945	1.125443
C39	C	-0.792101	-1.415964	1.243590
H40	H	-1.214409	-1.280399	0.794530
H41	H	-0.726303	-1.490030	1.088406
O42	O	-0.891397	-1.304452	1.110603
C43	C	-0.997836	-1.330207	1.087284
H44	H	-0.997095	-1.379566	1.014275
H45	H	-1.034324	-1.256416	1.074291
H46	H	-1.048157	-1.375462	1.154429
O47	O	-1.324511	-1.241375	0.609642
C48	C	-1.286127	-1.159879	0.673018
H49	H	-1.280595	-1.191204	0.753115
H50	H	-1.343911	-1.098717	0.679866
H51	H	-1.202838	-1.123817	0.637321
H52	H	-0.862124	-1.020059	0.750512
O53	O	-0.922426	-0.849999	0.802960
C54	C	-0.978962	-0.772317	0.852049
H55	H	-0.924694	-0.695252	0.846047
H56	H	-1.004073	-0.793180	0.936976
H57	H	-1.053832	-0.765704	0.812820
O58	O	-1.184029	-1.396784	0.489061
C59	C	-1.072246	-1.396856	0.490222
H60	H	-1.050476	-1.374941	0.570701
H61	H	-1.026258	-1.338408	0.431454
H62	H	-1.049612	-1.477274	0.469447
O63	O	-1.361657	-1.579034	0.563357
C64	C	-1.310392	-1.564773	0.461187
H65	H	-1.278032	-1.479690	0.448331
H66	H	-1.370896	-1.589578	0.404619
H67	H	-1.240797	-1.613518	0.447993
O68	O	-1.245550	-1.605324	0.758753
C69	C	-1.296487	-1.618900	0.861104
H70	H	-1.310779	-1.540377	0.896167
H71	H	-1.242824	-1.657634	0.908909
H72	H	-1.377046	-1.669667	0.861002
O73	O	-1.385837	-1.449959	0.878986
C74	C	-1.309327	-1.458239	0.947775
H75	H	-1.233541	-1.484571	0.903566
H76	H	-1.344587	-1.517096	1.010594
H77	H	-1.287988	-1.379747	0.984790
H78	H	-0.662001	-1.004798	0.576621
H79	H	-0.709156	-0.827774	0.617595
H80	H	-0.844593	-1.356864	1.280621
O81	O	-0.679538	-1.542396	1.258203
C82	C	-0.595284	-1.491668	1.188675
H83	H	-0.619667	-1.415737	1.162781
H84	H	-0.578663	-1.543078	1.118409
H85	H	-0.519393	-1.475169	1.228609
