data_functionalizedCrystal
_audit_creation_method	'MofGen! by Chris Wilmer'
_symmetry_space_group_name_H-M	'P1'
_symmetry_Int_Tables_number	1
_symmetry_cell_setting	triclinic
loop_
_symmetry_equiv_pos_as_xyz
  x,y,z
_cell_length_a	6.817900
_cell_length_b	19.551823
_cell_length_c	17.078481
_cell_angle_alpha	96.654550
_cell_angle_beta	99.306161
_cell_angle_gamma	101.663376
loop_
_atom_site_label
_atom_site_type_symbol
_atom_site_fract_x
_atom_site_fract_y
_atom_site_fract_z
V1	V	-3.970599	-0.096512	-0.247732
O2	O	-3.968495	0.004806	-0.242634
O3	O	-3.913543	-0.191528	-0.246405
O4	O	-3.901791	-0.094953	-0.355609
O5	O	-3.980329	-0.092437	-0.132674
V6	V	-4.457993	-0.084402	-0.233926
O7	O	-4.223366	-0.123076	-0.278017
O8	O	-4.655424	-0.057837	-0.203640
O9	O	-4.291843	0.010615	-0.235253
O10	O	-4.577495	-0.185719	-0.239023
O11	O	-4.565661	-0.088476	-0.348983
O12	O	-4.303595	-0.085960	-0.126049
C13	C	-3.757099	-0.214693	-0.242591
C14	C	-3.791599	-0.292369	-0.242225
C15	C	-3.988823	-0.332412	-0.246021
C16	C	-4.021243	-0.405399	-0.245685
C17	C	-3.856423	-0.438337	-0.241537
C18	C	-3.659173	-0.398285	-0.237746
C19	C	-3.626761	-0.325301	-0.238090
C20	C	-3.752711	-0.544858	-0.191229
C21	C	-3.785128	-0.617840	-0.190881
C22	C	-3.956385	-0.663443	-0.240480
C23	C	-4.095251	-0.636055	-0.290418
C24	C	-4.062839	-0.563072	-0.290762
C25	C	-3.891548	-0.517475	-0.241164
C26	C	-4.188775	-0.782627	-0.243912
C27	C	-4.221190	-0.855615	-0.243581
C28	C	-3.859111	-0.848499	-0.235634
C29	C	-3.826705	-0.775513	-0.235974
C30	C	-3.991543	-0.742581	-0.240109
C31	C	-3.742107	-0.091502	-0.381891
C32	C	-3.767075	-0.090857	-0.470084
C33	C	-3.959819	-0.094041	-0.515571
C34	C	-3.983267	-0.093435	-0.598437
C35	C	-3.813970	-0.089648	-0.635814
C36	C	-3.621210	-0.086461	-0.590320
C37	C	-3.597762	-0.087063	-0.507455
C38	C	-3.864685	-0.087470	-0.883209
C39	C	-3.888149	-0.086870	-0.966081
C40	C	-4.250205	-0.093843	-0.974192
C41	C	-4.226742	-0.094449	-0.891326
C42	C	-4.033982	-0.091258	-0.845838
N43	N	-3.837935	-0.089030	-0.720517
N44	N	-4.010018	-0.091871	-0.761136
C45	C	-4.111630	0.033776	-0.239064
C46	C	-4.056366	0.111452	-0.239435
C47	C	-4.126622	-0.089414	-0.099762
C48	C	-4.080893	-0.090055	-0.011569
H49	H	-4.175908	-0.540776	-0.331425
C50	C	-3.564317	-0.494697	-0.136665
C51	C	-3.411591	-0.524817	-0.081728
C52	C	-3.223203	-0.474657	-0.027168
C53	C	-3.187541	-0.394378	-0.027545
C54	C	-3.340272	-0.364253	-0.082484
C55	C	-3.528660	-0.414413	-0.137044
H56	H	-3.437986	-0.584248	-0.081447
H57	H	-3.110141	-0.496958	0.013502
H58	H	-3.048085	-0.357247	0.012844
H59	H	-3.313877	-0.304822	-0.082765
H60	H	-3.641722	-0.392112	-0.177714
C61	C	-4.283640	-0.686210	-0.344985
C62	C	-4.319293	-0.766491	-0.344619
C63	C	-4.507680	-0.816648	-0.399182
C64	C	-4.660415	-0.786525	-0.454112
C65	C	-4.624766	-0.706240	-0.454480
C66	C	-4.436379	-0.656083	-0.399917
H67	H	-4.206226	-0.788794	-0.303955
H68	H	-4.534069	-0.876081	-0.398909
H69	H	-4.799870	-0.823655	-0.494503
H70	H	-4.737833	-0.683937	-0.495145
H71	H	-4.409990	-0.596650	-0.400190
C72	C	-4.195297	-0.096940	-0.648469
C73	C	-4.310890	-0.038954	-0.629389
C74	C	-4.522932	-0.042458	-0.679418
C75	C	-4.619380	-0.103949	-0.748527
C76	C	-4.503786	-0.161941	-0.767611
C77	C	-4.291744	-0.158436	-0.717582
H78	H	-4.239494	0.006570	-0.578226
H79	H	-4.608502	0.000471	-0.665290
H80	H	-4.776346	-0.106544	-0.785562
H81	H	-4.575181	-0.207464	-0.818773
H82	H	-4.206174	-0.201366	-0.731710
C83	C	-3.609745	-0.731461	-0.231787
C84	C	-3.561929	-0.689767	-0.300177
C85	C	-3.344958	-0.645716	-0.295993
C86	C	-3.175804	-0.643358	-0.223418
C87	C	-3.223615	-0.685053	-0.155023
C88	C	-3.440586	-0.729104	-0.159207
H89	H	-3.687151	-0.691512	-0.353906
H90	H	-3.309566	-0.614851	-0.346624
H91	H	-3.015189	-0.610748	-0.220321
H92	H	-3.098393	-0.683308	-0.101294
H93	H	-3.475978	-0.759969	-0.108576
H94	H	-4.381799	-0.888218	-0.246677
C95	C	-4.238202	-0.449460	-0.249858
C96	C	-4.407384	-0.451825	-0.322425
C97	C	-4.624338	-0.495884	-0.326598
C98	C	-4.672111	-0.537579	-0.258205
C99	C	-4.502924	-0.535216	-0.185633
C100	C	-4.285969	-0.491156	-0.181459
H101	H	-4.372024	-0.420958	-0.373059
H102	H	-4.749581	-0.497634	-0.380322
H103	H	-4.832713	-0.570195	-0.261295
H104	H	-4.538284	-0.566082	-0.134999
H105	H	-4.160727	-0.489407	-0.127736
H106	H	-3.440802	-0.084452	-0.470416
H107	H	-3.672062	-0.640132	-0.150213
H108	H	-4.123052	-0.305605	-0.249393
H109	H	-4.322996	-0.755812	-0.247278
H110	H	-4.364605	-0.097531	-0.860899
C111	C	-3.652652	-0.083961	-0.833185
C112	C	-3.556194	-0.022461	-0.764086
C113	C	-3.344146	-0.018951	-0.714059
C114	C	-3.228555	-0.076941	-0.733131
C115	C	-3.325012	-0.138445	-0.802233
C116	C	-3.537060	-0.141955	-0.852260
H117	H	-3.641762	0.020470	-0.749964
H118	H	-3.272743	0.026579	-0.662904
H119	H	-3.071584	-0.074342	-0.696098
H120	H	-3.239444	-0.181376	-0.816355
H121	H	-3.608463	-0.187485	-0.903414
H122	H	-3.724913	-0.875317	-0.232262
H123	H	-3.524978	-0.425108	-0.234371
H124	H	-3.466156	-0.292698	-0.235000
H125	H	-4.097685	-0.097130	-0.485146
H126	H	-4.407143	-0.096440	-1.011237
H127	H	-3.750276	-0.083785	-0.996510
H128	H	-3.483365	-0.083373	-0.620758
