data_functionalizedCrystal
_audit_creation_method	'MofGen! by Chris Wilmer'
_symmetry_space_group_name_H-M	'P1'
_symmetry_Int_Tables_number	1
_symmetry_cell_setting	triclinic
loop_
_symmetry_equiv_pos_as_xyz
  x,y,z
_cell_length_a	10.723024
_cell_length_b	9.198806
_cell_length_c	10.654551
_cell_angle_alpha	90.001403
_cell_angle_beta	95.523351
_cell_angle_gamma	89.995990
loop_
_atom_site_label
_atom_site_type_symbol
_atom_site_fract_x
_atom_site_fract_y
_atom_site_fract_z
O1	O	-1.657214	0.120898	0.176147
O2	O	-1.294064	0.120898	0.193007
O3	O	-1.483988	0.120895	0.001837
O4	O	-1.467291	0.120901	0.367317
O5	O	-1.483974	-0.120890	0.001836
O6	O	-1.294050	-0.120887	0.193007
O7	O	-1.657200	-0.120887	0.176146
Cu8	Cu	-1.475624	-0.142964	0.184576
Cu9	Cu	-1.475641	0.142975	0.184577
O10	O	-1.467276	-0.120884	0.367317
C11	C	-1.247558	0.000005	0.191780
C12	C	-1.109003	0.000005	0.188109
N13	N	-1.475621	-0.344078	0.184575
C14	C	-1.402861	-0.416311	0.111748
C15	C	-1.402877	-0.583723	0.111743
C16	C	-1.034036	0.000007	0.295078
C17	C	-0.890833	0.000007	0.291286
C18	C	-0.703707	0.000005	0.177373
C19	C	-0.842262	0.000005	0.181044
C20	C	-1.482755	0.000004	-0.044961
C21	C	-1.479086	0.000011	-0.184404
N22	N	-1.475653	0.344089	0.184568
C23	C	-1.477371	0.131810	-0.249907
C24	C	-1.473914	0.131811	-0.380927
C25	C	-1.473890	-0.131796	-0.380930
C26	C	-1.477338	-0.131796	-0.249911
C27	C	-1.396230	0.290157	-0.550987
C28	C	-1.394537	0.421963	-0.616498
C29	C	-1.468661	0.538329	-0.582968
C30	C	-1.544509	0.522895	-0.483934
C31	C	-1.546213	0.391087	-0.418432
C32	C	-1.472059	0.274726	-0.451956
C33	C	-1.555033	-0.290133	-0.079850
C34	C	-1.556746	-0.421942	-0.014346
C35	C	-1.482629	-0.538321	-0.047874
C36	C	-1.406800	-0.522901	-0.146915
C37	C	-1.405087	-0.391092	-0.212418
C38	C	-1.479202	-0.274713	-0.178881
C39	C	-1.468510	0.000009	0.414115
C40	C	-1.472179	0.000012	0.553558
H41	H	-1.340551	-0.354212	0.049405
H42	H	-1.607969	0.378520	-0.337802
Br43	Br	-1.479739	0.310690	-0.161008
H44	H	-1.537919	-0.406177	0.246929
H45	H	-0.826414	0.000015	0.382860
H46	H	-1.067166	0.000040	0.093722
H47	H	-1.604877	0.617651	-0.456653
Br48	Br	-1.466383	0.717195	-0.671895
H49	H	-1.332773	0.434520	-0.697130
H50	H	-1.075873	0.000001	0.389465
H51	H	-1.346420	-0.617652	-0.174191
Br52	Br	-1.295597	0.132243	-0.596477
H53	H	-1.343335	-0.378542	-0.293060
H54	H	-0.906673	0.000013	0.089466
Br55	Br	-1.471515	-0.310669	-0.469839
H56	H	-1.615378	-0.195367	-0.052531
H57	H	-1.340588	-0.645841	0.049390
Br58	Br	-1.484973	-0.717217	0.041010
H59	H	-1.537953	-0.593802	0.246918
H60	H	-1.618499	-0.434492	0.066294
