data_functionalizedCrystal
_audit_creation_method	'MofGen! by Chris Wilmer'
_symmetry_space_group_name_H-M	'P1'
_symmetry_Int_Tables_number	1
_symmetry_cell_setting	triclinic
loop_
_symmetry_equiv_pos_as_xyz
  x,y,z
_cell_length_a	29.839134
_cell_length_b	12.759399
_cell_length_c	12.759401
_cell_angle_alpha	89.989880
_cell_angle_beta	90.016764
_cell_angle_gamma	89.990022
loop_
_atom_site_label
_atom_site_type_symbol
_atom_site_fract_x
_atom_site_fract_y
_atom_site_fract_z
Zn1	Zn	0.686779	0.418575	0.594340
Zn2	Zn	0.686752	0.594227	0.418659
Zn3	Zn	0.611668	0.418547	0.418640
Zn4	Zn	0.611644	0.594197	0.594261
O5	O	0.649211	0.506386	0.506475
O6	O	0.749642	0.441900	0.571077
O7	O	0.676791	0.570923	0.271635
O8	O	0.621653	0.271529	0.441972
O9	O	0.749623	0.570951	0.442004
O10	O	0.676836	0.271550	0.571058
O11	O	0.621627	0.441852	0.271621
O12	O	0.548798	0.441823	0.441895
O13	O	0.621611	0.570899	0.741292
O14	O	0.548780	0.570872	0.570923
O15	O	0.676813	0.441871	0.741350
O16	O	0.676767	0.741244	0.441928
O17	O	0.621586	0.741222	0.570941
C18	C	0.532488	0.506342	0.506399
C19	C	0.482554	0.506348	0.506391
C20	C	0.649183	0.779354	0.506451
C21	C	0.649212	0.896130	0.506476
C22	C	0.649212	0.506385	0.780508
C23	C	0.649213	0.506384	0.897285
C24	C	0.172910	0.573682	0.573577
C25	C	-0.014763	0.573711	0.573624
O26	O	-0.039027	0.630911	0.630703
N27	N	-0.038231	0.506425	0.506554
C28	C	-0.014779	0.439121	0.439472
O29	O	-0.039047	0.381883	0.382434
C30	C	0.172893	0.439087	0.439432
C31	C	0.196359	0.506386	0.506499
C32	C	0.196377	0.640974	0.640640
C33	C	0.243292	0.640970	0.640623
C34	C	0.266741	0.573674	0.573544
C35	C	0.243275	0.506382	0.506482
C36	C	0.196345	0.371779	0.372356
C37	C	0.243266	0.371775	0.372354
C38	C	0.266732	0.439073	0.439421
C39	C	0.313640	0.439081	0.439387
N40	N	0.337108	0.506368	0.506457
C41	C	0.313659	0.573664	0.573536
C42	C	-0.113310	0.439146	0.439497
C43	C	-0.160227	0.439155	0.439505
C44	C	-0.160208	0.573744	0.573659
C45	C	-0.113289	0.573739	0.573644
C46	C	-0.089841	0.506432	0.506567
C47	C	0.412185	0.573651	0.573496
C48	C	0.459105	0.573644	0.573470
C49	C	0.459081	0.439052	0.439321
C50	C	0.412165	0.439062	0.439342
C51	C	0.388719	0.506365	0.506438
O52	O	0.337933	0.381903	0.382346
O53	O	0.337935	0.630877	0.630582
C54	C	0.125995	0.573686	0.573594
C55	C	0.102529	0.506394	0.506531
C56	C	0.125978	0.439098	0.439453
C57	C	0.055611	0.506403	0.506540
C58	C	0.032162	0.573699	0.573619
C59	C	0.055630	0.640986	0.640689
C60	C	0.102546	0.640982	0.640672
C61	C	0.102509	0.371811	0.372383
C62	C	0.055593	0.371822	0.372404
C63	C	0.032144	0.439118	0.439482
C64	C	0.766389	0.506432	0.506551
C65	C	0.816323	0.506451	0.506584
C66	C	0.649251	0.232353	0.506522
C67	C	0.649268	0.115576	0.506542
C68	C	0.677978	0.950969	0.439375
C69	C	0.678007	1.060693	0.439410
C70	C	0.620500	1.060730	0.573650
C71	C	0.620474	0.951008	0.573620
C72	C	0.677949	0.439210	1.061910
C73	C	0.677953	0.439210	0.952186
C74	C	0.620470	0.573571	0.952113
C75	C	0.620469	0.573575	1.061835
C76	C	0.649206	0.506406	1.233507
C77	C	0.649208	0.506389	1.116731
H78	H	0.478209	0.628450	0.628085
C79	C	0.709567	0.365308	0.891884
C80	C	0.705916	0.245871	0.906991
C81	C	0.737533	0.171967	0.846690
C82	C	0.772801	0.217499	0.771282
C83	C	0.776454	0.336942	0.756171
C84	C	0.744837	0.410846	0.816472
H85	H	0.679807	0.212160	0.962815
H86	H	0.734828	0.083547	0.857876
H87	H	0.796206	0.162790	0.726644
H88	H	0.802563	0.370653	0.700347
H89	H	0.747542	0.499266	0.805286
C90	C	0.588829	0.890679	0.647437
C91	C	0.537764	0.905847	0.638744
C92	C	0.506122	0.845518	0.712562
C93	C	0.525547	0.770020	0.795074
C94	C	0.576615	0.754847	0.803770
C95	C	0.608257	0.815177	0.729952
H96	H	0.523382	0.961739	0.577661
H97	H	0.468318	0.856750	0.706124
H98	H	0.502124	0.725360	0.849718
H99	H	0.590997	0.698956	0.864853
H100	H	0.646061	0.803945	0.736390
H101	H	0.701380	0.906290	0.384704
C102	C	-0.087523	0.365115	0.365688
C103	C	-0.093974	0.245694	0.374447
C104	C	-0.068191	0.171670	0.300629
C105	C	-0.035956	0.217067	0.218052
C106	C	-0.029503	0.336494	0.209289
C107	C	-0.055287	0.410518	0.283107
H108	H	-0.117837	0.212082	0.435579
H109	H	-0.072967	0.083261	0.307116
H110	H	-0.016870	0.162270	0.163407
H111	H	-0.005640	0.370105	0.148158
H112	H	-0.050510	0.498926	0.276620
H113	H	0.597064	0.628286	1.106472
C114	C	0.709650	1.121015	0.365597
C115	C	0.741261	1.060648	0.291748
C116	C	0.772906	1.120970	0.217933
C117	C	0.772941	1.241660	0.217968
C118	C	0.741329	1.302034	0.291820
C119	C	0.709684	1.241712	0.365634
H120	H	0.741236	0.971300	0.291719
H121	H	0.796308	1.076276	0.163263
H122	H	0.796367	1.286314	0.163326
H123	H	0.741354	1.391382	0.291848
H124	H	0.686282	1.286406	0.420304
C125	C	0.588888	1.121098	0.647501
C126	C	0.588914	1.241788	0.647538
C127	C	0.557300	1.302154	0.721390
C128	C	0.525660	1.241829	0.795206
C129	C	0.525632	1.121133	0.795172
C130	C	0.557246	1.060767	0.721320
H131	H	0.612337	1.286450	0.592893
H132	H	0.557321	1.391502	0.721415
H133	H	0.502257	1.286516	0.849876
H134	H	0.502209	1.076471	0.849818
H135	H	0.557226	0.971419	0.721295
H136	H	0.393100	0.628453	0.628134
H137	H	0.262394	0.695769	0.695238
H138	H	0.701349	0.384502	1.106602
C139	C	0.170588	0.715012	0.714430
C140	C	0.177043	0.834429	0.705635
C141	C	0.151259	0.908480	0.779424
C142	C	0.119020	0.863114	0.862010
C143	C	0.112564	0.743690	0.870809
C144	C	0.138348	0.669639	0.797019
H145	H	0.200909	0.868018	0.644497
H146	H	0.156038	0.996886	0.772910
H147	H	0.099933	0.917931	0.916633
H148	H	0.088698	0.710102	0.931946
H149	H	0.133569	0.581234	0.803533
H150	H	-0.094186	0.628537	0.628258
H151	H	0.121597	0.317009	0.317758
H152	H	0.597072	0.628270	0.907404
H153	H	-0.179330	0.384365	0.384882
C154	C	-0.186007	0.647767	0.647452
C155	C	-0.237615	0.647764	0.647457
C156	C	-0.263417	0.721776	0.721251
C157	C	-0.237611	0.795792	0.795040
C158	C	-0.186000	0.795798	0.795037
C159	C	-0.160199	0.721785	0.721243
H160	H	-0.256721	0.592971	0.592832
H161	H	-0.301623	0.721772	0.721253
H162	H	-0.256711	0.850580	0.849667
H163	H	-0.166895	0.850591	0.849663
H164	H	-0.121993	0.721790	0.721241
H165	H	0.177247	0.316981	0.317740
H166	H	0.393058	0.384265	0.384729
C167	C	0.269059	0.297737	0.298564
C168	C	0.301326	0.215318	0.344223
C169	C	0.327118	0.141284	0.270433
C170	C	0.320644	0.149669	0.150984
C171	C	0.288376	0.232091	0.105319
C172	C	0.262584	0.306125	0.179109
H173	H	0.306119	0.209108	0.432651
H174	H	0.351005	0.080270	0.304237
H175	H	0.339738	0.094864	0.096360
H176	H	0.283583	0.238301	0.016890
H177	H	0.238697	0.367140	0.145304
C178	C	0.484883	0.365025	0.365545
C179	C	0.517150	0.282621	0.411231
C180	C	0.542954	0.208588	0.337463
C181	C	0.536492	0.216958	0.218010
C182	C	0.504224	0.299365	0.172318
C183	C	0.478420	0.373399	0.246086
H184	H	0.521934	0.276422	0.499663
H185	H	0.566841	0.147584	0.371288
H186	H	0.555595	0.162154	0.163403
H187	H	0.499440	0.305565	0.083886
H188	H	0.454533	0.434402	0.212261
C189	C	0.029830	0.715011	0.714478
C190	C	0.036266	0.834436	0.705705
C191	C	0.010463	0.908451	0.779495
C192	C	-0.021775	0.863042	0.862058
C193	C	-0.028212	0.743611	0.870835
C194	C	-0.002409	0.669595	0.797045
H195	H	0.060131	0.868056	0.644584
H196	H	0.015228	0.996862	0.772998
H197	H	-0.040875	0.917832	0.916682
H198	H	-0.052077	0.709990	0.931956
H199	H	-0.007174	0.581184	0.803542
H200	H	0.121648	0.695783	0.695286
H201	H	0.036491	0.317020	0.317780
