data_functionalizedCrystal
_audit_creation_method	'MofGen! by Chris Wilmer'
_symmetry_space_group_name_H-M	'P1'
_symmetry_Int_Tables_number	1
_symmetry_cell_setting	triclinic
loop_
_symmetry_equiv_pos_as_xyz
  x,y,z
_cell_length_a	16.109301
_cell_length_b	8.559649
_cell_length_c	15.186229
_cell_angle_alpha	89.998040
_cell_angle_beta	89.999362
_cell_angle_gamma	76.620073
loop_
_atom_site_label
_atom_site_type_symbol
_atom_site_fract_x
_atom_site_fract_y
_atom_site_fract_z
O1	O	1.090045	0.205389	-0.073169
O2	O	0.846355	0.230949	-0.073183
O3	O	0.989670	-0.014444	-0.073174
O4	O	0.946731	0.450782	-0.073178
O5	O	0.989661	-0.014447	0.073283
O6	O	0.846347	0.230946	0.073274
O7	O	1.090037	0.205386	0.073288
Zn8	Zn	0.968191	0.218165	0.096534
Zn9	Zn	0.968202	0.218170	-0.096429
O10	O	0.946723	0.450779	0.073279
C11	C	0.815442	0.229912	0.000044
C12	C	0.723344	0.226808	0.000039
C13	C	0.992919	-0.073977	0.000053
C14	C	1.002605	-0.251362	0.000049
C15	C	0.492255	0.365202	0.000048
C16	C	0.405721	0.362273	0.000053
C17	C	0.444145	0.071122	0.000052
C18	C	0.530677	0.074053	0.000053
C19	C	0.554729	0.221098	0.000046
C20	C	0.381663	0.215238	0.000051
C21	C	0.287840	0.212061	0.000057
C22	C	0.648558	0.224275	0.000042
C23	C	1.120950	0.206423	0.000059
C24	C	1.213048	0.209527	0.000059
C25	C	0.943473	0.510312	0.000050
C26	C	0.933787	0.687697	0.000049
N27	N	0.968189	0.218161	0.228227
N28	N	0.968210	0.218161	-0.228122
C29	C	1.031666	0.109538	0.453954
C30	C	1.031669	0.109534	0.546144
C31	C	0.904727	0.326790	0.546145
C32	C	0.904722	0.326785	0.453957
C33	C	0.968196	0.218161	0.407864
C34	C	0.968204	0.218162	0.592241
C35	C	0.968207	0.218159	0.692198
C36	C	0.968192	0.218161	0.307901
H37	H	0.511835	0.484935	0.000049
H38	H	0.853049	0.415232	0.583683
H39	H	0.853032	0.415239	0.416428
H40	H	0.354857	0.479618	0.000056
H41	H	0.424550	-0.048597	0.000063
C42	C	1.092218	-0.364198	0.000059
H43	H	1.134092	-0.302180	0.000064
H44	H	1.098930	-0.430016	-0.051009
H45	H	1.098921	-0.429994	0.051144
C46	C	0.599402	-0.084470	0.000047
H47	H	0.572686	-0.172464	0.000038
H48	H	0.633958	-0.089382	0.051120
H49	H	0.633955	-0.089366	-0.051033
C50	C	0.844180	-0.199468	0.000035
H51	H	0.849206	-0.091049	0.000024
H52	H	0.814020	-0.218853	0.051105
H53	H	0.814037	-0.218869	-0.051047
C54	C	1.101482	-0.009940	0.403250
H55	H	1.092396	0.005623	0.341745
H56	H	1.099270	-0.116593	0.418360
H57	H	1.155857	0.007464	0.418358
H58	H	1.083351	0.021081	0.583668
