data_functionalizedCrystal
_audit_creation_method	'MofGen! by Chris Wilmer'
_symmetry_space_group_name_H-M	'P1'
_symmetry_Int_Tables_number	1
_symmetry_cell_setting	triclinic
loop_
_symmetry_equiv_pos_as_xyz
  x,y,z
_cell_length_a	17.038272
_cell_length_b	14.519709
_cell_length_c	12.996460
_cell_angle_alpha	89.999398
_cell_angle_beta	90.000375
_cell_angle_gamma	92.604149
loop_
_atom_site_label
_atom_site_type_symbol
_atom_site_fract_x
_atom_site_fract_y
_atom_site_fract_z
O1	O	0.102496	-1.231713	0.085433
O2	O	0.602496	-0.731713	0.585433
O3	O	0.114567	-0.964159	0.085465
O4	O	0.614567	-0.464159	0.585465
O5	O	-0.005287	-1.096346	0.085441
O6	O	0.494713	-0.596346	0.585441
O7	O	0.222349	-1.099526	0.085457
O8	O	0.722349	-0.599526	0.585457
O9	O	-0.005280	-1.096328	-0.085693
O10	O	0.494720	-0.596328	0.414307
O11	O	0.114574	-0.964142	-0.085669
O12	O	0.614574	-0.464142	0.414331
O13	O	0.102503	-1.231695	-0.085701
O14	O	0.602503	-0.731695	0.414299
Cu15	Cu	0.108539	-1.097917	-0.101311
Cu16	Cu	0.608539	-0.597917	0.398689
Cu17	Cu	0.108531	-1.097938	0.101075
Cu18	Cu	0.608531	-0.597938	0.601075
O19	O	0.222356	-1.099508	-0.085677
O20	O	0.722356	-0.599508	0.414323
C21	C	0.114008	-0.929748	-0.000098
C22	C	0.614008	-0.429748	0.499902
C23	C	0.112322	-0.827237	-0.000086
C24	C	0.612322	-0.327237	0.499914
C25	C	-0.034416	-1.093444	-0.000125
C26	C	0.465584	-0.593444	0.499875
C27	C	-0.121223	-1.084814	-0.000124
C28	C	0.378777	-0.584814	0.499876
C29	C	0.103062	-1.266107	-0.000135
C30	C	0.603062	-0.766107	0.499865
C31	C	0.104748	-1.368617	-0.000141
C32	C	0.604748	-0.868617	0.499859
C33	C	-0.171209	-1.164047	-0.000135
C34	C	0.328791	-0.664047	0.499865
C35	C	-0.252773	-1.155933	-0.000124
C36	C	0.247227	-0.655933	0.499876
C37	C	-0.284349	-1.068585	-0.000110
C38	C	0.215651	-0.568585	0.499890
C39	C	-0.234357	-0.989347	-0.000097
C40	C	0.265643	-0.489347	0.499903
C41	C	-0.152795	-0.997462	-0.000100
C42	C	0.347205	-0.497462	0.499900
C43	C	-0.530153	-1.039916	-0.000093
C44	C	-0.030153	-0.539916	0.499907
C45	C	-0.611722	-1.031807	-0.000092
C46	C	-0.111722	-0.531807	0.499908
C47	C	-0.630132	-1.198394	-0.000118
C48	C	-0.130132	-0.698394	0.499882
C49	C	-0.548568	-1.206502	-0.000127
C50	C	-0.048568	-0.706502	0.499873
C51	C	-0.498583	-1.127263	-0.000108
C52	C	0.001417	-0.627263	0.499892
C53	C	-0.367720	-1.060289	-0.000102
C54	C	0.132280	-0.560289	0.499898
C55	C	-0.415213	-1.135560	-0.000109
C56	C	0.084787	-0.635560	0.499891
C57	C	0.251486	-1.102410	-0.000108
C58	C	0.751486	-0.602410	0.499892
C59	C	0.338292	-1.111040	-0.000103
C60	C	0.838292	-0.611040	0.499897
N61	N	0.108544	-1.097909	-0.243658
N62	N	0.608544	-0.597909	0.256342
C63	C	0.106116	-0.451867	-0.000134
C64	C	0.606116	0.048133	0.499866
C65	C	0.107839	-0.556307	-0.000120
C66	C	0.607839	-0.056307	0.499880
C67	C	0.109219	-0.639549	-0.000109
C68	C	0.609219	-0.139549	0.499891
C69	C	0.110942	-0.743995	-0.000098
C70	C	0.610942	-0.243995	0.499902
C71	C	0.108546	-1.097913	-0.336764
C72	C	0.608546	-0.597913	0.163236
C73	C	0.108541	-1.097921	-0.453569
C74	C	0.608541	-0.597921	0.046431
C75	C	0.108532	-1.097932	-0.546667
C76	C	0.608532	-0.597932	-0.046667
C77	C	0.108528	-1.097941	-0.663480
C78	C	0.608528	-0.597941	-0.163480
N79	N	0.108519	-1.097952	0.243422
N80	N	0.608519	-0.597952	0.743422
H81	H	-0.145506	-1.235175	-0.000152
H82	H	0.354494	-0.735175	0.499848
H83	H	-0.293468	-1.220453	-0.000135
H84	H	0.206532	-0.720453	0.499865
H85	H	-0.489465	-0.975394	-0.000078
H86	H	0.010535	-0.475394	0.499922
H87	H	-0.522865	-1.277629	-0.000139
H88	H	-0.022865	-0.777629	0.499861
H89	H	-0.670838	-1.262906	-0.000131
H90	H	-0.170838	-0.762906	0.499869
C91	C	-0.402462	-0.964208	-0.000109
C92	C	0.097538	-0.464208	0.499891
N93	N	-0.428633	-0.891840	-0.000118
N94	N	0.071367	-0.391840	0.499882
C95	C	-0.269093	-0.893263	-0.000090
C96	C	0.230907	-0.393263	0.499910
N97	N	-0.295256	-0.820890	-0.000093
N98	N	0.204744	-0.320890	0.499907
H99	H	-0.389500	-1.206678	-0.000097
H100	H	0.110500	-0.706678	0.499903
H101	H	-0.637427	-0.960675	-0.000098
H102	H	-0.137427	-0.460675	0.499902
H103	H	-0.112096	-0.932942	-0.000091
H104	H	0.387904	-0.432942	0.499909
