data_functionalizedCrystal
_audit_creation_method	'MofGen! by Chris Wilmer'
_symmetry_space_group_name_H-M	'P1'
_symmetry_Int_Tables_number	1
_symmetry_cell_setting	triclinic
loop_
_symmetry_equiv_pos_as_xyz
  x,y,z
_cell_length_a	19.288864
_cell_length_b	16.992695
_cell_length_c	18.366186
_cell_angle_alpha	89.993794
_cell_angle_beta	89.977106
_cell_angle_gamma	86.902234
loop_
_atom_site_label
_atom_site_type_symbol
_atom_site_fract_x
_atom_site_fract_y
_atom_site_fract_z
O1	O	0.927052	0.097795	-0.060785
O2	O	1.427052	0.597795	0.439215
O3	O	0.725561	0.110988	-0.060736
O4	O	1.225561	0.610988	0.439264
O5	O	0.825499	-0.009748	-0.060755
O6	O	1.325499	0.490252	0.439245
O7	O	0.827114	0.218531	-0.060767
O8	O	1.327114	0.718531	0.439233
O9	O	0.825480	-0.009754	0.060345
O10	O	1.325480	0.490246	0.560345
O11	O	0.725542	0.110982	0.060363
O12	O	1.225542	0.610982	0.560363
O13	O	0.927034	0.097789	0.060314
O14	O	1.427034	0.597789	0.560314
Zn15	Zn	0.826285	0.104385	0.079566
Zn16	Zn	1.326285	0.604385	0.579566
Zn17	Zn	0.826309	0.104392	-0.079988
Zn18	Zn	1.326309	0.604392	0.420012
O19	O	0.827096	0.218525	0.060333
O20	O	1.327096	0.718525	0.560333
C21	C	0.699650	0.110560	-0.000180
C22	C	1.199650	0.610560	0.499820
C23	C	0.622472	0.109286	-0.000161
C24	C	1.122472	0.609286	0.499839
C25	C	0.823411	-0.038957	-0.000205
C26	C	1.323411	0.461043	0.499795
C27	C	0.817211	-0.125979	-0.000203
C28	C	1.317211	0.374021	0.499797
C29	C	0.581905	0.180128	-0.000176
C30	C	1.081905	0.680128	0.499824
C31	C	0.509388	0.178931	-0.000184
C32	C	1.009388	0.678931	0.499816
C33	C	0.477442	0.106888	-0.000191
C34	C	0.977442	0.606888	0.499809
C35	C	0.518018	0.036036	-0.000172
C36	C	1.018018	0.536036	0.499828
C37	C	0.590534	0.037235	-0.000157
C38	C	1.090534	0.537235	0.499843
C39	C	0.365885	0.050255	-0.042639
C40	C	0.865885	0.550255	0.457361
C41	C	0.293371	0.049059	-0.042659
C42	C	0.793371	0.549059	0.457341
C43	C	0.253780	0.103186	-0.000235
C44	C	0.753780	0.603186	0.499765
C45	C	0.286712	0.158522	0.042199
C46	C	0.786712	0.658522	0.542199
C47	C	0.359227	0.159722	0.042214
C48	C	0.859227	0.659722	0.542214
C49	C	0.398811	0.105579	-0.000207
C50	C	0.898811	0.605579	0.499793
C51	C	0.134581	0.172735	-0.000258
C52	C	0.634581	0.672735	0.499742
C53	C	0.062063	0.171535	-0.000261
C54	C	0.562063	0.671535	0.499739
C55	C	0.070695	0.028638	-0.000257
C56	C	0.570695	0.528638	0.499743
C57	C	0.143212	0.029840	-0.000246
C58	C	0.643212	0.529840	0.499754
C59	C	0.175150	0.101891	-0.000250
C60	C	0.675150	0.601891	0.499750
C61	C	0.877039	-0.176431	-0.000217
C62	C	1.377039	0.323569	0.499783
C63	C	0.871208	-0.258197	-0.000223
C64	C	1.371208	0.241803	0.499777
C65	C	0.805549	-0.289509	-0.000209
C66	C	1.305549	0.210491	0.499791
C67	C	0.745717	-0.239051	-0.000197
C68	C	1.245717	0.260949	0.499803
C69	C	0.751548	-0.157287	-0.000197
C70	C	1.251548	0.342713	0.499803
C71	C	0.781382	-0.533022	-0.000213
C72	C	1.281382	-0.033022	0.499787
C73	C	0.775556	-0.614793	-0.000211
C74	C	1.275556	-0.114793	0.499789
C75	C	0.901048	-0.633933	-0.000238
C76	C	1.401048	-0.133933	0.499762
C77	C	0.906873	-0.552166	-0.000233
C78	C	1.406873	-0.052166	0.499767
C79	C	0.847041	-0.501715	-0.000225
C80	C	1.347041	-0.001715	0.499775
N81	N	0.799588	-0.373087	-0.000212
N82	N	1.299588	0.126913	0.499788
N83	N	0.853002	-0.418138	-0.000227
N84	N	1.353002	0.081862	0.499773
C85	C	0.952944	0.098217	-0.000244
C86	C	1.452944	0.598217	0.499756
C87	C	1.030122	0.099491	-0.000268
C88	C	1.530122	0.599491	0.499732
C89	C	0.829183	0.247733	-0.000219
C90	C	1.329183	0.747733	0.499781
C91	C	0.835384	0.334756	-0.000225
C92	C	1.335384	0.834756	0.499775
N93	N	0.826273	0.104379	0.188457
N94	N	1.326273	0.604379	0.688457
N95	N	0.826326	0.104392	-0.188879
N96	N	1.326326	0.604392	0.311121
C97	C	0.870543	0.050943	0.226549
C98	C	1.370543	0.550943	0.726549
C99	C	0.870547	0.050940	0.302777
C100	C	1.370547	0.550940	0.802777
C101	C	0.826289	0.104385	0.340910
C102	C	1.326289	0.604385	0.840910
C103	C	0.782011	0.157825	0.302808
C104	C	1.282011	0.657825	0.802808
C105	C	0.782003	0.157822	0.226582
C106	C	1.282003	0.657822	0.726582
C107	C	0.821154	0.175814	0.461668
C108	C	1.321154	0.675814	0.961668
C109	C	0.821167	0.175819	0.537893
C110	C	1.321167	0.675819	1.037893
C111	C	0.826310	0.104395	0.576017
C112	C	1.326310	0.604395	1.076017
C113	C	0.831454	0.032964	0.537908
C114	C	1.331454	0.532964	1.037908
C115	C	0.831446	0.032961	0.461681
C116	C	1.331446	0.532961	0.961681
C117	C	0.826293	0.104394	0.423564
C118	C	1.326293	0.604394	0.923564
C119	C	0.870586	0.050951	0.696764
C120	C	1.370586	0.550951	1.196764
C121	C	0.870585	0.050947	0.772994
C122	C	1.370585	0.550947	1.272994
C123	C	0.782053	0.157839	0.773024
C124	C	1.282053	0.657839	1.273024
C125	C	0.782050	0.157837	0.696796
C126	C	1.282050	0.657837	1.196796
C127	C	0.826320	0.104394	0.658671
C128	C	1.326320	0.604394	1.158671
H129	H	0.607904	0.238798	-0.000180
H130	H	1.107904	0.738798	0.499820
C131	C	1.006206	-0.675433	0.061988
C132	C	1.506206	-0.175433	0.561988
C133	C	0.966813	-0.689390	-0.000254
C134	C	1.466813	-0.189390	0.499746
H135	H	1.046806	-0.709675	0.061977
H136	H	1.546806	-0.209675	0.561977
H137	H	1.019072	-0.622263	0.061981
H138	H	1.519072	-0.122263	0.561981
H139	H	0.979458	-0.684911	0.104221
H140	H	1.479458	-0.184911	0.604221
H141	H	0.993560	-0.679906	-0.042487
H142	H	1.493560	-0.179906	0.457513
H143	H	0.953948	-0.742573	-0.000254
H144	H	1.453948	-0.242573	0.499746
C145	C	0.748754	0.293660	0.326270
C146	C	1.248754	0.793660	0.826270
C147	C	0.733359	0.216574	0.344718
C148	C	1.233359	0.716574	0.844718
H149	H	0.718711	0.329927	0.352139
H150	H	1.218711	0.829927	0.852139
H151	H	0.795567	0.302041	0.338740
H152	H	1.295567	0.802041	0.838740
H153	H	0.742412	0.301294	0.275418
H154	H	1.242412	0.801294	0.775418
H155	H	0.739706	0.208939	0.395569
H156	H	1.239706	0.708939	0.895569
H157	H	0.686535	0.208191	0.332252
H158	H	1.186535	0.708191	0.832252
H159	H	0.254478	0.202597	0.076745
H160	H	0.754478	0.702597	0.576745
H161	H	0.160587	0.231403	-0.000250
H162	H	0.660587	0.731403	0.499750
H163	H	0.746004	0.201352	0.665779
H164	H	1.246004	0.701352	1.165779
H165	H	0.816982	0.233982	0.568916
H166	H	1.316982	0.733982	1.068916
H167	H	0.930505	-0.150943	-0.000224
H168	H	1.430505	0.349057	0.499776
C169	C	0.666371	-0.319896	-0.062431
C170	C	1.166371	0.180104	0.437569
C171	C	0.673543	-0.273471	-0.000182
C172	C	1.173543	0.226529	0.499818
H173	H	0.621815	-0.341148	-0.062416
H174	H	1.121815	0.158852	0.437584
H175	H	0.671256	-0.288391	-0.104654
H176	H	1.171256	0.211609	0.395346
H177	H	0.701173	-0.361643	-0.062430
H178	H	1.201173	0.138357	0.437570
H179	H	0.638744	-0.231721	-0.000185
H180	H	1.138744	0.268279	0.499815
H181	H	0.668651	-0.304977	0.042052
H182	H	1.168651	0.195023	0.542052
C183	C	0.345370	0.267794	0.126102
C184	C	0.845370	0.767794	0.626102
C185	C	0.395426	0.220536	0.088864
C186	C	0.895426	0.720536	0.588864
H187	H	0.367720	0.305332	0.154906
H188	H	0.867720	0.805332	0.654906
H189	H	0.315472	0.294434	0.091984
H190	H	0.815472	0.794434	0.591984
H191	H	0.318977	0.235663	0.156679
H192	H	0.818977	0.735663	0.656679
H193	H	0.421816	0.252665	0.058282
H194	H	0.921816	0.752665	0.558282
H195	H	0.425336	0.193894	0.122986
H196	H	0.925336	0.693894	0.622986
C197	C	0.879390	-0.056027	0.141132
C198	C	1.379390	0.443973	0.641132
C199	C	0.919068	-0.008059	0.184774
C200	C	1.419068	0.491941	0.684774
H201	H	0.909310	-0.092524	0.115378
H202	H	1.409310	0.407476	0.615378
H203	H	0.848817	-0.083877	0.170983
H204	H	1.348817	0.416123	0.670983
H205	H	0.853143	-0.024209	0.107429
H206	H	1.353143	0.475791	0.607429
H207	H	0.945311	-0.039877	0.218481
H208	H	1.445311	0.460123	0.718481
H209	H	0.949654	0.019793	0.154921
H210	H	1.449654	0.519793	0.654921
H211	H	0.906633	0.007429	0.804009
H212	H	1.406633	0.507429	1.304009
H213	H	0.722085	-0.640283	-0.000188
H214	H	1.222085	-0.140283	0.499812
H215	H	0.746014	0.201352	0.804071
H216	H	1.246014	0.701352	1.304071
C217	C	0.656755	-0.522328	-0.000170
C218	C	1.156755	-0.022328	0.499830
C219	C	0.715614	-0.477573	-0.000190
C220	C	1.215614	0.022427	0.499810
H221	H	0.616152	-0.488092	-0.000149
H222	H	1.116152	0.011908	0.499851
H223	H	0.657095	-0.554608	-0.042399
H224	H	1.157095	-0.054608	0.457601
H225	H	0.657096	-0.554627	0.042062
H226	H	1.157096	-0.054627	0.542062
H227	H	0.715276	-0.445278	-0.042425
H228	H	1.215276	0.054722	0.457575
H229	H	0.715274	-0.445279	0.042043
H230	H	1.215274	0.054721	0.542043
H231	H	0.623564	-0.020455	-0.000145
H232	H	1.123564	0.479545	0.499855
H233	H	0.906598	0.007424	0.333797
H234	H	1.406598	0.507424	0.833797
H235	H	0.029034	0.229226	-0.000270
H236	H	0.529034	0.729226	0.499730
H237	H	0.745953	0.201336	0.195567
H238	H	1.245953	0.701336	0.695567
H239	H	0.919927	-0.299272	-0.000232
H240	H	1.419927	0.200728	0.499768
H241	H	0.702829	-0.116209	-0.000186
H242	H	1.202829	0.383791	0.499814
H243	H	0.816954	0.233980	0.430633
H244	H	1.316954	0.733980	0.930633
H245	H	0.044686	-0.030021	-0.000308
H246	H	0.544686	0.469979	0.499692
C247	C	0.986244	-0.471314	-0.062505
C248	C	1.486244	0.028686	0.437495
C249	C	0.979049	-0.517752	-0.000253
C250	C	1.479049	-0.017752	0.499747
H251	H	1.030802	-0.450066	-0.062512
H252	H	1.530802	0.049934	0.437488
H253	H	0.981369	-0.502808	-0.104726
H254	H	1.481369	-0.002808	0.395274
H255	H	0.951445	-0.429564	-0.062487
H256	H	1.451445	0.070436	0.437513
H257	H	1.013845	-0.559505	-0.000273
H258	H	1.513845	-0.059505	0.499727
H259	H	0.983931	-0.486255	0.041979
H260	H	1.483931	0.013745	0.541979
C261	C	0.479731	0.300348	-0.062467
C262	C	0.979731	0.800348	0.437533
C263	C	0.464782	0.256804	-0.000209
C264	C	0.964782	0.756804	0.499791
H265	H	0.452190	0.348420	-0.062485
H266	H	0.952190	0.848420	0.437515
H267	H	0.527482	0.311377	-0.062449
H268	H	1.027482	0.811377	0.437551
H269	H	0.469646	0.270779	-0.104689
H270	H	0.969646	0.770779	0.395311
H271	H	0.474871	0.286370	0.042013
H272	H	0.974871	0.786370	0.542013
H273	H	0.417019	0.245777	-0.000220
H274	H	0.917019	0.745777	0.499780
C275	C	0.144458	-0.111523	-0.000252
C276	C	0.644458	0.388477	0.499748
C277	C	0.187809	-0.048033	-0.000241
C278	C	0.687809	0.451967	0.499759
H279	H	0.171992	-0.159600	-0.000251
H280	H	0.671992	0.340400	0.499749
H281	H	0.115974	-0.109023	0.041971
H282	H	0.615974	0.390977	0.541971
H283	H	0.116016	-0.109010	-0.042490
H284	H	0.616016	0.390990	0.457510
H285	H	0.216247	-0.050544	0.042000
H286	H	0.716247	0.449456	0.542000
H287	H	0.216305	-0.050535	-0.042467
H288	H	0.716305	0.449465	0.457533
H289	H	0.835633	-0.025201	0.430655
H290	H	1.335633	0.474799	0.930655
H291	H	0.835642	-0.025196	0.568947
H292	H	1.335642	0.474804	1.068947
H293	H	0.266564	0.004004	-0.077214
H294	H	0.766564	0.504004	0.422786
C295	C	0.365183	-0.058050	-0.126542
C296	C	0.865183	0.441950	0.373458
C297	C	0.409400	-0.009239	-0.089284
C298	C	0.909400	0.490761	0.410716
H299	H	0.392048	-0.094773	-0.155342
H300	H	0.892048	0.405227	0.344658
H301	H	0.338523	-0.085628	-0.092437
H302	H	0.838523	0.414372	0.407563
H303	H	0.335000	-0.026851	-0.157127
H304	H	0.835000	0.473149	0.342873
H305	H	0.439580	-0.040438	-0.058696
H306	H	0.939580	0.459562	0.441304
H307	H	0.436072	0.018341	-0.123394
H308	H	0.936072	0.518341	0.376606
C309	C	0.503088	-0.086127	-0.062427
C310	C	1.003088	0.413873	0.437573
C311	C	0.482908	-0.043157	-0.000183
C312	C	0.982908	0.456843	0.499817
H313	H	0.481416	-0.135021	-0.062428
H314	H	0.981416	0.364979	0.437572
H315	H	0.489453	-0.056966	-0.104653
H316	H	0.989453	0.443034	0.395347
H317	H	0.552083	-0.095545	-0.062406
H318	H	1.052083	0.404455	0.437594
H319	H	0.433913	-0.033734	-0.000206
H320	H	0.933913	0.466266	0.499794
H321	H	0.496539	-0.072324	0.042055
H322	H	0.996539	0.427676	0.542055
C323	C	0.958090	-0.054713	0.704388
C324	C	1.458090	0.445287	1.204388
C325	C	0.919238	-0.007800	0.654851
C326	C	1.419238	0.492200	1.154851
H327	H	0.988122	-0.090986	0.678513
H328	H	1.488122	0.409014	1.178513
H329	H	0.984882	-0.022153	0.734100
H330	H	1.484882	0.477847	1.234100
H331	H	0.927613	-0.082825	0.734139
H332	H	1.427613	0.417175	1.234139
H333	H	0.949715	0.020317	0.625104
H334	H	1.449715	0.520317	1.125104
H335	H	0.892444	-0.040364	0.625127
H336	H	1.392444	0.459636	1.125127
