data_functionalizedCrystal
_audit_creation_method	'MofGen! by Chris Wilmer'
_symmetry_space_group_name_H-M	'P1'
_symmetry_Int_Tables_number	1
_symmetry_cell_setting	triclinic
loop_
_symmetry_equiv_pos_as_xyz
  x,y,z
_cell_length_a	21.395362
_cell_length_b	25.639239
_cell_length_c	21.395355
_cell_angle_alpha	90.019334
_cell_angle_beta	90.043940
_cell_angle_gamma	90.054564
loop_
_atom_site_label
_atom_site_type_symbol
_atom_site_fract_x
_atom_site_fract_y
_atom_site_fract_z
Zn1	Zn	0.957825	-0.207990	0.354582
Zn2	Zn	1.207825	0.042010	0.604582
Zn3	Zn	1.457825	0.292010	0.854582
Zn4	Zn	1.707825	0.542010	1.104582
Zn5	Zn	0.957713	-0.295409	0.249803
Zn6	Zn	1.207713	-0.045409	0.499803
Zn7	Zn	1.457713	0.204591	0.749803
Zn8	Zn	1.707713	0.454591	0.999803
Zn9	Zn	0.853040	-0.208014	0.249783
Zn10	Zn	1.103040	0.041986	0.499783
Zn11	Zn	1.353040	0.291986	0.749783
Zn12	Zn	1.603040	0.541986	0.999783
Zn13	Zn	0.852994	-0.295420	0.354508
Zn14	Zn	1.102994	-0.045420	0.604508
Zn15	Zn	1.352994	0.204580	0.854508
Zn16	Zn	1.602994	0.454580	1.104508
O17	O	0.905393	-0.251708	0.302169
O18	O	1.155393	-0.001708	0.552169
O19	O	1.405393	0.248292	0.802169
O20	O	1.655393	0.498292	1.052169
O21	O	1.045488	-0.219571	0.340722
O22	O	1.295488	0.030429	0.590722
O23	O	1.545488	0.280429	0.840722
O24	O	1.795488	0.530429	1.090722
O25	O	0.943800	-0.283822	0.162122
O26	O	1.193800	-0.033822	0.412122
O27	O	1.443800	0.216178	0.662122
O28	O	1.693800	0.466178	0.912122
O29	O	0.867006	-0.134846	0.263708
O30	O	1.117006	0.115154	0.513708
O31	O	1.367006	0.365154	0.763708
O32	O	1.617006	0.615154	1.013708
O33	O	1.045405	-0.283798	0.263742
O34	O	1.295405	-0.033798	0.513742
O35	O	1.545405	0.216202	0.763742
O36	O	1.795405	0.466202	1.013742
O37	O	0.943991	-0.134828	0.340703
O38	O	1.193991	0.115172	0.590703
O39	O	1.443991	0.365172	0.840703
O40	O	1.693991	0.615172	1.090703
O41	O	0.866897	-0.219613	0.162108
O42	O	1.116897	0.030387	0.412108
O43	O	1.366897	0.280387	0.662108
O44	O	1.616897	0.530387	0.912108
O45	O	0.765356	-0.219623	0.263636
O46	O	1.015356	0.030377	0.513636
O47	O	1.265356	0.280377	0.763636
O48	O	1.515356	0.530377	1.013636
O49	O	0.866928	-0.283817	0.442196
O50	O	1.116928	-0.033817	0.692196
O51	O	1.366928	0.216183	0.942196
O52	O	1.616928	0.466183	1.192196
O53	O	0.765322	-0.283840	0.340576
O54	O	1.015322	-0.033840	0.590576
O55	O	1.265322	0.216160	0.840576
O56	O	1.515322	0.466160	1.090576
O57	O	0.943947	-0.219582	0.442250
O58	O	1.193947	0.030418	0.692250
O59	O	1.443947	0.280418	0.942250
O60	O	1.693947	0.530418	1.192250
O61	O	0.943756	-0.368576	0.263669
O62	O	1.193756	-0.118576	0.513669
O63	O	1.443756	0.131424	0.763669
O64	O	1.693756	0.381424	1.013669
O65	O	0.866820	-0.368584	0.340596
O66	O	1.116820	-0.118584	0.590596
O67	O	1.366820	0.131416	0.840596
O68	O	1.616820	0.381416	1.090596
C69	C	0.742605	-0.251736	0.302096
C70	C	0.992605	-0.001736	0.552096
C71	C	1.242605	0.248264	0.802096
C72	C	1.492605	0.498264	1.052096
C73	C	0.672964	-0.251760	0.302080
C74	C	0.922964	-0.001760	0.552080
C75	C	1.172964	0.248240	0.802080
C76	C	1.422964	0.498240	1.052080
C77	C	0.640250	-0.285243	0.342083
C78	C	0.890250	-0.035243	0.592083
C79	C	1.140250	0.214757	0.842083
C80	C	1.390250	0.464757	1.092083
C81	C	0.574814	-0.285230	0.342111
C82	C	0.824814	-0.035230	0.592111
C83	C	1.074814	0.214770	0.842111
C84	C	1.324814	0.464770	1.092111
C85	C	0.542096	-0.251740	0.302125
C86	C	0.792096	-0.001740	0.552125
C87	C	1.042096	0.248260	0.802125
C88	C	1.292096	0.498260	1.052125
C89	C	0.574818	-0.218252	0.262119
C90	C	0.824818	0.031748	0.512119
C91	C	1.074818	0.281748	0.762119
C92	C	1.324818	0.531748	1.012119
C93	C	0.640252	-0.218262	0.262097
C94	C	0.890252	0.031738	0.512097
C95	C	1.140252	0.281738	0.762097
C96	C	1.390252	0.531738	1.012097
C97	C	0.438372	-0.247528	0.245720
C98	C	0.688372	0.002472	0.495720
C99	C	0.938372	0.252472	0.745720
C100	C	1.188372	0.502472	0.995720
C101	C	0.372939	-0.247522	0.245741
C102	C	0.622939	0.002478	0.495741
C103	C	0.872939	0.252478	0.745741
C104	C	1.122939	0.502478	0.995741
C105	C	0.340275	-0.251706	0.302194
C106	C	0.590275	-0.001706	0.552194
C107	C	0.840275	0.248294	0.802194
C108	C	1.090275	0.498294	1.052194
C109	C	0.373052	-0.255908	0.358627
C110	C	0.623052	-0.005908	0.608627
C111	C	0.873052	0.244092	0.858627
C112	C	1.123052	0.494092	1.108627
C113	C	0.438486	-0.255918	0.358605
C114	C	0.688486	-0.005918	0.608605
C115	C	0.938486	0.244082	0.858605
C116	C	1.188486	0.494082	1.108605
C117	C	0.471143	-0.251725	0.302145
C118	C	0.721143	-0.001725	0.552145
C119	C	0.971143	0.248275	0.802145
C120	C	1.221143	0.498275	1.052145
C121	C	0.236608	-0.285176	0.342231
C122	C	0.486608	-0.035176	0.592231
C123	C	0.736608	0.214824	0.842231
C124	C	0.986608	0.464824	1.092231
C125	C	0.171172	-0.285160	0.342260
C126	C	0.421172	-0.035160	0.592260
C127	C	0.671172	0.214840	0.842260
C128	C	0.921172	0.464840	1.092260
C129	C	0.171176	-0.218185	0.262262
C130	C	0.421176	0.031815	0.512262
C131	C	0.671176	0.281815	0.762262
C132	C	0.921176	0.531815	1.012262
C133	C	0.236612	-0.218198	0.262239
C134	C	0.486612	0.031802	0.512239
C135	C	0.736612	0.281802	0.762239
C136	C	0.986612	0.531802	1.012239
C137	C	0.269324	-0.251697	0.302222
C138	C	0.519324	-0.001697	0.552222
C139	C	0.769324	0.248303	0.802222
C140	C	1.019324	0.498303	1.052222
C141	C	0.905288	-0.387551	0.302140
C142	C	1.155288	-0.137551	0.552140
C143	C	1.405288	0.112449	0.802140
C144	C	1.655288	0.362449	1.052140
C145	C	0.905300	-0.445665	0.302149
C146	C	1.155300	-0.195665	0.552149
C147	C	1.405300	0.054335	0.802149
C148	C	1.655300	0.304335	1.052149
C149	C	0.945558	-0.806011	0.262182
C150	C	1.195558	-0.556011	0.512182
C151	C	1.445558	-0.306011	0.762182
C152	C	1.695558	-0.056011	1.012182
C153	C	0.945582	-0.860616	0.262190
C154	C	1.195582	-0.610616	0.512190
C155	C	1.445582	-0.360616	0.762190
C156	C	1.695582	-0.110616	1.012190
O157	O	0.979702	-0.888838	0.228177
O158	O	1.229702	-0.638838	0.478177
O159	O	1.479702	-0.388838	0.728177
O160	O	1.729702	-0.138838	0.978177
N161	N	0.905503	-0.887947	0.302211
N162	N	1.155503	-0.637947	0.552211
N163	N	1.405503	-0.387947	0.802211
N164	N	1.655503	-0.137947	1.052211
C165	C	0.865401	-0.860672	0.342230
C166	C	1.115401	-0.610672	0.592230
C167	C	1.365401	-0.360672	0.842230
C168	C	1.615401	-0.110672	1.092230
O169	O	0.831313	-0.888934	0.376271
O170	O	1.081313	-0.638934	0.626271
O171	O	1.331313	-0.388934	0.876271
O172	O	1.581313	-0.138934	1.126271
C173	C	0.865381	-0.806069	0.342224
C174	C	1.115381	-0.556069	0.592224
C175	C	1.365381	-0.306069	0.842224
C176	C	1.615381	-0.056069	1.092224
C177	C	0.905458	-0.778740	0.302196
C178	C	1.155458	-0.528740	0.552196
C179	C	1.405458	-0.278740	0.802196
C180	C	1.655458	-0.028740	1.052196
C181	C	0.985633	-0.778682	0.222158
C182	C	1.235633	-0.528682	0.472158
C183	C	1.485633	-0.278682	0.722158
C184	C	1.735633	-0.028682	0.972158
C185	C	0.985608	-0.724082	0.222149
C186	C	1.235608	-0.474082	0.472149
C187	C	1.485608	-0.224082	0.722149
C188	C	1.735608	0.025918	0.972149
C189	C	0.945508	-0.696810	0.262164
C190	C	1.195508	-0.446810	0.512164
C191	C	1.445508	-0.196810	0.762164
C192	C	1.695508	0.053190	1.012164
C193	C	0.905433	-0.724139	0.302187
C194	C	1.155433	-0.474139	0.552187
C195	C	1.405433	-0.224139	0.802187
C196	C	1.655433	0.025861	1.052187
C197	C	0.825282	-0.778794	0.382246
C198	C	1.075282	-0.528794	0.632246
C199	C	1.325282	-0.278794	0.882246
C200	C	1.575282	-0.028794	1.132246
C201	C	0.825266	-0.724187	0.382237
C202	C	1.075266	-0.474187	0.632237
C203	C	1.325266	-0.224187	0.882237
C204	C	1.575266	0.025813	1.132237
C205	C	0.865343	-0.696858	0.342209
C206	C	1.115343	-0.446858	0.592209
C207	C	1.365343	-0.196858	0.842209
C208	C	1.615343	0.053142	1.092209
C209	C	0.865308	-0.642267	0.342193
C210	C	1.115308	-0.392267	0.592193
C211	C	1.365308	-0.142267	0.842193
C212	C	1.615308	0.107733	1.092193
N213	N	0.905387	-0.614935	0.302173
N214	N	1.155387	-0.364935	0.552173
N215	N	1.405387	-0.114935	0.802173
N216	N	1.655387	0.135065	1.052173
C217	C	0.945487	-0.642207	0.262158
C218	C	1.195487	-0.392207	0.512158
C219	C	1.445487	-0.142207	0.762158
C220	C	1.695487	0.107793	1.012158
C221	C	0.865448	-0.975343	0.342239
C222	C	1.115448	-0.725343	0.592239
C223	C	1.365448	-0.475343	0.842239
C224	C	1.615448	-0.225343	1.092239
C225	C	0.865465	-1.029945	0.342242
C226	C	1.115465	-0.779945	0.592242
C227	C	1.365465	-0.529945	0.842242
C228	C	1.615465	-0.279945	1.092242
C229	C	0.945648	-1.029885	0.262204
C230	C	1.195648	-0.779885	0.512204
C231	C	1.445648	-0.529885	0.762204
C232	C	1.695648	-0.279885	1.012204
C233	C	0.945627	-0.975281	0.262198
C234	C	1.195627	-0.725281	0.512198
C235	C	1.445627	-0.475281	0.762198
C236	C	1.695627	-0.225281	1.012198
C237	C	0.905528	-0.948011	0.302219
C238	C	1.155528	-0.698011	0.552219
C239	C	1.405528	-0.448011	0.802219
C240	C	1.655528	-0.198011	1.052219
C241	C	0.945430	-0.527542	0.262142
C242	C	1.195430	-0.277542	0.512142
C243	C	1.445430	-0.027542	0.762142
C244	C	1.695430	0.222458	1.012142
C245	C	0.945400	-0.472937	0.262134
C246	C	1.195400	-0.222937	0.512134
C247	C	1.445400	0.027063	0.762134
C248	C	1.695400	0.277063	1.012134
C249	C	0.865220	-0.473002	0.342175
C250	C	1.115220	-0.223002	0.592175
C251	C	1.365220	0.026998	0.842175
C252	C	1.615220	0.276998	1.092175
C253	C	0.865248	-0.527602	0.342180
C254	C	1.115248	-0.277602	0.592180
C255	C	1.365248	-0.027602	0.842180
C256	C	1.615248	0.222398	1.092180
C257	C	0.905358	-0.554871	0.302162
C258	C	1.155358	-0.304871	0.552162
C259	C	1.405358	-0.054871	0.802162
C260	C	1.655358	0.195129	1.052162
O261	O	0.831207	-0.614010	0.376190
O262	O	1.081207	-0.364010	0.626190
O263	O	1.331207	-0.114010	0.876190
O264	O	1.581207	0.135990	1.126190
O265	O	0.979575	-0.613939	0.228128
O266	O	1.229575	-0.363939	0.478128
O267	O	1.479575	-0.113939	0.728128
O268	O	1.729575	0.136061	0.978128
C269	C	1.068816	-0.251681	0.302242
C270	C	1.318816	-0.001681	0.552242
C271	C	1.568816	0.248319	0.802242
C272	C	1.818816	0.498319	1.052242
C273	C	1.138458	-0.251669	0.302274
C274	C	1.388458	-0.001669	0.552274
C275	C	1.638458	0.248331	0.802274
C276	C	1.888458	0.498331	1.052274
C277	C	0.905445	-0.251698	0.465592
C278	C	1.155445	-0.001698	0.715592
C279	C	1.405445	0.248302	0.965592
C280	C	1.655445	0.498302	1.215592
C281	C	0.905467	-0.251693	0.535234
C282	C	1.155467	-0.001693	0.785234
C283	C	1.405467	0.248307	1.035234
C284	C	1.655467	0.498307	1.285234
C285	C	0.905516	-0.115335	0.302212
C286	C	1.155516	0.134665	0.552212
C287	C	1.405516	0.384665	0.802212
C288	C	1.655516	0.634665	1.052212
C289	C	0.905568	-0.057221	0.302230
C290	C	1.155568	0.192779	0.552230
C291	C	1.405568	0.442779	0.802230
C292	C	1.655568	0.692779	1.052230
C293	C	0.905377	-0.251681	0.139381
C294	C	1.155377	-0.001681	0.389381
C295	C	1.405377	0.248319	0.639381
C296	C	1.655377	0.498319	0.889381
C297	C	0.905476	-0.251538	0.069741
C298	C	1.155476	-0.001538	0.319741
C299	C	1.405476	0.248462	0.569741
C300	C	1.655476	0.498462	0.819741
C301	C	0.945569	-0.218245	0.567976
C302	C	1.195569	0.031755	0.817976
C303	C	1.445569	0.281755	1.067976
C304	C	1.695569	0.531755	1.317976
C305	C	0.945568	-0.218222	0.633412
C306	C	1.195568	0.031778	0.883412
C307	C	1.445568	0.281778	1.133412
C308	C	1.695568	0.531778	1.383412
C309	C	0.905472	-0.251658	0.666102
C310	C	1.155472	-0.001658	0.916102
C311	C	1.405472	0.248342	1.166102
C312	C	1.655472	0.498342	1.416102
C313	C	0.865362	-0.285108	0.633352
C314	C	1.115362	-0.035108	0.883352
C315	C	1.365362	0.214892	1.133352
C316	C	1.615362	0.464892	1.383352
C317	C	0.865360	-0.285126	0.567917
C318	C	1.115360	-0.035126	0.817917
C319	C	1.365360	0.214874	1.067917
C320	C	1.615360	0.464874	1.317917
C321	C	0.900488	-0.298736	0.769765
C322	C	1.150488	-0.048736	1.019765
C323	C	1.400488	0.201264	1.269765
C324	C	1.650488	0.451264	1.519765
C325	C	0.900495	-0.298719	0.835198
C326	C	1.150495	-0.048719	1.085198
C327	C	1.400495	0.201281	1.335198
C328	C	1.650495	0.451281	1.585198
C329	C	0.905476	-0.251602	0.867923
C330	C	1.155476	-0.001602	1.117923
C331	C	1.405476	0.248398	1.367923
C332	C	1.655476	0.498398	1.617923
C333	C	0.910463	-0.204501	0.835207
C334	C	1.160463	0.045499	1.085207
C335	C	1.410463	0.295499	1.335207
C336	C	1.660463	0.545499	1.585207
C337	C	0.910461	-0.204519	0.769773
C338	C	1.160461	0.045481	1.019773
C339	C	1.410461	0.295481	1.269773
C340	C	1.660461	0.545481	1.519773
C341	C	0.905470	-0.251642	0.737054
C342	C	1.155470	-0.001642	0.987054
C343	C	1.405470	0.248358	1.237054
C344	C	1.655470	0.498358	1.487054
C345	C	0.945579	-0.218127	0.971618
C346	C	1.195579	0.031873	1.221618
C347	C	1.445579	0.281873	1.471618
C348	C	1.695579	0.531873	1.721618
C349	C	0.945574	-0.218103	1.037055
C350	C	1.195574	0.031897	1.287055
C351	C	1.445574	0.281897	1.537055
C352	C	1.695574	0.531897	1.787055
C353	C	0.865371	-0.284994	1.036993
C354	C	1.115371	-0.034994	1.286993
C355	C	1.365371	0.215006	1.536993
C356	C	1.615371	0.465006	1.786993
C357	C	0.865373	-0.285013	0.971558
C358	C	1.115373	-0.035013	1.221558
C359	C	1.365373	0.214987	1.471558
C360	C	1.615373	0.464987	1.721558
C361	C	0.905480	-0.251580	0.938874
C362	C	1.155480	-0.001580	1.188874
C363	C	1.405480	0.248420	1.438874
C364	C	1.655480	0.498420	1.688874
H365	H	0.666887	-0.190995	0.229521
H366	H	0.916887	0.059005	0.479521
H367	H	1.166887	0.309005	0.729521
H368	H	1.416887	0.559005	0.979521
H369	H	0.978036	-0.450687	0.229537
H370	H	1.228036	-0.200687	0.479537
H371	H	1.478036	0.049313	0.729537
H372	H	1.728036	0.299313	0.979537
H373	H	0.144537	-0.190914	0.229707
H374	H	0.394537	0.059086	0.479707
H375	H	0.644537	0.309086	0.729707
H376	H	0.894537	0.559086	0.979707
H377	H	0.346256	-0.244104	0.199789
H378	H	0.596256	0.005896	0.449789
H379	H	0.846256	0.255896	0.699789
H380	H	1.096256	0.505896	0.949789
Br381	Br	0.281013	-0.172756	0.207945
Br382	Br	0.531013	0.077244	0.457945
Br383	Br	0.781013	0.327244	0.707945
Br384	Br	1.031013	0.577244	0.957945
H385	H	0.263244	-0.312450	0.374791
H386	H	0.513244	-0.062450	0.624791
H387	H	0.763244	0.187550	0.874791
H388	H	1.013244	0.437550	1.124791
Br389	Br	0.530416	-0.172797	0.207856
Br390	Br	0.780416	0.077203	0.457856
Br391	Br	1.030416	0.327203	0.707856
Br392	Br	1.280416	0.577203	0.957856
H393	H	0.464961	-0.244119	0.199746
H394	H	0.714961	0.005881	0.449746
H395	H	0.964961	0.255881	0.699746
H396	H	1.214961	0.505881	0.949746
H397	H	0.914520	-0.166167	0.743138
H398	H	1.164520	0.083833	0.993138
H399	H	1.414520	0.333833	1.243138
H400	H	1.664520	0.583833	1.493138
H401	H	0.978093	-0.549738	0.229556
H402	H	1.228093	-0.299738	0.479556
H403	H	1.478093	-0.049738	0.729556
H404	H	1.728093	0.200262	0.979556
H405	H	1.018290	-0.800881	0.189573
H406	H	1.268290	-0.550881	0.439573
H407	H	1.518290	-0.300881	0.689573
H408	H	1.768290	-0.050881	0.939573
Br409	Br	0.999980	-0.172812	0.677858
Br410	Br	1.249980	0.077188	0.927858
Br411	Br	1.499980	0.327188	1.177858
Br412	Br	1.749980	0.577188	1.427858
Br413	Br	0.482968	-0.261618	0.435189
Br414	Br	0.732968	-0.011618	0.685189
Br415	Br	0.982968	0.238382	0.935189
Br416	Br	1.232968	0.488382	1.185189
Br417	Br	1.040011	-0.687001	0.167832
Br418	Br	1.290011	-0.437001	0.417832
Br419	Br	1.540011	-0.187001	0.667832
Br420	Br	1.790011	0.062999	0.917832
H421	H	0.144537	-0.312424	0.374839
H422	H	0.394537	-0.062424	0.624839
H423	H	0.644537	0.187576	0.874839
H424	H	0.894537	0.437576	1.124839
Br425	Br	0.893735	-0.362642	0.879592
Br426	Br	1.143735	-0.112642	1.129592
Br427	Br	1.393735	0.137358	1.379592
Br428	Br	1.643735	0.387358	1.629592
H429	H	0.978262	-0.953033	0.229605
H430	H	1.228262	-0.703033	0.479605
H431	H	1.478262	-0.453033	0.729605
H432	H	1.728262	-0.203033	0.979605
H433	H	0.832701	-0.312363	0.541259
H434	H	1.082701	-0.062363	0.791259
H435	H	1.332701	0.187637	1.041259
H436	H	1.582701	0.437637	1.291259
Br437	Br	1.000067	-1.066907	0.207895
Br438	Br	1.250067	-0.816907	0.457895
Br439	Br	1.500067	-0.566907	0.707895
Br440	Br	1.750067	-0.316907	0.957895
H441	H	0.832824	-1.052192	0.374831
H442	H	1.082824	-0.802192	0.624831
H443	H	1.332824	-0.552192	0.874831
H444	H	1.582824	-0.302192	1.124831
Br445	Br	0.811019	-0.938338	0.396555
Br446	Br	1.061019	-0.688338	0.646555
Br447	Br	1.311019	-0.438338	0.896555
Br448	Br	1.561019	-0.188338	1.146555
H449	H	0.832718	-0.312213	1.063609
H450	H	1.082718	-0.062213	1.313609
H451	H	1.332718	0.187787	1.563609
H452	H	1.582718	0.437787	1.813609
H453	H	0.792644	-0.801036	0.414837
H454	H	1.042644	-0.551036	0.664837
H455	H	1.292644	-0.301036	0.914837
H456	H	1.542644	-0.051036	1.164837
Br457	Br	0.770844	-0.687180	0.436557
Br458	Br	1.020844	-0.437180	0.686557
Br459	Br	1.270844	-0.187180	0.936557
Br460	Br	1.520844	0.062820	1.186557
H461	H	0.832616	-0.549855	0.374776
H462	H	1.082616	-0.299855	0.624776
H463	H	1.332616	-0.049855	0.874776
H464	H	1.582616	0.200145	1.124776
H465	H	0.346459	-0.259314	0.404597
H466	H	0.596459	-0.009314	0.654597
H467	H	0.846459	0.240686	0.904597
H468	H	1.096459	0.490686	1.154597
H469	H	0.978233	-0.190901	0.945006
H470	H	1.228233	0.059099	1.195006
H471	H	1.478233	0.309099	1.445006
H472	H	1.728233	0.559099	1.695006
H473	H	0.832569	-0.450789	0.374753
H474	H	1.082569	-0.200789	0.624753
H475	H	1.332569	0.049211	0.874753
H476	H	1.582569	0.299211	1.124753
H477	H	0.548173	-0.312495	0.374689
H478	H	0.798173	-0.062495	0.624689
H479	H	1.048173	0.187505	0.874689
H480	H	1.298173	0.437505	1.124689
Br481	Br	0.917228	-0.140552	0.879610
Br482	Br	1.167228	0.109448	1.129610
Br483	Br	1.417228	0.359448	1.379610
Br484	Br	1.667228	0.609448	1.629610
H485	H	0.978227	-0.191020	0.541369
H486	H	1.228227	0.058980	0.791369
H487	H	1.478227	0.308980	1.041369
H488	H	1.728227	0.558980	1.291369
Br489	Br	1.000012	-0.172713	1.081493
Br490	Br	1.250012	0.077287	1.331493
Br491	Br	1.500012	0.327287	1.581493
Br492	Br	1.750012	0.577287	1.831493
H493	H	0.896265	-0.337094	0.743126
H494	H	1.146265	-0.087094	0.993126
H495	H	1.396265	0.162906	1.243126
H496	H	1.646265	0.412906	1.493126
Br497	Br	0.810947	-0.330411	0.927118
Br498	Br	1.060947	-0.080411	1.177118
Br499	Br	1.310947	0.169589	1.427118
Br500	Br	1.560947	0.419589	1.677118
Br501	Br	0.810941	-0.330482	0.677715
Br502	Br	1.060941	-0.080482	0.927715
Br503	Br	1.310941	0.169518	1.177715
Br504	Br	1.560941	0.419518	1.427715
H505	H	0.666880	-0.312519	0.374642
H506	H	0.916880	-0.062519	0.624642
H507	H	1.166880	0.187481	0.874642
H508	H	1.416880	0.437481	1.124642
