data_functionalizedCrystal
_audit_creation_method	'MofGen! by Chris Wilmer'
_symmetry_space_group_name_H-M	'P1'
_symmetry_Int_Tables_number	1
_symmetry_cell_setting	triclinic
loop_
_symmetry_equiv_pos_as_xyz
  x,y,z
_cell_length_a	18.426585
_cell_length_b	14.560438
_cell_length_c	14.560438
_cell_angle_alpha	60.000069
_cell_angle_beta	89.999331
_cell_angle_gamma	60.001046
loop_
_atom_site_label
_atom_site_type_symbol
_atom_site_fract_x
_atom_site_fract_y
_atom_site_fract_z
Zr1	Zr	0.699112	1.005314	-0.120530
O2	O	0.583236	1.196911	-0.267171
O3	O	0.734634	0.813715	-0.075579
O4	O	0.734634	1.005319	-0.267180
O5	O	0.583236	1.005305	0.075571
O6	O	0.854060	1.005325	-0.267183
O7	O	0.583236	1.005307	-0.075570
O8	O	0.854060	0.662581	0.075555
O9	O	0.583236	1.348049	-0.267168
O10	O	0.838910	0.892528	-0.056408
O11	O	0.749784	0.892521	0.056390
O12	O	0.749784	1.118111	-0.169195
O13	O	0.660658	1.118104	-0.056398
Zr14	Zr	0.889583	1.005320	0.120516
Zr15	Zr	0.889583	1.005325	-0.120536
Zr16	Zr	0.699112	1.005310	0.120522
Zr17	Zr	0.699112	1.246362	-0.120525
Zr18	Zr	0.889583	0.764273	0.120512
O19	O	0.854061	1.196920	0.075565
O20	O	0.854060	1.196926	-0.267180
O21	O	0.583236	1.196905	0.075574
O22	O	1.005459	0.813723	0.267158
O23	O	1.005459	0.813729	-0.075588
O24	O	0.734635	0.813709	0.267166
O25	O	1.005459	1.005330	-0.075584
O26	O	0.854061	1.005316	0.267166
O27	O	0.734635	1.005309	0.267170
O28	O	1.005459	1.005327	0.075557
O29	O	0.734635	1.348058	-0.267173
O30	O	0.854060	0.662577	0.267160
O31	O	1.005459	0.662585	0.267155
O32	O	1.005459	0.662589	0.075551
O33	O	0.583236	1.348046	-0.075564
O34	O	0.734635	1.348054	-0.075569
O35	O	0.838911	0.892524	0.169182
O36	O	0.928037	0.892531	0.056384
O37	O	0.838911	1.118113	-0.056403
O38	O	0.749785	1.118107	0.056394
C39	C	0.794347	0.703804	-0.000012
C40	C	0.794347	0.601473	-0.000014
C41	C	0.840868	0.553400	-0.058894
C42	C	0.840871	0.457241	-0.058883
C43	C	0.747826	0.457239	0.058888
C44	C	0.747828	0.553390	0.058883
C45	C	0.556098	1.005305	0.000001
C46	C	0.475238	1.005300	0.000004
C47	C	0.179123	1.005339	-0.000016
C48	C	0.261509	1.005334	-0.000014
C49	C	0.327178	1.005320	-0.000007
C50	C	0.409570	1.005314	-0.000003
C51	C	1.032597	1.005330	-0.000014
C52	C	1.113457	1.005334	-0.000017
C53	C	0.794347	1.005323	-0.301526
C54	C	0.794347	1.005325	-0.403859
C55	C	0.794348	1.306831	-0.000001
C56	C	0.794348	1.409162	0.000001
C57	C	0.860140	1.005329	-0.451937
C58	C	0.860142	1.005317	-0.548083
C59	C	0.728552	1.005302	-0.548067
C60	C	0.728554	1.005304	-0.451919
C61	C	0.794348	1.005312	0.301513
C62	C	0.794348	1.005310	0.403846
C63	C	1.032597	0.703816	-0.000020
C64	C	1.113456	0.601490	-0.000025
C65	C	0.794347	0.703798	0.301507
C66	C	0.794347	0.601465	0.403838
C67	C	1.032597	0.703811	0.301500
C68	C	1.113457	0.601482	0.403828
C69	C	0.556098	1.306824	-0.301513
C70	C	0.475238	1.409152	-0.403841
C71	C	0.556098	1.306818	0.000007
C72	C	0.475239	1.409145	0.000011
C73	C	0.794348	1.306836	-0.301521
C74	C	0.794348	1.409169	-0.403852
C75	C	1.104906	0.553434	-0.058913
C76	C	1.180875	0.457301	-0.058940
C77	C	1.265393	0.409218	-0.000071
C78	C	1.273942	0.457283	0.058819
C79	C	1.197974	0.553421	0.058839
C80	C	1.197960	0.553431	0.393003
C81	C	1.273944	0.457296	0.489143
C82	C	1.265422	0.409207	0.596105
C83	C	1.180909	0.457268	0.606928
C84	C	1.104928	0.553408	0.510790
C85	C	0.390735	1.457215	-0.393017
C86	C	0.314751	1.553380	-0.489156
C87	C	0.323273	1.601474	-0.596119
C88	C	0.407786	1.553407	-0.606941
C89	C	0.483767	1.457251	-0.510803
C90	C	0.483789	1.457210	0.058890
C91	C	0.407820	1.553370	0.058890
C92	C	0.323302	1.601457	0.000017
C93	C	0.314753	1.553388	-0.058868
C94	C	0.390721	1.457236	-0.058874
C95	C	0.840870	0.553389	0.510790
C96	C	0.840859	0.457245	0.606937
C97	C	0.747804	0.457260	0.489167
C98	C	0.747809	0.553408	0.393023
H99	H	0.709951	0.418079	0.106838
H100	H	0.414798	1.592492	0.106846
H101	H	0.261451	1.679750	0.000032
Br102	Br	0.684649	0.392032	0.474498
Br103	Br	0.990247	0.618603	0.525501
H104	H	0.913713	1.005343	-0.412808
Br105	Br	0.200042	1.618659	-0.138758
H106	H	1.173984	0.418100	0.694030
H107	H	0.414714	1.592578	-0.694042
Br108	Br	0.949439	1.005315	-0.613326
H109	H	0.245945	1.592499	-0.480322
Br110	Br	0.379101	1.392010	-0.138783
Br111	Br	0.684658	0.618673	0.247862
Br112	Br	0.904028	0.618608	0.525470
H113	H	0.674977	1.005296	-0.412769
H114	H	0.878748	0.592545	-0.106849
Br115	Br	0.903994	0.392009	0.752086
H116	H	0.383779	1.418062	-0.305931
Br117	Br	0.684698	0.618624	0.138809
Br118	Br	1.368550	0.278730	0.726569
Br119	Br	0.220145	1.731974	-0.726583
H120	H	1.342767	0.418119	0.106748
H121	H	0.674983	1.005288	-0.587208
Br122	Br	0.598484	1.391975	0.138794
H123	H	0.878754	0.418101	-0.106826
Br124	Br	0.990211	0.618672	-0.138820
H125	H	1.327244	0.330935	-0.000095
Br126	Br	1.209550	0.618681	0.247852
Br127	Br	0.598448	1.392028	-0.525514
H128	H	1.173897	0.418178	-0.106895
H129	H	1.204948	0.592535	0.106799
H130	H	1.342750	0.418175	0.480311
