data_functionalizedCrystal
_audit_creation_method	'MofGen! by Chris Wilmer'
_symmetry_space_group_name_H-M	'P1'
_symmetry_Int_Tables_number	1
_symmetry_cell_setting	triclinic
loop_
_symmetry_equiv_pos_as_xyz
  x,y,z
_cell_length_a	10.967926
_cell_length_b	11.792254
_cell_length_c	10.268362
_cell_angle_alpha	89.994755
_cell_angle_beta	102.123988
_cell_angle_gamma	84.460570
loop_
_atom_site_label
_atom_site_type_symbol
_atom_site_fract_x
_atom_site_fract_y
_atom_site_fract_z
O1	O	1.656737	0.159179	0.263524
O2	O	2.156737	0.659179	0.763524
O3	O	1.293554	0.174420	0.182011
O4	O	1.793554	0.674420	0.682011
O5	O	1.483950	0.001649	0.224753
O6	O	1.983950	0.501649	0.724753
O7	O	1.466340	0.331950	0.220782
O8	O	1.966340	0.831950	0.720782
O9	O	1.483931	0.001643	0.441349
O10	O	1.983931	0.501643	0.941349
O11	O	1.293534	0.174414	0.398608
O12	O	1.793534	0.674414	0.898608
O13	O	1.656718	0.159173	0.480120
O14	O	2.156718	0.659173	0.980120
Cu15	Cu	1.475124	0.166793	0.459141
Cu16	Cu	1.975124	0.666793	0.959141
Cu17	Cu	1.475147	0.166800	0.202991
Cu18	Cu	1.975147	0.666800	0.702991
O19	O	1.466321	0.331944	0.437379
O20	O	1.966321	0.831944	0.937379
C21	C	1.247048	0.173308	0.279874
C22	C	1.747048	0.673308	0.779874
C23	C	1.108506	0.169992	0.248780
C24	C	1.608506	0.669992	0.748780
C25	C	1.046729	0.168510	0.347120
C26	C	1.546729	0.668510	0.847120
C27	C	0.903539	0.165082	0.314986
C28	C	1.403539	0.665082	0.814986
C29	C	1.482832	-0.040647	0.332802
C30	C	1.982832	0.459353	0.832802
C31	C	1.479511	-0.166667	0.332055
C32	C	1.979511	0.333333	0.832055
C33	C	1.476813	-0.269010	0.331445
C34	C	1.976813	0.230990	0.831445
C35	C	1.473440	-0.397404	0.330676
C36	C	1.973440	0.102596	0.830676
C37	C	1.703223	0.160284	0.382255
C38	C	2.203223	0.660284	0.882255
C39	C	1.841765	0.163601	0.413340
C40	C	2.341765	0.663601	0.913340
C41	C	1.467440	0.374240	0.329327
C42	C	1.967440	0.874240	0.829327
C43	C	1.470760	0.500260	0.330065
C44	C	1.970760	1.000260	0.830065
N45	N	1.475117	0.166787	0.639305
N46	N	1.975117	0.666787	1.139305
C47	C	1.475132	0.166801	0.904979
C48	C	1.975132	0.666801	1.404979
C49	C	1.475120	0.166796	0.757139
C50	C	1.975120	0.666796	1.257139
N51	N	1.475152	0.166801	1.022826
N52	N	1.975152	0.666801	1.522826
H53	H	0.850425	0.163811	0.206995
H54	H	1.350425	0.663811	0.706995
O55	O	1.110062	0.169818	0.475974
O56	O	1.610062	0.669818	0.975974
C57	C	1.091771	0.070942	0.543762
C58	C	1.591771	0.570942	1.043762
H59	H	1.065311	0.001500	0.468791
H60	H	1.565311	0.501500	0.968791
H61	H	1.181959	0.040050	0.617444
H62	H	1.681959	0.540050	1.117444
H63	H	1.013255	0.091321	0.599866
H64	H	1.513255	0.591321	1.099866
O65	O	0.905087	0.164911	0.542204
O66	O	1.405087	0.664911	1.042204
C67	C	0.886791	0.066036	0.609990
C68	C	1.386791	0.566036	1.109990
H69	H	0.860339	-0.003408	0.535019
H70	H	1.360339	0.496592	1.035019
H71	H	0.976974	0.035146	0.683680
H72	H	1.476974	0.535146	1.183680
H73	H	0.808268	0.086415	0.666085
H74	H	1.308268	0.586415	1.166085
H75	H	1.055388	0.168720	0.140797
H76	H	1.555388	0.668720	0.640797
