data_functionalizedCrystal
_audit_creation_method	'MofGen! by Chris Wilmer'
_symmetry_space_group_name_H-M	'P1'
_symmetry_Int_Tables_number	1
_symmetry_cell_setting	triclinic
loop_
_symmetry_equiv_pos_as_xyz
  x,y,z
_cell_length_a	21.295417
_cell_length_b	10.686220
_cell_length_c	10.686551
_cell_angle_alpha	90.308082
_cell_angle_beta	94.412210
_cell_angle_gamma	85.587318
loop_
_atom_site_label
_atom_site_type_symbol
_atom_site_fract_x
_atom_site_fract_y
_atom_site_fract_z
Zn1	Zn	-0.153473	-1.972201	0.562351
Zn2	Zn	-0.267413	-1.955908	0.352566
Zn3	Zn	-0.169576	-1.746311	0.368665
Zn4	Zn	-0.266137	-1.762339	0.578344
O5	O	-0.214150	-1.859190	0.465482
O6	O	-0.162382	-2.145585	0.521092
O7	O	-0.261708	-1.914578	0.179155
O8	O	-0.079345	-1.776387	0.394402
O9	O	-0.246093	-2.133615	0.366964
O10	O	-0.067514	-1.942347	0.536702
O11	O	-0.189828	-1.760588	0.190982
O12	O	-0.188591	-1.572892	0.409910
O13	O	-0.243919	-1.803704	0.751770
O14	O	-0.259534	-1.584668	0.563960
O15	O	-0.161145	-1.957889	0.740020
O16	O	-0.355339	-1.930120	0.382472
O17	O	-0.354402	-1.787905	0.548351
C18	C	-0.225672	-1.533263	0.490418
C19	C	-0.230615	-1.393832	0.501116
C20	C	-0.377710	-1.859020	0.465425
C21	C	-0.447676	-1.859065	0.465434
C22	C	-0.200593	-1.884402	0.792685
C23	C	-0.194816	-1.895146	0.932120
C24	C	-0.481004	-1.933194	0.379138
C25	C	-0.546743	-1.933255	0.379161
C26	C	-0.579154	-1.859164	0.465470
C27	C	-0.545817	-1.785031	0.551782
C28	C	-0.480079	-1.784982	0.551764
N29	N	-0.685908	-1.750160	0.483429
N30	N	-0.748357	-1.750210	0.483439
C31	C	-0.777220	-1.859310	0.465531
N32	N	-0.741276	-1.968359	0.447588
N33	N	-0.678822	-1.968308	0.447572
C34	C	-0.650436	-1.859210	0.465499
C35	C	-0.881830	-1.933511	0.379256
C36	C	-0.947570	-1.933575	0.379288
C37	C	-0.946643	-1.785339	0.551903
C38	C	-0.880904	-1.785287	0.551876
C39	C	-0.848502	-1.859371	0.465546
C40	C	-0.049948	-1.859397	0.465564
C41	C	0.020024	-1.859485	0.465599
C42	C	-0.202583	-2.186390	0.440448
C43	C	-0.197654	-2.325823	0.429781
C44	C	-0.227606	-1.834148	0.139546
C45	C	-0.233197	-1.823647	0.000093
H46	H	-0.573884	-1.993624	0.308889
H47	H	-0.165655	-1.374266	0.360523
C48	C	-0.283560	-1.729841	0.934615
C49	C	-0.354032	-1.741350	0.951690
C50	C	-0.404397	-1.647543	0.886203
C51	C	-0.384289	-1.542226	0.803640
C52	C	-0.313814	-1.530713	0.786561
C53	C	-0.263450	-1.624520	0.852049
H54	H	-0.368920	-1.819316	1.012811
H55	H	-0.456567	-1.656066	0.898846
H56	H	-0.421572	-1.472785	0.755163
H57	H	-0.298926	-1.452748	0.725440
H58	H	-0.211279	-1.615997	0.839405
C59	C	-0.273852	-1.328393	0.594683
C60	C	-0.328652	-1.234035	0.546979
C61	C	-0.371888	-1.168596	0.640544
C62	C	-0.360325	-1.197514	0.781813
C63	C	-0.305522	-1.291876	0.829525
C64	C	-0.262286	-1.357315	0.735960
H65	H	-0.337214	-1.212624	0.442396
H66	H	-0.412457	-1.098743	0.605224
H67	H	-0.392331	-1.149073	0.851076
H68	H	-0.296960	-1.313287	0.934107
H69	H	-0.221717	-1.427168	0.771280
C70	C	-0.144450	-1.988957	0.997603
C71	C	-0.138545	-1.999941	1.141719
C72	C	-0.088180	-2.093750	1.207202
C73	C	-0.043720	-2.176574	1.128569
C74	C	-0.049623	-2.165593	0.984445
C75	C	-0.099988	-2.071784	0.918962
H76	H	-0.171458	-1.938627	1.199935
H77	H	-0.083810	-2.101879	1.313893
H78	H	-0.006436	-2.246017	1.177044
H79	H	-0.016710	-2.226907	0.926229
H80	H	-0.104358	-2.063655	0.812271
C81	C	-0.982285	-1.703833	0.646844
C82	C	-1.033274	-1.601227	0.599951
C83	C	-1.068918	-1.519721	0.694899
C84	C	-1.053573	-1.540822	0.836741
C85	C	-1.002581	-1.643433	0.883641
C86	C	-0.966938	-1.724939	0.788693
H87	H	-1.044635	-1.585603	0.494945
H88	H	-1.106665	-1.443761	0.660180
H89	H	-1.079959	-1.480486	0.907027
H90	H	-0.991220	-1.659057	0.988647
H91	H	-0.929190	-1.800898	0.823413
H92	H	-0.454624	-1.993521	0.308846
C93	C	-0.846181	-2.015019	0.284314
C94	C	-0.773871	-2.014966	0.284287
C95	C	-0.738223	-2.096479	0.189349
C96	C	-0.774886	-2.178044	0.094439
C97	C	-0.847199	-2.178101	0.094462
C98	C	-0.882847	-2.096588	0.189400
H99	H	-0.746728	-1.954584	0.354549
H100	H	-0.684692	-2.096437	0.189332
H101	H	-0.748497	-2.238385	0.024160
H102	H	-0.874342	-2.238483	0.024201
H103	H	-0.936378	-2.096630	0.189417
C104	C	-0.581466	-1.703529	0.646721
C105	C	-0.632454	-1.600920	0.599828
C106	C	-0.668101	-1.519421	0.694776
C107	C	-0.652761	-1.540531	0.836618
C108	C	-0.601771	-1.643145	0.883518
C109	C	-0.566123	-1.724644	0.788570
H110	H	-0.643811	-1.585289	0.494822
H111	H	-0.705847	-1.443460	0.660056
H112	H	-0.679150	-1.480201	0.906904
H113	H	-0.590413	-1.658776	0.988524
H114	H	-0.528377	-1.800605	0.823289
H115	H	-0.452942	-1.724616	0.622038
H116	H	-0.853767	-1.724919	0.622141
H117	H	-0.974704	-1.993947	0.309017
