data_functionalizedCrystal
_audit_creation_method	'MofGen! by Chris Wilmer'
_symmetry_space_group_name_H-M	'P1'
_symmetry_Int_Tables_number	1
_symmetry_cell_setting	triclinic
loop_
_symmetry_equiv_pos_as_xyz
  x,y,z
_cell_length_a	16.992694
_cell_length_b	16.992695
_cell_length_c	15.455313
_cell_angle_alpha	92.847427
_cell_angle_beta	87.142206
_cell_angle_gamma	90.668223
loop_
_atom_site_label
_atom_site_type_symbol
_atom_site_fract_x
_atom_site_fract_y
_atom_site_fract_z
O1	O	1.054080	0.163694	-0.072023
O2	O	1.554080	0.663694	0.427977
O3	O	0.825681	0.161862	-0.072048
O4	O	1.325681	0.661862	0.427952
O5	O	0.938965	0.048579	-0.072029
O6	O	1.438965	0.548579	0.427971
O7	O	0.940797	0.276978	-0.072042
O8	O	1.440797	0.776978	0.427958
O9	O	0.932485	0.055028	0.072232
O10	O	1.432485	0.555028	0.572232
O11	O	0.819202	0.168312	0.072213
O12	O	1.319202	0.668312	0.572213
O13	O	1.047601	0.170144	0.072238
O14	O	1.547601	0.670144	0.572238
Cu15	Cu	0.932809	0.169817	0.085398
Cu16	Cu	1.432809	0.669817	0.585398
Cu17	Cu	0.940473	0.162189	-0.085207
Cu18	Cu	1.440473	0.662189	0.414793
O19	O	0.934317	0.283428	0.072219
O20	O	1.434317	0.783428	0.572219
C21	C	0.793081	0.162731	0.000079
C22	C	1.293081	0.662731	0.500079
C23	C	0.705597	0.155702	0.000070
C24	C	1.205597	0.655702	0.500070
C25	C	0.933369	0.022443	0.000102
C26	C	1.433369	0.522443	0.500102
C27	C	0.926341	-0.065041	0.000101
C28	C	1.426341	0.434959	0.500101
C29	C	0.659607	0.223520	0.000066
C30	C	1.159607	0.723520	0.500066
C31	C	0.577405	0.216911	0.000079
C32	C	1.077405	0.716911	0.500079
C33	C	0.541197	0.142484	0.000088
C34	C	1.041197	0.642484	0.500088
C35	C	0.587193	0.074661	0.000094
C36	C	1.087193	0.574661	0.500094
C37	C	0.669393	0.081271	0.000088
C38	C	1.169393	0.581271	0.500088
C39	C	0.295881	0.115091	0.000113
C40	C	0.795881	0.615091	0.500113
C41	C	0.213676	0.108486	0.000116
C42	C	0.713676	0.608486	0.500116
C43	C	0.203893	0.250737	0.000103
C44	C	0.703893	0.750737	0.500103
C45	C	0.286095	0.257340	0.000091
C46	C	0.786095	0.757340	0.500091
C47	C	0.332084	0.189517	0.000102
C48	C	0.832084	0.689517	0.500102
N49	N	0.457174	0.135727	0.000098
N50	N	0.957174	0.635727	0.500098
N51	N	0.416105	0.196275	0.000098
N52	N	0.916105	0.696275	0.500098
C53	C	0.994158	-0.111032	0.000109
C54	C	1.494158	0.388968	0.500109
C55	C	0.987550	-0.193233	0.000100
C56	C	1.487550	0.306767	0.500100
C57	C	0.913123	-0.229442	0.000089
C58	C	1.413123	0.270558	0.500089
C59	C	0.845300	-0.183445	0.000078
C60	C	1.345300	0.316555	0.500078
C61	C	0.851910	-0.101246	0.000081
C62	C	1.351910	0.398754	0.500081
C63	C	0.885729	-0.474757	0.000074
C64	C	1.385729	0.025243	0.500074
C65	C	0.879124	-0.556962	0.000074
C66	C	1.379124	-0.056962	0.500074
C67	C	1.021375	-0.566744	0.000094
C68	C	1.521375	-0.066744	0.500094
C69	C	1.027977	-0.484543	0.000102
C70	C	1.527977	0.015457	0.500102
C71	C	0.960155	-0.438554	0.000087
C72	C	1.460155	0.061446	0.500087
N73	N	0.906366	-0.313464	0.000082
N74	N	1.406366	0.186536	0.500082
N75	N	0.966913	-0.354533	0.000087
N76	N	1.466913	0.145467	0.500087
C77	C	1.080201	0.169275	0.000109
C78	C	1.580201	0.669275	0.500109
C79	C	1.167685	0.176304	0.000113
C80	C	1.667685	0.676304	0.500113
C81	C	0.939913	0.309563	0.000087
C82	C	1.439913	0.809563	0.500087
C83	C	0.946942	0.397047	0.000082
C84	C	1.446942	0.897047	0.500082
N85	N	0.927425	0.175181	0.205392
N86	N	1.427425	0.675181	0.705392
N87	N	0.945863	0.156819	-0.205202
N88	N	1.445863	0.656819	0.294798
C89	C	0.975571	0.127074	0.250795
C90	C	1.475571	0.627074	0.750795
C91	C	0.971507	0.131139	0.341602
C92	C	1.471507	0.631139	0.841602
C93	C	0.919301	0.183315	0.387005
C94	C	1.419301	0.683315	0.887005
C95	C	0.871149	0.231424	0.341596
C96	C	1.371149	0.731424	0.841596
C97	C	0.875210	0.227355	0.250791
C98	C	1.375210	0.727355	0.750791
C99	C	0.901772	0.200858	0.658584
C100	C	1.401772	0.700858	1.158584
C101	C	0.897717	0.204926	0.749395
C102	C	1.397717	0.704926	1.249395
C103	C	0.998074	0.104639	0.749395
C104	C	1.498074	0.604639	1.249395
C105	C	1.002133	0.100578	0.658588
C106	C	1.502133	0.600578	1.158588
C107	C	0.953979	0.148684	0.613187
C108	C	1.453979	0.648684	1.113187
N109	N	0.915147	0.187473	0.479825
N110	N	1.415147	0.687473	0.979825
N111	N	0.958129	0.144522	0.520369
N112	N	1.458129	0.644522	1.020369
H113	H	0.689081	0.284126	0.000058
H114	H	1.189081	0.784126	0.500058
H115	H	1.054764	-0.081557	0.000124
H116	H	1.554764	0.418443	0.500124
Br117	Br	1.063421	0.039355	0.811013
Br118	Br	1.563421	0.539355	1.311013
Br119	Br	1.113414	-0.629162	0.000116
Br120	Br	1.613414	-0.129162	0.500116
Br121	Br	0.164535	0.007472	0.000148
Br122	Br	0.664535	0.507472	0.500148
Br123	Br	1.072988	0.029771	0.596968
Br124	Br	1.572988	0.529771	1.096968
H125	H	1.018087	0.084591	0.213834
H126	H	1.518087	0.584591	0.713834
H127	H	0.315570	0.317946	0.000074
H128	H	0.815570	0.817946	0.500074
Br129	Br	0.759868	-0.038829	0.000062
Br130	Br	1.259868	0.461171	0.500062
H131	H	0.539963	0.272136	0.000075
H132	H	1.039963	0.772136	0.500075
H133	H	0.828638	0.273904	0.378569
H134	H	1.328638	0.773904	0.878569
H135	H	0.818513	-0.586440	0.000079
H136	H	1.318513	-0.086440	0.500079
H137	H	1.010711	0.091966	0.378568
H138	H	1.510711	0.591966	0.878568
Br139	Br	0.793683	-0.412354	0.000047
Br140	Br	1.293683	0.087646	0.500047
Br141	Br	0.809861	0.292640	0.189173
Br142	Br	1.309861	0.792640	0.689173
Br143	Br	0.358285	0.023045	0.000129
Br144	Br	0.858285	0.523045	0.500129
Br145	Br	0.826862	0.275746	0.811009
Br146	Br	1.326862	0.775746	1.311009
H147	H	1.042774	-0.230675	0.000109
H148	H	1.542774	0.269325	0.500109
Br149	Br	0.744291	-0.232586	0.000048
Br150	Br	1.244291	0.267414	0.500048
Br151	Br	1.128991	-0.435409	0.000090
Br152	Br	1.628991	0.064591	0.500090
Br153	Br	0.538054	-0.026348	0.000116
Br154	Br	1.038054	0.473652	0.500116
H155	H	0.166440	0.305954	0.000096
H156	H	0.666440	0.805954	0.500096
Br157	Br	0.836424	0.266144	0.596973
Br158	Br	1.336424	0.766144	1.096973
H159	H	0.706838	0.026046	0.000090
H160	H	1.206838	0.526046	0.500090
