data_functionalizedCrystal
_audit_creation_method	'MofGen! by Chris Wilmer'
_symmetry_space_group_name_H-M	'P1'
_symmetry_Int_Tables_number	1
_symmetry_cell_setting	triclinic
loop_
_symmetry_equiv_pos_as_xyz
  x,y,z
_cell_length_a	17.077404
_cell_length_b	19.805405
_cell_length_c	17.077395
_cell_angle_alpha	89.969610
_cell_angle_beta	89.984359
_cell_angle_gamma	90.026635
loop_
_atom_site_label
_atom_site_type_symbol
_atom_site_fract_x
_atom_site_fract_y
_atom_site_fract_z
Zn1	Zn	1.200005	-0.269468	-0.443825
Zn2	Zn	1.533339	0.063866	-0.110492
Zn3	Zn	1.866672	0.397199	0.222841
Zn4	Zn	1.199913	-0.382658	-0.312552
Zn5	Zn	1.533247	-0.049325	0.020781
Zn6	Zn	1.866580	0.284009	0.354115
Zn7	Zn	1.068746	-0.269489	-0.312573
Zn8	Zn	1.402079	0.063845	0.020760
Zn9	Zn	1.735413	0.397178	0.354093
Zn10	Zn	1.068697	-0.382620	-0.443776
Zn11	Zn	1.402031	-0.049287	-0.110442
Zn12	Zn	1.735364	0.284046	0.222891
O13	O	1.134341	-0.326059	-0.378182
O14	O	1.467674	0.007275	-0.044848
O15	O	1.801007	0.340608	0.288485
O16	O	1.309840	-0.284489	-0.426424
O17	O	1.643174	0.048844	-0.093090
O18	O	1.976507	0.382177	0.240243
O19	O	1.182496	-0.367671	-0.202708
O20	O	1.515829	-0.034337	0.130625
O21	O	1.849162	0.298996	0.463959
O22	O	1.086217	-0.174769	-0.330014
O23	O	1.419550	0.158564	0.003319
O24	O	1.752884	0.491897	0.336653
O25	O	1.309772	-0.367650	-0.329978
O26	O	1.643106	-0.034317	0.003356
O27	O	1.976439	0.299017	0.336689
O28	O	1.182653	-0.174754	-0.426444
O29	O	1.515986	0.158580	-0.093111
O30	O	1.849319	0.491913	0.240222
O31	O	1.086128	-0.284526	-0.202724
O32	O	1.419461	0.048808	0.130610
O33	O	1.752794	0.382141	0.463943
O34	O	0.958893	-0.284489	-0.329966
O35	O	1.292226	0.048844	0.003368
O36	O	1.625559	0.382178	0.336701
O37	O	1.086134	-0.367586	-0.553629
O38	O	1.419467	-0.034252	-0.220296
O39	O	1.752800	0.299081	0.113037
O40	O	0.958857	-0.367606	-0.426360
O41	O	1.292190	-0.034273	-0.093026
O42	O	1.625523	0.299060	0.240307
O43	O	1.182605	-0.284453	-0.553666
O44	O	1.515939	0.048880	-0.220332
O45	O	1.849272	0.382214	0.113001
O46	O	1.182448	-0.477370	-0.329930
O47	O	1.515782	-0.144036	0.003404
O48	O	1.849115	0.189297	0.336737
O49	O	1.086044	-0.477342	-0.426339
O50	O	1.419378	-0.144009	-0.093006
O51	O	1.752711	0.189325	0.240328
C52	C	0.930393	-0.326046	-0.378160
C53	C	1.263726	0.007287	-0.044827
C54	C	1.597059	0.340620	0.288507
C55	C	0.843143	-0.326057	-0.378169
C56	C	1.176476	0.007276	-0.044836
C57	C	1.509810	0.340609	0.288497
C58	C	0.802155	-0.369402	-0.428281
C59	C	1.135488	-0.036069	-0.094948
C60	C	1.468821	0.297265	0.238386
C61	C	0.720174	-0.369403	-0.428294
C62	C	1.053507	-0.036070	-0.094960
C63	C	1.386841	0.297263	0.238373
C64	C	0.679183	-0.326063	-0.378190
C65	C	1.012517	0.007270	-0.044857
C66	C	1.345850	0.340603	0.288477
C67	C	0.720178	-0.282714	-0.328076
C68	C	1.053511	0.050619	0.005257
C69	C	1.386844	0.383953	0.338591
C70	C	0.802157	-0.282710	-0.328068
C71	C	1.135490	0.050624	0.005265
C72	C	1.468823	0.383957	0.338599
C73	C	0.549308	-0.282727	-0.328095
C74	C	0.882641	0.050606	0.005238
C75	C	1.215974	0.383939	0.338572
C76	C	0.467323	-0.282732	-0.328102
C77	C	0.800656	0.050601	0.005232
C78	C	1.133990	0.383934	0.338565
C79	C	0.467325	-0.369421	-0.428321
C80	C	0.800658	-0.036088	-0.094987
C81	C	1.133992	0.297246	0.238346
C82	C	0.549304	-0.369417	-0.428313
C83	C	0.882637	-0.036083	-0.094979
C84	C	1.215971	0.297250	0.238354
C85	C	0.590292	-0.326068	-0.378197
C86	C	0.923626	0.007265	-0.044864
C87	C	1.256959	0.340598	0.288469
C88	C	1.134252	-0.501915	-0.378144
C89	C	1.467586	-0.168581	-0.044810
C90	C	1.800919	0.164752	0.288523
C91	C	1.134286	-0.577147	-0.378154
C92	C	1.467620	-0.243813	-0.044820
C93	C	1.800953	0.089520	0.288513
C94	C	1.184533	-0.612483	-0.328006
C95	C	1.517866	-0.279149	0.005327
C96	C	1.851199	0.054184	0.338661
C97	C	1.184566	-0.683171	-0.328023
C98	C	1.517899	-0.349838	0.005310
C99	C	1.851233	-0.016505	0.338643
C100	C	1.134348	-0.718522	-0.378185
C101	C	1.467682	-0.385189	-0.044852
C102	C	1.801015	-0.051856	0.288482
C103	C	1.084100	-0.683181	-0.428338
C104	C	1.417433	-0.349848	-0.095005
C105	C	1.750767	-0.016515	0.238328
C106	C	1.084071	-0.612494	-0.428324
C107	C	1.417404	-0.279161	-0.094991
C108	C	1.750738	0.054173	0.238342
C109	C	1.084216	-0.968254	-0.428397
C110	C	1.417549	-0.634921	-0.095063
C111	C	1.750882	-0.301588	0.238270
C112	C	1.084247	-1.038947	-0.428405
C113	C	1.417580	-0.705613	-0.095072
C114	C	1.750913	-0.372280	0.238262
C115	C	1.184710	-1.038932	-0.328095
C116	C	1.518044	-0.705598	0.005238
C117	C	1.851377	-0.372265	0.338571
C118	C	1.184682	-0.968244	-0.328081
C119	C	1.518015	-0.634911	0.005252
C120	C	1.851348	-0.301578	0.338585
C121	C	1.134436	-0.932910	-0.378237
C122	C	1.467770	-0.599576	-0.044904
C123	C	1.801103	-0.266243	0.288429
C124	C	1.134402	-0.856261	-0.378219
C125	C	1.467735	-0.522928	-0.044886
C126	C	1.801069	-0.189595	0.288448
C127	C	1.134378	-0.795169	-0.378200
C128	C	1.467712	-0.461836	-0.044867
C129	C	1.801045	-0.128503	0.288467
C130	C	1.339085	-0.326072	-0.378204
C131	C	1.672418	0.007262	-0.044871
C132	C	2.005751	0.340595	0.288463
C133	C	1.426335	-0.326077	-0.378213
C134	C	1.759668	0.007256	-0.044880
C135	C	2.093001	0.340590	0.288453
C136	C	1.134374	-0.326013	-0.582926
C137	C	1.467708	0.007321	-0.249593
C138	C	1.801041	0.340654	0.083741
C139	C	1.134389	-0.325993	-0.670176
C140	C	1.467722	0.007340	-0.336843
C141	C	1.801055	0.340674	-0.003509
C142	C	1.134451	-0.149516	-0.378237
C143	C	1.467784	0.183817	-0.044904
C144	C	1.801117	0.517151	0.288430
C145	C	1.134497	-0.074284	-0.378261
C146	C	1.467831	0.259049	-0.044927
C147	C	1.801164	0.592383	0.288406
C148	C	1.184708	-0.282614	-1.046011
C149	C	1.518042	0.050719	-0.712677
C150	C	1.851375	0.384053	-0.379344
C151	C	1.184692	-0.282638	-0.964030
C152	C	1.518026	0.050696	-0.630697
C153	C	1.851359	0.384029	-0.297364
C154	C	1.134453	-0.325929	-0.923025
C155	C	1.467787	0.007404	-0.589692
C156	C	1.801120	0.340738	-0.256358
C157	C	1.084233	-0.369205	-0.964004
C158	C	1.417566	-0.035871	-0.630671
C159	C	1.750899	0.297462	-0.297338
C160	C	1.084253	-0.369184	-1.045983
C161	C	1.417586	-0.035850	-0.712650
C162	C	1.750920	0.297483	-0.379317
C163	C	1.084192	-0.369244	-0.793134
C164	C	1.417525	-0.035910	-0.459801
C165	C	1.750859	0.297423	-0.126468
C166	C	1.084170	-0.369264	-0.711150
C167	C	1.417503	-0.035930	-0.377816
C168	C	1.750837	0.297403	-0.044483
C169	C	1.184631	-0.282698	-0.711181
C170	C	1.517965	0.050636	-0.377848
C171	C	1.851298	0.383969	-0.044514
C172	C	1.184652	-0.282677	-0.793160
C173	C	1.517985	0.050656	-0.459827
C174	C	1.851318	0.383990	-0.126493
C175	C	1.134430	-0.325952	-0.834134
C176	C	1.467763	0.007382	-0.500801
C177	C	1.801096	0.340715	-0.167467
C178	C	1.134352	-0.326056	-0.174234
C179	C	1.467685	0.007278	0.159099
C180	C	1.801019	0.340611	0.492433
C181	C	1.134490	-0.325885	-0.086984
C182	C	1.467823	0.007449	0.246349
C183	C	1.801157	0.340782	0.579682
H184	H	0.686805	-0.404699	-0.469099
H185	H	1.020138	-0.071366	-0.135766
H186	H	1.353472	0.261967	0.197568
Cl187	Cl	1.247828	-0.228238	-0.912524
Cl188	Cl	1.581161	0.105095	-0.579191
Cl189	Cl	1.914494	0.438429	-0.245857
H190	H	1.043215	-0.711970	-0.469184
H191	H	1.376549	-0.378636	-0.135851
H192	H	1.709882	-0.045303	0.197482
H193	H	1.043298	-0.404484	-0.826493
H194	H	1.376631	-0.071151	-0.493159
H195	H	1.709965	0.262182	-0.159826
H196	H	0.835523	-0.404697	-0.469079
H197	H	1.168857	-0.071363	-0.135746
H198	H	1.502190	0.261970	0.197588
Cl199	Cl	1.247881	-1.083357	-0.265045
Cl200	Cl	1.581215	-0.750024	0.068288
Cl201	Cl	1.914548	-0.416690	0.401621
Cl202	Cl	1.021016	-0.423692	-0.659601
Cl203	Cl	1.354349	-0.090359	-0.326268
Cl204	Cl	1.687683	0.242975	0.007066
H205	H	0.686796	-0.247423	-0.287284
H206	H	1.020130	0.085910	0.046049
H207	H	1.353463	0.419244	0.379383
Cl208	Cl	0.853685	-0.228215	-0.265070
Cl209	Cl	1.187018	0.105118	0.068264
Cl210	Cl	1.520352	0.438451	0.401597
H211	H	1.043303	-0.939490	-0.469234
H212	H	1.376636	-0.606157	-0.135900
H213	H	1.709970	-0.272824	0.197433
Cl214	Cl	0.415798	-0.423907	-0.491334
Cl215	Cl	0.749131	-0.090574	-0.158000
Cl216	Cl	1.082464	0.242760	0.175333
H217	H	1.043355	-1.067727	-0.469259
H218	H	1.376688	-0.734394	-0.135925
H219	H	1.710021	-0.401061	0.197408
Cl220	Cl	1.247662	-0.568048	-0.264936
Cl221	Cl	1.580995	-0.234715	0.068397
Cl222	Cl	1.914329	0.098618	0.401730
H223	H	1.043157	-0.583724	-0.469161
H224	H	1.376490	-0.250391	-0.135827
H225	H	1.709823	0.082943	0.197506
Cl226	Cl	1.021076	-0.423630	-0.912455
Cl227	Cl	1.354409	-0.090296	-0.579121
Cl228	Cl	1.687742	0.243037	-0.245788
Cl229	Cl	0.415793	-0.228250	-0.265110
Cl230	Cl	0.749126	0.105083	0.068224
Cl231	Cl	1.082459	0.438417	0.401557
H232	H	1.225614	-0.247357	-1.079391
H233	H	1.558947	0.085977	-0.746058
H234	H	1.892281	0.419310	-0.412725
Cl235	Cl	0.600834	-0.423907	-0.491296
Cl236	Cl	0.934168	-0.090574	-0.157962
Cl237	Cl	1.267501	0.242760	0.175371
H238	H	1.225558	-0.247422	-0.826544
H239	H	1.558891	0.085911	-0.493211
H240	H	1.892224	0.419244	-0.159878
H241	H	1.225522	-0.247460	-0.677816
H242	H	1.558856	0.085873	-0.344483
H243	H	1.892189	0.419206	-0.011150
Cl244	Cl	0.600835	-0.228231	-0.265092
Cl245	Cl	0.934168	0.105102	0.068242
Cl246	Cl	1.267501	0.438436	0.401575
H247	H	1.225481	-0.711939	-0.287187
H248	H	1.558814	-0.378605	0.046146
H249	H	1.892147	-0.045272	0.379479
Cl250	Cl	1.247815	-0.923807	-0.265019
Cl251	Cl	1.581148	-0.590474	0.068315
Cl252	Cl	1.914482	-0.257140	0.401648
H253	H	1.043361	-0.404420	-1.079343
H254	H	1.376694	-0.071086	-0.746010
H255	H	1.710027	0.262247	-0.412676
