data_functionalizedCrystal
_audit_creation_method	'MofGen! by Chris Wilmer'
_symmetry_space_group_name_H-M	'P1'
_symmetry_Int_Tables_number	1
_symmetry_cell_setting	triclinic
loop_
_symmetry_equiv_pos_as_xyz
  x,y,z
_cell_length_a	16.120444
_cell_length_b	12.759401
_cell_length_c	12.759393
_cell_angle_alpha	90.021396
_cell_angle_beta	92.863572
_cell_angle_gamma	87.072596
loop_
_atom_site_label
_atom_site_type_symbol
_atom_site_fract_x
_atom_site_fract_y
_atom_site_fract_z
Zn1	Zn	-0.331839	-1.584965	-0.615232
Zn2	Zn	0.168161	-1.084965	-0.115232
Zn3	Zn	-0.471278	-1.575913	-0.448446
Zn4	Zn	0.028722	-1.075913	0.051554
Zn5	Zn	-0.331885	-1.409264	-0.439565
Zn6	Zn	0.168115	-0.909264	0.060435
Zn7	Zn	-0.471215	-1.400313	-0.624075
Zn8	Zn	0.028785	-0.900313	-0.124075
O9	O	-0.401554	-1.492614	-0.531829
O10	O	0.098446	-0.992614	-0.031829
O11	O	-0.350343	-1.730785	-0.593123
O12	O	0.149657	-1.230785	-0.093123
O13	O	-0.452832	-1.553764	-0.300250
O14	O	0.047168	-1.053764	0.199750
O15	O	-0.215213	-1.440105	-0.455450
O16	O	0.284787	-0.940105	0.044550
O17	O	-0.452788	-1.724134	-0.470587
O18	O	0.047212	-1.224134	0.029413
O19	O	-0.215180	-1.569192	-0.584511
O20	O	0.284820	-1.069192	-0.084511
O21	O	-0.350421	-1.431328	-0.293725
O22	O	0.149579	-0.931328	0.206275
O23	O	-0.350360	-1.261056	-0.464025
O24	O	0.149640	-0.761056	0.035975
O25	O	-0.452681	-1.424850	-0.769920
O26	O	0.047319	-0.924850	-0.269920
O27	O	-0.452725	-1.254480	-0.599583
O28	O	0.047275	-0.754480	-0.099583
O29	O	-0.350283	-1.560513	-0.763423
O30	O	0.149717	-1.060513	-0.263423
O31	O	-0.587935	-1.545085	-0.479162
O32	O	-0.087935	-1.045085	0.020838
O33	O	-0.587889	-1.416073	-0.608195
O34	O	-0.087889	-0.916073	-0.108195
C35	C	-0.401541	-1.219647	-0.531800
C36	C	0.098459	-0.719647	-0.031800
C37	C	-0.401556	-1.102870	-0.531814
C38	C	0.098444	-0.602870	-0.031814
C39	C	-0.618162	-1.478654	-0.545625
C40	C	-0.118162	-0.978654	-0.045625
C41	C	-0.710828	-1.472778	-0.551562
C42	C	-0.210828	-0.972778	-0.051562
C43	C	-0.454938	-1.044606	-0.602297
C44	C	0.045062	-0.544606	-0.102297
C45	C	-0.454940	-0.934882	-0.602315
C46	C	0.045060	-0.434882	-0.102315
C47	C	-0.348176	-0.941695	-0.461358
C48	C	0.151824	-0.441695	0.038642
C49	C	-0.348170	-1.051417	-0.461345
C50	C	0.151830	-0.551417	0.038655
C51	C	-0.921773	-1.523352	-0.501258
C52	C	-0.421773	-1.023352	-0.001258
C53	C	-0.880484	-1.462070	-0.562412
C54	C	-0.380484	-0.962070	-0.062412
C55	C	-0.786079	-1.468030	-0.556373
C56	C	-0.286079	-0.968030	-0.056373
C57	C	-1.016187	-1.517394	-0.507295
C58	C	-0.516187	-1.017394	-0.007295
C59	C	-0.184100	-1.506656	-0.518003
C60	C	0.315900	-1.006656	-0.018003
C61	C	-0.091434	-1.512641	-0.512111
C62	C	0.408566	-1.012641	-0.012111
C63	C	-0.401470	-1.492692	-0.805858
C64	C	0.098530	-0.992692	-0.305858
C65	C	-0.401434	-1.492726	-0.922632
C66	C	0.098566	-0.992726	-0.422632
C67	C	-0.401565	-0.766646	-0.531852
C68	C	0.098435	-0.266646	-0.031852
C69	C	-0.401564	-0.883423	-0.531844
C70	C	0.098436	-0.383423	-0.031844
C71	C	-0.348099	-1.428998	-0.974095
C72	C	0.151901	-0.928998	-0.474095
C73	C	-0.348073	-1.429024	-1.083818
C74	C	0.151927	-0.929024	-0.583818
C75	C	-0.454720	-1.556515	-1.090604
C76	C	0.045280	-1.056515	-0.590604
C77	C	-0.454750	-1.556483	-0.980884
C78	C	0.045250	-1.056483	-0.480884
C79	C	-0.401578	-1.492600	-0.258864
C80	C	0.098422	-0.992600	0.241136
C81	C	-0.401379	-1.492785	-0.142075
C82	C	0.098621	-0.992785	0.357925
H83	H	-0.498407	-1.086495	-0.659680
H84	H	0.001593	-0.586495	-0.159680
H85	H	-0.304643	-1.377130	-1.125714
H86	H	0.195357	-0.877130	-0.625714
H87	H	-0.498128	-1.608424	-1.138046
H88	H	0.001872	-1.108424	-0.638046
H89	H	-0.498185	-1.608380	-0.938982
H90	H	0.001815	-1.108380	-0.438982
Br91	Br	-0.275709	-1.130498	-0.365692
Br92	Br	0.224291	-0.630498	0.134308
Br93	Br	-0.527387	-0.855813	-0.697980
Br94	Br	-0.027387	-0.355813	-0.197980
Br95	Br	-0.939737	-1.367159	-0.657233
Br96	Br	-0.439737	-0.867159	-0.157233
Br97	Br	-0.275727	-0.871860	-0.365726
Br98	Br	0.224273	-0.371860	0.134274
Br99	Br	-0.862519	-1.618253	-0.406440
Br100	Br	-0.362519	-1.118253	0.093560
Br101	Br	-0.275744	-1.342470	-0.895042
Br102	Br	0.224256	-0.842470	-0.395042
