data_functionalizedCrystal
_audit_creation_method	'MofGen! by Chris Wilmer'
_symmetry_space_group_name_H-M	'P1'
_symmetry_Int_Tables_number	1
_symmetry_cell_setting	triclinic
loop_
_symmetry_equiv_pos_as_xyz
  x,y,z
_cell_length_a	14.044220
_cell_length_b	26.210047
_cell_length_c	14.044220
_cell_angle_alpha	89.995973
_cell_angle_beta	93.188878
_cell_angle_gamma	90.004879
loop_
_atom_site_label
_atom_site_type_symbol
_atom_site_fract_x
_atom_site_fract_y
_atom_site_fract_z
O1	O	1.277175	0.042377	0.230154
O2	O	1.777175	0.542377	0.730154
O3	O	1.000503	0.042390	0.221849
O4	O	1.500503	0.542390	0.721849
O5	O	1.134686	0.042378	0.087666
O6	O	1.634686	0.542378	0.587666
O7	O	1.142992	0.042388	0.364337
O8	O	1.642992	0.542388	0.864337
O9	O	1.134660	-0.042480	0.087686
O10	O	1.634660	0.457520	0.587686
O11	O	1.000477	-0.042468	0.221869
O12	O	1.500477	0.457532	0.721869
O13	O	1.277148	-0.042481	0.230175
O14	O	1.777148	0.457519	0.730175
Cu15	Cu	1.138810	-0.050223	0.226024
Cu16	Cu	1.638810	0.449777	0.726024
Cu17	Cu	1.138841	0.050131	0.226000
Cu18	Cu	1.638841	0.550131	0.726000
O19	O	1.142965	-0.042470	0.364358
O20	O	1.642965	0.457530	0.864358
C21	C	0.964868	-0.000038	0.218223
C22	C	1.464868	0.499962	0.718223
C23	C	0.858725	-0.000033	0.207379
C24	C	1.358725	0.499967	0.707379
N25	N	1.138795	-0.120807	0.226041
N26	N	1.638795	0.379193	0.726041
C27	C	0.664388	-0.000044	0.187553
C28	C	1.164388	0.499956	0.687553
C29	C	0.613258	-0.000043	0.264467
C30	C	1.113258	0.499957	0.764467
C31	C	0.505122	-0.000049	0.253435
C32	C	1.005122	0.499951	0.753435
C33	C	0.772534	-0.000038	0.198583
C34	C	1.272534	0.499962	0.698583
C35	C	1.198252	-0.473326	0.166598
C36	C	1.698252	0.026674	0.666598
C37	C	1.198272	-0.686985	0.166586
C38	C	1.698272	-0.186985	0.666586
O39	O	1.248788	-0.714611	0.116046
O40	O	1.748788	-0.214611	0.616046
N41	N	1.138845	-0.713701	0.225979
N42	N	1.638845	-0.213701	0.725979
C43	C	1.079403	-0.686999	0.285375
C44	C	1.579403	-0.186999	0.785375
O45	O	1.028850	-0.714626	0.335885
O46	O	1.528850	-0.214626	0.835885
C47	C	1.079379	-0.473342	0.285381
C48	C	1.579379	0.026658	0.785381
C49	C	1.138818	-0.446628	0.225991
C50	C	1.638818	0.053372	0.725991
C51	C	1.257685	-0.446612	0.107212
C52	C	1.757685	0.053388	0.607212
C53	C	1.257683	-0.393201	0.107219
C54	C	1.757683	0.106799	0.607219
C55	C	1.198249	-0.366503	0.166612
C56	C	1.698249	0.133497	0.666612
C57	C	1.138816	-0.393217	0.225998
C58	C	1.638816	0.106783	0.725998
C59	C	1.019934	-0.446641	0.344771
C60	C	1.519934	0.053359	0.844771
C61	C	1.019931	-0.393223	0.344765
C62	C	1.519931	0.106777	0.844765
C63	C	1.079370	-0.366510	0.285375
C64	C	1.579370	0.133490	0.785375
C65	C	1.079380	-0.313107	0.285398
C66	C	1.579380	0.186893	0.785398
N67	N	1.138807	-0.286391	0.226005
N68	N	1.638807	0.213609	0.726005
C69	C	1.198241	-0.313089	0.166612
C70	C	1.698241	0.186911	0.666612
C71	C	1.079422	-0.799173	0.285369
C72	C	1.579422	-0.299173	0.785369
C73	C	1.079429	-0.852587	0.285369
C74	C	1.579429	-0.352587	0.785369
C75	C	1.198296	-0.852568	0.166579
C76	C	1.698296	-0.352568	0.666579
C77	C	1.198293	-0.799153	0.166584
C78	C	1.698293	-0.299153	0.666584
C79	C	1.138849	-0.772456	0.225976
C80	C	1.638849	-0.272456	0.725976
C81	C	1.198234	-0.200921	0.166633
C82	C	1.698234	0.299079	0.666633
C83	C	1.198230	-0.147505	0.166648
C84	C	1.698230	0.352495	0.666648
C85	C	1.079359	-0.147528	0.285434
C86	C	1.579359	0.352472	0.785434
C87	C	1.079366	-0.200939	0.285423
C88	C	1.579366	0.299061	0.785423
C89	C	1.138807	-0.227635	0.226014
C90	C	1.638807	0.272365	0.726014
O91	O	1.028882	-0.285448	0.335904
O92	O	1.528882	0.214552	0.835904
O93	O	1.248772	-0.285453	0.116094
O94	O	1.748772	0.214547	0.616094
C95	C	1.198254	-0.526737	0.166590
C96	C	1.698254	-0.026737	0.666590
C97	C	1.138821	-0.553451	0.225976
C98	C	1.638821	-0.053451	0.725976
C99	C	1.079387	-0.526753	0.285369
C100	C	1.579387	-0.026753	0.785369
C101	C	1.138828	-0.606865	0.225976
C102	C	1.638828	-0.106865	0.725976
C103	C	1.198263	-0.633563	0.166583
C104	C	1.698263	-0.133563	0.666583
C105	C	1.257690	-0.606847	0.107190
C106	C	1.757690	-0.106847	0.607190
C107	C	1.257688	-0.553435	0.107197
C108	C	1.757688	-0.053435	0.607197
C109	C	1.019959	-0.553469	0.344762
C110	C	1.519959	-0.053469	0.844762
C111	C	1.019967	-0.606881	0.344751
C112	C	1.519967	-0.106881	0.844751
C113	C	1.079401	-0.633579	0.285358
C114	C	1.579401	-0.133579	0.785358
C115	C	1.312783	-0.000053	0.233800
C116	C	1.812783	0.499947	0.733800
C117	C	1.418926	-0.000054	0.244645
C118	C	1.918926	0.499946	0.744645
C119	C	1.131037	-0.000051	0.052054
C120	C	1.631037	0.499949	0.552054
C121	C	1.120193	-0.000051	-0.054088
C122	C	1.620193	0.499949	0.445912
N123	N	1.138863	0.120715	0.225976
N124	N	1.638863	0.620715	0.725976
C125	C	1.100366	-0.000043	-0.248426
C126	C	1.600366	0.499957	0.251574
C127	C	1.177281	-0.000045	-0.299556
C128	C	1.677281	0.499955	0.200444
C129	C	1.166249	-0.000040	-0.407692
C130	C	1.666249	0.499960	0.092308
C131	C	1.111397	-0.000047	-0.140280
C132	C	1.611397	0.499953	0.359720
C133	C	1.146614	-0.000040	0.399969
C134	C	1.646614	0.499960	0.899969
C135	C	1.157459	-0.000036	0.506112
C136	C	1.657459	0.499964	1.006112
H137	H	0.626951	-0.000049	0.113425
H138	H	1.126951	0.499951	0.613425
N139	N	1.007379	-0.000046	-0.295403
N140	N	1.507379	0.499954	0.204597
N141	N	0.982594	-0.035816	-0.350191
N142	N	1.482594	0.464184	0.149809
H143	H	0.916923	-0.035822	-0.383381
H144	H	1.416923	0.464178	0.116619
H145	H	1.031040	-0.874333	0.333740
H146	H	1.531040	-0.374333	0.833740
N147	N	1.258929	-0.120223	0.105956
N148	N	1.758929	0.379777	0.605956
N149	N	1.250146	-0.126186	0.017600
N150	N	1.750146	0.373814	0.517600
H151	H	1.293008	-0.106919	-0.025268
H152	H	1.793008	0.393081	0.474732
N153	N	0.660232	-0.000040	0.357462
N154	N	1.160232	0.499960	0.857462
N155	N	0.749283	-0.000035	0.366411
N156	N	1.249283	0.499965	0.866411
H157	H	0.782464	-0.000032	0.432086
H158	H	1.282464	0.499968	0.932086
H159	H	1.246634	-0.222650	0.118256
H160	H	1.746634	0.277350	0.618256
H161	H	1.306080	-0.371454	0.058856
H162	H	1.806080	0.128546	0.558856
H163	H	0.971521	-0.371489	0.393128
H164	H	1.471521	0.128511	0.893128
N165	N	1.018635	-0.120252	0.346085
N166	N	1.518635	0.379748	0.846085
N167	N	0.930281	-0.126219	0.337252
N168	N	1.430281	0.373781	0.837252
H169	H	0.887388	-0.106955	0.380083
H170	H	1.387388	0.393045	0.880083
H171	H	1.246693	-0.777406	0.118224
H172	H	1.746693	-0.277406	0.618224
N173	N	1.318403	-0.473870	0.046527
N174	N	1.818403	0.026130	0.546527
N175	N	1.371455	-0.450002	-0.006488
N176	N	1.871455	0.049998	0.493512
H177	H	1.414345	-0.469249	-0.049347
H178	H	1.914345	0.030751	0.450653
H179	H	1.246692	-0.874315	0.118220
H180	H	1.746692	-0.374315	0.618220
H181	H	1.030976	-0.222690	0.333793
H182	H	1.530976	0.277310	0.833793
N183	N	1.018688	-0.771914	0.346044
N184	N	1.518688	-0.271914	0.846044
N185	N	0.965637	-0.795780	0.399063
N186	N	1.465637	-0.295780	0.899063
H187	H	0.922744	-0.776532	0.441918
H188	H	1.422744	-0.276532	0.941918
H189	H	1.251414	-0.000014	-0.262117
H190	H	1.751414	0.499986	0.237883
N191	N	1.318410	-0.526160	0.046525
N192	N	1.818410	-0.026160	0.546525
N193	N	1.371466	-0.550013	-0.006496
N194	N	1.871466	-0.050013	0.493504
H195	H	1.414353	-0.530753	-0.049351
H196	H	1.914353	-0.030753	0.450649
N197	N	0.959201	-0.473909	0.405435
N198	N	1.459201	0.026091	0.905435
N199	N	0.870849	-0.467938	0.396603
N200	N	1.370849	0.032062	0.896603
H201	H	0.827951	-0.487194	0.439451
H202	H	1.327951	0.012806	0.939451
N203	N	1.318395	-0.634132	0.046526
N204	N	1.818395	-0.134132	0.546526
N205	N	1.318376	-0.681822	0.046535
N206	N	1.818376	-0.181822	0.546535
H207	H	1.361241	-0.701095	0.003688
H208	H	1.861241	-0.201095	0.503688
H209	H	0.971567	-0.628627	0.393122
H210	H	1.471567	-0.128627	0.893122
H211	H	0.971559	-0.531736	0.393126
H212	H	1.471559	-0.031736	0.893126
