data_functionalizedCrystal
_audit_creation_method	'MofGen! by Chris Wilmer'
_symmetry_space_group_name_H-M	'P1'
_symmetry_Int_Tables_number	1
_symmetry_cell_setting	triclinic
loop_
_symmetry_equiv_pos_as_xyz
  x,y,z
_cell_length_a	19.077105
_cell_length_b	13.897448
_cell_length_c	19.077174
_cell_angle_alpha	92.273651
_cell_angle_beta	85.483752
_cell_angle_gamma	87.714101
loop_
_atom_site_label
_atom_site_type_symbol
_atom_site_fract_x
_atom_site_fract_y
_atom_site_fract_z
Zn1	Zn	1.093747	-0.468678	-0.441851
Zn2	Zn	1.427081	-0.135344	-0.108518
Zn3	Zn	1.760414	0.197989	0.224815
Zn4	Zn	1.088946	-0.623231	-0.323966
Zn5	Zn	1.422279	-0.289897	0.009367
Zn6	Zn	1.755613	0.043436	0.342700
Zn7	Zn	0.971131	-0.455194	-0.319249
Zn8	Zn	1.304464	-0.121861	0.014085
Zn9	Zn	1.637798	0.211473	0.347418
Zn10	Zn	0.975840	-0.623167	-0.437084
Zn11	Zn	1.309173	-0.289834	-0.103751
Zn12	Zn	1.642506	0.043499	0.229583
O13	O	1.032416	-0.542567	-0.380538
O14	O	1.365749	-0.209234	-0.047204
O15	O	1.699083	0.124099	0.286129
O16	O	1.191761	-0.494849	-0.430183
O17	O	1.525094	-0.161516	-0.096850
O18	O	1.858428	0.171818	0.236484
O19	O	1.069338	-0.595324	-0.224691
O20	O	1.402671	-0.261990	0.108643
O21	O	1.736004	0.071343	0.441976
O22	O	0.987435	-0.322004	-0.335533
O23	O	1.320769	0.011329	-0.002200
O24	O	1.654102	0.344662	0.331134
O25	O	1.188233	-0.608398	-0.343573
O26	O	1.521567	-0.275065	-0.010240
O27	O	1.854900	0.058268	0.323093
O28	O	1.077521	-0.331911	-0.425609
O29	O	1.410854	0.001423	-0.092275
O30	O	1.744187	0.334756	0.241058
O31	O	0.982780	-0.471868	-0.221225
O32	O	1.316113	-0.138534	0.112109
O33	O	1.649446	0.194799	0.445442
O34	O	0.873105	-0.471807	-0.330910
O35	O	1.206438	-0.138473	0.002423
O36	O	1.539772	0.194860	0.335756
O37	O	0.995460	-0.608291	-0.536366
O38	O	1.328794	-0.274957	-0.203033
O39	O	1.662127	0.058376	0.130300
O40	O	0.876565	-0.595216	-0.417484
O41	O	1.209898	-0.261883	-0.084150
O42	O	1.543231	0.071451	0.249183
O43	O	1.082087	-0.494788	-0.539869
O44	O	1.415420	-0.161454	-0.206535
O45	O	1.748753	0.171879	0.126798
O46	O	1.073903	-0.758200	-0.338951
O47	O	1.407237	-0.424867	-0.005617
O48	O	1.740570	-0.091534	0.327716
O49	O	0.990805	-0.758154	-0.422058
O50	O	1.324138	-0.424821	-0.088725
O51	O	1.657471	-0.091487	0.244609
C52	C	0.849256	-0.532042	-0.373168
C53	C	1.182589	-0.198709	-0.039835
C54	C	1.515923	0.134625	0.293499
C55	C	0.770900	-0.527563	-0.370032
C56	C	1.104233	-0.194230	-0.036699
C57	C	1.437566	0.139103	0.296635
C58	C	0.735905	-0.589801	-0.413562
C59	C	1.069238	-0.256467	-0.080229
C60	C	1.402571	0.076866	0.253105
C61	C	0.662281	-0.585580	-0.410619
C62	C	0.995614	-0.252247	-0.077285
C63	C	1.328948	0.081087	0.256048
C64	C	0.623654	-0.519126	-0.364142
C65	C	0.956987	-0.185792	-0.030808
C66	C	1.290320	0.147541	0.302525
C67	C	0.658654	-0.456882	-0.320610
C68	C	0.991987	-0.123548	0.012723
C69	C	1.325320	0.209785	0.346057
C70	C	0.732276	-0.461098	-0.323557
C71	C	1.065610	-0.127765	0.009776
C72	C	1.398943	0.205568	0.343109
C73	C	0.403271	-0.499610	-0.350505
C74	C	0.736604	-0.166277	-0.017171
C75	C	1.069938	0.167056	0.316162
C76	C	0.329643	-0.495400	-0.347559
C77	C	0.662977	-0.162067	-0.014226
C78	C	0.996310	0.171266	0.319107
C79	C	0.333276	-0.624098	-0.437569
C80	C	0.666609	-0.290765	-0.104236
C81	C	0.999942	0.042569	0.229097
C82	C	0.406899	-0.628313	-0.440509
C83	C	0.740233	-0.294979	-0.107176
C84	C	1.073566	0.038354	0.226157
C85	C	0.441893	-0.566065	-0.396980
C86	C	0.775227	-0.232732	-0.063647
C87	C	1.108560	0.100601	0.269686
N88	N	0.548398	-0.514812	-0.361131
N89	N	0.881732	-0.181479	-0.027797
N90	N	1.215065	0.151855	0.305536
N91	N	0.517147	-0.570375	-0.399996
N92	N	0.850481	-0.237042	-0.066662
N93	N	1.183814	0.096292	0.266671
C94	C	1.032364	-0.793178	-0.380515
C95	C	1.365697	-0.459844	-0.047182
C96	C	1.699030	-0.126511	0.286152
C97	C	1.032407	-0.900395	-0.380532
C98	C	1.365740	-0.567061	-0.047198
C99	C	1.699074	-0.233728	0.286135
C100	C	1.032483	-1.096697	-0.380579
C101	C	1.365816	-0.763363	-0.047246
C102	C	1.699149	-0.430030	0.286088
C103	C	1.032439	-0.987460	-0.380555
C104	C	1.365772	-0.654127	-0.047221
C105	C	1.699105	-0.320794	0.286112
C106	C	1.216291	-0.553135	-0.387936
C107	C	1.549625	-0.219801	-0.054603
C108	C	1.882958	0.113532	0.278730
C109	C	1.294648	-0.557638	-0.391089
C110	C	1.627982	-0.224305	-0.057756
C111	C	1.961315	0.109029	0.275578
C112	C	1.039834	-0.553036	-0.564412
C113	C	1.373168	-0.219703	-0.231078
C114	C	1.706501	0.113630	0.102255
C115	C	1.042996	-0.557497	-0.642768
C116	C	1.376329	-0.224164	-0.309434
C117	C	1.709662	0.109169	0.023899
C118	C	1.032488	-0.290981	-0.380576
C119	C	1.365822	0.042353	-0.047243
C120	C	1.699155	0.375686	0.286090
C121	C	1.032519	-0.183769	-0.380593
C122	C	1.365852	0.149564	-0.047260
C123	C	1.699186	0.482897	0.286074
C124	C	0.999417	-0.495318	-0.677775
C125	C	1.332750	-0.161984	-0.344441
C126	C	1.666083	0.171349	-0.011108
C127	C	1.002384	-0.499517	-0.751398
C128	C	1.335718	-0.166184	-0.418065
C129	C	1.669051	0.167149	-0.084732
C130	C	1.048935	-0.565893	-0.790014
C131	C	1.382268	-0.232559	-0.456681
C132	C	1.715602	0.100774	-0.123347
C133	C	1.092516	-0.628079	-0.755002
C134	C	1.425849	-0.294746	-0.421669
C135	C	1.759182	0.038588	-0.088336
C136	C	1.089544	-0.623883	-0.681380
C137	C	1.422877	-0.290550	-0.348046
C138	C	1.756211	0.042783	-0.014713
C139	C	1.062652	-0.585338	-1.010396
C140	C	1.395985	-0.252004	-0.677062
C141	C	1.729318	0.081329	-0.343729
C142	C	1.065621	-0.589527	-1.084023
C143	C	1.398955	-0.256193	-0.750690
C144	C	1.732288	0.077140	-0.417357
C145	C	0.975489	-0.460966	-1.080415
C146	C	1.308822	-0.127632	-0.747081
C147	C	1.642155	0.205701	-0.413748
C148	C	0.972524	-0.456772	-1.006791
C149	C	1.305858	-0.123439	-0.673457
C150	C	1.639191	0.209895	-0.340124
C151	C	1.016102	-0.518962	-0.971785
C152	C	1.349436	-0.185628	-0.638452
C153	C	1.682769	0.147705	-0.305118
N154	N	1.051971	-0.570185	-0.865270
N155	N	1.385304	-0.236852	-0.531936
N156	N	1.718638	0.096482	-0.198603
N157	N	1.013062	-0.514673	-0.896531
N158	N	1.346395	-0.181340	-0.563198
N159	N	1.679729	0.151993	-0.229864
C160	C	1.025067	-0.532072	-0.197381
C161	C	1.358400	-0.198739	0.135953
C162	C	1.691734	0.134595	0.469286
C163	C	1.022043	-0.527347	-0.119030
C164	C	1.355376	-0.194014	0.214303
C165	C	1.688709	0.139320	0.547636
H166	H	0.438345	-0.682429	-0.478354
H167	H	0.771678	-0.349096	-0.145021
H168	H	1.105012	-0.015762	0.188312
H169	H	1.098128	-0.635987	-0.981903
H170	H	1.431462	-0.302654	-0.648570
H171	H	1.764795	0.030680	-0.315236
H172	H	1.130415	-0.682128	-0.786449
H173	H	1.463748	-0.348794	-0.453116
H174	H	1.797081	-0.015461	-0.119782
H175	H	0.767350	-0.643918	-0.451406
H176	H	1.100683	-0.310585	-0.118073
H177	H	1.434017	0.022749	0.215260
H178	H	0.934616	-0.402725	-0.975355
H179	H	1.267949	-0.069391	-0.642021
H180	H	1.601282	0.263942	-0.308688
H181	H	0.627198	-0.402769	-0.282770
H182	H	0.960531	-0.069436	0.050563
H183	H	1.293864	0.263897	0.383896
H184	H	0.633791	-0.636261	-0.446065
H185	H	0.967125	-0.302928	-0.112731
H186	H	1.300458	0.030405	0.220602
H187	H	0.961514	-0.441263	-0.646339
H188	H	1.294847	-0.107929	-0.313005
H189	H	1.628181	0.225404	0.020328
H190	H	0.304776	-0.674775	-0.473009
H191	H	0.638109	-0.341442	-0.139676
H192	H	0.971442	-0.008108	0.193658
H193	H	1.125036	-0.674510	-0.652878
H194	H	1.458369	-0.341176	-0.319545
H195	H	1.791703	-0.007843	0.013788
H196	H	0.940009	-0.410335	-1.108924
H197	H	1.273343	-0.077002	-0.775591
H198	H	1.606676	0.256331	-0.442257
H199	H	0.298195	-0.441274	-0.309716
H200	H	0.631528	-0.107941	0.023617
H201	H	0.964862	0.225392	0.356950
H202	H	0.760768	-0.410413	-0.288114
H203	H	1.094102	-0.077080	0.045219
H204	H	1.427435	0.256254	0.378552
H205	H	0.431754	-0.448931	-0.315055
H206	H	0.765087	-0.115598	0.018278
H207	H	1.098420	0.217736	0.351612
H208	H	0.966895	-0.448888	-0.779897
H209	H	1.300228	-0.115554	-0.446564
H210	H	1.633562	0.217779	-0.113231
H211	H	1.103532	-0.643579	-1.115463
H212	H	1.436865	-0.310245	-0.782129
H213	H	1.770198	0.023088	-0.448796
