data_functionalizedCrystal
_audit_creation_method	'MofGen! by Chris Wilmer'
_symmetry_space_group_name_H-M	'P1'
_symmetry_Int_Tables_number	1
_symmetry_cell_setting	triclinic
loop_
_symmetry_equiv_pos_as_xyz
  x,y,z
_cell_length_a	14.044191
_cell_length_b	15.995292
_cell_length_c	12.503572
_cell_angle_alpha	93.525692
_cell_angle_beta	86.162165
_cell_angle_gamma	88.330196
loop_
_atom_site_label
_atom_site_type_symbol
_atom_site_fract_x
_atom_site_fract_y
_atom_site_fract_z
O1	O	1.263124	0.197461	-0.089254
O2	O	1.763124	0.697461	0.410746
O3	O	0.987157	0.190170	-0.089268
O4	O	1.487157	0.690170	0.410732
O5	O	1.132713	0.072490	-0.089262
O6	O	1.632713	0.572490	0.410738
O7	O	1.117568	0.315140	-0.089260
O8	O	1.617568	0.815140	0.410740
O9	O	1.121766	0.081356	0.089379
O10	O	1.621766	0.581356	0.589379
O11	O	0.976210	0.199036	0.089373
O12	O	1.476210	0.699036	0.589373
O13	O	1.252177	0.206327	0.089387
O14	O	1.752177	0.706327	0.589387
Cu15	Cu	1.113194	0.203491	0.105692
Cu16	Cu	1.613194	0.703491	0.605692
Cu17	Cu	1.126140	0.193006	-0.105573
Cu18	Cu	1.626140	0.693006	0.394427
O19	O	1.106621	0.324007	0.089382
O20	O	1.606621	0.824007	0.589382
C21	C	0.946370	0.191413	0.000051
C22	C	1.446370	0.691413	0.500051
C23	C	0.841146	0.181900	0.000045
C24	C	1.341146	0.681900	0.500045
C25	C	0.590847	0.231979	0.000056
C26	C	1.090847	0.731979	0.500056
C27	C	0.648493	0.164521	0.000054
C28	C	1.148493	0.664521	0.500054
C29	C	0.755695	0.174193	0.000049
C30	C	1.255695	0.674193	0.500049
C31	C	0.483635	0.222309	0.000061
C32	C	0.983635	0.722309	0.500061
C33	C	1.126623	0.045681	0.000056
C34	C	1.626623	0.545681	0.500056
C35	C	1.124776	-0.047410	0.000047
C36	C	1.624776	0.452590	0.500047
C37	C	1.117982	-0.385656	0.000057
C38	C	1.617982	0.114344	0.500057
C39	C	1.223016	-0.354474	0.000461
C40	C	1.723016	0.145526	0.500461
C41	C	1.225037	-0.257669	0.000055
C42	C	1.725037	0.242331	0.500055
C43	C	1.121353	-0.217848	0.000053
C44	C	1.621353	0.282152	0.500053
C45	C	1.075080	-0.255936	-0.101960
C46	C	1.575080	0.244064	0.398040
C47	C	1.073820	-0.352825	-0.102041
C48	C	1.573820	0.147175	0.397959
C49	C	1.059226	-0.342760	0.101108
C50	C	1.559226	0.157240	0.601108
C51	C	1.063037	-0.245910	0.102452
C52	C	1.563037	0.254090	0.602452
C53	C	1.123253	-0.123010	0.000047
C54	C	1.623253	0.376990	0.500047
C55	C	1.116079	-0.480494	0.000056
C56	C	1.616079	0.019506	0.500056
C57	C	1.292964	0.205083	0.000066
C58	C	1.792964	0.705083	0.500066
C59	C	1.398188	0.214597	0.000065
C60	C	1.898188	0.714597	0.500065
C61	C	1.112711	0.350815	0.000061
C62	C	1.612711	0.850815	0.500061
C63	C	1.114559	0.443906	0.000062
C64	C	1.614559	0.943906	0.500062
N65	N	1.104096	0.210866	0.254284
N66	N	1.604096	0.710866	0.754284
N67	N	1.135246	0.185625	-0.254164
N68	N	1.635246	0.685625	0.245836
C69	C	1.090711	0.221721	0.473398
C70	C	1.590711	0.721721	0.973398
C71	C	1.148627	0.174772	0.526728
C72	C	1.648627	0.674772	1.026728
C73	C	1.141180	0.180812	0.648651
C74	C	1.641180	0.680812	1.148651
C75	C	1.098157	0.215682	0.351464
C76	C	1.598157	0.715682	0.851464
H77	H	1.261692	-0.231942	0.073180
H78	H	1.761692	0.268058	0.573180
H79	H	0.622006	0.296990	0.000054
H80	H	1.122006	0.796990	0.500054
O81	O	1.270719	-0.382714	0.097382
O82	O	1.770719	0.117286	0.597382
H83	H	1.220085	-0.419285	0.146297
H84	H	1.720085	0.080715	0.646297
H85	H	1.203803	0.130041	0.480817
H86	H	1.703803	0.630041	0.980817
O87	O	1.282271	-0.393695	-0.095896
O88	O	1.782271	0.106305	0.404104
H89	H	1.237238	-0.435299	-0.144077
H90	H	1.737238	0.064701	0.355923
O91	O	0.607219	0.078399	0.000048
O92	O	1.107219	0.578399	0.500048
H93	H	0.627093	0.047521	0.072860
H94	H	1.127093	0.547521	0.572860
H95	H	1.270904	-0.239809	-0.073195
H96	H	1.770904	0.260191	0.426805
H97	H	1.035540	0.266451	0.519304
H98	H	1.535540	0.766451	1.019304
O99	O	1.128641	-0.389773	-0.202756
O100	O	1.628641	0.110227	0.297244
H101	H	1.155754	-0.338406	-0.250974
H102	H	1.655754	0.161594	0.249026
O103	O	0.972170	-0.380044	-0.108191
O104	O	1.472170	0.119956	0.391809
H105	H	0.943630	-0.359053	-0.183108
H106	H	1.443630	0.140947	0.316892
H107	H	0.999014	-0.229957	-0.105754
H108	H	1.499014	0.270043	0.394246
O109	O	1.129841	-0.230895	-0.202415
O110	O	1.629841	0.269105	0.297585
H111	H	1.128200	-0.161547	-0.203706
H112	H	1.628200	0.338453	0.296294
O113	O	1.096548	-0.371838	0.203532
O114	O	1.596548	0.128162	0.703532
H115	H	1.090532	-0.440800	0.205001
H116	H	1.590532	0.059200	0.705001
H117	H	1.096658	-0.220742	0.177920
H118	H	1.596658	0.279258	0.677920
H119	H	0.986980	-0.218289	0.108611
H120	H	1.486980	0.281711	0.608611
O121	O	0.956739	-0.368906	0.102037
O122	O	1.456739	0.131094	0.602037
H123	H	0.947643	-0.412237	0.030920
H124	H	1.447643	0.087763	0.530920
