data_functionalizedCrystal
_audit_creation_method	'MofGen! by Chris Wilmer'
_symmetry_space_group_name_H-M	'P1'
_symmetry_Int_Tables_number	1
_symmetry_cell_setting	triclinic
loop_
_symmetry_equiv_pos_as_xyz
  x,y,z
_cell_length_a	19.288840
_cell_length_b	8.597304
_cell_length_c	18.366186
_cell_angle_alpha	82.293964
_cell_angle_beta	89.983729
_cell_angle_gamma	84.235515
loop_
_atom_site_label
_atom_site_type_symbol
_atom_site_fract_x
_atom_site_fract_y
_atom_site_fract_z
O1	O	0.922964	0.195588	-0.072939
O2	O	0.720918	0.222039	-0.074572
O3	O	0.825916	-0.019683	-0.059420
O4	O	0.817966	0.437310	-0.088091
O5	O	0.825897	-0.019695	0.061680
O6	O	0.720899	0.222027	0.046528
O7	O	0.922946	0.195576	0.048162
Zn8	Zn	0.821920	0.208800	0.066572
Zn9	Zn	0.821944	0.208816	-0.092983
O10	O	0.817948	0.437299	0.033009
C11	C	0.695025	0.221189	-0.013966
C12	C	0.617900	0.218653	-0.013797
C13	C	0.581696	0.217442	-0.079734
C14	C	0.509229	0.215042	-0.079593
C15	C	0.472971	0.213823	-0.013508
C16	C	0.509183	0.215043	0.052437
C17	C	0.581647	0.217459	0.052292
C18	C	0.362852	0.118069	0.043060
C19	C	0.290390	0.115644	0.043203
C20	C	0.249466	0.206380	-0.013060
C21	C	0.281016	0.299521	-0.069477
C22	C	0.353480	0.301937	-0.069621
C23	C	0.394395	0.211205	-0.013344
C24	C	0.134686	0.202569	-0.078849
C25	C	0.062218	0.200179	-0.078705
C26	C	0.062173	0.200164	0.053328
C27	C	0.134639	0.202570	0.053181
C28	C	0.170892	0.203765	-0.012909
C29	C	0.825052	-0.078155	0.004797
C30	C	0.822498	-0.252364	0.015722
C31	C	0.948839	0.196427	-0.012446
C32	C	1.025964	0.198962	-0.012620
C33	C	0.818812	0.495770	-0.031209
C34	C	0.821366	0.669979	-0.042139
N35	N	0.821908	0.208788	0.175464
N36	N	0.821961	0.208815	-0.201874
C37	C	0.868417	0.101806	0.220270
C38	C	0.868422	0.101799	0.296499
C39	C	0.821924	0.208801	0.327916
C40	C	0.775406	0.315792	0.283099
C41	C	0.775398	0.315785	0.206873
C42	C	0.813796	0.351797	0.439705
C43	C	0.813808	0.351805	0.515930
C44	C	0.821944	0.208821	0.563022
C45	C	0.830082	0.065822	0.533881
C46	C	0.830074	0.065815	0.457655
C47	C	0.821927	0.208820	0.410569
C48	C	0.868460	0.101822	0.690484
C49	C	0.868460	0.101813	0.766714
C50	C	0.775447	0.315819	0.753313
C51	C	0.775444	0.315815	0.677085
C52	C	0.821955	0.208818	0.645676
H53	H	0.379164	0.377779	-0.115556
N54	N	0.918575	-0.013600	0.186392
H55	H	0.967991	0.004188	0.198522
H56	H	0.909764	-0.124885	0.206668
N57	N	0.173699	0.203846	0.124299
H58	H	0.198786	0.302112	0.121080
H59	H	0.139698	0.202645	0.166151
H60	H	0.737546	0.402912	0.308683
N61	N	0.620792	0.218768	-0.151018
H62	H	0.672193	0.220486	-0.141107
H63	H	0.613116	0.121082	-0.173719
H64	H	0.737524	0.402904	0.170390
H65	H	0.737585	0.402936	0.778892
H66	H	0.479747	0.214058	-0.133289
N67	N	0.821194	-0.340831	0.092425
H68	H	0.822314	-0.264260	0.129483
H69	H	0.777253	-0.395712	0.098713
N70	N	0.918585	-0.013596	0.344839
H71	H	0.948046	-0.081380	0.313374
H72	H	0.949695	0.046319	0.372690
H73	H	0.032742	0.199202	-0.132402
N74	N	0.822628	-0.241554	-0.118840
H75	H	0.824318	-0.125466	-0.116040
H76	H	0.865144	-0.283079	-0.145115
H77	H	0.836698	-0.050619	0.433931
H78	H	0.479656	0.214054	0.106243
H79	H	0.836706	-0.050610	0.572222
H80	H	0.906329	0.014694	0.664910
H81	H	0.906331	0.014687	0.803198
H82	H	0.737575	0.402936	0.640601
N83	N	0.805028	0.506029	0.547359
H84	H	0.799861	0.596608	0.505961
H85	H	0.762067	0.509548	0.578780
H86	H	0.164204	0.203558	-0.132664
N87	N	0.236889	0.397392	-0.130168
H88	H	0.186195	0.381739	-0.121517
H89	H	0.243689	0.512471	-0.130615
N90	N	0.023077	0.198839	0.124607
H91	H	-0.028323	0.197121	0.114695
H92	H	0.040715	0.101982	0.159505
H93	H	0.807159	0.468240	0.401368
N94	N	0.256364	0.015182	0.104045
H95	H	0.293282	-0.041918	0.139670
H96	H	0.222677	0.084690	0.130736
H97	H	0.396167	0.044176	0.088880
N98	N	0.620700	0.218772	0.123413
H99	H	0.586737	0.217642	0.165300
H100	H	0.655742	0.122504	0.132332
