data_functionalizedCrystal
_audit_creation_method	'MofGen! by Chris Wilmer'
_symmetry_space_group_name_H-M	'P1'
_symmetry_Int_Tables_number	1
_symmetry_cell_setting	triclinic
loop_
_symmetry_equiv_pos_as_xyz
  x,y,z
_cell_length_a	14.853567
_cell_length_b	10.065875
_cell_length_c	10.967829
_cell_angle_alpha	86.921207
_cell_angle_beta	84.185224
_cell_angle_gamma	81.243377
loop_
_atom_site_label
_atom_site_type_symbol
_atom_site_fract_x
_atom_site_fract_y
_atom_site_fract_z
O1	O	1.214068	-0.146163	0.139326
O2	O	0.952221	-0.150582	0.158020
O3	O	1.084451	-0.107210	-0.026323
O4	O	1.081838	-0.189535	0.323669
O5	O	1.059241	0.111475	0.008970
O6	O	0.927011	0.068103	0.193313
O7	O	1.188858	0.072522	0.174619
Zn8	Zn	1.053932	0.105034	0.189570
Zn9	Zn	1.087147	-0.183093	0.143070
O10	O	1.056628	0.029150	0.358962
C11	C	0.906000	-0.041043	0.174819
C12	C	0.805834	-0.040455	0.172279
N13	N	1.031270	0.301673	0.221304
N14	N	1.109816	-0.379730	0.111326
C15	C	0.389378	-0.012143	0.052047
C16	C	0.375235	-0.063659	0.271053
C17	C	0.469347	-0.064225	0.273439
C18	C	0.523479	-0.038751	0.165127
C19	C	0.483499	-0.012712	0.054430
C20	C	0.509336	-0.090277	0.384133
C21	C	0.603454	-0.090845	0.386523
C22	C	0.657587	-0.065362	0.278212
C23	C	0.617601	-0.039320	0.167510
C24	C	0.671733	-0.013847	0.059198
C25	C	0.631748	0.012205	-0.051504
C26	C	0.537632	0.012771	-0.053882
C27	C	0.751702	-0.065928	0.280590
C28	C	0.765854	-0.014416	0.061581
C29	C	1.235080	-0.037019	0.157820
C30	C	1.335246	-0.037617	0.160359
C31	C	1.069751	0.012665	-0.053468
C32	C	1.063498	0.044049	-0.186931
C33	C	1.079256	0.385262	0.154103
C34	C	1.061822	0.536681	0.178536
C35	C	1.073770	-0.055246	-0.264711
C36	C	1.067308	-0.022811	-0.402653
C37	C	1.071328	-0.090728	0.386106
C38	C	1.077582	-0.122120	0.519569
H39	H	0.675835	0.032936	-0.139692
O40	O	1.143581	0.336745	0.063854
C41	C	1.101801	0.274524	-0.023037
H42	H	1.035265	0.242804	0.021596
H43	H	1.086495	0.348362	-0.103396
C44	C	1.248438	0.188618	-0.124510
C45	C	1.166721	0.149650	-0.069688
H46	H	1.288485	0.111594	-0.153292
H47	H	1.276587	0.230542	-0.065974
H48	H	1.235671	0.250152	-0.191469
H49	H	1.179488	0.088131	-0.002722
H50	H	1.138576	0.107713	-0.128215
H51	H	0.356817	0.009072	-0.038083
O52	O	0.997348	0.585204	0.268617
C53	C	0.930293	0.679961	0.217099
H54	H	0.960515	0.722575	0.126293
H55	H	0.869423	0.628888	0.200522
C56	C	0.861330	0.742554	0.417410
C57	C	0.898451	0.794903	0.305885
H58	H	0.841684	0.813453	0.472179
H59	H	0.906503	0.678712	0.452120
H60	H	0.810609	0.699994	0.403579
H61	H	0.949177	0.837446	0.319715
H62	H	0.853285	0.858755	0.271180
O63	O	0.790627	-0.091038	0.388066
C64	C	0.831572	0.020365	0.414300
H65	H	0.847462	0.080411	0.325681
H66	H	0.782671	0.087174	0.480222
C67	C	0.901377	-0.103052	0.582460
C68	C	0.920900	-0.029310	0.473615
H69	H	0.956477	-0.133692	0.619053
H70	H	0.873789	-0.178106	0.564789
H71	H	0.860624	-0.047367	0.637381
H72	H	0.961643	-0.085000	0.418691
H73	H	0.948497	0.045733	0.491278
O74	O	1.174015	0.571987	0.020834
C75	C	1.132025	0.509994	-0.065991
H76	H	1.065616	0.478056	-0.021143
H77	H	1.116453	0.584069	-0.146097
C78	C	1.278467	0.424579	-0.168290
C79	C	1.196905	0.385343	-0.113203
H80	H	1.318488	0.347692	-0.197417
H81	H	1.306757	0.466349	-0.109797
H82	H	1.265477	0.486310	-0.235038
H83	H	1.209894	0.323626	-0.046448
H84	H	1.168619	0.343559	-0.171686
H85	H	1.091150	-0.231151	-0.444904
H86	H	1.049914	0.153071	-0.222463
O87	O	0.818424	0.010103	-0.043706
C88	C	0.812752	-0.087323	-0.129196
H89	H	0.791857	-0.181398	-0.078556
H90	H	0.759582	-0.045319	-0.194722
C91	C	0.932270	-0.007862	-0.264666
C92	C	0.906614	-0.123411	-0.202469
H93	H	0.990166	-0.030120	-0.309869
H94	H	0.936089	0.057779	-0.207073
H95	H	0.887954	0.027130	-0.319261
H96	H	0.950924	-0.158391	-0.147864
H97	H	0.902804	-0.189060	-0.260055
O98	O	0.498775	0.037824	-0.161416
C99	C	0.457789	-0.073559	-0.187601
H100	H	0.491265	-0.167503	-0.137519
H101	H	0.381611	-0.054449	-0.155848
C102	C	0.429588	0.021247	-0.388261
C103	C	0.470709	-0.094140	-0.326758
H104	H	0.437553	0.008553	-0.474099
H105	H	0.457197	0.096290	-0.370619
H106	H	0.366109	0.037159	-0.361786
H107	H	0.534188	-0.110041	-0.353221
H108	H	0.443111	-0.169187	-0.344408
H109	H	1.053723	0.086218	-0.438179
H110	H	0.977277	0.342208	0.296921
H111	H	0.465257	-0.111029	0.472312
O112	O	0.322517	-0.088318	0.376158
C113	C	0.230879	-0.082271	0.350311
H114	H	0.219335	-0.018661	0.262556
H115	H	0.215924	-0.188247	0.337897
C116	C	0.180750	-0.096564	0.565173
C117	C	0.166570	-0.018427	0.457396
H118	H	0.141080	-0.057188	0.631229
H119	H	0.242489	-0.100643	0.582587
H120	H	0.168289	-0.184873	0.554811
H121	H	0.179043	0.069874	0.467754
H122	H	0.104832	-0.014331	0.439986
H123	H	0.636001	-0.112057	0.476663
H124	H	1.087345	-0.164268	-0.229177
