data_functionalizedCrystal
_audit_creation_method	'MofGen! by Chris Wilmer'
_symmetry_space_group_name_H-M	'P1'
_symmetry_Int_Tables_number	1
_symmetry_cell_setting	triclinic
loop_
_symmetry_equiv_pos_as_xyz
  x,y,z
_cell_length_a	18.215407
_cell_length_b	12.759394
_cell_length_c	18.215399
_cell_angle_alpha	90.023313
_cell_angle_beta	90.019833
_cell_angle_gamma	90.015089
loop_
_atom_site_label
_atom_site_type_symbol
_atom_site_fract_x
_atom_site_fract_y
_atom_site_fract_z
Zn1	Zn	1.125124	-0.418265	0.416140
Zn2	Zn	1.125055	-0.593962	0.293083
Zn3	Zn	1.002057	-0.418299	0.293087
Zn4	Zn	1.002045	-0.593904	0.416108
O5	O	1.063570	-0.506107	0.354604
O6	O	1.228099	-0.441581	0.399828
O7	O	1.108715	-0.570699	0.190099
O8	O	1.018416	-0.271273	0.309425
O9	O	1.228048	-0.570666	0.309419
O10	O	1.108833	-0.271248	0.399831
O11	O	1.018349	-0.441640	0.190102
O12	O	0.899071	-0.441583	0.309394
O13	O	1.018396	-0.570566	0.519097
O14	O	0.899062	-0.570599	0.399778
O15	O	1.108822	-0.441525	0.519120
O16	O	1.108703	-0.740975	0.309388
O17	O	1.018328	-0.740932	0.399774
C18	C	0.872364	-0.506089	0.354583
C19	C	0.790565	-0.506107	0.354592
C20	C	0.602386	-0.573391	0.401595
C21	C	0.525527	-0.573395	0.401604
C22	C	0.525507	-0.438843	0.307630
C23	C	0.602364	-0.438835	0.307625
C24	C	0.640802	-0.506115	0.354607
C25	C	0.487085	-0.506126	0.354621
C26	C	0.403752	-0.506129	0.354630
C27	C	0.724141	-0.506111	0.354598
C28	C	1.063527	-0.779075	0.354593
C29	C	1.063575	-0.895852	0.354613
C30	C	1.157839	-1.115266	0.260595
C31	C	1.204910	-1.060390	0.213566
C32	C	1.204872	-0.950669	0.213551
C33	C	1.157756	-0.895821	0.260570
C34	C	1.110685	-0.950697	0.307599
C35	C	1.110730	-1.060421	0.307610
C36	C	1.016504	-0.950728	0.401642
C37	C	1.016545	-1.060449	0.401662
C38	C	0.969388	-0.895880	0.448660
C39	C	0.922320	-0.950756	0.495694
C40	C	0.922360	-1.060484	0.495707
C41	C	0.969474	-1.115325	0.448691
C42	C	1.255523	-0.506126	0.354626
C43	C	1.337322	-0.506134	0.354635
C44	C	1.063615	-0.506035	0.546558
C45	C	1.063634	-0.506004	0.628356
C46	C	1.063634	-0.232074	0.354632
C47	C	1.063661	-0.115297	0.354644
C48	C	1.063568	-0.506104	0.163398
C49	C	1.063691	-0.505839	0.081600
C50	C	1.110736	-0.438749	0.816564
C51	C	1.110745	-0.438719	0.893422
C52	C	1.016584	-0.573096	0.893387
C53	C	1.016572	-0.573121	0.816530
C54	C	1.063652	-0.505949	0.778120
C55	C	1.063673	-0.505894	0.931836
C56	C	1.063682	-0.505861	1.015170
C57	C	1.063642	-0.505980	0.694781
H58	H	0.494201	-0.384067	0.269378
F59	F	0.643251	-0.367221	0.257614
F60	F	1.160862	-0.367203	0.934334
F61	F	0.484645	-0.644997	0.451618
F62	F	0.872255	-1.118879	0.545759
F63	F	0.966484	-0.644585	0.934272
H64	H	0.978226	-0.627842	0.785228
F65	F	0.969307	-1.232100	0.448486
F66	F	1.157660	-1.232041	0.260383
F67	F	1.255053	-1.118770	0.163529
H68	H	1.243198	-0.905988	0.175254
F69	F	0.643291	-0.644994	0.451599
H70	H	1.157723	-0.806480	0.260547
F71	F	0.969494	-0.779104	0.448789
F72	F	0.872179	-0.892378	0.545726
F73	F	1.160841	-0.367257	0.775688
