data_functionalizedCrystal
_audit_creation_method	'MofGen! by Chris Wilmer'
_symmetry_space_group_name_H-M	'P1'
_symmetry_Int_Tables_number	1
_symmetry_cell_setting	triclinic
loop_
_symmetry_equiv_pos_as_xyz
  x,y,z
_cell_length_a	19.188930
_cell_length_b	16.992694
_cell_length_c	15.455341
_cell_angle_alpha	92.828636
_cell_angle_beta	87.005924
_cell_angle_gamma	93.093497
loop_
_atom_site_label
_atom_site_type_symbol
_atom_site_fract_x
_atom_site_fract_y
_atom_site_fract_z
O1	O	0.145124	-1.036828	0.072038
O2	O	0.645124	-0.536828	0.572038
O3	O	0.143499	-0.808547	0.072064
O4	O	0.643499	-0.308547	0.572064
O5	O	0.043042	-0.929276	0.072033
O6	O	0.543042	-0.429276	0.572033
O7	O	0.245580	-0.916099	0.072069
O8	O	0.745580	-0.416099	0.572069
O9	O	0.048834	-0.935385	-0.072227
O10	O	0.548834	-0.435385	0.427773
O11	O	0.149291	-0.814656	-0.072197
O12	O	0.649291	-0.314656	0.427803
O13	O	0.150916	-1.042937	-0.072223
O14	O	0.650916	-0.542937	0.427777
Cu15	Cu	0.150633	-0.929354	-0.085382
Cu16	Cu	0.650633	-0.429354	0.414618
Cu17	Cu	0.143782	-0.922130	0.085223
Cu18	Cu	0.643782	-0.422130	0.585223
O19	O	0.251373	-0.922208	-0.072192
O20	O	0.751373	-0.422208	0.427808
C21	C	0.019902	-0.931904	-0.000099
C22	C	0.519902	-0.431904	0.499901
C23	C	-0.057677	-0.930623	-0.000107
C24	C	0.442323	-0.430623	0.499893
C25	C	0.144306	-0.782396	-0.000064
C26	C	0.644306	-0.282396	0.499936
C27	C	0.138072	-0.695373	-0.000055
C28	C	0.638072	-0.195373	0.499945
C29	C	0.150109	-1.069088	-0.000093
C30	C	0.650109	-0.569088	0.499907
C31	C	0.156342	-1.156111	-0.000096
C32	C	0.656342	-0.656111	0.499904
C33	C	-0.098455	-1.001463	-0.000119
C34	C	0.401545	-0.501463	0.499881
C35	C	-0.171350	-1.000259	-0.000105
C36	C	0.328650	-0.500259	0.499895
C37	C	-0.203463	-0.928212	-0.000096
C38	C	0.296537	-0.428212	0.499904
C39	C	-0.162676	-0.857363	-0.000079
C40	C	0.337324	-0.357363	0.499921
C41	C	-0.089783	-0.858569	-0.000085
C42	C	0.410217	-0.358569	0.499915
N43	N	-0.312719	-0.875220	-0.049185
N44	N	0.187281	-0.375220	0.450815
N45	N	-0.381965	-0.874080	-0.049182
N46	N	0.118035	-0.374080	0.450818
C47	C	-0.423085	-0.924576	-0.000078
C48	C	0.076915	-0.424576	0.499922
N49	N	-0.392344	-0.976267	0.049011
N50	N	0.107656	-0.476267	0.549011
N51	N	-0.323092	-0.977410	0.049004
N52	N	0.176908	-0.477410	0.549004
C53	C	-0.282503	-0.926897	-0.000090
C54	C	0.217497	-0.426897	0.499910
C55	C	-0.542904	-0.994115	-0.000074
C56	C	-0.042904	-0.494115	0.499926
C57	C	-0.615801	-0.992908	-0.000054
C58	C	-0.115801	-0.492908	0.499946
C59	C	-0.607124	-0.850010	-0.000038
C60	C	-0.107124	-0.350010	0.499962
C61	C	-0.534230	-0.851219	-0.000048
C62	C	-0.034230	-0.351219	0.499952
C63	C	-0.502124	-0.923274	-0.000070
C64	C	-0.002124	-0.423274	0.499930
C65	C	0.274513	-0.919580	-0.000057
C66	C	0.774513	-0.419580	0.499943
C67	C	0.352092	-0.920860	-0.000044
C68	C	0.852092	-0.420860	0.499956
N69	N	0.155451	-0.934441	-0.205377
N70	N	0.655451	-0.434441	0.294623
C71	C	0.198212	-0.644926	-0.000045
C72	C	0.698212	-0.144926	0.499955
C73	C	0.192351	-0.563160	-0.000058
C74	C	0.692351	-0.063160	0.499942
C75	C	0.126351	-0.531842	-0.000075
C76	C	0.626351	-0.031842	0.499925
C77	C	0.066208	-0.582296	-0.000087
C78	C	0.566208	-0.082296	0.499913
C79	C	0.072069	-0.664061	-0.000080
C80	C	0.572069	-0.164061	0.499920
C81	C	0.102060	-0.288329	-0.000102
C82	C	0.602060	0.211671	0.499898
C83	C	0.096203	-0.206558	-0.000106
C84	C	0.596203	0.293442	0.499894
C85	C	0.222347	-0.187427	-0.000079
C86	C	0.722347	0.312573	0.499921
C87	C	0.228202	-0.269194	-0.000067
C88	C	0.728202	0.230806	0.499933
C89	C	0.168059	-0.319641	-0.000084
C90	C	0.668059	0.180359	0.499916
N91	N	0.120360	-0.448264	-0.000085
N92	N	0.620360	0.051736	0.499915
N93	N	0.174052	-0.403217	-0.000079
N94	N	0.674052	0.096783	0.499921
C95	C	0.182150	-0.962523	-0.749379
C96	C	0.682150	-0.462523	-0.249379
C97	C	0.178502	-0.958681	-0.658572
C98	C	0.678502	-0.458681	-0.158572
C99	C	0.131658	-0.909368	-0.613169
C100	C	0.631658	-0.409368	-0.113169
C101	C	0.088464	-0.863889	-0.658578
C102	C	0.588464	-0.363889	-0.158578
C103	C	0.092117	-0.867727	-0.749384
C104	C	0.592117	-0.367727	-0.249384
C105	C	0.115910	-0.892801	-0.341591
C106	C	0.615910	-0.392801	0.158409
C107	C	0.112259	-0.888967	-0.250779
C108	C	0.612259	-0.388967	0.249221
C109	C	0.202298	-0.983758	-0.250779
C110	C	0.702298	-0.483758	0.249221
C111	C	0.205943	-0.987596	-0.341587
C112	C	0.705943	-0.487596	0.158413
C113	C	0.162753	-0.942114	-0.386988
C114	C	0.662753	-0.442114	0.113012
N115	N	0.127926	-0.905441	-0.520350
N116	N	0.627926	-0.405441	-0.020350
N117	N	0.166489	-0.946038	-0.479806
N118	N	0.666489	-0.446038	0.020194
N119	N	0.138959	-0.917049	0.205218
N120	N	0.638959	-0.417049	0.705218
H121	H	-0.204558	-1.057947	-0.000111
H122	H	0.295442	-0.557947	0.499889
H123	H	-0.501027	-0.793534	-0.000043
H124	H	-0.001027	-0.293534	0.499957
H125	H	0.053086	-0.329394	-0.000117
H126	H	0.553086	0.170606	0.499883
O127	O	-0.063831	-1.079178	-0.000136
O128	O	0.436169	-0.579178	0.499864
H129	H	-0.006292	-1.068119	-0.000144
H130	H	0.493708	-0.568119	0.499856
H131	H	0.074113	-0.848806	-0.213815
H132	H	0.574113	-0.348806	0.286185
O133	O	0.025013	-0.172780	-0.000138
O134	O	0.525013	0.327220	0.499862
H135	H	0.016957	-0.133493	0.058660
H136	H	0.516957	0.366507	0.558660
H137	H	-0.188827	-0.798702	-0.000070
H138	H	0.311173	-0.298702	0.499930
H139	H	0.012469	-0.556792	-0.000113
H140	H	0.512469	-0.056792	0.499887
O141	O	0.287215	-0.133020	-0.000079
O142	O	0.787215	0.366980	0.499921
H143	H	0.272056	-0.070903	-0.000096
H144	H	0.772056	0.429097	0.499904
H145	H	0.213672	-0.995712	-0.621609
H146	H	0.713672	-0.495712	-0.121609
O147	O	-0.045797	-0.782159	-0.000088
O148	O	0.454203	-0.282159	0.499912
H149	H	-0.060058	-0.745172	0.058711
H150	H	0.439942	-0.245172	0.558711
H151	H	0.050326	-0.823733	-0.621604
H152	H	0.550326	-0.323733	-0.121604
H153	H	-0.516763	-1.052786	-0.000088
H154	H	-0.016763	-0.552786	0.499912
H155	H	-0.649002	-1.050596	-0.000059
H156	H	-0.149002	-0.550596	0.499941
O157	O	0.299394	-0.302960	-0.000057
O158	O	0.799394	0.197040	0.499943
H159	H	0.302727	-0.337249	0.058749
H160	H	0.802727	0.162751	0.558749
O161	O	0.069304	-0.843753	-0.390527
O162	O	0.569304	-0.343753	0.109473
H163	H	0.102038	-0.803230	-0.431878
H164	H	0.602038	-0.303230	0.068122
H165	H	0.220293	-1.002682	-0.786340
H166	H	0.720293	-0.502682	-0.286340
O167	O	0.007206	-0.718478	-0.000088
O168	O	0.507206	-0.218478	0.499912
H169	H	-0.039674	-0.682966	-0.000093
H170	H	0.460326	-0.182966	0.499907
H171	H	-0.633270	-0.791348	-0.000026
H172	H	-0.133270	-0.291348	0.499974
H173	H	0.251956	-0.670417	-0.000031
H174	H	0.751956	-0.170417	0.499969
O175	O	0.256470	-1.040781	-0.390558
O176	O	0.756470	-0.540781	0.109442
H177	H	0.285895	-1.071753	-0.343730
H178	H	0.785895	-0.571753	0.156270
O179	O	0.257215	-0.508746	-0.000048
O180	O	0.757215	-0.008746	0.499952
H181	H	0.304093	-0.544259	-0.000025
H182	H	0.804093	-0.044259	0.499975
O183	O	0.248891	-1.032802	-0.201814
O184	O	0.748891	-0.532802	0.298186
H185	H	0.238489	-1.021844	-0.131043
H186	H	0.738489	-0.521844	0.368957
H187	H	0.056947	-0.830696	-0.786350
H188	H	0.556947	-0.330696	-0.286350
