data_functionalizedCrystal
_audit_creation_method	'MofGen! by Chris Wilmer'
_symmetry_space_group_name_H-M	'P1'
_symmetry_Int_Tables_number	1
_symmetry_cell_setting	triclinic
loop_
_symmetry_equiv_pos_as_xyz
  x,y,z
_cell_length_a	15.944551
_cell_length_b	15.538191
_cell_length_c	14.185569
_cell_angle_alpha	97.875798
_cell_angle_beta	103.151204
_cell_angle_gamma	114.614584
loop_
_atom_site_label
_atom_site_type_symbol
_atom_site_fract_x
_atom_site_fract_y
_atom_site_fract_z
O1	O	0.247235	1.228519	-0.083454
O2	O	0.150253	0.954269	-0.083444
O3	O	0.323300	1.098881	-0.083455
O4	O	0.074187	1.083906	-0.083443
O5	O	0.374416	1.141601	0.083376
O6	O	0.201368	0.996988	0.083387
O7	O	0.298351	1.271239	0.083377
Cu8	Cu	0.254527	1.138014	0.098615
Cu9	Cu	0.194076	1.087493	-0.098682
O10	O	0.125303	1.126626	0.083388
C11	C	0.165664	0.940534	-0.000027
C12	C	0.135439	0.835963	-0.000024
C13	C	0.435710	0.548146	-0.000054
C14	C	0.407288	0.449882	-0.000054
C15	C	0.247421	0.427451	-0.000045
C16	C	0.275831	0.525716	-0.000041
C17	C	0.369977	0.586056	-0.000047
C18	C	0.210098	0.563627	-0.000034
C19	C	0.238505	0.661882	-0.000035
C20	C	0.332645	0.722227	-0.000043
C21	C	0.398383	0.684311	-0.000048
C22	C	0.115951	0.503283	-0.000035
C23	C	0.050217	0.541194	-0.000028
C24	C	0.078626	0.639452	-0.000022
C25	C	0.172766	0.699797	-0.000030
C26	C	0.012887	0.677368	-0.000017
C27	C	0.041294	0.775623	-0.000018
C28	C	0.201173	0.798053	-0.000031
C29	C	0.068641	1.105888	-0.000026
C30	C	-0.024035	1.107753	-0.000022
C31	C	-0.210205	1.201844	-0.000040
C32	C	-0.259341	1.179213	0.082219
C33	C	-0.193736	1.111124	-0.000031
C34	C	-0.309730	1.137073	-0.082264
C35	C	-0.357657	1.114385	-0.000044
C36	C	-0.241631	1.088485	0.082296
C37	C	-0.292031	1.046339	-0.082260
C38	C	-0.341165	1.023647	0.000019
C39	C	-0.099303	1.109248	-0.000022
C40	C	-0.452088	1.116255	-0.000045
C41	C	0.379962	1.119619	-0.000043
C42	C	0.472636	1.117752	-0.000054
C43	C	0.282939	1.284973	-0.000042
C44	C	0.313161	1.389542	-0.000052
N45	N	0.297047	1.173555	0.237384
N46	N	0.151565	1.051960	-0.237450
C47	C	0.026678	0.947541	0.605051
C48	C	0.058883	0.974469	0.710070
C49	C	0.212082	1.102550	0.710022
C50	C	0.179892	1.075629	0.605000
C51	C	0.087189	0.998125	0.552523
C52	C	0.240402	1.126213	0.552472
C53	C	0.208213	1.099298	0.447459
C54	C	0.115512	1.021798	0.394975
C55	C	0.054999	0.971209	0.447511
C56	C	0.333103	1.203721	0.604951
C57	C	0.393613	1.254305	0.552423
C58	C	0.361427	1.227386	0.447408
C59	C	0.268726	1.149886	0.394924
C60	C	0.421940	1.277975	0.394873
C61	C	0.389750	1.251059	0.289861
C62	C	0.236536	1.122971	0.289912
H63	H	0.512374	0.597280	-0.000053
Br64	Br	-0.192251	1.054294	0.198336
H65	H	-0.048806	0.884423	0.562322
H66	H	0.355768	0.802229	-0.000058
Br67	Br	-0.116379	1.327386	0.000083
H68	H	-0.246441	1.235392	0.151760
H69	H	-0.020486	0.908091	0.404782
H70	H	0.089303	0.999888	0.309467
H71	H	-0.397291	0.948289	0.000068
Br72	Br	-0.023257	0.905812	0.781352
Br73	Br	0.119653	0.345552	-0.000048
Br74	Br	0.110729	1.017771	0.218687
H75	H	0.287561	1.165657	0.752760
Br76	Br	0.376782	1.240253	0.747470
H77	H	-0.304902	0.990191	-0.151805
H78	H	0.469092	1.317413	0.595162
Br79	Br	0.547740	1.383168	0.466101
H80	H	0.277837	0.847187	-0.000030
Br81	Br	0.526159	0.766215	-0.000038
Br82	Br	0.496513	0.398439	-0.000049
H83	H	0.092824	0.423277	-0.000038
H84	H	0.439024	1.292251	0.247092
Br85	Br	-0.359220	1.171377	-0.198165
H86	H	-0.026437	0.492051	-0.000027
H87	H	-0.012230	0.806492	-0.000003
Br88	Br	-0.114883	0.595462	-0.000032
