data_functionalizedCrystal
_audit_creation_method	'MofGen! by Chris Wilmer'
_symmetry_space_group_name_H-M	'P1'
_symmetry_Int_Tables_number	1
_symmetry_cell_setting	triclinic
loop_
_symmetry_equiv_pos_as_xyz
  x,y,z
_cell_length_a	16.974897
_cell_length_b	14.519731
_cell_length_c	16.053802
_cell_angle_alpha	92.569546
_cell_angle_beta	83.774775
_cell_angle_gamma	83.544620
loop_
_atom_site_label
_atom_site_type_symbol
_atom_site_fract_x
_atom_site_fract_y
_atom_site_fract_z
O1	O	1.056057	0.109729	-0.140711
O2	O	0.825128	0.125558	-0.125126
O3	O	0.946706	-0.016635	-0.133324
O4	O	0.934479	0.251923	-0.132514
O5	O	0.940014	-0.008840	0.005987
O6	O	0.818436	0.133353	0.014184
O7	O	1.049365	0.117524	-0.001401
Zn8	Zn	0.932838	0.126676	0.028510
Zn9	Zn	0.941655	0.116406	-0.155037
O10	O	0.927786	0.259717	0.006797
C11	C	0.792227	0.128996	-0.053476
C12	C	0.704164	0.127615	-0.047533
C13	C	0.666432	0.122720	-0.120672
C14	C	0.583685	0.121438	-0.115076
C15	C	0.538672	0.125045	-0.036338
C16	C	0.576409	0.129943	0.036807
C17	C	0.659154	0.131232	0.031209
C18	C	0.290811	0.121653	-0.011454
C19	C	0.208061	0.120362	-0.005862
C20	C	0.215342	0.111859	-0.157745
C21	C	0.298088	0.113142	-0.163336
C22	C	0.335818	0.118045	-0.090191
N23	N	0.454092	0.123732	-0.030616
N24	N	0.420396	0.119365	-0.095914
C25	C	0.942787	-0.047093	-0.063630
C26	C	0.941070	-0.149462	-0.063513
C27	C	0.939675	-0.232596	-0.063421
C28	C	0.937932	-0.336893	-0.063310
C29	C	0.936549	-0.420023	-0.063222
C30	C	0.934806	-0.524327	-0.063109
C31	C	1.082265	0.114086	-0.073053
C32	C	1.170329	0.115467	-0.079001
C33	C	0.931706	0.290175	-0.062899
C34	C	0.933423	0.392543	-0.063021
N35	N	0.926826	0.133684	0.153776
N36	N	0.947673	0.109391	-0.280303
C37	C	0.978577	0.073202	0.193980
C38	C	0.974379	0.078113	0.281670
C39	C	0.918434	0.143511	0.329153
C40	C	0.866678	0.203996	0.288943
C41	C	0.870872	0.199080	0.201255
C42	C	0.900111	0.164959	0.591798
C43	C	0.895922	0.169873	0.679492
C44	C	1.003623	0.043988	0.672213
C45	C	1.007815	0.039081	0.584524
C46	C	0.956057	0.099563	0.544321
N47	N	0.914143	0.148535	0.418786
N48	N	0.960344	0.094534	0.454690
H49	H	0.184613	0.107869	-0.217295
H50	H	0.828730	0.248330	0.168522
H51	H	1.024136	0.019952	0.155324
H52	H	0.703076	0.119781	-0.184789
H53	H	1.016518	0.028863	0.314404
O54	O	1.062182	-0.024532	0.538529
C55	C	1.106973	-0.076849	0.592818
H56	H	1.071461	-0.074248	0.657529
H57	H	1.165496	-0.046635	0.598145
C58	C	1.168432	-0.181517	0.478034
C59	C	1.124813	-0.178330	0.557511
H60	H	1.179441	-0.244115	0.456254
H61	H	1.138258	-0.146269	0.441457
H62	H	1.217196	-0.156334	0.482483
H63	H	1.076047	-0.203502	0.553059
H64	H	1.154980	-0.213585	0.594086
H65	H	0.689874	0.135221	0.090767
H66	H	1.045761	-0.005254	0.704954
H67	H	0.850362	0.223132	0.718150
O68	O	0.849803	0.223810	0.552885
C69	C	0.799516	0.282571	0.613602
H70	H	0.829054	0.286974	0.673903
H71	H	0.740102	0.253403	0.626931
C72	C	0.748666	0.374803	0.506401
C73	C	0.784948	0.380217	0.580462
H74	H	0.739676	0.435035	0.485958
H75	H	0.782542	0.335213	0.465494
H76	H	0.699158	0.350493	0.517519
H77	H	0.834459	0.404516	0.569341
H78	H	0.751079	0.419814	0.621366
H79	H	0.552967	0.117453	-0.174634
H80	H	0.334733	0.110199	-0.227452
O81	O	0.812223	0.267428	0.335038
C82	C	0.734705	0.251583	0.318919
H83	H	0.735367	0.176398	0.294858
H84	H	0.713912	0.299947	0.269586
C85	C	0.676412	0.362850	0.430008
C86	C	0.677223	0.270504	0.400462
H87	H	0.640953	0.374525	0.480305
H88	H	0.728636	0.373528	0.440866
H89	H	0.659086	0.403142	0.388890
H90	H	0.694558	0.230214	0.441575
H91	H	0.625000	0.259819	0.389613
H92	H	0.171410	0.123325	0.058259
O93	O	0.327333	0.126372	0.059679
C94	C	0.269855	0.129298	0.130371
H95	H	0.215180	0.097936	0.111877
H96	H	0.251726	0.204447	0.154864
C97	C	0.372570	0.111866	0.222203
C98	C	0.305420	0.073339	0.199489
H99	H	0.394508	0.077352	0.264840
H100	H	0.411294	0.109898	0.174577
H101	H	0.357452	0.174489	0.242608
H102	H	0.320540	0.010721	0.179075
H103	H	0.266698	0.075295	0.247114
O104	O	0.532801	0.133492	0.113360
C105	C	0.583854	0.138066	0.176714
H106	H	0.640663	0.166937	0.150679
H107	H	0.599745	0.065529	0.198917
C108	C	0.471639	0.166588	0.283073
C109	C	0.541411	0.202055	0.251098
H110	H	0.445459	0.206055	0.328959
H111	H	0.437244	0.163503	0.240391
H112	H	0.484892	0.106141	0.301569
H113	H	0.528157	0.262495	0.232593
H114	H	0.575804	0.205151	0.293779
