data_functionalizedCrystal
_audit_creation_method	'MofGen! by Chris Wilmer'
_symmetry_space_group_name_H-M	'P1'
_symmetry_Int_Tables_number	1
_symmetry_cell_setting	triclinic
loop_
_symmetry_equiv_pos_as_xyz
  x,y,z
_cell_length_a	17.038272
_cell_length_b	17.038272
_cell_length_c	16.098538
_cell_angle_alpha	87.079695
_cell_angle_beta	87.069734
_cell_angle_gamma	88.888444
loop_
_atom_site_label
_atom_site_type_symbol
_atom_site_fract_x
_atom_site_fract_y
_atom_site_fract_z
O1	O	1.052033	-0.167266	-0.069152
O2	O	1.385366	0.166067	0.264181
O3	O	1.718699	0.499401	0.597514
O4	O	0.824222	-0.164557	-0.069177
O5	O	1.157556	0.168776	0.264156
O6	O	1.490889	0.502110	0.597490
O7	O	0.936773	-0.052006	-0.069158
O8	O	1.270106	0.281327	0.264175
O9	O	1.603440	0.614661	0.597508
O10	O	0.939482	-0.279817	-0.069171
O11	O	1.272815	0.053516	0.264162
O12	O	1.606148	0.386850	0.597496
O13	O	0.930197	-0.058553	0.069354
O14	O	1.263530	0.274780	0.402687
O15	O	1.596863	0.608114	0.736020
O16	O	0.817646	-0.171104	0.069335
O17	O	1.150979	0.162229	0.402668
O18	O	1.484312	0.495563	0.736002
O19	O	1.045456	-0.173813	0.069359
O20	O	1.378789	0.159520	0.402693
O21	O	1.712123	0.492854	0.736026
Zn22	Zn	0.930507	-0.173498	0.091339
Zn23	Zn	1.263840	0.159835	0.424672
Zn24	Zn	1.597173	0.493169	0.758006
Zn25	Zn	0.939172	-0.164872	-0.091156
Zn26	Zn	1.272505	0.168461	0.242177
Zn27	Zn	1.605838	0.501795	0.575510
O28	O	0.932905	-0.286364	0.069341
O29	O	1.266238	0.046969	0.402674
O30	O	1.599572	0.380303	0.736007
C31	C	0.791641	-0.165367	0.000076
C32	C	1.124975	0.167966	0.333409
C33	C	1.458308	0.501299	0.666743
C34	C	0.704358	-0.158019	0.000067
C35	C	1.037692	0.175314	0.333400
C36	C	1.371025	0.508648	0.666733
C37	C	0.658749	-0.225482	0.000064
C38	C	0.992082	0.107851	0.333397
C39	C	1.325416	0.441184	0.666730
C40	C	0.576737	-0.218574	0.000075
C41	C	0.910070	0.114759	0.333409
C42	C	1.243403	0.448093	0.666742
C43	C	0.540335	-0.144201	0.000085
C44	C	0.873668	0.189132	0.333418
C45	C	1.207002	0.522466	0.666751
C46	C	0.585950	-0.076733	0.000090
C47	C	0.919284	0.256601	0.333424
C48	C	1.252617	0.589934	0.666757
C49	C	0.667961	-0.083642	0.000084
C50	C	1.001294	0.249691	0.333418
C51	C	1.334627	0.583025	0.666751
C52	C	0.292946	-0.119792	0.000108
C53	C	0.626279	0.213542	0.333442
C54	C	0.959613	0.546875	0.666775
C55	C	0.210929	-0.112887	0.000112
C56	C	0.544263	0.220446	0.333445
C57	C	0.877596	0.553780	0.666778
C58	C	0.201722	-0.254729	0.000098
C59	C	0.535055	0.078604	0.333432
C60	C	0.868388	0.411937	0.666765
C61	C	0.283734	-0.261632	0.000088
C62	C	0.617068	0.071701	0.333421
C63	C	0.950401	0.405035	0.666754
C64	C	0.329342	-0.194164	0.000098
C65	C	0.662675	0.139170	0.333431
C66	C	0.996009	0.472503	0.666764
C67	C	0.456505	-0.137138	0.000094
C68	C	0.789839	0.196196	0.333427
C69	C	1.123172	0.529529	0.666761
C70	C	0.413170	-0.201228	0.000094
C71	C	0.746503	0.132105	0.333427
C72	C	1.079837	0.465439	0.666761
C73	C	0.931022	-0.025987	0.000097
C74	C	1.264355	0.307347	0.333431
C75	C	1.597689	0.640680	0.666764
C76	C	0.923674	0.061297	0.000096
C77	C	1.257007	0.394630	0.333430
C78	C	1.590341	0.727964	0.666763
C79	C	1.078037	-0.173002	0.000105
C80	C	1.411370	0.160331	0.333438
C81	C	1.744704	0.493664	0.666771
C82	C	1.165320	-0.180351	0.000108
C83	C	1.498654	0.152983	0.333442
C84	C	1.831987	0.486316	0.666775
C85	C	0.938656	-0.312383	0.000083
C86	C	1.271990	0.020950	0.333417
C87	C	1.605323	0.354284	0.666750
C88	C	0.946005	-0.399666	0.000079
C89	C	1.279338	-0.066333	0.333412
C90	C	1.612671	0.267000	0.666746
N91	N	0.924599	-0.179385	0.215887
N92	N	1.257932	0.153948	0.549220
N93	N	1.591266	0.487282	0.882554
C94	C	0.991137	0.106906	0.000104
C95	C	1.324471	0.440239	0.333438
C96	C	1.657804	0.773572	0.666771
C97	C	0.984229	0.188918	0.000096
C98	C	1.317562	0.522251	0.333429
C99	C	1.650895	0.855585	0.666762
C100	C	0.909856	0.225320	0.000085
C101	C	1.243189	0.558653	0.333418
C102	C	1.576523	0.891986	0.666752
C103	C	0.842388	0.179705	0.000074
C104	C	1.175721	0.513038	0.333408
C105	C	1.509054	0.846372	0.666741
C106	C	0.849297	0.097694	0.000077
C107	C	1.182631	0.431028	0.333410
C108	C	1.515964	0.764361	0.666744
C109	C	0.885446	0.472708	0.000071
C110	C	1.218779	0.806042	0.333404
C111	C	1.552113	1.139375	0.666738
C112	C	0.878541	0.554725	0.000071
C113	C	1.211875	0.888058	0.333404
C114	C	1.545208	1.221391	0.666737
C115	C	1.020383	0.563932	0.000091
C116	C	1.353716	0.897266	0.333424
C117	C	1.687050	1.230599	0.666757
C118	C	1.027286	0.481920	0.000098
C119	C	1.360619	0.815253	0.333432
C120	C	1.693953	1.148586	0.666765
C121	C	0.959818	0.436312	0.000083
C122	C	1.293151	0.769646	0.333417
C123	C	1.626485	1.102979	0.666750
C124	C	0.902792	0.309149	0.000079
C125	C	1.236126	0.642483	0.333412
C126	C	1.569459	0.975816	0.666745
C127	C	0.966882	0.352485	0.000084
C128	C	1.300216	0.685818	0.333417
C129	C	1.633549	1.019151	0.666750
N130	N	0.945085	-0.158979	-0.215705
N131	N	1.278419	0.174354	0.117629
N132	N	1.611752	0.507688	0.450962
C133	C	0.972390	-0.131633	0.259480
C134	C	1.305723	0.201700	0.592813
C135	C	1.639057	0.535034	0.926147
C136	C	0.968265	-0.135759	0.346668
C137	C	1.301598	0.197574	0.680002
C138	C	1.634932	0.530907	1.013335
C139	C	0.916352	-0.187642	0.390262
C140	C	1.249686	0.145692	0.723595
C141	C	1.583019	0.479025	1.056929
C142	C	0.868556	-0.235395	0.346663
C143	C	1.201889	0.097938	0.679996
C144	C	1.535223	0.431271	1.013330
C145	C	0.872678	-0.231265	0.259476
C146	C	1.206011	0.102069	0.592810
C147	C	1.539344	0.435402	0.926143
C148	C	0.901410	-0.202602	0.653510
C149	C	1.234744	0.130731	0.986843
C150	C	1.568077	0.464065	1.320176
C151	C	0.897294	-0.206731	0.740702
C152	C	1.230628	0.126602	1.074036
C153	C	1.563961	0.459936	1.407369
C154	C	0.997003	-0.107093	0.740702
C155	C	1.330336	0.226240	1.074035
C156	C	1.663669	0.559573	1.407368
C157	C	1.001123	-0.102971	0.653513
C158	C	1.334456	0.230363	0.986847
C159	C	1.667789	0.563696	1.320180
C160	C	0.953324	-0.150721	0.609922
C161	C	1.286657	0.182612	0.943255
C162	C	1.619990	0.515945	1.276589
C163	C	0.912136	-0.191862	0.479383
C164	C	1.245470	0.141471	0.812716
C165	C	1.578803	0.474804	1.146049
C166	C	0.957536	-0.146496	0.520803
C167	C	1.290869	0.186837	0.854136
C168	C	1.624203	0.520170	1.187470
H169	H	0.181294	-0.052321	0.000118
H170	H	0.514628	0.281012	0.333452
H171	H	0.847961	0.614346	0.666785
H172	H	0.688381	-0.286045	0.000056
H173	H	1.021714	0.047289	0.333389
H174	H	1.355048	0.380622	0.666722
F175	F	0.417757	-0.057986	0.000101
F176	F	0.751090	0.275347	0.333434
F177	F	1.084424	0.608680	0.666768
F178	F	0.823641	0.347898	0.000064
F179	F	1.156975	0.681231	0.333397
F180	F	1.490308	1.014565	0.666730
F181	F	0.813640	0.424180	0.000053
F182	F	1.146973	0.757513	0.333386
F183	F	1.480306	1.090847	0.666720
H184	H	1.087848	0.452287	0.000107
H185	H	1.421181	0.785621	0.333441
H186	H	1.754515	1.118954	0.666774
H187	H	0.330070	-0.064854	0.000117
H188	H	0.663404	0.268480	0.333450
H189	H	0.996737	0.601813	0.666784
H190	H	1.007180	-0.096876	0.382161
H191	H	1.340513	0.236458	0.715495
H192	H	1.673846	0.569791	1.048828
F193	F	0.547207	0.002421	0.000105
F194	F	0.880540	0.335754	0.333439
F195	F	1.213873	0.669087	0.666772
H196	H	1.075312	0.601075	0.000101
H197	H	1.408645	0.934408	0.333435
H198	H	1.741978	1.267741	0.666768
F199	F	1.056374	-0.047753	0.607119
F200	F	1.389708	0.285581	0.940452
F201	F	1.723041	0.618914	1.273786
H202	H	0.705095	-0.028706	0.000086
H203	H	1.038429	0.304627	0.333420
H204	H	1.371762	0.637961	0.666753
F205	F	1.047869	-0.056275	0.787100
F206	F	1.381202	0.277058	1.120433
F207	F	1.714535	0.610392	1.453767
F208	F	0.763235	0.218449	0.000053
F209	F	1.096568	0.551782	0.333387
F210	F	1.429901	0.885115	0.666720
H211	H	1.051699	0.077274	0.000118
H212	H	1.385033	0.410607	0.333452
H213	H	1.718366	0.743940	0.666785
F214	F	0.842039	-0.261956	0.787093
F215	F	1.175372	0.071377	1.120426
F216	F	1.508706	0.404710	1.453759
H217	H	0.999800	-0.104250	0.485307
H218	H	1.333134	0.229083	0.818640
H219	H	1.666467	0.562416	1.151973
F220	F	0.850542	-0.253424	0.607123
F221	F	1.183875	0.079910	0.940456
F222	F	1.517208	0.413243	1.273790
F223	F	0.528200	-0.290378	0.000068
F224	F	0.861533	0.042955	0.333402
F225	F	1.194866	0.376288	0.666735
F226	F	1.027647	-0.076416	0.213093
F227	F	1.360980	0.256917	0.546426
F228	F	1.694314	0.590251	0.879759
H229	H	1.027437	0.322844	0.000074
H230	H	1.360771	0.656177	0.333407
H231	H	1.694104	0.989510	0.666741
F232	F	0.451913	-0.280379	0.000088
F233	F	0.785246	0.052955	0.333421
F234	F	1.118579	0.386288	0.666754
H235	H	1.039165	0.226050	0.000104
H236	H	1.372498	0.559383	0.333438
H237	H	1.705831	0.892716	0.666771
H238	H	0.313367	-0.322194	0.000070
H239	H	0.646700	0.011140	0.333404
H240	H	0.980034	0.344473	0.666737
F241	F	0.856889	-0.247080	0.525783
F242	F	1.190222	0.086253	0.859116
F243	F	1.523556	0.419586	1.192450
F244	F	0.813302	-0.290609	0.393059
F245	F	1.146635	0.042724	0.726393
F246	F	1.479969	0.376057	1.059726
H247	H	0.817975	0.584359	0.000075
H248	H	1.151308	0.917693	0.333409
H249	H	1.484641	1.251026	0.666742
H250	H	0.794361	0.060560	0.000070
H251	H	1.127695	0.393894	0.333404
H252	H	1.461028	0.727227	0.666737
H253	H	0.164579	-0.309658	0.000092
H254	H	0.497912	0.023676	0.333425
H255	H	0.831246	0.357009	0.666759
F256	F	0.821809	-0.282087	0.213083
F257	F	1.155142	0.051247	0.546416
F258	F	1.488475	0.384580	0.879749
