data_functionalizedCrystal
_audit_creation_method	'MofGen! by Chris Wilmer'
_symmetry_space_group_name_H-M	'P1'
_symmetry_Int_Tables_number	1
_symmetry_cell_setting	triclinic
loop_
_symmetry_equiv_pos_as_xyz
  x,y,z
_cell_length_a	18.215407
_cell_length_b	18.215405
_cell_length_c	18.215399
_cell_angle_alpha	89.968171
_cell_angle_beta	89.983176
_cell_angle_gamma	90.024268
loop_
_atom_site_label
_atom_site_type_symbol
_atom_site_fract_x
_atom_site_fract_y
_atom_site_fract_z
Zn1	Zn	1.125056	-0.292966	-0.416108
Zn2	Zn	1.458389	0.040368	-0.082775
Zn3	Zn	1.791722	0.373701	0.250558
Zn4	Zn	1.124973	-0.416042	-0.293039
Zn5	Zn	1.458306	-0.082709	0.040294
Zn6	Zn	1.791639	0.250625	0.373628
Zn7	Zn	1.001995	-0.292995	-0.293056
Zn8	Zn	1.335328	0.040339	0.040278
Zn9	Zn	1.668661	0.373672	0.373611
Zn10	Zn	1.001956	-0.415996	-0.416064
Zn11	Zn	1.335290	-0.082663	-0.082730
Zn12	Zn	1.668623	0.250671	0.250603
O13	O	1.063495	-0.354500	-0.354567
O14	O	1.396828	-0.021166	-0.021233
O15	O	1.730161	0.312167	0.312100
O16	O	1.228029	-0.309299	-0.399795
O17	O	1.561362	0.024034	-0.066461
O18	O	1.894695	0.357368	0.266872
O19	O	1.108641	-0.399751	-0.190057
O20	O	1.441974	-0.066418	0.143277
O21	O	1.775307	0.266916	0.476610
O22	O	1.018370	-0.190007	-0.309405
O23	O	1.351703	0.143327	0.023929
O24	O	1.685036	0.476660	0.357262
O25	O	1.227968	-0.399723	-0.309376
O26	O	1.561301	-0.066389	0.023957
O27	O	1.894635	0.266944	0.357291
O28	O	1.108782	-0.189985	-0.399811
O29	O	1.442115	0.143348	-0.066477
O30	O	1.775449	0.476682	0.266856
O31	O	1.018289	-0.309349	-0.190069
O32	O	1.351623	0.023985	0.143264
O33	O	1.684956	0.357318	0.476597
O34	O	0.899005	-0.309304	-0.309361
O35	O	1.232339	0.024029	0.023972
O36	O	1.565672	0.357363	0.357305
O37	O	1.018304	-0.399644	-0.519054
O38	O	1.351638	-0.066311	-0.185721
O39	O	1.684971	0.267023	0.147613
O40	O	0.898977	-0.399672	-0.399735
O41	O	1.232310	-0.066339	-0.066402
O42	O	1.565644	0.266994	0.266932
O43	O	1.108745	-0.309254	-0.519087
O44	O	1.442078	0.024079	-0.185753
O45	O	1.775411	0.357412	0.147580
O46	O	1.108604	-0.519020	-0.309333
O47	O	1.441937	-0.185687	0.024001
O48	O	1.775270	0.147647	0.357334
O49	O	1.018224	-0.518986	-0.399719
O50	O	1.351557	-0.185653	-0.066385
O51	O	1.684891	0.147680	0.266948
C52	C	0.872289	-0.354487	-0.354546
C53	C	1.205622	-0.021154	-0.021212
C54	C	1.538955	0.312180	0.312121
C55	C	0.790490	-0.354499	-0.354554
C56	C	1.123823	-0.021166	-0.021221
C57	C	1.457156	0.312167	0.312113
C58	C	0.602300	-0.401628	-0.401552
C59	C	0.935634	-0.068295	-0.068219
C60	C	1.268967	0.265039	0.265114
C61	C	0.525442	-0.401630	-0.401562
C62	C	0.858775	-0.068297	-0.068228
C63	C	1.192108	0.265036	0.265105
C64	C	0.525441	-0.307384	-0.307597
C65	C	0.858775	0.025949	0.025736
C66	C	1.192108	0.359282	0.359070
C67	C	0.602299	-0.307379	-0.307592
C68	C	0.935632	0.025954	0.025741
C69	C	1.268965	0.359288	0.359075
C70	C	0.640726	-0.354505	-0.354569
C71	C	0.974059	-0.021172	-0.021235
C72	C	1.307393	0.312162	0.312098
C73	C	0.487010	-0.354513	-0.354583
C74	C	0.820343	-0.021179	-0.021249
C75	C	1.153677	0.312154	0.312084
C76	C	0.403676	-0.354515	-0.354592
C77	C	0.737010	-0.021181	-0.021259
C78	C	1.070343	0.312152	0.312074
C79	C	0.724065	-0.354502	-0.354560
C80	C	1.057398	-0.021169	-0.021227
C81	C	1.390732	0.312165	0.312106
C82	C	1.063421	-0.545706	-0.354535
C83	C	1.396754	-0.212373	-0.021202
C84	C	1.730087	0.120961	0.312132
C85	C	1.063456	-0.627505	-0.354546
C86	C	1.396790	-0.294171	-0.021213
C87	C	1.730123	0.039162	0.312121
C88	C	1.110655	-0.892555	-0.307582
C89	C	1.443988	-0.559222	0.025752
C90	C	1.777321	-0.225889	0.359085
C91	C	1.110624	-0.815697	-0.307565
C92	C	1.443958	-0.482363	0.025769
C93	C	1.777291	-0.149030	0.359102
C94	C	1.016426	-0.815702	-0.401602
C95	C	1.349759	-0.482369	-0.068268
C96	C	1.683093	-0.149036	0.265065
C97	C	1.016453	-0.892560	-0.401614
C98	C	1.349786	-0.559226	-0.068281
C99	C	1.683120	-0.225893	0.265052
C100	C	1.063572	-0.930984	-0.354605
C101	C	1.396905	-0.597651	-0.021272
C102	C	1.730238	-0.264318	0.312061
C103	C	1.063514	-0.777268	-0.354576
C104	C	1.396847	-0.443935	-0.021242
C105	C	1.730181	-0.110601	0.312091
C106	C	1.063481	-0.693935	-0.354558
C107	C	1.396814	-0.360601	-0.021225
C108	C	1.730148	-0.027268	0.312109
C109	C	1.063604	-1.014323	-0.354622
C110	C	1.396937	-0.680990	-0.021289
C111	C	1.730271	-0.347656	0.312045
C112	C	1.255448	-0.354513	-0.354588
C113	C	1.588781	-0.021179	-0.021255
C114	C	1.922114	0.312154	0.312078
C115	C	1.337247	-0.354518	-0.354598
C116	C	1.670580	-0.021185	-0.021264
C117	C	2.003913	0.312148	0.312069
C118	C	1.063530	-0.354441	-0.546520
C119	C	1.396863	-0.021107	-0.213186
C120	C	1.730196	0.312226	0.120147
C121	C	1.063544	-0.354416	-0.628319
C122	C	1.396878	-0.021082	-0.294985
C123	C	1.730211	0.312251	0.038348
C124	C	1.063589	-0.162547	-0.354615
C125	C	1.396923	0.170787	-0.021281
C126	C	1.730256	0.504120	0.312052
C127	C	1.063630	-0.080748	-0.354635
C128	C	1.396963	0.252586	-0.021302
C129	C	1.730296	0.585919	0.312032
C130	C	1.016538	-0.307311	-0.816520
C131	C	1.349871	0.026022	-0.483187
C132	C	1.683205	0.359355	-0.149853
C133	C	1.016551	-0.307297	-0.893379
C134	C	1.349884	0.026037	-0.560045
C135	C	1.683218	0.359370	-0.226712
C136	C	1.110639	-0.401432	-0.893355
C137	C	1.443972	-0.068099	-0.560022
C138	C	1.777305	0.265235	-0.226689
C139	C	1.110622	-0.401450	-0.816498
C140	C	1.443955	-0.068117	-0.483165
C141	C	1.777288	0.265217	-0.149831
C142	C	1.063572	-0.354386	-0.778082
C143	C	1.396906	-0.021052	-0.444749
C144	C	1.730239	0.312281	-0.111416
C145	C	1.063602	-0.354353	-0.931798
C146	C	1.396936	-0.021019	-0.598465
C147	C	1.730269	0.312314	-0.265132
C148	C	1.063616	-0.354337	-1.015132
C149	C	1.396950	-0.021004	-0.681799
C150	C	1.730283	0.312330	-0.348465
C151	C	1.063557	-0.354402	-0.694743
C152	C	1.396890	-0.021069	-0.361410
C153	C	1.730224	0.312265	-0.028077
C154	C	1.063503	-0.354505	-0.163360
C155	C	1.396836	-0.021172	0.169973
C156	C	1.730169	0.312162	0.503306
C157	C	1.063630	-0.354323	-0.081562
C158	C	1.396964	-0.020989	0.251771
C159	C	1.730297	0.312344	0.585105
H160	H	0.633586	-0.439999	-0.439806
H161	H	0.966919	-0.106666	-0.106472
H162	H	1.300252	0.226667	0.226861
H163	H	0.978109	-0.923849	-0.439908
H164	H	1.311442	-0.590516	-0.106575
H165	H	1.644776	-0.257183	0.226759
Cl166	Cl	0.957388	-0.248148	-0.768229
Cl167	Cl	1.290721	0.085185	-0.434895
Cl168	Cl	1.624054	0.418519	-0.101562
Cl169	Cl	0.650609	-0.248129	-0.248527
Cl170	Cl	0.983942	0.085205	0.084807
Cl171	Cl	1.317276	0.418538	0.418140
H172	H	0.978250	-0.268965	-0.924671
H173	H	1.311584	0.064369	-0.591338
H174	H	1.644917	0.397702	-0.258005
Cl175	Cl	1.169785	-0.460594	-0.941654
Cl176	Cl	1.503118	-0.127260	-0.608321
Cl177	Cl	1.836451	0.206073	-0.274988
Cl178	Cl	1.169752	-0.460637	-0.768172
Cl179	Cl	1.503086	-0.127304	-0.434839
Cl180	Cl	1.836419	0.206029	-0.101506
H181	H	0.494159	-0.440002	-0.439822
H182	H	0.827492	-0.106668	-0.106488
H183	H	1.160825	0.226665	0.226845
Cl184	Cl	1.169886	-0.940858	-0.248482
Cl185	Cl	1.503219	-0.607525	0.084852
Cl186	Cl	1.836553	-0.274191	0.418185
Cl187	Cl	0.477127	-0.248145	-0.248542
Cl188	Cl	0.810461	0.085188	0.084791
Cl189	Cl	1.143794	0.418521	0.418124
H190	H	0.978064	-0.784409	-0.439876
H191	H	1.311397	-0.451076	-0.106543
H192	H	1.644731	-0.117743	0.226790
H193	H	1.148963	-0.784410	-0.269273
H194	H	1.482296	-0.451077	0.064060
H195	H	1.815629	-0.117743	0.397394
