data_functionalizedCrystal
_audit_creation_method	'MofGen! by Chris Wilmer'
_symmetry_space_group_name_H-M	'P1'
_symmetry_Int_Tables_number	1
_symmetry_cell_setting	triclinic
loop_
_symmetry_equiv_pos_as_xyz
  x,y,z
_cell_length_a	16.974885
_cell_length_b	26.210047
_cell_length_c	16.992695
_cell_angle_alpha	90.004590
_cell_angle_beta	92.976847
_cell_angle_gamma	86.357003
loop_
_atom_site_label
_atom_site_type_symbol
_atom_site_fract_x
_atom_site_fract_y
_atom_site_fract_z
O1	O	1.055447	-0.001111	-0.099901
O2	O	0.826049	0.008354	-0.112633
O3	O	0.939828	0.003655	0.007875
O4	O	0.941668	0.003587	-0.220409
O5	O	0.939806	-0.081202	0.007856
O6	O	0.826027	-0.076504	-0.112652
O7	O	1.055425	-0.085968	-0.099920
Cu8	Cu	0.940724	-0.088984	-0.106288
Cu9	Cu	0.940750	0.011369	-0.106265
O10	O	0.941645	-0.081270	-0.220428
C11	C	0.796549	-0.032858	-0.112159
C12	C	0.708683	-0.029233	-0.110708
C13	C	0.214090	-0.003828	-0.102516
C14	C	0.296650	-0.007241	-0.103879
C15	C	0.337909	-0.055203	-0.104576
C16	C	0.296605	-0.099756	-0.103903
C17	C	0.214047	-0.096342	-0.102534
C18	C	0.584820	-0.070372	-0.108666
C19	C	0.667384	-0.073782	-0.110037
C20	C	0.667423	0.018733	-0.110012
C21	C	0.584863	0.022142	-0.108648
C22	C	0.543566	-0.022410	-0.107970
N23	N	0.422299	-0.058693	-0.105972
N24	N	0.459179	-0.018920	-0.106569
N25	N	0.940711	-0.159567	-0.106303
C26	C	0.991127	-0.514163	-0.052917
C27	C	0.991143	-0.727823	-0.052906
O28	O	1.033979	-0.757213	-0.007518
N29	N	0.940753	-0.752463	-0.106248
C30	C	0.890351	-0.723685	-0.159594
O31	O	0.847486	-0.749546	-0.204959
C32	C	0.890331	-0.510027	-0.159600
C33	C	0.940730	-0.485389	-0.106260
C34	C	1.041521	-0.489526	0.000420
C35	C	1.041520	-0.436114	0.000414
C36	C	0.991123	-0.407340	-0.052929
C37	C	0.940729	-0.431978	-0.106266
C38	C	0.839926	-0.481250	-0.212941
C39	C	0.839924	-0.427832	-0.212937
C40	C	0.890323	-0.403194	-0.159596
C41	C	0.890331	-0.349792	-0.159615
N42	N	0.940721	-0.325152	-0.106272
C43	C	0.991118	-0.353926	-0.052929
C44	C	0.890367	-0.835859	-0.159588
C45	C	0.890372	-0.889273	-0.159587
C46	C	0.991164	-0.893407	-0.052898
C47	C	0.991161	-0.839992	-0.052903
C48	C	0.940757	-0.811219	-0.106245
C49	C	0.991111	-0.241758	-0.052947
C50	C	0.991107	-0.188341	-0.052960
C51	C	0.890313	-0.184212	-0.159646
C52	C	0.890320	-0.237624	-0.159636
C53	C	0.940721	-0.266395	-0.106280
O54	O	0.847512	-0.320369	-0.204972
O55	O	1.033964	-0.328055	-0.007559
C56	C	0.991128	-0.567575	-0.052911
C57	C	0.940734	-0.592212	-0.106247
C58	C	0.890337	-0.563438	-0.159590
C59	C	0.940740	-0.645627	-0.106247
C60	C	0.991136	-0.674401	-0.052904
C61	C	1.041526	-0.649760	0.000439
C62	C	1.041525	-0.596349	0.000432
C63	C	0.839947	-0.588079	-0.212933
C64	C	0.839954	-0.641491	-0.212923
C65	C	0.890350	-0.670265	-0.159580
C66	C	1.084924	-0.044755	-0.100394
C67	C	1.172791	-0.048377	-0.101845
C68	C	0.937451	-0.038676	0.037075
C69	C	0.930392	-0.038384	0.124112
N70	N	0.940769	0.081953	-0.106244
C71	C	0.944022	-0.038938	-0.249628
C72	C	0.951082	-0.039226	-0.336665
C73	C	0.998506	-0.041195	0.174427
C74	C	0.991868	-0.040916	0.256206
C75	C	0.917115	-0.037831	0.287669
C76	C	0.848996	-0.035018	0.237347
C77	C	0.855635	-0.035293	0.155569
C78	C	0.889601	-0.036688	0.531236
C79	C	0.882968	-0.036415	0.613020
C80	C	1.025841	-0.042312	0.631874
C81	C	1.032473	-0.042590	0.550093
C82	C	0.964353	-0.039775	0.499779
N83	N	0.910329	-0.037547	0.371260
N84	N	0.971141	-0.040055	0.416189
H85	H	0.330205	-0.138808	-0.104466
N86	N	0.806614	-0.033266	0.645178
N87	N	0.786969	-0.068227	0.688704
H88	H	0.733048	-0.066005	0.711419
N89	N	1.093053	-0.410983	0.054889
N90	N	1.087453	-0.416723	0.127366
H91	H	1.123871	-0.398986	0.165834
H92	H	0.701056	0.055005	-0.110562
H93	H	1.081299	-0.044603	0.672848
N94	N	0.171858	-0.141848	-0.101868
N95	N	0.121984	-0.150104	-0.156349
H96	H	0.092189	-0.182244	-0.155878
H97	H	1.093344	-0.045103	0.524483
H98	H	0.700975	-0.112841	-0.110611
H99	H	0.551207	-0.106650	-0.108103
N100	N	1.042588	-0.163183	0.001542
N101	N	1.087571	-0.188884	0.049172
H102	H	1.123924	-0.171119	0.087668
H103	H	1.032200	-0.916844	-0.009465
N104	N	1.042596	-0.271134	0.001562
N105	N	1.087583	-0.249121	0.049177
H106	H	1.123948	-0.269867	0.087672
N107	N	1.093006	-0.518904	0.054922
N108	N	1.137990	-0.496890	0.102537
H109	H	1.174359	-0.517635	0.141031
N110	N	1.042604	-0.814834	0.001628
N111	N	1.087568	-0.840537	0.049273
H112	H	1.123886	-0.822771	0.087805
N113	N	0.838898	-0.914429	-0.214090
N114	N	0.793907	-0.888725	-0.261711
H115	H	0.757549	-0.906489	-0.300204
H116	H	0.834133	-0.034396	0.490280
N117	N	0.838869	-0.806479	-0.214083
N118	N	0.793885	-0.828492	-0.261701
H119	H	0.757515	-0.807745	-0.300191
H120	H	0.849288	-0.257684	-0.203078
N121	N	0.788450	-0.398442	-0.267440
N122	N	0.816604	-0.369802	-0.316104
H123	H	0.780253	-0.349046	-0.354599
N124	N	0.838846	-0.154807	-0.214130
N125	N	0.838855	-0.107117	-0.214118
H126	H	0.802503	-0.086347	-0.252595
H127	H	0.788131	-0.032502	0.262970
H128	H	0.800169	-0.033004	0.114603
H129	H	1.059378	-0.043711	0.148817
H130	H	0.798886	-0.501302	-0.256375
N131	N	0.171959	0.045170	-0.101811
N132	N	0.208847	0.084942	-0.102408
H133	H	0.179096	0.119548	-0.101908
H134	H	1.082564	-0.576293	0.043867
H135	H	0.330272	0.029036	-0.104421
N136	N	1.093000	-0.679165	0.054923
N137	N	1.092984	-0.726855	0.054915
H138	H	1.129330	-0.747626	0.093396
H139	H	0.551275	0.061199	-0.108079
N140	N	0.788455	-0.666652	-0.267403
N141	N	0.737805	-0.694366	-0.242542
H142	H	0.701430	-0.712135	-0.281012
H143	H	0.798907	-0.564655	-0.256370
N144	N	1.061453	-0.043783	0.307590
N145	N	1.128192	-0.046539	0.279489
H146	H	1.177341	-0.048561	0.315778
