data_functionalizedCrystal
_audit_creation_method	'MofGen! by Chris Wilmer'
_symmetry_space_group_name_H-M	'P1'
_symmetry_Int_Tables_number	1
_symmetry_cell_setting	triclinic
loop_
_symmetry_equiv_pos_as_xyz
  x,y,z
_cell_length_a	6.394989
_cell_length_b	17.699083
_cell_length_c	16.776229
_cell_angle_alpha	89.999727
_cell_angle_beta	89.999615
_cell_angle_gamma	95.109637
loop_
_atom_site_label
_atom_site_type_symbol
_atom_site_fract_x
_atom_site_fract_y
_atom_site_fract_z
O1	O	-0.264122	1.006773	0.066171
O2	O	0.235878	1.506773	0.566171
O3	O	-0.298486	0.786745	0.066197
O4	O	0.201514	1.286745	0.566197
O5	O	0.022776	0.899882	0.066184
O6	O	0.522776	1.399882	0.566184
O7	O	-0.585384	0.893636	0.066184
O8	O	-0.085384	1.393636	0.566184
O9	O	0.022777	0.899869	-0.066392
O10	O	0.522777	1.399869	0.433608
O11	O	-0.298485	0.786732	-0.066380
O12	O	0.201515	1.286732	0.433620
O13	O	-0.264121	1.006760	-0.066405
O14	O	0.235879	1.506760	0.433595
Zn15	Zn	-0.281303	0.896744	-0.087442
Zn16	Zn	0.218697	1.396744	0.412558
Zn17	Zn	-0.281304	0.896761	0.087233
Zn18	Zn	0.218696	1.396761	0.587233
O19	O	-0.585383	0.893623	-0.066393
O20	O	-0.085383	1.393623	0.433607
C21	C	-0.297254	0.758529	-0.000088
C22	C	0.202746	1.258529	0.499912
C23	C	-0.293560	0.674473	-0.000078
C24	C	0.206440	1.174473	0.499922
N25	N	-0.281301	0.896737	-0.206653
N26	N	0.218699	1.396737	0.293347
C27	C	-0.482134	0.627777	-0.000079
C28	C	0.017866	1.127777	0.499921
C29	C	-0.478651	0.548798	-0.000089
C30	C	0.021349	1.048798	0.499911
C31	C	-0.286591	0.516517	-0.000093
C32	C	0.213409	1.016517	0.499907
C33	C	-0.098003	0.563220	-0.000095
C34	C	0.401997	1.063220	0.499905
C35	C	-0.101488	0.642197	-0.000091
C36	C	0.398512	1.142197	0.499909
C37	C	-0.083942	0.244713	-0.000115
C38	C	0.416058	0.744713	0.499885
C39	C	-0.080471	0.165730	-0.000117
C40	C	0.419529	0.665730	0.499883
C41	C	-0.461104	0.151314	-0.000113
C42	C	0.038896	0.651314	0.499887
C43	C	-0.464590	0.230291	-0.000109
C44	C	0.035410	0.730291	0.499891
C45	C	-0.276002	0.276987	-0.000115
C46	C	0.223998	0.776987	0.499885
C47	C	-0.279782	0.362625	-0.000105
C48	C	0.220218	0.862625	0.499895
C49	C	-0.282810	0.430881	-0.000097
C50	C	0.217190	0.930881	0.499903
C51	C	0.100592	0.898640	-0.000101
C52	C	0.600592	1.398640	0.499899
C53	C	0.336808	0.894866	-0.000100
C54	C	0.836808	1.394866	0.499900
C55	C	-0.265353	1.034976	-0.000119
C56	C	0.234647	1.534976	0.499881
C57	C	-0.269047	1.119031	-0.000123
C58	C	0.230953	1.619031	0.499877
C59	C	-0.407826	0.943843	-0.248373
C60	C	0.092174	1.443843	0.251627
C61	C	-0.407818	0.943852	-0.331825
C62	C	0.092182	1.443852	0.168175
C63	C	-0.281295	0.896749	-0.373556
C64	C	0.218705	1.396749	0.126444
C65	C	-0.154755	0.849641	-0.331831
C66	C	0.345245	1.349641	0.168169
C67	C	-0.154754	0.849637	-0.248380
C68	C	0.345246	1.349637	0.251620
C69	C	-0.154758	0.849657	-0.668378
C70	C	0.345242	1.349657	-0.168378
C71	C	-0.154774	0.849662	-0.751835
C72	C	0.345226	1.349662	-0.251835
C73	C	-0.407822	0.943871	-0.751823
C74	C	0.092178	1.443871	-0.251823
C75	C	-0.407820	0.943867	-0.668372
C76	C	0.092180	1.443867	-0.168372
C77	C	-0.281274	0.896762	-0.626654
C78	C	0.218726	1.396762	-0.126654
C79	C	-0.281281	0.896755	-0.536166
C80	C	0.218719	1.396755	-0.036166
C81	C	-0.281297	0.896752	-0.464043
C82	C	0.218703	1.396752	0.035957
N83	N	-0.281289	0.896773	0.206444
N84	N	0.218711	1.396773	0.706444
H85	H	-0.638531	0.654053	-0.000075
H86	H	-0.138531	1.154053	0.499925
F87	F	-0.542501	0.994007	-0.796228
F88	F	-0.042501	1.494007	-0.296228
H89	H	0.075937	0.139450	-0.000122
H90	H	0.575937	0.639450	0.499878
H91	H	-0.510856	0.982220	-0.634398
H92	H	-0.010856	1.482220	-0.134398
F93	F	-0.020103	0.799528	-0.796247
F94	F	0.479897	1.299528	-0.296247
H95	H	-0.051715	0.811301	-0.634422
H96	H	0.448285	1.311301	-0.134422
H97	H	0.069618	0.282724	-0.000121
H98	H	0.569618	0.782724	0.499879
F99	F	-0.679358	0.499103	-0.000086
F100	F	-0.179358	0.999103	0.499914
F101	F	-0.669005	0.264642	-0.000100
F102	F	-0.169005	0.764642	0.499900
F103	F	-0.661818	0.101610	-0.000110
F104	F	-0.161818	0.601610	0.499890
H105	H	-0.510868	0.982195	-0.214401
H106	H	-0.010868	1.482195	0.285599
F107	F	-0.020094	0.799513	-0.376247
F108	F	0.479906	1.299513	0.123753
F109	F	-0.020071	0.799507	-0.203980
F110	F	0.479929	1.299507	0.296020
F111	F	0.106403	0.528862	-0.000105
F112	F	0.606403	1.028862	0.499895
F113	F	0.099218	0.691895	-0.000093
F114	F	0.599218	1.191895	0.499907
F115	F	-0.542486	0.993988	-0.376222
F116	F	-0.042486	1.493988	0.123778
