data_functionalizedCrystal
_audit_creation_method	'MofGen! by Chris Wilmer'
_symmetry_space_group_name_H-M	'P1'
_symmetry_Int_Tables_number	1
_symmetry_cell_setting	triclinic
loop_
_symmetry_equiv_pos_as_xyz
  x,y,z
_cell_length_a	10.723023
_cell_length_b	14.044190
_cell_length_c	9.798715
_cell_angle_alpha	89.992011
_cell_angle_beta	89.996770
_cell_angle_gamma	88.829662
loop_
_atom_site_label
_atom_site_type_symbol
_atom_site_fract_x
_atom_site_fract_y
_atom_site_fract_z
O1	O	1.670502	0.133036	-0.113494
O2	O	2.170502	0.633036	0.386506
O3	O	1.308624	0.145772	-0.113502
O4	O	1.808624	0.645772	0.386498
O5	O	1.484127	0.001384	-0.113471
O6	O	1.984127	0.501384	0.386529
O7	O	1.495000	0.277424	-0.113525
O8	O	1.995000	0.777424	0.386475
O9	O	1.484113	0.001384	0.113511
O10	O	1.984113	0.501384	0.613511
O11	O	1.308610	0.145771	0.113481
O12	O	1.808610	0.645771	0.613481
O13	O	1.670488	0.133036	0.113488
O14	O	2.170488	0.633036	0.613488
Zn15	Zn	1.489547	0.139404	0.149523
Zn16	Zn	1.989547	0.639404	0.649523
Zn17	Zn	1.489565	0.139404	-0.149536
Zn18	Zn	1.989565	0.639404	0.350464
O19	O	1.494985	0.277424	0.113458
O20	O	1.994985	0.777424	0.613458
C21	C	1.262025	0.144845	-0.000011
C22	C	1.762025	0.644845	0.499989
C23	C	1.123193	0.142073	-0.000013
C24	C	1.623193	0.642073	0.499987
C25	C	1.061290	0.140836	0.117570
C26	C	1.561290	0.640836	0.617570
C27	C	0.917800	0.137971	0.117571
C28	C	1.417800	0.637971	0.617571
C29	C	1.479363	-0.033962	0.000024
C30	C	1.979363	0.466038	0.500024
C31	C	1.465175	-0.139280	0.000036
C32	C	1.965175	0.360720	0.500036
C33	C	1.539861	-0.389081	-0.000016
C34	C	2.039861	0.110919	0.499984
C35	C	1.439257	-0.332106	-0.000009
C36	C	1.939257	0.167894	0.499991
C37	C	1.453681	-0.224808	0.000016
C38	C	1.953681	0.275192	0.500016
C39	C	1.525438	-0.496389	-0.000041
C40	C	2.025438	0.003611	0.499959
C41	C	1.717087	0.133963	-0.000005
C42	C	2.217087	0.633963	0.499995
C43	C	1.855919	0.136735	-0.000013
C44	C	2.355919	0.636735	0.499987
C45	C	1.499749	0.312769	-0.000040
C46	C	1.999749	0.812769	0.499960
C47	C	1.513937	0.418088	-0.000061
C48	C	2.013937	0.918088	0.499939
N49	N	1.489543	0.139403	0.353622
N50	N	1.989543	0.639403	0.853622
N51	N	1.489578	0.139398	-0.353636
N52	N	1.989578	0.639398	0.146364
C53	C	1.563205	0.078511	0.421412
C54	C	2.063205	0.578511	0.921412
C55	C	1.563225	0.078508	0.578575
C56	C	2.063225	0.578508	1.078575
H57	H	0.864564	0.136913	0.218238
H58	H	1.364564	0.636913	0.718238
Cl59	Cl	1.689556	-0.339978	0.000008
Cl60	Cl	2.189556	0.160022	0.500008
Cl61	Cl	1.660604	-0.001979	0.668574
Cl62	Cl	2.160604	0.498021	1.168574
Cl63	Cl	1.143466	0.142475	0.272999
Cl64	Cl	1.643466	0.642475	0.772999
H65	H	0.909146	0.137804	-0.100685
H66	H	1.409146	0.637804	0.399315
Cl67	Cl	1.660249	-0.002190	0.331391
Cl68	Cl	2.160249	0.497810	0.831391
H69	H	1.342294	-0.363911	-0.000019
H70	H	1.842294	0.136089	0.499981
Cl71	Cl	1.392210	0.219897	0.556374
Cl72	Cl	1.892210	0.719897	1.056374
H73	H	1.069961	0.141007	-0.100679
H74	H	1.569961	0.641007	0.399321
H75	H	1.426487	0.191529	0.411936
H76	H	1.926487	0.691529	0.911936
