data_functionalizedCrystal
_audit_creation_method	'MofGen! by Chris Wilmer'
_symmetry_space_group_name_H-M	'P1'
_symmetry_Int_Tables_number	1
_symmetry_cell_setting	triclinic
loop_
_symmetry_equiv_pos_as_xyz
  x,y,z
_cell_length_a	10.723024
_cell_length_b	19.188930
_cell_length_c	9.798715
_cell_angle_alpha	89.991738
_cell_angle_beta	89.996609
_cell_angle_gamma	83.806325
loop_
_atom_site_label
_atom_site_type_symbol
_atom_site_fract_x
_atom_site_fract_y
_atom_site_fract_z
O1	O	1.655155	0.097922	-0.113499
O2	O	1.291808	0.107295	-0.113506
O3	O	1.483967	0.001021	-0.113476
O4	O	1.462996	0.204196	-0.113529
O5	O	1.483952	0.001021	0.113507
O6	O	1.291793	0.107295	0.113477
O7	O	1.655140	0.097922	0.113483
Zn8	Zn	1.473465	0.102608	0.149518
Zn9	Zn	1.473483	0.102609	-0.149541
O10	O	1.462982	0.204196	0.113453
C11	C	1.245315	0.106613	-0.000015
C12	C	1.106803	0.104572	-0.000016
C13	C	1.483280	-0.024995	0.000019
C14	C	1.481242	-0.102512	0.000031
C15	C	1.030586	0.164037	-0.000033
C16	C	0.887427	0.161930	-0.000034
C17	C	1.593994	-0.146704	0.000040
C18	C	1.592079	-0.219540	0.000018
C19	C	1.477405	-0.248182	0.000015
C20	C	1.364638	-0.203981	-0.000001
C21	C	1.366556	-0.131146	0.000007
N22	N	1.389745	-0.356756	0.077260
N23	N	1.387931	-0.425947	0.077255
C24	C	1.471618	-0.467628	-0.000013
N25	N	1.557208	-0.437506	-0.077259
N26	N	1.559026	-0.368310	-0.077248
C27	C	1.475312	-0.327158	0.000005
C28	C	1.582302	-0.590797	-0.000030
C29	C	1.580382	-0.663634	-0.000061
C30	C	1.352937	-0.648073	-0.000066
C31	C	1.354860	-0.575238	-0.000049
C32	C	1.469546	-0.546604	-0.000025
C33	C	1.701633	0.098604	-0.000011
C34	C	1.840145	0.100645	-0.000019
C35	C	1.463668	0.230211	-0.000045
C36	C	1.465706	0.307729	-0.000066
N37	N	1.473461	0.102608	0.353618
N38	N	1.473497	0.102604	-0.353640
C39	C	1.554147	0.057789	0.421407
C40	C	1.554167	0.057787	0.578570
H41	H	0.821937	0.212836	-0.000054
H42	H	1.274736	-0.095165	0.000000
H43	H	1.687380	-0.123395	0.000055
O44	O	1.636398	0.012011	0.351671
C45	C	1.569541	-0.031261	0.269028
H46	H	1.471813	-0.003824	0.247805
H47	H	1.561205	-0.082925	0.323977
C48	C	1.759815	-0.079502	0.159260
C49	C	1.639787	-0.045800	0.133184
H50	H	1.803148	-0.088474	0.075467
H51	H	1.804860	-0.050351	0.214941
H52	H	1.752852	-0.122552	0.205054
H53	H	1.646752	-0.002748	0.087406
H54	H	1.594745	-0.074944	0.077491
H55	H	1.071319	0.216508	-0.000039
H56	H	1.066070	0.052101	-0.000037
H57	H	1.683899	-0.255527	0.000019
H58	H	0.905627	0.049735	-0.000013
O59	O	1.253321	-0.231882	-0.000184
C60	C	1.245405	-0.273524	-0.117759
H61	H	1.343855	-0.291186	-0.156946
H62	H	1.190032	-0.241609	-0.200079
C63	C	1.057647	-0.316574	-0.033927
C64	C	1.178566	-0.338271	-0.082050
H65	H	1.016413	-0.356511	-0.011903
H66	H	1.062977	-0.288517	0.045284
H67	H	1.011519	-0.289977	-0.102535
H68	H	1.224696	-0.364859	-0.013437
H69	H	1.173242	-0.366333	-0.161249
O70	O	1.693810	-0.563092	-0.000091
C71	C	1.792922	-0.617720	-0.000074
H72	H	1.758215	-0.667354	-0.043050
H73	H	1.827689	-0.627870	0.108816
C74	C	1.943733	-0.535672	-0.036312
C75	C	1.901108	-0.596632	-0.089107
H76	H	2.010471	-0.522664	-0.091226
H77	H	1.876961	-0.498868	-0.036319
H78	H	1.972697	-0.544139	0.054429
H79	H	1.872131	-0.588163	-0.179839
H80	H	1.967878	-0.633435	-0.089117
O81	O	1.241464	-0.675806	0.000111
C82	C	1.172754	-0.653304	0.117684
H83	H	1.206477	-0.602638	0.156888
H84	H	1.187433	-0.695385	0.199994
C85	C	0.990898	-0.702552	0.033816
C86	C	1.032309	-0.640320	0.081961
H87	H	0.904264	-0.694546	0.011784
H88	H	1.037189	-0.717715	-0.045394
H89	H	1.003141	-0.737613	0.102415
H90	H	1.020081	-0.605263	0.013355
H91	H	0.986012	-0.625151	0.161158
H92	H	1.672202	-0.699615	-0.000061
H93	H	1.263044	-0.539256	-0.000049
H94	H	1.623251	0.019419	0.636866
O95	O	1.391251	0.148415	0.576683
C96	C	1.458134	0.191686	0.494034
H97	H	1.555831	0.164223	0.472753
H98	H	1.466545	0.243327	0.549007
C99	C	1.267865	0.240024	0.384375
C100	C	1.387856	0.206290	0.358228
H101	H	1.224513	0.249035	0.300606
H102	H	1.222803	0.210873	0.440061
H103	H	1.274891	0.283054	0.430190
H104	H	1.380828	0.163257	0.312430
H105	H	1.432915	0.235434	0.302532
O106	O	1.391012	0.148287	0.423325
C107	C	1.314093	0.110591	0.505976
H108	H	1.363854	0.056139	0.527243
H109	H	1.221795	0.105550	0.451011
C110	C	1.226415	0.216658	0.615661
C111	C	1.287537	0.149781	0.641790
H112	H	1.210027	0.240833	0.699435
H113	H	1.278232	0.242056	0.559974
H114	H	1.149507	0.212448	0.569853
H115	H	1.364450	0.153992	0.687581
H116	H	1.235731	0.124385	0.697488
