data_functionalizedCrystal
_audit_creation_method	'MofGen! by Chris Wilmer'
_symmetry_space_group_name_H-M	'P1'
_symmetry_Int_Tables_number	1
_symmetry_cell_setting	triclinic
loop_
_symmetry_equiv_pos_as_xyz
  x,y,z
_cell_length_a	18.215407
_cell_length_b	25.639239
_cell_length_c	18.215399
_cell_angle_alpha	89.969965
_cell_angle_beta	89.980167
_cell_angle_gamma	90.039134
loop_
_atom_site_label
_atom_site_type_symbol
_atom_site_fract_x
_atom_site_fract_y
_atom_site_fract_z
Zn1	Zn	1.125001	-0.208150	-0.416105
Zn2	Zn	1.458335	0.125183	-0.082772
Zn3	Zn	1.791668	0.458517	0.250561
Zn4	Zn	1.124880	-0.295586	-0.293034
Zn5	Zn	1.458213	0.037747	0.040299
Zn6	Zn	1.791547	0.371081	0.373632
Zn7	Zn	1.001934	-0.208167	-0.293053
Zn8	Zn	1.335267	0.125166	0.040281
Zn9	Zn	1.668601	0.458500	0.373614
Zn10	Zn	1.001870	-0.295557	-0.416059
Zn11	Zn	1.335204	0.037777	-0.082726
Zn12	Zn	1.668537	0.371110	0.250607
O13	O	1.063421	-0.251865	-0.354563
O14	O	1.396755	0.081468	-0.021230
O15	O	1.730088	0.414802	0.312104
O16	O	1.227970	-0.219754	-0.399791
O17	O	1.561303	0.113580	-0.066458
O18	O	1.894636	0.446913	0.266875
O19	O	1.108547	-0.284009	-0.190052
O20	O	1.441880	0.049324	0.143281
O21	O	1.775214	0.382658	0.476614
O22	O	1.018337	-0.135000	-0.309403
O23	O	1.351670	0.198334	0.023931
O24	O	1.685003	0.531667	0.357264
O25	O	1.227880	-0.283992	-0.309372
O26	O	1.561214	0.049341	0.023962
O27	O	1.894547	0.382674	0.357295
O28	O	1.108754	-0.134987	-0.399809
O29	O	1.442087	0.198346	-0.066475
O30	O	1.775420	0.531680	0.266858
O31	O	1.018219	-0.219783	-0.190066
O32	O	1.351552	0.113551	0.143268
O33	O	1.684886	0.446884	0.476601
O34	O	0.898941	-0.219754	-0.309358
O35	O	1.232275	0.113579	0.023975
O36	O	1.565608	0.446912	0.357309
O37	O	1.018228	-0.283943	-0.519050
O38	O	1.351561	0.049391	-0.185716
O39	O	1.684895	0.382724	0.147617
O40	O	0.898894	-0.283959	-0.399731
O41	O	1.232228	0.049374	-0.066397
O42	O	1.565561	0.382707	0.266936
O43	O	1.108692	-0.219725	-0.519083
O44	O	1.442025	0.113608	-0.185750
O45	O	1.775358	0.446941	0.147583
O46	O	1.108485	-0.368747	-0.309327
O47	O	1.441819	-0.035414	0.024006
O48	O	1.775152	0.297919	0.357340
O49	O	1.018110	-0.368726	-0.399713
O50	O	1.351444	-0.035393	-0.066380
O51	O	1.684777	0.297941	0.266954
C52	C	0.872215	-0.251856	-0.354542
C53	C	1.205548	0.081477	-0.021208
C54	C	1.538882	0.414811	0.312125
C55	C	0.790416	-0.251865	-0.354550
C56	C	1.123750	0.081469	-0.021217
C57	C	1.457083	0.414802	0.312117
C58	C	1.063298	-0.387708	-0.354529
C59	C	1.396631	-0.054374	-0.021196
C60	C	1.729964	0.278959	0.312138
C61	C	1.063312	-0.445822	-0.354539
C62	C	1.396645	-0.112488	-0.021206
C63	C	1.729979	0.220845	0.312127
C64	C	0.602217	-0.285349	-0.401548
C65	C	0.935551	0.047985	-0.068215
C66	C	1.268884	0.381318	0.265119
C67	C	0.525358	-0.285350	-0.401557
C68	C	0.858692	0.047983	-0.068224
C69	C	1.192025	0.381316	0.265109
C70	C	0.525378	-0.218391	-0.307594
C71	C	0.858711	0.114943	0.025740
C72	C	1.192044	0.448276	0.359073
C73	C	0.602235	-0.218387	-0.307589
C74	C	0.935568	0.114947	0.025745
C75	C	1.268902	0.448280	0.359078
C76	C	0.640653	-0.251869	-0.354565
C77	C	0.973986	0.081465	-0.021232
C78	C	1.307319	0.414798	0.312102
C79	C	0.486937	-0.251874	-0.354579
C80	C	0.820270	0.081459	-0.021246
C81	C	1.153603	0.414792	0.312088
C82	C	0.403603	-0.251876	-0.354589
C83	C	0.736936	0.081458	-0.021255
C84	C	1.070270	0.414791	0.312078
C85	C	0.723992	-0.251867	-0.354556
C86	C	1.057325	0.081467	-0.021223
C87	C	1.390658	0.414800	0.312110
C88	C	1.110602	-0.806183	-0.307579
C89	C	1.443936	-0.472850	0.025754
C90	C	1.777269	-0.139516	0.359088
C91	C	1.110631	-0.860787	-0.307589
C92	C	1.443964	-0.527454	0.025744
C93	C	1.777298	-0.194121	0.359078
O94	O	1.150711	-0.889023	-0.267625
O95	O	1.484044	-0.555690	0.065709
O96	O	1.817377	-0.222356	0.399042
N97	N	1.063551	-0.888104	-0.354612
N98	N	1.396884	-0.554771	-0.021278
N99	N	1.730217	-0.221437	0.312055
C100	C	1.016444	-0.860813	-0.401633
C101	C	1.349778	-0.527480	-0.068299
C102	C	1.683111	-0.194147	0.265034
O103	O	0.976402	-0.889062	-0.441631
O104	O	1.309735	-0.555729	-0.108297
O105	O	1.643069	-0.222395	0.225036
C106	C	1.016420	-0.806210	-0.401626
C107	C	1.349753	-0.472877	-0.068293
C108	C	1.683087	-0.139543	0.265041
C109	C	1.063498	-0.778896	-0.354595
C110	C	1.396831	-0.445563	-0.021262
C111	C	1.730165	-0.112230	0.312072
C112	C	1.157677	-0.778869	-0.260553
C113	C	1.491010	-0.445536	0.072781
C114	C	1.824344	-0.112203	0.406114
C115	C	1.157647	-0.724269	-0.260542
C116	C	1.490981	-0.390935	0.072791
C117	C	1.824314	-0.057602	0.406125
C118	C	1.110543	-0.696982	-0.307558
C119	C	1.443876	-0.363649	0.025775
C120	C	1.777210	-0.030315	0.359109
C121	C	1.063468	-0.724296	-0.354584
C122	C	1.396802	-0.390962	-0.021251
C123	C	1.730135	-0.057629	0.312082
C124	C	0.969318	-0.778920	-0.448650
C125	C	1.302651	-0.445587	-0.115317
C126	C	1.635984	-0.112254	0.218016
C127	C	0.969298	-0.724313	-0.448640
C128	C	1.302631	-0.390980	-0.115307
C129	C	1.635965	-0.057647	0.218027
C130	C	1.016376	-0.697000	-0.401609
C131	C	1.349709	-0.363666	-0.068276
C132	C	1.683043	-0.030333	0.265058
C133	C	1.016334	-0.642408	-0.401590
C134	C	1.349668	-0.309075	-0.068256
C135	C	1.683001	0.024258	0.265077
N136	N	1.063414	-0.615092	-0.354567
N137	N	1.396748	-0.281759	-0.021234
N138	N	1.730081	0.051575	0.312100
C139	C	1.110519	-0.642379	-0.307551
C140	C	1.443852	-0.309045	0.025782
C141	C	1.777185	0.024288	0.359115
C142	C	1.016500	-0.975484	-0.401644
C143	C	1.349833	-0.642151	-0.068311
C144	C	1.683166	-0.308817	0.265023
C145	C	1.016520	-1.030086	-0.401648
C146	C	1.349853	-0.696753	-0.068314
C147	C	1.683186	-0.363420	0.265019
C148	C	1.110708	-1.030057	-0.307605
C149	C	1.444041	-0.696723	0.025729
C150	C	1.777374	-0.363390	0.359062
C151	C	1.110683	-0.975453	-0.307598
C152	C	1.444017	-0.642120	0.025735
C153	C	1.777350	-0.308787	0.359069
C154	C	1.063580	-0.948167	-0.354621
C155	C	1.396913	-0.614834	-0.021288
C156	C	1.730247	-0.281501	0.312045
C157	C	1.110452	-0.527714	-0.307532
C158	C	1.443786	-0.194380	0.025801
C159	C	1.777119	0.138953	0.359135
C160	C	1.110416	-0.473108	-0.307523
C161	C	1.443750	-0.139775	0.025810
C162	C	1.777083	0.193558	0.359143
C163	C	1.016232	-0.473143	-0.401569
C164	C	1.349565	-0.139809	-0.068235
C165	C	1.682898	0.193524	0.265098
C166	C	1.016265	-0.527743	-0.401575
C167	C	1.349598	-0.194410	-0.068242
C168	C	1.682931	0.138923	0.265092
C169	C	1.063381	-0.555027	-0.354554
C170	C	1.396714	-0.221694	-0.021221
C171	C	1.730048	0.111639	0.312113
O172	O	0.976277	-0.614138	-0.441536
O173	O	1.309611	-0.280805	-0.108202
O174	O	1.642944	0.052528	0.225131
O175	O	1.150561	-0.614123	-0.267567
O176	O	1.483894	-0.280790	0.065766
O177	O	1.817228	0.052543	0.399100
C178	C	1.255374	-0.251874	-0.354584
C179	C	1.588708	0.081459	-0.021251
C180	C	1.922041	0.414792	0.312082
C181	C	1.337173	-0.251878	-0.354594
C182	C	1.670507	0.081455	-0.021260
C183	C	2.003840	0.414788	0.312073
C184	C	1.063466	-0.251829	-0.546516
C185	C	1.396800	0.081504	-0.213183
C186	C	1.730133	0.414838	0.120151
C187	C	1.063485	-0.251814	-0.628315
C188	C	1.396819	0.081520	-0.294981
C189	C	1.730152	0.414853	0.038352
C190	C	1.063566	-0.115492	-0.354613
C191	C	1.396899	0.217841	-0.021279
C192	C	1.730232	0.551175	0.312054
C193	C	1.063627	-0.057378	-0.354634
C194	C	1.396961	0.275956	-0.021301
C195	C	1.730294	0.609289	0.312033
C196	C	1.110607	-0.218344	-0.816528
C197	C	1.443940	0.114989	-0.483194
C198	C	1.777274	0.448322	-0.149861
C199	C	1.110616	-0.218329	-0.893386
C200	C	1.443949	0.115004	-0.560053
C201	C	1.777282	0.448338	-0.226720
C202	C	1.016416	-0.285202	-0.893340
C203	C	1.349749	0.048131	-0.560007
C204	C	1.683083	0.381465	-0.226673
C205	C	1.016404	-0.285214	-0.816483
C206	C	1.349737	0.048119	-0.483149
C207	C	1.683071	0.381452	-0.149816
C208	C	1.063504	-0.251786	-0.778078
C209	C	1.396837	0.081547	-0.444745
C210	C	1.730170	0.414881	-0.111412
C211	C	1.063524	-0.251759	-0.931795
C212	C	1.396858	0.081575	-0.598461
C213	C	1.730191	0.414908	-0.265128
C214	C	1.063534	-0.251742	-1.015128
C215	C	1.396867	0.081591	-0.681795
C216	C	1.730200	0.414924	-0.348462
C217	C	1.063494	-0.251801	-0.694739
C218	C	1.396827	0.081532	-0.361406
C219	C	1.730160	0.414865	-0.028073
C220	C	1.063419	-0.251863	-0.163357
C221	C	1.396752	0.081470	0.169977
C222	C	1.730086	0.414804	0.503310
C223	C	1.063543	-0.251731	-0.081558
C224	C	1.396876	0.081602	0.251775
C225	C	1.730209	0.414935	0.585109
H226	H	0.633495	-0.312611	-0.439801
H227	H	0.966828	0.020723	-0.106468
H228	H	1.300161	0.354056	0.226866
F229	F	1.160599	-0.556744	-0.257487
F230	F	1.493932	-0.223410	0.075846
F231	F	1.827265	0.109923	0.409180
F232	F	0.484484	-0.182759	-0.257600
F233	F	0.817818	0.150574	0.075733
F234	F	1.151151	0.483907	0.409066
F235	F	0.919164	-0.695277	-0.498692
F236	F	1.252497	-0.361944	-0.165359
F237	F	1.585831	-0.028610	0.167975
F238	F	0.966146	-0.556814	-0.451617
F239	F	1.299479	-0.223480	-0.118283
F240	F	1.632813	0.109853	0.215050
F241	F	0.966295	-0.320778	-0.934219
F242	F	1.299628	0.012555	-0.600886
F243	F	1.632961	0.345888	-0.267552
F244	F	1.160754	-0.182739	-0.934303
F245	F	1.494088	0.150594	-0.600970
F246	F	1.827421	0.483928	-0.267637
F247	F	0.643143	-0.182748	-0.257584
F248	F	0.976477	0.150585	0.075749
F249	F	1.309810	0.483919	0.409083
F250	F	0.966264	-0.320807	-0.775560
F251	F	1.299597	0.012526	-0.442226
F252	F	1.632931	0.345860	-0.108893
H253	H	0.494068	-0.312613	-0.439817
H254	H	0.827401	0.020721	-0.106483
H255	H	1.160734	0.354054	0.226850
H256	H	0.978177	-1.052320	-0.439938
H257	H	1.311510	-0.718987	-0.106605
H258	H	1.644844	-0.385654	0.226729
F259	F	1.207818	-0.807902	-0.210508
F260	F	1.541151	-0.474568	0.122825
F261	F	1.874484	-0.141235	0.456158
F262	F	1.160525	-0.444042	-0.257464
F263	F	1.493858	-0.110709	0.075869
F264	F	1.827192	0.222625	0.409203
F265	F	1.207763	-0.695206	-0.210493
F266	F	1.541097	-0.361873	0.122840
F267	F	1.874430	-0.028540	0.456174
F268	F	1.160790	-0.946389	-0.257542
F269	F	1.494123	-0.613056	0.075791
F270	F	1.827457	-0.279722	0.409125
H271	H	1.149065	-1.052283	-0.269324
H272	H	1.482398	-0.718950	0.064009
H273	H	1.815732	-0.385617	0.397343
F274	F	0.966357	-0.946449	-0.451691
F275	F	1.299691	-0.613116	-0.118358
F276	F	1.633024	-0.279782	0.214975
F277	F	0.919216	-0.807978	-0.498715
F278	F	1.252550	-0.474645	-0.165381
F279	F	1.585883	-0.141311	0.167952
F280	F	0.966104	-0.444093	-0.451606
F281	F	1.299438	-0.110759	-0.118273
F282	F	1.632771	0.222574	0.215061
H283	H	1.148956	-0.191123	-0.785261
H284	H	1.482290	0.142210	-0.451928
H285	H	1.815623	0.475543	-0.118594
