data_functionalizedCrystal
_audit_creation_method	'MofGen! by Chris Wilmer'
_symmetry_space_group_name_H-M	'P1'
_symmetry_Int_Tables_number	1
_symmetry_cell_setting	triclinic
loop_
_symmetry_equiv_pos_as_xyz
  x,y,z
_cell_length_a	12.759401
_cell_length_b	16.120444
_cell_length_c	16.120256
_cell_angle_alpha	95.616860
_cell_angle_beta	92.880020
_cell_angle_gamma	92.928028
loop_
_atom_site_label
_atom_site_type_symbol
_atom_site_fract_x
_atom_site_fract_y
_atom_site_fract_z
Zn1	Zn	1.552077	-0.356730	-0.489423
Zn2	Zn	1.551942	-0.489416	-0.356734
Zn3	Zn	1.385767	-0.349665	-0.349672
Zn4	Zn	1.366953	-0.496466	-0.496462
O5	O	1.464185	-0.423069	-0.423073
O6	O	1.699079	-0.374337	-0.471831
O7	O	1.537716	-0.464971	-0.238834
O8	O	1.415759	-0.233636	-0.362309
O9	O	1.698980	-0.471821	-0.374345
O10	O	1.537946	-0.238827	-0.464983
O11	O	1.415628	-0.362297	-0.233646
O12	O	1.236251	-0.369133	-0.369134
O13	O	1.383692	-0.483836	-0.612491
O14	O	1.222428	-0.476986	-0.476981
O15	O	1.519702	-0.381173	-0.607319
O16	O	1.519472	-0.607318	-0.381171
O17	O	1.383561	-0.612497	-0.483828
C18	C	1.191219	-0.423058	-0.423056
C19	C	1.074441	-0.423075	-0.423069
C20	C	1.449488	-0.640236	-0.434048
C21	C	1.443294	-0.733142	-0.438771
C22	C	1.012409	-0.479311	-0.479145
C23	C	0.902683	-0.479315	-0.479161
C24	C	0.917032	-0.366844	-0.367020
C25	C	1.026755	-0.366836	-0.367008
C26	C	1.496558	-0.942050	-0.398750
C27	C	1.432006	-0.903238	-0.447404
C28	C	1.438289	-0.808588	-0.442599
C29	C	1.490276	-1.036709	-0.403554
C30	C	1.738216	-0.423081	-0.423090
C31	C	1.854992	-0.423086	-0.423098
C32	C	1.449614	-0.434079	-0.641080
C33	C	1.443404	-0.438771	-0.733982
C34	C	1.478967	-0.205056	-0.412073
C35	C	1.485266	-0.112151	-0.407385
C36	C	1.496565	-0.398581	-0.942906
C37	C	1.432035	-0.447302	-0.904067
C38	C	1.438363	-0.442554	-0.809423
C39	C	1.490239	-0.403328	-1.037559
C40	C	1.478764	-0.412042	-0.205910
C41	C	1.485192	-0.407115	-0.112997
H42	H	1.051230	-0.525102	-0.524795
C43	C	0.899529	-0.590494	-0.589997
C44	C	0.834498	-0.541136	-0.540798
H45	H	0.857432	-0.628663	-0.628047
H46	H	0.942652	-0.555744	-0.620185
H47	H	0.942595	-0.620560	-0.555123
H48	H	0.791437	-0.511065	-0.575671
H49	H	0.791356	-0.575891	-0.510608
H50	H	1.372022	-0.941095	-0.492665
C51	C	0.755204	-0.316914	-0.317245
C52	C	0.864612	-0.305032	-0.305396
H53	H	0.722847	-0.278756	-0.279196
H54	H	0.734311	-0.307609	-0.372806
H55	H	0.734256	-0.372436	-0.307754
H56	H	0.885562	-0.249512	-0.314893
H57	H	0.885514	-0.314331	-0.249822
C58	C	1.635995	-0.945190	-0.293578
C59	C	1.577521	-0.890953	-0.337643
H60	H	1.685977	-0.913636	-0.255855
H61	H	1.590171	-0.977676	-0.263278
H62	H	1.671507	-0.981034	-0.331718
H63	H	1.542002	-0.855113	-0.299503
H64	H	1.623352	-0.858453	-0.367944
H65	H	1.372031	-0.492575	-0.941897
C66	C	1.568238	-0.344547	-0.806614
C67	C	1.577569	-0.337470	-0.891845
H68	H	1.618253	-0.306826	-0.775086
H69	H	1.499423	-0.331600	-0.791729
H70	H	1.580727	-0.400015	-0.795223
H71	H	1.565072	-0.282004	-0.903237
H72	H	1.646399	-0.350412	-0.906735
C73	C	1.029927	-0.255665	-0.256150
C74	C	1.094950	-0.305019	-0.305362
H75	H	1.072030	-0.217507	-0.218094
H76	H	0.986864	-0.225595	-0.291009
H77	H	0.986800	-0.290426	-0.225962
H78	H	1.138071	-0.270259	-0.335555
H79	H	1.138031	-0.335092	-0.270498
