data_functionalizedCrystal
_audit_creation_method	'MofGen! by Chris Wilmer'
_symmetry_space_group_name_H-M	'P1'
_symmetry_Int_Tables_number	1
_symmetry_cell_setting	triclinic
loop_
_symmetry_equiv_pos_as_xyz
  x,y,z
_cell_length_a	15.944551
_cell_length_b	23.532407
_cell_length_c	14.421503
_cell_angle_alpha	89.999621
_cell_angle_beta	89.996859
_cell_angle_gamma	83.173708
loop_
_atom_site_label
_atom_site_type_symbol
_atom_site_fract_x
_atom_site_fract_y
_atom_site_fract_z
O1	O	1.113910	0.073442	-0.077025
O2	O	1.447244	0.406775	0.256309
O3	O	1.780577	0.740109	0.589642
O4	O	0.869284	0.082498	-0.077049
O5	O	1.202618	0.415831	0.256284
O6	O	1.535951	0.749164	0.589618
O7	O	0.998974	-0.004933	-0.077019
O8	O	1.332307	0.328400	0.256314
O9	O	1.665641	0.661733	0.589648
O10	O	0.984221	0.160873	-0.077055
O11	O	1.317554	0.494206	0.256279
O12	O	1.650887	0.827540	0.589612
O13	O	0.998953	-0.004920	0.077204
O14	O	1.332286	0.328413	0.410538
O15	O	1.665619	0.661746	0.743871
O16	O	0.869263	0.082511	0.077174
O17	O	1.202596	0.415844	0.410508
O18	O	1.535930	0.749177	0.743841
O19	O	1.113889	0.073455	0.077199
O20	O	1.447222	0.406788	0.410532
O21	O	1.780556	0.740122	0.743865
Cu22	Cu	0.991574	0.077984	0.091268
Cu23	Cu	1.324907	0.411317	0.424602
Cu24	Cu	1.658241	0.744651	0.757935
Cu25	Cu	0.991599	0.077969	-0.091119
Cu26	Cu	1.324933	0.411302	0.242215
Cu27	Cu	1.658266	0.744635	0.575548
O28	O	0.984199	0.160886	0.077169
O29	O	1.317533	0.494219	0.410502
O30	O	1.650866	0.827553	0.743836
C31	C	0.837983	0.082128	0.000060
C32	C	1.171316	0.415461	0.333393
C33	C	1.504650	0.748795	0.666727
C34	C	0.744746	0.081001	0.000051
C35	C	1.078080	0.414334	0.333385
C36	C	1.411413	0.747668	0.666718
C37	C	0.530369	0.024113	0.000081
C38	C	0.863702	0.357447	0.333415
C39	C	1.197036	0.690780	0.666748
C40	C	0.469137	0.050524	-0.075964
C41	C	0.802470	0.383857	0.257369
C42	C	1.135804	0.717190	0.590702
C43	C	0.574038	0.078962	0.000063
C44	C	0.907371	0.412295	0.333396
C45	C	1.240704	0.745629	0.666729
C46	C	0.469138	0.050550	0.076088
C47	C	0.802471	0.383883	0.409421
C48	C	1.135805	0.717216	0.742754
C49	C	0.409142	0.076989	0.000078
C50	C	0.742475	0.410322	0.333411
C51	C	1.075808	0.743655	0.666744
C52	C	0.514034	0.105388	-0.076046
C53	C	0.847367	0.438721	0.257287
C54	C	1.180700	0.772054	0.590621
C55	C	0.514041	0.105406	0.076075
C56	C	0.847374	0.438739	0.409408
C57	C	1.180708	0.772072	0.742741
C58	C	0.452826	0.131856	0.000010
C59	C	0.786159	0.465189	0.333343
C60	C	1.119493	0.798523	0.666677
C61	C	0.669030	0.080097	0.000053
C62	C	1.002364	0.413431	0.333387
C63	C	1.335697	0.746764	0.666720
C64	C	0.314150	0.075858	0.000081
C65	C	0.647483	0.409191	0.333414
C66	C	0.980817	0.742524	0.666747
C67	C	0.998588	-0.026144	0.000095
C68	C	1.331921	0.307189	0.333428
C69	C	1.665254	0.640522	0.666762
C70	C	0.997458	-0.089366	0.000102
C71	C	1.330791	0.243968	0.333435
C72	C	1.664125	0.577301	0.666769
C73	C	1.067121	-0.488199	0.000058
C74	C	1.400454	-0.154866	0.333391
C75	C	1.733788	0.178468	0.666725
C76	C	1.066072	-0.547603	0.000051
C77	C	1.399405	-0.214270	0.333384
C78	C	1.732738	0.119063	0.666718
O79	O	1.130650	-0.584098	0.000023
O80	O	1.463983	-0.250764	0.333356
O81	O	1.797317	0.082569	0.666690
N82	N	0.988971	-0.570528	0.000044
N83	N	1.322305	-0.237195	0.333377
N84	N	1.655638	0.096139	0.666711
C85	C	0.912915	-0.534045	0.000035
C86	C	1.246249	-0.200712	0.333368
C87	C	1.579582	0.132622	0.666701
O88	O	0.847239	-0.558999	0.000027
O89	O	1.180572	-0.225666	0.333361
O90	O	1.513906	0.107667	0.666694
C91	C	0.913965	-0.474642	0.000035
C92	C	1.247299	-0.141309	0.333368
C93	C	1.580632	0.192025	0.666702
C94	C	0.991071	-0.451721	0.000052
C95	C	1.324404	-0.118387	0.333385
C96	C	1.657737	0.214946	0.666718
C97	C	1.144220	-0.465277	0.000073
C98	C	1.477554	-0.131944	0.333407
C99	C	1.810887	0.201390	0.666740
C100	C	1.145269	-0.405877	0.000082
C101	C	1.478603	-0.072543	0.333416
C102	C	1.811936	0.260790	0.666749
C103	C	1.069219	-0.369399	0.000076
C104	C	1.402552	-0.036065	0.333409
C105	C	1.735886	0.297268	0.666742
C106	C	0.992120	-0.392320	0.000060
C107	C	1.325453	-0.058987	0.333394
C108	C	1.658786	0.274346	0.666727
C109	C	0.837910	-0.438160	0.000019
C110	C	1.171243	-0.104827	0.333353
C111	C	1.504577	0.228507	0.666686
C112	C	0.838967	-0.378754	0.000019
C113	C	1.172300	-0.045420	0.333352
C114	C	1.505634	0.287913	0.666686
C115	C	0.916072	-0.355832	0.000035
C116	C	1.249406	-0.022499	0.333369
C117	C	1.582739	0.310834	0.666702
C118	C	0.917118	-0.296442	0.000063
C119	C	1.250452	0.036891	0.333396
C120	C	1.583785	0.370225	0.666729
N121	N	0.994219	-0.273517	0.000070
N122	N	1.327552	0.059816	0.333403
N123	N	1.660886	0.393150	0.666736
C124	C	1.070269	-0.309995	0.000076
C125	C	1.403602	0.023338	0.333410
C126	C	1.736936	0.356671	0.666743
C127	C	0.910716	-0.658796	0.000032
C128	C	1.244049	-0.325463	0.333365
C129	C	1.577382	0.007870	0.666699
C130	C	0.909664	-0.718198	0.000038
C131	C	1.242998	-0.384865	0.333371
C132	C	1.576331	-0.051531	0.666705
C133	C	1.062821	-0.731752	0.000053
C134	C	1.396155	-0.398419	0.333386
C135	C	1.729488	-0.065086	0.666719
C136	C	1.063872	-0.672349	0.000053
C137	C	1.397205	-0.339016	0.333386
C138	C	1.730538	-0.005682	0.666720
C139	C	0.987816	-0.635871	0.000039
C140	C	1.321149	-0.302538	0.333372
C141	C	1.654483	0.030795	0.666706
C142	C	1.072466	-0.185250	0.000096
C143	C	1.405800	0.148083	0.333429
C144	C	1.739133	0.481417	0.666762
C145	C	1.073508	-0.125844	0.000108
C146	C	1.406842	0.207489	0.333442
C147	C	1.740175	0.540823	0.666775
C148	C	0.920352	-0.112295	0.000089
C149	C	1.253685	0.221038	0.333422
C150	C	1.587019	0.554371	0.666756
C151	C	0.919309	-0.171696	0.000081
C152	C	1.252643	0.161637	0.333415
C153	C	1.585976	0.494971	0.666748
C154	C	0.995373	-0.208173	0.000081
C155	C	1.328707	0.125161	0.333415
C156	C	1.662040	0.458494	0.666748
O157	O	0.852574	-0.259913	0.000087
O158	O	1.185907	0.073421	0.333420
O159	O	1.519241	0.406754	0.666753
O160	O	1.135935	-0.285033	0.000072
O161	O	1.469268	0.048300	0.333405
O162	O	1.802601	0.381634	0.666738
C163	C	1.145190	0.073824	0.000088
C164	C	1.478524	0.407158	0.333421
C165	C	1.811857	0.740491	0.666755
C166	C	1.238427	0.074951	0.000090
C167	C	1.571760	0.408285	0.333424
C168	C	1.905094	0.741618	0.666757
C169	C	0.984586	0.182097	0.000053
C170	C	1.317919	0.515430	0.333386
C171	C	1.651252	0.848764	0.666719
C172	C	0.985715	0.245318	0.000040
C173	C	1.319049	0.578652	0.333373
C174	C	1.652382	0.911985	0.666706
N175	N	0.991562	0.077994	0.219550
N176	N	1.324896	0.411328	0.552883
N177	N	1.658229	0.744661	0.886216
N178	N	0.991618	0.077954	-0.219400
N179	N	1.324951	0.411287	0.113933
N180	N	1.658285	0.744620	0.447267
C181	C	0.931583	0.118404	0.469190
C182	C	1.264917	0.451738	0.802523
C183	C	1.598250	0.785071	1.135856
C184	C	1.007390	0.129461	0.530997
C185	C	1.340724	0.462794	0.864330
C186	C	1.674057	0.796127	1.197664
C187	C	0.991583	0.077981	0.408711
C188	C	1.324916	0.411314	0.742044
C189	C	1.658249	0.744647	1.075378
C190	C	0.915795	0.066938	0.530998
C191	C	1.249129	0.400271	0.864331
C192	C	1.582462	0.733604	1.197664
C193	C	0.991596	0.077969	0.591433
C194	C	1.324929	0.411302	0.924766
C195	C	1.658262	0.744636	1.258099
C196	C	1.067428	0.089063	0.469158
C197	C	1.400761	0.422396	0.802491
C198	C	1.734094	0.755730	1.135824
C199	C	0.975783	0.026517	0.469153
C200	C	1.309117	0.359851	0.802486
C201	C	1.642450	0.693184	1.135820
C202	C	1.051645	0.037552	0.530932
C203	C	1.384978	0.370885	0.864266
C204	C	1.718312	0.704219	1.197599
C205	C	0.991574	0.077989	0.303450
C206	C	1.324907	0.411322	0.636783
C207	C	1.658241	0.744656	0.970117
C208	C	0.991613	0.077960	0.696691
C209	C	1.324947	0.411294	1.030025
C210	C	1.658280	0.744627	1.363358
H211	H	0.449231	0.027320	-0.140246
H212	H	0.782565	0.360653	0.193087
H213	H	1.115898	0.693986	0.526420
H214	H	1.134405	-0.214943	0.000092
H215	H	1.467738	0.118390	0.333426
H216	H	1.801072	0.451724	0.666759
H217	H	1.206153	-0.494973	0.000075
H218	H	1.539487	-0.161639	0.333409
H219	H	1.872820	0.171694	0.666742
Br220	Br	0.547030	0.144017	-0.183320
Br221	Br	0.880363	0.477350	0.150013
Br222	Br	1.213697	0.810684	0.483347
H223	H	0.851698	0.057603	0.558164
H224	H	1.185031	0.390936	0.891497
H225	H	1.518365	0.724269	1.224830
Br226	Br	1.168518	-0.641248	0.000077
Br227	Br	1.501851	-0.307915	0.333411
Br228	Br	1.835185	0.025418	0.666744
Br229	Br	0.805017	-0.749298	0.000038
Br230	Br	1.138351	-0.415965	0.333371
Br231	Br	1.471684	-0.082631	0.666705
Br232	Br	0.586523	-0.051767	-0.000021
Br233	Br	0.919857	0.281566	0.333312
Br234	Br	1.253190	0.614900	0.666646
H235	H	0.533968	0.128591	0.140359
H236	H	0.867301	0.461924	0.473693
H237	H	1.200635	0.795257	0.807026
H238	H	0.880895	0.152617	0.442080
H239	H	1.214228	0.485950	0.775413
H240	H	1.547562	0.819283	1.108747
H241	H	0.449238	0.027346	0.140377
H242	H	0.782572	0.360679	0.473710
H243	H	1.115905	0.694013	0.807043
Br244	Br	0.396916	0.207802	-0.000071
Br245	Br	0.730249	0.541136	0.333262
Br246	Br	1.063582	0.874469	0.666596
Br247	Br	1.178158	-0.094741	0.000132
Br248	Br	1.511492	0.238593	0.333465
Br249	Br	1.844825	0.571926	0.666798
Br250	Br	1.136311	-0.019437	0.575841
Br251	Br	1.469644	0.313896	0.909174
Br252	Br	1.802978	0.647230	1.242507
H253	H	1.131539	0.098450	0.442108
H254	H	1.464872	0.431784	0.775442
H255	H	1.798206	0.765117	1.108775
Br256	Br	0.953451	-0.045991	0.423837
Br257	Br	1.286784	0.287342	0.757171
Br258	Br	1.620118	0.620676	1.090504
Br259	Br	1.166034	-0.781270	0.000058
Br260	Br	1.499367	-0.447937	0.333391
Br261	Br	1.832700	-0.114603	0.666724
Br262	Br	1.249918	-0.374779	0.000078
Br263	Br	1.583251	-0.041446	0.333412
Br264	Br	1.916585	0.291888	0.666745
Br265	Br	0.735742	-0.329251	-0.000004
Br266	Br	1.069076	0.004082	0.333329
Br267	Br	1.402409	0.337416	0.666662
H268	H	0.848778	-0.629098	0.000028
H269	H	1.182111	-0.295765	0.333362
H270	H	1.515445	0.037568	0.666695
H271	H	0.775123	-0.456812	0.000000
H272	H	1.108456	-0.123478	0.333334
H273	H	1.441789	0.209855	0.666667
H274	H	1.020766	0.172977	0.558161
H275	H	1.354099	0.506310	0.891495
H276	H	1.687433	0.839644	1.224828
Br277	Br	0.814666	-0.202805	0.000080
Br278	Br	1.147999	0.130528	0.333414
Br279	Br	1.481332	0.463862	0.666747
H280	H	0.858434	-0.082584	0.000087
H281	H	1.191767	0.250749	0.333420
H282	H	1.525101	0.584083	0.666754
