data_functionalizedCrystal
_audit_creation_method	'MofGen! by Chris Wilmer'
_symmetry_space_group_name_H-M	'P1'
_symmetry_Int_Tables_number	1
_symmetry_cell_setting	triclinic
loop_
_symmetry_equiv_pos_as_xyz
  x,y,z
_cell_length_a	8.559649
_cell_length_b	17.038272
_cell_length_c	7.681481
_cell_angle_alpha	83.842174
_cell_angle_beta	94.913240
_cell_angle_gamma	80.445110
loop_
_atom_site_label
_atom_site_type_symbol
_atom_site_fract_x
_atom_site_fract_y
_atom_site_fract_z
O1	O	2.102567	-0.018069	-0.146400
O2	O	1.642806	0.021983	-0.146410
O3	O	1.869955	-0.111695	-0.146391
O4	O	1.875418	0.115610	-0.146419
O5	O	1.897909	-0.128182	0.146469
O6	O	1.670760	0.005496	0.146450
O7	O	2.130521	-0.034556	0.146460
Zn8	Zn	1.905079	-0.017147	0.192953
Zn9	Zn	1.868248	0.004575	-0.192903
O10	O	1.903372	0.099123	0.146441
C11	C	1.597666	0.016775	0.000018
C12	C	1.421513	0.025810	0.000015
C13	C	1.878962	-0.148769	0.000039
C14	C	1.864132	-0.234673	0.000038
C15	C	2.000285	-0.292946	0.000043
C16	C	1.986340	-0.373660	0.000026
C17	C	1.836242	-0.396101	0.000016
C18	C	1.700079	-0.337821	0.000006
C19	C	1.714024	-0.257108	0.000010
C20	C	1.786975	-0.638906	-0.000009
C21	C	1.773041	-0.719626	-0.000008
C22	C	2.059303	-0.755459	0.000008
C23	C	2.073236	-0.674743	0.000023
C24	C	1.937072	-0.616470	0.000004
C25	C	1.821985	-0.478604	0.000004
C26	C	1.951329	-0.533968	0.000003
C27	C	2.175661	-0.029347	0.000028
C28	C	2.351812	-0.038381	0.000020
C29	C	1.894365	0.136197	0.000008
C30	C	1.909193	0.222102	-0.000003
N31	N	1.930226	-0.031973	0.456289
N32	N	1.843113	0.019394	-0.456239
H33	H	1.426899	-0.100250	0.000019
H34	H	2.019169	-0.084402	0.531503
H35	H	1.346417	0.087683	-0.000002
N36	N	1.668652	-0.501511	0.000006
N37	N	1.562577	-0.473545	-0.123429
H38	H	1.454282	-0.489723	-0.123427
N39	N	1.731527	0.085166	0.449456
N40	N	1.649617	0.133460	0.531600
H41	H	1.570805	0.179914	0.464991
H42	H	2.122512	-0.274682	0.000061
N43	N	2.125432	-0.433172	0.000013
N44	N	2.259438	-0.413125	0.000024
H45	H	2.357680	-0.455155	0.000010
H46	H	2.170159	-0.802912	0.000021
N47	N	2.226571	-0.651836	0.000035
N48	N	2.348127	-0.703874	0.000036
H49	H	2.456424	-0.687698	0.000048
N50	N	1.619720	-0.742558	0.000026
N51	N	1.537232	-0.728503	0.123480
H52	H	1.428957	-0.744702	0.123517
N53	N	2.104635	-0.511035	0.000034
N54	N	2.156106	-0.476942	0.123489
H55	H	2.264379	-0.460738	0.123520
H56	H	1.676100	-0.591469	-0.000025
H57	H	1.603153	-0.209662	0.000006
N58	N	1.546773	-0.360759	0.000016
N59	N	1.518850	-0.408755	0.123466
H60	H	1.410576	-0.424956	0.123481
