data_functionalizedCrystal
_audit_creation_method	'MofGen! by Chris Wilmer'
_symmetry_space_group_name_H-M	'P1'
_symmetry_Int_Tables_number	1
_symmetry_cell_setting	triclinic
loop_
_symmetry_equiv_pos_as_xyz
  x,y,z
_cell_length_a	14.908782
_cell_length_b	14.908520
_cell_length_c	12.759393
_cell_angle_alpha	93.263606
_cell_angle_beta	93.279066
_cell_angle_gamma	89.837842
loop_
_atom_site_label
_atom_site_type_symbol
_atom_site_fract_x
_atom_site_fract_y
_atom_site_fract_z
Zn1	Zn	1.353929	-0.437191	-0.532248
Zn2	Zn	1.853929	0.062809	-0.032248
Zn3	Zn	1.345139	-0.587568	-0.367252
Zn4	Zn	1.845139	-0.087568	0.132748
Zn5	Zn	1.203563	-0.428564	-0.366123
Zn6	Zn	1.703563	0.071436	0.133877
Zn7	Zn	1.194865	-0.578835	-0.552416
Zn8	Zn	1.694865	-0.078835	-0.052416
O9	O	1.274374	-0.508039	-0.454509
O10	O	1.774374	-0.008039	0.045491
O11	O	1.478582	-0.464404	-0.502393
O12	O	1.978582	0.035596	-0.002393
O13	O	1.326320	-0.566520	-0.220086
O14	O	1.826320	-0.066520	0.279914
O15	O	1.230828	-0.303886	-0.379247
O16	O	1.730828	0.196114	0.120753
O17	O	1.472124	-0.574885	-0.381171
O18	O	1.972124	-0.074885	0.118829
O19	O	1.341302	-0.310224	-0.501298
O20	O	1.841302	0.189776	-0.001298
O21	O	1.222305	-0.449700	-0.219257
O22	O	1.722305	0.050300	0.280743
O23	O	1.076590	-0.441232	-0.398803
O24	O	1.576590	0.058768	0.101197
O25	O	1.216004	-0.560001	-0.696756
O26	O	1.716004	-0.060001	-0.196756
O27	O	1.070200	-0.551636	-0.535671
O28	O	1.570200	-0.051636	-0.035671
O29	O	1.332868	-0.455936	-0.681938
O30	O	1.832868	0.044064	-0.181938
O31	O	1.317886	-0.712231	-0.400727
O32	O	1.817886	-0.212231	0.099273
O33	O	1.207480	-0.705815	-0.536766
O34	O	1.707480	-0.205815	-0.036766
C35	C	1.040772	-0.494551	-0.469304
C36	C	1.540772	0.005449	0.030696
C37	C	0.940834	-0.488802	-0.475659
C38	C	1.440834	0.011198	0.024341
C39	C	0.746324	-0.592886	-0.361158
C40	C	1.246324	-0.092886	0.138842
C41	C	0.652424	-0.587488	-0.367126
C42	C	1.152424	-0.087488	0.132874
C43	C	0.659132	-0.472612	-0.493570
C44	C	1.159132	0.027388	0.006430
C45	C	0.753032	-0.478010	-0.487601
C46	C	1.253032	0.021990	0.012399
C47	C	0.796625	-0.538148	-0.421392
C48	C	1.296625	-0.038148	0.078608
C49	C	0.890527	-0.543542	-0.415418
C50	C	1.390527	-0.043542	0.084582
C51	C	0.897233	-0.428671	-0.541867
C52	C	1.397233	0.071329	-0.041867
C53	C	0.803333	-0.423273	-0.547836
C54	C	1.303333	0.076727	-0.047836
C55	C	1.260810	-0.741649	-0.471079
C56	C	1.760810	-0.241649	0.028921
C57	C	1.255089	-0.841593	-0.478197
C58	C	1.755089	-0.341593	0.021803
C59	C	1.359423	-1.036025	-0.350017
C60	C	1.859423	-0.536025	0.149983
C61	C	1.354050	-1.129932	-0.356701
C62	C	1.854050	-0.629932	0.143299
C63	C	1.238978	-1.123315	-0.498256
C64	C	1.738978	-0.623315	0.001744
C65	C	1.244350	-1.029408	-0.491571
C66	C	1.744350	-0.529408	0.008429
C67	C	1.304573	-0.985767	-0.417448
C68	C	1.804573	-0.485767	0.082552
C69	C	1.309940	-0.891858	-0.410759
C70	C	1.809940	-0.391858	0.089241
C71	C	1.194873	-0.885243	-0.552317
C72	C	1.694873	-0.385243	-0.052317
C73	C	1.189501	-0.979150	-0.559002
C74	C	1.689501	-0.479150	-0.059002
C75	C	1.508888	-0.521581	-0.439658
C76	C	2.008888	-0.021581	0.060342
C77	C	1.608824	-0.527352	-0.433329
C78	C	2.108824	-0.027352	0.066671
C79	C	1.274446	-0.507957	-0.728532
C80	C	1.774446	-0.007957	-0.228532
C81	C	1.274477	-0.507922	-0.845305
C82	C	1.774477	-0.007922	-0.345305
C83	C	1.288016	-0.273518	-0.437897
C84	C	1.788016	0.226482	0.062103
C85	C	1.293829	-0.173580	-0.430817
C86	C	1.793829	0.326420	0.069183
C87	C	1.335333	-0.453726	-0.892452
C88	C	1.835333	0.046274	-0.392452
C89	C	1.335350	-0.453688	-1.002173
C90	C	1.835350	0.046312	-0.502173
C91	C	1.213653	-0.562049	-1.017589
C92	C	1.713653	-0.062049	-0.517589
C93	C	1.213632	-0.562082	-0.907871
C94	C	1.713632	-0.062082	-0.407871
C95	C	1.274357	-0.508059	-0.181544
C96	C	1.774357	-0.008059	0.318456
C97	C	1.274516	-0.507851	-0.064744
C98	C	1.774516	-0.007851	0.435256
H99	H	0.767826	-0.374313	-0.601745
H100	H	1.267826	0.125687	-0.101745
H101	H	1.398716	-1.170849	-0.301794
H102	H	1.898716	-0.670849	0.198206
C103	C	1.123254	-1.027166	-0.640528
C104	C	1.623254	-0.527166	-0.140528
N105	N	1.073351	-1.063330	-0.701930
N106	N	1.573351	-0.563330	-0.201930
H107	H	0.938198	-0.384096	-0.590909
H108	H	1.438198	0.115904	-0.090909
C109	C	1.134535	-0.829951	-0.626497
C110	C	1.634535	-0.329951	-0.126497
N111	N	1.089088	-0.788304	-0.682365
N112	N	1.589088	-0.288304	-0.182365
H113	H	1.384904	-0.409555	-1.040554
H114	H	1.884904	0.090445	-0.540554
H115	H	1.164117	-0.606146	-1.068544
H116	H	1.664117	-0.106146	-0.568544
C117	C	1.402256	-0.394140	-0.823633
C118	C	1.902256	0.105860	-0.323633
N119	N	1.452662	-0.349255	-0.771801
N120	N	1.952662	0.150745	-0.271801
H121	H	1.358975	-0.856326	-0.350402
H122	H	1.858975	-0.356326	0.149598
H123	H	0.781818	-0.641847	-0.307240
H124	H	1.281818	-0.141847	0.192760
H125	H	1.189953	-1.158864	-0.558609
H126	H	1.689953	-0.658864	-0.058609
H127	H	1.408453	-1.000492	-0.289656
H128	H	1.908453	-0.500492	0.210344
H129	H	0.623622	-0.423658	-0.547484
H130	H	1.123622	0.076342	-0.047484
H131	H	1.164070	-0.606213	-0.869483
H132	H	1.664070	-0.106213	-0.369483
H133	H	0.611472	-0.632062	-0.318079
H134	H	1.111472	-0.132062	0.181921
C135	C	0.938477	-0.609697	-0.342590
C136	C	1.438477	-0.109697	0.157410
N137	N	0.974591	-0.659529	-0.287736
N138	N	1.474591	-0.159529	0.212264
