data_functionalizedCrystal
_audit_creation_method	'MofGen! by Chris Wilmer'
_symmetry_space_group_name_H-M	'P1'
_symmetry_Int_Tables_number	1
_symmetry_cell_setting	triclinic
loop_
_symmetry_equiv_pos_as_xyz
  x,y,z
_cell_length_a	15.944551
_cell_length_b	14.853567
_cell_length_c	15.021413
_cell_angle_alpha	89.992183
_cell_angle_beta	90.002826
_cell_angle_gamma	83.566834
loop_
_atom_site_label
_atom_site_type_symbol
_atom_site_fract_x
_atom_site_fract_y
_atom_site_fract_z
O1	O	-1.114658	-0.116261	-0.073932
O2	O	-0.614658	0.383739	0.426068
O3	O	-0.870125	-0.130597	-0.073953
O4	O	-0.370125	0.369403	0.426047
O5	O	-0.998923	0.007809	-0.073944
O6	O	-0.498923	0.507809	0.426056
O7	O	-0.985860	-0.254667	-0.073940
O8	O	-0.485860	0.245333	0.426060
O9	O	-0.998903	0.007789	0.074120
O10	O	-0.498903	0.507789	0.574120
O11	O	-0.870104	-0.130616	0.074111
O12	O	-0.370104	0.369384	0.574111
O13	O	-1.114638	-0.116281	0.074133
O14	O	-0.614638	0.383719	0.574133
Zn15	Zn	-0.992368	-0.123452	0.097630
Zn16	Zn	-0.492368	0.376548	0.597630
Zn17	Zn	-0.992395	-0.123426	-0.097451
Zn18	Zn	-0.492395	0.376574	0.402549
O19	O	-0.985839	-0.254687	0.074124
O20	O	-0.485839	0.245313	0.574124
C21	C	-0.998321	0.041387	0.000085
C22	C	-0.498321	0.541387	0.500085
C23	C	-0.996547	0.141469	0.000077
C24	C	-0.496547	0.641469	0.500077
C25	C	-0.838820	-0.130011	0.000076
C26	C	-0.338820	0.369989	0.500076
C27	C	-0.745572	-0.128227	0.000068
C28	C	-0.245572	0.371773	0.500068
C29	C	-1.145943	-0.116866	0.000101
C30	C	-0.645943	0.383134	0.500101
C31	C	-1.239191	-0.118650	0.000104
C32	C	-0.739191	0.381350	0.500104
C33	C	-0.530615	-0.038172	0.000084
C34	C	-0.030615	0.461828	0.500084
C35	C	-0.469651	-0.079981	-0.072919
C36	C	0.030349	0.420019	0.427081
C37	C	-0.574842	-0.124999	0.000078
C38	C	-0.074842	0.375001	0.500078
C39	C	-0.469653	-0.080021	0.073061
C40	C	0.030347	0.419979	0.573061
C41	C	-0.409926	-0.121875	0.000092
C42	C	0.090074	0.378125	0.500092
C43	C	-0.515107	-0.166832	-0.072985
C44	C	-0.015107	0.333168	0.427015
C45	C	-0.515116	-0.166860	0.073061
C46	C	-0.015116	0.333140	0.573061
C47	C	-0.454170	-0.208732	0.000040
C48	C	0.045830	0.291268	0.500040
C49	C	-0.669847	-0.126797	0.000070
C50	C	-0.169847	0.373203	0.500070
C51	C	-0.314923	-0.120085	0.000095
C52	C	0.185077	0.379915	0.500095
C53	C	-0.986441	-0.288265	0.000093
C54	C	-0.486441	0.211735	0.500093
C55	C	-0.988215	-0.388346	0.000095
C56	C	-0.488215	0.111654	0.500095
N57	N	-0.992355	-0.123469	0.230768
N58	N	-0.492355	0.376531	0.730768
C59	C	-0.912540	0.553895	0.000087
C60	C	-0.412540	1.053895	0.500087
C61	C	-1.065556	0.575372	0.000100
C62	C	-0.565556	1.075372	0.500100
C63	C	-1.067224	0.481341	0.000095
C64	C	-0.567224	0.981341	0.500095
C65	C	-0.991549	0.423582	0.000087
C66	C	-0.491549	0.923582	0.500087
C67	C	-0.914206	0.459854	0.000084
C68	C	-0.414206	0.959854	0.500084
C69	C	-1.144565	0.445061	0.000107
C70	C	-0.644565	0.945061	0.500107
C71	C	-1.146236	0.351024	0.000103
C72	C	-0.646236	0.851024	0.500103
C73	C	-1.070560	0.293263	0.000088
C74	C	-0.570560	0.793263	0.500088
C75	C	-0.993214	0.329541	0.000085
C76	C	-0.493214	0.829541	0.500085
C77	C	-0.917539	0.271782	0.000077
C78	C	-0.417539	0.771782	0.500077
C79	C	-0.840192	0.308058	0.000067
C80	C	-0.340192	0.808058	0.500067
C81	C	-0.838530	0.402093	0.000070
C82	C	-0.338530	0.902093	0.500070
C83	C	-1.072223	0.199228	0.000085
C84	C	-0.572223	0.699228	0.500085
C85	C	-0.919205	0.177741	0.000075
C86	C	-0.419205	0.677741	0.500075
N87	N	-0.992414	-0.123401	-0.230588
N88	N	-0.492414	0.376599	0.269412
C89	C	-0.932790	-0.187438	0.470447
C90	C	-0.432790	0.312562	0.970447
C91	C	-1.008710	-0.204940	0.529789
C92	C	-0.508710	0.295060	1.029789
C93	C	-0.992377	-0.123447	0.412375
C94	C	-0.492377	0.376553	0.912375
C95	C	-0.916478	-0.105964	0.529775
C96	C	-0.416478	0.394036	1.029775
C97	C	-0.992391	-0.123427	0.587799
C98	C	-0.492391	0.376573	1.087799
C99	C	-1.068335	-0.140989	0.470410
C100	C	-0.568335	0.359011	0.970410
C101	C	-0.976053	-0.041978	0.470391
C102	C	-0.476053	0.458022	0.970391
C103	C	-1.052028	-0.059446	0.529706
C104	C	-0.552028	0.440554	1.029706
C105	C	-0.992368	-0.123460	0.311318
C106	C	-0.492368	0.376540	0.811318
C107	C	-0.992409	-0.123412	0.688854
C108	C	-0.492409	0.376588	1.188854
H109	H	-0.563867	0.033887	-0.000008
H110	H	-0.063867	0.533887	0.499992
H111	H	-1.132542	-0.155850	0.444443
H112	H	-0.632542	0.344150	0.944443
Cl113	Cl	-1.129918	0.024121	0.569633
Cl114	Cl	-0.629918	0.524121	1.069633
Cl115	Cl	-0.824064	0.105137	0.000058
Cl116	Cl	-0.324064	0.605137	0.500058
Cl117	Cl	-0.438554	-0.023272	-0.168212
Cl118	Cl	0.061446	0.476728	0.331788
H119	H	-0.962210	0.026887	0.444280
H120	H	-0.462210	0.526887	0.944280
Cl121	Cl	-0.817371	-0.083146	0.570038
Cl122	Cl	-0.317371	0.416854	1.070038
H123	H	-0.449518	-0.043289	0.134777
H124	H	0.050482	0.456711	0.634777
H125	H	-0.421092	-0.280866	0.000000
H126	H	0.078908	0.219134	0.500000
Cl127	Cl	-0.745062	0.235436	0.000065
Cl128	Cl	-0.245062	0.735436	0.500065
Cl129	Cl	-1.239693	0.517674	0.000136
Cl130	Cl	-0.739693	1.017674	0.500136
Cl131	Cl	-0.741303	0.447704	0.000055
Cl132	Cl	-0.241303	0.947704	0.500055
Cl133	Cl	-0.546251	-0.223526	0.168357
Cl134	Cl	-0.046251	0.276474	0.668357
Cl135	Cl	-0.546038	-0.223476	-0.168378
Cl136	Cl	-0.046038	0.276524	0.331622
Cl137	Cl	-1.030047	-0.311295	0.570072
Cl138	Cl	-0.530047	0.188705	1.070072
Cl139	Cl	-1.160685	0.647983	0.000125
Cl140	Cl	-0.660685	1.147983	0.500125
Cl141	Cl	-0.815309	0.599496	0.000066
Cl142	Cl	-0.315309	1.099496	0.500066
H143	H	-1.209217	0.321496	0.000110
H144	H	-0.709217	0.821496	0.500110
Cl145	Cl	-0.855070	-0.271051	0.430269
Cl146	Cl	-0.355070	0.228949	0.930269
Cl147	Cl	-1.169450	0.153626	0.000114
Cl148	Cl	-0.669450	0.653626	0.500114
