data_functionalizedCrystal
_audit_creation_method	'MofGen! by Chris Wilmer'
_symmetry_space_group_name_H-M	'P1'
_symmetry_Int_Tables_number	1
_symmetry_cell_setting	triclinic
loop_
_symmetry_equiv_pos_as_xyz
  x,y,z
_cell_length_a	19.077312
_cell_length_b	21.295417
_cell_length_c	19.076919
_cell_angle_alpha	92.267699
_cell_angle_beta	94.668947
_cell_angle_gamma	87.735906
loop_
_atom_site_label
_atom_site_type_symbol
_atom_site_fract_x
_atom_site_fract_y
_atom_site_fract_z
Zn1	Zn	1.061621	-0.301472	-0.355250
Zn2	Zn	1.561621	0.198528	0.144750
Zn3	Zn	1.066265	-0.402671	-0.237363
Zn4	Zn	1.566265	0.097329	0.262637
Zn5	Zn	0.948479	-0.293365	-0.242118
Zn6	Zn	1.448479	0.206635	0.257882
Zn7	Zn	0.943697	-0.402645	-0.359946
Zn8	Zn	1.443697	0.097355	0.140054
O9	O	1.005015	-0.350038	-0.298669
O10	O	1.505015	0.149962	0.201331
O11	O	1.160882	-0.318299	-0.335657
O12	O	1.660882	0.181701	0.164343
O13	O	1.054586	-0.384790	-0.139346
O14	O	1.554586	0.115210	0.360654
O15	O	0.963545	-0.206354	-0.257151
O16	O	1.463545	0.293646	0.242849
O17	O	1.164295	-0.392650	-0.249046
O18	O	1.664295	0.107350	0.250954
O19	O	1.046670	-0.212310	-0.340268
O20	O	1.546670	0.287690	0.159732
O21	O	0.968049	-0.304483	-0.142840
O22	O	1.468049	0.195517	0.357160
O23	O	0.849199	-0.304458	-0.261704
O24	O	1.349199	0.195542	0.238296
O25	O	0.955394	-0.392606	-0.457970
O26	O	1.455394	0.107394	0.042030
O27	O	0.845686	-0.384746	-0.348271
O28	O	1.345686	0.115254	0.151729
O29	O	1.042033	-0.318274	-0.454520
O30	O	1.542033	0.181726	0.045480
O31	O	1.049949	-0.490754	-0.253599
O32	O	1.549949	0.009246	0.246401
O33	O	0.959898	-0.490735	-0.343660
O34	O	1.459898	0.009265	0.156340
C35	C	0.821865	-0.343720	-0.306013
C36	C	1.321865	0.156280	0.193987
C37	C	0.743511	-0.341033	-0.309172
C38	C	1.243511	0.158967	0.190828
C39	C	0.302273	-0.321709	-0.331832
C40	C	0.802273	0.178291	0.168168
C41	C	0.375894	-0.324245	-0.328861
C42	C	0.875894	0.175755	0.171139
C43	C	0.414476	-0.364155	-0.282208
C44	C	0.914476	0.135845	0.217792
C45	C	0.379432	-0.401536	-0.238529
C46	C	0.879432	0.098464	0.261471
C47	C	0.305811	-0.399002	-0.241505
C48	C	0.805811	0.100998	0.258495
C49	C	0.634847	-0.375880	-0.268469
C50	C	1.134847	0.124120	0.231531
C51	C	0.708472	-0.378409	-0.265495
C52	C	1.208472	0.121591	0.234505
C53	C	0.704930	-0.301119	-0.355828
C54	C	1.204930	0.198881	0.144172
C55	C	0.631308	-0.298586	-0.358796
C56	C	1.131308	0.201414	0.141204
C57	C	0.596271	-0.335969	-0.315120
C58	C	1.096271	0.164031	0.184880
N59	N	0.489729	-0.366748	-0.279168
N60	N	0.989729	0.133252	0.220832
N61	N	0.521019	-0.333380	-0.318164
N62	N	1.021019	0.166620	0.181836
C63	C	1.004927	-0.513586	-0.298637
C64	C	1.504927	-0.013586	0.201363
C65	C	1.004953	-0.583555	-0.298644
C66	C	1.504953	-0.083555	0.201356
C67	C	1.048209	-0.619466	-0.341957
C68	C	1.548209	-0.119466	0.158043
C69	C	1.048233	-0.685210	-0.341973
C70	C	1.548233	-0.185210	0.158027
C71	C	1.005009	-0.715040	-0.298664
C72	C	1.505009	-0.215040	0.201336
C73	C	0.961744	-0.679121	-0.255349
C74	C	1.461744	-0.179121	0.244651
C75	C	0.961716	-0.613378	-0.255339
C76	C	1.461716	-0.113378	0.244661
N77	N	1.002166	-0.815990	-0.237184
N78	N	1.502166	-0.315990	0.262816
N79	N	1.002197	-0.878443	-0.237195
N80	N	1.502197	-0.378443	0.262805
C81	C	1.005090	-0.913119	-0.298693
C82	C	1.505090	-0.413119	0.201307
N83	N	1.007965	-0.882983	-0.360180
N84	N	1.507965	-0.382983	0.139820
N85	N	1.007938	-0.820524	-0.360167
N86	N	1.507938	-0.320524	0.139833
C87	C	1.005034	-0.786327	-0.298671
C88	C	1.505034	-0.286327	0.201329
C89	C	1.048374	-1.020317	-0.342027
C90	C	1.548374	-0.520317	0.157973
C91	C	1.048394	-1.086062	-0.342045
C92	C	1.548394	-0.586062	0.157955
C93	C	0.961909	-1.079972	-0.255414
C94	C	1.461909	-0.579972	0.244586
C95	C	0.961886	-1.014228	-0.255403
C96	C	1.461886	-0.514228	0.244597
C97	C	1.005122	-0.984405	-0.298708
C98	C	1.505122	-0.484405	0.201292
C99	C	1.188881	-0.356382	-0.291297
C100	C	1.688881	0.143618	0.208703
C101	C	1.267234	-0.359085	-0.288155
C102	C	1.767234	0.140915	0.211845
C103	C	0.997662	-0.356341	-0.482539
C104	C	1.497662	0.143659	0.017461
C105	C	0.994528	-0.359027	-0.560893
C106	C	1.494528	0.140973	-0.060893
C107	C	1.005123	-0.185854	-0.298716
C108	C	1.505123	0.314146	0.201284
C109	C	1.005168	-0.115888	-0.298736
C110	C	1.505168	0.384112	0.201264
C111	C	1.038162	-0.321590	-0.595909
C112	C	1.538162	0.178410	-0.095909
C113	C	1.035209	-0.324111	-0.669531
C114	C	1.535209	0.175889	-0.169531
C115	C	0.988625	-0.364073	-0.708136
C116	C	1.488625	0.135927	-0.208136
C117	C	0.944987	-0.401512	-0.673115
C118	C	1.444987	0.098488	-0.173115
C119	C	0.947937	-0.398987	-0.599494
C120	C	1.447937	0.101013	-0.099494
C121	C	0.974963	-0.375771	-0.928512
C122	C	1.474963	0.124229	-0.428512
C123	C	0.972018	-0.378294	-1.002138
C124	C	1.472018	0.121706	-0.502138
C125	C	1.062238	-0.300893	-0.998549
C126	C	1.562238	0.199107	-0.498549
C127	C	1.065187	-0.298374	-0.924927
C128	C	1.565187	0.201626	-0.424927
C129	C	1.021547	-0.335810	-0.889912
C130	C	1.521547	0.164190	-0.389912
N131	N	0.985607	-0.366653	-0.783390
N132	N	1.485607	0.133347	-0.283390
N133	N	1.024561	-0.333227	-0.814660
N134	N	1.524561	0.166773	-0.314660
C135	C	1.012381	-0.343716	-0.115513
C136	C	1.512381	0.156284	0.384487
C137	C	1.015651	-0.340857	-0.037154
C138	C	1.515651	0.159143	0.462846
H139	H	0.277284	-0.429439	-0.205940
H140	H	0.777284	0.070561	0.294060
H141	H	1.097767	-0.270414	-1.027066
H142	H	1.597767	0.229586	-0.527066
C143	C	0.406812	-0.428721	-0.118184
C144	C	0.906812	0.071279	0.381816
C145	C	0.421835	-0.445410	-0.187248
C146	C	0.921835	0.054590	0.312752
H147	H	0.432986	-0.455810	-0.086526
H148	H	0.932986	0.044190	0.413474
H149	H	0.419312	-0.386483	-0.107471
H150	H	0.919312	0.113517	0.392529
H151	H	0.357949	-0.432561	-0.113718
H152	H	0.857949	0.067439	0.386282
H153	H	0.470697	-0.441565	-0.191716
H154	H	0.970697	0.058435	0.308284
H155	H	0.409339	-0.487658	-0.197965
H156	H	0.909339	0.012342	0.302035
C157	C	0.883122	-0.454545	-0.998295
C158	C	1.383122	0.045455	-0.498295
C159	C	0.920806	-0.422221	-1.044575
C160	C	1.420806	0.077779	-0.544575
H161	H	0.851507	-0.481659	-1.024496
H162	H	1.351507	0.018341	-0.524496
H163	H	0.914965	-0.478699	-0.968343
H164	H	1.414965	0.021301	-0.468343
H165	H	0.857327	-0.425196	-0.970669
H166	H	1.357327	0.074804	-0.470669
H167	H	0.946606	-0.451570	-1.072198
H168	H	1.446606	0.048430	-0.572198
H169	H	0.888959	-0.398065	-1.074539
H170	H	1.388959	0.101935	-0.574539
C171	C	0.923274	-0.509897	-0.216861
C172	C	1.423274	-0.009897	0.283139
C173	C	0.914168	-0.573900	-0.207725
C174	C	1.414168	-0.073900	0.292275
H175	H	0.893916	-0.485526	-0.187467
H176	H	1.393916	0.014474	0.312533
H177	H	0.971047	-0.500374	-0.204678
H178	H	1.471047	-0.000374	0.295322
H179	H	0.911021	-0.500386	-0.264633
H180	H	1.411021	-0.000386	0.235367
H181	H	0.926426	-0.583413	-0.159953
H182	H	1.426426	-0.083413	0.340047
H183	H	0.866385	-0.583428	-0.219903
H184	H	1.366385	-0.083428	0.280097
C185	C	1.142599	-0.549059	-0.348018
C186	C	1.642599	-0.049059	0.151982
C187	C	1.095727	-0.586683	-0.389563
C188	C	1.595727	-0.086683	0.110437
H189	H	1.171935	-0.528822	-0.377410
H190	H	1.671935	-0.028822	0.122590
H191	H	1.116833	-0.518263	-0.322226
H192	H	1.616833	-0.018263	0.177774
H193	H	1.170825	-0.574578	-0.316250
H194	H	1.670825	-0.074578	0.183750
H195	H	1.067497	-0.561163	-0.421328
H196	H	1.567497	-0.061163	0.078672
H197	H	1.121496	-0.617482	-0.415367
H198	H	1.621496	-0.117482	0.084633
H199	H	1.076097	-0.289051	-0.564482
H200	H	1.576097	0.210949	-0.064482
H201	H	1.103122	-0.265835	-0.893500
H202	H	1.603122	0.234165	-0.393500
C203	C	1.077889	-1.111493	-0.460068
C204	C	1.577889	-0.611493	0.039932
C205	C	1.095948	-1.125535	-0.389657
C206	C	1.595948	-0.625535	0.110343
H207	H	1.107253	-1.135860	-0.489459
H208	H	1.607253	-0.635860	0.010541
H209	H	1.030119	-1.121027	-0.472250
H210	H	1.530119	-0.621027	0.027750
H211	H	1.084061	-1.068068	-0.466246
H212	H	1.584061	-0.568068	0.033754
H213	H	1.089771	-1.168959	-0.383477
H214	H	1.589771	-0.668959	0.116523
H215	H	1.143730	-1.116006	-0.377471
H216	H	1.643730	-0.616006	0.122529
C217	C	0.932284	-0.694160	-0.137327
C218	C	1.432284	-0.194160	0.362673
C219	C	0.914231	-0.711906	-0.207742
C220	C	1.414231	-0.211906	0.292258
H221	H	0.902944	-0.714397	-0.107939
H222	H	1.402944	-0.214397	0.392061
H223	H	0.980065	-0.706181	-0.125154
H224	H	1.480065	-0.206181	0.374846
H225	H	0.926074	-0.649865	-0.131133
H226	H	1.426074	-0.149865	0.368867
H227	H	0.920446	-0.756201	-0.213937
H228	H	1.420446	-0.256201	0.286063
H229	H	0.866438	-0.699889	-0.219918
H230	H	1.366438	-0.199889	0.280082
C231	C	1.133714	-0.684633	-0.427605
C232	C	1.633714	-0.184633	0.072395
C233	C	1.095776	-0.724693	-0.389593
C234	C	1.595776	-0.224693	0.110407
H235	H	1.163065	-0.709008	-0.457002
H236	H	1.663065	-0.209008	0.042998
H237	H	1.101892	-0.658868	-0.455768
H238	H	1.601892	-0.158868	0.044232
H239	H	1.161925	-0.658859	-0.395821
H240	H	1.661925	-0.158859	0.104179
H241	H	1.067561	-0.750463	-0.421376
H242	H	1.567561	-0.250463	0.078624
H243	H	1.127603	-0.750468	-0.361427
H244	H	1.627603	-0.250468	0.138573
C245	C	0.219138	-0.234537	-0.345153
C246	C	0.719138	0.265463	0.154847
C247	C	0.259869	-0.277837	-0.383116
C248	C	0.759869	0.222163	0.116884
H249	H	0.192965	-0.207451	-0.376817
H250	H	0.692965	0.292549	0.123183
H251	H	0.187733	-0.256433	-0.319574
H252	H	0.687733	0.243567	0.180426
H253	H	0.249096	-0.210354	-0.313332
H254	H	0.749096	0.289646	0.186668
H255	H	0.229911	-0.302023	-0.414934
H256	H	0.729911	0.197977	0.085066
H257	H	0.291277	-0.255939	-0.408707
H258	H	0.791277	0.244061	0.091293
C259	C	1.041736	-0.242603	-0.751937
C260	C	1.541736	0.257397	-0.251937
C261	C	1.083169	-0.282951	-0.708014
C262	C	1.583169	0.217049	-0.208014
H263	H	1.071345	-0.217185	-0.775689
H264	H	1.571345	0.282815	-0.275689
H265	H	1.013581	-0.266761	-0.785467
H266	H	1.513581	0.233239	-0.285467
H267	H	1.012189	-0.216490	-0.724440
H268	H	1.512189	0.283510	-0.224440
H269	H	1.112712	-0.309067	-0.735512
H270	H	1.612712	0.190933	-0.235512
H271	H	1.111335	-0.258790	-0.674481
H272	H	1.611335	0.241210	-0.174481
H273	H	0.907056	-0.434047	-0.704553
H274	H	1.407056	0.065953	-0.204553
C275	C	1.054263	-0.949915	-0.436450
C276	C	1.554263	-0.449915	0.063550
C277	C	1.095888	-0.987525	-0.389632
C278	C	1.595888	-0.487525	0.110368
H279	H	1.083597	-0.929669	-0.465836
H280	H	1.583597	-0.429669	0.034164
H281	H	1.022468	-0.975441	-0.464625
H282	H	1.522468	-0.475441	0.035375
H283	H	1.028503	-0.919121	-0.410637
H284	H	1.528503	-0.419121	0.089363
H285	H	1.121645	-1.018322	-0.415445
H286	H	1.621645	-0.518322	0.084555
H287	H	1.127696	-0.961997	-0.361454
H288	H	1.627696	-0.461997	0.138546
H289	H	0.939438	-0.406264	-0.900012
H290	H	1.439438	0.093736	-0.400012
C291	C	0.914458	-0.503618	-0.578158
C292	C	1.414458	-0.003618	-0.078158
C293	C	0.899987	-0.440145	-0.560995
C294	C	1.399987	0.059855	-0.060995
H295	H	0.884857	-0.529026	-0.554385
H296	H	1.384857	-0.029026	-0.054385
H297	H	0.906026	-0.510838	-0.627522
H298	H	1.406026	-0.010838	-0.127522
H299	H	0.962303	-0.514036	-0.564196
H300	H	1.462303	-0.014036	-0.064196
H301	H	0.852142	-0.429725	-0.574961
H302	H	1.352142	0.070275	-0.074961
H303	H	0.908413	-0.432921	-0.511620
H304	H	1.408413	0.067079	-0.011620
C305	C	0.364999	-0.247581	-0.418434
C306	C	0.864999	0.252419	0.081566
C307	C	0.414409	-0.283153	-0.376865
C308	C	0.914409	0.216847	0.123135
H309	H	0.388778	-0.222208	-0.448066
H310	H	0.888778	0.277792	0.051934
H311	H	0.335204	-0.274977	-0.446505
H312	H	0.835204	0.225023	0.053495
H313	H	0.337513	-0.221425	-0.388919
H314	H	0.837513	0.278575	0.111081
H315	H	0.441892	-0.309312	-0.406380
H316	H	0.941892	0.190688	0.093620
H317	H	0.444217	-0.255753	-0.348790
H318	H	0.944217	0.244247	0.151210
C319	C	0.635205	-0.222445	-0.447791
C320	C	1.135205	0.277555	0.052209
C321	C	0.588902	-0.254717	-0.410080
C322	C	1.088902	0.245283	0.089920
H323	H	0.609023	-0.195363	-0.479452
H324	H	1.109023	0.304637	0.020548
H325	H	0.665149	-0.198262	-0.415968
H326	H	1.165149	0.301738	0.084032
H327	H	0.662836	-0.251827	-0.473539
H328	H	1.162836	0.248173	0.026461
H329	H	0.561274	-0.225335	-0.384328
H330	H	1.061274	0.274665	0.115672
H331	H	0.558945	-0.278901	-0.441908
H332	H	1.058945	0.221099	0.058092
C333	C	0.843921	-0.988810	-0.225740
C334	C	1.343921	-0.488810	0.274260
C335	C	0.914344	-0.974753	-0.207782
C336	C	1.414344	-0.474753	0.292218
H337	H	0.814570	-0.964442	-0.196337
H338	H	1.314570	-0.464442	0.303663
H339	H	0.831671	-0.979288	-0.273502
H340	H	1.331671	-0.479288	0.226498
H341	H	0.837761	-1.032234	-0.219547
H342	H	1.337761	-0.532234	0.280453
H343	H	0.920505	-0.931329	-0.213980
H344	H	1.420505	-0.431329	0.286020
H345	H	0.926598	-0.984270	-0.160008
H346	H	1.426598	-0.484270	0.339992
H347	H	0.733466	-0.270685	-0.391387
H348	H	1.233466	0.229315	0.108613
C349	C	0.867520	-1.150374	-0.249362
C350	C	1.367520	-0.650374	0.250638
C351	C	0.914391	-1.112753	-0.207811
C352	C	1.414391	-0.612753	0.292189
H353	H	0.838184	-1.170615	-0.219973
H354	H	1.338184	-0.670615	0.280027
H355	H	0.839300	-1.124857	-0.281126
H356	H	1.339300	-0.624857	0.218874
H357	H	0.893292	-1.181172	-0.275157
H358	H	1.393292	-0.681172	0.224843
H359	H	0.888618	-1.081952	-0.182020
H360	H	1.388618	-0.581952	0.317980
H361	H	0.942614	-1.138272	-0.176034
H362	H	1.442614	-0.638272	0.323966
C363	C	0.704582	-0.454572	-0.176516
C364	C	1.204582	0.045428	0.323484
C365	C	0.750882	-0.422290	-0.214219
C366	C	1.250882	0.077710	0.285781
H367	H	0.730766	-0.481664	-0.144866
H368	H	1.230766	0.018336	0.355134
H369	H	0.676954	-0.425203	-0.150762
H370	H	1.176954	0.074797	0.349238
H371	H	0.674635	-0.478753	-0.208350
H372	H	1.174635	0.021247	0.291650
H373	H	0.780827	-0.398106	-0.182384
H374	H	1.280827	0.101894	0.317616
H375	H	0.778523	-0.451664	-0.239974
H376	H	1.278523	0.048336	0.260026
H377	H	0.606328	-0.406318	-0.232902
H378	H	1.106328	0.093682	0.267098
