data_functionalizedCrystal
_audit_creation_method	'MofGen! by Chris Wilmer'
_symmetry_space_group_name_H-M	'P1'
_symmetry_Int_Tables_number	1
_symmetry_cell_setting	triclinic
loop_
_symmetry_equiv_pos_as_xyz
  x,y,z
_cell_length_a	31.640172
_cell_length_b	14.395555
_cell_length_c	14.395555
_cell_angle_alpha	60.000749
_cell_angle_beta	90.004893
_cell_angle_gamma	59.999894
loop_
_atom_site_label
_atom_site_type_symbol
_atom_site_fract_x
_atom_site_fract_y
_atom_site_fract_z
Zr1	Zr	0.407196	1.016674	-0.121799
O2	O	0.339710	1.210481	-0.270145
O3	O	0.427883	0.822874	-0.076321
O4	O	0.427886	1.016661	-0.270117
O5	O	0.339706	1.016701	0.076518
O6	O	0.497443	1.016642	-0.270096
O7	O	0.339706	1.016694	-0.076349
O8	O	0.497437	0.669992	0.076569
O9	O	0.339712	1.363351	-0.270148
O10	O	0.488617	0.902569	-0.056912
O11	O	0.436707	0.902589	0.057156
O12	O	0.436711	1.130748	-0.171014
O13	O	0.384801	1.130768	-0.056946
Zr14	Zr	0.518131	1.016654	0.122039
Zr15	Zr	0.518132	1.016643	-0.121766
Zr16	Zr	0.407195	1.016685	0.122007
Zr17	Zr	0.407200	1.260483	-0.121803
Zr18	Zr	0.518128	0.772845	0.122043
O19	O	0.497444	1.210453	0.076561
O20	O	0.497446	1.210438	-0.270099
O21	O	0.339709	1.210497	0.076515
O22	O	0.585617	0.822846	0.270386
O23	O	0.585619	0.822830	-0.076275
O24	O	0.427882	0.822890	0.270339
O25	O	0.585621	1.016626	-0.076277
O26	O	0.497441	1.016666	0.270357
O27	O	0.427884	1.016686	0.270336
O28	O	0.585621	1.016633	0.076590
O29	O	0.427891	1.363327	-0.270122
O30	O	0.497436	0.670001	0.270362
O31	O	0.585615	0.669977	0.270388
O32	O	0.585616	0.669968	0.076595
O33	O	0.339711	1.363360	-0.076355
O34	O	0.427890	1.363335	-0.076329
O35	O	0.488616	0.902580	0.171254
O36	O	0.540526	0.902560	0.057186
O37	O	0.488620	1.130739	-0.056916
O38	O	0.436710	1.130758	0.057152
C39	C	0.462659	0.711696	0.000125
C40	C	0.462658	0.608192	0.000126
C41	C	0.434356	0.547610	0.062325
C42	C	0.413844	0.561868	-0.044956
C43	C	0.483157	0.409539	0.107375
C44	C	0.442118	0.623876	-0.107218
C45	C	0.511458	0.471484	0.045190
C46	C	0.490958	0.485788	-0.062155
C47	C	0.323900	1.016702	0.000079
C48	C	0.276805	1.016715	0.000066
C49	C	0.011894	0.897544	0.059703
C50	C	-0.165091	0.897522	0.059726
O51	O	-0.164934	0.796225	0.110421
N52	N	-0.214316	1.016628	0.000164
C53	C	-0.219293	1.135748	-0.059401
O54	O	-0.265222	1.237055	-0.110052
C55	C	-0.042308	1.135769	-0.059416
C56	C	0.006916	1.016655	0.000140
C57	C	0.061115	0.778440	0.119255
C58	C	0.105359	0.778447	0.119244
C59	C	0.100380	0.897558	0.059680
C60	C	0.051159	1.016662	0.000128
C61	C	-0.047286	1.254888	-0.118974
C62	C	-0.003034	1.254883	-0.118970
C63	C	0.046189	1.135769	-0.059414
C64	C	0.090424	1.135780	-0.059446
N65	N	0.139648	1.016674	0.000115
C66	C	0.144626	0.897563	0.059679
C67	C	-0.312210	1.135728	-0.059391
C68	C	-0.356456	1.135723	-0.059389
C69	C	-0.302252	0.897496	0.059740
C70	C	-0.258005	0.897503	0.059731
C71	C	-0.262986	1.016622	0.000171
C72	C	0.237539	0.897587	0.059650
C73	C	0.281783	0.897604	0.059629
C74	C	0.227575	1.135830	-0.059494
C75	C	0.183334	1.135814	-0.059479
C76	C	0.188319	1.016681	0.000101
O77	O	0.090306	1.237024	-0.110104
O78	O	0.190560	0.796272	0.110342
C79	C	-0.032350	0.897538	0.059714
C80	C	-0.081571	1.016642	0.000162
C81	C	-0.086549	1.135753	-0.059401
C82	C	-0.125817	1.016637	0.000164
C83	C	-0.120839	0.897526	0.059728
C84	C	-0.071615	0.778420	0.119289
C85	C	-0.027371	0.778426	0.119278
C86	C	-0.135773	1.254859	-0.118963
C87	C	-0.180015	1.254842	-0.118947
C88	C	-0.175036	1.135731	-0.059384
C89	C	0.601427	1.016625	0.000161
C90	C	0.648522	1.016612	0.000175
C91	C	0.462665	1.016650	-0.304843
C92	C	0.462665	1.016645	-0.408345
C93	C	0.462668	1.321632	0.000116
C94	C	0.462669	1.425135	0.000114
C95	C	0.490969	0.892232	-0.406721
C96	C	0.442160	0.954436	-0.499758
C97	C	0.511462	0.954446	-0.499737
C98	C	0.413827	1.078850	-0.500019
C99	C	0.483165	1.078842	-0.499984
C100	C	0.434326	1.141137	-0.593038
C101	C	0.462663	1.016678	0.305084
C102	C	0.462662	1.016682	0.408586
C103	C	0.601423	0.711657	0.000165
C104	C	0.648516	0.608141	0.000181
C105	C	0.462658	0.711709	0.305088
C106	C	0.462657	0.608211	0.408592
C107	C	0.601422	0.711671	0.305129
C108	C	0.648515	0.608159	0.408646
C109	C	0.323905	1.321657	-0.304889
C110	C	0.276812	1.425168	-0.408406
C111	C	0.323904	1.321670	0.000075
C112	C	0.276811	1.425187	0.000060
C113	C	0.462669	1.321618	-0.304848
C114	C	0.462671	1.425117	-0.408351
C115	C	0.643536	0.559533	-0.059380
C116	C	0.687781	0.462282	-0.059389
C117	C	0.737006	0.413633	0.000171
C118	C	0.741986	0.462251	0.059734
C119	C	0.697741	0.559507	0.059735
C120	C	0.697732	0.559539	0.397717
C121	C	0.741985	0.462292	0.494973
C122	C	0.737021	0.413661	0.603157
C123	C	0.687799	0.462291	0.614084
C124	C	0.643546	0.559542	0.516829
C125	C	0.227596	1.473801	-0.397476
C126	C	0.183342	1.571078	-0.494732
C127	C	0.188307	1.619714	-0.602917
C128	C	0.237528	1.571078	-0.613844
C129	C	0.281781	1.473809	-0.516589
C130	C	0.281791	1.473805	0.059610
C131	C	0.237546	1.571083	0.059592
C132	C	0.188321	1.619735	0.000028
C133	C	0.183342	1.571113	-0.059530
C134	C	0.227586	1.473843	-0.059517
C135	C	0.434351	0.547634	0.406970
C136	C	0.483161	0.409523	0.500004
C137	C	0.413861	0.561875	0.499989
C138	C	0.511495	0.471400	0.500263
C139	C	0.442159	0.623826	0.500233
C140	C	0.490998	0.485725	0.593285
H141	H	0.321864	0.800603	0.108130
C142	C	0.243033	1.624536	0.125121
H143	H	0.278687	1.581607	0.160611
H144	H	0.226907	1.716351	0.073727
H145	H	0.226896	1.608599	0.181474
C146	C	0.567214	0.883386	-0.500934
H147	H	0.587276	0.794997	-0.435541
H148	H	0.566799	0.884595	-0.567520
H149	H	0.581967	0.926716	-0.500450
H150	H	0.372594	0.599059	0.500892
H151	H	0.424817	0.901863	-0.500694
C152	C	0.506577	0.285781	0.229903
H153	H	0.536360	0.213595	0.236204
H154	H	0.516080	0.300534	0.281238
H155	H	0.481737	0.266855	0.247851
H156	H	0.701784	0.599120	0.309636
H157	H	0.701803	0.599071	0.108244
H158	H	0.782059	0.422707	0.486055
H159	H	0.321869	1.434200	0.108122
C160	C	-0.066145	0.647401	0.184813
H161	H	-0.099548	0.664470	0.176291
H162	H	-0.047763	0.598444	0.155419
H163	H	-0.047759	0.598472	0.263169
C164	C	0.796135	0.408718	0.125255
H165	H	0.821768	0.343823	0.116729
H166	H	0.800028	0.478512	0.095865
H167	H	0.800017	0.370758	0.203611
C168	C	0.682297	0.408805	-0.124898
H169	H	0.715695	0.343925	-0.116385
H170	H	0.663913	0.370870	-0.095481
H171	H	0.663906	0.478637	-0.203252
C172	C	0.066600	0.647406	0.184773
H173	H	0.102255	0.576485	0.220227
H174	H	0.050472	0.642432	0.241135
H175	H	0.050468	0.642449	0.133363
H176	H	0.241605	0.800578	0.108167
C177	C	0.418720	0.747645	0.498897
H178	H	0.443769	0.765654	0.499352
H179	H	0.389320	0.820133	0.432277
H180	H	0.408613	0.733529	0.564250
H181	H	0.012705	0.681431	0.167777
H182	H	-0.139835	1.351856	-0.167469
H183	H	0.773058	0.334472	0.682339
C184	C	0.589394	0.613036	-0.124909
H185	H	0.592772	0.570159	-0.160388
H186	H	0.571002	0.597103	-0.073521
H187	H	0.571010	0.704860	-0.181270
C188	C	0.222125	1.420332	-0.278486
H189	H	0.186472	1.463252	-0.285923
H190	H	0.238254	1.328515	-0.238057
H191	H	0.238263	1.436279	-0.238079
H192	H	0.145435	0.681452	0.167736
C193	C	0.139656	1.726725	0.000027
H194	H	0.149677	1.748697	0.044036
H195	H	0.119637	1.802613	-0.075846
H196	H	0.119638	1.694853	0.031919
H197	H	0.773029	0.334440	0.000162
H198	H	0.321854	1.434213	-0.525502
C199	C	0.129193	1.624630	-0.125035
H200	H	0.103560	1.689510	-0.116494
H201	H	0.125302	1.662573	-0.203387
H202	H	0.125307	1.554813	-0.095610
H203	H	0.683764	0.422681	0.702181
H204	H	0.143268	1.610661	-0.485813
C205	C	0.589411	0.613000	0.528866
H206	H	0.592797	0.570092	0.607228
H207	H	0.571014	0.704820	0.493403
H208	H	0.571027	0.597038	0.493412
C209	C	-0.203864	0.766479	0.125255
H210	H	-0.207241	0.695547	0.160732
H211	H	-0.185473	0.761515	0.073864
H212	H	-0.185478	0.761532	0.181618
H213	H	-0.298205	0.800511	0.108232
H214	H	-0.396533	1.232718	-0.107900
C215	C	0.139626	1.726689	-0.709887
H216	H	0.109605	1.748667	-0.687874
H217	H	0.139615	1.802578	-0.753898
H218	H	0.139621	1.694796	-0.753873
H219	H	0.410356	1.246426	-0.672675
C220	C	0.401984	0.584418	0.133271
H221	H	0.423339	0.566574	0.194648
H222	H	0.374448	0.675247	0.086567
H223	H	0.388199	0.534122	0.162382
C224	C	0.242983	1.624576	-0.732850
H225	H	0.209576	1.689457	-0.789197
H226	H	0.261369	1.662514	-0.741398
H227	H	0.261360	1.554752	-0.741381
H228	H	0.552783	0.434014	0.499451
C229	C	0.506607	1.149801	-0.498644
H230	H	0.481558	1.223323	-0.499102
H231	H	0.536005	1.091051	-0.432022
H232	H	0.516715	1.178820	-0.563995
C233	C	0.358100	0.612115	-0.096467
H234	H	0.338030	0.633207	-0.052186
H235	H	0.343349	0.688331	-0.172230
H236	H	0.358530	0.545793	-0.096739
H237	H	0.223524	1.434261	-0.108008
C238	C	0.567190	0.421278	0.096723
H239	H	0.575592	0.475875	0.041674
H240	H	0.569863	0.423274	0.161339
H241	H	0.590500	0.333705	0.118940
C242	C	-0.317696	1.266768	-0.124923
H243	H	-0.353351	1.337692	-0.160400
H244	H	-0.301564	1.271744	-0.073535
H245	H	-0.301566	1.271720	-0.181286
H246	H	0.424737	0.715442	-0.197964
C247	C	0.402067	0.584237	0.299211
H248	H	0.416716	0.508820	0.298435
H249	H	0.367542	0.615693	0.299005
H250	H	0.402038	0.650769	0.233706
C251	C	0.506587	0.285740	0.501278
H252	H	0.486435	0.307005	0.435904
H253	H	0.541058	0.253755	0.500835
H254	H	0.506707	0.220102	0.567876
H255	H	0.514970	0.458692	0.672920
C256	C	0.523288	0.449365	-0.133312
H257	H	0.508652	0.524852	-0.209467
H258	H	0.557802	0.417912	-0.101955
H259	H	0.523346	0.382873	-0.132431
H260	H	-0.087359	1.351884	-0.167470
H261	H	-0.007096	1.351887	-0.167457
H262	H	0.143253	1.232806	-0.107989
C263	C	0.358050	1.149846	-0.498936
H264	H	0.358393	1.149363	-0.432702
H265	H	0.337902	1.237991	-0.564687
H266	H	0.343448	1.105963	-0.498727
H267	H	-0.220094	1.351847	-0.167456
C268	C	0.523250	0.750123	-0.298958
H269	H	0.508600	0.706129	-0.298183
H270	H	0.557776	0.705483	-0.298747
H271	H	0.523277	0.751093	-0.233456
C272	C	0.222107	1.266842	-0.125067
H273	H	0.255510	1.249776	-0.116546
H274	H	0.203721	1.315737	-0.203409
H275	H	0.203725	1.315832	-0.095693
