data_functionalizedCrystal
_audit_creation_method	'MofGen! by Chris Wilmer'
_symmetry_space_group_name_H-M	'P1'
_symmetry_Int_Tables_number	1
_symmetry_cell_setting	triclinic
loop_
_symmetry_equiv_pos_as_xyz
  x,y,z
_cell_length_a	19.188905
_cell_length_b	19.188924
_cell_length_c	18.266242
_cell_angle_alpha	89.991576
_cell_angle_beta	89.983837
_cell_angle_gamma	83.138260
loop_
_atom_site_label
_atom_site_type_symbol
_atom_site_fract_x
_atom_site_fract_y
_atom_site_fract_z
O1	O	0.926158	0.087086	-0.061005
O2	O	1.426158	0.587086	0.438995
O3	O	0.722844	0.098838	-0.060980
O4	O	1.222844	0.598838	0.439020
O5	O	0.830371	-0.008694	-0.060985
O6	O	1.330371	0.491306	0.439015
O7	O	0.818632	0.194619	-0.061001
O8	O	1.318632	0.694619	0.438999
O9	O	0.830353	-0.008700	0.060777
O10	O	1.330353	0.491300	0.560777
O11	O	0.722826	0.098833	0.060782
O12	O	1.222826	0.598833	0.560782
O13	O	0.926140	0.087080	0.060757
O14	O	1.426140	0.587080	0.560757
Zn15	Zn	0.824480	0.092956	0.080102
Zn16	Zn	1.324480	0.592956	0.580102
Zn17	Zn	0.824504	0.092963	-0.080325
Zn18	Zn	1.324504	0.592963	0.419675
O19	O	0.818613	0.194613	0.060761
O20	O	1.318613	0.694613	0.560761
C21	C	0.696824	0.098458	-0.000096
C22	C	1.196824	0.598458	0.499904
C23	C	0.619318	0.097324	-0.000086
C24	C	1.119318	0.597324	0.499914
C25	C	0.582937	0.096783	-0.066461
C26	C	1.082937	0.596783	0.433539
C27	C	0.510113	0.095710	-0.066470
C28	C	1.010113	0.595710	0.433530
C29	C	0.473676	0.095164	-0.000101
C30	C	0.973676	0.595164	0.499899
C31	C	0.510066	0.095710	0.066282
C32	C	1.010066	0.595710	0.566282
C33	C	0.582887	0.096790	0.066290
C34	C	1.082887	0.596790	0.566290
N35	N	0.364649	0.053733	0.049295
N36	N	0.864649	0.553733	0.549295
N37	N	0.295472	0.052706	0.049283
N38	N	0.795472	0.552706	0.549283
C39	C	0.254269	0.091911	-0.000118
C40	C	0.754269	0.591911	0.499882
N41	N	0.284858	0.132175	-0.049519
N42	N	0.784858	0.632175	0.450481
N43	N	0.354041	0.133199	-0.049510
N44	N	0.854041	0.633199	0.450490
C45	C	0.394713	0.093993	-0.000101
C46	C	0.894713	0.593993	0.499899
C47	C	0.138924	0.090207	-0.066507
C48	C	0.638924	0.590207	0.433493
C49	C	0.066098	0.089139	-0.066513
C50	C	0.566098	0.589139	0.433487
C51	C	0.066054	0.089132	0.066241
C52	C	0.566054	0.589132	0.566241
C53	C	0.138877	0.090208	0.066245
C54	C	0.638877	0.590208	0.566245
C55	C	0.175308	0.090742	-0.000131
C56	C	0.675308	0.590742	0.499869
C57	C	0.829982	-0.034708	-0.000103
C58	C	1.329982	0.465292	0.499897
C59	C	0.828844	-0.112213	-0.000101
C60	C	1.328844	0.387787	0.499899
C61	C	0.828322	-0.148609	-0.066473
C62	C	1.328322	0.351391	0.433527
C63	C	0.827242	-0.221431	-0.066479
C64	C	1.327242	0.278569	0.433521
C65	C	0.826698	-0.257857	-0.000108
C66	C	1.326698	0.242143	0.499892
C67	C	0.827216	-0.221452	0.066273
C68	C	1.327216	0.278548	0.566273
C69	C	0.828289	-0.148630	0.066277
C70	C	1.328289	0.351370	0.566277
N71	N	0.864739	-0.377526	0.049286
N72	N	1.364739	0.122474	0.549286
N73	N	0.863721	-0.446704	0.049278
N74	N	1.363721	0.053296	0.549278
C75	C	0.823464	-0.477266	-0.000115
C76	C	1.323464	0.022734	0.499885
N77	N	0.784271	-0.436038	-0.049510
N78	N	1.284271	0.063962	0.450490
N79	N	0.785292	-0.366853	-0.049504
N80	N	1.285292	0.133147	0.450496
C81	C	0.825534	-0.336821	-0.000104
C82	C	1.325534	0.163179	0.499896
C83	C	0.821770	-0.592624	-0.066498
C84	C	1.321770	-0.092624	0.433502
C85	C	0.820686	-0.665448	-0.066500
C86	C	1.320686	-0.165448	0.433500
C87	C	0.820666	-0.665468	0.066254
C88	C	1.320666	-0.165468	0.566254
C89	C	0.821744	-0.592645	0.066255
C90	C	1.321744	-0.092645	0.566255
C91	C	0.822299	-0.556228	-0.000123
C92	C	1.322299	-0.056228	0.499877
C93	C	0.952160	0.087461	-0.000129
C94	C	1.452160	0.587461	0.499871
C95	C	1.029666	0.088594	-0.000143
C96	C	1.529666	0.588594	0.499857
C97	C	0.819002	0.220627	-0.000122
C98	C	1.319002	0.720627	0.499878
C99	C	0.820141	0.298132	-0.000129
C100	C	1.320141	0.798132	0.499871
N101	N	0.824469	0.092950	0.189589
N102	N	1.324469	0.592950	0.689589
N103	N	0.824521	0.092963	-0.189812
N104	N	1.324521	0.592963	0.310188
C105	C	0.872097	0.045358	0.227896
C106	C	1.372097	0.545358	0.727896
C107	C	0.872102	0.045355	0.304541
C108	C	1.372102	0.545355	0.804541
C109	C	0.824484	0.092956	0.342876
C110	C	1.324484	0.592956	0.842876
C111	C	0.776847	0.140552	0.304559
C112	C	1.276847	0.640552	0.804559
C113	C	0.776839	0.140549	0.227916
C114	C	1.276839	0.640549	0.727916
N115	N	0.815407	0.154764	0.463204
N116	N	1.315407	0.654764	0.963204
N117	N	0.815419	0.154765	0.536012
N118	N	1.315419	0.654765	1.036012
C119	C	0.824504	0.092966	0.573798
C120	C	1.324504	0.592966	1.073798
N121	N	0.833591	0.031165	0.536025
N122	N	1.333591	0.531165	1.036025
N123	N	0.833583	0.031165	0.463211
N124	N	1.333583	0.531165	0.963211
C125	C	0.824487	0.092964	0.425983
C126	C	1.324487	0.592964	0.925983
C127	C	0.872140	0.045366	0.695212
C128	C	1.372140	0.545366	1.195212
C129	C	0.872139	0.045362	0.771858
C130	C	1.372139	0.545362	1.271858
C131	C	0.776888	0.140565	0.771876
C132	C	1.276888	0.640565	1.271876
C133	C	0.776885	0.140563	0.695231
C134	C	1.276885	0.640563	1.195231
C135	C	0.824515	0.092964	0.656904
C136	C	1.324515	0.592964	1.156904
H137	H	0.036477	0.088702	-0.120565
H138	H	0.536477	0.588702	0.379435
H139	H	0.910921	0.006606	0.664005
H140	H	1.410921	0.506606	1.164005
C141	C	0.923890	-0.006354	0.346010
C142	C	1.423890	0.493646	0.846010
C143	C	0.965607	-0.048031	0.296040
C144	C	1.465607	0.451969	0.796040
C145	C	1.013325	-0.095669	0.334213
C146	C	1.513325	0.404331	0.834213
H147	H	0.898948	-0.035420	0.375927
H148	H	1.398948	0.464580	0.875927
H149	H	0.952915	0.018672	0.375878
H150	H	1.452915	0.518672	0.875878
H151	H	0.936586	-0.073056	0.266185
H152	H	1.436586	0.426944	0.766185
H153	H	0.990564	-0.018985	0.266123
H154	H	1.490564	0.481015	0.766123
H155	H	1.042350	-0.070642	0.364081
H156	H	1.542350	0.429358	0.864081
H157	H	0.988378	-0.124729	0.364128
H158	H	1.488378	0.375271	0.864128
H159	H	1.041640	-0.123948	0.300314
H160	H	1.541640	0.376052	0.800314
C161	C	0.725221	0.192358	0.813394
C162	C	1.225221	0.692358	1.313394
C163	C	0.736314	0.260940	0.794720
C164	C	1.236314	0.760940	1.294720
C165	C	0.688722	0.308669	0.832949
C166	C	1.188722	0.808669	1.332949
H167	H	0.731995	0.185641	0.864538
H168	H	1.231995	0.685641	1.364538
H169	H	0.678634	0.184936	0.800837
H170	H	1.178634	0.684936	1.300837
H171	H	0.782890	0.268360	0.807282
H172	H	1.282890	0.768360	1.307282
H173	H	0.729534	0.267680	0.743583
H174	H	1.229534	0.767680	1.243583
H175	H	0.642135	0.301247	0.820392
H176	H	1.142135	0.801247	1.320392
H177	H	0.695500	0.301946	0.884091
H178	H	1.195500	0.801946	1.384091
H179	H	0.696238	0.355207	0.820279
H180	H	1.196238	0.855207	1.320279
C181	C	0.923660	-0.006326	0.186114
C182	C	1.423660	0.493674	0.686114
C183	C	0.966311	0.030581	0.141942
C184	C	1.466311	0.530581	0.641942
C185	C	1.013723	-0.017058	0.103390
C186	C	1.513723	0.482942	0.603390
H187	H	0.898482	-0.035218	0.156266
H188	H	1.398482	0.464782	0.656266
H189	H	0.952080	-0.034780	0.219780
H190	H	1.452080	0.465220	0.719780
H191	H	0.937895	0.059023	0.108281
H192	H	1.437895	0.559023	0.608281
H193	H	0.991505	0.059470	0.171772
H194	H	1.491505	0.559470	0.671772
H195	H	1.042143	-0.045512	0.137055
H196	H	1.542143	0.454488	0.637055
H197	H	0.988539	-0.045947	0.073546
H198	H	1.488539	0.454053	0.573546
H199	H	1.042672	0.007976	0.073420
H200	H	1.542672	0.507976	0.573420
C201	C	0.828879	-0.109191	-0.138615
C202	C	1.328879	0.390809	0.361385
C203	C	0.828172	-0.156655	-0.196743
C204	C	1.328172	0.343345	0.303257
C205	C	0.828673	-0.120366	-0.263211
C206	C	1.328673	0.379634	0.236789
H207	H	0.869992	-0.086230	-0.141483
H208	H	1.369992	0.413770	0.358517
H209	H	0.788573	-0.075344	-0.141409
H210	H	1.288573	0.424656	0.358591
H211	H	0.868473	-0.190490	-0.193951
H212	H	1.368473	0.309510	0.306049
H213	H	0.787061	-0.179618	-0.193900
H214	H	1.287061	0.320382	0.306100
H215	H	0.788367	-0.086519	-0.266004
H216	H	1.288367	0.413481	0.233996
H217	H	0.869787	-0.097407	-0.266071
H218	H	1.369787	0.402593	0.233929
H219	H	0.828186	-0.152564	-0.302658
H220	H	1.328186	0.347436	0.197342
H221	H	0.822218	-0.562972	-0.120546
H222	H	1.322218	-0.062972	0.379454
H223	H	0.826813	-0.251070	-0.120529
H224	H	1.326813	0.248930	0.379471
H225	H	0.612594	0.097218	-0.120509
H226	H	1.112594	0.597218	0.379491
C227	C	0.470732	0.095088	-0.138614
C228	C	0.970732	0.595088	0.361386
C229	C	0.518225	0.095774	-0.196740
C230	C	1.018225	0.595774	0.303260
C231	C	0.481976	0.095193	-0.263208
C232	C	0.981976	0.595193	0.236792
H233	H	0.436866	0.135362	-0.141483
H234	H	0.936866	0.635362	0.358517
H235	H	0.447800	0.053944	-0.141408
H236	H	0.947800	0.553944	0.358592
H237	H	0.541146	0.136913	-0.193947
H238	H	1.041146	0.636913	0.306053
H239	H	0.552092	0.055503	-0.193895
H240	H	1.052092	0.555503	0.306105
H241	H	0.459044	0.054049	-0.266003
H242	H	0.959044	0.554049	0.233997
H243	H	0.448112	0.135468	-0.266070
H244	H	0.948112	0.635468	0.233930
H245	H	0.514196	0.095652	-0.302655
H246	H	1.014196	0.595652	0.197345
H247	H	0.820218	-0.695124	0.120294
H248	H	1.320218	-0.195124	0.620294
C249	C	0.826656	-0.261127	0.138258
C250	C	1.326656	0.238873	0.638258
C251	C	0.825623	-0.332695	0.124050
C252	C	1.325623	0.167305	0.624050
C253	C	0.825112	-0.369264	0.190346
C254	C	1.325112	0.130736	0.690346
H255	H	0.786129	-0.243829	0.165587
H256	H	1.286129	0.256171	0.665587
H257	H	0.867548	-0.254692	0.165535
H258	H	1.367548	0.245308	0.665535
H259	H	0.784736	-0.339125	0.096784
H260	H	1.284736	0.160875	0.596784
H261	H	0.866147	-0.350013	0.096732
H262	H	1.366147	0.149987	0.596732
H263	H	0.866004	-0.362830	0.217624
H264	H	1.366004	0.137170	0.717624
H265	H	0.784584	-0.351961	0.217670
H266	H	1.284584	0.148039	0.717670
H267	H	0.824418	-0.417827	0.180715
H268	H	1.324418	0.082173	0.680715
H269	H	0.738075	0.179308	0.335776
H270	H	1.238075	0.679308	0.835776
H271	H	0.828710	-0.118996	0.120327
H272	H	1.328710	0.381004	0.620327
C273	C	0.725293	0.192280	0.653544
C274	C	1.225293	0.692280	1.153544
C275	C	0.762349	0.234912	0.609508
C276	C	1.262349	0.734912	1.109508
C277	C	0.714842	0.282558	0.571090
C278	C	1.214842	0.782558	1.071090
H279	H	0.696915	0.220698	0.687267
H280	H	1.196915	0.720698	1.187267
H281	H	0.696313	0.167259	0.623618
H282	H	1.196313	0.667259	1.123618
H283	H	0.791316	0.259931	0.639432
H284	H	1.291316	0.759931	1.139432
H285	H	0.790724	0.206514	0.575771
H286	H	1.290724	0.706514	1.075771
H287	H	0.685863	0.257537	0.541164
H288	H	1.185863	0.757537	1.041164
H289	H	0.686468	0.310971	0.604818
H290	H	1.186468	0.810971	1.104818
H291	H	0.739978	0.311485	0.541202
H292	H	1.239978	0.811485	1.041202
C293	C	0.725098	0.192306	0.186453
C294	C	1.225098	0.692306	0.686453
C295	C	0.683405	0.234004	0.236426
C296	C	1.183405	0.734004	0.736426
C297	C	0.635741	0.281697	0.198256
C298	C	1.135741	0.781697	0.698256
H299	H	0.696046	0.167345	0.156566
H300	H	1.196046	0.667345	0.656566
H301	H	0.750103	0.221345	0.156557
H302	H	1.250103	0.721345	0.656557
H303	H	0.658401	0.204968	0.266309
H304	H	1.158401	0.704968	0.766309
H305	H	0.712438	0.258980	0.266315
H306	H	1.212438	0.758980	0.766315
H307	H	0.660746	0.310737	0.168359
H308	H	1.160746	0.810737	0.668359
H309	H	0.606694	0.256731	0.168369
H310	H	1.106694	0.756731	0.668369
H311	H	0.607451	0.309999	0.232156
H312	H	1.107451	0.809999	0.732156
H313	H	0.036387	0.088692	0.120280
H314	H	0.536387	0.588692	0.620280
H315	H	0.820258	-0.695080	-0.120551
H316	H	1.320258	-0.195080	0.379449
H317	H	0.822174	-0.563012	0.120302
H318	H	1.322174	-0.063012	0.620302
H319	H	0.612509	0.097231	0.120341
H320	H	1.112509	0.597231	0.620341
H321	H	0.168586	0.090650	-0.120554
H322	H	0.668586	0.590650	0.379446
C323	C	0.470389	0.095077	0.138265
C324	C	0.970389	0.595077	0.638265
C325	C	0.398830	0.093994	0.124053
C326	C	0.898830	0.593994	0.624053
C327	C	0.362260	0.093405	0.190348
C328	C	0.862260	0.593405	0.690348
H329	H	0.476771	0.135948	0.165590
H330	H	0.976771	0.635948	0.665590
H331	H	0.487735	0.054530	0.165547
H332	H	0.987735	0.554530	0.665547
H333	H	0.381489	0.134538	0.096783
H334	H	0.881489	0.634538	0.596783
H335	H	0.392427	0.053127	0.096739
H336	H	0.892427	0.553127	0.596739
H337	H	0.379606	0.052858	0.217630
H338	H	0.879606	0.552858	0.717630
H339	H	0.368647	0.134276	0.217668
H340	H	0.868647	0.634276	0.717668
H341	H	0.313704	0.092664	0.180714
H342	H	0.813704	0.592664	0.680714
C343	C	0.178262	0.090749	0.138388
C344	C	0.678262	0.590749	0.638388
C345	C	0.130771	0.090024	0.196511
C346	C	0.630771	0.590024	0.696511
C347	C	0.167028	0.090516	0.262982
C348	C	0.667028	0.590516	0.762982
H349	H	0.201216	0.131865	0.141251
H350	H	0.701216	0.631865	0.641251
H351	H	0.212113	0.050447	0.141191
H352	H	0.712113	0.550447	0.641191
H353	H	0.096933	0.130322	0.193709
H354	H	0.596933	0.630322	0.693709
H355	H	0.107815	0.048911	0.193671
H356	H	0.607815	0.548911	0.693671
H357	H	0.200878	0.050213	0.265785
H358	H	0.700878	0.550213	0.765785
H359	H	0.189980	0.131632	0.265838
H360	H	0.689980	0.631632	0.765838
H361	H	0.134812	0.090017	0.302426
H362	H	0.634812	0.590017	0.802426
C363	C	0.923886	-0.006202	0.813547
C364	C	1.423886	0.493798	1.313547
C365	C	0.966494	0.030888	0.857541
C366	C	1.466494	0.530888	1.357541
C367	C	1.014165	-0.016589	0.895964
C368	C	1.514165	0.483411	1.395964
H369	H	0.952319	-0.034568	0.779827
H370	H	1.452319	0.465432	1.279827
H371	H	0.898885	-0.035195	0.843502
H372	H	1.398885	0.464805	1.343502
H373	H	0.991494	0.059869	0.827589
H374	H	1.491494	0.559869	1.327589
H375	H	0.938081	0.059252	0.891275
H376	H	1.438081	0.559252	1.391275
H377	H	0.989164	-0.045582	0.925919
H378	H	1.489164	0.454418	1.425919
H379	H	1.042593	-0.044953	0.862238
H380	H	1.542593	0.455047	1.362238
H381	H	1.043076	0.008569	0.925823
H382	H	1.543076	0.508569	1.425823
