data_functionalizedCrystal
_audit_creation_method	'MofGen! by Chris Wilmer'
_symmetry_space_group_name_H-M	'P1'
_symmetry_Int_Tables_number	1
_symmetry_cell_setting	triclinic
loop_
_symmetry_equiv_pos_as_xyz
  x,y,z
_cell_length_a	12.827893
_cell_length_b	16.120484
_cell_length_c	12.827885
_cell_angle_alpha	87.136072
_cell_angle_beta	90.019272
_cell_angle_gamma	92.925431
loop_
_atom_site_label
_atom_site_type_symbol
_atom_site_fract_x
_atom_site_fract_y
_atom_site_fract_z
Zn1	Zn	1.576504	-0.331866	0.611895
Zn2	Zn	1.567505	-0.471301	0.445998
Zn3	Zn	1.401742	-0.331907	0.437171
Zn4	Zn	1.392841	-0.471239	0.620694
O5	O	1.484648	-0.401579	0.528940
O6	O	1.721545	-0.350372	0.589900
O7	O	1.545475	-0.452853	0.298594
O8	O	1.432416	-0.215236	0.452972
O9	O	1.714934	-0.452814	0.468017
O10	O	1.560812	-0.215206	0.581341
O11	O	1.423690	-0.350441	0.292109
O12	O	1.254326	-0.350381	0.461505
O13	O	1.417245	-0.452708	0.765761
O14	O	1.247787	-0.452748	0.596338
O15	O	1.552181	-0.350311	0.759296
O16	O	1.536844	-0.587959	0.476549
O17	O	1.408520	-0.587913	0.604897
C18	C	1.213139	-0.401562	0.528919
C19	C	1.096985	-0.401576	0.528936
C20	C	1.041987	-0.452309	0.595563
C21	C	0.921936	-0.452324	0.595582
C22	C	1.470768	-0.618186	0.542658
C23	C	1.464925	-0.710851	0.548562
C24	C	1.454265	-0.880512	0.559362
C25	C	1.515219	-0.921804	0.498534
C26	C	1.509287	-1.016209	0.504544
C27	C	1.460195	-0.786099	0.553355
C28	C	1.757217	-0.401595	0.528962
C29	C	1.873370	-0.401602	0.528971
C30	C	1.484724	-0.401498	0.801505
C31	C	1.484757	-0.401464	0.917656
C32	C	1.498611	-0.184125	0.515191
C33	C	1.504561	-0.091460	0.509332
C34	C	1.484636	-0.401598	0.257431
C35	C	1.484821	-0.401397	0.141266
C36	C	1.551535	-0.350785	0.966241
C37	C	1.551570	-0.350749	1.086289
H38	H	1.083779	-0.495730	0.652594
O39	O	1.582728	-0.879494	0.430875
C40	C	1.558608	-0.900771	0.328032
H41	H	1.514542	-0.964052	0.329788
H42	H	1.507909	-0.851848	0.289738
C43	C	1.714399	-0.826892	0.262895
C44	C	1.660283	-0.904619	0.265050
H45	H	1.777115	-0.829262	0.224042
H46	H	1.730648	-0.812555	0.332181
H47	H	1.672138	-0.786132	0.230985
H48	H	1.702539	-0.945376	0.296971
H49	H	1.644044	-0.918963	0.195768
O50	O	1.047305	-0.349690	0.460860
C51	C	1.121750	-0.302531	0.398887
H52	H	1.199790	-0.299619	0.441428
H53	H	1.131333	-0.332978	0.321374
C54	C	0.988857	-0.217400	0.326182
C55	C	1.084704	-0.213817	0.378436
H56	H	0.966005	-0.162678	0.313562
H57	H	0.938701	-0.249173	0.367931
H58	H	0.996856	-0.242776	0.261594
H59	H	1.076701	-0.188451	0.443027
H60	H	1.134859	-0.182037	0.336697
O61	O	1.619572	-0.299015	0.909728
C62	C	1.563458	-0.245214	0.843204
H63	H	1.482353	-0.274625	0.828817
H64	H	1.556002	-0.183385	0.881291
C65	C	1.721408	-0.194111	0.756190
C66	C	1.621797	-0.230238	0.738514
H67	H	1.757395	-0.184869	0.691614
H68	H	1.759214	-0.230355	0.801011
H69	H	1.715181	-0.142591	0.787932
H70	H	1.628025	-0.281761	0.706784
H71	H	1.583993	-0.194002	0.693685
H72	H	1.397630	-0.916059	0.615947
O73	O	0.865575	-0.504262	0.663536
C74	C	0.886868	-0.587348	0.645833
H75	H	0.916632	-0.591501	0.562626
H76	H	0.948772	-0.609228	0.703249
C77	C	0.749742	-0.637842	0.763532
C78	C	0.786290	-0.642943	0.661333
H79	H	0.687703	-0.672137	0.773098
H80	H	0.735399	-0.581865	0.775463
H81	H	0.801338	-0.656073	0.811367
H82	H	0.734700	-0.624702	0.613501
H83	H	0.800623	-0.698918	0.649395
O84	O	1.619676	-0.299008	1.136303
C85	C	1.604560	-0.310499	1.245031
H86	H	1.522152	-0.337809	1.261555
H87	H	1.663677	-0.354910	1.278820
C88	C	1.720724	-0.192627	1.275539
C89	C	1.619506	-0.226162	1.295834
H90	H	1.729947	-0.140605	1.306879
H91	H	1.730911	-0.184887	1.202288
H92	H	1.769976	-0.229643	1.303698
H93	H	1.570255	-0.189151	1.267664
H94	H	1.609310	-0.233894	1.369082
H95	H	0.920648	-0.358168	0.471922
O96	O	1.416755	-0.453206	1.091306
C97	C	1.472840	-0.507042	1.031601
H98	H	1.553934	-0.477635	1.013508
H99	H	1.480325	-0.568844	1.077511
C100	C	1.314849	-0.558208	0.951031
C101	C	1.414447	-0.522087	0.928800
H102	H	1.278828	-0.567492	0.887620
H103	H	1.277062	-0.521940	0.991258
H104	H	1.321101	-0.609705	0.989291
H105	H	1.408193	-0.470586	0.890552
H106	H	1.452231	-0.558347	0.888564
H107	H	1.427605	-0.444820	0.964935
