data_functionalizedCrystal
_audit_creation_method	'MofGen! by Chris Wilmer'
_symmetry_space_group_name_H-M	'P1'
_symmetry_Int_Tables_number	1
_symmetry_cell_setting	triclinic
loop_
_symmetry_equiv_pos_as_xyz
  x,y,z
_cell_length_a	19.288864
_cell_length_b	9.730223
_cell_length_c	19.288865
_cell_angle_alpha	89.994288
_cell_angle_beta	83.136245
_cell_angle_gamma	89.985868
loop_
_atom_site_label
_atom_site_type_symbol
_atom_site_fract_x
_atom_site_fract_y
_atom_site_fract_z
O1	O	0.921345	-0.114746	0.086644
O2	O	1.421345	0.385254	0.586644
O3	O	0.719084	-0.114654	0.098333
O4	O	1.219084	0.385346	0.598333
O5	O	0.826059	-0.114676	-0.008642
O6	O	1.326059	0.385324	0.491358
O7	O	0.814370	-0.114725	0.193619
O8	O	1.314370	0.385275	0.693619
O9	O	0.826057	0.113904	-0.008638
O10	O	1.326057	0.613904	0.491362
O11	O	0.719082	0.113926	0.098337
O12	O	1.219082	0.613926	0.598337
O13	O	0.921343	0.113834	0.086648
O14	O	1.421343	0.613834	0.586648
Zn15	Zn	0.820212	0.150172	0.092493
Zn16	Zn	1.320212	0.650172	0.592493
Zn17	Zn	0.820214	-0.150992	0.092487
Zn18	Zn	1.320214	0.349008	0.592487
O19	O	0.814368	0.113855	0.193623
O20	O	1.314368	0.613855	0.693623
C21	C	0.693207	-0.000352	0.097959
C22	C	1.193207	0.499648	0.597959
C23	C	0.616103	-0.000316	0.096830
C24	C	1.116103	0.499684	0.596830
N25	N	0.820216	0.355708	0.092497
N26	N	1.320216	0.855708	0.592497
C27	C	0.571407	-0.000353	0.159598
C28	C	1.071407	0.499647	0.659598
C29	C	0.498960	-0.000368	0.158537
C30	C	0.998960	0.499632	0.658537
C31	C	0.471212	-0.000373	0.094705
C32	C	0.971212	0.499627	0.594705
C33	C	0.515918	-0.000329	0.031929
C34	C	1.015918	0.499671	0.531929
C35	C	0.588364	-0.000300	0.032991
C36	C	1.088364	0.499700	0.532991
C37	C	0.362951	-0.080489	0.044524
C38	C	0.862951	0.419511	0.544524
C39	C	0.290506	-0.080526	0.043464
C40	C	0.790506	0.419474	0.543464
C41	C	0.247767	-0.000456	0.091425
C42	C	0.747767	0.499544	0.591425
C43	C	0.277479	0.079634	0.140458
C44	C	0.777479	0.579634	0.640458
C45	C	0.349924	0.079663	0.141520
C46	C	0.849924	0.579663	0.641520
C47	C	0.392658	-0.000404	0.093546
C48	C	0.892658	0.499596	0.593546
C49	C	0.124514	-0.000507	0.153047
C50	C	0.624514	0.499493	0.653047
C51	C	0.052066	-0.000513	0.151984
C52	C	0.552066	0.499487	0.651984
C53	C	0.069026	-0.000488	0.025374
C54	C	0.569026	0.499512	0.525374
C55	C	0.141473	-0.000468	0.026439
C56	C	0.641473	0.499532	0.526439
C57	C	0.169212	-0.000484	0.090278
C58	C	0.669212	0.499516	0.590278
C59	C	0.867596	0.427625	0.045145
C60	C	1.367596	0.927625	0.545145
C61	C	0.867594	0.571508	0.045137
C62	C	1.367594	1.071508	0.545137
C63	C	0.772829	0.571545	0.139840
C64	C	1.272829	1.071545	0.639840
C65	C	0.772829	0.427664	0.139844
C66	C	1.272829	0.927664	0.639844
C67	C	0.914983	0.355668	-0.002202
C68	C	1.414983	0.855668	0.497798
C69	C	0.962368	0.427585	-0.049557
C70	C	1.462368	0.927585	0.450443
C71	C	0.962366	0.571468	-0.049565
C72	C	1.462366	1.071468	0.450435
C73	C	0.914979	0.643434	-0.002217
C74	C	1.414979	1.143434	0.497783
C75	C	0.947220	-0.000471	0.087022
C76	C	1.447220	0.499529	0.587022
C77	C	1.024324	-0.000517	0.088151
C78	C	1.524324	0.499483	0.588151
N79	N	0.820215	0.643471	0.092486
N80	N	1.320215	1.143471	0.592486
C81	C	0.825682	-0.000382	-0.034516
C82	C	1.325682	0.499618	0.465484
C83	C	0.824553	-0.000369	-0.111620
C84	C	1.324553	0.499631	0.388380
C85	C	0.887321	-0.000391	-0.156316
C86	C	1.387321	0.499609	0.343684
C87	C	0.886260	-0.000412	-0.228763
C88	C	1.386260	0.499588	0.271237
C89	C	0.822428	-0.000384	-0.256511
C90	C	1.322428	0.499616	0.243489
C91	C	0.759652	-0.000370	-0.211805
C92	C	1.259652	0.499630	0.288195
C93	C	0.760714	-0.000362	-0.139359
C94	C	1.260714	0.499638	0.360641
C95	C	0.772248	0.079706	-0.364797
C96	C	1.272248	0.579706	0.135203
C97	C	0.771188	0.079707	-0.437241
C98	C	1.271188	0.579707	0.062759
C99	C	0.819148	-0.000413	-0.479956
C100	C	1.319148	0.499587	0.020044
C101	C	0.868180	-0.080516	-0.450220
C102	C	1.368180	0.419484	0.049780
C103	C	0.869242	-0.080509	-0.377774
C104	C	1.369242	0.419491	0.122226
C105	C	0.821269	-0.000393	-0.335065
C106	C	1.321269	0.499607	0.164935
C107	C	0.880770	-0.000460	-0.603209
C108	C	1.380770	0.499540	-0.103209
C109	C	0.879707	-0.000490	-0.675657
C110	C	1.379707	0.499510	-0.175657
C111	C	0.753097	-0.000434	-0.658697
C112	C	1.253097	0.499566	-0.158697
C113	C	0.754162	-0.000418	-0.586250
C114	C	1.254162	0.499582	-0.086250
C115	C	0.818000	-0.000424	-0.558511
C116	C	1.318000	0.499576	-0.058511
C117	C	0.814745	-0.000442	0.219497
C118	C	1.314745	0.499558	0.719497
C119	C	0.815874	-0.000464	0.296601
C120	C	1.315874	0.499536	0.796601
H121	H	0.593987	-0.000368	0.211580
H122	H	1.093987	0.499632	0.711580
H123	H	0.930822	-0.000515	-0.712049
H124	H	1.430822	0.499485	-0.212049
Cl125	Cl	1.021930	0.337117	-0.109083
Cl126	Cl	1.521930	0.837117	0.390917
Cl127	Cl	1.021928	0.661876	-0.109101
Cl128	Cl	1.521928	1.161876	0.390899
H129	H	0.397744	-0.145700	0.005467
H130	H	0.897744	0.354300	0.505467
H131	H	0.624756	-0.000271	-0.018124
H132	H	1.124756	0.499729	0.481876
Cl133	Cl	0.481037	-0.000328	-0.048318
Cl134	Cl	0.981037	0.499672	0.451682
Cl135	Cl	0.711950	0.180442	-0.311105
Cl136	Cl	1.211950	0.680442	0.188895
Cl137	Cl	0.223757	0.180301	0.200756
Cl138	Cl	0.723757	0.680301	0.700756
Cl139	Cl	0.681799	-0.000334	-0.083166
Cl140	Cl	1.181799	0.499666	0.416834
Cl141	Cl	0.961023	-0.000460	-0.568333
Cl142	Cl	1.461023	0.499540	-0.068333
H143	H	0.731260	0.144923	-0.461446
H144	H	1.231260	0.644923	0.038554
Cl145	Cl	0.713261	0.337253	0.199372
Cl146	Cl	1.213261	0.837253	0.699372
Cl147	Cl	0.442760	-0.000411	0.237451
Cl148	Cl	0.942760	0.499589	0.737451
H149	H	0.914977	0.760593	-0.002231
H150	H	1.414977	1.260593	0.497769
Cl151	Cl	0.713264	0.662016	0.199362
Cl152	Cl	1.213264	1.162016	0.699362
Cl153	Cl	0.967575	-0.000438	-0.121448
Cl154	Cl	1.467575	0.499562	0.378552
H155	H	0.914991	0.238512	-0.002199
H156	H	1.414991	0.738512	0.497801
Cl157	Cl	0.679405	-0.000346	-0.246686
Cl158	Cl	1.179405	0.499654	0.253314
H159	H	0.046435	-0.000578	-0.026600
H160	H	0.546435	0.499422	0.473400
Cl161	Cl	0.965174	-0.000441	-0.284963
Cl162	Cl	1.465174	0.499559	0.215037
Cl163	Cl	0.930875	-0.181214	-0.340393
Cl164	Cl	1.430875	0.318786	0.159607
Cl165	Cl	0.387275	0.180349	0.203155
Cl166	Cl	0.887275	0.680349	0.703155
Cl167	Cl	0.159390	-0.000513	0.233300
Cl168	Cl	0.659390	0.499487	0.733300
Cl169	Cl	-0.004125	-0.000553	0.230900
Cl170	Cl	0.495875	0.499447	0.730900
H171	H	0.177866	-0.000445	-0.024674
H172	H	0.677866	0.499555	0.475326
H173	H	0.907234	-0.145758	-0.484998
H174	H	1.407234	0.354242	0.015002
H175	H	0.701123	-0.000418	-0.681288
H176	H	1.201123	0.499582	-0.181288
Cl177	Cl	0.675249	-0.000384	-0.530057
Cl178	Cl	1.175249	0.499616	-0.030057
Cl179	Cl	0.253160	-0.181224	-0.018169
Cl180	Cl	0.753160	0.318776	0.481831
