data_functionalizedCrystal
_audit_creation_method	'MofGen! by Chris Wilmer'
_symmetry_space_group_name_H-M	'P1'
_symmetry_Int_Tables_number	1
_symmetry_cell_setting	triclinic
loop_
_symmetry_equiv_pos_as_xyz
  x,y,z
_cell_length_a	10.723022
_cell_length_b	9.798715
_cell_length_c	10.723024
_cell_angle_alpha	89.997158
_cell_angle_beta	84.467548
_cell_angle_gamma	89.996219
loop_
_atom_site_label
_atom_site_type_symbol
_atom_site_fract_x
_atom_site_fract_y
_atom_site_fract_z
O1	O	-1.657188	0.113500	-0.175016
O2	O	-1.294035	0.113501	-0.191771
O3	O	-1.483988	0.113493	-0.001817
O4	O	-1.467235	0.113508	-0.364970
O5	O	-1.483975	-0.113489	-0.001816
O6	O	-1.294022	-0.113482	-0.191769
O7	O	-1.657175	-0.113482	-0.175014
Zn8	Zn	-1.475596	-0.149520	-0.183392
Zn9	Zn	-1.475614	0.149539	-0.183394
O10	O	-1.467222	-0.113475	-0.364968
C11	C	-1.247529	0.000009	-0.190551
C12	C	-1.108975	0.000009	-0.186904
C13	C	-0.890796	0.000014	-0.289421
C14	C	-1.033999	0.000014	-0.293192
N15	N	-1.475593	-0.353620	-0.183390
C16	C	-0.703681	0.000009	-0.176234
C17	C	-0.842235	0.000009	-0.179881
C18	C	-1.395853	-0.421427	-0.263495
C19	C	-1.395870	-0.578589	-0.263494
C20	C	-1.482763	0.000003	0.044683
C21	C	-1.479115	0.000006	0.183238
N22	N	-1.475626	0.353638	-0.183386
C23	C	-1.585403	0.000007	0.258221
C24	C	-1.581635	0.000011	0.401424
C25	C	-1.468448	0.000015	0.588532
C26	C	-1.472095	0.000012	0.449977
H27	H	-1.067171	0.000042	-0.093113
O28	O	-1.556859	-0.576723	-0.101415
C29	C	-1.488974	-0.494198	-0.024085
H30	H	-1.391887	-0.472893	-0.073256
H31	H	-1.540746	-0.393673	-0.004618
H32	H	-1.479395	-0.549291	0.068150
O33	O	-0.919231	0.000188	-0.071409
C34	C	-0.995345	0.117763	-0.066681
H35	H	-1.002649	0.156960	-0.165810
H36	H	-1.092821	0.091325	-0.021151
H37	H	-0.952117	0.200077	-0.009258
O38	O	-1.314561	-0.351737	-0.345369
C39	C	-1.382343	-0.269092	-0.422710
H40	H	-1.479472	-0.247812	-0.373624
H41	H	-1.330545	-0.168563	-0.442026
H42	H	-1.391820	-0.324069	-0.515016
O43	O	-0.813979	0.000262	-0.398009
C44	C	-0.837269	0.117803	-0.467984
H45	H	-0.881280	0.199964	-0.402533
H46	H	-0.745299	0.157268	-0.517124
H47	H	-0.904059	0.091226	-0.540877
H48	H	-1.327597	-0.636900	-0.332071
O49	O	-1.690226	-0.000228	0.478231
C50	C	-1.760196	-0.117765	0.454954
H51	H	-1.694741	-0.199933	0.410958
H52	H	-1.809340	-0.157221	0.546928
H53	H	-1.833087	-0.091186	0.388156
H54	H	-1.543879	-0.411918	-0.114812
H55	H	-1.679188	-0.000001	0.216399
O56	O	-1.363566	0.000254	0.373075
C57	C	-1.358873	0.117791	0.296913
H58	H	-1.422235	0.199955	0.344103
H59	H	-1.258485	0.157253	0.283012
H60	H	-1.392101	0.091208	0.202039
H61	H	-1.075811	0.000009	-0.386980
O62	O	-1.367146	-0.000172	0.232971
C63	C	-1.298861	-0.117745	0.192821
H64	H	-1.333513	-0.156944	0.102199
H65	H	-1.195087	-0.091305	0.175780
H66	H	-1.312765	-0.200058	0.268016
