data_functionalizedCrystal
_audit_creation_method	'MofGen! by Chris Wilmer'
_symmetry_space_group_name_H-M	'P1'
_symmetry_Int_Tables_number	1
_symmetry_cell_setting	triclinic
loop_
_symmetry_equiv_pos_as_xyz
  x,y,z
_cell_length_a	14.446369
_cell_length_b	14.446369
_cell_length_c	14.560438
_cell_angle_alpha	59.999204
_cell_angle_beta	90.001510
_cell_angle_gamma	60.000221
loop_
_atom_site_label
_atom_site_type_symbol
_atom_site_fract_x
_atom_site_fract_y
_atom_site_fract_z
Zr1	Zr	0.891801	1.013162	-0.120499
O2	O	0.743994	1.206285	-0.267154
O3	O	0.937107	0.820046	-0.075540
O4	O	0.937109	1.013162	-0.267146
O5	O	0.743997	1.013167	0.075592
O6	O	1.089446	1.013154	-0.267140
O7	O	0.743993	1.013169	-0.075548
O8	O	1.089443	0.667704	0.075607
O9	O	0.743999	1.358616	-0.267154
O10	O	1.070123	0.899468	-0.056363
O11	O	0.956438	0.899473	0.056428
O12	O	0.956440	1.126842	-0.169163
O13	O	0.842755	1.126846	-0.056372
Zr14	Zr	1.134767	1.013145	0.120562
Zr15	Zr	1.134761	1.013149	-0.120490
Zr16	Zr	0.891807	1.013158	0.120553
Zr17	Zr	0.891809	1.256112	-0.120500
Zr18	Zr	1.134759	0.770194	0.120564
O19	O	1.089461	1.206261	0.075604
O20	O	1.089452	1.206266	-0.267141
O21	O	0.744003	1.206280	0.075591
O22	O	1.282574	0.820021	0.267217
O23	O	1.282565	0.820027	-0.075528
O24	O	0.937116	0.820040	0.267205
O25	O	1.282572	1.013140	-0.075529
O26	O	1.089460	1.013145	0.267209
O27	O	0.937123	1.013153	0.267204
O28	O	1.282576	1.013137	0.075612
O29	O	0.937120	1.358606	-0.267147
O30	O	1.089448	0.667701	0.267211
O31	O	1.282569	0.667690	0.267218
O32	O	1.282564	0.667693	0.075614
O33	O	0.744004	1.358613	-0.075550
O34	O	0.937125	1.358602	-0.075543
O35	O	1.070129	0.899464	0.169227
O36	O	1.183813	0.899460	0.056436
O37	O	1.070130	1.126834	-0.056364
O38	O	0.956446	1.126838	0.056427
C39	C	1.013274	0.709260	0.000033
C40	C	1.013271	0.606121	0.000034
C41	C	0.941565	0.566835	0.071180
C42	C	0.941894	0.459200	0.071558
C43	C	1.136860	0.371396	0.051551
C44	C	1.136451	0.478642	0.052091
C45	C	0.962415	0.653846	-0.122675
C46	C	0.959935	0.547673	-0.122492
C47	C	0.709378	1.013170	0.000021
C48	C	0.606235	1.013176	0.000017
C49	C	0.387869	1.156565	-0.070767
C50	C	0.495101	1.156662	-0.071165
C51	C	0.602908	0.941947	-0.051873
C52	C	0.495139	0.942857	-0.052392
C53	C	0.496507	0.939901	0.122782
C54	C	0.602476	0.942604	0.122588
C55	C	1.317190	1.013137	0.000043
C56	C	1.420333	1.013131	0.000047
C57	C	1.013277	1.013158	-0.301488
C58	C	1.013274	1.013160	-0.403821
C59	C	1.013294	1.317047	0.000030
C60	C	1.013298	1.420185	0.000030
C61	C	0.953934	1.131845	-0.510777
C62	C	0.953947	1.131838	-0.606926
C63	C	1.072642	0.894453	-0.489148
C64	C	1.072635	0.894460	-0.393001
C65	C	1.013292	1.013148	0.301551
C66	C	1.013295	1.013146	0.403884
C67	C	1.317180	0.709243	0.000044
C68	C	1.420320	0.606099	0.000049
C69	C	1.013282	0.709255	0.301553
C70	C	1.013281	0.606114	0.403886
C71	C	1.317188	0.709238	0.301564
C72	C	1.420330	0.606092	0.403901
C73	C	0.709381	1.317069	-0.301500
C74	C	0.606238	1.420215	-0.403837
C75	C	0.709388	1.317063	0.000019
C76	C	0.606249	1.420208	0.000015
C77	C	1.013287	1.317052	-0.301489
C78	C	1.013287	1.420192	-0.403823
C79	C	1.409433	0.557643	-0.058827
C80	C	1.506347	0.460736	-0.058826
C81	C	1.625032	0.460745	0.058933
C82	C	1.528119	0.557657	0.058926
C83	C	1.072625	0.557652	0.510843
C84	C	1.072611	0.460750	0.606992
C85	C	0.953909	0.460776	0.489215
C86	C	0.953916	0.557683	0.393068
C87	C	1.528129	0.557629	0.393107
C88	C	1.625038	0.460721	0.489267
C89	C	1.506336	0.460743	0.607013
C90	C	1.409429	0.557656	0.510854
H91	H	0.850347	0.655550	0.036841
H92	H	0.601961	0.994539	0.161353
H93	H	0.332884	1.212586	-0.160759
H94	H	1.712810	0.421267	0.480471
H95	H	1.497474	0.421293	0.694104
H96	H	0.905578	0.421330	0.480420
H97	H	1.537010	0.597065	0.306025
H98	H	0.850919	0.495746	0.037033
H99	H	1.192637	0.342888	0.002195
H100	H	1.120959	0.597087	0.519658
H101	H	1.120933	0.421299	0.694077
H102	H	1.321662	0.597093	-0.106780
H103	H	1.321649	0.597118	0.519651
H104	H	0.905586	0.597145	0.305973
H105	H	0.976532	0.530963	0.161162
H106	H	0.977201	0.370250	0.162075
H107	H	1.192812	0.500891	0.003595
H108	H	1.177136	0.437823	0.142376
H109	H	0.523944	0.834240	0.175794
H110	H	1.177842	0.278952	0.140961
H111	H	1.536992	0.597114	0.106869
H112	H	0.872772	0.747436	-0.165749
H113	H	1.497473	0.421289	-0.106771
H114	H	1.712812	0.421290	0.106871
H115	H	1.014387	0.680110	-0.175928
H116	H	0.868901	0.587128	-0.160983
H117	H	0.446486	0.985794	0.166130
H118	H	1.006838	0.526489	-0.179879
H119	H	0.493344	1.212832	-0.036630
H120	H	0.492654	1.212891	-0.161703
H121	H	0.444794	0.993478	-0.142708
H122	H	0.521791	0.837622	-0.004149
H123	H	0.333916	1.212857	-0.036137
H124	H	0.605043	0.991423	-0.141332
H125	H	0.681174	0.836446	-0.002779
H126	H	0.681633	0.837922	0.179789
H127	H	0.905628	1.228483	-0.694012
H128	H	1.120970	0.797812	-0.480353
H129	H	0.905599	1.228498	-0.519593
H130	H	1.120962	0.797807	-0.305906
