data_functionalizedCrystal
_audit_creation_method	'MofGen! by Chris Wilmer'
_symmetry_space_group_name_H-M	'P1'
_symmetry_Int_Tables_number	1
_symmetry_cell_setting	triclinic
loop_
_symmetry_equiv_pos_as_xyz
  x,y,z
_cell_length_a	11.169417
_cell_length_b	13.897448
_cell_length_c	11.169409
_cell_angle_alpha	89.964482
_cell_angle_beta	89.979436
_cell_angle_gamma	90.018571
loop_
_atom_site_label
_atom_site_type_symbol
_atom_site_fract_x
_atom_site_fract_y
_atom_site_fract_z
Zn1	Zn	1.834910	-0.383915	-0.678516
Zn2	Zn	2.168243	-0.050581	-0.345182
Zn3	Zn	2.501576	0.282752	-0.011849
Zn4	Zn	1.834771	-0.545250	-0.477821
Zn5	Zn	2.168104	-0.211917	-0.144488
Zn6	Zn	2.501437	0.121416	0.188845
Zn7	Zn	1.634193	-0.383973	-0.477850
Zn8	Zn	1.967526	-0.050640	-0.144517
Zn9	Zn	2.300860	0.282693	0.188817
Zn10	Zn	1.634177	-0.545172	-0.678466
Zn11	Zn	1.967511	-0.211839	-0.345133
Zn12	Zn	2.300844	0.121495	-0.011799
O13	O	1.734513	-0.464578	-0.578163
O14	O	2.067846	-0.131244	-0.244830
O15	O	2.401179	0.202089	0.088503
O16	O	2.002841	-0.405324	-0.651902
O17	O	2.336174	-0.071991	-0.318569
O18	O	2.669508	0.261342	0.014765
O19	O	1.808112	-0.523914	-0.309875
O20	O	2.141445	-0.190581	0.023458
O21	O	2.474779	0.142753	0.356791
O22	O	1.660883	-0.248984	-0.504502
O23	O	1.994217	0.084349	-0.171168
O24	O	2.327550	0.417683	0.162165
O25	O	2.002739	-0.523857	-0.504453
O26	O	2.336072	-0.190524	-0.171119
O27	O	2.669406	0.142810	0.162214
O28	O	1.808349	-0.248941	-0.651930
O29	O	2.141682	0.084392	-0.318596
O30	O	2.475016	0.417726	0.014737
O31	O	1.660749	-0.405424	-0.309896
O32	O	1.994082	-0.072091	0.023437
O33	O	2.327415	0.261242	0.356770
O34	O	1.466241	-0.405348	-0.504454
O35	O	1.799575	-0.072015	-0.171120
O36	O	2.132908	0.261318	0.162213
O37	O	1.660857	-0.523723	-0.846423
O38	O	1.994190	-0.190390	-0.513089
O39	O	2.327523	0.142943	-0.179756
O40	O	1.466230	-0.523780	-0.651845
O41	O	1.799563	-0.190447	-0.318512
O42	O	2.132896	0.142886	0.014821
O43	O	1.808334	-0.405249	-0.846459
O44	O	2.141667	-0.071915	-0.513126
O45	O	2.475000	0.261418	-0.179792
O46	O	1.808097	-0.680222	-0.504404
O47	O	2.141430	-0.346888	-0.171071
O48	O	2.474764	-0.013555	0.162262
O49	O	1.660722	-0.680164	-0.651817
O50	O	1.994055	-0.346831	-0.318484
O51	O	2.327388	-0.013497	0.014849
C52	C	1.422688	-0.464563	-0.578148
C53	C	1.756021	-0.131230	-0.244815
C54	C	2.089355	0.202104	0.088519
C55	C	1.289288	-0.464580	-0.578170
C56	C	1.622621	-0.131247	-0.244836
C57	C	1.955955	0.202087	0.088497
C58	C	1.734425	-0.715192	-0.578129
C59	C	2.067758	-0.381859	-0.244795
C60	C	2.401092	-0.048525	0.088538
C61	C	1.734497	-0.822406	-0.578154
C62	C	2.067831	-0.489072	-0.244821
C63	C	2.401164	-0.155739	0.088513
C64	C	1.734624	-1.018701	-0.578229
C65	C	2.067957	-0.685368	-0.244896
C66	C	2.401290	-0.352034	0.088438
C67	C	1.734550	-0.909468	-0.578191
C68	C	2.067883	-0.576135	-0.244858
C69	C	2.401217	-0.242802	0.088476
C70	C	2.047555	-0.464593	-0.578180
C71	C	2.380888	-0.131260	-0.244846
C72	C	2.714222	0.202074	0.088487
C73	C	2.180955	-0.464600	-0.578186
C74	C	2.514288	-0.131266	-0.244853
C75	C	2.847622	0.202067	0.088480
C76	C	1.734609	-0.464471	-0.891206
C77	C	2.067942	-0.131137	-0.557873
C78	C	2.401276	0.202196	-0.224539
C79	C	1.734650	-0.464425	-1.024606
C80	C	2.067983	-0.131092	-0.691273
C81	C	2.401317	0.202241	-0.357939
C82	C	1.734633	-0.212985	-0.578224
C83	C	2.067967	0.120349	-0.244891
C84	C	2.401300	0.453682	0.088442
C85	C	1.734685	-0.105771	-0.578251
C86	C	2.068018	0.227563	-0.244917
C87	C	2.401351	0.560896	0.088416
C88	C	1.734486	-0.464614	-0.266339
C89	C	2.067819	-0.131281	0.066995
C90	C	2.401153	0.202052	0.400328
C91	C	1.734678	-0.464388	-0.132939
C92	C	2.068011	-0.131055	0.200394
C93	C	2.401344	0.202278	0.533727
