data_functionalizedCrystal
_audit_creation_method	'MofGen! by Chris Wilmer'
_symmetry_space_group_name_H-M	'P1'
_symmetry_Int_Tables_number	1
_symmetry_cell_setting	triclinic
loop_
_symmetry_equiv_pos_as_xyz
  x,y,z
_cell_length_a	19.077236
_cell_length_b	12.759400
_cell_length_c	19.076919
_cell_angle_alpha	87.723750
_cell_angle_beta	90.112677
_cell_angle_gamma	92.307411
loop_
_atom_site_label
_atom_site_type_symbol
_atom_site_fract_x
_atom_site_fract_y
_atom_site_fract_z
Zn1	Zn	1.058335	-0.381376	0.440563
Zn2	Zn	1.062995	-0.549745	0.323065
Zn3	Zn	0.945551	-0.380825	0.318343
Zn4	Zn	0.940815	-0.563761	0.435804
O5	O	1.001924	-0.468927	0.379444
O6	O	1.157286	-0.398075	0.428944
O7	O	1.051347	-0.521241	0.224108
O8	O	0.960544	-0.233876	0.334570
O9	O	1.160710	-0.521775	0.342619
O10	O	1.043406	-0.234281	0.424365
O11	O	0.965062	-0.397136	0.220638
O12	O	0.846589	-0.410727	0.329956
O13	O	0.952473	-0.545664	0.534766
O14	O	0.843110	-0.545130	0.416255
O15	O	1.038814	-0.411666	0.538263
O16	O	1.046755	-0.698626	0.338005
O17	O	0.956991	-0.708924	0.420834
C18	C	0.819353	-0.479390	0.372077
C19	C	0.741248	-0.483893	0.368942
C20	C	0.702770	-0.421716	0.412483
C21	C	0.629382	-0.425941	0.409531
C22	C	0.594474	-0.492350	0.363042
C23	C	0.632957	-0.554530	0.319497
C24	C	0.706344	-0.550298	0.322445
C25	C	0.375182	-0.511895	0.349394
C26	C	0.301790	-0.516124	0.346450
C27	C	0.298220	-0.387534	0.436484
C28	C	0.371608	-0.383312	0.439432
C29	C	0.410086	-0.445488	0.395884
N30	N	0.519459	-0.496673	0.360026
N31	N	0.485099	-0.441159	0.398897
C32	C	1.001883	-0.741896	0.379432
C33	C	1.001929	-0.858671	0.379453
C34	C	0.955217	-1.028655	0.422560
C35	C	0.955179	-0.918933	0.422547
C36	C	1.048726	-0.908137	0.336374
C37	C	1.048767	-1.017858	0.336392
C38	C	0.908459	-1.088911	0.465652
C39	C	0.861663	-1.039453	0.508731
C40	C	0.861625	-0.929730	0.508718
C41	C	0.908383	-0.869466	0.465625
C42	C	1.185208	-0.458423	0.386839
C43	C	1.263312	-0.453947	0.389991
C44	C	0.994596	-0.480290	0.562724
C45	C	0.991473	-0.485132	0.640827
C46	C	1.001983	-0.194892	0.379472
C47	C	1.002008	-0.078114	0.379484
C48	C	1.009264	-0.457530	0.196878
C49	C	1.012523	-0.452384	0.118781
C50	C	1.034957	-0.417645	0.679341
C51	C	1.032014	-0.422191	0.752726
C52	C	0.985590	-0.494231	0.787597
C53	C	0.942102	-0.561721	0.749077
C54	C	0.945041	-0.557169	0.675693
C55	C	0.971974	-0.515321	1.006877
C56	C	0.969039	-0.519871	1.080267
C57	C	1.058951	-0.380339	1.083911
C58	C	1.061890	-0.375798	1.010525
C59	C	1.018398	-0.443284	0.972012
N60	N	0.982583	-0.498882	0.862609
N61	N	1.021403	-0.438627	0.897001
H62	H	0.266884	-0.336912	0.471938
Br63	Br	1.117970	-0.288754	1.136182
Br64	Br	1.112178	-0.826352	0.277894
Br65	Br	0.798218	-1.121235	0.567221
Br66	Br	1.097969	-0.319880	0.632024
H67	H	0.931233	-0.578536	1.108656
H68	H	0.406502	-0.562524	0.313935
Br69	Br	0.750138	-0.331592	0.475583
H70	H	0.908352	-0.780123	0.465622
Br71	Br	1.112274	-1.084988	0.277934
H72	H	1.067425	-0.367239	0.784082
H73	H	0.904300	-0.620373	0.777474
Br74	Br	0.758566	-0.634684	0.263351
H75	H	0.604529	-0.608596	0.281641
H76	H	0.936571	-0.570288	0.975529
H77	H	0.823527	-0.889462	0.543800
H78	H	0.598056	-0.375312	0.444988
H79	H	1.099695	-0.317139	0.982139
H80	H	0.400025	-0.329239	0.477290
Br81	Br	0.254414	-0.606288	0.283374
Br82	Br	0.908536	-1.237820	0.465703
Br83	Br	0.886021	-0.648756	0.623422
