data_functionalizedCrystal
_audit_creation_method	'MofGen! by Chris Wilmer'
_symmetry_space_group_name_H-M	'P1'
_symmetry_Int_Tables_number	1
_symmetry_cell_setting	triclinic
loop_
_symmetry_equiv_pos_as_xyz
  x,y,z
_cell_length_a	8.497374
_cell_length_b	12.827893
_cell_length_c	12.827892
_cell_angle_alpha	89.984638
_cell_angle_beta	89.992687
_cell_angle_gamma	90.001575
loop_
_atom_site_label
_atom_site_type_symbol
_atom_site_fract_x
_atom_site_fract_y
_atom_site_fract_z
Zn1	Zn	0.891962	1.597487	0.416215
Zn2	Zn	0.628170	1.597435	0.590924
Zn3	Zn	0.628190	1.422782	0.416197
Zn4	Zn	0.891902	1.422714	0.590915
O5	O	0.760056	1.510105	0.503563
O6	O	0.856986	1.743716	0.439402
O7	O	0.407411	1.574274	0.567742
O8	O	0.663214	1.446008	0.269964
O9	O	0.663179	1.743678	0.567760
O10	O	0.857006	1.574363	0.269977
O11	O	0.407425	1.445958	0.439372
O12	O	0.663156	1.276537	0.439363
O13	O	1.112673	1.445891	0.567744
O14	O	0.856904	1.276487	0.567727
O15	O	1.112717	1.574296	0.439393
O16	O	0.663121	1.574207	0.737159
O17	O	0.856884	1.445840	0.737152
C18	C	0.760026	1.238595	0.503543
C19	C	0.760051	1.122442	0.503559
C20	C	0.855776	1.070659	0.567177
C21	C	0.855803	0.950609	0.567195
C22	C	0.760028	1.510039	0.775073
C23	C	0.760069	1.510107	0.891226
C24	C	1.171537	1.510097	0.503564
C25	C	1.350181	1.510099	0.503575
C26	C	0.760087	1.782675	0.503584
C27	C	0.760101	1.898828	0.503593
C28	C	0.760119	1.510199	0.230993
C29	C	0.760145	1.510239	0.114839
C30	C	0.664296	1.573702	0.942979
C31	C	0.664336	1.573774	1.063030
H32	H	0.678124	1.077897	0.449103
H33	H	0.937714	1.115204	0.621625
H34	H	0.582336	1.628217	1.107536
C35	C	0.870928	1.436677	1.054730
C36	C	0.802331	1.354695	0.979755
C37	C	0.913114	1.281134	0.919636
C38	C	1.092492	1.289554	0.934493
C39	C	1.161098	1.371539	1.009472
C40	C	1.050315	1.445100	1.069590
H41	H	0.669537	1.348460	0.968754
H42	H	0.862326	1.220443	0.864132
H43	H	1.174500	1.235099	0.889990
H44	H	1.293893	1.377775	1.020473
H45	H	1.101103	1.505791	1.125095
C46	C	0.649374	0.958970	0.430005
C47	C	0.469994	0.944043	0.438335
C48	C	0.359268	1.004194	0.364748
C49	C	0.427922	1.079274	0.282832
C50	C	0.607311	1.094205	0.274499
C51	C	0.718038	1.034053	0.348086
H52	H	0.419164	0.888461	0.498977
H53	H	0.226472	0.993141	0.370917
H54	H	0.345956	1.123802	0.228358
H55	H	0.658142	1.149786	0.213857
H56	H	0.850834	1.045107	0.341917
H57	H	0.582276	1.628101	0.898413
H58	H	0.937752	0.906078	0.621664
H59	H	0.842100	1.455718	0.935794
