data_functionalizedCrystal
_audit_creation_method	'MofGen! by Chris Wilmer'
_symmetry_space_group_name_H-M	'P1'
_symmetry_Int_Tables_number	1
_symmetry_cell_setting	triclinic
loop_
_symmetry_equiv_pos_as_xyz
  x,y,z
_cell_length_a	14.519709
_cell_length_b	19.288865
_cell_length_c	18.366186
_cell_angle_alpha	90.011479
_cell_angle_beta	90.003429
_cell_angle_gamma	83.408197
loop_
_atom_site_label
_atom_site_type_symbol
_atom_site_fract_x
_atom_site_fract_y
_atom_site_fract_z
O1	O	-1.223296	-0.091051	-0.060464
O2	O	-0.723296	0.408949	0.439536
O3	O	-0.954751	-0.101773	-0.060487
O4	O	-0.454751	0.398227	0.439513
O5	O	-1.096783	0.004690	-0.060460
O6	O	-0.596783	0.504690	0.439540
O7	O	-1.081264	-0.197514	-0.060490
O8	O	-0.581264	0.302486	0.439510
O9	O	-1.096759	0.004696	0.060639
O10	O	-0.596759	0.504696	0.560639
O11	O	-0.954727	-0.101768	0.060613
O12	O	-0.454727	0.398232	0.560613
O13	O	-1.223272	-0.091046	0.060636
O14	O	-0.723272	0.408954	0.560636
Zn15	Zn	-1.088995	-0.096406	0.079851
Zn16	Zn	-0.588995	0.403594	0.579851
Zn17	Zn	-1.089027	-0.096413	-0.079702
Zn18	Zn	-0.589027	0.403587	0.420298
O19	O	-1.081240	-0.197509	0.060609
O20	O	-0.581240	0.302491	0.560609
C21	C	-1.096272	0.030571	0.000092
C22	C	-0.596272	0.530571	0.500092
C23	C	-1.094773	0.107680	0.000098
C24	C	-0.594773	0.607680	0.500098
C25	C	-0.920382	-0.101271	0.000060
C26	C	-0.420382	0.398729	0.500060
C27	C	-0.818010	-0.099773	0.000052
C28	C	-0.318010	0.400227	0.500052
C29	C	-1.257640	-0.091548	0.000087
C30	C	-0.757640	0.408452	0.500087
C31	C	-1.360012	-0.093045	0.000091
C32	C	-0.860012	0.406955	0.500091
C33	C	-0.443150	-0.094261	0.000086
C34	C	0.056850	0.405739	0.500086
C35	C	-0.547448	-0.095792	0.000076
C36	C	-0.047448	0.404208	0.500076
C37	C	-0.630577	-0.097017	0.000068
C38	C	-0.130577	0.402983	0.500068
C39	C	-0.734882	-0.098548	0.000060
C40	C	-0.234882	0.401452	0.500060
C41	C	-1.081751	-0.223390	0.000056
C42	C	-0.581751	0.276610	0.500056
C43	C	-1.083250	-0.300499	0.000045
C44	C	-0.583250	0.199501	0.500045
N45	N	-1.088981	-0.096401	0.188742
N46	N	-0.588981	0.403599	0.688742
C47	C	-1.178111	0.152077	0.000109
C48	C	-0.678111	0.652077	0.500109
C49	C	-1.176702	0.224529	0.000097
C50	C	-0.676702	0.724529	0.500097
C51	C	-1.091951	0.252581	0.000089
C52	C	-0.591951	0.752581	0.500089
C53	C	-1.008602	0.208175	0.000074
C54	C	-0.508602	0.708175	0.500074
C55	C	-1.010013	0.135725	0.000079
C56	C	-0.510013	0.635725	0.500079
C57	C	-1.025319	0.361110	0.042502
C58	C	-0.525319	0.861110	0.542502
C59	C	-1.023911	0.433560	0.042502
C60	C	-0.523911	0.933560	0.542502
C61	C	-1.087597	0.476043	0.000073
C62	C	-0.587597	0.976043	0.500073
C63	C	-1.152705	0.446068	-0.042348
C64	C	-0.652705	0.946068	0.457652
C65	C	-1.154116	0.373618	-0.042343
C66	C	-0.654116	0.873618	0.457657
C67	C	-1.090412	0.331141	0.000084
C68	C	-0.590412	0.831141	0.500084
C69	C	-1.169414	0.599000	0.000070
C70	C	-0.669414	1.099000	0.500070
C71	C	-1.168002	0.671454	0.000054
C72	C	-0.668002	1.171454	0.500054
C73	C	-0.999899	0.655098	0.000038
C74	C	-0.499899	1.155098	0.500038
C75	C	-1.001314	0.582647	0.000047
C76	C	-0.501314	1.082647	0.500047
C77	C	-1.086073	0.554602	0.000066
C78	C	-0.586073	1.054602	0.500066
N79	N	-1.089049	-0.096413	-0.188594
N80	N	-0.589049	0.403587	0.311406
C81	C	-1.151893	-0.049282	0.226855
C82	C	-0.651893	0.450718	0.726855
C83	C	-1.151899	-0.049279	0.303082
C84	C	-0.651899	0.450721	0.803082
C85	C	-1.089001	-0.096406	0.341195
C86	C	-0.589001	0.403594	0.841195
C87	C	-1.026077	-0.143529	0.303074
C88	C	-0.526077	0.356471	0.803074
C89	C	-1.026067	-0.143526	0.226847
C90	C	-0.526067	0.356474	0.726847
C91	C	-1.076656	-0.159650	0.461945
C92	C	-0.576656	0.340350	0.961945
C93	C	-1.076672	-0.159654	0.538170
C94	C	-0.576672	0.340346	1.038170
C95	C	-1.089027	-0.096415	0.576303
C96	C	-0.589027	0.403585	1.076303
C97	C	-1.101385	-0.033170	0.538201
C98	C	-0.601385	0.466830	1.038201
C99	C	-1.101375	-0.033167	0.461974
C100	C	-0.601375	0.466833	0.961974
C101	C	-1.089005	-0.096415	0.423850
C102	C	-0.589005	0.403585	0.923850
C103	C	-1.151949	-0.049289	0.697070
C104	C	-0.651949	0.450711	1.197070
C105	C	-1.151949	-0.049285	0.773299
C106	C	-0.651949	0.450715	1.273299
C107	C	-1.026131	-0.143541	0.773289
C108	C	-0.526131	0.356459	1.273289
C109	C	-1.026128	-0.143539	0.697061
C110	C	-0.526128	0.356461	1.197061
C111	C	-1.089041	-0.096414	0.658956
C112	C	-0.589041	0.403586	1.158956
H113	H	-1.247128	0.129248	0.000122
H114	H	-0.747128	0.629248	0.500122
C115	C	-1.221136	0.002553	0.655148
C116	C	-0.721136	0.502553	1.155148
H117	H	-1.212127	-0.004199	0.604291
H118	H	-0.712127	0.495801	1.104291
H119	H	-1.211314	0.048925	0.667653
H120	H	-0.711314	0.548925	1.167653
H121	H	-1.282656	-0.005095	0.667631
H122	H	-0.782656	0.494905	1.167631
H123	H	-0.930893	0.677938	0.000028
H124	H	-0.430893	1.177938	0.500028
H125	H	-1.066616	-0.211151	0.569187
H126	H	-0.566616	0.288849	1.069187
C127	C	-1.222768	0.492787	-0.089021
C128	C	-0.722768	0.992787	0.410979
H129	H	-1.261749	0.464560	-0.114277
H130	H	-0.761749	0.964560	0.385723
H131	H	-1.190348	0.517941	-0.123144
H132	H	-0.690348	1.017941	0.376856
H133	H	-1.259449	0.524678	-0.058425
H134	H	-0.759449	1.024678	0.441575
C135	C	-0.952296	0.466529	0.089158
C136	C	-0.452296	0.966529	0.589158
H137	H	-0.960583	0.515762	0.083086
H138	H	-0.460583	1.015762	0.583086
H139	H	-0.891518	0.448716	0.074229
H140	H	-0.391518	0.948716	0.574229
H141	H	-0.960618	0.455454	0.138949
H142	H	-0.460618	0.955454	0.638949
H143	H	-0.974915	-0.181911	0.804320
H144	H	-0.474915	0.318089	1.304320
H145	H	-0.974835	-0.181896	0.195816
H146	H	-0.474835	0.318104	0.695816
H147	H	-1.238430	0.576166	0.000082
H148	H	-0.738430	1.076166	0.500082
H149	H	-1.066579	-0.211150	0.430904
H150	H	-0.566579	0.288850	0.930904
C151	C	-0.955259	0.314386	0.089177
C152	C	-0.455259	0.814386	0.589177
H153	H	-0.916292	0.342613	0.114447
H154	H	-0.416292	0.842613	0.614447
H155	H	-0.918578	0.282493	0.058589
H156	H	-0.418578	0.782493	0.558589
H157	H	-0.987692	0.289234	0.123300
H158	H	-0.487692	0.789234	0.623300
H159	H	-0.974863	-0.181900	0.334109
H160	H	-0.474863	0.318100	0.834109
H161	H	-1.235869	0.707601	0.000058
H162	H	-0.735869	1.207601	0.500058
H163	H	-0.939597	0.231020	0.000066
H164	H	-0.439597	0.731020	0.500066
C165	C	-0.918337	0.086887	0.000074
C166	C	-0.418337	0.586887	0.500074
H167	H	-0.867659	0.113967	0.000071
H168	H	-0.367659	0.613967	0.500071
H169	H	-0.915402	0.058270	-0.042152
H170	H	-0.415402	0.558270	0.457848
H171	H	-0.915388	0.058298	0.042313
H172	H	-0.415388	0.558298	0.542313
C173	C	-1.221085	0.002561	0.184943
C174	C	-0.721085	0.502561	0.684943
H175	H	-1.258549	0.030628	0.218564
H176	H	-0.758549	0.530628	0.718564
H177	H	-1.259363	-0.022485	0.155192
H178	H	-0.759363	0.477515	0.655192
H179	H	-1.188023	0.031536	0.155224
H180	H	-0.688023	0.531536	0.655224
H181	H	-0.933451	0.546498	0.000042
H182	H	-0.433451	1.046498	0.500042
C183	C	-1.221106	0.002553	0.345015
C184	C	-0.721106	0.502553	0.845015
H185	H	-1.258576	0.030616	0.311403
H186	H	-0.758576	0.530616	0.811403
H187	H	-1.188063	0.031522	0.374765
H188	H	-0.688063	0.531522	0.874765
H189	H	-1.259391	-0.022509	0.374737
H190	H	-0.759391	0.477491	0.874737
C191	C	-1.114969	0.036396	0.580135
C192	C	-0.614969	0.536396	1.080135
H193	H	-1.113193	0.027339	0.630990
H194	H	-0.613193	0.527339	1.130990
H195	H	-1.173231	0.061070	0.567646
H196	H	-0.673231	0.561070	1.067646
H197	H	-1.066845	0.063690	0.567651
H198	H	-0.566845	0.563690	1.067651
H199	H	-1.111435	0.018329	0.430955
H200	H	-0.611435	0.518329	0.930955
H201	H	-1.203177	-0.010912	0.804331
H202	H	-0.703177	0.489088	1.304331
C203	C	-1.268375	0.273377	0.000114
C204	C	-0.768375	0.773377	0.500114
H205	H	-1.255393	0.320542	0.000105
H206	H	-0.755393	0.820542	0.500105
H207	H	-1.303127	0.264872	0.042350
H208	H	-0.803127	0.764872	0.542350
H209	H	-1.303154	0.264857	-0.042115
H210	H	-0.803154	0.764857	0.457885
H211	H	-1.207127	0.349216	-0.076885
H212	H	-0.707127	0.849216	0.423115
C213	C	-0.956933	-0.195378	0.655136
C214	C	-0.456933	0.304622	1.155136
H215	H	-0.919478	-0.223450	0.688749
H216	H	-0.419478	0.276550	1.188749
H217	H	-0.918647	-0.170329	0.625409
H218	H	-0.418647	0.329671	1.125409
H219	H	-0.989989	-0.224349	0.625390
H220	H	-0.489989	0.275651	1.125390
