data_functionalizedCrystal
_audit_creation_method	'MofGen! by Chris Wilmer'
_symmetry_space_group_name_H-M	'P1'
_symmetry_Int_Tables_number	1
_symmetry_cell_setting	triclinic
loop_
_symmetry_equiv_pos_as_xyz
  x,y,z
_cell_length_a	15.995343
_cell_length_b	15.995350
_cell_length_c	16.776229
_cell_angle_alpha	89.995580
_cell_angle_beta	89.997180
_cell_angle_gamma	83.490779
loop_
_atom_site_label
_atom_site_type_symbol
_atom_site_fract_x
_atom_site_fract_y
_atom_site_fract_z
O1	O	1.110993	0.107897	-0.066204
O2	O	1.610993	0.607897	0.433796
O3	O	0.867216	0.121232	-0.066223
O4	O	1.367216	0.621232	0.433777
O5	O	0.995768	-0.007323	-0.066212
O6	O	1.495768	0.492677	0.433788
O7	O	0.982441	0.236452	-0.066215
O8	O	1.482441	0.736452	0.433785
O9	O	0.995751	-0.007331	0.066364
O10	O	1.495751	0.492669	0.566364
O11	O	0.867199	0.121224	0.066354
O12	O	1.367199	0.621224	0.566354
O13	O	1.110976	0.107890	0.066372
O14	O	1.610976	0.607890	0.566372
Zn15	Zn	0.989085	0.114555	0.087412
Zn16	Zn	1.489085	0.614555	0.587412
Zn17	Zn	0.989107	0.114566	-0.087263
Zn18	Zn	1.489107	0.614566	0.412737
O19	O	0.982424	0.236445	0.066362
O20	O	1.482424	0.736445	0.566362
C21	C	0.836013	0.120678	0.000063
C22	C	1.336013	0.620678	0.500063
C23	C	0.743062	0.119028	0.000056
C24	C	1.243062	0.619028	0.500056
C25	C	0.572876	0.116035	0.000066
C26	C	1.072876	0.616035	0.500066
C27	C	0.549530	0.023238	0.000067
C28	C	1.049530	0.523238	0.500067
C29	C	0.452852	0.021492	0.000373
C30	C	0.952852	0.521492	0.500373
C31	C	0.405316	0.113086	0.000076
C32	C	0.905316	0.613086	0.500076
C33	C	0.434398	0.159742	0.075633
C34	C	0.934398	0.659742	0.575633
C35	C	0.531190	0.160842	0.075691
C36	C	1.031190	0.660842	0.575691
C37	C	0.531120	0.162210	-0.075078
C38	C	1.031120	0.662210	0.424922
C39	C	0.434625	0.158784	-0.076067
C40	C	0.934625	0.658784	0.423933
C41	C	0.310618	0.111425	0.000084
C42	C	0.810618	0.611425	0.500084
C43	C	0.667574	0.117699	0.000064
C44	C	1.167574	0.617699	0.500064
C45	C	0.995209	-0.038522	0.000074
C46	C	1.495209	0.461478	0.500074
C47	C	0.993557	-0.131472	0.000070
C48	C	1.493557	0.368528	0.500070
C49	C	0.987625	-0.469220	0.000072
C50	C	1.487625	0.030780	0.500072
C51	C	0.896072	-0.421783	-0.000232
C52	C	1.396072	0.078217	0.499768
C53	C	0.897725	-0.325093	0.000067
C54	C	1.397725	0.174907	0.500067
C55	C	0.990567	-0.301659	0.000070
C56	C	1.490567	0.198341	0.500070
C57	C	1.035714	-0.342742	0.075780
C58	C	1.535714	0.157258	0.575780
C59	C	1.033414	-0.439378	0.075843
C60	C	1.533414	0.060622	0.575843
C61	C	1.035325	-0.439727	-0.074921
C62	C	1.535325	0.060273	0.425079
C63	C	1.035303	-0.342782	-0.075921
C64	C	1.535303	0.157218	0.424079
C65	C	0.992235	-0.206962	0.000072
C66	C	1.492235	0.293038	0.500072
C67	C	0.985960	-0.563917	0.000076
C68	C	1.485960	-0.063917	0.500076
C69	C	1.142179	0.108444	0.000085
C70	C	1.642179	0.608444	0.500085
C71	C	1.235130	0.110093	0.000087
C72	C	1.735130	0.610093	0.500087
C73	C	0.982983	0.267643	0.000073
C74	C	1.482983	0.767643	0.500073
C75	C	0.984635	0.360594	0.000073
C76	C	1.484635	0.860594	0.500073
N77	N	0.989076	0.114548	0.206624
N78	N	1.489076	0.614548	0.706624
N79	N	0.989123	0.114567	-0.206474
N80	N	1.489123	0.614567	0.293526
C81	C	1.046016	0.057647	0.248345
C82	C	1.546016	0.557647	0.748345
C83	C	1.046020	0.057646	0.331798
C84	C	1.546020	0.557646	0.831798
C85	C	0.989088	0.114551	0.373526
C86	C	1.489088	0.614551	0.873526
C87	C	0.932142	0.171455	0.331799
C88	C	1.432142	0.671455	0.831799
C89	C	0.932134	0.171451	0.248348
C90	C	1.432134	0.671451	0.748348
C91	C	0.932172	0.171471	0.668346
C92	C	1.432172	0.671471	1.168346
C93	C	0.932186	0.171472	0.751803
C94	C	1.432186	0.671472	1.251803
C95	C	1.046059	0.057667	0.751795
C96	C	1.546059	0.557667	1.251795
C97	C	1.046051	0.057663	0.668345
C98	C	1.546051	0.557663	1.168345
C99	C	0.989102	0.114563	0.626624
C100	C	1.489102	0.614563	1.126624
C101	C	0.989096	0.114562	0.536136
C102	C	1.489096	0.614562	1.036136
C103	C	0.989097	0.114557	0.464013
C104	C	1.489097	0.614557	0.964013
H105	H	0.559398	0.132936	-0.132366
H106	H	1.059398	0.632936	0.367634
H107	H	0.885822	0.217813	0.785777
H108	H	1.385822	0.717813	1.285777
C109	C	0.846856	-0.448230	0.072716
C110	C	1.346856	0.051770	0.572716
N111	N	0.809792	-0.468143	0.127668
N112	N	1.309792	0.031857	0.627668
C113	C	1.127856	-0.323646	0.079601
C114	C	1.627856	0.176354	0.579601
N115	N	1.197255	-0.309255	0.082480
N116	N	1.697255	0.190745	0.582480
C117	C	0.390126	0.249085	-0.082533
C118	C	0.890126	0.749085	0.417467
N119	N	0.356611	0.317104	-0.087397
N120	N	0.856611	0.817104	0.412603
H121	H	0.885804	0.217803	0.634384
H122	H	1.385804	0.717803	1.134384
H123	H	0.557969	0.128903	0.132387
H124	H	1.057969	0.628903	0.632387
C125	C	0.994894	-0.467465	-0.152443
C126	C	1.494894	0.032535	0.347557
N127	N	0.964432	-0.488356	-0.210830
N128	N	1.464432	0.011644	0.289170
C129	C	1.108678	-0.004938	0.622448
C130	C	1.608678	0.495062	1.122448
N131	N	1.155848	-0.052094	0.587879
N132	N	1.655848	0.447906	1.087879
C133	C	1.108639	-0.004969	0.377688
C134	C	1.608639	0.495031	0.877688
N135	N	1.155798	-0.052142	0.412252
N136	N	1.655798	0.447858	0.912252
H137	H	1.092427	0.011333	0.785773
H138	H	1.592427	0.511333	1.285773
C139	C	0.427930	-0.027608	0.073983
C140	C	0.927930	0.472392	0.573983
N141	N	0.409158	-0.064586	0.129433
N142	N	0.909158	0.435414	0.629433
C143	C	0.988910	-0.464107	0.152291
C144	C	1.488910	0.035893	0.652291
N145	N	0.955385	-0.482727	0.209871
N146	N	1.455385	0.017273	0.709871
C147	C	0.869508	0.234043	0.377704
C148	C	1.369508	0.734043	0.877704
N149	N	0.822331	0.281185	0.412278
N150	N	1.322331	0.781185	0.912278
C151	C	1.108646	-0.004954	0.202451
C152	C	1.608646	0.495046	0.702451
N153	N	1.155819	-0.052110	0.167886
N154	N	1.655819	0.447890	0.667886
H155	H	0.414299	0.127724	0.132076
H156	H	0.914299	0.627724	0.632076
H157	H	0.433840	-0.015030	-0.053778
H158	H	0.933840	0.484970	0.446222
C159	C	0.587392	-0.025359	-0.073111
C160	C	1.087392	0.474641	0.426889
N161	N	0.615921	-0.061964	-0.128228
N162	N	1.115921	0.438036	0.371772
C163	C	0.409557	0.112890	-0.151584
C164	C	0.909557	0.612890	0.348416
N165	N	0.390670	0.078322	-0.208463
N166	N	0.890670	0.578322	0.291537
H167	H	1.103009	-0.327421	-0.080490
H168	H	1.603009	0.172579	0.419510
H169	H	1.004343	-0.314363	0.132118
H170	H	1.504343	0.185637	0.632118
C171	C	0.588668	-0.024567	0.073162
C172	C	1.088668	0.475433	0.573162
N173	N	0.618144	-0.060570	0.128221
N174	N	1.118144	0.439430	0.628221
C175	C	0.550881	0.252774	0.080047
C176	C	1.050881	0.752774	0.580047
N177	N	0.565708	0.322016	0.083334
N178	N	1.065708	0.822016	0.583334
C179	C	0.550060	0.254483	-0.076069
C180	C	1.050060	0.754483	0.423931
N181	N	0.564332	0.323980	-0.076810
N182	N	1.064332	0.823980	0.423190
H183	H	0.885767	0.217784	0.214379
H184	H	1.385767	0.717784	0.714379
H185	H	0.862235	-0.296667	-0.054205
H186	H	1.362235	0.203333	0.445795
H187	H	0.861983	-0.297230	0.054426
H188	H	1.361983	0.202770	0.554426
H189	H	0.402551	0.227152	0.078230
H190	H	0.902551	0.727152	0.578230
H191	H	1.102826	-0.471490	-0.075427
H192	H	1.602826	0.028510	0.424573
H193	H	1.100630	-0.471628	0.079281
H194	H	1.600630	0.028372	0.579281
C195	C	0.846640	-0.446821	-0.073574
C196	C	1.346640	0.053179	0.426426
N197	N	0.809405	-0.465689	-0.128816
N198	N	1.309405	0.034311	0.371184
C199	C	0.990753	-0.305916	-0.151589
C200	C	1.490753	0.194084	0.348411
N201	N	0.957189	-0.278152	-0.208580
N202	N	1.457189	0.221848	0.291420
