data_functionalizedCrystal
_audit_creation_method	'MofGen! by Chris Wilmer'
_symmetry_space_group_name_H-M	'P1'
_symmetry_Int_Tables_number	1
_symmetry_cell_setting	triclinic
loop_
_symmetry_equiv_pos_as_xyz
  x,y,z
_cell_length_a	18.050591
_cell_length_b	19.121063
_cell_length_c	18.050582
_cell_angle_alpha	92.414363
_cell_angle_beta	89.978183
_cell_angle_gamma	92.465257
loop_
_atom_site_label
_atom_site_type_symbol
_atom_site_fract_x
_atom_site_fract_y
_atom_site_fract_z
Zn1	Zn	1.122683	-0.279729	-0.432630
Zn2	Zn	1.622683	0.220271	0.067370
Zn3	Zn	1.117295	-0.397174	-0.313729
Zn4	Zn	1.617295	0.102826	0.186271
Zn5	Zn	0.998500	-0.279733	-0.308441
Zn6	Zn	1.498500	0.220267	0.191559
Zn7	Zn	0.993155	-0.397136	-0.437863
Zn8	Zn	1.493155	0.102864	0.062137
O9	O	1.057909	-0.338443	-0.373165
O10	O	1.557909	0.161557	0.126835
O11	O	1.225892	-0.295323	-0.416880
O12	O	1.725892	0.204677	0.083120
O13	O	1.101519	-0.381613	-0.209104
O14	O	1.601519	0.118387	0.290896
O15	O	1.019465	-0.181448	-0.320512
O16	O	1.519465	0.318552	0.179488
O17	O	1.221934	-0.381609	-0.329524
O18	O	1.721934	0.118391	0.170476
O19	O	1.110702	-0.181445	-0.411752
O20	O	1.610702	0.318555	0.088248
O21	O	1.014241	-0.295330	-0.205218
O22	O	1.514241	0.204670	0.294782
O23	O	0.893867	-0.295292	-0.325586
O24	O	1.393867	0.204708	0.174414
O25	O	1.010356	-0.381543	-0.541092
O26	O	1.510356	0.118457	-0.041092
O27	O	0.889940	-0.381548	-0.420672
O28	O	1.389940	0.118452	0.079328
O29	O	1.105519	-0.295285	-0.537248
O30	O	1.605519	0.204715	-0.037248
O31	O	1.096336	-0.495454	-0.334599
O32	O	1.596336	0.004546	0.165401
O33	O	1.005131	-0.495425	-0.425799
O34	O	1.505131	0.004575	0.074201
C35	C	0.864958	-0.338417	-0.373123
C36	C	1.364958	0.161583	0.126877
C37	C	0.782412	-0.338422	-0.373124
C38	C	1.282412	0.161578	0.126876
C39	C	1.049589	-0.520924	-0.381357
C40	C	1.549589	-0.020924	0.118643
C41	C	1.046098	-0.598990	-0.384886
C42	C	1.546098	-0.098990	0.115114
C43	C	0.585077	-0.291463	-0.321528
C44	C	1.085077	0.208537	0.178472
C45	C	0.532768	-0.355523	-0.306137
C46	C	1.032768	0.144477	0.193863
C47	C	0.631280	-0.338444	-0.373158
C48	C	1.131280	0.161556	0.126842
C49	C	0.536507	-0.274406	-0.388548
C50	C	1.036507	0.225594	0.111452
C51	C	0.485294	-0.338459	-0.373190
C52	C	0.985294	0.161541	0.126810
C53	C	0.580057	-0.402538	-0.357733
C54	C	1.080057	0.097462	0.142267
C55	C	0.583802	-0.321378	-0.440174
C56	C	1.083802	0.178622	0.059826
C57	C	0.531513	-0.385482	-0.424811
C58	C	1.031513	0.114518	0.075189
C59	C	0.715379	-0.338434	-0.373138
C60	C	1.215379	0.161566	0.126862
C61	C	0.401197	-0.338475	-0.373210
C62	C	0.901197	0.161525	0.126790
C63	C	1.091980	-0.635657	-0.339100
C64	C	1.591980	-0.135657	0.160900
C65	C	1.088701	-0.709008	-0.342423
C66	C	1.588701	-0.209008	0.157577
C67	C	1.039535	-0.745691	-0.391530
C68	C	1.539535	-0.245691	0.108470
C69	C	0.993651	-0.709019	-0.437321
C70	C	1.493651	-0.209019	0.062679
C71	C	0.996935	-0.635669	-0.434000
C72	C	1.496935	-0.135669	0.066000
C73	C	1.027248	-0.967161	-0.403932
C74	C	1.527248	-0.467161	0.096068
C75	C	1.023966	-1.040516	-0.407247
C76	C	1.523966	-0.540516	0.092753
C77	C	1.119017	-1.040501	-0.312350
C78	C	1.619017	-0.540501	0.187650
C79	C	1.122293	-0.967149	-0.309031
C80	C	1.622293	-0.467149	0.190969
C81	C	1.076412	-0.930483	-0.354825
C82	C	1.576412	-0.430483	0.145175
C83	C	1.036181	-0.820668	-0.394926
C84	C	1.536181	-0.320668	0.105074
C85	C	1.079771	-0.855508	-0.351432
C86	C	1.579771	-0.355508	0.148568
C87	C	1.251613	-0.338470	-0.373208
C88	C	1.751613	0.161530	0.126792
C89	C	1.334158	-0.338481	-0.373227
C90	C	1.834158	0.161519	0.126773
C91	C	1.057942	-0.338409	-0.566870
C92	C	1.557942	0.161591	-0.066870
C93	C	1.057956	-0.338395	-0.649415
C94	C	1.557956	0.161605	-0.149415
C95	C	1.066281	-0.155250	-0.364958
C96	C	1.566281	0.344750	0.135042
C97	C	1.069849	-0.077183	-0.361461
C98	C	1.569849	0.422817	0.138539
C99	C	1.006256	-0.385226	-0.900328
C100	C	1.506256	0.114774	-0.400328
C101	C	0.991005	-0.321164	-0.848053
C102	C	1.491005	0.178836	-0.348053
C103	C	1.058024	-0.338292	-0.946531
C104	C	1.558024	0.161708	-0.446531
C105	C	1.073207	-0.402402	-0.851726
C106	C	1.573207	0.097598	-0.351726
C107	C	1.057989	-0.338346	-0.800548
C108	C	1.557989	0.161654	-0.300548
C109	C	1.042740	-0.274195	-0.895342
C110	C	1.542740	0.225805	-0.395342
C111	C	1.124971	-0.355477	-0.899021
C112	C	1.624971	0.144523	-0.399021
C113	C	1.109747	-0.291370	-0.846766
C114	C	1.609747	0.208630	-0.346766
C115	C	1.058042	-0.338262	-1.030628
C116	C	1.558042	0.161738	-0.530628
C117	C	1.057971	-0.338369	-0.716452
C118	C	1.557971	0.161631	-0.216452
C119	C	1.057920	-0.338426	-0.180213
C120	C	1.557920	0.161574	0.319787
C121	C	1.058059	-0.338242	-0.097659
C122	C	1.558059	0.161758	0.402341
H123	H	0.510378	-0.369969	-0.249476
H124	H	1.010378	0.130031	0.250524
H125	H	0.983939	-1.070382	-0.447248
H126	H	1.483939	-0.570382	0.052752
C127	C	0.605461	-0.474784	-0.340180
C128	C	1.105461	0.025216	0.159820
C129	C	0.578955	-0.492604	-0.270245
C130	C	1.078955	0.007396	0.229755
C131	C	0.602336	-0.559153	-0.254053
C132	C	1.102336	-0.059153	0.245947
H133	H	0.658100	-0.474413	-0.340196
H134	H	1.158100	0.025587	0.159804
H135	H	0.586648	-0.508215	-0.376618
H136	H	1.086648	-0.008215	0.123382
H137	H	0.597772	-0.459182	-0.233817
H138	H	1.097772	0.040818	0.266183
H139	H	0.526318	-0.492991	-0.270212
H140	H	1.026318	0.007009	0.229788
H141	H	0.583523	-0.592584	-0.290491
H142	H	1.083523	-0.092584	0.209509
H143	H	0.654975	-0.558776	-0.254072
H144	H	1.154975	-0.058776	0.245928
H145	H	0.584350	-0.571255	-0.206604
H146	H	1.084350	-0.071255	0.293396
H147	H	0.508198	-0.425265	-0.468489
H148	H	1.008198	0.074735	0.031511
H149	H	0.517242	-0.220251	-0.401527
H150	H	1.017242	0.279749	0.098473
C151	C	0.982913	-0.860589	-0.448282
C152	C	1.482913	-0.360589	0.051718
C153	C	1.023050	-0.902655	-0.497815
C154	C	1.523050	-0.402655	0.002185
C155	C	0.974006	-0.939450	-0.546971
C156	C	1.474006	-0.439450	-0.046971
H157	H	0.956029	-0.828331	-0.475151
H158	H	1.456029	-0.328331	0.024849
H159	H	0.949307	-0.889284	-0.421153
H160	H	1.449307	-0.389284	0.078847
H161	H	1.056643	-0.873962	-0.524942
H162	H	1.556643	-0.373962	-0.024942
H163	H	1.049932	-0.934926	-0.470967
H164	H	1.549932	-0.434926	0.029033
H165	H	0.940400	-0.968145	-0.519841
H166	H	1.440400	-0.468145	-0.019841
H167	H	0.947125	-0.907187	-0.573834
H168	H	1.447125	-0.407187	-0.073834
H169	H	1.001231	-0.968001	-0.580580
H170	H	1.501231	-0.468001	-0.080580
H171	H	0.606210	-0.306912	-0.496816
H172	H	1.106210	0.193088	0.003184
H173	H	1.126063	-0.738859	-0.305139
H174	H	1.626063	-0.238859	0.194861
C175	C	1.145435	-0.595960	-0.285759
C176	C	1.645435	-0.095960	0.214241
C177	C	1.184928	-0.643775	-0.246387
C178	C	1.684928	-0.143775	0.253613
C179	C	1.234186	-0.607234	-0.197250
C180	C	1.734186	-0.107234	0.302750
H181	H	1.118409	-0.567383	-0.252012
H182	H	1.618409	-0.067383	0.247988
H183	H	1.179097	-0.567321	-0.312887
H184	H	1.679097	-0.067321	0.187113
H185	H	1.151270	-0.672402	-0.219261
H186	H	1.651270	-0.172402	0.280739
H187	H	1.211969	-0.672353	-0.280115
H188	H	1.711969	-0.172353	0.219885
H189	H	1.267849	-0.578595	-0.224378
H190	H	1.767849	-0.078595	0.275622
H191	H	1.207154	-0.578658	-0.163508
H192	H	1.707154	-0.078658	0.336492
H193	H	1.260993	-0.639670	-0.170536
H194	H	1.760993	-0.139670	0.329464
H195	H	1.162328	-0.937283	-0.269045
H196	H	1.662328	-0.437283	0.230955
C197	C	1.168806	-1.080437	-0.262732
C198	C	1.668806	-0.580437	0.237268
C199	C	1.155428	-1.152525	-0.276164
C200	C	1.655428	-0.652525	0.223836
C201	C	1.201293	-1.189335	-0.230479
C202	C	1.701293	-0.689335	0.269521
H203	H	1.158557	-1.068540	-0.212252
H204	H	1.658557	-0.568540	0.287748
H205	H	1.219249	-1.068410	-0.273124
H206	H	1.719249	-0.568410	0.226876
H207	H	1.104996	-1.164546	-0.265767
H208	H	1.604996	-0.664546	0.234233
H209	H	1.165681	-1.164442	-0.326635
H210	H	1.665681	-0.664442	0.173365
H211	H	1.251736	-1.177308	-0.240870
H212	H	1.751736	-0.677308	0.259130
H213	H	1.191041	-1.177432	-0.180001
H214	H	1.691041	-0.677432	0.319999
H215	H	1.192227	-1.238250	-0.239591
H216	H	1.692227	-0.738250	0.260409
H217	H	1.029819	-0.219985	-0.914504
H218	H	1.529819	0.280015	-0.414504
C219	C	0.940387	-0.748935	-0.490684
C220	C	1.440387	-0.248935	0.009316
C221	C	0.980521	-0.791003	-0.540217
C222	C	1.480521	-0.291003	-0.040217
C223	C	0.931476	-0.827789	-0.589378
C224	C	1.431476	-0.327789	-0.089378
H225	H	0.913511	-0.716671	-0.517553
H226	H	1.413511	-0.216671	-0.017553
H227	H	0.906774	-0.777627	-0.463559
H228	H	1.406774	-0.277627	0.036441
H229	H	1.014121	-0.762313	-0.567339
H230	H	1.514121	-0.262313	-0.067339
H231	H	1.007396	-0.823279	-0.513369
H232	H	1.507396	-0.323279	-0.013369
H233	H	0.897864	-0.856481	-0.562253
H234	H	1.397864	-0.356481	-0.062253
H235	H	0.904603	-0.795521	-0.616241
H236	H	1.404603	-0.295521	-0.116241
H237	H	0.958700	-0.856342	-0.622987
H238	H	1.458700	-0.356342	-0.122987
H239	H	0.989888	-0.937314	-0.441217
H240	H	1.489888	-0.437314	0.058783
H241	H	0.934375	-0.306647	-0.825690
H242	H	1.434375	0.193353	-0.325690
H243	H	0.959573	-0.605815	-0.471285
H244	H	1.459573	-0.105815	0.028715
C245	C	1.133222	-0.815810	-0.298092
C246	C	1.633222	-0.315810	0.201908
C247	C	1.172716	-0.863617	-0.258710
C248	C	1.672716	-0.363617	0.241290
C249	C	1.221965	-0.827066	-0.209571
C250	C	1.721965	-0.327066	0.290429
H251	H	1.106189	-0.787233	-0.264351
H252	H	1.606189	-0.287233	0.235649
H253	H	1.166885	-0.787171	-0.325220
H254	H	1.666885	-0.287171	0.174780
H255	H	1.139057	-0.892244	-0.231584
H256	H	1.639057	-0.392244	0.268416
H257	H	1.199764	-0.892196	-0.292431
H258	H	1.699764	-0.392196	0.207569
H259	H	1.255628	-0.798427	-0.236698
H260	H	1.755628	-0.298427	0.263302
H261	H	1.194926	-0.798490	-0.175835
H262	H	1.694926	-0.298490	0.324165
H263	H	1.248772	-0.859498	-0.182849
H264	H	1.748772	-0.359498	0.317151
C265	C	0.947754	-0.437959	-0.931555
C266	C	1.447754	0.062041	-0.431555
C267	C	0.877758	-0.419662	-0.905702
C268	C	1.377758	0.080338	-0.405702
C269	C	0.823847	-0.468214	-0.934462
C270	C	1.323847	0.031786	-0.434462
H271	H	0.957984	-0.483394	-0.915983
H272	H	1.457984	0.016606	-0.415983
H273	H	0.948427	-0.437860	-0.984180
H274	H	1.448427	0.062140	-0.484180
H275	H	0.877087	-0.419769	-0.853089
H276	H	1.377087	0.080231	-0.353089
H277	H	0.867505	-0.374235	-0.921273
H278	H	1.367505	0.125765	-0.421273
H279	H	0.824520	-0.468114	-0.987086
H280	H	1.324520	0.031886	-0.487086
H281	H	0.834084	-0.513646	-0.918887
H282	H	1.334084	-0.013646	-0.418887
H283	H	0.776348	-0.455803	-0.916930
H284	H	1.276348	0.044197	-0.416930
H285	H	1.153513	-0.251657	-0.823453
H286	H	1.653513	0.248343	-0.323453
C287	C	1.200424	-0.375000	-0.928836
C288	C	1.700424	0.125000	-0.428836
C289	C	1.216050	-0.442175	-0.906896
C290	C	1.716050	0.057825	-0.406896
C291	C	1.285546	-0.460195	-0.934358
C292	C	1.785546	0.039805	-0.434358
H293	H	1.237361	-0.342212	-0.909751
H294	H	1.737361	0.157788	-0.409751
H295	H	1.200023	-0.374455	-0.981440
H296	H	1.700023	0.125545	-0.481440
H297	H	1.216457	-0.442714	-0.854303
H298	H	1.716457	0.057286	-0.354303
H299	H	1.179131	-0.474977	-0.925980
H300	H	1.679131	0.025023	-0.425980
H301	H	1.285145	-0.459651	-0.986962
H302	H	1.785145	0.040349	-0.486962
H303	H	1.322477	-0.427403	-0.915271
H304	H	1.822477	0.072597	-0.415271
H305	H	1.296154	-0.505777	-0.919482
H306	H	1.796154	-0.005777	-0.419482
C307	C	1.090254	-0.474725	-0.826162
C308	C	1.590254	0.025275	-0.326162
C309	C	1.035910	-0.523616	-0.853379
C310	C	1.535910	-0.023616	-0.353379
C311	C	1.051589	-0.590250	-0.829857
C312	C	1.551589	-0.090250	-0.329857
H313	H	1.090551	-0.474220	-0.773519
H314	H	1.590551	0.025780	-0.273519
H315	H	1.137457	-0.487271	-0.844400
H316	H	1.637457	0.012729	-0.344400
H317	H	0.988719	-0.511074	-0.835137
H318	H	1.488719	-0.011074	-0.335137
H319	H	1.035604	-0.524143	-0.906019
H320	H	1.535604	-0.024143	-0.406019
H321	H	1.098792	-0.602795	-0.848095
H322	H	1.598792	-0.102795	-0.348095
H323	H	1.051886	-0.589737	-0.777215
H324	H	1.551886	-0.089737	-0.277215
H325	H	1.014723	-0.623431	-0.848326
H326	H	1.514723	-0.123431	-0.348326
H327	H	0.608524	-0.251775	-0.277822
H328	H	1.108524	0.248225	0.222178
