data_functionalizedCrystal
_audit_creation_method	'MofGen! by Chris Wilmer'
_symmetry_space_group_name_H-M	'P1'
_symmetry_Int_Tables_number	1
_symmetry_cell_setting	triclinic
loop_
_symmetry_equiv_pos_as_xyz
  x,y,z
_cell_length_a	21.295417
_cell_length_b	17.077404
_cell_length_c	17.077396
_cell_angle_alpha	90.019501
_cell_angle_beta	89.966808
_cell_angle_gamma	89.969268
loop_
_atom_site_label
_atom_site_type_symbol
_atom_site_fract_x
_atom_site_fract_y
_atom_site_fract_z
Zn1	Zn	-0.250605	-1.200013	-0.443817
Zn2	Zn	0.249395	-0.700013	0.056183
Zn3	Zn	-0.355878	-1.199903	-0.312540
Zn4	Zn	0.144122	-0.699903	0.187460
Zn5	Zn	-0.250628	-1.068745	-0.312565
Zn6	Zn	0.249372	-0.568745	0.187435
Zn7	Zn	-0.355841	-1.068695	-0.443764
Zn8	Zn	0.144159	-0.568695	0.056236
O9	O	-0.303238	-1.134339	-0.378171
O10	O	0.196762	-0.634339	0.121829
O11	O	-0.264577	-1.309845	-0.426415
O12	O	0.235423	-0.809845	0.073585
O13	O	-0.341942	-1.182479	-0.202697
O14	O	0.158058	-0.682479	0.297303
O15	O	-0.162535	-1.086225	-0.330008
O16	O	0.337465	-0.586225	0.169992
O17	O	-0.341920	-1.309764	-0.329966
O18	O	0.158080	-0.809764	0.170034
O19	O	-0.162519	-1.182667	-0.426439
O20	O	0.337481	-0.682667	0.073561
O21	O	-0.264614	-1.086118	-0.202715
O22	O	0.235386	-0.586118	0.297285
O23	O	-0.264578	-0.958891	-0.329957
O24	O	0.235422	-0.458891	0.170043
O25	O	-0.341857	-1.086140	-0.553618
O26	O	0.158143	-0.586140	-0.053618
O27	O	-0.341878	-0.958855	-0.426348
O28	O	0.158122	-0.458855	0.073652
O29	O	-0.264540	-1.182619	-0.553657
O30	O	0.235460	-0.682619	-0.053657
O31	O	-0.443963	-1.182431	-0.329915
O32	O	0.056037	-0.682431	0.170085
O33	O	-0.443935	-1.086033	-0.426324
O34	O	0.056065	-0.586033	0.073676
C35	C	-0.303227	-0.930391	-0.378150
C36	C	0.196773	-0.430391	0.121850
C37	C	-0.303237	-0.843141	-0.378159
C38	C	0.196763	-0.343141	0.121841
C39	C	-0.466790	-1.134236	-0.378128
C40	C	0.033210	-0.634236	0.121872
C41	C	-0.536758	-1.134264	-0.378136
C42	C	-0.036758	-0.634264	0.121864
C43	C	-0.303192	-1.134386	-0.582916
C44	C	0.196808	-0.634386	-0.082916
C45	C	-0.303172	-1.134407	-0.670166
C46	C	0.196828	-0.634407	-0.170166
C47	C	-0.569618	-1.184503	-0.327987
C48	C	-0.069618	-0.684503	0.172013
C49	C	-0.635360	-1.184539	-0.328004
C50	C	-0.135360	-0.684539	0.171996
C51	C	-0.668240	-1.134323	-0.378163
C52	C	-0.168240	-0.634323	0.121837
C53	C	-0.635372	-1.084081	-0.428321
C54	C	-0.135372	-0.584081	0.071679
C55	C	-0.569631	-1.084051	-0.428308
C56	C	-0.069631	-0.584051	0.071692
N57	N	-0.771506	-1.065655	-0.384140
N58	N	-0.271506	-0.565655	0.115860
N59	N	-0.833958	-1.065685	-0.384148
N60	N	-0.333958	-0.565685	0.115852
C61	C	-0.866315	-1.134411	-0.378208
C62	C	-0.366315	-0.634411	0.121792
N63	N	-0.833862	-1.203107	-0.372244
N64	N	-0.333862	-0.703107	0.127756
N65	N	-0.771405	-1.203076	-0.372231
N66	N	-0.271405	-0.703076	0.127769
C67	C	-0.739526	-1.134351	-0.378183
C68	C	-0.239526	-0.634351	0.121817
C69	C	-0.970461	-1.184694	-0.328075
C70	C	-0.470461	-0.684694	0.171925
C71	C	-1.036204	-1.184732	-0.328098
C72	C	-0.536204	-0.684732	0.171902
C73	C	-1.036215	-1.084267	-0.428411
C74	C	-0.536215	-0.584267	0.071589
C75	C	-0.970473	-1.084236	-0.428392
C76	C	-0.470473	-0.584236	0.071608
C77	C	-0.937599	-1.134449	-0.378220
C78	C	-0.437599	-0.634449	0.121780
C79	C	-0.139048	-1.134464	-0.378232
C80	C	0.360952	-0.634464	0.121768
C81	C	-0.069080	-1.134517	-0.378258
C82	C	0.430920	-0.634517	0.121742
C83	C	-0.303250	-1.339083	-0.378194
C84	C	0.196750	-0.839083	0.121806
C85	C	-0.303255	-1.426333	-0.378203
C86	C	0.196745	-0.926333	0.121797
C87	C	-0.343548	-0.802153	-0.428270
C88	C	0.156452	-0.302153	0.071730
C89	C	-0.343549	-0.720172	-0.428282
C90	C	0.156451	-0.220172	0.071718
C91	C	-0.303242	-0.679182	-0.378180
C92	C	0.196758	-0.179182	0.121820
C93	C	-0.262927	-0.720176	-0.328067
C94	C	0.237073	-0.220176	0.171933
C95	C	-0.262923	-0.802155	-0.328059
C96	C	0.237077	-0.302155	0.171941
C97	C	-0.262940	-0.549306	-0.328086
C98	C	0.237060	-0.049306	0.171914
C99	C	-0.262944	-0.467322	-0.328093
C100	C	0.237056	0.032678	0.171907
C101	C	-0.343566	-0.467323	-0.428309
C102	C	0.156434	0.032677	0.071691
C103	C	-0.343562	-0.549302	-0.428301
C104	C	0.156438	-0.049302	0.071699
C105	C	-0.303247	-0.590291	-0.378187
C106	C	0.196753	-0.090291	0.121813
C107	C	-0.262910	-1.184645	-0.711177
C108	C	0.237090	-0.684645	-0.211177
C109	C	-0.262889	-1.184654	-0.793158
C110	C	0.237111	-0.684654	-0.293158
C111	C	-0.303134	-1.134429	-0.834125
C112	C	0.196866	-0.634429	-0.334125
C113	C	-0.343397	-1.084185	-0.793108
C114	C	0.156603	-0.584185	-0.293108
C115	C	-0.343415	-1.084172	-0.711129
C116	C	0.156585	-0.584172	-0.211129
C117	C	-0.343360	-1.084217	-0.963978
C118	C	0.156640	-0.584217	-0.463978
C119	C	-0.343343	-1.084231	-1.045963
C120	C	0.156657	-0.584231	-0.545963
C121	C	-0.262834	-1.184699	-1.046007
C122	C	0.237166	-0.684699	-0.546007
C123	C	-0.262851	-1.184686	-0.964028
C124	C	0.237149	-0.684686	-0.464028
C125	C	-0.303116	-1.134443	-0.923016
C126	C	0.196884	-0.634443	-0.423016
C127	C	-0.303239	-1.134337	-0.174224
C128	C	0.196761	-0.634337	0.325776
C129	C	-0.303081	-1.134469	-0.086974
C130	C	0.196919	-0.634469	0.413026
H131	H	-0.662120	-1.225453	-0.287167
H132	H	-0.162120	-0.725453	0.212833
H133	H	-0.662147	-1.043196	-0.469162
H134	H	-0.162147	-0.543196	0.030838
H135	H	-0.542876	-1.043140	-0.469146
H136	H	-0.042876	-0.543140	0.030854
H137	H	-1.062985	-1.043384	-0.469255
H138	H	-0.562985	-0.543384	0.030745
O139	O	-0.938620	-1.233545	-0.279319
O140	O	-0.438620	-0.733545	0.220681
C141	C	-0.945547	-1.333156	-0.179788
C142	C	-0.445547	-0.833156	0.320212
C143	C	-0.981681	-1.277888	-0.234978
C144	C	-0.481681	-0.777888	0.265022
H145	H	-0.980345	-1.369010	-0.143912
H146	H	-0.480345	-0.869010	0.356088
H147	H	-0.914730	-1.374218	-0.215816
H148	H	-0.414730	-0.874218	0.284184
H149	H	-0.914806	-1.297109	-0.138736
H150	H	-0.414806	-0.797109	0.361264
H151	H	-1.012456	-1.313872	-0.276041
H152	H	-0.512456	-0.813872	0.223959
H153	H	-1.012458	-1.236824	-0.198901
H154	H	-0.512458	-0.736824	0.301099
H155	H	-0.376138	-1.043291	-0.930589
H156	H	0.123862	-0.543291	-0.430589
H157	H	-0.230084	-1.225588	-0.930675
H158	H	0.269916	-0.725588	-0.430675
H159	H	-0.376113	-1.043331	-1.079316
H160	H	0.123887	-0.543331	-0.579316
O161	O	-0.938646	-1.035351	-0.477125
O162	O	-0.438646	-0.535351	0.022875
C163	C	-0.945597	-0.935738	-0.576651
C164	C	-0.445597	-0.435738	-0.076651
C165	C	-0.981718	-0.991048	-0.521484
C166	C	-0.481718	-0.491048	-0.021484
H167	H	-0.980404	-0.899917	-0.612542
H168	H	-0.480404	-0.399917	-0.112542
H169	H	-0.914888	-0.894649	-0.540602
H170	H	-0.414888	-0.394649	-0.040602
H171	H	-0.914749	-0.971750	-0.617689
H172	H	-0.414749	-0.471750	-0.117689
H173	H	-1.012599	-0.955100	-0.480435
H174	H	-0.512599	-0.455100	0.019565
H175	H	-1.012387	-1.032140	-0.557582
H176	H	-0.512387	-0.532140	-0.057582
H177	H	-1.062958	-1.225648	-0.287263
H178	H	-0.562958	-0.725648	0.212737
O179	O	-0.223738	-0.427429	-0.279551
O180	O	0.276262	0.072571	0.220449
C181	C	-0.138689	-0.334988	-0.269261
C182	C	0.361311	0.165012	0.230739
C183	C	-0.183074	-0.380095	-0.324313
C184	C	0.316926	0.119905	0.175687
H185	H	-0.105792	-0.296720	-0.305429
H186	H	0.394208	0.203280	0.194571
H187	H	-0.167486	-0.296508	-0.228145
H188	H	0.332514	0.203492	0.271855
H189	H	-0.109900	-0.378394	-0.233446
H190	H	0.390100	0.121606	0.266554
H191	H	-0.211872	-0.336746	-0.360179
H192	H	0.288128	0.163254	0.139821
H193	H	-0.154240	-0.418587	-0.365377
H194	H	0.345760	0.081413	0.134623
H195	H	-0.376372	-0.835521	-0.469066
H196	H	0.123628	-0.335521	0.030934
H197	H	-0.376194	-1.043255	-0.677738
H198	H	0.123806	-0.543255	-0.177738
O199	O	-0.223628	-1.233464	-1.085751
O200	O	0.276372	-0.733464	-0.585751
C201	C	-0.116543	-1.271627	-1.110900
C202	C	0.383457	-0.771627	-0.610900
C203	C	-0.160870	-1.216363	-1.065827
C204	C	0.339130	-0.716363	-0.565827
H205	H	-0.065794	-1.257809	-1.094821
H206	H	0.434206	-0.757809	-0.594821
H207	H	-0.127556	-1.334924	-1.094773
H208	H	0.372444	-0.834924	-0.594773
H209	H	-0.123468	-1.263025	-1.176527
H210	H	0.376532	-0.763025	-0.676527
H211	H	-0.153970	-1.224895	-1.000190
H212	H	0.346030	-0.724895	-0.500190
H213	H	-0.149846	-1.153087	-1.082019
H214	H	0.350154	-0.653087	-0.582019
H215	H	-0.230106	-0.582677	-0.287285
H216	H	0.269894	-0.082677	0.212715
O217	O	-0.223855	-0.842062	-0.279341
O218	O	0.276145	-0.342062	0.220659
C219	C	-0.215276	-0.934546	-0.173343
C220	C	0.284724	-0.434546	0.326657
C221	C	-0.259594	-0.889414	-0.228477
C222	C	0.240406	-0.389414	0.271523
H223	H	-0.244154	-0.972828	-0.132195
H224	H	0.255846	-0.472828	0.367805
H225	H	-0.182407	-0.973014	-0.209414
H226	H	0.317593	-0.473014	0.290586
H227	H	-0.186454	-0.891156	-0.137569
H228	H	0.313546	-0.391156	0.362431
H229	H	-0.288457	-0.932748	-0.264264
H230	H	0.211543	-0.432748	0.235736
H231	H	-0.292422	-0.850935	-0.192362
H232	H	0.207578	-0.350935	0.307638
H233	H	-0.376163	-1.043288	-0.826470
H234	H	0.123837	-0.543288	-0.326470
H235	H	-0.376375	-0.686803	-0.469086
H236	H	0.123625	-0.186803	0.030914
H237	H	-0.376386	-0.582674	-0.469094
H238	H	0.123614	-0.082674	0.030906
H239	H	-0.376389	-0.433946	-0.469116
H240	H	0.123611	0.066054	0.030884
O241	O	-0.223861	-0.680323	-0.279317
O242	O	0.276139	-0.180323	0.220683
C243	C	-0.215283	-0.587686	-0.173401
C244	C	0.284717	-0.087686	0.326599
C245	C	-0.259597	-0.632782	-0.228549
C246	C	0.240403	-0.132782	0.271451
H247	H	-0.244158	-0.549225	-0.132352
H248	H	0.255842	-0.049225	0.367648
H249	H	-0.186479	-0.631028	-0.137527
H250	H	0.313521	-0.131028	0.362473
H251	H	-0.182397	-0.549375	-0.209541
H252	H	0.317603	-0.049375	0.290459
H253	H	-0.292522	-0.671094	-0.192470
H254	H	0.207478	-0.171094	0.307530
H255	H	-0.288358	-0.589398	-0.264426
H256	H	0.211642	-0.089398	0.235574
H257	H	-0.542854	-1.225390	-0.287136
H258	H	-0.042854	-0.725390	0.212864
H259	H	-0.230140	-1.225547	-0.677828
H260	H	0.269860	-0.725547	-0.177828
H261	H	-0.230105	-1.225565	-0.826546
H262	H	0.269895	-0.725565	-0.326546
