data_functionalizedCrystal
_audit_creation_method	'MofGen! by Chris Wilmer'
_symmetry_space_group_name_H-M	'P1'
_symmetry_Int_Tables_number	1
_symmetry_cell_setting	triclinic
loop_
_symmetry_equiv_pos_as_xyz
  x,y,z
_cell_length_a	16.959455
_cell_length_b	16.959454
_cell_length_c	16.959447
_cell_angle_alpha	89.977515
_cell_angle_beta	90.014322
_cell_angle_gamma	90.000689
loop_
_atom_site_label
_atom_site_type_symbol
_atom_site_fract_x
_atom_site_fract_y
_atom_site_fract_z
Zn1	Zn	-1.208481	-0.314730	-0.446952
Zn2	Zn	-0.708481	0.185270	0.053048
Zn3	Zn	-1.208444	-0.446923	-0.314791
Zn4	Zn	-0.708444	0.053077	0.185209
Zn5	Zn	-1.076310	-0.314755	-0.314789
Zn6	Zn	-0.576310	0.185245	0.185211
Zn7	Zn	-1.076315	-0.446864	-0.446930
Zn8	Zn	-0.576315	0.053136	0.053070
O9	O	-1.142388	-0.380818	-0.380866
O10	O	-0.642388	0.119182	0.119134
O11	O	-1.319087	-0.332280	-0.429430
O12	O	-0.819087	0.167720	0.070570
O13	O	-1.190899	-0.429425	-0.204180
O14	O	-0.690899	0.070575	0.295820
O15	O	-1.093855	-0.204141	-0.332329
O16	O	-0.593855	0.295859	0.167671
O17	O	-1.319060	-0.429401	-0.332333
O18	O	-0.819060	0.070599	0.167667
O19	O	-1.190961	-0.204123	-0.429428
O20	O	-0.690961	0.295877	0.070572
O21	O	-1.093820	-0.332323	-0.204179
O22	O	-0.593820	0.167677	0.295821
O23	O	-0.965699	-0.332265	-0.332308
O24	O	-0.465699	0.167735	0.167692
O25	O	-1.093865	-0.429301	-0.557544
O26	O	-0.593865	0.070699	-0.057544
O27	O	-0.965703	-0.429325	-0.429391
O28	O	-0.465703	0.070675	0.070609
O29	O	-1.190967	-0.332223	-0.557560
O30	O	-0.690967	0.167777	-0.057560
O31	O	-1.190904	-0.557526	-0.332311
O32	O	-0.690904	-0.057526	0.167689
O33	O	-1.093829	-0.557482	-0.429393
O34	O	-0.593829	-0.057482	0.070607
C35	C	-0.937021	-0.380792	-0.380847
C36	C	-0.437021	0.119208	0.119153
C37	C	-0.849165	-0.380800	-0.380858
C38	C	-0.349165	0.119200	0.119142
C39	C	-1.142385	-0.586184	-0.380867
C40	C	-0.642385	-0.086184	0.119133
C41	C	-1.142456	-0.674041	-0.380895
C42	C	-0.642456	-0.174041	0.119105
C43	C	-1.142420	-0.380753	-0.587034
C44	C	-0.642420	0.119247	-0.087034
C45	C	-1.142434	-0.380725	-0.674890
C46	C	-0.642434	0.119275	-0.174890
C47	C	-1.348556	-0.380845	-0.380884
C48	C	-0.848556	0.119155	0.119116
C49	C	-1.436412	-0.380856	-0.380892
C50	C	-0.936412	0.119144	0.119108
C51	C	-0.477663	-0.330238	-0.330420
C52	C	0.022337	0.169762	0.169580
C53	C	-0.477716	-0.431463	-0.431356
C54	C	0.022284	0.068537	0.068644
C55	C	-0.560261	-0.431452	-0.431352
C56	C	-0.060261	0.068548	0.068648
C57	C	-0.601512	-0.380834	-0.380879
C58	C	-0.101512	0.119166	0.119121
C59	C	-0.560216	-0.330226	-0.330412
C60	C	-0.060216	0.169774	0.169588
C61	C	-0.601563	-0.482064	-0.481812
C62	C	-0.101563	0.017936	0.018188
C63	C	-0.684114	-0.482055	-0.481809
C64	C	-0.184114	0.017945	0.018191
C65	C	-0.725366	-0.431432	-0.431340
C66	C	-0.225366	0.068568	0.068660
C67	C	-0.684065	-0.380822	-0.380871
C68	C	-0.184065	0.119178	0.119129
C69	C	-0.725315	-0.330204	-0.330399
C70	C	-0.225315	0.169796	0.169601
C71	C	-0.684016	-0.279589	-0.279933
C72	C	-0.184016	0.220411	0.220067
C73	C	-0.601468	-0.279603	-0.279943
C74	C	-0.101468	0.220397	0.220057
C75	C	-0.807914	-0.431418	-0.431331
C76	C	-0.307914	0.068582	0.068669
C77	C	-0.807869	-0.330193	-0.330391
C78	C	-0.307869	0.169807	0.169609
C79	C	-1.142412	-0.174650	-0.380881
C80	C	-0.642412	0.325350	0.119119
C81	C	-1.142422	-0.086793	-0.380888
C82	C	-0.642422	0.413207	0.119112
C83	C	-1.091886	-0.045495	-0.431438
C84	C	-0.591886	0.454505	0.068562
C85	C	-1.192964	-0.045538	-0.330339
C86	C	-0.692964	0.454462	0.169661
C87	C	-1.192973	0.037008	-0.330341
C88	C	-0.692973	0.537008	0.169659
C89	C	-1.142436	0.078306	-0.380890
C90	C	-0.642436	0.578306	0.119110
C91	C	-1.091891	0.037059	-0.431439
C92	C	-0.591891	0.537059	0.068561
C93	C	-1.243511	0.078262	-0.279787
C94	C	-0.743511	0.578262	0.220213
C95	C	-1.243521	0.160813	-0.279786
C96	C	-0.743521	0.660813	0.220214
C97	C	-1.192988	0.202113	-0.330341
C98	C	-0.692988	0.702113	0.169659
C99	C	-1.142442	0.160860	-0.380892
C100	C	-0.642442	0.660860	0.119108
C101	C	-1.091905	0.202158	-0.431442
C102	C	-0.591905	0.702158	0.068558
C103	C	-1.041362	0.160907	-0.481997
C104	C	-0.541362	0.660907	0.018003
C105	C	-1.041358	0.078358	-0.481993
C106	C	-0.541358	0.578358	0.018007
C107	C	-1.192992	0.284661	-0.330345
C108	C	-0.692992	0.784661	0.169655
C109	C	-1.091911	0.284712	-0.431443
C110	C	-0.591911	0.784712	0.068557
C111	C	-1.091972	-0.431185	-1.046360
C112	C	-0.591972	0.068815	-0.546360
C113	C	-1.193085	-0.330097	-1.046372
C114	C	-0.693085	0.169903	-0.546372
C115	C	-1.193064	-0.330114	-0.963826
C116	C	-0.693064	0.169886	-0.463826
C117	C	-1.142497	-0.380668	-0.922544
C118	C	-0.642497	0.119332	-0.422544
C119	C	-1.091951	-0.431205	-0.963807
C120	C	-0.591951	0.068795	-0.463807
C121	C	-1.243615	-0.279584	-0.922557
C122	C	-0.743615	0.220416	-0.422557
C123	C	-1.243597	-0.279599	-0.840006
C124	C	-0.743597	0.220401	-0.340006
C125	C	-1.193025	-0.330149	-0.798722
C126	C	-0.693025	0.169851	-0.298722
C127	C	-1.142476	-0.380688	-0.839990
C128	C	-0.642476	0.119312	-0.339990
C129	C	-1.091909	-0.431242	-0.798707
C130	C	-0.591909	0.068758	-0.298707
C131	C	-1.041356	-0.481777	-0.839974
C132	C	-0.541356	0.018223	-0.339974
C133	C	-1.041380	-0.481756	-0.922523
C134	C	-0.541380	0.018244	-0.422523
C135	C	-1.193001	-0.330171	-0.716173
C136	C	-0.693001	0.169829	-0.216173
C137	C	-1.091888	-0.431262	-0.716154
C138	C	-0.591888	0.068738	-0.216154
C139	C	-1.142400	-0.380826	-0.175499
C140	C	-0.642400	0.119174	0.324501
C141	C	-1.142539	-0.380631	-0.087643
C142	C	-0.642539	0.119369	0.412357
H143	H	-0.841449	-0.288968	-0.289295
H144	H	-0.341449	0.211032	0.210705
C145	C	-0.729397	-0.223912	-0.224418
C146	C	-0.229397	0.276088	0.275582
H147	H	-0.784474	-0.231156	-0.231646
H148	H	-0.284474	0.268844	0.268354
H149	H	-0.715852	-0.235410	-0.171291
H150	H	-0.215852	0.264590	0.328709
H151	H	-0.715871	-0.170815	-0.236082
H152	H	-0.215871	0.329185	0.263918
H153	H	-1.050811	-0.472327	-1.079963
H154	H	-0.550811	0.027673	-0.579963
H155	H	-1.050761	0.318332	-0.472610
H156	H	-0.550761	0.818332	0.027390
C157	C	-0.853340	-0.487086	-0.486835
C158	C	-0.353340	0.012914	0.013165
H159	H	-0.816950	-0.517233	-0.516897
H160	H	-0.316950	-0.017233	-0.016897
H161	H	-0.885541	-0.521481	-0.456540
H162	H	-0.385541	-0.021481	0.043460
H163	H	-0.885546	-0.456883	-0.521328
H164	H	-0.385546	0.043117	-0.021328
H165	H	-1.284677	0.194395	-0.238622
H166	H	-0.784677	0.694395	0.261378
H167	H	-1.234163	-0.289028	-0.682577
H168	H	-0.734163	0.210972	-0.182577
H169	H	-1.000188	-0.522941	-0.806351
H170	H	-0.500188	-0.022941	-0.306351
H171	H	-1.050737	-0.079085	-0.472601
H172	H	-0.550737	0.420915	0.027399
H173	H	-1.234104	-0.079168	-0.289179
H174	H	-0.734104	0.420832	0.210821
C175	C	-1.248700	-0.274489	-1.091781
C176	C	-0.748700	0.225511	-0.591781
H177	H	-1.241469	-0.281711	-1.146854
H178	H	-0.741469	0.218289	-0.646854
H179	H	-1.301806	-0.286058	-1.078252
H180	H	-0.801806	0.213942	-0.578252
H181	H	-1.237122	-0.221381	-1.078261
H182	H	-0.737122	0.278619	-0.578261
H183	H	-1.000225	-0.522901	-0.956129
H184	H	-0.500225	-0.022901	-0.456129
H185	H	-1.234140	0.318244	-0.289179
H186	H	-0.734140	0.818244	0.210821
C187	C	-1.299106	0.032835	-0.224199
C188	C	-0.799106	0.532835	0.275801
H189	H	-1.291873	-0.022236	-0.231450
H190	H	-0.791873	0.477764	0.268550
H191	H	-1.287538	0.046333	-0.171085
H192	H	-0.787538	0.546333	0.328915
H193	H	-1.352218	0.046370	-0.235782
H194	H	-0.852218	0.546370	0.264218
H195	H	-0.567835	-0.238397	-0.238856
H196	H	-0.067835	0.261603	0.261144
C197	C	-0.432239	-0.274568	-0.274910
C198	C	0.067761	0.225432	0.225090
H199	H	-0.377167	-0.281824	-0.282137
H200	H	0.122833	0.218176	0.217863
H201	H	-0.445767	-0.221473	-0.286560
H202	H	0.054233	0.278527	0.213440
H203	H	-0.445750	-0.286077	-0.221779
H204	H	0.054250	0.213923	0.278221
H205	H	-1.000208	0.044764	-0.523152
H206	H	-0.500208	0.544764	-0.023152
H207	H	-1.284789	-0.238430	-0.956175
H208	H	-0.784789	0.261570	-0.456175
H209	H	-1.050703	-0.472422	-0.682547
H210	H	-0.550703	0.027578	-0.182547
H211	H	-1.284760	-0.238450	-0.806413
H212	H	-0.784760	0.261550	-0.306413
C213	C	-0.556189	-0.537738	-0.537326
C214	C	-0.056189	-0.037738	-0.037326
H215	H	-0.501111	-0.530488	-0.530109
H216	H	-0.001111	-0.030488	-0.030109
H217	H	-0.569716	-0.590832	-0.525672
H218	H	-0.069716	-0.090832	-0.025672
H219	H	-0.569736	-0.526230	-0.590455
H220	H	-0.069736	-0.026230	-0.090455
C221	C	-0.729536	-0.537720	-0.537325
C222	C	-0.229536	-0.037720	-0.037325
H223	H	-0.693145	-0.567863	-0.567388
H224	H	-0.193145	-0.067863	-0.067388
H225	H	-0.761739	-0.572118	-0.507035
H226	H	-0.261739	-0.072118	-0.007035
H227	H	-0.761740	-0.507512	-0.571815
H228	H	-0.261740	-0.007512	-0.071815
C229	C	-0.985776	0.206340	-0.537599
C230	C	-0.485776	0.706340	-0.037599
H231	H	-0.993024	0.261410	-0.530358
H232	H	-0.493024	0.761410	-0.030358
H233	H	-0.932663	0.192812	-0.526036
H234	H	-0.432663	0.692812	-0.026036
H235	H	-0.997363	0.192838	-0.590712
H236	H	-0.497363	0.692838	-0.090712
C237	C	-0.432343	-0.487138	-0.486871
C238	C	0.067657	0.012862	0.013129
H239	H	-0.377265	-0.479894	-0.479651
H240	H	0.122735	0.020106	0.020349
H241	H	-0.445876	-0.540232	-0.475221
H242	H	0.054124	-0.040232	0.024779
H243	H	-0.445886	-0.475625	-0.540000
H244	H	0.054114	0.024375	-0.040000
