data_functionalizedCrystal
_audit_creation_method	'MofGen! by Chris Wilmer'
_symmetry_space_group_name_H-M	'P1'
_symmetry_Int_Tables_number	1
_symmetry_cell_setting	triclinic
loop_
_symmetry_equiv_pos_as_xyz
  x,y,z
_cell_length_a	19.188930
_cell_length_b	17.000383
_cell_length_c	15.500227
_cell_angle_alpha	92.603108
_cell_angle_beta	87.151281
_cell_angle_gamma	79.372542
loop_
_atom_site_label
_atom_site_type_symbol
_atom_site_fract_x
_atom_site_fract_y
_atom_site_fract_z
O1	O	0.923799	0.095669	-0.072220
O2	O	0.719699	0.109052	-0.072160
O3	O	0.834421	-0.013550	-0.072190
O4	O	0.809077	0.218271	-0.072189
O5	O	0.827461	-0.006139	0.071700
O6	O	0.712739	0.116463	0.071731
O7	O	0.916839	0.103080	0.071671
Cu8	Cu	0.814153	0.110448	0.084839
Cu9	Cu	0.822384	0.101684	-0.085328
O10	O	0.802117	0.225682	0.071701
C11	C	0.690233	0.112324	-0.000207
C12	C	0.612804	0.111025	-0.000184
C13	C	0.832302	-0.039503	-0.000246
C14	C	0.836349	-0.127875	-0.000250
C15	C	0.862485	-0.628184	-0.000261
C16	C	0.858676	-0.545147	-0.000255
C17	C	0.792571	-0.493922	-0.000240
C18	C	0.730270	-0.525736	-0.000222
C19	C	0.734079	-0.608771	-0.000222
C20	C	0.777858	-0.242724	-0.000233
C21	C	0.774053	-0.159685	-0.000235
C22	C	0.902460	-0.179102	-0.000267
C23	C	0.906263	-0.262138	-0.000272
C24	C	0.843962	-0.293944	-0.000250
C25	C	0.788676	-0.409045	-0.000236
C26	C	0.847857	-0.378819	-0.000247
C27	C	0.563657	0.182962	-0.000198
C28	C	0.490906	0.181740	-0.000207
C29	C	0.467305	0.108575	-0.000221
C30	C	0.516462	0.036629	-0.000202
C31	C	0.589211	0.037854	-0.000184
N32	N	0.364978	0.050127	-0.049228
N33	N	0.295869	0.048968	-0.049247
C34	C	0.248116	0.104880	-0.000274
N35	N	0.272082	0.162007	0.048709
N36	N	0.341197	0.163168	0.048724
C37	C	0.388422	0.107239	-0.000240
C38	C	0.120083	0.175497	-0.000296
C39	C	0.047330	0.174272	-0.000300
C40	C	0.072888	0.029158	-0.000304
C41	C	0.145639	0.030386	-0.000291
C42	C	0.169231	0.103557	-0.000291
C43	C	0.946305	0.099807	-0.000284
C44	C	1.023734	0.101107	-0.000312
C45	C	0.804236	0.251635	-0.000245
C46	C	0.800189	0.340007	-0.000246
N47	N	0.808369	0.116612	0.204526
N48	N	0.828174	0.095514	-0.205015
C49	C	0.856996	0.064680	0.249789
C50	C	0.852627	0.069349	0.340363
C51	C	0.799635	0.125953	0.385672
C52	C	0.751004	0.177887	0.340402
C53	C	0.755370	0.173214	0.249829
C54	C	0.783909	0.142775	0.659143
C55	C	0.779548	0.147446	0.749722
C56	C	0.881171	0.038906	0.749677
C57	C	0.885534	0.034241	0.659103
C58	C	0.836901	0.086172	0.613841
C59	C	0.795170	0.130729	0.478253
C60	C	0.841364	0.081392	0.521261
H61	H	0.909404	-0.519253	-0.000266
O62	O	0.892738	0.026344	0.477175
C63	C	0.860860	-0.025377	0.424854
H64	H	0.804932	0.005806	0.411304
H65	H	0.858024	-0.082382	0.459796
C66	C	0.974111	-0.085291	0.355445
C67	C	0.905421	-0.046988	0.338796
H68	H	1.001599	-0.098625	0.302362
H69	H	0.995589	-0.050448	0.390696
H70	H	0.971738	-0.132790	0.384566
H71	H	0.907795	0.000515	0.309686
H72	H	0.883945	-0.081824	0.303537
O73	O	0.928498	-0.011470	0.793604
C74	C	0.997899	0.000111	0.771414
H75	H	0.995531	0.062567	0.746514
H76	H	1.023648	-0.046783	0.718830
C77	C	1.045033	-0.084967	0.882427
C78	C	1.042125	-0.008255	0.851851
H79	H	1.072315	-0.090132	0.932042
H80	H	0.998276	-0.092773	0.897375
H81	H	1.066488	-0.124038	0.838599
H82	H	1.020662	0.030813	0.895675
H83	H	1.088879	-0.000443	0.836912
H84	H	0.960093	-0.303841	-0.000281
O85	O	0.899881	0.019022	0.384432
C86	C	0.937822	0.064245	0.436777
H87	H	0.905524	0.127318	0.450349
H88	H	0.990782	0.067711	0.401845
C89	C	0.991025	-0.053708	0.506144
C90	C	0.951353	0.023758	0.522819
H91	H	0.999375	-0.078683	0.559217
H92	H	0.965466	-0.084177	0.470876
H93	H	1.035154	-0.050809	0.477031
H94	H	0.907222	0.020857	0.551921
H95	H	0.976905	0.054225	0.558094
O96	O	0.443121	0.251609	-0.000073
C97	C	0.396628	0.259079	0.074425
H98	H	0.423262	0.220967	0.126524
H99	H	0.345749	0.237786	0.057561
C100	C	0.345881	0.394296	0.044213
C101	C	0.378596	0.347491	0.108206
H102	H	0.334755	0.448832	0.065050
H103	H	0.377202	0.389263	-0.005979
H104	H	0.303486	0.376542	0.030166
H105	H	0.420995	0.365238	0.122244
H106	H	0.347282	0.352529	0.158401
H107	H	0.497242	-0.022943	-0.000225
H108	H	0.629228	-0.020728	-0.000174
O109	O	0.727999	0.202450	0.793602
C110	C	0.686017	0.247294	0.734232
H111	H	0.690349	0.211329	0.669671
H112	H	0.705509	0.305881	0.724581
C113	C	0.602655	0.309892	0.848921
C114	C	0.607971	0.265716	0.769628
H115	H	0.554513	0.321260	0.870755
H116	H	0.630940	0.279683	0.888920
H117	H	0.618902	0.358710	0.840868
H118	H	0.591732	0.216896	0.777684
H119	H	0.579681	0.295918	0.729630
O120	O	0.736773	0.193259	0.615092
C121	C	0.773679	0.239579	0.562694
H122	H	0.830920	0.207009	0.549087
H123	H	0.773137	0.300199	0.597598
C124	C	0.667099	0.292291	0.493398
C125	C	0.737402	0.252285	0.476680
H126	H	0.644720	0.300132	0.440342
H127	H	0.642233	0.261087	0.528702
H128	H	0.666657	0.342803	0.522487
H129	H	0.737842	0.201770	0.447602
H130	H	0.762267	0.283481	0.441369
H131	H	0.916315	-0.669887	-0.000281
H132	H	0.953182	-0.153196	-0.000292
H133	H	0.676446	-0.484021	-0.000204
H134	H	0.715773	0.215501	0.212977
H135	H	0.053676	-0.030416	-0.000369
H136	H	0.007314	0.232854	-0.000306
H137	H	0.900150	0.018590	0.212905
O138	O	0.717274	-0.273484	-0.000254
C139	C	0.658114	-0.210462	-0.000221
H140	H	0.675543	-0.155524	-0.027471
H141	H	0.634627	-0.195087	0.068815
C142	C	0.580265	-0.304078	-0.023164
C143	C	0.601671	-0.236603	-0.056640
H144	H	0.545446	-0.320203	-0.057962
H145	H	0.620122	-0.346538	-0.023183
H146	H	0.560698	-0.291256	0.034365
H147	H	0.621245	-0.249429	-0.114164
H148	H	0.561816	-0.194146	-0.056632
H149	H	0.720220	-0.117977	-0.000220
O150	O	0.193363	-0.039525	-0.000442
C151	C	0.186977	-0.087807	-0.074959
H152	H	0.162039	-0.048373	-0.127049
H153	H	0.151895	-0.132890	-0.058122
C154	C	0.291706	-0.181352	-0.044759
C155	C	0.261083	-0.132918	-0.108740
H156	H	0.337417	-0.209181	-0.065595
H157	H	0.296008	-0.148825	0.005446
H158	H	0.262464	-0.218914	-0.030734
H159	H	0.290320	-0.095351	-0.122756
H160	H	0.256788	-0.165439	-0.158948
H161	H	0.139292	0.235078	-0.000283
H162	H	0.928685	-0.011851	0.622215
H163	H	0.683351	-0.634667	-0.000203
H164	H	0.901679	-0.420530	-0.000256
O165	O	0.699551	0.232976	0.384314
C166	C	0.707135	0.310612	0.362178
H167	H	0.737230	0.307044	0.296402
H168	H	0.737921	0.337767	0.413131
C169	C	0.596217	0.367937	0.438808
C170	C	0.633174	0.363556	0.358018
H171	H	0.550595	0.400597	0.436246
H172	H	0.591108	0.315632	0.453725
H173	H	0.621879	0.390564	0.481260
H174	H	0.607516	0.340920	0.315570
H175	H	0.638277	0.415858	0.343094
H176	H	0.752024	0.176819	0.515151
H177	H	0.734853	-0.367328	-0.000227
H178	H	0.582861	0.242543	-0.000199
