data_functionalizedCrystal
_audit_creation_method	'MofGen! by Chris Wilmer'
_symmetry_space_group_name_H-M	'P1'
_symmetry_Int_Tables_number	1
_symmetry_cell_setting	triclinic
loop_
_symmetry_equiv_pos_as_xyz
  x,y,z
_cell_length_a	14.044220
_cell_length_b	13.596369
_cell_length_c	14.519709
_cell_angle_alpha	90.006934
_cell_angle_beta	91.565489
_cell_angle_gamma	89.999747
loop_
_atom_site_label
_atom_site_type_symbol
_atom_site_fract_x
_atom_site_fract_y
_atom_site_fract_z
O1	O	1.258085	-0.081691	-0.222370
O2	O	1.591418	0.251642	0.110963
O3	O	1.924751	0.584976	0.444297
O4	O	0.982102	-0.081716	-0.214346
O5	O	1.315435	0.251618	0.118988
O6	O	1.648768	0.584951	0.452321
O7	O	1.127410	-0.081694	-0.084710
O8	O	1.460744	0.251640	0.248624
O9	O	1.794077	0.584973	0.581957
O10	O	1.112776	-0.081713	-0.352006
O11	O	1.446109	0.251620	-0.018673
O12	O	1.779443	0.584954	0.314661
O13	O	1.127396	0.081889	-0.084701
O14	O	1.460729	0.415222	0.248632
O15	O	1.794063	0.748556	0.581966
O16	O	0.982087	0.081867	-0.214337
O17	O	1.315421	0.415201	0.118996
O18	O	1.648754	0.748534	0.452330
O19	O	1.258070	0.081892	-0.222361
O20	O	1.591403	0.415225	0.110972
O21	O	1.924737	0.748559	0.444305
Zn22	Zn	1.120076	0.107852	-0.218348
Zn23	Zn	1.453410	0.441185	0.114986
Zn24	Zn	1.786743	0.774519	0.448319
Zn25	Zn	1.120095	-0.107676	-0.218359
Zn26	Zn	1.453429	0.225658	0.114974
Zn27	Zn	1.786762	0.558991	0.448307
O28	O	1.112761	0.081870	-0.351997
O29	O	1.446095	0.415203	-0.018664
O30	O	1.779428	0.748537	0.314669
C31	C	0.946774	0.000073	-0.210829
C32	C	1.280107	0.333406	0.122504
C33	C	1.613441	0.666739	0.455838
C34	C	0.841531	0.000064	-0.200352
C35	C	1.174864	0.333397	0.132982
C36	C	1.508197	0.666730	0.466315
C37	C	1.126721	0.000098	-0.050290
C38	C	1.460054	0.333431	0.283043
C39	C	1.793388	0.666764	0.616376
C40	C	1.124677	0.000098	0.052256
C41	C	1.458011	0.333431	0.385589
C42	C	1.791344	0.666765	0.718922
N43	N	1.120070	0.254944	-0.218340
N44	N	1.453404	0.588277	0.114993
N45	N	1.786737	0.921610	0.448327
C46	C	0.648837	0.000084	-0.181197
C47	C	0.982170	0.333418	0.152136
C48	C	1.315503	0.666751	0.485469
C49	C	0.591329	0.000083	-0.255505
C50	C	0.924663	0.333417	0.077828
C51	C	1.257996	0.666750	0.411161
C52	C	0.484108	0.000095	-0.244848
C53	C	0.817441	0.333428	0.088486
C54	C	1.150775	0.666762	0.421819
C55	C	0.756068	0.000073	-0.191854
C56	C	1.089402	0.333406	0.141480
C57	C	1.422735	0.666739	0.474813
C58	C	1.293398	0.000101	-0.225878
C59	C	1.626731	0.333435	0.107455
C60	C	1.960064	0.666768	0.440789
C61	C	1.398641	0.000104	-0.236355
C62	C	1.731975	0.333437	0.096978
C63	C	2.065308	0.666771	0.430311
N64	N	1.120109	-0.254767	-0.218360
N65	N	1.453442	0.078566	0.114973
N66	N	1.786776	0.411899	0.448306
C67	C	1.120094	0.656235	-0.218360
C68	C	1.453428	0.989568	0.114973
C69	C	1.786761	1.322901	0.448307
C70	C	1.120085	0.544583	-0.218357
C71	C	1.453418	0.877917	0.114976
C72	C	1.786751	1.211250	0.448309
C73	C	1.120083	0.455593	-0.218351
C74	C	1.453416	0.788926	0.114983
C75	C	1.786749	1.122259	0.448316
C76	C	1.120072	0.343934	-0.218347
C77	C	1.453406	0.677268	0.114987
C78	C	1.786739	1.010601	0.448320
C79	C	1.113451	0.000076	-0.386416
C80	C	1.446784	0.333410	-0.053083
C81	C	1.780117	0.666743	0.280250
C82	C	1.115494	0.000070	-0.488963
C83	C	1.448828	0.333403	-0.155629
C84	C	1.782161	0.666736	0.177704
C85	C	1.117153	0.000072	0.427758
C86	C	1.450487	0.333405	0.761092
C87	C	1.783820	0.666739	1.094425
C88	C	1.119243	0.000079	0.323282
C89	C	1.452576	0.333413	0.656615
C90	C	1.785909	0.666746	0.989949
C91	C	1.120915	0.000086	0.240010
C92	C	1.454248	0.333419	0.573344
C93	C	1.787582	0.666753	0.906677
C94	C	1.123005	0.000092	0.135527
C95	C	1.456338	0.333425	0.468861
C96	C	1.789672	0.666758	0.802194
H97	H	0.617546	0.000095	-0.109582
H98	H	0.950879	0.333428	0.223752
H99	H	1.284213	0.666761	0.557085
H100	H	0.622622	0.000073	-0.327127
H101	H	0.955955	0.333407	0.006206
H102	H	1.289289	0.666740	0.339540
