data_functionalizedCrystal
_audit_creation_method	'MofGen! by Chris Wilmer'
_symmetry_space_group_name_H-M	'P1'
_symmetry_Int_Tables_number	1
_symmetry_cell_setting	triclinic
loop_
_symmetry_equiv_pos_as_xyz
  x,y,z
_cell_length_a	21.295417
_cell_length_b	21.295420
_cell_length_c	13.032268
_cell_angle_alpha	97.161849
_cell_angle_beta	82.859352
_cell_angle_gamma	89.975452
loop_
_atom_site_label
_atom_site_type_symbol
_atom_site_fract_x
_atom_site_fract_y
_atom_site_fract_z
Zn1	Zn	-0.295881	-0.917097	0.590843
Zn2	Zn	0.204119	-0.417097	1.090843
Zn3	Zn	-0.387794	-0.930385	0.416088
Zn4	Zn	0.112206	-0.430385	0.916088
Zn5	Zn	-0.282534	-0.825204	0.416117
Zn6	Zn	0.217466	-0.325204	0.916117
Zn7	Zn	-0.401100	-0.811795	0.590769
Zn8	Zn	0.098900	-0.311795	1.090769
O9	O	-0.341827	-0.871120	0.503454
O10	O	0.158173	-0.371120	1.003454
O11	O	-0.308091	-1.006947	0.567681
O12	O	0.191909	-0.506947	1.067681
O13	O	-0.362676	-0.927606	0.269865
O14	O	0.137324	-0.427606	0.769865
O15	O	-0.196218	-0.837444	0.439339
O16	O	0.303782	-0.337444	0.939339
O17	O	-0.375619	-1.016710	0.439289
O18	O	0.124381	-0.516710	0.939289
O19	O	-0.206025	-0.904957	0.567709
O20	O	0.293975	-0.404957	1.067709
O21	O	-0.285342	-0.850329	0.269886
O22	O	0.214658	-0.350329	0.769886
O23	O	-0.298244	-0.735337	0.439266
O24	O	0.201756	-0.235337	0.939266
O25	O	-0.398297	-0.814590	0.737006
O26	O	0.101703	-0.314590	1.237006
O27	O	-0.385355	-0.725486	0.567581
O28	O	0.114645	-0.225486	1.067581
O29	O	-0.320994	-0.891955	0.737061
O30	O	0.179006	-0.391955	1.237061
O31	O	-0.477645	-0.914604	0.439217
O32	O	0.022355	-0.414604	0.939217
O33	O	-0.487421	-0.827476	0.567553
O34	O	0.012579	-0.327476	1.067553
C35	C	-0.341795	-0.707571	0.503419
C36	C	0.158205	-0.207571	1.003419
C37	C	-0.341799	-0.637602	0.503429
C38	C	0.158201	-0.137602	1.003429
C39	C	-0.505374	-0.871042	0.503397
C40	C	-0.005374	-0.371042	1.003397
C41	C	-0.575343	-0.871064	0.503407
C42	C	-0.075343	-0.371064	1.003407
C43	C	-0.306746	-0.133051	0.570408
C44	C	0.193254	0.366949	1.070408
C45	C	-0.306743	-0.198793	0.570410
C46	C	0.193257	0.301207	1.070410
C47	C	-0.341827	-0.236761	0.503457
C48	C	0.158173	0.263239	1.003457
C49	C	-0.376929	-0.208980	0.436517
C50	C	0.123071	0.291020	0.936517
C51	C	-0.376936	-0.143238	0.436524
C52	C	0.123064	0.356762	0.936524
N53	N	-0.339582	-0.346959	0.411963
N54	N	0.160418	0.153041	0.911963
N55	N	-0.339572	-0.409411	0.411959
N56	N	0.160428	0.090589	0.911959
C57	C	-0.341811	-0.434837	0.503433
C58	C	0.158189	0.065163	1.003433
N59	N	-0.344047	-0.395453	0.594914
N60	N	0.155953	0.104547	1.094914
N61	N	-0.344053	-0.332995	0.594916
N62	N	0.155947	0.167005	1.094916
C63	C	-0.341824	-0.308047	0.503443
C64	C	0.158176	0.191953	1.003443
C65	C	-0.306712	-0.533896	0.570377
C66	C	0.193288	-0.033896	1.070377
C67	C	-0.306714	-0.599639	0.570381
C68	C	0.193286	-0.099639	1.070381
C69	C	-0.376896	-0.609826	0.436479
C70	C	0.123104	-0.109826	0.936479
C71	C	-0.376898	-0.544083	0.436484
C72	C	0.123102	-0.044083	0.936484
C73	C	-0.341802	-0.506122	0.503432
C74	C	0.158198	-0.006122	1.003432
C75	C	-0.603104	-0.916462	0.436650
C76	C	-0.103104	-0.416462	0.936650
C77	C	-0.668848	-0.916489	0.436674
C78	C	-0.168848	-0.416489	0.936674
C79	C	-0.706829	-0.871109	0.503443
C80	C	-0.206829	-0.371109	1.003443
C81	C	-0.679061	-0.825707	0.570212
C82	C	-0.179061	-0.325707	1.070212
C83	C	-0.613318	-0.825684	0.570194
C84	C	-0.113318	-0.325684	1.070194
N85	N	-0.810697	-0.815432	0.511397
N86	N	-0.310697	-0.315432	1.011397
N87	N	-0.873149	-0.815456	0.511408
N88	N	-0.373149	-0.315456	1.011408
C89	C	-0.904908	-0.871175	0.503503
C90	C	-0.404908	-0.371175	1.003503
N91	N	-0.871854	-0.926871	0.495565
N92	N	-0.371854	-0.426871	0.995565
N93	N	-0.809395	-0.926847	0.495549
N94	N	-0.309395	-0.426847	0.995549
C95	C	-0.778116	-0.871128	0.503470
C96	C	-0.278116	-0.371128	1.003470
C97	C	-1.003956	-0.916606	0.436768
C98	C	-0.503956	-0.416606	0.936768
C99	C	-1.069702	-0.916634	0.436799
C100	C	-0.569702	-0.416634	0.936799
C101	C	-1.079913	-0.825847	0.570332
C102	C	-0.579913	-0.325847	1.070332
C103	C	-1.014168	-0.825824	0.570307
C104	C	-0.514168	-0.325824	1.070307
C105	C	-0.976193	-0.871203	0.503519
C106	C	-0.476193	-0.371203	1.003519
C107	C	-0.177643	-0.871214	0.503535
C108	C	0.322357	-0.371214	1.003535
C109	C	-0.107678	-0.871254	0.503570
C110	C	0.392322	-0.371254	1.003570
C111	C	-0.362619	-0.850295	0.776009
C112	C	0.137381	-0.350295	1.276009
C113	C	-0.371479	-0.841420	0.892156
C114	C	0.128521	-0.341420	1.392156
C115	C	-0.341851	-0.035308	0.503482
C116	C	0.158149	0.464692	1.003482
C117	C	-0.341840	-0.105277	0.503472
C118	C	0.158160	0.394723	1.003472
C119	C	-0.321071	-0.891901	0.231960
C120	C	0.178929	-0.391901	0.731960
C121	C	-0.312034	-0.900897	0.115814
C122	C	0.187966	-0.400897	0.615814
C123	C	-0.337180	-0.875742	0.943965
C124	C	0.162820	-0.375742	1.443965
C125	C	-0.346337	-0.866571	1.064008
C126	C	0.153663	-0.366571	1.564008
H127	H	-0.278171	-0.102146	0.624926
H128	H	0.221829	0.397854	1.124926
O129	O	-0.414781	-0.113281	0.364311
O130	O	0.085219	0.386719	0.864311
H131	H	-0.465558	-0.124526	0.382073
H132	H	0.034442	0.375474	0.882073
H133	H	-0.382478	-0.830390	1.108520
H134	H	0.117522	-0.330390	1.608520
O135	O	-0.963001	-0.965565	0.364757
O136	O	-0.463001	-0.465565	0.864757
H137	H	-0.936584	-0.993974	0.411584
H138	H	-0.436584	-0.493974	0.911584
O139	O	-0.268870	-0.492944	0.642592
O140	O	0.231130	0.007056	1.142592
H141	H	-0.244474	-0.523303	0.689152
H142	H	0.255526	-0.023303	1.189152
O143	O	-0.289307	-0.923662	0.885002
O144	O	0.210693	-0.423662	1.385002
H145	H	-0.241481	-0.911309	0.905902
H146	H	0.258519	-0.411309	1.405902
H147	H	-0.278162	-0.221411	0.624916
H148	H	0.221838	0.278589	1.124916
H149	H	-0.275885	-0.937071	1.071304
H150	H	0.224115	-0.437071	1.571304
H151	H	-0.405473	-0.521470	0.381973
H152	H	0.094527	-0.021470	0.881973
O153	O	-0.419351	-0.793497	0.951112
O154	O	0.080649	-0.293497	1.451112
H155	H	-0.467176	-0.805843	0.930201
H156	H	0.032824	-0.305843	1.430201
O157	O	-0.984218	-0.776845	0.642281
O158	O	-0.484218	-0.276845	1.142281
H159	H	-1.021670	-0.745286	0.688704
H160	H	-0.521670	-0.245286	1.188704
H161	H	-0.405497	-0.239897	0.382006
H162	H	0.094503	0.260103	0.882006
O163	O	-0.268855	-0.629600	0.642571
O164	O	0.231145	-0.129600	1.142571
H165	H	-0.244447	-0.592157	0.689112
H166	H	0.255553	-0.092157	1.189112
H167	H	-0.709989	-0.788759	0.624578
H168	H	-0.209989	-0.288759	1.124578
O169	O	-1.099641	-0.965607	0.364793
O170	O	-0.599641	-0.465607	0.864793
H171	H	-1.133118	-0.994052	0.411621
H172	H	-0.633118	-0.494052	0.911621
H173	H	-0.572186	-0.953413	0.382271
H174	H	-0.072186	-0.453413	0.882271
O175	O	-0.414734	-0.650767	0.364256
O176	O	0.085266	-0.150767	0.864256
H177	H	-0.450359	-0.677152	0.410921
H178	H	0.049641	-0.177152	0.910921
O179	O	-0.698802	-0.965451	0.364661
O180	O	-0.198802	-0.465451	0.864661
H181	H	-0.661350	-0.996998	0.318212
H182	H	-0.161350	-0.496998	0.818212
O183	O	-0.583369	-0.776708	0.642179
O184	O	-0.083369	-0.276708	1.142179
H185	H	-0.620821	-0.745150	0.688606
H186	H	-0.120821	-0.245150	1.188606
H187	H	-1.110836	-0.788899	0.624701
H188	H	-0.610836	-0.288899	1.124701
