data_functionalizedCrystal
_audit_creation_method	'MofGen! by Chris Wilmer'
_symmetry_space_group_name_H-M	'P1'
_symmetry_Int_Tables_number	1
_symmetry_cell_setting	triclinic
loop_
_symmetry_equiv_pos_as_xyz
  x,y,z
_cell_length_a	16.120490
_cell_length_b	16.120444
_cell_length_c	11.169417
_cell_angle_alpha	87.114796
_cell_angle_beta	92.899011
_cell_angle_gamma	90.165174
loop_
_atom_site_label
_atom_site_type_symbol
_atom_site_fract_x
_atom_site_fract_y
_atom_site_fract_z
Zn1	Zn	1.254309	-0.395826	0.798891
Zn2	Zn	1.247188	-0.534851	0.607815
Zn3	Zn	1.115291	-0.388746	0.587567
Zn4	Zn	1.108159	-0.527772	0.797800
O5	O	1.181237	-0.461799	0.698018
O6	O	1.369728	-0.420194	0.782475
O7	O	1.229696	-0.515469	0.437179
O8	O	1.139697	-0.273321	0.607582
O9	O	1.364496	-0.522334	0.642092
O10	O	1.241833	-0.278522	0.762841
O11	O	1.132792	-0.408127	0.422303
O12	O	0.997981	-0.401263	0.606524
O13	O	1.127542	-0.510269	0.965894
O14	O	0.992741	-0.503404	0.760981
O15	O	1.234918	-0.413330	0.966696
O16	O	1.222781	-0.650276	0.641034
O17	O	1.120637	-0.645075	0.780615
C18	C	0.965189	-0.450798	0.681438
C19	C	0.872762	-0.446111	0.674375
C20	C	0.659780	-0.486101	0.734658
C21	C	0.703542	-0.437563	0.661478
C22	C	0.797705	-0.442321	0.668656
C23	C	0.565608	-0.481344	0.727481
C24	C	1.170185	-0.677849	0.712931
C25	C	1.165532	-0.770280	0.719357
C26	C	1.205574	-0.983246	0.664958
C27	C	1.157054	-0.939508	0.731103
C28	C	1.161773	-0.845341	0.724565
C29	C	1.200856	-1.077422	0.671494
C30	C	1.398128	-0.472843	0.714664
C31	C	1.490554	-0.477550	0.721757
C32	C	1.181229	-0.461800	1.011060
C33	C	1.181225	-0.461800	1.144460
C34	C	1.192355	-0.244906	0.683075
C35	C	1.197093	-0.152479	0.676707
C36	C	1.181234	-0.461812	1.386194
C37	C	1.181228	-0.461801	1.252793
H38	H	0.693031	-0.531226	0.802693
H39	H	0.670288	-0.392435	0.593436
H40	H	1.250653	-0.949972	0.603423
H41	H	1.111971	-0.972786	0.792640
