data_functionalizedCrystal
_audit_creation_method	'MofGen! by Chris Wilmer'
_symmetry_space_group_name_H-M	'P1'
_symmetry_Int_Tables_number	1
_symmetry_cell_setting	triclinic
loop_
_symmetry_equiv_pos_as_xyz
  x,y,z
_cell_length_a	15.297475
_cell_length_b	16.625546
_cell_length_c	15.298025
_cell_angle_alpha	99.684672
_cell_angle_beta	110.779159
_cell_angle_gamma	80.324704
loop_
_atom_site_label
_atom_site_type_symbol
_atom_site_fract_x
_atom_site_fract_y
_atom_site_fract_z
Zn1	Zn	1.512658	-0.436228	0.771442
Zn2	Zn	2.012658	0.063772	1.271442
Zn3	Zn	1.485650	-0.590899	0.615903
Zn4	Zn	1.985650	-0.090899	1.115903
Zn5	Zn	1.330249	-0.436153	0.589076
Zn6	Zn	1.830249	0.063847	1.089076
Zn7	Zn	1.357098	-0.551082	0.744514
Zn8	Zn	1.857098	-0.051082	1.244514
O9	O	1.421414	-0.503590	0.680234
O10	O	1.921414	-0.003590	1.180234
O11	O	1.639214	-0.473440	0.773306
O12	O	2.139214	0.026560	1.273306
O13	O	1.442497	-0.587004	0.482200
O14	O	1.942497	-0.087004	0.982200
O15	O	1.354512	-0.323334	0.613310
O16	O	1.854512	0.176666	1.113310
O17	O	1.619371	-0.587077	0.659033
O18	O	2.119371	-0.087077	1.159033
O19	O	1.488528	-0.323389	0.747293
O20	O	1.988528	0.176611	1.247293
O21	O	1.328324	-0.473313	0.462490
O22	O	1.828324	0.026687	0.962490
O23	O	1.203672	-0.434703	0.587199
O24	O	1.703672	0.065297	1.087199
O25	O	1.400272	-0.519214	0.878231
O26	O	1.900272	-0.019214	1.378231
O27	O	1.223398	-0.519141	0.701398
O28	O	1.723398	-0.019141	1.201398
O29	O	1.514562	-0.434831	0.898015
O30	O	2.014562	0.065169	1.398015
O31	O	1.468531	-0.698446	0.632921
O32	O	1.968531	-0.198446	1.132921
O33	O	1.374084	-0.669192	0.727411
O34	O	1.874084	-0.169192	1.227411
C35	C	1.179792	-0.472594	0.638466
C36	C	1.679792	0.027406	1.138466
C37	C	1.076428	-0.459350	0.620619
C38	C	1.576428	0.040650	1.120619
C39	C	0.826184	-0.598251	0.807788
C40	C	1.326184	-0.098251	1.307788
C41	C	0.923298	-0.610701	0.824553
C42	C	1.423298	-0.110701	1.324553
C43	C	0.961586	-0.572864	0.773571
C44	C	1.461586	-0.072864	1.273571
C45	C	0.902749	-0.522576	0.705821
C46	C	1.402749	-0.022576	1.205821
C47	C	0.805624	-0.510130	0.689049
C48	C	1.305624	-0.010130	1.189049
C49	C	0.941026	-0.484743	0.654833
C50	C	1.441026	0.015257	1.154833
C51	C	0.882189	-0.434455	0.587083
C52	C	1.382189	0.065545	1.087083
C53	C	0.785074	-0.422011	0.570314
C54	C	1.285074	0.077989	1.070314
C55	C	0.746787	-0.459848	0.621296
C56	C	1.246787	0.040152	1.121296
C57	C	1.038151	-0.497189	0.671605
C58	C	1.538151	0.002811	1.171605
C59	C	1.017591	-0.409068	0.552866
C60	C	1.517591	0.090932	1.052866
C61	C	0.920477	-0.396618	0.536101
C62	C	1.420477	0.103382	1.036101
C63	C	1.421319	-0.713075	0.680180
C64	C	1.921319	-0.213075	1.180180
C65	C	1.421369	-0.802700	0.680202
C66	C	1.921369	-0.302700	1.180202
C67	C	1.421548	-1.130884	0.680327
C68	C	1.921548	-0.630884	1.180327
C69	C	1.421496	-1.039573	0.680295
C70	C	1.921496	-0.539573	1.180295
C71	C	1.421458	-0.966795	0.680264
C72	C	1.921458	-0.466795	1.180264
C73	C	1.421407	-0.875478	0.680233
C74	C	1.921407	-0.375478	1.180233
C75	C	1.663979	-0.534708	0.722166
C76	C	2.163979	-0.034708	1.222166
C77	C	1.767347	-0.547969	0.740034
C78	C	2.267347	-0.047969	1.240034
C79	C	1.463425	-0.472589	0.922811
C80	C	1.963425	0.027411	1.422811
C81	C	1.481327	-0.459378	1.026183
C82	C	1.981327	0.040622	1.526183
C83	C	1.421538	-0.293288	0.680313
C84	C	1.921538	0.206712	1.180313
C85	C	1.421591	-0.203670	0.680347
C86	C	1.921591	0.296330	1.180347
C87	C	1.549243	-0.409236	1.085046
C88	C	2.049243	0.090764	1.585046
C89	C	1.566055	-0.396812	1.182167
C90	C	2.066055	0.103188	1.682167
C91	C	1.514959	-0.434534	1.220437
C92	C	2.014959	0.065466	1.720437
C93	C	1.447047	-0.484682	1.161576
C94	C	1.947047	0.015318	1.661576
C95	C	1.430227	-0.497102	1.064444
C96	C	1.930227	0.002898	1.564444
C97	C	1.395943	-0.522401	1.199835
C98	C	1.895943	-0.022401	1.699835
C99	C	1.328031	-0.572549	1.140974
C100	C	1.828031	-0.072549	1.640974
C101	C	1.311215	-0.584967	1.043851
C102	C	1.811215	-0.084967	1.543851
C103	C	1.362311	-0.547244	1.005581
C104	C	1.862311	-0.047244	1.505581
C105	C	1.412763	-0.509981	1.296968
C106	C	1.912763	-0.009981	1.796968
C107	C	1.293747	-0.597847	1.276366
C108	C	1.793747	-0.097847	1.776366
C109	C	1.276935	-0.610271	1.179244
C110	C	1.776935	-0.110271	1.679244
C111	C	1.379561	-0.534490	1.438599
C112	C	1.879561	-0.034490	1.938599
C113	C	1.361663	-0.547705	1.335228
C114	C	1.861663	-0.047705	1.835228
H115	H	0.872558	-0.355673	0.480938
H116	H	1.372558	0.144327	0.980938
H117	H	1.086047	-0.538133	0.726768
H118	H	1.586047	-0.038133	1.226768
H119	H	1.348629	-0.557359	0.926498
H120	H	1.848629	-0.057359	1.426498
O121	O	1.639299	-0.342728	1.245650
O122	O	2.139299	0.157272	1.745650
H123	H	1.694249	-0.379225	1.298078
H124	H	2.194249	0.120775	1.798078
H125	H	1.040661	-0.583003	0.787226
H126	H	1.540661	-0.083003	1.287226
H127	H	0.971196	-0.651647	0.879713
H128	H	1.471196	-0.151647	1.379713
O129	O	1.604354	-0.368557	1.043773
O130	O	2.104354	0.131443	1.543773
H131	H	1.581252	-0.385624	0.966347
H132	H	2.081252	0.114376	1.466347
H133	H	0.794999	-0.629058	0.849284
H134	H	1.294999	-0.129058	1.349284
O135	O	0.642029	-0.446466	0.603160
O136	O	1.142029	0.053534	1.103160
H137	H	0.625292	-0.481244	0.649976
H138	H	1.125292	0.018756	1.149976
O139	O	1.238628	-0.638540	1.317627
O140	O	1.738628	-0.138540	1.817627
H141	H	1.261739	-0.621486	1.395055
H142	H	1.761739	-0.121486	1.895055
O143	O	1.486004	-0.455898	1.360458
O144	O	1.986004	0.044102	1.860458
H145	H	1.555760	-0.481475	1.354444
H146	H	2.055760	0.018525	1.854444
O147	O	0.721609	-0.367776	0.497240
O148	O	1.221609	0.132224	0.997240
H149	H	0.764546	-0.343550	0.464612
H150	H	1.264546	0.156450	0.964612
H151	H	1.048764	-0.378259	0.511351
H152	H	1.548764	0.121741	1.011351
H153	H	1.528651	-0.424415	1.299519
H154	H	2.028651	0.075585	1.799519
H155	H	1.255914	-0.625798	0.995928
H156	H	1.755914	-0.125798	1.495928
H157	H	1.221639	-0.651101	1.131305
H158	H	1.721639	-0.151101	1.631305
