data_functionalizedCrystal
_audit_creation_method	'MofGen! by Chris Wilmer'
_symmetry_space_group_name_H-M	'P1'
_symmetry_Int_Tables_number	1
_symmetry_cell_setting	triclinic
loop_
_symmetry_equiv_pos_as_xyz
  x,y,z
_cell_length_a	16.992694
_cell_length_b	15.995350
_cell_length_c	16.053802
_cell_angle_alpha	92.567808
_cell_angle_beta	87.249047
_cell_angle_gamma	87.080299
loop_
_atom_site_label
_atom_site_type_symbol
_atom_site_fract_x
_atom_site_fract_y
_atom_site_fract_z
O1	O	1.043694	0.174244	-0.069318
O2	O	1.543694	0.674244	0.430682
O3	O	0.815410	0.172295	-0.069342
O4	O	1.315410	0.672295	0.430658
O5	O	0.935792	0.051799	-0.069329
O6	O	1.435792	0.551799	0.430671
O7	O	0.923312	0.294739	-0.069332
O8	O	1.423312	0.794739	0.430668
O9	O	0.929166	0.058403	0.069530
O10	O	1.429166	0.558403	0.569530
O11	O	0.808784	0.178898	0.069516
O12	O	1.308784	0.678898	0.569516
O13	O	1.037068	0.180847	0.069540
O14	O	1.537068	0.680847	0.569540
Zn15	Zn	0.921874	0.180921	0.091575
Zn16	Zn	1.421874	0.680921	0.591575
Zn17	Zn	0.930604	0.172221	-0.091377
Zn18	Zn	1.430604	0.672221	0.408623
O19	O	0.916685	0.301343	0.069527
O20	O	1.416685	0.801343	0.569527
C21	C	0.782884	0.173091	0.000083
C22	C	1.282884	0.673091	0.500083
C23	C	0.695841	0.165614	0.000074
C24	C	1.195841	0.665614	0.500074
C25	C	0.645600	0.237749	0.000074
C26	C	1.145600	0.737749	0.500074
C27	C	0.563813	0.230720	0.000085
C28	C	1.063813	0.730720	0.500085
C29	C	0.532268	0.151555	0.000091
C30	C	1.032268	0.651555	0.500091
C31	C	0.582515	0.079414	0.000094
C32	C	1.082515	0.579414	0.500094
C33	C	0.664300	0.086444	0.000088
C34	C	1.164300	0.586444	0.500088
C35	C	0.288669	0.122417	0.000114
C36	C	0.788669	0.622417	0.500114
C37	C	0.206878	0.115392	0.000117
C38	C	0.706878	0.615392	0.500117
C39	C	0.188181	0.266699	0.000110
C40	C	0.688181	0.766699	0.500110
C41	C	0.269969	0.273722	0.000099
C42	C	0.769969	0.773722	0.500099
C43	C	0.320209	0.201582	0.000106
C44	C	0.820209	0.701582	0.500106
N45	N	0.448669	0.144368	0.000100
N46	N	0.948669	0.644368	0.500100
N47	N	0.403806	0.208770	0.000103
N48	N	0.903806	0.708770	0.500103
C49	C	0.931963	0.023872	0.000099
C50	C	1.431963	0.523872	0.500099
C51	C	0.930417	-0.069182	0.000094
C52	C	1.430417	0.430818	0.500094
C53	C	0.924861	-0.407302	0.000096
C54	C	1.424861	0.092698	0.500096
C55	C	0.839142	-0.365620	-0.000225
C56	C	1.339142	0.134380	0.499775
C57	C	0.840674	-0.268811	0.000089
C58	C	1.340674	0.231189	0.500089
C59	C	0.927617	-0.239557	0.000095
C60	C	1.427617	0.260443	0.500095
C61	C	0.966120	-0.274034	0.079392
C62	C	1.466120	0.225966	0.579392
C63	C	0.963963	-0.370810	0.079459
C64	C	1.463963	0.129190	0.579459
C65	C	0.973269	-0.378559	-0.078449
C66	C	1.473269	0.121441	0.421551
C67	C	0.973299	-0.281665	-0.079497
C68	C	1.473299	0.218335	0.420503
C69	C	0.929179	-0.144755	0.000096
C70	C	1.429179	0.355245	0.500096
C71	C	0.923302	-0.502103	0.000100
C72	C	1.423302	-0.002103	0.500100
C73	C	1.069593	0.180051	0.000113
C74	C	1.569593	0.680051	0.500113
C75	C	1.156637	0.187528	0.000117
C76	C	1.656637	0.687528	0.500117
C77	C	0.920515	0.329270	0.000097
C78	C	1.420515	0.829270	0.500097
C79	C	0.922061	0.422324	0.000097
C80	C	1.422061	0.922324	0.500097
N81	N	0.915921	0.186859	0.216434
N82	N	1.415921	0.686859	0.716434
N83	N	0.936563	0.166277	-0.216236
N84	N	1.436563	0.666277	0.283764
C85	C	0.967163	0.135608	0.260134
C86	C	1.467163	0.635608	0.760134
C87	C	0.963006	0.139770	0.347541
C88	C	1.463006	0.639770	0.847541
C89	C	0.907611	0.195187	0.391245
C90	C	1.407611	0.695187	0.891245
C91	C	0.856364	0.246439	0.347539
C92	C	1.356364	0.746439	0.847539
C93	C	0.860518	0.242273	0.260135
C94	C	1.360518	0.742273	0.760135
C95	C	0.889469	0.213363	0.652653
C96	C	1.389469	0.713363	1.152653
C97	C	0.885321	0.217528	0.740064
C98	C	1.385321	0.717528	1.240064
C99	C	0.991962	0.110857	0.740059
C100	C	1.491962	0.610857	1.240059
C101	C	0.996114	0.106699	0.652652
C102	C	1.496114	0.606699	1.152652
C103	C	0.944864	0.157948	0.608954
C104	C	1.444864	0.657948	1.108954
N105	N	0.903363	0.199444	0.480589
N106	N	1.403363	0.699444	0.980589
N107	N	0.949109	0.153686	0.519612
N108	N	1.449109	0.653686	1.019612
H109	H	0.147268	0.325432	0.000106
H110	H	0.647268	0.825432	0.500106
O111	O	0.679623	0.323136	0.000076
O112	O	1.179623	0.823136	0.500076
H113	H	0.630943	0.372115	0.000088
H114	H	1.130943	0.872115	0.500088
O115	O	0.718487	0.008638	0.000088
O116	O	1.218487	0.508638	0.500088
H117	H	0.753495	0.010913	0.056688
H118	H	1.253495	0.510913	0.556688
O119	O	1.055874	0.046937	0.605520
O120	O	1.555874	0.546937	1.105520
H121	H	1.050162	0.052661	0.537400
H122	H	1.550162	0.552661	1.037400
H123	H	0.810146	-0.245316	-0.056756
H124	H	1.310146	0.254684	0.443244
H125	H	0.818790	0.284005	0.224555
H126	H	1.318790	0.784005	0.724555
O127	O	0.825569	0.277304	0.787201
O128	O	1.325569	0.777304	1.287201
H129	H	0.831302	0.271598	0.855320
H130	H	1.331302	0.771598	1.355320
O131	O	0.790371	-0.391027	0.074670
O132	O	1.290371	0.108973	0.574670
H133	H	0.769758	-0.334258	0.113514
H134	H	1.269758	0.165742	0.613514
H135	H	0.807588	-0.389148	-0.057091
H136	H	1.307588	0.110852	0.442909
H137	H	0.945181	-0.259275	-0.138159
H138	H	1.445181	0.240725	0.361841
O139	O	0.792765	-0.231277	0.075515
O140	O	1.292765	0.268723	0.575515
H141	H	0.730990	-0.250276	0.072754
H142	H	1.230990	0.249724	0.572754
H143	H	0.181198	0.050923	0.000121
H144	H	0.681198	0.550923	0.500121
O145	O	0.919364	-0.394063	0.157963
O146	O	1.419364	0.105937	0.657963
H147	H	0.899534	-0.336216	0.195520
H148	H	1.399534	0.163784	0.695520
H149	H	0.847741	0.255094	0.617081
H150	H	1.347741	0.755094	1.117081
H151	H	0.556824	0.014956	0.000111
H152	H	1.056824	0.514956	0.500111
H153	H	0.522910	0.289461	0.000084
H154	H	1.022910	0.789461	0.500084
H155	H	1.026736	-0.398675	0.083061
H156	H	1.526736	0.101325	0.583061
H157	H	0.295647	0.338187	0.000085
H158	H	0.795647	0.838187	0.500085
H159	H	1.029854	-0.255493	0.082346
H160	H	1.529854	0.244507	0.582346
H161	H	1.033687	0.069131	0.775646
H162	H	1.533687	0.569131	1.275646
O163	O	0.796618	0.306216	0.394672
O164	O	1.296618	0.806216	0.894672
H165	H	0.802344	0.300512	0.462792
H166	H	1.302344	0.800512	0.962792
O167	O	0.342848	0.044611	0.000123
O168	O	0.842848	0.544611	0.500123
H169	H	0.334332	0.004294	-0.056474
H170	H	0.834332	0.504294	0.443526
O171	O	0.923494	-0.235330	0.157560
O172	O	1.423494	0.264670	0.657560
H173	H	0.874883	-0.191543	0.140132
H174	H	1.374883	0.308457	0.640132
O175	O	0.939941	-0.412025	-0.158067
O176	O	1.439941	0.087975	0.341933
H177	H	0.888495	-0.449522	-0.142541
H178	H	1.388495	0.050478	0.357459
H179	H	1.036506	-0.406115	-0.078977
H180	H	1.536506	0.093885	0.421023
O181	O	1.057590	-0.256009	-0.085840
O182	O	1.557590	0.243991	0.414160
H183	H	1.068288	-0.212657	-0.032119
H184	H	1.568288	0.287343	0.467881
H185	H	1.012274	0.090486	0.224555
H186	H	1.512274	0.590486	0.724555
H187	H	1.004731	0.098037	0.383120
H188	H	1.504731	0.598037	0.883120
