data_functionalizedCrystal
_audit_creation_method	'MofGen! by Chris Wilmer'
_symmetry_space_group_name_H-M	'P1'
_symmetry_Int_Tables_number	1
_symmetry_cell_setting	triclinic
loop_
_symmetry_equiv_pos_as_xyz
  x,y,z
_cell_length_a	15.995343
_cell_length_b	23.532357
_cell_length_c	15.072220
_cell_angle_alpha	89.993295
_cell_angle_beta	89.991823
_cell_angle_gamma	83.158738
loop_
_atom_site_label
_atom_site_type_symbol
_atom_site_fract_x
_atom_site_fract_y
_atom_site_fract_z
O1	O	1.110370	0.073384	-0.073705
O2	O	0.866516	0.082454	-0.073727
O3	O	0.995818	-0.004986	-0.073697
O4	O	0.981068	0.160825	-0.073735
O5	O	0.995787	-0.004981	0.073868
O6	O	0.866484	0.082459	0.073838
O7	O	1.110338	0.073389	0.073861
Zn8	Zn	0.988406	0.077925	0.097278
Zn9	Zn	0.988448	0.077918	-0.097145
O10	O	0.981036	0.160830	0.073830
C11	C	0.835309	0.082082	0.000053
C12	C	0.742368	0.080961	0.000045
C13	C	0.572199	0.078924	0.000057
C14	C	0.549395	0.015806	0.000071
C15	C	0.452727	0.014618	0.000412
C16	C	0.404656	0.076919	0.000068
C17	C	0.433457	0.108659	0.084160
C18	C	0.530243	0.109407	0.084226
C19	C	0.530182	0.110326	-0.083590
C20	C	0.433707	0.107996	-0.084689
C21	C	0.309967	0.075789	0.000078
C22	C	0.666887	0.080056	0.000054
C23	C	0.995434	-0.026202	0.000088
C24	C	0.994324	-0.089425	0.000097
C25	C	0.987378	-0.481465	-0.080390
C26	C	0.986323	-0.540869	-0.080395
O27	O	0.985764	-0.571589	-0.148804
N28	N	0.985783	-0.570579	0.000042
C29	C	0.986289	-0.540882	0.080489
O30	O	0.985732	-0.571608	0.148906
C31	C	0.987337	-0.481480	0.080493
C32	C	0.987886	-0.451773	0.000051
C33	C	0.987926	-0.451758	-0.160825
C34	C	0.988982	-0.392359	-0.160820
C35	C	0.989490	-0.362667	-0.080379
C36	C	0.988942	-0.392374	0.000057
C37	C	0.987837	-0.451783	0.160939
C38	C	0.988885	-0.392376	0.160936
C39	C	0.989434	-0.362670	0.080494
C40	C	0.990506	-0.303282	0.080503
N41	N	0.991046	-0.273571	0.000066
C42	C	0.990538	-0.303264	-0.080375
C43	C	0.984085	-0.665632	0.080474
C44	C	0.983043	-0.725035	0.080470
C45	C	0.983076	-0.725017	-0.080414
C46	C	0.984124	-0.665614	-0.080409
C47	C	0.984626	-0.635922	0.000037
C48	C	0.992757	-0.178521	-0.080357
C49	C	0.993816	-0.119117	-0.080344
C50	C	0.993779	-0.119140	0.080539
C51	C	0.992724	-0.178539	0.080527
C52	C	0.992210	-0.208228	0.000072
O53	O	0.991062	-0.272523	0.148877
O54	O	0.991084	-0.272530	-0.148780
C55	C	1.141546	0.073761	0.000079
C56	C	1.234487	0.074883	0.000081
C57	C	0.981421	0.182045	0.000043
C58	C	0.982530	0.245268	0.000029
N59	N	0.988384	0.077929	0.229967
N60	N	0.988477	0.077910	-0.229834
C61	C	0.988447	0.077916	0.589169
C62	C	0.919030	0.124547	0.551546
C63	C	0.919187	0.124717	0.448720
C64	C	0.988415	0.077923	0.410965
C65	C	1.075669	0.090900	0.448260
C66	C	1.075279	0.091231	0.551118
C67	C	0.971390	0.018170	0.551281
C68	C	0.969382	0.018569	0.448417
C69	C	0.988402	0.077925	0.310251
C70	C	0.988465	0.077915	0.689882
H71	H	0.577625	-0.008661	-0.060222
C72	C	0.588459	-0.016237	0.080339
C73	C	0.676092	-0.017142	0.077210
C74	C	0.712110	-0.046644	0.151145
H75	H	0.574479	-0.054351	0.079931
H76	H	0.567435	0.002489	0.133027
H77	H	0.697108	-0.035869	0.024536
H78	H	0.690096	0.020964	0.077631
H79	H	0.691086	-0.027918	0.203833
H80	H	0.698124	-0.084756	0.150730
H81	H	0.771571	-0.047257	0.149037
H82	H	1.128520	0.058607	0.576005
H83	H	0.989280	-0.368203	0.226447
C84	C	0.992094	-0.210690	0.167955
C85	C	0.992748	-0.171968	0.238402
C86	C	0.992148	-0.201558	0.318954
H87	H	1.040498	-0.238216	0.171431
H88	H	0.942824	-0.229497	0.171340
H89	H	1.042012	-0.153170	0.235019
H90	H	0.944348	-0.144441	0.234955
H91	H	0.942879	-0.220364	0.322339
H92	H	1.040553	-0.229082	0.322421
H93	H	0.992585	-0.175289	0.366761
H94	H	0.994196	-0.094954	0.146032
C95	C	0.406782	0.079701	0.167955
C96	C	0.353284	0.118906	0.217826
C97	C	0.328690	0.092237	0.295007
H98	H	0.455186	0.066619	0.202095
H99	H	0.377967	0.048099	0.152335
H100	H	0.382099	0.150498	0.233447
H101	H	0.304869	0.131991	0.183712
H102	H	0.299875	0.060635	0.279387
H103	H	0.377098	0.079156	0.329139
H104	H	0.292383	0.118832	0.328850
H105	H	1.091151	0.133976	0.422483
H106	H	1.090387	0.134804	0.575091
H107	H	0.854313	0.116986	0.423505
H108	H	0.982609	-0.749218	0.145974
C109	C	0.832204	0.114535	0.584595
C110	C	0.796948	0.162413	0.632633
C111	C	0.716957	0.153213	0.663085
H112	H	0.836917	0.081751	0.621853
H113	H	0.797137	0.108612	0.535400
H114	H	0.832006	0.168329	0.681822
H115	H	0.792213	0.195203	0.595394
H116	H	0.681890	0.147290	0.613889
H117	H	0.721679	0.120427	0.700339
H118	H	0.693023	0.185698	0.695675
H119	H	0.929716	0.168634	0.577375
C120	C	0.888504	0.001456	0.586013
C121	C	0.903606	-0.049990	0.633213
C122	C	0.827270	-0.065393	0.665232
H123	H	0.851971	-0.003317	0.537601
H124	H	0.863017	0.030678	0.624142
H125	H	0.929081	-0.079206	0.595086
H126	H	0.940127	-0.045231	0.681637
H127	H	0.801783	-0.036171	0.703361
H128	H	0.790743	-0.070163	0.616815
H129	H	0.837507	-0.100298	0.697268
C130	C	0.933697	0.183862	0.416054
C131	C	0.942356	0.219584	0.488931
C132	C	0.955740	0.274072	0.458874
H133	H	0.887098	0.199412	0.381089
H134	H	0.983517	0.181042	0.381204
H135	H	0.892542	0.222406	0.523766
H136	H	0.988955	0.204053	0.523904
H137	H	1.005559	0.271252	0.424025
H138	H	0.909139	0.289616	0.423909
H139	H	0.961624	0.298314	0.508316
H140	H	0.987509	-0.475927	-0.226333
C141	C	0.984668	-0.633462	-0.167839
C142	C	0.983980	-0.672185	-0.238280
C143	C	0.984468	-0.642590	-0.318837
H144	H	1.033897	-0.614629	-0.171307
H145	H	0.936223	-0.605955	-0.171239
H146	H	1.032421	-0.699682	-0.234882
H147	H	0.934756	-0.691019	-0.234842
H148	H	0.936022	-0.615083	-0.322236
H149	H	1.033697	-0.623759	-0.322296
H150	H	0.983993	-0.668859	-0.366641
H151	H	0.544419	0.155694	0.087811
C152	C	1.146057	0.046784	0.415520
C153	C	1.112227	0.007046	0.361123
C154	C	1.177043	-0.033597	0.330935
H155	H	1.173484	0.027549	0.464824
H156	H	1.185542	0.065406	0.382620
H157	H	1.072757	-0.011575	0.394021
H158	H	1.084806	0.026264	0.311805
H159	H	1.216528	-0.014975	0.298035
H160	H	1.204466	-0.052828	0.380244
H161	H	1.154100	-0.060561	0.294017
H162	H	0.400361	0.153454	-0.090038
H163	H	0.905199	0.008720	0.424042
H164	H	1.016696	-0.017757	0.422721
H165	H	1.022018	-0.016531	0.575611
C166	C	0.409056	0.077225	-0.167614
C167	C	0.321500	0.077484	-0.169680
C168	C	0.298749	0.049148	-0.246057
H169	H	0.435323	0.038836	-0.166949
H170	H	0.426737	0.096226	-0.218693
H171	H	0.303827	0.058482	-0.118614
H172	H	0.295212	0.115865	-0.170359
H173	H	0.316430	0.068149	-0.297137
H174	H	0.325021	0.010761	-0.245385
H175	H	0.239340	0.049325	-0.247474
C176	C	0.427487	-0.018467	-0.079918
C177	C	0.340151	-0.019512	-0.079576
C178	C	0.316875	-0.049981	-0.153569
H179	H	0.454929	-0.056527	-0.077702
H180	H	0.443489	-0.000358	-0.132564
H181	H	0.324158	-0.037623	-0.026943
H182	H	0.312689	0.018539	-0.081805
H183	H	0.332876	-0.031872	-0.206216
H184	H	0.344321	-0.088039	-0.151346
H185	H	0.257615	-0.050690	-0.153352
C186	C	0.982343	-0.757275	-0.167726
C187	C	0.909682	-0.784950	-0.172436
C188	C	0.908973	-0.814666	-0.252855
H189	H	1.030707	-0.784837	-0.171153
H190	H	0.982770	-0.731091	-0.215662
H191	H	0.909262	-0.811132	-0.124514
H192	H	0.861305	-0.757401	-0.169025
H193	H	0.909400	-0.788482	-0.300790
H194	H	0.957340	-0.842226	-0.256274
H195	H	0.859670	-0.833444	-0.256064
H196	H	0.434489	-0.010107	0.061056
H197	H	0.994265	-0.094933	-0.145853
C198	C	0.566354	0.080486	0.168338
C199	C	0.653815	0.080862	0.169300
C200	C	0.687103	0.054229	0.246775
H201	H	0.553626	0.042090	0.169938
H202	H	0.542343	0.100572	0.218645
H203	H	0.677819	0.060775	0.119006
H204	H	0.666567	0.119251	0.167714
H205	H	0.663092	0.074315	0.297083
H206	H	0.674370	0.015834	0.248369
H207	H	0.746448	0.054485	0.247442
H208	H	0.401217	0.154510	0.087041
H209	H	0.543797	0.156785	-0.084411
C210	C	0.568191	0.083673	-0.168511
C211	C	0.630090	0.038538	-0.147276
C212	C	0.665116	0.013961	-0.225476
H213	H	0.592812	0.111739	-0.201629
H214	H	0.525337	0.069542	-0.202840
H215	H	0.672937	0.052670	-0.112961
H216	H	0.605490	0.010460	-0.114170
H217	H	0.622262	-0.000170	-0.259806
H218	H	0.689733	0.042031	-0.258589
H219	H	0.707113	-0.016669	-0.211079
C220	C	0.992227	-0.210649	-0.167800
C221	C	0.992946	-0.171910	-0.238231
C222	C	0.992467	-0.201486	-0.318795
H223	H	0.942991	-0.229471	-0.171273
H224	H	1.040665	-0.238163	-0.171206
H225	H	0.944514	-0.144406	-0.234827
H226	H	1.042179	-0.153086	-0.234788
H227	H	1.040904	-0.229000	-0.322201
H228	H	0.943230	-0.220307	-0.322259
H229	H	0.992963	-0.175207	-0.366592
H230	H	0.984496	-0.641461	0.145987
C231	C	0.989521	-0.360209	-0.248251
C232	C	0.988825	-0.398934	-0.318689
C233	C	0.989306	-0.369341	-0.399248
H234	H	1.038750	-0.341378	-0.251726
H235	H	0.941076	-0.332701	-0.251648
H236	H	1.037265	-0.426432	-0.315294
H237	H	0.939599	-0.417767	-0.315243
H238	H	0.940861	-0.341833	-0.402645
H239	H	1.038536	-0.350511	-0.402714
H240	H	0.988826	-0.395611	-0.447049
H241	H	0.987391	-0.475960	0.226444
