data_functionalizedCrystal
_audit_creation_method	'MofGen! by Chris Wilmer'
_symmetry_space_group_name_H-M	'P1'
_symmetry_Int_Tables_number	1
_symmetry_cell_setting	triclinic
loop_
_symmetry_equiv_pos_as_xyz
  x,y,z
_cell_length_a	14.971482
_cell_length_b	10.654550
_cell_length_c	13.448316
_cell_angle_alpha	89.994587
_cell_angle_beta	89.993798
_cell_angle_gamma	84.048756
loop_
_atom_site_label
_atom_site_type_symbol
_atom_site_fract_x
_atom_site_fract_y
_atom_site_fract_z
O1	O	1.187840	0.163637	-0.082676
O2	O	1.687840	0.663637	0.417324
O3	O	0.927546	0.183240	-0.082681
O4	O	1.427546	0.683240	0.417319
O5	O	1.063678	-0.009365	-0.082675
O6	O	1.563678	0.490635	0.417325
O7	O	1.051708	0.356242	-0.082682
O8	O	1.551708	0.856242	0.417318
O9	O	1.063660	-0.009377	0.082709
O10	O	1.563660	0.490623	0.582709
O11	O	0.927529	0.183228	0.082703
O12	O	1.427529	0.683228	0.582703
O13	O	1.187823	0.163625	0.082707
O14	O	1.687823	0.663625	0.582707
Cu15	Cu	1.057674	0.173426	0.097806
Cu16	Cu	1.557674	0.673426	0.597806
Cu17	Cu	1.057694	0.173440	-0.097780
Cu18	Cu	1.557694	0.673440	0.402220
O19	O	1.051691	0.356230	0.082701
O20	O	1.551691	0.856230	0.582701
C21	C	0.894208	0.182359	0.000010
C22	C	1.394208	0.682359	0.500010
C23	C	0.794896	0.179734	0.000009
C24	C	1.294896	0.679734	0.500009
C25	C	0.748235	0.178491	0.090160
C26	C	1.248235	0.678491	0.590160
C27	C	0.654923	0.176005	0.090162
C28	C	1.154923	0.676005	0.590162
C29	C	0.608273	0.174770	0.000010
C30	C	1.108273	0.674770	0.500010
C31	C	0.654941	0.176009	-0.090149
C32	C	1.154941	0.676009	0.409851
C33	C	0.748252	0.178487	-0.090149
C34	C	1.248252	0.678487	0.409851
C35	C	0.460451	0.170849	-0.090142
C36	C	0.960451	0.670849	0.409858
C37	C	0.367133	0.168374	-0.090143
C38	C	0.867133	0.668374	0.409857
C39	C	0.367122	0.168367	0.090168
C40	C	0.867122	0.668367	0.590168
C41	C	0.460433	0.170845	0.090168
C42	C	0.960433	0.670845	0.590168
C43	C	0.507094	0.172086	0.000009
C44	C	1.007094	0.672086	0.500009
C45	C	1.062790	-0.056159	0.000016
C46	C	1.562790	0.443841	0.500016
C47	C	1.060161	-0.195574	0.000012
C48	C	1.560161	0.304426	0.500012
C49	C	1.140313	-0.275921	0.000017
C50	C	1.640313	0.224079	0.500017
C51	C	1.137837	-0.406916	0.000010
C52	C	1.637837	0.093084	0.500010
C53	C	0.975050	-0.377203	-0.000002
C54	C	1.475050	0.122797	0.499998
C55	C	0.977526	-0.246211	-0.000002
C56	C	1.477526	0.253789	0.499998
C57	C	1.222947	-0.225285	0.000031
C58	C	1.722947	0.274715	0.500031
C59	C	1.303106	-0.305633	0.000037
C60	C	1.803106	0.194367	0.500037
C61	C	1.300630	-0.436627	0.000030
C62	C	1.800630	0.063373	0.500030
C63	C	1.217995	-0.487273	0.000017
C64	C	1.717995	0.012727	0.500017
C65	C	1.221161	0.164507	0.000014
C66	C	1.721161	0.664507	0.500014
C67	C	1.320472	0.167132	0.000009
C68	C	1.820472	0.667132	0.500009
C69	C	1.052578	0.403025	0.000008
C70	C	1.552578	0.903025	0.500008
C71	C	1.055208	0.542440	0.000005
C72	C	1.555208	1.042440	0.500005
N73	N	1.057666	0.173415	0.235370
N74	N	1.557666	0.673415	0.735370
N75	N	1.057709	0.173440	-0.235344
N76	N	1.557709	0.673440	0.264656
C77	C	1.117964	0.088165	0.287413
C78	C	1.617964	0.588165	0.787413
C79	C	1.117970	0.088163	0.391517
C80	C	1.617970	0.588163	0.891517
C81	C	1.057681	0.173420	0.443575
C82	C	1.557681	0.673420	0.943575
C83	C	0.997376	0.258674	0.391525
C84	C	1.497376	0.758674	0.891525
C85	C	0.997367	0.258669	0.287423
C86	C	1.497367	0.758669	0.787423
C87	C	0.997401	0.258683	0.608505
C88	C	1.497401	0.758683	1.108505
C89	C	0.997411	0.258691	0.712613
C90	C	1.497411	0.758691	1.212613
C91	C	1.118004	0.088178	0.712598
C92	C	1.618004	0.588178	1.212598
C93	C	1.117995	0.088172	0.608497
C94	C	1.617995	0.588172	1.108497
C95	C	1.057691	0.173428	0.556454
C96	C	1.557691	0.673428	1.056454
H97	H	0.616938	0.174972	0.163572
H98	H	1.116938	0.674972	0.663572
H99	H	1.365899	-0.502044	0.000024
H100	H	1.865899	-0.002044	0.500024
H101	H	1.167091	0.018756	0.566111
H102	H	1.667091	0.518756	1.066111
H103	H	1.167105	0.018759	0.754978
H104	H	1.667105	0.518759	1.254978
H105	H	0.329126	0.167357	0.163579
H106	H	0.829126	0.667357	0.663579
H107	H	1.370384	-0.264388	0.000022
H108	H	1.870384	0.235612	0.500022
H109	H	0.948265	0.328087	0.245051
H110	H	1.448265	0.828087	0.745051
H111	H	1.215985	-0.593939	0.000001
H112	H	1.715985	-0.093939	0.500001
H113	H	0.948283	0.328088	0.433916
H114	H	1.448283	0.828088	0.933916
H115	H	0.616951	0.174995	-0.163552
H116	H	1.116951	0.674995	0.336448
H117	H	0.786210	0.179507	0.163573
H118	H	1.286210	0.679507	0.663573
H119	H	0.498413	0.171858	0.163578
H120	H	0.998413	0.671858	0.663578
H121	H	0.912259	-0.180790	-0.000004
H122	H	1.412259	0.319210	0.499996
H123	H	1.224972	-0.118624	0.000040
H124	H	1.724972	0.381376	0.500040
H125	H	0.329153	0.167370	-0.163552
H126	H	0.829153	0.667370	0.336448
H127	H	0.498439	0.171860	-0.163560
H128	H	0.998439	0.671860	0.336440
H129	H	0.786242	0.179501	-0.163560
H130	H	1.286242	0.679501	0.336440
H131	H	0.907772	-0.418450	-0.000011
H132	H	1.407772	0.081550	0.499989
H133	H	1.167062	0.018744	0.245034
H134	H	1.667062	0.518744	0.745034
H135	H	0.948317	0.328114	0.754994
H136	H	1.448317	0.828114	1.254994
H137	H	1.167068	0.018745	0.433890
H138	H	1.667068	0.518745	0.933890
H139	H	0.948292	0.328104	0.566135
H140	H	1.448292	0.828104	1.066135
