data_functionalizedCrystal
_audit_creation_method	'MofGen! by Chris Wilmer'
_symmetry_space_group_name_H-M	'P1'
_symmetry_Int_Tables_number	1
_symmetry_cell_setting	triclinic
loop_
_symmetry_equiv_pos_as_xyz
  x,y,z
_cell_length_a	17.917603
_cell_length_b	12.970454
_cell_length_c	12.970454
_cell_angle_alpha	59.999702
_cell_angle_beta	89.999925
_cell_angle_gamma	57.011801
loop_
_atom_site_label
_atom_site_type_symbol
_atom_site_fract_x
_atom_site_fract_y
_atom_site_fract_z
Zr1	Zr	0.754913	1.033593	-0.087833
O2	O	0.629790	1.264415	-0.260324
O3	O	0.793269	0.813681	-0.034956
O4	O	0.793271	1.028771	-0.250046
O5	O	0.629789	1.049324	0.124434
O6	O	0.922228	1.012556	-0.241938
O7	O	0.629789	1.049325	-0.045234
O8	O	0.922225	0.627799	0.142819
O9	O	0.629792	1.434081	-0.260323
O10	O	0.905868	0.887992	-0.006353
O11	O	0.809628	0.900092	0.114217
O12	O	0.809630	1.153333	-0.139024
O13	O	0.713391	1.165433	-0.018454
Zr14	Zr	0.960584	1.007731	0.195698
Zr15	Zr	0.960585	1.007732	-0.074902
Zr16	Zr	0.754913	1.033591	0.182767
Zr17	Zr	0.754915	1.304190	-0.087832
Zr18	Zr	0.960583	0.737134	0.195697
O19	O	0.922229	1.227643	0.142821
O20	O	0.922229	1.227645	-0.241938
O21	O	0.629790	1.264413	0.124434
O22	O	1.085707	0.776909	0.368188
O23	O	1.085708	0.776911	-0.016570
O24	O	0.793268	0.813679	0.349802
O25	O	1.085709	0.992000	-0.016569
O26	O	0.922227	1.012553	0.357911
O27	O	0.793270	1.028768	0.349803
O28	O	1.085709	0.991999	0.153098
O29	O	0.793273	1.413525	-0.250045
O30	O	0.922224	0.627798	0.357909
O31	O	1.085706	0.607243	0.368188
O32	O	1.085706	0.607244	0.153097
O33	O	0.629791	1.434080	-0.045232
O34	O	0.793273	1.413524	-0.034954
O35	O	0.905867	0.887991	0.246889
O36	O	1.002107	0.875891	0.126318
O37	O	0.905869	1.141231	-0.006352
O38	O	0.809630	1.153332	0.114218
C39	C	0.600485	1.053009	0.037758
C40	C	0.513172	1.063987	0.032268
C41	C	0.857748	1.020660	0.392412
C42	C	0.857748	1.020659	0.507288
C43	C	0.857751	1.359138	0.053934
C44	C	0.857752	1.474014	0.053934
C45	C	0.353328	1.084041	0.022243
C46	C	0.362163	0.957289	0.085619
C47	C	0.273220	0.968447	0.080041
C48	C	0.442277	1.072886	0.027819
C49	C	1.115013	0.988315	0.070107
C50	C	1.202326	0.977336	0.075597
C51	C	0.857747	0.682186	0.053931
C52	C	0.857746	0.567310	0.053931
C53	C	0.857749	1.020664	-0.284547
C54	C	0.857749	1.020664	-0.399424
C55	C	1.115010	0.649838	0.070106
C56	C	1.202323	0.523984	0.075595
C57	C	0.857746	0.682184	0.392410
C58	C	0.857745	0.567308	0.507287
C59	C	1.115010	0.649837	0.408585
C60	C	1.202322	0.523982	0.528951
C61	C	0.600488	1.391487	-0.300721
C62	C	0.513175	1.517342	-0.421086
C63	C	0.600487	1.391485	0.037759
C64	C	0.513175	1.517339	0.032270
C65	C	0.857751	1.359140	-0.284546
C66	C	0.857752	1.474016	-0.399422
C67	C	1.193090	0.471199	0.008908
C68	C	1.275121	0.352961	0.014040
C69	C	1.366384	0.287504	0.085867
C70	C	1.375615	0.340301	0.152555
C71	C	1.293585	0.458544	0.147416
C72	C	1.293569	0.458562	0.522540
C73	C	1.375616	0.340322	0.635627
C74	C	1.366414	0.287497	0.755123
C75	C	1.275157	0.352929	0.761531
C76	C	1.193112	0.471174	0.648445
C77	C	0.421928	1.582775	-0.414676
C78	C	0.339881	1.701048	-0.527762
C79	C	0.349084	1.753879	-0.647259
C80	C	0.440341	1.688440	-0.653666
C81	C	0.522385	1.570176	-0.540581
C82	C	0.522408	1.570136	0.098945
C83	C	0.440377	1.688403	0.093783
C84	C	0.349113	1.753864	0.021953
C85	C	0.339882	1.701062	-0.044731
C86	C	0.421912	1.582805	-0.039576
H87	H	0.436524	0.840394	0.144066
H88	H	0.447912	1.731374	0.148091
H89	H	0.414381	1.539822	-0.093868
C90	C	0.622756	1.498199	-0.547649
C91	C	0.652888	1.420239	-0.615151
C92	C	0.753255	1.348272	-0.622232
C93	C	0.823491	1.354265	-0.561811
C94	C	0.793361	1.432229	-0.494303
C95	C	0.692993	1.504195	-0.487222
H96	H	0.600893	1.415800	-0.659884
H97	H	0.775559	1.290559	-0.672206
H98	H	0.897789	1.300991	-0.567052
H99	H	0.845355	1.436668	-0.449571
H100	H	0.670689	1.561909	-0.437248
H101	H	0.278972	1.200927	-0.036201
H102	H	1.267586	0.309990	-0.040267
C103	C	0.239488	1.773062	-0.123724
C104	C	0.149266	1.903121	-0.129364
C105	C	0.048870	1.975112	-0.208345
C106	C	0.038695	1.917043	-0.281684
C107	C	0.128920	1.786976	-0.276046
C108	C	0.229316	1.714986	-0.197066
H109	H	0.156795	1.946114	-0.075071
H110	H	-0.017921	2.071396	-0.212518
H111	H	-0.035625	1.970335	-0.340150
H112	H	0.121390	1.743984	-0.330339
H113	H	0.296106	1.618701	-0.192893
C114	C	1.092706	0.543193	-0.070116
C115	C	1.082571	0.485120	-0.143475
C116	C	0.982191	0.557114	-0.222511
C117	C	0.891946	0.687181	-0.228187
C118	C	0.902079	0.745261	-0.154825
C119	C	1.002459	0.673267	-0.075789
H120	H	1.149378	0.388831	-0.139276
H121	H	0.974690	0.514118	-0.276819
H122	H	0.817639	0.740475	-0.286694
H123	H	0.835272	0.841551	-0.159025
H124	H	1.009960	0.716263	-0.021482
C125	C	1.475990	0.268356	0.628559
C126	C	1.486104	0.326453	0.497111
C127	C	1.586474	0.254492	0.490039
C128	C	1.676732	0.124433	0.614415
C129	C	1.666621	0.066328	0.745872
C130	C	1.566251	0.138290	0.752944
H131	H	1.419287	0.422737	0.405033
H132	H	1.593958	0.297505	0.392726
H133	H	1.751032	0.071162	0.609180
H134	H	1.733438	-0.029956	0.837950
H135	H	1.558767	0.095276	0.850257
H136	H	0.282327	1.850156	0.017766
H137	H	1.433171	0.191223	0.090042
C138	C	1.476011	0.268270	0.231576
C139	C	1.546235	0.274254	0.165131
C140	C	1.646634	0.202206	0.244162
C141	C	1.676808	0.124174	0.389637
C142	C	1.606583	0.118186	0.456090
C143	C	1.506184	0.190234	0.377060
H144	H	1.523899	0.332021	0.057434
H145	H	1.698619	0.206639	0.194968
H146	H	1.751129	0.070840	0.448141
H147	H	1.628919	0.060419	0.563787
H148	H	1.454199	0.185801	0.426253
C149	C	0.239508	1.773001	-0.520693
C150	C	0.209360	1.850945	-0.453177
C151	C	0.108990	1.922891	-0.446104
C152	C	0.038767	1.916892	-0.506546
C153	C	0.068913	1.838944	-0.574066
C154	C	0.169283	1.766998	-0.581140
H155	H	0.261345	1.855389	-0.408430
H156	H	0.086675	1.980593	-0.396120
H157	H	-0.035533	1.970150	-0.501309
H158	H	0.016929	1.834500	-0.618813
H159	H	0.191599	1.709296	-0.631123
H160	H	1.301116	0.501506	0.201728
H161	H	1.301081	0.501554	0.425251
H162	H	1.433228	0.191214	0.847195
H163	H	1.267678	0.309901	0.858840
H164	H	0.596712	1.516847	0.157446
H165	H	1.118817	0.524425	0.653683
H166	H	0.414417	1.539768	-0.317387
H167	H	0.447822	1.731470	-0.750973
H168	H	0.282270	1.850177	-0.739330
