data_functionalizedCrystal
_audit_creation_method	'MofGen! by Chris Wilmer'
_symmetry_space_group_name_H-M	'P1'
_symmetry_Int_Tables_number	1
_symmetry_cell_setting	triclinic
loop_
_symmetry_equiv_pos_as_xyz
  x,y,z
_cell_length_a	16.625548
_cell_length_b	18.050589
_cell_length_c	18.050582
_cell_angle_alpha	89.981795
_cell_angle_beta	89.985107
_cell_angle_gamma	90.029289
loop_
_atom_site_label
_atom_site_type_symbol
_atom_site_fract_x
_atom_site_fract_y
_atom_site_fract_z
Zn1	Zn	1.232603	-0.295685	-0.419935
Zn2	Zn	1.732603	0.204315	0.080065
Zn3	Zn	1.232506	-0.419869	-0.295754
Zn4	Zn	1.732506	0.080131	0.204246
Zn5	Zn	1.097778	-0.295699	-0.295759
Zn6	Zn	1.597778	0.204301	0.204241
Zn7	Zn	1.097722	-0.419840	-0.419903
Zn8	Zn	1.597722	0.080160	0.080097
O9	O	1.165152	-0.357774	-0.357837
O10	O	1.665152	0.142226	0.142163
O11	O	1.345423	-0.312165	-0.403473
O12	O	1.845423	0.187835	0.096527
O13	O	1.214617	-0.403415	-0.191830
O14	O	1.714617	0.096585	0.308170
O15	O	1.115727	-0.191773	-0.312246
O16	O	1.615727	0.308227	0.187754
O17	O	1.345351	-0.403402	-0.312238
O18	O	1.845351	0.096598	0.187762
O19	O	1.214782	-0.191763	-0.403478
O20	O	1.714782	0.308237	0.096522
O21	O	1.115633	-0.312188	-0.191833
O22	O	1.615633	0.187812	0.308167
O23	O	0.984938	-0.312161	-0.312215
O24	O	1.484938	0.187839	0.187785
O25	O	1.115631	-0.403353	-0.523831
O26	O	1.615631	0.096647	-0.023831
O27	O	0.984897	-0.403367	-0.403423
O28	O	1.484897	0.096633	0.096577
O29	O	1.214728	-0.312137	-0.523855
O30	O	1.714728	0.187863	-0.023855
O31	O	1.214562	-0.523790	-0.312207
O32	O	1.714562	-0.023790	0.187793
O33	O	1.115537	-0.523769	-0.403419
O34	O	1.615537	-0.023769	0.096581
C35	C	0.955661	-0.357763	-0.357817
C36	C	1.455661	0.142237	0.142183
C37	C	0.866040	-0.357776	-0.357825
C38	C	1.366040	0.142224	0.142175
C39	C	0.537865	-0.357781	-0.357857
C40	C	1.037865	0.142219	0.142143
C41	C	0.629173	-0.357778	-0.357846
C42	C	1.129173	0.142222	0.142154
C43	C	0.701950	-0.357779	-0.357841
C44	C	1.201950	0.142221	0.142159
C45	C	0.793264	-0.357775	-0.357831
C46	C	1.293264	0.142225	0.142169
C47	C	1.165055	-0.550726	-0.357825
C48	C	1.665055	-0.050726	0.142175
C49	C	1.165087	-0.633271	-0.357845
C50	C	1.665087	-0.133271	0.142155
C51	C	1.111290	-0.832738	-0.407428
C52	C	1.611290	-0.332738	0.092572
C53	C	1.091641	-0.882172	-0.339661
C54	C	1.591641	-0.382172	0.160339
C55	C	1.165166	-0.784402	-0.357854
C56	C	1.665166	-0.284402	0.142146
C57	C	1.184855	-0.882049	-0.425629
C58	C	1.684855	-0.382049	0.074371
C59	C	1.165241	-0.930387	-0.357870
C60	C	1.665241	-0.430387	0.142130
C61	C	1.145479	-0.832749	-0.290051
C62	C	1.645479	-0.332749	0.209949
C63	C	1.238727	-0.832622	-0.376065
C64	C	1.738727	-0.332622	0.123935
C65	C	1.219106	-0.882034	-0.308251
C66	C	1.719106	-0.382034	0.191749
C67	C	1.165121	-0.700304	-0.357846
C68	C	1.665121	-0.200304	0.142154
C69	C	1.165287	-1.014483	-0.357870
C70	C	1.665287	-0.514483	0.142130
C71	C	1.375461	-0.357785	-0.357859
C72	C	1.875461	0.142215	0.142141
C73	C	1.465082	-0.357790	-0.357868
C74	C	1.965082	0.142210	0.142132
C75	C	1.165184	-0.357741	-0.551543
C76	C	1.665184	0.142259	-0.051543
C77	C	1.165197	-0.357727	-0.634089
C78	C	1.665197	0.142273	-0.134089
C79	C	1.165272	-0.164068	-0.357866
C80	C	1.665272	0.335932	0.142134
C81	C	1.165323	-0.081522	-0.357878
C82	C	1.665323	0.418478	0.142122
C83	C	1.111350	-0.407262	-0.833527
C84	C	1.611350	0.092738	-0.333527
C85	C	1.184913	-0.425414	-0.882920
C86	C	1.684913	0.074586	-0.382920
C87	C	1.165237	-0.357670	-0.785219
C88	C	1.665237	0.142330	-0.285219
C89	C	1.091715	-0.339497	-0.882908
C90	C	1.591715	0.160503	-0.382908
C91	C	1.165269	-0.357617	-0.931205
C92	C	1.665269	0.142383	-0.431205
C93	C	1.238839	-0.375858	-0.833525
C94	C	1.738839	0.124142	-0.333525
C95	C	1.145591	-0.289909	-0.833509
C96	C	1.645591	0.210091	-0.333509
C97	C	1.219205	-0.308035	-0.882880
C98	C	1.719205	0.191965	-0.382880
C99	C	1.165218	-0.357703	-0.701121
C100	C	1.665218	0.142297	-0.201121
C101	C	1.165297	-0.357584	-1.015301
C102	C	1.665297	0.142416	-0.515301
C103	C	1.165167	-0.357753	-0.164885
C104	C	1.665167	0.142247	0.335115
C105	C	1.165310	-0.357558	-0.082340
C106	C	1.665310	0.142442	0.417660
H107	H	1.065662	-0.811092	-0.449292
H108	H	1.565662	-0.311092	0.050708
H109	H	1.128784	-0.811183	-0.232725
H110	H	1.628784	-0.311183	0.267275
H111	H	1.301047	-0.391271	-0.811923
H112	H	1.801047	0.108729	-0.311923
C113	C	1.008841	-0.989124	-0.318444
C114	C	1.508841	-0.489124	0.181556
C115	C	1.007709	-0.911559	-0.318867
C116	C	1.507709	-0.411559	0.181133
H117	H	0.957025	-1.007262	-0.305606
H118	H	1.457025	-0.507262	0.194394
H119	H	1.023167	-1.006722	-0.366241
H120	H	1.523167	-0.506722	0.133759
H121	H	1.047091	-1.005988	-0.283186
H122	H	1.547091	-0.505988	0.216814
H123	H	0.969463	-0.894694	-0.354129
H124	H	1.469463	-0.394694	0.145871
H125	H	0.993373	-0.893953	-0.271063
H126	H	1.493373	-0.393953	0.228937
H127	H	1.065822	-0.449256	-0.811858
H128	H	1.565822	0.050744	-0.311858
H129	H	1.029524	-0.324149	-0.904601
H130	H	1.529524	0.175851	-0.404601
C131	C	1.150848	-0.554615	-0.887320
C132	C	1.650848	-0.054615	-0.387320
C133	C	1.207371	-0.502738	-0.912227
C134	C	1.707371	-0.002738	-0.412227
H135	H	1.164708	-0.602351	-0.905416
H136	H	1.664708	-0.102351	-0.405416
H137	H	1.150523	-0.555305	-0.834706
H138	H	1.650523	-0.055305	-0.334706
H139	H	1.098981	-0.541375	-0.904960
H140	H	1.598981	-0.041375	-0.404960
H141	H	1.259238	-0.515975	-0.894583
H142	H	1.759238	-0.015975	-0.394583
H143	H	1.207705	-0.502050	-0.964853
H144	H	1.707705	-0.002050	-0.464853
H145	H	1.264842	-0.266074	-0.904413
H146	H	1.764842	0.233926	-0.404413
C147	C	1.259884	-0.886058	-0.180720
C148	C	1.759884	-0.386058	0.319280
C149	C	1.280654	-0.911080	-0.251605
C150	C	1.780654	-0.411080	0.248395
H151	H	1.297877	-0.903996	-0.145749
H152	H	1.797877	-0.403996	0.354251
H153	H	1.259881	-0.833442	-0.180129
H154	H	1.759881	-0.333442	0.319871
H155	H	1.207812	-0.903779	-0.168207
H156	H	1.707812	-0.403779	0.331793
H157	H	1.332724	-0.893354	-0.264121
H158	H	1.832724	-0.393354	0.235879
H159	H	1.280665	-0.963707	-0.252199
H160	H	1.780665	-0.463707	0.247801
C161	C	1.046030	-0.193713	-0.829059
C162	C	1.546030	0.306287	-0.329059
C163	C	1.123104	-0.212607	-0.804176
C164	C	1.623104	0.287393	-0.304176
H165	H	1.032140	-0.145992	-0.810944
H166	H	1.532140	0.354008	-0.310944
H167	H	1.045396	-0.193238	-0.881674
H168	H	1.545396	0.306762	-0.381674
H169	H	1.008280	-0.229092	-0.811423
H170	H	1.508280	0.270908	-0.311423
H171	H	1.160854	-0.177231	-0.821817
H172	H	1.660854	0.322769	-0.321817
H173	H	1.123743	-0.213076	-0.751551
H174	H	1.623743	0.286924	-0.251551
C175	C	1.374294	-0.862944	-0.410413
C176	C	1.874294	-0.362944	0.089587
C177	C	1.322637	-0.803214	-0.396885
C178	C	1.822637	-0.303214	0.103115
H179	H	1.426095	-0.844787	-0.423277
H180	H	1.926095	-0.344787	0.076723
H181	H	1.378189	-0.892654	-0.367124
H182	H	1.878189	-0.392654	0.132876
H183	H	1.353637	-0.891894	-0.450023
H184	H	1.853637	-0.391894	0.049977
H185	H	1.343291	-0.774268	-0.357271
H186	H	1.843291	-0.274268	0.142729
H187	H	1.318745	-0.773492	-0.440179
H188	H	1.818745	-0.273492	0.059821
H189	H	1.201478	-0.903705	-0.482940
H190	H	1.701478	-0.403705	0.017060
