data_functionalizedCrystal
_audit_creation_method	'MofGen! by Chris Wilmer'
_symmetry_space_group_name_H-M	'P1'
_symmetry_Int_Tables_number	1
_symmetry_cell_setting	triclinic
loop_
_symmetry_equiv_pos_as_xyz
  x,y,z
_cell_length_a	15.944551
_cell_length_b	15.021413
_cell_length_c	10.654541
_cell_angle_alpha	89.998463
_cell_angle_beta	83.991333
_cell_angle_gamma	89.988701
loop_
_atom_site_label
_atom_site_type_symbol
_atom_site_fract_x
_atom_site_fract_y
_atom_site_fract_z
O1	O	1.115448	0.073939	0.161958
O2	O	0.871013	0.073961	0.181926
O3	O	0.998852	0.073944	-0.010870
O4	O	0.987609	0.073956	0.354754
O5	O	0.998867	-0.074120	-0.010858
O6	O	0.871028	-0.074103	0.181938
O7	O	1.115463	-0.074125	0.161970
Zn8	Zn	0.993248	-0.097623	0.171956
Zn9	Zn	0.993228	0.097458	0.171940
O10	O	0.987624	-0.074108	0.354766
C11	C	0.839722	-0.000068	0.181103
C12	C	0.746462	-0.000060	0.178618
N13	N	0.993268	-0.230760	0.171966
C14	C	0.998034	-0.000088	-0.057652
C15	C	0.995566	-0.000086	-0.197063
C16	C	0.530880	-0.000081	0.053173
C17	C	0.470189	0.072924	0.111420
C18	C	0.575710	-0.000071	0.174122
C19	C	0.470226	-0.073056	0.111460
C20	C	0.410772	-0.000085	0.169770
C21	C	0.516248	0.072995	0.232402
C22	C	0.516291	-0.073050	0.232425
C23	C	0.455618	-0.000027	0.290760
C24	C	0.670727	-0.000062	0.176626
C25	C	0.315756	-0.000088	0.167276
C26	C	1.146754	-0.000094	0.162793
C27	C	1.240014	-0.000097	0.165278
C28	C	1.052392	-0.470428	0.082796
C29	C	0.976351	-0.529751	0.058400
C30	C	0.993248	-0.412367	0.171950
C31	C	1.069270	-0.529786	0.196272
C32	C	0.993236	-0.587791	0.171932
C33	C	0.917169	-0.470384	0.147498
C34	C	1.010138	-0.470414	0.285419
C35	C	0.934042	-0.529710	0.261071
C36	C	0.993256	-0.311310	0.171957
C37	C	0.993219	-0.688847	0.171926
N38	N	0.993215	0.230596	0.171920
C39	C	1.148431	-0.000111	-0.227012
C40	C	1.223700	-0.000125	-0.307480
C41	C	1.221376	-0.000122	-0.438468
C42	C	1.143774	-0.000102	-0.488989
C43	C	1.068504	-0.000088	-0.408521
C44	C	1.070837	-0.000094	-0.277532
C45	C	0.915641	-0.000057	-0.378573
C46	C	0.917963	-0.000066	-0.247584
C47	C	0.838039	-0.000037	-0.429094
C48	C	0.762767	-0.000029	-0.348625
C49	C	0.765095	-0.000033	-0.217630
C50	C	0.842694	-0.000052	-0.167116
C51	C	0.988442	-0.000075	0.401548
C52	C	0.990910	-0.000071	0.540959
H53	H	0.449777	0.134642	0.060258
H54	H	0.563632	0.000006	-0.047204
O55	O	0.959320	-0.560703	-0.056171
C56	C	0.948096	-0.488244	-0.136861
H57	H	0.981425	-0.427122	-0.102586
H58	H	0.975883	-0.505440	-0.236873
H59	H	0.877908	-0.473578	-0.136373
O60	O	0.835887	0.000085	-0.556355
C61	C	0.877018	0.076771	-0.608331
H62	H	0.922990	0.102326	-0.541590
H63	H	0.913036	0.059516	-0.703324
H64	H	0.828290	0.130479	-0.622109
H65	H	0.883966	-0.555576	0.336463
H66	H	0.703801	-0.000017	-0.152119
H67	H	0.852858	-0.444401	0.126809
O68	O	1.027368	-0.439329	0.399817
C69	C	1.107613	-0.469561	0.425115
H70	H	1.146944	-0.486236	0.332528
H71	H	1.140493	-0.415250	0.476435
H72	H	1.100293	-0.531643	0.486838
H73	H	0.844597	-0.000060	-0.060461
H74	H	0.536524	0.134783	0.283515
O75	O	0.540655	-0.146770	0.293225
C76	C	0.517440	-0.223596	0.229152
H77	H	0.510080	-0.206108	0.126766
H78	H	0.568393	-0.276570	0.232223
H79	H	0.455080	-0.250232	0.276654
O80	O	1.150583	-0.000002	-0.099751
C81	C	1.109458	0.076700	-0.047770
H82	H	1.063487	0.102284	-0.114508
H83	H	1.073440	0.059457	0.047223
H84	H	1.158190	0.130383	-0.033990
H85	H	1.133565	-0.555879	0.216852
O86	O	1.299008	-0.000186	-0.258194
C87	C	1.284926	-0.000165	-0.125327
H88	H	1.219555	-0.028183	-0.094567
H89	H	1.334623	-0.043165	-0.085109
H90	H	1.289211	0.070866	-0.088863
O91	O	0.687321	0.000033	-0.397492
C92	C	0.621382	0.000015	-0.298386
H93	H	0.645445	0.028031	-0.209395
H94	H	0.567255	0.043017	-0.325758
H95	H	0.598128	-0.071016	-0.279866
O96	O	0.416784	0.000178	0.410649
C97	C	0.440270	0.077241	0.473932
H98	H	0.461750	0.130794	0.401830
H99	H	0.383952	0.102721	0.538731
H100	H	0.494099	0.060523	0.532406
H101	H	0.449851	-0.134774	0.060286
O102	O	1.111907	-0.439406	-0.007355
C103	C	1.093778	-0.469660	-0.126842
H104	H	1.023814	-0.486288	-0.123309
H105	H	1.110200	-0.415379	-0.200082
H106	H	1.132660	-0.531774	-0.153755
H107	H	1.282667	-0.000127	-0.503986
H108	H	1.141888	-0.000089	-0.595648
