data_functionalizedCrystal
_audit_creation_method	'MofGen! by Chris Wilmer'
_symmetry_space_group_name_H-M	'P1'
_symmetry_Int_Tables_number	1
_symmetry_cell_setting	triclinic
loop_
_symmetry_equiv_pos_as_xyz
  x,y,z
_cell_length_a	12.759401
_cell_length_b	12.827892
_cell_length_c	12.759393
_cell_angle_alpha	89.970218
_cell_angle_beta	89.979062
_cell_angle_gamma	90.016917
loop_
_atom_site_label
_atom_site_type_symbol
_atom_site_fract_x
_atom_site_fract_y
_atom_site_fract_z
Zn1	Zn	1.606261	-0.415940	-0.594025
Zn2	Zn	1.606150	-0.590717	-0.418348
Zn3	Zn	1.430560	-0.415996	-0.418361
Zn4	Zn	1.430550	-0.590644	-0.593985
O5	O	1.518380	-0.503324	-0.506180
O6	O	1.753268	-0.439132	-0.570733
O7	O	1.582816	-0.567594	-0.271328
O8	O	1.453918	-0.269752	-0.441685
O9	O	1.753186	-0.567540	-0.441663
O10	O	1.583005	-0.269711	-0.570745
O11	O	1.453810	-0.439227	-0.271338
O12	O	1.283538	-0.439156	-0.441646
O13	O	1.453900	-0.567416	-0.741011
O14	O	1.283530	-0.567469	-0.570676
O15	O	1.582995	-0.439061	-0.741041
O16	O	1.582806	-0.736944	-0.441624
O17	O	1.453793	-0.736890	-0.570664
C18	C	1.245413	-0.503312	-0.506159
C19	C	1.128636	-0.503331	-0.506175
C20	C	1.073798	-0.570246	-0.573255
C21	C	0.964074	-0.570250	-0.573276
C22	C	0.964036	-0.436422	-0.439127
C23	C	1.073758	-0.436413	-0.439112
C24	C	0.814177	-0.607747	-0.697137
C25	C	0.759335	-0.674678	-0.764208
C26	C	0.794932	-0.776661	-0.780157
C27	C	0.885369	-0.811735	-0.729020
C28	C	0.940205	-0.744809	-0.661941
C29	C	0.904610	-0.642811	-0.646012
C30	C	1.223657	-0.398927	-0.315250
C31	C	1.278495	-0.332006	-0.248165
C32	C	1.242901	-0.230021	-0.232205
C33	C	1.152461	-0.194951	-0.283324
C34	C	1.097622	-0.261872	-0.350409
C35	C	1.133224	-0.363856	-0.366370
C36	C	1.518315	-0.774834	-0.506161
C37	C	1.518383	-0.890987	-0.506188
C38	C	1.582298	-0.942764	-0.442406
C39	C	1.582370	-1.062814	-0.442433
C40	C	1.792414	-0.503338	-0.506201
C41	C	1.909190	-0.503344	-0.506210
C42	C	1.518459	-0.503224	-0.780213
C43	C	1.518492	-0.503181	-0.896990
C44	C	1.518475	-0.230754	-0.506221
C45	C	1.518515	-0.114601	-0.506239
C46	C	1.585717	-0.436336	-0.951869
C47	C	1.585735	-0.436291	-1.061593
C48	C	1.451301	-0.569945	-1.061549
C49	C	1.451278	-0.569984	-0.951827
C50	C	1.623348	-0.312997	-1.211570
C51	C	1.690589	-0.246161	-1.266452
C52	C	1.793102	-0.230136	-1.230861
C53	C	1.828395	-0.280963	-1.140388
C54	C	1.761160	-0.347806	-1.085511
C55	C	1.658632	-0.363811	-1.121101
C56	C	1.413676	-0.693280	-0.801849
C57	C	1.346445	-0.760130	-0.746969
C58	C	1.243930	-0.776165	-0.782559
C59	C	1.208641	-0.725357	-0.873035
C60	C	1.275872	-0.658507	-0.927914
C61	C	1.378385	-0.642470	-0.892317
C62	C	1.518363	-0.503349	-0.233212
C63	C	1.518533	-0.503097	-0.116436
H64	H	0.914338	-0.894784	-0.742002
C65	C	1.262818	-0.511110	-0.332810
H66	H	1.324526	-0.522416	-0.292746
H67	H	1.277914	-0.521103	-0.405017
H68	H	1.210175	-0.559025	-0.311477
C69	C	1.377381	-0.643431	-1.121874
H70	H	1.387029	-0.633843	-1.195080
H71	H	1.306791	-0.628143	-1.103885
H72	H	1.392737	-0.713655	-1.103880
H73	H	1.023986	-0.233307	-0.392040
H74	H	1.463720	-0.935536	-0.560818
C75	C	1.237059	-0.602611	-1.027435
H76	H	1.291783	-0.560510	-1.055024
H77	H	1.178626	-0.559941	-1.010510
H78	H	1.216839	-0.652909	-1.078178
H79	H	0.785193	-0.524701	-0.684168
C80	C	0.734617	-0.850283	-0.853940
H81	H	0.768764	-0.916050	-0.856110
H82	H	0.732807	-0.821159	-0.922380
H83	H	0.665067	-0.859070	-0.828836
H84	H	1.661844	-0.204778	-1.340116
H85	H	1.637087	-1.107341	-0.387824
H86	H	1.640444	-0.381938	-0.907224
C87	C	1.799968	-0.403706	-0.985997
H88	H	1.870653	-0.384588	-0.972655
H89	H	1.795694	-0.476986	-0.995795
H90	H	1.757503	-0.384005	-0.928133
C91	C	1.656153	-0.882593	-0.368609
H92	H	1.646411	-0.809799	-0.378268
H93	H	1.726762	-0.900356	-0.384034
H94	H	1.640834	-0.900492	-0.297989
C95	C	1.444586	-1.054469	-0.580017
H96	H	1.404530	-1.102533	-0.620047
H97	H	1.484765	-1.011819	-0.625779
H98	H	1.398838	-1.011963	-0.539732
H99	H	1.911875	-0.267917	-1.111422
H100	H	0.685702	-0.646111	-0.805845
C101	C	1.134165	-0.643849	-0.647020
H102	H	1.207367	-0.634271	-0.637397
H103	H	1.116225	-0.628646	-0.717641
H104	H	1.116156	-0.714047	-0.631513
C105	C	1.867062	-0.156615	-1.291227
H106	H	1.831361	-0.128638	-1.350200
H107	H	1.926819	-0.194398	-1.314199
H108	H	1.888616	-0.101432	-1.246522
C109	C	0.903667	-0.362830	-0.365353
H110	H	0.830466	-0.372426	-0.374959
H111	H	0.921668	-0.292631	-0.380842
H112	H	0.921615	-0.378049	-0.294732
H113	H	1.497149	-0.680222	-0.772857
C114	C	1.510579	-0.330616	-1.250714
H115	H	1.475583	-0.377693	-1.205068
H116	H	1.512383	-0.358997	-1.319441
H117	H	1.474192	-0.266024	-1.251768
H118	H	1.125166	-0.738417	-0.902016
H119	H	1.375190	-0.801510	-0.673306
C120	C	1.039678	-0.783372	-0.605693
H121	H	1.067236	-0.728906	-0.563460
H122	H	1.090449	-0.803550	-0.656227
H123	H	1.022711	-0.841446	-0.562675
C124	C	1.113298	-0.082769	-0.265776
H125	H	1.051577	-0.071471	-0.305823
H126	H	1.165935	-0.034855	-0.287107
H127	H	1.098202	-0.072779	-0.193563
C128	C	1.303222	-0.156410	-0.158410
H129	H	1.362184	-0.191898	-0.130248
H130	H	1.258485	-0.134915	-0.102963
H131	H	1.326227	-0.097007	-0.196507
H132	H	1.352136	-0.360569	-0.206540
H133	H	1.189195	-0.830609	-0.737871
