data_functionalizedCrystal
_audit_creation_method	'MofGen! by Chris Wilmer'
_symmetry_space_group_name_H-M	'P1'
_symmetry_Int_Tables_number	1
_symmetry_cell_setting	triclinic
loop_
_symmetry_equiv_pos_as_xyz
  x,y,z
_cell_length_a	19.805407
_cell_length_b	19.805405
_cell_length_c	19.805399
_cell_angle_alpha	90.026615
_cell_angle_beta	90.017803
_cell_angle_gamma	90.024042
loop_
_atom_site_label
_atom_site_type_symbol
_atom_site_fract_x
_atom_site_fract_y
_atom_site_fract_z
Zn1	Zn	1.034734	-0.269527	0.382692
Zn2	Zn	1.534734	0.230473	0.882692
Zn3	Zn	1.034648	-0.382716	0.269506
Zn4	Zn	1.534648	0.117284	0.769506
Zn5	Zn	0.921549	-0.269541	0.269520
Zn6	Zn	1.421549	0.230459	0.769520
Zn7	Zn	0.921512	-0.382674	0.382656
Zn8	Zn	1.421512	0.117326	0.882656
O9	O	0.978111	-0.326115	0.326094
O10	O	1.478111	0.173885	0.826094
O11	O	1.129439	-0.284554	0.367687
O12	O	1.629439	0.215446	0.867687
O13	O	1.019625	-0.367726	0.174791
O14	O	1.519625	0.132274	0.674791
O15	O	0.936615	-0.174822	0.284554
O16	O	1.436615	0.325178	0.784554
O17	O	1.129376	-0.367713	0.284529
O18	O	1.629376	0.132287	0.784529
O19	O	1.019771	-0.174813	0.367701
O20	O	1.519771	0.325187	0.867701
O21	O	0.936531	-0.284576	0.174802
O22	O	1.436531	0.215424	0.674802
O23	O	0.826827	-0.284536	0.284519
O24	O	1.326827	0.215464	0.784519
O25	O	0.936551	-0.367642	0.477378
O26	O	1.436551	0.132358	0.977378
O27	O	0.826800	-0.367655	0.367639
O28	O	1.326800	0.132345	0.867639
O29	O	1.019735	-0.284514	0.477404
O30	O	1.519735	0.215486	0.977404
O31	O	1.019589	-0.477427	0.284494
O32	O	1.519589	0.022573	0.784494
O33	O	0.936468	-0.477396	0.367625
O34	O	1.436468	0.022604	0.867625
C35	C	0.802255	-0.326093	0.326077
C36	C	1.302255	0.173907	0.826077
C37	C	0.727023	-0.326101	0.326086
C38	C	1.227023	0.173899	0.826086
C39	C	0.691712	-0.282876	0.369452
C40	C	1.191712	0.217124	0.869452
C41	C	0.621024	-0.282880	0.369455
C42	C	1.121024	0.217120	0.869455
C43	C	0.585647	-0.326112	0.326094
C44	C	1.085647	0.173888	0.826094
C45	C	0.620963	-0.369338	0.282724
C46	C	1.120963	0.130662	0.782724
C47	C	0.691650	-0.369330	0.282718
C48	C	1.191650	0.130670	0.782718
C49	C	0.335890	-0.369368	0.282744
C50	C	0.835890	0.130632	0.782744
C51	C	0.265197	-0.369374	0.282755
C52	C	0.765197	0.130626	0.782755
C53	C	0.265263	-0.282918	0.369481
C54	C	0.765263	0.217082	0.869481
C55	C	0.335950	-0.282910	0.369476
C56	C	0.835950	0.217090	0.869476
C57	C	0.371260	-0.326134	0.326103
C58	C	0.871260	0.173866	0.826103
C59	C	0.447908	-0.326128	0.326099
C60	C	0.947908	0.173872	0.826099
C61	C	0.509000	-0.326121	0.326100
C62	C	1.009000	0.173879	0.826100
C63	C	0.978034	-0.501971	0.326069
C64	C	1.478034	-0.001971	0.826069
C65	C	0.978063	-0.577203	0.326081
C66	C	1.478063	-0.077203	0.826081
C67	C	1.021337	-0.612483	0.369410
C68	C	1.521337	-0.112483	0.869410
C69	C	1.021361	-0.683172	0.369422
C70	C	1.521361	-0.183172	0.869422
C71	C	0.978114	-0.718578	0.326103
C72	C	1.478114	-0.218578	0.826103
C73	C	0.934835	-0.683292	0.282772
C74	C	1.434835	-0.183292	0.782772
C75	C	0.934808	-0.612605	0.282763
C76	C	1.434808	-0.112605	0.782763
C77	C	0.934944	-0.968366	0.282807
C78	C	1.434944	-0.468366	0.782807
C79	C	0.934976	-1.039058	0.282817
C80	C	1.434976	-0.539058	0.782817
C81	C	1.021497	-1.038932	0.369466
C82	C	1.521497	-0.538932	0.869466
C83	C	1.021470	-0.968245	0.369457
C84	C	1.521470	-0.468245	0.869457
C85	C	0.978189	-0.932965	0.326129
C86	C	1.478189	-0.432965	0.826129
C87	C	0.978162	-0.856317	0.326117
C88	C	1.478162	-0.356317	0.826117
C89	C	0.978144	-0.795225	0.326111
C90	C	1.478144	-0.295225	0.826111
C91	C	1.154653	-0.326136	0.326111
C92	C	1.654653	0.173864	0.826111
C93	C	1.229885	-0.326146	0.326118
C94	C	1.729885	0.173854	0.826118
C95	C	0.978149	-0.326072	0.502636
C96	C	1.478149	0.173928	1.002636
C97	C	0.978165	-0.326054	0.577868
C98	C	1.478165	0.173946	1.077868
C99	C	0.978207	-0.149572	0.326133
C100	C	1.478207	0.350428	0.826133
C101	C	0.978247	-0.074340	0.326150
C102	C	1.478247	0.425660	0.826150
C103	C	0.978112	-0.326108	0.150238
C104	C	1.478112	0.173892	0.650238
C105	C	0.978227	-0.325936	0.075006
C106	C	1.478227	0.174064	0.575006
C107	C	1.021480	-0.282766	0.613227
C108	C	1.521480	0.217234	1.113227
C109	C	1.021487	-0.282747	0.683916
C110	C	1.521487	0.217253	1.183916
C111	C	0.978182	-0.326018	0.719244
C112	C	1.478182	0.173982	1.219244
C113	C	0.934862	-0.369308	0.683880
C114	C	1.434862	0.130692	1.183880
C115	C	0.934852	-0.369323	0.613193
C116	C	1.434852	0.130677	1.113193
C117	C	0.934900	-0.369244	0.968954
C118	C	1.434900	0.130756	1.468954
C119	C	0.934915	-0.369227	1.039646
C120	C	1.434915	0.130773	1.539646
C121	C	1.021535	-0.282668	1.039677
C122	C	1.521535	0.217332	1.539677
C123	C	1.021525	-0.282684	0.968989
C124	C	1.521525	0.217316	1.468989
C125	C	0.978203	-0.325970	0.933632
C126	C	1.478203	0.174030	1.433632
C127	C	0.978195	-0.325990	0.856983
C128	C	1.478195	0.174010	1.356983
C129	C	0.978193	-0.326002	0.795891
C130	C	1.478193	0.173998	1.295891
H131	H	0.364630	-0.404564	0.247428
H132	H	0.864630	0.095436	0.747428
O133	O	0.892912	-0.411329	0.934545
O134	O	1.392912	0.088671	1.434545
C135	C	0.883725	-0.502767	0.854760
C136	C	1.383725	-0.002767	1.354760
C137	C	0.931357	-0.455135	0.893672
C138	C	1.431357	0.044865	1.393672
H139	H	0.914789	-0.538205	0.821716
H140	H	1.414789	-0.038205	1.321716
H141	H	0.848350	-0.471735	0.821626
H142	H	1.348350	0.028265	1.321626
H143	H	0.852768	-0.533655	0.892176
H144	H	1.352768	-0.033655	1.392176
H145	H	0.962358	-0.424236	0.856306
H146	H	1.462358	0.075764	1.356306
H147	H	0.966687	-0.486205	0.926817
H148	H	1.466687	0.013795	1.426817
H149	H	0.899648	-0.404465	1.068408
H150	H	1.399648	0.095535	1.568408
O151	O	1.063617	-0.240827	0.578881
O152	O	1.563617	0.259173	1.078881
C153	C	1.154963	-0.231740	0.499058
C154	C	1.654963	0.268260	0.999058
C155	C	1.107299	-0.279318	0.537923
C156	C	1.607299	0.220682	1.037923
H157	H	1.190282	-0.262840	0.465923
H158	H	1.690282	0.237160	0.965923
H159	H	1.185971	-0.200807	0.536444
H160	H	1.685971	0.299193	1.036444
H161	H	1.123885	-0.196341	0.465999
H162	H	1.623885	0.303659	0.965999
H163	H	1.138325	-0.314758	0.570983
H164	H	1.638325	0.185242	1.070983
H165	H	1.076289	-0.310203	0.500501
H166	H	1.576289	0.189797	1.000501
O167	O	1.063677	-0.240591	1.073920
O168	O	1.563677	0.259409	1.573920
C169	C	1.149567	-0.154707	1.066487
C170	C	1.649567	0.345293	1.566487
C171	C	1.101887	-0.202333	1.027626
C172	C	1.601887	0.297667	1.527626
H173	H	1.180462	-0.123753	1.029076
H174	H	1.680462	0.376247	1.529076
H175	H	1.184991	-0.185746	1.099563
H176	H	1.684991	0.314254	1.599563
H177	H	1.118506	-0.119330	1.099601
H178	H	1.618506	0.380670	1.599601
H179	H	1.132893	-0.237719	0.994476
H180	H	1.632893	0.262281	1.494476
H181	H	1.066461	-0.171252	0.994593
H182	H	1.566461	0.328748	1.494593
H183	H	0.899756	-1.067884	0.247540
H184	H	1.399756	-0.567884	0.747540
H185	H	0.899620	-0.712126	0.247503
H186	H	1.399620	-0.212126	0.747503
H187	H	0.592154	-0.404535	0.247416
H188	H	1.092154	0.095465	0.747416
H189	H	0.899704	-0.939647	0.247527
H190	H	1.399704	-0.439647	0.747527
H191	H	0.899569	-0.583880	0.247482
H192	H	1.399569	-0.083880	0.747482
H193	H	0.720399	-0.404528	0.247405
H194	H	1.220399	0.095472	0.747405
O195	O	1.063367	-0.578197	0.411557
O196	O	1.563367	-0.078197	0.911557
C197	C	1.149211	-0.585542	0.497483
C198	C	1.649211	-0.085542	0.997483
C199	C	1.101637	-0.624452	0.449793
C200	C	1.601637	-0.124452	0.949793
H201	H	1.180175	-0.622922	0.528399
H202	H	1.680175	-0.122922	1.028399
H203	H	1.118132	-0.552472	0.532887
H204	H	1.618132	-0.052472	1.032887
H205	H	1.184582	-0.552418	0.466429
H206	H	1.684582	-0.052418	0.966429
H207	H	1.066257	-0.657613	0.480793
H208	H	1.566257	-0.157613	0.980793
H209	H	1.132758	-0.657479	0.414388
H210	H	1.632758	-0.157479	0.914388
O211	O	1.063307	-0.717468	0.411582
O212	O	1.563307	-0.217468	0.911582
C213	C	1.072413	-0.797234	0.502963
C214	C	1.572413	-0.297234	1.002963
C215	C	1.024828	-0.758428	0.455268
C216	C	1.524828	-0.258428	0.955268
H217	H	1.041322	-0.830370	0.538287
H218	H	1.541322	-0.330370	1.038287
H219	H	1.103306	-0.759811	0.533965
H220	H	1.603306	-0.259811	1.033965
H221	H	1.107849	-0.830288	0.471909
H222	H	1.607849	-0.330288	0.971909
H223	H	0.989351	-0.725374	0.486270
H224	H	1.489351	-0.225374	0.986270
H225	H	0.993982	-0.795888	0.424264
H226	H	1.493982	-0.295888	0.924264
H227	H	1.056688	-0.939419	0.404730
H228	H	1.556688	-0.439419	0.904730
O229	O	1.063464	-0.240620	0.718289
O230	O	1.563464	0.259380	1.218289
C231	C	1.072626	-0.149230	0.798132
C232	C	1.572626	0.350770	1.298132
C233	C	1.025010	-0.196894	0.759239
C234	C	1.525010	0.303106	1.259239
H235	H	1.041556	-0.113875	0.831260
H236	H	1.541556	0.386125	1.331260
H237	H	1.103560	-0.118260	0.760765
H238	H	1.603560	0.381740	1.260765
H239	H	1.108022	-0.180306	0.831200
H240	H	1.608022	0.319694	1.331200
H241	H	0.989574	-0.165870	0.726170
H242	H	1.489574	0.334130	1.226170
H243	H	0.994123	-0.227866	0.796643
H244	H	1.494123	0.272134	1.296643
O245	O	0.892828	-0.411436	0.718122
O246	O	1.392828	0.088564	1.218122
C247	C	0.859941	-0.526562	0.739748
C248	C	1.359941	-0.026562	1.239748
C249	C	0.907574	-0.478926	0.700917
C250	C	1.407574	0.021074	1.200917
H251	H	0.871855	-0.581138	0.725863
H252	H	1.371855	-0.081138	1.225863
H253	H	0.805356	-0.514728	0.725832
H254	H	1.305356	-0.014728	1.225832
H255	H	0.867378	-0.519082	0.796340
H256	H	1.367378	-0.019082	1.296340
H257	H	0.900196	-0.486379	0.644316
H258	H	1.400196	0.013621	1.144316
H259	H	0.962141	-0.490772	0.714889
H260	H	1.462141	0.009228	1.214889
O261	O	1.063498	-1.073132	0.411658
O262	O	1.563498	-0.573132	0.911658
C263	C	1.096258	-1.094693	0.526829
C264	C	1.596258	-0.594693	1.026829
C265	C	1.048663	-1.055909	0.479125
C266	C	1.548663	-0.555909	0.979125
H267	H	1.084272	-1.080794	0.581387
H268	H	1.584272	-0.580794	1.081387
H269	H	1.150850	-1.080750	0.515049
H270	H	1.650850	-0.580750	1.015049
H271	H	1.088857	-1.151293	0.519363
H272	H	1.588857	-0.651293	1.019363
H273	H	1.056004	-0.999301	0.486564
H274	H	1.556004	-0.499301	0.986564
H275	H	0.994089	-1.069909	0.490917
H276	H	1.494089	-0.569909	0.990917
O277	O	0.892875	-0.411408	0.578764
O278	O	1.392875	0.088592	1.078764
C279	C	0.883719	-0.502829	0.498957
C280	C	1.383719	-0.002829	0.998957
C281	C	0.931335	-0.455202	0.537894
C282	C	1.431335	0.044798	1.037894
H283	H	0.914795	-0.538258	0.465914
H284	H	1.414795	-0.038258	0.965914
H285	H	0.848352	-0.471792	0.465818
H286	H	1.348352	0.028208	0.965818
H287	H	0.852752	-0.533727	0.536355
H288	H	1.352752	-0.033727	1.036355
H289	H	0.962346	-0.424293	0.500544
H290	H	1.462346	0.075707	1.000544
H291	H	0.966657	-0.486277	0.571042
H292	H	1.466657	0.013723	1.071042
H293	H	0.720511	-0.247674	0.404763
H294	H	1.220511	0.252326	0.904763
H295	H	0.364750	-0.247709	0.404786
H296	H	0.864750	0.252291	0.904786
O297	O	0.586828	-0.240871	0.411645
O298	O	1.086828	0.259129	0.911645
C299	C	0.594353	-0.155086	0.497640
C300	C	1.094353	0.344914	0.997640
C301	C	0.633163	-0.202642	0.449906
C302	C	1.133163	0.297358	0.949906
H303	H	0.631797	-0.124156	0.528577
H304	H	1.131797	0.375844	1.028577
H305	H	0.561278	-0.186177	0.533023
H306	H	1.061278	0.313823	1.033023
H307	H	0.561242	-0.119684	0.466620
H308	H	1.061242	0.380316	0.966620
H309	H	0.666309	-0.238054	0.480872
H310	H	1.166309	0.261946	0.980872
H311	H	0.666194	-0.171509	0.414521
H312	H	1.166194	0.328491	0.914521
H313	H	1.056791	-0.247450	0.940229
H314	H	1.556791	0.252550	1.440229
O315	O	0.230936	-0.411390	0.240565
O316	O	0.730936	0.088610	0.740565
C317	C	0.238326	-0.497168	0.154562
C318	C	0.738326	0.002832	0.654562
C319	C	0.277211	-0.449611	0.202291
C320	C	0.777211	0.050389	0.702291
H321	H	0.275722	-0.528091	0.123615
H322	H	0.775722	-0.028091	0.623615
H323	H	0.205244	-0.466078	0.119188
H324	H	0.705244	0.033922	0.619188
H325	H	0.205217	-0.532576	0.185587
H326	H	0.705217	-0.032576	0.685587
H327	H	0.310357	-0.414193	0.171320
H328	H	0.810357	0.085807	0.671320
H329	H	0.310250	-0.480742	0.237666
H330	H	0.810250	0.019258	0.737666
O331	O	0.231037	-0.240830	0.411578
O332	O	0.731037	0.259170	0.911578
C333	C	0.209435	-0.125741	0.444622
C334	C	0.709435	0.374259	0.944622
C335	C	0.248246	-0.173324	0.396915
C336	C	0.748246	0.326676	0.896915
H337	H	0.223323	-0.071153	0.432775
H338	H	0.723323	0.428847	0.932775
H339	H	0.223365	-0.137647	0.499187
H340	H	0.723365	0.362353	0.999187
H341	H	0.152839	-0.133203	0.437191
H342	H	0.652839	0.366797	0.937191
H343	H	0.304851	-0.165890	0.404286
H344	H	0.804851	0.334110	0.904286
H345	H	0.234260	-0.161408	0.342368
H346	H	0.734260	0.338592	0.842368
