data_functionalizedCrystal
_audit_creation_method	'MofGen! by Chris Wilmer'
_symmetry_space_group_name_H-M	'P1'
_symmetry_Int_Tables_number	1
_symmetry_cell_setting	triclinic
loop_
_symmetry_equiv_pos_as_xyz
  x,y,z
_cell_length_a	13.262390
_cell_length_b	13.262508
_cell_length_c	11.295483
_cell_angle_alpha	109.979812
_cell_angle_beta	70.010850
_cell_angle_gamma	88.760843
loop_
_atom_site_label
_atom_site_type_symbol
_atom_site_fract_x
_atom_site_fract_y
_atom_site_fract_z
O1	O	1.430911	0.103793	-0.528847
O2	O	1.117643	0.126906	-0.419903
O3	O	1.285838	-0.041276	-0.528842
O4	O	1.262716	0.271974	-0.419908
O5	O	1.271066	-0.026526	-0.321231
O6	O	1.102871	0.141655	-0.212291
O7	O	1.416139	0.118542	-0.321236
Cu8	Cu	1.258156	0.131445	-0.247807
Cu9	Cu	1.275626	0.114003	-0.493332
O10	O	1.247944	0.286724	-0.212296
C11	C	1.070225	0.134342	-0.303112
C12	C	0.950944	0.134512	-0.264425
C13	C	0.646929	0.102814	-0.608074
C14	C	0.759001	0.102649	-0.644426
C15	C	0.806992	0.110615	-0.549429
C16	C	0.742900	0.118745	-0.418073
C17	C	0.630819	0.118901	-0.381721
C18	C	0.790882	0.126702	-0.323076
C19	C	0.726790	0.134832	-0.191720
C20	C	0.614720	0.134989	-0.155374
C21	C	0.566729	0.127023	-0.250371
C22	C	0.902964	0.126546	-0.359428
C23	C	0.886854	0.142634	-0.133075
C24	C	0.774782	0.142798	-0.096723
C25	C	1.278514	-0.073931	-0.438023
C26	C	1.278687	-0.193206	-0.476714
C27	C	1.246958	-0.497277	-0.133085
C28	C	1.246787	-0.385210	-0.096728
C29	C	1.254762	-0.337203	-0.191722
C30	C	1.262908	-0.401275	-0.323078
C31	C	1.263070	-0.513351	-0.359435
C32	C	1.270875	-0.353278	-0.418071
C33	C	1.279020	-0.417349	-0.549428
C34	C	1.279183	-0.529415	-0.585778
C35	C	1.271208	-0.577421	-0.490785
C36	C	1.270712	-0.241202	-0.381714
C37	C	1.286825	-0.257276	-0.608064
C38	C	1.286996	-0.369343	-0.644421
C39	C	1.463557	0.111106	-0.438029
C40	C	1.582839	0.110936	-0.476724
C41	C	1.255268	0.319379	-0.303118
C42	C	1.255096	0.438654	-0.264435
N43	N	1.245876	0.143713	-0.075120
N44	N	1.287914	0.101726	-0.666023
C45	C	1.376312	0.013357	0.089708
C46	C	1.367039	0.022635	0.220380
C47	C	1.218054	0.171542	0.316896
C48	C	1.227327	0.162264	0.186225
C49	C	1.306459	0.083170	0.072633
C50	C	1.315736	0.073897	-0.058040
C51	C	1.166747	0.222798	0.038478
C52	C	1.157474	0.232076	0.169150
H53	H	0.955136	0.119929	-0.466378
Br54	Br	0.959092	0.110394	-0.598765
Br55	Br	0.845976	0.091608	-0.822689
Br56	Br	1.236109	-0.562428	-0.004171
Br57	Br	1.290217	-0.616364	-0.764039
H58	H	0.475471	0.127160	-0.220778
Br59	Br	1.297621	-0.192131	-0.736983
Br60	Br	1.110652	0.278864	0.471063
Br61	Br	1.071952	0.317558	0.015296
Br62	Br	0.581804	0.091938	-0.737007
H63	H	0.562542	0.141589	-0.048423
Br64	Br	0.687788	0.153834	0.081541
Br65	Br	1.461838	-0.072119	0.243549
H66	H	1.271352	-0.668675	-0.520382
H67	H	0.925927	0.149119	-0.055721
Br68	Br	1.423133	-0.033438	-0.212197
H69	H	1.264070	-0.189044	-0.274760
H70	H	1.254621	-0.245953	-0.162111
H71	H	1.240166	-0.333053	0.010218
Br72	Br	1.298057	-0.456309	-0.822687
Br73	Br	1.483717	-0.093967	-0.064452
H74	H	1.093043	0.296471	0.261649
