data_functionalizedCrystal
_audit_creation_method	'MofGen! by Chris Wilmer'
_symmetry_space_group_name_H-M	'P1'
_symmetry_Int_Tables_number	1
_symmetry_cell_setting	triclinic
loop_
_symmetry_equiv_pos_as_xyz
  x,y,z
_cell_length_a	14.971486
_cell_length_b	8.140239
_cell_length_c	14.971486
_cell_angle_alpha	90.003728
_cell_angle_beta	83.614129
_cell_angle_gamma	89.997766
loop_
_atom_site_label
_atom_site_type_symbol
_atom_site_fract_x
_atom_site_fract_y
_atom_site_fract_z
O1	O	1.186943	0.136425	0.116561
O2	O	0.926542	0.136470	0.130520
O3	O	1.063722	0.136435	-0.006659
O4	O	1.049763	0.136461	0.253741
O5	O	1.063714	-0.136792	-0.006661
O6	O	0.926535	-0.136757	0.130519
O7	O	1.186935	-0.136802	0.116560
Zn8	Zn	1.056734	-0.180160	0.123539
Zn9	Zn	1.056744	0.179828	0.123541
O10	O	1.049756	-0.136766	0.253739
C11	C	0.893214	-0.000138	0.129895
C12	C	0.793917	-0.000121	0.128024
N13	N	1.056733	-0.425843	0.123537
C14	C	0.736692	-0.000115	0.208614
C15	C	0.643392	-0.000140	0.206850
C16	C	0.607320	-0.000159	0.124497
C17	C	0.664552	-0.000169	0.043902
C18	C	0.757850	-0.000156	0.045666
C19	C	0.470090	-0.000192	0.040231
C20	C	0.376786	-0.000202	0.038466
C21	C	0.355632	-0.000176	0.201415
C22	C	0.448930	-0.000163	0.203179
C23	C	0.506156	-0.000170	0.122584
C24	C	1.220263	-0.000190	0.117185
C25	C	1.319561	-0.000196	0.119056
C26	C	1.063094	-0.000178	-0.039985
C27	C	1.061223	-0.000176	-0.139282
N28	N	1.056751	0.425511	0.123536
C29	C	1.141812	-0.000191	-0.196507
C30	C	1.140049	-0.000175	-0.289807
C31	C	1.057696	-0.000154	-0.325879
C32	C	0.977101	-0.000134	-0.268646
C33	C	0.978865	-0.000139	-0.175349
C34	C	0.973430	-0.000128	-0.463109
C35	C	0.971665	-0.000126	-0.556413
C36	C	1.134614	-0.000163	-0.577567
C37	C	1.136378	-0.000168	-0.484269
C38	C	1.055782	-0.000151	-0.427043
C39	C	1.050384	-0.000150	0.287065
C40	C	1.052254	-0.000141	0.386362
H41	H	0.596802	-0.000133	0.272474
H42	H	0.907800	-0.000110	-0.416517
O43	O	1.225205	-0.000184	-0.445368
H44	H	1.229908	-0.111556	-0.403379
H45	H	0.516682	-0.000201	-0.025399
O46	O	1.221546	-0.000189	-0.639282
H47	H	1.260966	0.111149	-0.626435
O48	O	0.775597	-0.000111	0.297438
H49	H	0.720127	-0.000133	0.353180
H50	H	1.208874	-0.000218	-0.167145
H51	H	0.635175	-0.000208	-0.023152
O52	O	0.337881	-0.000243	-0.050359
H53	H	0.295881	-0.111610	-0.055042
O54	O	0.819579	-0.000157	-0.041254
H55	H	0.778823	-0.000157	-0.098817
O56	O	1.226969	-0.000218	-0.351532
H57	H	1.284531	-0.000263	-0.310774
H58	H	0.309033	-0.000177	0.267039
O59	O	0.882844	-0.000076	-0.595326
H60	H	0.827097	-0.000034	-0.539861
H61	H	0.910047	-0.000108	-0.298024
H62	H	0.478296	-0.000132	0.270239
H63	H	0.913240	-0.000127	-0.128756
