data_functionalizedCrystal
_audit_creation_method	'MofGen! by Chris Wilmer'
_symmetry_space_group_name_H-M	'P1'
_symmetry_Int_Tables_number	1
_symmetry_cell_setting	triclinic
loop_
_symmetry_equiv_pos_as_xyz
  x,y,z
_cell_length_a	16.992694
_cell_length_b	10.654541
_cell_length_c	16.053802
_cell_angle_alpha	92.590712
_cell_angle_beta	87.249047
_cell_angle_gamma	87.576076
loop_
_atom_site_label
_atom_site_type_symbol
_atom_site_fract_x
_atom_site_fract_y
_atom_site_fract_z
O1	O	1.045115	0.261481	-0.069324
O2	O	0.816815	0.258557	-0.069348
O3	O	0.936214	0.077733	-0.069330
O4	O	0.925715	0.442304	-0.069342
O5	O	0.929642	0.087643	0.069527
O6	O	0.810242	0.268466	0.069510
O7	O	1.038542	0.271391	0.069534
Zn8	Zn	0.923349	0.271501	0.091569
Zn9	Zn	0.932008	0.258446	-0.091383
O10	O	0.919143	0.452214	0.069516
C11	C	0.784296	0.259751	0.000077
C12	C	0.697191	0.248531	0.000068
C13	C	0.647539	0.356781	0.000065
C14	C	0.565694	0.346233	0.000077
C15	C	0.533504	0.227433	0.000086
C16	C	0.583162	0.119174	0.000091
C17	C	0.665005	0.129724	0.000085
C18	C	0.289668	0.183707	0.000110
C19	C	0.207819	0.173165	0.000113
C20	C	0.190356	0.400226	0.000101
C21	C	0.272201	0.410765	0.000090
C22	C	0.321852	0.302506	0.000099
N23	N	0.449846	0.216647	0.000095
N24	N	0.405508	0.313293	0.000096
C25	C	0.932158	0.035823	0.000098
C26	C	0.929852	-0.103819	0.000096
C27	C	1.072627	-0.119450	0.000122
C28	C	1.142928	-0.192868	0.000137
C29	C	1.140757	-0.324074	0.000134
C30	C	1.068278	-0.381864	0.000114
C31	C	0.997977	-0.308446	0.000100
C32	C	1.000155	-0.177238	0.000105
C33	C	0.855204	-0.292816	0.000068
C34	C	0.857373	-0.161610	0.000076
C35	C	0.782725	-0.350606	0.000048
C36	C	0.712422	-0.277188	0.000039
C37	C	0.714596	-0.145974	0.000043
C38	C	0.787072	-0.088192	0.000062
C39	C	1.071061	0.270196	0.000106
C40	C	1.158166	0.281416	0.000110
C41	C	0.923199	0.494124	0.000086
C42	C	0.925505	0.633766	0.000082
N43	N	0.917445	0.280412	0.216428
N44	N	0.937918	0.249526	-0.216242
C45	C	0.968268	0.203502	0.260130
C46	C	0.964146	0.209748	0.347536
C47	C	0.909203	0.292910	0.391239
C48	C	0.858374	0.369822	0.347531
C49	C	0.862493	0.363569	0.260126
C50	C	0.891209	0.320186	0.652646
C51	C	0.887095	0.326436	0.740056
C52	C	0.992866	0.166359	0.740055
C53	C	0.996984	0.160119	0.652649
C54	C	0.946152	0.237026	0.608949
N55	N	0.904989	0.299298	0.480582
N56	N	0.950363	0.230631	0.519607
H57	H	0.181613	0.076419	0.000119
C58	C	0.343664	0.066264	-0.000022
C59	C	0.394544	0.060600	-0.071453
C60	C	0.444305	-0.047569	-0.071600
H61	H	0.312866	-0.006090	-0.000064
H62	H	0.373717	0.069097	0.048374
H63	H	0.364494	0.057756	-0.119837
H64	H	0.425359	0.132929	-0.071427
H65	H	0.474359	-0.044735	-0.023204
H66	H	0.413501	-0.119915	-0.071639
H67	H	0.478838	-0.051420	-0.120061
H68	H	0.525270	0.434383	0.000074
H69	H	0.673741	0.453522	0.000058
H70	H	0.149922	0.488363	0.000095
C71	C	1.221647	-0.130201	-0.000016
C72	C	1.267566	-0.171896	-0.071458
C73	C	1.340082	-0.114186	-0.071636
H74	H	1.248426	-0.151422	0.048355
H75	H	1.212908	-0.041540	-0.000061
H76	H	1.276307	-0.260537	-0.071406
H77	H	1.240812	-0.150675	-0.119841
H78	H	1.331343	-0.025525	-0.071681
H79	H	1.366853	-0.135411	-0.023262
H80	H	1.371243	-0.142459	-0.120113
H81	H	1.066517	-0.488700	0.000101
C82	C	0.633724	-0.339876	-0.000157
C83	C	0.594579	-0.308356	-0.071614
C84	C	0.522084	-0.366100	-0.071828
H85	H	0.602357	-0.311772	0.048204
H86	H	0.642470	-0.428544	-0.000209
H87	H	0.585830	-0.219707	-0.071555
H88	H	0.625922	-0.336461	-0.119987
H89	H	0.530830	-0.454767	-0.071879
H90	H	0.490725	-0.337991	-0.023463
H91	H	0.495519	-0.344731	-0.120314
C92	C	1.027950	0.113083	0.212835
C93	C	1.071561	0.047042	0.269820
C94	C	1.126538	-0.036280	0.226286
H95	H	1.062533	0.159010	0.178726
H96	H	1.001072	0.055413	0.178767
H97	H	1.098437	0.104703	0.303874
H98	H	1.036999	0.001090	0.303931
H99	H	1.099660	-0.093949	0.192218
H100	H	1.161116	0.009657	0.192179
H101	H	1.156130	-0.081107	0.264944
H102	H	0.556946	0.022444	0.000110
H103	H	1.198003	-0.383852	0.000139
C104	C	1.019204	0.126094	0.395022
C105	C	0.974645	0.048494	0.445197
C106	C	1.025342	-0.028601	0.488941
H107	H	1.050514	0.176900	0.429178
H108	H	1.052504	0.075608	0.356498
H109	H	0.941359	0.098974	0.483716
H110	H	0.943338	-0.002339	0.411061
H111	H	1.058642	-0.079087	0.450417
H112	H	1.056648	0.022215	0.523093
H113	H	0.995116	-0.081270	0.522984
H114	H	0.657348	-0.086204	0.000027
H115	H	0.705432	0.041574	0.000087
C116	C	0.798636	0.460144	0.394826
C117	C	0.754992	0.526133	0.337843
C118	C	0.699946	0.609337	0.381378
H119	H	0.825437	0.517862	0.428917
H120	H	0.764088	0.414095	0.428913
H121	H	0.789535	0.572179	0.303770
H122	H	0.728174	0.468448	0.303750
H123	H	0.665399	0.563288	0.415465
H124	H	0.726754	0.667047	0.415468
H125	H	0.670322	0.654112	0.342722
C126	C	1.047915	0.082699	0.787549
C127	C	1.003341	0.005119	0.837724
C128	C	1.054024	-0.071984	0.881479
H129	H	1.079226	0.133501	0.821706
H130	H	1.081214	0.032200	0.749031
H131	H	0.970057	0.055612	0.876237
H132	H	0.972032	-0.045709	0.803587
H133	H	1.087323	-0.122483	0.842961
H134	H	1.085333	-0.021172	0.915631
H135	H	1.023789	-0.124639	0.915521
C136	C	0.307187	0.539715	-0.000115
C137	C	0.357003	0.547290	-0.071582
C138	C	0.389231	0.666070	-0.071821
H139	H	0.336531	0.552174	0.048239
H140	H	0.265907	0.602695	-0.000168
H141	H	0.398276	0.484329	-0.071521
H142	H	0.327677	0.534855	-0.119948
H143	H	0.347951	0.729051	-0.071874
H144	H	0.418571	0.678518	-0.023463
H145	H	0.423029	0.671230	-0.120314
H146	H	0.780962	-0.457442	0.000040
H147	H	1.041723	0.092402	0.617067
H148	H	1.074401	-0.012615	0.000136
H149	H	0.788849	0.018643	0.000070
C150	C	0.807225	0.446862	0.212632
C151	C	0.761192	0.371472	0.162485
C152	C	0.710259	0.448154	0.118731
H153	H	0.837245	0.499606	0.178456
H154	H	0.773870	0.497263	0.251150
H155	H	0.794543	0.321092	0.123971
H156	H	0.731156	0.318729	0.196640
H157	H	0.676903	0.498556	0.157249
H158	H	0.740285	0.500895	0.084560
H159	H	0.679014	0.397013	0.084707
H160	H	0.842351	0.394161	0.775635
C161	C	0.835985	0.403840	0.605358
C162	C	0.787005	0.478032	0.662342
C163	C	0.736128	0.555125	0.618808
H164	H	0.804614	0.353034	0.571269
H165	H	0.866072	0.456635	0.571269
H166	H	0.756920	0.425243	0.696417
H167	H	0.818354	0.528863	0.696433
H168	H	0.766216	0.607920	0.584719
H169	H	0.704763	0.504310	0.584721
H170	H	0.702894	0.605481	0.657465
