data_functionalizedCrystal
_audit_creation_method	'MofGen! by Chris Wilmer'
_symmetry_space_group_name_H-M	'P1'
_symmetry_Int_Tables_number	1
_symmetry_cell_setting	triclinic
loop_
_symmetry_equiv_pos_as_xyz
  x,y,z
_cell_length_a	12.594516
_cell_length_b	12.594517
_cell_length_c	12.759393
_cell_angle_alpha	90.014303
_cell_angle_beta	89.970876
_cell_angle_gamma	89.983191
loop_
_atom_site_label
_atom_site_type_symbol
_atom_site_fract_x
_atom_site_fract_y
_atom_site_fract_z
Zn1	Zn	-0.423658	-1.627274	-0.593882
Zn2	Zn	-0.601677	-1.627163	-0.418209
Zn3	Zn	-0.423715	-1.449276	-0.418234
Zn4	Zn	-0.601597	-1.449260	-0.593864
O5	O	-0.512662	-1.538243	-0.506047
O6	O	-0.447282	-1.776205	-0.570576
O7	O	-0.578128	-1.603526	-0.271191
O8	O	-0.274762	-1.472941	-0.441552
O9	O	-0.578072	-1.776123	-0.441510
O10	O	-0.274720	-1.603715	-0.570599
O11	O	-0.447380	-1.472833	-0.271209
O12	O	-0.447302	-1.300328	-0.441534
O13	O	-0.577936	-1.472914	-0.740887
O14	O	-0.577991	-1.300316	-0.570569
O15	O	-0.447204	-1.603700	-0.740900
O16	O	-0.750612	-1.603510	-0.441492
O17	O	-0.750554	-1.472806	-0.570545
C18	C	-0.512645	-1.261702	-0.506053
C19	C	-0.512664	-1.143397	-0.506080
C20	C	-0.583876	-1.003405	-0.576133
C21	C	-0.609788	-1.074174	-0.480247
C22	C	-0.486799	-1.074199	-0.601956
C23	C	-0.538663	-1.003381	-0.410114
C24	C	-0.415630	-1.003399	-0.531887
C25	C	-0.441504	-1.074137	-0.435935
C26	C	-0.789203	-1.538173	-0.506037
C27	C	-0.907508	-1.538241	-0.506068
C28	C	-0.976768	-1.467144	-0.576210
C29	C	-1.047639	-1.441209	-0.480345
C30	C	-1.047437	-1.564272	-0.601949
C31	C	-0.976821	-1.512255	-0.410152
C32	C	-0.976612	-1.635363	-0.531820
C33	C	-1.047451	-1.609466	-0.435889
C34	C	-0.235041	-1.538342	-0.506080
C35	C	-0.116736	-1.538384	-0.506095
C36	C	-0.512555	-1.538318	-0.780081
C37	C	-0.512509	-1.538349	-0.896857
C38	C	-0.512683	-0.815864	-0.506045
C39	C	-0.512701	-0.934169	-0.506051
C40	C	-0.444431	-1.606459	-0.951728
C41	C	-0.444392	-1.606484	-1.061452
C42	C	-0.580519	-1.470287	-1.061425
C43	C	-0.580552	-1.470257	-0.951703
C44	C	-0.376388	-1.674551	-0.896882
C45	C	-0.308305	-1.742667	-0.951753
C46	C	-0.308266	-1.742692	-1.061477
C47	C	-0.376311	-1.674602	-1.116330
C48	C	-0.512692	-1.538230	-0.233080
C49	C	-0.512438	-1.538405	-0.116304
H50	H	-0.464907	-1.105306	-0.683049
C51	C	-0.654361	-1.396491	-1.121167
C52	C	-0.639783	-1.411117	-1.229001
C53	C	-0.707803	-1.343167	-1.284065
H54	H	-0.638856	-1.324931	-1.103321
H55	H	-0.725904	-1.412051	-1.103228
H56	H	-0.568256	-1.395550	-1.246932
H57	H	-0.655296	-1.482662	-1.246878
H58	H	-0.779346	-1.358727	-1.266127
H59	H	-0.692291	-1.271612	-1.266211
H60	H	-0.697928	-1.353089	-1.357236
H61	H	-0.381298	-1.104998	-0.376613
C62	C	-1.088796	-1.689698	-0.356816
C63	C	-1.199954	-1.689541	-0.358293
C64	C	-1.238082	-1.763440	-0.285472
H65	H	-1.064601	-1.671178	-0.288725
H66	H	-1.063463	-1.758465	-0.374523
H67	H	-1.225277	-1.620790	-0.340579
H68	H	-1.224178	-1.708074	-0.426366
H69	H	-1.212749	-1.832207	-0.303179
H70	H	-1.213879	-1.744913	-0.217386
H71	H	-1.313506	-1.763350	-0.286470
C72	C	-0.935033	-1.744728	-0.561107
C73	C	-0.970724	-1.771499	-0.661600
C74	C	-0.932428	-1.872231	-0.688632
H75	H	-0.960261	-1.795570	-0.512087
H76	H	-0.859606	-1.744051	-0.560311
H77	H	-1.046135	-1.772185	-0.662388
H78	H	-0.945499	-1.720684	-0.710642
H79	H	-0.857002	-1.871554	-0.687837
H80	H	-0.957659	-1.923065	-0.639607
H81	H	-0.956631	-1.890404	-0.756823
H82	H	-0.945930	-1.490201	-0.329055
C83	C	-0.664038	-0.961924	-0.655182
C84	C	-0.611530	-0.900835	-0.730804
C85	C	-0.685339	-0.862616	-0.803642
H86	H	-0.715260	-0.919306	-0.620252
H87	H	-0.698492	-1.020064	-0.688239
H88	H	-0.577093	-0.842703	-0.697750
H89	H	-0.560314	-0.943429	-0.765760
H90	H	-0.719794	-0.920756	-0.836699
H91	H	-0.736557	-0.820003	-0.768703
H92	H	-0.649722	-0.821171	-0.854965
H93	H	-0.945731	-1.406912	-0.635441
C94	C	-0.306190	-0.961842	-0.560839
C95	C	-0.266200	-0.900750	-0.478107
C96	C	-0.165382	-0.862459	-0.504747
H97	H	-0.311218	-0.919210	-0.622038
H98	H	-0.259889	-1.019948	-0.573814
H99	H	-0.312489	-0.842652	-0.465145
H100	H	-0.261146	-0.943359	-0.416899
H101	H	-0.119082	-0.920566	-0.517722
H102	H	-0.170421	-0.819832	-0.565947
H103	H	-0.138233	-0.821013	-0.448614
C104	C	-1.088652	-1.593414	-0.710142
C105	C	-1.052815	-1.518655	-0.783237
C106	C	-1.090745	-1.545464	-0.882919
H107	H	-1.164068	-1.593874	-0.709365
H108	H	-1.063256	-1.661854	-0.728964
H109	H	-1.078216	-1.450233	-0.764420
H110	H	-0.977404	-1.518184	-0.784048
H111	H	-1.065349	-1.613904	-0.901740
H112	H	-1.166160	-1.545924	-0.882130
H113	H	-1.066427	-1.494750	-0.932527
H114	H	-0.635970	-1.414780	-0.907026
H115	H	-0.376414	-1.674540	-0.807539
C116	C	-0.719300	-1.115573	-0.451313
C117	C	-0.793520	-1.079762	-0.524930
C118	C	-0.894412	-1.117882	-0.498324
H119	H	-0.738317	-1.090304	-0.383710
H120	H	-0.718378	-1.191001	-0.450950
H121	H	-0.794444	-1.004350	-0.525282
H122	H	-0.774537	-1.105028	-0.592539
H123	H	-0.893490	-1.193310	-0.497961
H124	H	-0.913418	-1.092611	-0.430719
H125	H	-0.944780	-1.093598	-0.548273
H126	H	-0.252899	-1.798097	-0.907084
C127	C	-1.089184	-1.331702	-0.451507
C128	C	-1.053400	-1.257509	-0.525189
C129	C	-1.091656	-1.156621	-0.498672
H130	H	-1.063990	-1.312627	-0.383920
H131	H	-1.164611	-1.332665	-0.451144
H132	H	-0.977989	-1.256543	-0.525540
H133	H	-1.078591	-1.276549	-0.592781
H134	H	-1.167083	-1.157585	-0.498309
H135	H	-1.066460	-1.137557	-0.431084
H136	H	-1.067391	-1.106271	-0.548665
H137	H	-0.560655	-0.972404	-0.328999
C138	C	-0.376383	-1.674826	-1.235461
C139	C	-0.403559	-1.776153	-1.271758
C140	C	-0.403655	-1.776401	-1.381492
H141	H	-0.307724	-1.656519	-1.260431
H142	H	-0.426693	-1.624575	-1.260307
H143	H	-0.353251	-1.826388	-1.246923
H144	H	-0.472218	-1.794481	-1.246817
H145	H	-0.453965	-1.726150	-1.406338
H146	H	-0.334995	-1.758090	-1.406451
H147	H	-0.422103	-1.845147	-1.406133
H148	H	-0.252822	-1.798148	-1.106150
