data_functionalizedCrystal
_audit_creation_method	'MofGen! by Chris Wilmer'
_symmetry_space_group_name_H-M	'P1'
_symmetry_Int_Tables_number	1
_symmetry_cell_setting	triclinic
loop_
_symmetry_equiv_pos_as_xyz
  x,y,z
_cell_length_a	6.817900
_cell_length_b	12.257928
_cell_length_c	12.095703
_cell_angle_alpha	86.697738
_cell_angle_beta	105.446920
_cell_angle_gamma	72.012007
loop_
_atom_site_label
_atom_site_type_symbol
_atom_site_fract_x
_atom_site_fract_y
_atom_site_fract_z
V1	V	-4.088057	0.357774	-0.158964
V2	V	-3.754724	0.691108	0.174369
V3	V	-3.421391	1.024441	0.507703
O4	O	-4.064307	0.350846	0.007380
O5	O	-3.730974	0.684179	0.340713
O6	O	-3.397640	1.017513	0.674047
O7	O	-4.048866	0.355441	-0.314950
O8	O	-3.715532	0.688774	0.018384
O9	O	-3.382199	1.022107	0.351717
O10	O	-4.061960	0.513760	-0.156632
O11	O	-3.728626	0.847094	0.176701
O12	O	-3.395293	1.180427	0.510034
O13	O	-4.051123	0.191430	-0.152033
O14	O	-3.717789	0.524764	0.181300
O15	O	-3.384456	0.858097	0.514633
V16	V	-4.567602	0.337864	-0.139054
V17	V	-4.234269	0.671198	0.194280
V18	V	-3.900935	1.004531	0.527613
O19	O	-4.358042	0.401448	-0.202638
O20	O	-4.024709	0.734781	0.130695
O21	O	-3.691375	1.068115	0.464028
O22	O	-4.747815	0.294191	-0.095379
O23	O	-4.414481	0.627524	0.237954
O24	O	-4.081148	0.960857	0.571287
O25	O	-4.383587	0.340198	0.016932
O26	O	-4.050254	0.673531	0.350265
O27	O	-3.716921	1.006865	0.683599
O28	O	-4.708749	0.344793	-0.305398
O29	O	-4.375416	0.678126	0.027936
O30	O	-4.042082	1.011459	0.361269
O31	O	-4.721934	0.504208	-0.145984
O32	O	-4.388600	0.837542	0.187349
O33	O	-4.055267	1.170875	0.520682
O34	O	-4.370493	0.181878	-0.141385
O35	O	-4.037160	0.515212	0.191948
O36	O	-3.703827	0.848545	0.525281
C37	C	-3.912086	0.551777	-0.151021
C38	C	-3.578753	0.885110	0.182312
C39	C	-3.245420	1.218443	0.515646
C40	C	-3.972093	0.679297	-0.150147
C41	C	-3.638760	1.012630	0.183186
C42	C	-3.305426	1.345964	0.516520
C43	C	-3.895385	0.349826	-0.352972
C44	C	-3.562052	0.683159	-0.019639
C45	C	-3.228718	1.016492	0.313695
C46	C	-3.944777	0.348957	-0.480493
C47	C	-3.611443	0.682291	-0.147160
C48	C	-3.278110	1.015624	0.186174
C49	C	-4.081916	0.912769	-0.148548
C50	C	-3.748583	1.246103	0.184785
C51	C	-3.415250	1.579436	0.518119
C52	C	-4.020794	0.782848	-0.149437
C53	C	-3.687461	1.116182	0.183896
C54	C	-3.354128	1.449515	0.517229
C55	C	-4.200410	0.345810	0.054948
C56	C	-3.867077	0.679143	0.388282
C57	C	-3.533743	1.012476	0.721615
C58	C	-4.130258	0.346686	0.182468
C59	C	-3.796924	0.680019	0.515801
C60	C	-3.463591	1.013352	0.849135
C61	C	-4.001754	0.348257	0.415945
C62	C	-3.668420	0.681590	0.749278
C63	C	-3.335087	1.014923	1.082611
C64	C	-4.073254	0.347382	0.286022
C65	C	-3.739921	0.680716	0.619355
C66	C	-3.406588	1.014049	0.952688
C67	C	-4.190671	1.143855	-0.146994
C68	C	-3.857338	1.477188	0.186339
C69	C	-3.524005	1.810522	0.519673
C70	C	-4.130653	1.016331	-0.147844
C71	C	-3.797320	1.349664	0.185490
C72	C	-3.463987	1.682998	0.518823
