data_functionalizedCrystal
_audit_creation_method	'MofGen! by Chris Wilmer'
_symmetry_space_group_name_H-M	'P1'
_symmetry_Int_Tables_number	1
_symmetry_cell_setting	triclinic
loop_
_symmetry_equiv_pos_as_xyz
  x,y,z
_cell_length_a	11.169417
_cell_length_b	11.169416
_cell_length_c	21.395356
_cell_angle_alpha	89.979903
_cell_angle_beta	89.979762
_cell_angle_gamma	90.011219
loop_
_atom_site_label
_atom_site_type_symbol
_atom_site_fract_x
_atom_site_fract_y
_atom_site_fract_z
Zn1	Zn	1.834967	-0.477809	-0.354238
Zn2	Zn	1.834855	-0.678512	-0.249475
Zn3	Zn	1.634252	-0.477845	-0.249481
Zn4	Zn	1.634261	-0.678452	-0.354221
O5	O	1.734584	-0.578155	-0.301854
O6	O	2.002902	-0.504443	-0.340346
O7	O	1.808194	-0.651933	-0.161798
O8	O	1.660920	-0.309890	-0.263387
O9	O	2.002820	-0.651899	-0.263376
O10	O	1.808385	-0.309864	-0.340352
O11	O	1.660811	-0.504504	-0.161803
O12	O	1.466303	-0.504446	-0.263371
O13	O	1.660935	-0.651797	-0.441901
O14	O	1.466310	-0.651831	-0.340323
O15	O	1.808394	-0.504385	-0.441914
O16	O	1.808203	-0.846454	-0.263360
O17	O	1.660827	-0.846410	-0.340316
C18	C	1.422759	-0.578137	-0.301846
C19	C	1.289359	-0.578158	-0.301857
C20	C	1.734536	-0.889979	-0.301849
C21	C	1.734626	-1.023379	-0.301868
C22	C	2.047626	-0.578174	-0.301862
C23	C	2.181026	-0.578182	-0.301866
C24	C	1.734678	-0.578080	-0.465277
C25	C	1.734718	-0.578049	-0.534919
C26	C	1.734664	-0.265112	-0.301872
C27	C	1.734698	-0.131712	-0.301880
C28	C	1.657997	-0.501273	-0.567624
C29	C	1.657993	-0.501251	-0.633060
C30	C	1.734731	-0.577992	-0.665787
C31	C	1.811458	-0.654782	-0.633073
C32	C	1.811452	-0.654810	-0.567639
C33	C	1.842870	-0.587426	-0.769471
C34	C	1.842879	-0.587389	-0.834904
C35	C	1.734751	-0.577910	-0.867608
C36	C	1.626612	-0.568444	-0.834871
C37	C	1.626605	-0.568473	-0.769437
C38	C	1.734747	-0.577970	-0.736739
C39	C	1.658019	-0.501107	-0.971266
C40	C	1.658013	-0.501093	-1.036703
C41	C	1.811489	-0.654617	-1.036715
C42	C	1.811485	-0.654637	-0.971280
C43	C	1.734751	-0.577876	-0.938559
C44	C	1.734559	-0.578142	-0.139066
C45	C	1.734751	-0.577836	-0.069425
H46	H	1.595510	-0.438773	-0.540987
N47	N	1.894219	-0.737614	-0.532364
H48	H	1.949847	-0.688849	-0.505230
H49	H	1.845348	-0.793224	-0.505237
H50	H	1.873974	-0.717098	-1.063361
H51	H	1.595519	-0.438726	-0.659694
N52	N	1.509982	-0.558249	-0.734127
H53	H	1.441480	-0.552233	-0.764769
H54	H	1.498809	-0.631381	-0.706968
N55	N	1.575247	-0.418338	-0.935967
H56	H	1.624033	-0.362730	-0.908832
H57	H	1.526649	-0.369783	-0.966656
H58	H	1.873963	-0.717153	-0.944650
H59	H	1.595528	-0.438577	-1.063331
H60	H	1.538564	-0.560718	-0.861497
H61	H	1.930933	-0.595091	-0.861553
N62	N	1.959499	-0.597671	-0.734199
H63	H	2.028003	-0.603658	-0.764865
H64	H	1.970668	-0.524563	-0.707054
H65	H	1.873939	-0.717264	-0.659724
