data_functionalizedCrystal
_audit_creation_method	'MofGen! by Chris Wilmer'
_symmetry_space_group_name_H-M	'P1'
_symmetry_Int_Tables_number	1
_symmetry_cell_setting	triclinic
loop_
_symmetry_equiv_pos_as_xyz
  x,y,z
_cell_length_a	16.625548
_cell_length_b	12.759393
_cell_length_c	12.759400
_cell_angle_alpha	89.968436
_cell_angle_beta	90.015753
_cell_angle_gamma	89.978332
loop_
_atom_site_label
_atom_site_type_symbol
_atom_site_fract_x
_atom_site_fract_y
_atom_site_fract_z
Zn1	Zn	1.232733	-0.594070	-0.418174
Zn2	Zn	1.732733	-0.094070	0.081826
Zn3	Zn	1.232652	-0.418390	-0.593893
Zn4	Zn	1.732652	0.081610	-0.093893
Zn5	Zn	1.097892	-0.418400	-0.418232
Zn6	Zn	1.597892	0.081600	0.081768
Zn7	Zn	1.097883	-0.594022	-0.593815
Zn8	Zn	1.597883	-0.094022	-0.093815
O9	O	1.165290	-0.506221	-0.506029
O10	O	1.665290	-0.006221	-0.006029
O11	O	1.345554	-0.570782	-0.441492
O12	O	1.845554	-0.070782	0.058508
O13	O	1.214745	-0.271371	-0.570648
O14	O	1.714745	0.228629	-0.070648
O15	O	1.115817	-0.441727	-0.271203
O16	O	1.615817	0.058273	0.228797
O17	O	1.345495	-0.441711	-0.570592
O18	O	1.845495	0.058289	-0.070592
O19	O	1.214883	-0.570791	-0.271161
O20	O	1.714883	-0.070791	0.228839
O21	O	1.115738	-0.271378	-0.441591
O22	O	1.615738	0.228622	0.058409
O23	O	0.985059	-0.441680	-0.441515
O24	O	1.485059	0.058320	0.058485
O25	O	1.115802	-0.741050	-0.570459
O26	O	1.615802	-0.241050	-0.070459
O27	O	0.985052	-0.570709	-0.570515
O28	O	1.485052	-0.070709	-0.070515
O29	O	1.214875	-0.741085	-0.441417
O30	O	1.714875	-0.241085	0.058583
O31	O	1.214737	-0.441664	-0.740904
O32	O	1.714737	0.058336	-0.240904
O33	O	1.115723	-0.570700	-0.740847
O34	O	1.615723	-0.070700	-0.240847
C35	C	0.955799	-0.506191	-0.506014
C36	C	1.455799	-0.006191	-0.006014
C37	C	0.866178	-0.506204	-0.506033
C38	C	1.366178	-0.006204	-0.006033
C39	C	1.165242	-0.506199	-0.778996
C40	C	1.665242	-0.006199	-0.278996
C41	C	1.165295	-0.506225	-0.895773
C42	C	1.665295	-0.006225	-0.395773
C43	C	1.165346	-0.780254	-0.505923
C44	C	1.665346	-0.280254	-0.005923
C45	C	1.165371	-0.897031	-0.505878
C46	C	1.665371	-0.397031	-0.005878
C47	C	0.538002	-0.506249	-0.506039
C48	C	1.038002	-0.006249	-0.006039
C49	C	0.629311	-0.506233	-0.506035
C50	C	1.129311	-0.006233	-0.006035
C51	C	0.702087	-0.506225	-0.506037
C52	C	1.202087	-0.006225	-0.006037
C53	C	0.793402	-0.506211	-0.506031
C54	C	1.293402	-0.006211	-0.006031
C55	C	1.375599	-0.506251	-0.506045
C56	C	1.875599	-0.006251	-0.006045
C57	C	1.465220	-0.506264	-0.506051
C58	C	1.965220	-0.006264	-0.006051
C59	C	1.216965	-0.951913	-0.438679
C60	C	1.716965	-0.451913	0.061321
C61	C	1.216984	-1.061637	-0.438641
C62	C	1.716984	-0.561637	0.061359
C63	C	1.113812	-1.061587	-0.573010
C64	C	1.613812	-0.561587	-0.073010
C65	C	1.113789	-0.951865	-0.573041
C66	C	1.613789	-0.451865	-0.073041
C67	C	1.276533	-0.951943	-0.361105
C68	C	1.776533	-0.451943	0.138895
C69	C	1.276552	-1.061667	-0.361067
C70	C	1.776552	-0.561667	0.138933
C71	C	1.165280	-0.233253	-0.506058
C72	C	1.665280	0.266747	-0.006058
C73	C	1.165412	-0.116477	-0.505808
C74	C	1.665412	0.383523	-0.005808
C75	C	1.216909	-0.439110	-0.950630
C76	C	1.716909	0.060890	-0.450630
C77	C	1.216959	-0.439142	-1.060354
C78	C	1.716959	0.060858	-0.560354
C79	C	1.113774	-0.573407	-1.060354
C80	C	1.613774	-0.073407	-0.560354
C81	C	1.113729	-0.573379	-0.950632
C82	C	1.613729	-0.073379	-0.450632
C83	C	1.276480	-0.361590	-0.950630
C84	C	1.776480	0.138410	-0.450630
C85	C	1.276529	-0.361622	-1.060354
C86	C	1.776529	0.138378	-0.560354
C87	C	1.165360	-0.506266	-0.231995
C88	C	1.665360	-0.006266	0.268005
C89	C	1.165390	-0.506285	-0.115219
C90	C	1.665390	-0.006285	0.384781
H91	H	1.071815	-1.106247	-0.627690
H92	H	1.571815	-0.606247	-0.127690
C93	C	1.253954	-0.911735	-0.251200
C94	C	1.753954	-0.411735	0.248800
H95	H	1.244675	-0.969657	-0.205979
H96	H	1.744675	-0.469657	0.294021
H97	H	1.296688	-0.870386	-0.224177
H98	H	1.796688	-0.370386	0.275823
H99	H	1.206552	-0.870368	-0.255642
H100	H	1.706552	-0.370368	0.244358
C101	C	1.253993	-0.251691	-1.100710
C102	C	1.753993	0.248309	-0.600710
H103	H	1.254036	-0.251716	-1.175167
H104	H	1.754036	0.248284	-0.675167
H105	H	1.201955	-0.233447	-1.075975
H106	H	1.701955	0.266553	-0.575975
H107	H	1.292099	-0.202094	-1.075895
H108	H	1.792099	0.297906	-0.575895
H109	H	1.071773	-0.907184	-0.627757
H110	H	1.571773	-0.407184	-0.127757
H111	H	1.254209	-1.095713	-0.283758
H112	H	1.754209	-0.595713	0.216242
H113	H	1.335836	-0.917911	-0.390272
H114	H	1.835836	-0.417911	0.109728
H115	H	1.339001	-1.091450	-0.382858
H116	H	1.839001	-0.591450	0.117142
C117	C	1.056956	-0.647207	-0.890292
C118	C	1.556956	-0.147207	-0.390292
H119	H	1.026248	-0.687196	-0.938682
H120	H	1.526248	-0.187196	-0.438682
H121	H	1.087764	-0.693007	-0.847417
H122	H	1.587764	-0.193007	-0.347417
H123	H	1.021818	-0.606960	-0.847564
H124	H	1.521818	-0.106960	-0.347564
C125	C	1.057052	-0.647265	-1.120703
C126	C	1.557052	-0.147265	-0.620703
H127	H	1.064467	-0.637668	-1.193906
H128	H	1.564467	-0.137668	-0.693906
H129	H	1.068814	-0.717865	-1.102649
H130	H	1.568814	-0.217865	-0.602649
H131	H	1.002872	-0.631813	-1.102793
H132	H	1.502872	-0.131813	-0.602793
H133	H	1.338907	-0.383446	-0.920771
H134	H	1.838907	0.116554	-0.420771
C135	C	1.246292	-0.257129	-0.904763
C136	C	1.746292	0.242871	-0.404763
H137	H	1.232884	-0.210627	-0.960263
H138	H	1.732884	0.289373	-0.460263
H139	H	1.200027	-0.269545	-0.862894
H140	H	1.700027	0.230455	-0.362894
H141	H	1.287354	-0.226757	-0.862844
H142	H	1.787354	0.273243	-0.362844
C143	C	1.356670	-0.401090	-1.106218
C144	C	1.856670	0.098910	-0.606218
H145	H	1.392327	-0.418638	-1.050716
H146	H	1.892327	0.081362	-0.550716
H147	H	1.347086	-0.461348	-1.148083
H148	H	1.847086	0.038652	-0.648083
H149	H	1.380045	-0.347620	-1.148139
H150	H	1.880045	0.152380	-0.648139
