data_functionalizedCrystal
_audit_creation_method	'MofGen! by Chris Wilmer'
_symmetry_space_group_name_H-M	'P1'
_symmetry_Int_Tables_number	1
_symmetry_cell_setting	triclinic
loop_
_symmetry_equiv_pos_as_xyz
  x,y,z
_cell_length_a	6.817900
_cell_length_b	16.418049
_cell_length_c	14.858572
_cell_angle_alpha	95.075873
_cell_angle_beta	104.524003
_cell_angle_gamma	103.389670
loop_
_atom_site_label
_atom_site_type_symbol
_atom_site_fract_x
_atom_site_fract_y
_atom_site_fract_z
V1	V	-4.037872	-0.116414	-0.290289
O2	O	-4.025632	0.005052	-0.284426
O3	O	-3.988873	-0.230307	-0.288628
O4	O	-3.994518	-0.114861	-0.416746
O5	O	-4.019948	-0.111194	-0.155421
V6	V	-4.520924	-0.101857	-0.274118
O7	O	-4.300165	-0.148345	-0.325761
O8	O	-4.708829	-0.069925	-0.238647
O9	O	-4.346717	0.012037	-0.275780
O10	O	-4.650562	-0.223322	-0.279981
O11	O	-4.656246	-0.107077	-0.408987
O12	O	-4.341072	-0.103410	-0.147661
C13	C	-3.833565	-0.258065	-0.284132
C14	C	-3.874823	-0.351175	-0.283617
C15	C	-4.151994	-0.569671	-0.287100
C16	C	-4.190749	-0.657160	-0.286624
C17	C	-3.826160	-0.648599	-0.277313
C18	C	-3.787412	-0.561113	-0.277796
C19	C	-3.950333	-0.521651	-0.282685
C20	C	-4.027837	-0.696625	-0.281726
C21	C	-4.069856	-0.791484	-0.281210
C22	C	-3.908314	-0.426786	-0.283203
C23	C	-3.840765	-0.110800	-0.447559
C24	C	-3.886598	-0.110285	-0.550940
C25	C	-4.054347	-0.108399	-0.929503
C26	C	-4.007666	-0.108924	-0.824175
C27	C	-3.970474	-0.109343	-0.740225
C28	C	-3.923790	-0.109866	-0.634890
C29	C	-4.165367	0.039789	-0.280273
C30	C	-4.103347	0.132900	-0.280794
C31	C	-4.158167	-0.107473	-0.116844
C32	C	-4.091573	-0.107985	-0.013461
H33	H	-3.693520	-0.680739	-0.273331
O34	O	-4.310150	-0.531262	-0.291979
C35	C	-4.340096	-0.492440	-0.373498
H36	H	-4.189823	-0.479450	-0.396514
H37	H	-4.473980	-0.536330	-0.432295
C38	C	-4.579511	-0.424246	-0.323761
C39	C	-4.394937	-0.408285	-0.352025
H40	H	-4.613350	-0.372337	-0.310518
H41	H	-4.559343	-0.450404	-0.268842
H42	H	-4.691060	-0.460824	-0.372763
H43	H	-4.283388	-0.371717	-0.303018
H44	H	-4.415088	-0.382119	-0.406935
O45	O	-4.386594	-0.703742	-0.290743
C46	C	-4.446610	-0.673441	-0.212752
H47	H	-4.300341	-0.638848	-0.153583
H48	H	-4.547130	-0.627924	-0.234231
C49	C	-4.753615	-0.791046	-0.251141
C50	C	-4.573965	-0.748564	-0.178466
H51	H	-4.832182	-0.837383	-0.229994
H52	H	-4.713187	-0.811459	-0.303687
H53	H	-4.837358	-0.753106	-0.269034
H54	H	-4.490214	-0.786500	-0.160583
H55	H	-4.614382	-0.728158	-0.125916
H56	H	-3.623190	-0.522013	-0.274204
