data_functionalizedCrystal
_audit_creation_method	'MofGen! by Chris Wilmer'
_symmetry_space_group_name_H-M	'P1'
_symmetry_Int_Tables_number	1
_symmetry_cell_setting	triclinic
loop_
_symmetry_equiv_pos_as_xyz
  x,y,z
_cell_length_a	14.853566
_cell_length_b	14.044190
_cell_length_c	13.330367
_cell_angle_alpha	89.990836
_cell_angle_beta	89.995295
_cell_angle_gamma	88.413096
loop_
_atom_site_label
_atom_site_type_symbol
_atom_site_fract_x
_atom_site_fract_y
_atom_site_fract_z
O1	O	1.206178	0.123761	-0.083368
O2	O	1.706178	0.623761	0.416632
O3	O	0.944887	0.138506	-0.083386
O4	O	1.444887	0.638506	0.416614
O5	O	1.071607	-0.006856	-0.083358
O6	O	1.571607	0.493144	0.416642
O7	O	1.079458	0.269124	-0.083397
O8	O	1.579458	0.769124	0.416603
O9	O	1.071587	-0.006859	0.083489
O10	O	1.571587	0.493141	0.583489
O11	O	0.944866	0.138503	0.083461
O12	O	1.444866	0.638503	0.583461
O13	O	1.206158	0.123758	0.083479
O14	O	1.706158	0.623758	0.583479
Cu15	Cu	1.075510	0.131130	0.098704
Cu16	Cu	1.575510	0.631130	0.598704
Cu17	Cu	1.075534	0.131134	-0.098612
Cu18	Cu	1.575534	0.631134	0.401388
O19	O	1.079437	0.269120	0.083450
O20	O	1.579437	0.769120	0.583450
C21	C	0.911235	0.137837	0.000035
C22	C	1.411235	0.637837	0.500035
C23	C	0.810993	0.135835	0.000029
C24	C	1.310993	0.635835	0.500029
C25	C	0.387148	0.127372	-0.090900
C26	C	0.887148	0.627372	0.409100
C27	C	0.387147	0.127369	0.091003
C28	C	0.887147	0.627369	0.591003
C29	C	0.481330	0.129248	0.091000
C30	C	0.981330	0.629248	0.591000
C31	C	0.528426	0.130191	0.000045
C32	C	1.028426	0.630191	0.500045
C33	C	0.481339	0.129254	-0.090906
C34	C	0.981339	0.629254	0.409094
C35	C	0.528424	0.130195	0.181949
C36	C	1.028424	0.630195	0.681949
C37	C	0.622612	0.132075	0.181950
C38	C	1.122612	0.632075	0.681950
C39	C	0.669711	0.133011	0.090994
C40	C	1.169711	0.633011	0.590994
C41	C	0.622618	0.132073	0.000039
C42	C	1.122618	0.632073	0.500039
C43	C	0.669714	0.133016	-0.090916
C44	C	1.169714	0.633016	0.409084
C45	C	0.622624	0.132071	-0.181872
C46	C	1.122624	0.632071	0.318128
C47	C	0.528438	0.130190	-0.181862
C48	C	1.028438	0.630190	0.318138
C49	C	0.763896	0.134893	0.090984
C50	C	1.263896	0.634893	0.590984
C51	C	0.763906	0.134899	-0.090922
C52	C	1.263906	0.634899	0.409078
C53	C	1.068162	-0.042177	0.000068
C54	C	1.568162	0.457823	0.500068
C55	C	1.057918	-0.147416	0.000076
C56	C	1.557918	0.352584	0.500076
C57	C	1.111844	-0.397632	0.000041
C58	C	1.611844	0.102368	0.500041
C59	C	1.039204	-0.340098	0.000043
C60	C	1.539204	0.159902	0.500043
C61	C	1.049619	-0.232880	0.000062
C62	C	1.549619	0.267120	0.500062
C63	C	1.101431	-0.504860	0.000022
C64	C	1.601431	-0.004860	0.500022
C65	C	1.239809	0.124428	0.000055
C66	C	1.739809	0.624428	0.500055
C67	C	1.340052	0.126429	0.000054
C68	C	1.840052	0.626429	0.500054
C69	C	1.082882	0.304441	0.000022
C70	C	1.582882	0.804441	0.500022
C71	C	1.093126	0.409680	0.000007
C72	C	1.593126	0.909680	0.500007
N73	N	1.075500	0.131127	0.237486
N74	N	1.575500	0.631127	0.737486
N75	N	1.075551	0.131130	-0.237393
N76	N	1.575551	0.631130	0.262607
C77	C	1.019418	0.195475	0.710096
C78	C	1.519418	0.695475	1.210096
C79	C	1.131674	0.066785	0.710089
C80	C	1.631674	0.566785	1.210089
C81	C	1.131664	0.066783	0.605071
C82	C	1.631664	0.566783	1.105071
C83	C	1.075530	0.131128	0.552560
C84	C	1.575530	0.631128	1.052560
C85	C	1.019408	0.195476	0.605068
C86	C	1.519408	0.695476	1.105068
C87	C	1.187792	0.002442	0.552555
C88	C	1.687792	0.502442	1.052555
C89	C	1.187785	0.002437	0.447531
C90	C	1.687785	0.502437	0.947531
C91	C	1.131646	0.066779	0.395018
C92	C	1.631646	0.566779	0.895018
C93	C	1.075520	0.131129	0.447532
C94	C	1.575520	0.631129	0.947532
C95	C	1.019387	0.195474	0.395022
C96	C	1.519387	0.695474	0.895022
C97	C	0.963256	0.259821	0.447534
C98	C	1.463256	0.759821	0.947534
C99	C	0.963269	0.259818	0.552556
C100	C	1.463269	0.759818	1.052556
C101	C	1.131633	0.066782	0.289996
C102	C	1.631633	0.566782	0.789996
C103	C	1.019377	0.195475	0.289993
C104	C	1.519377	0.695475	0.789993
H105	H	0.348803	0.126599	-0.164954
H106	H	0.848803	0.626599	0.335046
H107	H	0.969193	-0.371365	0.000032
H108	H	1.469193	0.128635	0.500032
H109	H	0.490071	0.129433	0.256000
H110	H	0.990071	0.629433	0.756000
H111	H	1.181850	-0.366367	0.000056
H112	H	1.681850	0.133633	0.500056
F113	F	0.959626	0.263957	0.234116
F114	F	1.459626	0.763957	0.734116
H115	H	0.660981	0.132845	-0.255927
H116	H	1.160981	0.632845	0.244073
H117	H	0.348796	0.126608	0.165054
H118	H	0.848796	0.626608	0.665054
F119	F	0.672721	0.133079	0.278752
F120	F	1.172721	0.633079	0.778752
H121	H	0.802233	0.135671	0.165039
H122	H	1.302233	0.635671	0.665039
H123	H	0.917556	0.312215	0.404768
H124	H	1.417556	0.812215	0.904768
F125	F	1.247521	-0.066046	0.391650
F126	F	1.747521	0.433954	0.891650
F127	F	1.247537	-0.066030	0.608440
F128	F	1.747537	0.433970	1.108440
H129	H	0.917570	0.312207	0.595317
H130	H	1.417570	0.812207	1.095317
H131	H	0.973714	0.247863	0.752854
H132	H	1.473714	0.747863	1.252854
H133	H	0.490088	0.129420	-0.255914
H134	H	0.990088	0.629420	0.244086
F135	F	1.191419	-0.001687	0.765974
F136	F	1.691419	0.498313	1.265974
H137	H	1.177339	0.014396	0.247246
H138	H	1.677339	0.514396	0.747246
H139	H	0.802245	0.135663	-0.164989
H140	H	1.302245	0.635663	0.335011
