data_functionalizedCrystal
_audit_creation_method	'MofGen! by Chris Wilmer'
_symmetry_space_group_name_H-M	'P1'
_symmetry_Int_Tables_number	1
_symmetry_cell_setting	triclinic
loop_
_symmetry_equiv_pos_as_xyz
  x,y,z
_cell_length_a	18.050582
_cell_length_b	14.908571
_cell_length_c	14.908178
_cell_angle_alpha	90.179240
_cell_angle_beta	86.678937
_cell_angle_gamma	93.308132
loop_
_atom_site_label
_atom_site_type_symbol
_atom_site_fract_x
_atom_site_fract_y
_atom_site_fract_z
Zn1	Zn	-0.463318	-1.353955	-0.437499
Zn2	Zn	-0.331566	-1.345195	-0.587860
Zn3	Zn	-0.332425	-1.203601	-0.428824
Zn4	Zn	-0.449003	-1.194895	-0.579133
O5	O	-0.394078	-1.274411	-0.508329
O6	O	-0.451472	-1.478618	-0.464728
O7	O	-0.227754	-1.326390	-0.566786
O8	O	-0.356138	-1.230855	-0.304144
O9	O	-0.354675	-1.472182	-0.575197
O10	O	-0.452304	-1.341320	-0.310517
O11	O	-0.228384	-1.222362	-0.449943
O12	O	-0.342258	-1.076621	-0.441480
O13	O	-0.554829	-1.216016	-0.560323
O14	O	-0.427908	-1.070225	-0.551912
O15	O	-0.565346	-1.332877	-0.456266
O16	O	-0.340795	-1.317948	-0.712534
O17	O	-0.427075	-1.207523	-0.706122
C18	C	-0.383623	-1.040798	-0.494808
C19	C	-0.379167	-0.940856	-0.489046
C20	C	-0.382306	-1.260864	-0.741956
C21	C	-0.377298	-1.255151	-0.841908
C22	C	-0.587788	-1.274453	-0.508289
C23	C	-0.670335	-1.274470	-0.508272
C24	C	-0.913449	-1.210983	-0.564764
C25	C	-0.867202	-1.193738	-0.481475
C26	C	-0.967466	-1.274554	-0.508144
C27	C	-0.866625	-1.291716	-0.591488
C28	C	-0.821475	-1.274510	-0.508211
C29	C	-0.922306	-1.257269	-0.424809
C30	C	-0.921732	-1.355282	-0.534879
C31	C	-0.875511	-1.338071	-0.451536
C32	C	-1.051567	-1.274577	-0.508106
C33	C	-0.737376	-1.274488	-0.508239
C34	C	-0.201128	-1.274426	-0.508308
C35	C	-0.118601	-1.274597	-0.508082
C36	C	-0.404574	-1.508937	-0.521904
C37	C	-0.409047	-1.608878	-0.527688
C38	C	-0.459844	-0.746431	-0.593388
C39	C	-0.455659	-0.652527	-0.587976
C40	C	-0.366618	-0.659140	-0.472807
C41	C	-0.370803	-0.753045	-0.478218
C42	C	-0.417416	-0.796687	-0.538512
C43	C	-0.421596	-0.890593	-0.543927
C44	C	-0.332559	-0.897205	-0.428754
C45	C	-0.328375	-0.803301	-0.423342
C46	C	-0.468124	-1.359355	-1.036208
C47	C	-0.463421	-1.353990	-1.130122
C48	C	-0.363194	-1.239052	-1.123649
C49	C	-0.367897	-1.244417	-1.029736
C50	C	-0.420363	-1.304571	-0.986019
C51	C	-0.425061	-1.309940	-0.892104
C52	C	-0.324838	-1.194999	-0.885633
C53	C	-0.320136	-1.189634	-0.979546
C54	C	-0.405914	-1.288036	-0.273792
C55	C	-0.410957	-1.293842	-0.173846
H56	H	-0.843335	-1.125450	-0.458885
N57	N	-0.954435	-1.237910	-0.331449
H58	H	-1.010365	-1.238019	-0.332004
H59	H	-0.934051	-1.177135	-0.311213
N60	N	-0.316345	-0.612058	-0.407783
H61	H	-0.290100	-0.658143	-0.373838
H62	H	-0.346993	-0.575520	-0.363975
H63	H	-0.290426	-0.767755	-0.374251
H64	H	-0.298010	-0.938134	-0.384072
N65	N	-0.834361	-1.310968	-0.684812
H66	H	-0.875843	-1.319147	-0.727270
H67	H	-0.806299	-1.367598	-0.683729
N68	N	-0.471866	-0.937668	-0.608959
H69	H	-0.498109	-0.891578	-0.642899
H70	H	-0.509859	-0.978763	-0.574657
N71	N	-0.501418	-0.598320	-0.647164
H72	H	-0.531580	-0.640220	-0.686179
H73	H	-0.467301	-0.556941	-0.686483
H74	H	-0.285946	-1.150393	-0.844758
H75	H	-0.510839	-1.408341	-1.000614
H76	H	-0.502317	-1.398595	-1.170983
N77	N	-0.853384	-1.409269	-0.388083
H78	H	-0.873819	-1.396173	-0.325201
H79	H	-0.797393	-1.409188	-0.388915
N80	N	-0.306607	-1.174181	-1.170809
H81	H	-0.310877	-1.179100	-1.237918
H82	H	-0.255029	-1.189169	-1.155232
N83	N	-0.953370	-1.445710	-0.564825
H84	H	-0.933055	-1.458636	-0.627798
H85	H	-1.009331	-1.445165	-0.563948
N86	N	-0.263547	-1.124761	-1.026700
H87	H	-0.267813	-1.129675	-1.093810
H88	H	-0.211970	-1.139749	-1.011120
H89	H	-0.930296	-1.157207	-0.612550
H90	H	-0.497794	-0.781965	-0.642486
N91	N	-0.481644	-1.374820	-0.844948
H92	H	-0.511188	-1.408708	-0.890997
H93	H	-0.516296	-1.340414	-0.803872
