data_functionalizedCrystal
_audit_creation_method	'MofGen! by Chris Wilmer'
_symmetry_space_group_name_H-M	'P1'
_symmetry_Int_Tables_number	1
_symmetry_cell_setting	triclinic
loop_
_symmetry_equiv_pos_as_xyz
  x,y,z
_cell_length_a	23.096457
_cell_length_b	14.628931
_cell_length_c	14.628931
_cell_angle_alpha	60.000000
_cell_angle_beta	89.998103
_cell_angle_gamma	59.998215
loop_
_atom_site_label
_atom_site_type_symbol
_atom_site_fract_x
_atom_site_fract_y
_atom_site_fract_z
Zr1	Zr	0.557777	1.000557	-0.119981
O2	O	0.465327	1.191266	-0.265938
O3	O	0.586118	0.809851	-0.075237
O4	O	0.586118	1.000556	-0.265942
O5	O	0.465326	1.000561	0.075199
O6	O	0.681400	1.000552	-0.265945
O7	O	0.465327	1.000561	-0.075233
O8	O	0.681400	0.659416	0.075192
O9	O	0.465327	1.341698	-0.265939
O10	O	0.669313	0.888288	-0.056156
O11	O	0.598205	0.888291	0.056111
O12	O	0.598205	1.112821	-0.168420
O13	O	0.527097	1.112824	-0.056152
Zr14	Zr	0.709741	1.000552	0.119935
Zr15	Zr	0.709741	1.000551	-0.119986
Zr16	Zr	0.557777	1.000558	0.119940
Zr17	Zr	0.557777	1.240479	-0.119981
Zr18	Zr	0.709741	0.760631	0.119936
O19	O	0.681400	1.191259	0.075191
O20	O	0.681401	1.191258	-0.265946
O21	O	0.465327	1.191267	0.075199
O22	O	0.802191	0.809844	0.265893
O23	O	0.802191	0.809843	-0.075244
O24	O	0.586117	0.809852	0.265900
O25	O	0.802192	1.000548	-0.075244
O26	O	0.681400	1.000554	0.265897
O27	O	0.586118	1.000557	0.265900
O28	O	0.802191	1.000549	0.075188
O29	O	0.586118	1.341693	-0.265943
O30	O	0.681400	0.659416	0.265897
O31	O	0.802191	0.659412	0.265893
O32	O	0.802191	0.659411	0.075188
O33	O	0.465327	1.341698	-0.075233
O34	O	0.586118	1.341694	-0.075237
O35	O	0.669313	0.888288	0.168375
O36	O	0.740421	0.888285	0.056107
O37	O	0.669313	1.112819	-0.056157
O38	O	0.598205	1.112822	0.056111
C39	C	0.633759	0.700449	-0.000022
C40	C	0.633759	0.598596	-0.000022
C41	C	0.598485	0.447924	0.055669
C42	C	0.598484	0.553194	0.055670
C43	C	0.443675	1.000562	-0.000016
C44	C	0.379162	1.000564	-0.000014
C45	C	0.348859	1.000573	-0.082894
C46	C	0.288247	1.000562	-0.082893
C47	C	0.257932	1.000567	-0.000022
C48	C	0.288244	1.000550	0.082872
C49	C	0.348859	1.000549	0.082876
N50	N	0.139580	1.073755	0.025067
N51	N	0.081997	1.073759	0.025056
C52	C	0.075302	1.000567	-0.000028
N53	N	0.128361	0.927388	-0.025122
N54	N	0.185947	0.927390	-0.025117
C55	C	0.192205	1.000567	-0.000017
C56	C	-0.020723	1.000562	-0.082912
C57	C	-0.081333	1.000542	-0.082904
C58	C	-0.081339	1.000544	0.082857
C59	C	-0.020726	1.000551	0.082853
C60	C	0.009577	1.000566	-0.000037
C61	C	0.823843	1.000548	-0.000029
C62	C	0.888356	1.000545	-0.000031
C63	C	0.633759	1.000554	-0.300127
C64	C	0.633759	1.000554	-0.401980
C65	C	0.633759	1.300660	-0.000023
C66	C	0.633759	1.402513	-0.000023
C67	C	0.598485	1.111937	-0.503080
C68	C	0.598484	1.111940	-0.608351
C69	C	0.633759	1.000556	0.300082
C70	C	0.633759	1.000556	0.401935
C71	C	0.823843	0.700442	-0.000029
C72	C	0.888356	0.598587	-0.000031
C73	C	0.633758	0.700450	0.300083
C74	C	0.633758	0.598598	0.401936
C75	C	0.823843	0.700443	0.300076
C76	C	0.888355	0.598588	0.401927
C77	C	0.443675	1.300666	-0.300122
C78	C	0.379163	1.402521	-0.401972
C79	C	0.443675	1.300667	-0.000017
C80	C	0.379162	1.402522	-0.000015
C81	C	0.633760	1.300659	-0.300128
C82	C	0.633760	1.402512	-0.401981
C83	C	0.881534	0.550756	-0.058642
C84	C	0.942145	0.455065	-0.058666
C85	C	1.009576	0.407201	-0.000072
C86	C	1.016397	0.455041	0.058541
C87	C	0.955787	0.550737	0.058558
C88	C	0.955775	0.550754	0.391155
C89	C	1.016398	0.455064	0.486845
C90	C	1.009598	0.407203	0.593307
C91	C	0.942171	0.455046	0.604077
C92	C	0.881551	0.550741	0.508388
C93	C	0.311743	1.450367	-0.391200
C94	C	0.251121	1.546087	-0.486890
C95	C	0.257920	1.593953	-0.593352
C96	C	0.325347	1.546104	-0.604123
C97	C	0.385968	1.450392	-0.508433
C98	C	0.385984	1.450364	0.058586
C99	C	0.325373	1.546081	0.058584
C100	C	0.257942	1.593948	-0.000013
C101	C	0.251121	1.546103	-0.058622
C102	C	0.311731	1.450394	-0.058625
C103	C	0.669033	0.553187	0.503035
C104	C	0.669033	0.447917	0.608307
H105	H	0.663957	0.559556	-0.047710
H106	H	0.826656	0.589675	0.517175
Br107	Br	0.159622	1.611002	-0.472247
Br108	Br	0.020402	1.000544	0.195334
H109	H	0.568289	1.207295	-0.511699
Br110	Br	0.548140	1.270889	-0.752904
H111	H	0.603561	0.441555	0.511295
Br112	Br	0.477491	1.385426	0.138117
H113	H	0.663956	0.905191	-0.511339
H114	H	0.663962	0.441564	-0.047698
Br115	Br	1.107917	0.390065	0.138060
H116	H	0.603556	0.559545	0.393316
Br117	Br	0.548139	0.618288	0.135135
Br118	Br	0.684103	0.841607	-0.387599
H119	H	0.826633	0.589726	-0.106370
Br120	Br	0.719362	0.618288	0.517416
Br121	Br	1.091878	0.277329	0.723162
H122	H	0.568289	0.408861	0.103354
H123	H	0.936646	0.416063	0.690771
H124	H	0.373532	1.000581	-0.150385
Br125	Br	0.247115	1.000572	-0.195381
H126	H	0.961325	0.589709	0.304476
Br127	Br	-0.122457	1.000538	-0.195384
H128	H	0.961351	0.589669	0.106293
H129	H	0.263559	1.000551	0.150348
Br130	Br	0.389989	1.000535	0.195364
Br131	Br	0.932872	0.390156	-0.138215
H132	H	0.003953	1.000569	-0.150403
Br133	Br	0.719378	0.382824	0.752859
H134	H	0.196210	1.585092	-0.106330
Br135	Br	-0.122470	1.000530	0.195336
H136	H	1.058923	0.329278	-0.000094
Br137	Br	1.107896	0.390151	0.472202
Br138	Br	0.302496	1.385423	-0.246728
H139	H	0.208553	1.671887	-0.671260
Br140	Br	0.334562	1.611077	-0.748616
H141	H	0.440862	1.411437	-0.517218
H142	H	0.330941	1.585020	0.106315
H143	H	0.208595	1.671881	-0.000001
H144	H	0.306167	1.411445	-0.106342
