data_functionalizedCrystal
_audit_creation_method	'MofGen! by Chris Wilmer'
_symmetry_space_group_name_H-M	'P1'
_symmetry_Int_Tables_number	1
_symmetry_cell_setting	triclinic
loop_
_symmetry_equiv_pos_as_xyz
  x,y,z
_cell_length_a	8.597226
_cell_length_b	8.597278
_cell_length_c	7.681481
_cell_angle_alpha	91.841289
_cell_angle_beta	76.500515
_cell_angle_gamma	95.704515
loop_
_atom_site_label
_atom_site_type_symbol
_atom_site_fract_x
_atom_site_fract_y
_atom_site_fract_z
O1	O	-2.135928	0.184673	0.498552
O2	O	-1.672605	0.209271	0.431980
O3	O	-1.909923	-0.028041	0.431983
O4	O	-1.898610	0.421985	0.498548
O5	O	-1.880614	0.001139	0.139105
O6	O	-1.643296	0.238451	0.139102
O7	O	-2.106619	0.213853	0.205674
Zn8	Zn	-1.870304	0.230785	0.125887
Zn9	Zn	-1.908920	0.192339	0.511766
O10	O	-1.869301	0.451165	0.205671
C11	C	-1.598531	0.222843	0.276370
C12	C	-1.421480	0.219791	0.249042
C13	C	-1.892420	-0.071039	0.276378
C14	C	-1.883916	-0.242633	0.249063
C15	C	-1.180693	0.200278	0.361278
C16	C	-1.357744	0.203319	0.388591
C17	C	-1.886804	0.494163	0.361279
C18	C	-1.895310	0.665756	0.388606
N19	N	-1.935275	0.166090	0.775117
N20	N	-1.843961	0.257022	-0.137463
H21	H	-1.340597	0.231575	0.108675
H22	H	-1.750757	0.349845	0.787281
O23	O	-1.864446	-0.305398	0.081465
C24	C	-1.833676	-0.257190	-0.232605
C25	C	-1.855685	-0.185889	-0.042901
H26	H	-1.826620	-0.160607	-0.333203
H27	H	-1.718068	-0.317697	-0.267323
H28	H	-1.940171	-0.346089	-0.237707
H29	H	-1.749280	-0.096929	-0.037659
H30	H	-1.971354	-0.125482	-0.008263
H31	H	-1.911556	-0.281394	0.528985
H32	H	-2.028474	0.073250	0.850378
O33	O	-1.454138	0.189541	0.556138
C34	C	-1.518731	0.297016	0.855111
C35	C	-1.409478	0.312822	0.665435
H36	H	-1.482641	0.396654	0.943541
H37	H	-1.649140	0.302147	0.848168
H38	H	-1.505222	0.180460	0.914076
H39	H	-1.422846	0.429367	0.606359
H40	H	-1.279112	0.307599	0.672494
