data_functionalizedCrystal
_audit_creation_method	'MofGen! by Chris Wilmer'
_symmetry_space_group_name_H-M	'P1'
_symmetry_Int_Tables_number	1
_symmetry_cell_setting	triclinic
loop_
_symmetry_equiv_pos_as_xyz
  x,y,z
_cell_length_a	27.731993
_cell_length_b	27.732048
_cell_length_c	16.098538
_cell_angle_alpha	92.695138
_cell_angle_beta	87.296179
_cell_angle_gamma	82.631525
loop_
_atom_site_label
_atom_site_type_symbol
_atom_site_fract_x
_atom_site_fract_y
_atom_site_fract_z
O1	O	0.643118	0.055221	-0.069040
O2	O	0.502323	0.063993	-0.069092
O3	O	0.577093	-0.010790	-0.069049
O4	O	0.568348	0.130004	-0.069083
O5	O	0.572725	-0.006439	0.069462
O6	O	0.497955	0.068344	0.069418
O7	O	0.638751	0.059573	0.069470
Zn8	Zn	0.567659	0.064649	0.091436
Zn9	Zn	0.573414	0.058916	-0.091058
O10	O	0.563981	0.134356	0.069427
C11	C	0.482132	0.065988	0.000157
C12	C	0.428476	0.065445	0.000138
C13	C	0.047695	0.059144	-0.075323
C14	C	0.249353	0.061210	-0.075346
O15	O	0.277451	0.059441	-0.139559
N16	N	0.272193	0.063841	0.000154
C17	C	0.244615	0.065952	0.075665
O18	O	0.268669	0.068232	0.139882
C19	C	0.042958	0.063882	0.075688
C20	C	0.020121	0.061256	0.000182
C21	C	0.024858	0.056518	-0.150822
C22	C	-0.025554	0.056004	-0.150816
C23	C	-0.053129	0.058116	-0.075310
C24	C	-0.030291	0.060742	0.000189
C25	C	0.015382	0.065989	0.151198
C26	C	-0.035035	0.065471	0.151197
C27	C	-0.057872	0.062845	0.075692
C28	C	-0.108277	0.062341	0.075701
N29	N	-0.131117	0.059710	0.000201
C30	C	-0.103542	0.057598	-0.075305
C31	C	0.350488	0.067039	0.075648
C32	C	0.400902	0.067558	0.075643
C33	C	0.405637	0.062815	-0.075369
C34	C	0.355221	0.062300	-0.075363
C35	C	0.327648	0.064409	0.000148
C36	C	-0.209411	0.056519	-0.075285
C37	C	-0.259828	0.056008	-0.075272
C38	C	-0.264558	0.060748	0.075739
C39	C	-0.214146	0.061262	0.075727
C40	C	-0.186573	0.059146	0.000208
O41	O	-0.136404	0.064103	0.139881
O42	O	-0.127604	0.055308	-0.139512
C43	C	0.098107	0.059658	-0.075330
C44	C	0.120945	0.062284	0.000169
C45	C	0.093371	0.064396	0.075675
C46	C	0.171359	0.062802	0.000164
C47	C	0.198933	0.060690	-0.075342
C48	C	0.176093	0.058060	-0.150842
C49	C	0.125681	0.057546	-0.150835
C50	C	0.116210	0.067027	0.151175
C51	C	0.166622	0.067541	0.151162
C52	C	0.194196	0.065429	0.075657
C53	C	0.574725	-0.026621	0.000209
C54	C	0.574172	-0.080276	0.000216
C55	C	0.614878	-0.419100	0.000188
C56	C	0.612827	-0.620759	0.000175
O57	O	0.650050	-0.652023	0.000153
N58	N	0.568492	-0.639875	0.000160
C59	C	0.524665	-0.608572	0.000142
O60	O	0.486908	-0.629458	0.000120
C61	C	0.526717	-0.406914	0.000148
C62	C	0.571055	-0.387801	0.000172
C63	C	0.659213	-0.399986	0.000211
C64	C	0.659725	-0.349574	0.000219
C65	C	0.615902	-0.318275	0.000203
C66	C	0.571567	-0.337389	0.000180
C67	C	0.482891	-0.375612	0.000124
C68	C	0.483408	-0.325195	0.000124
C69	C	0.527747	-0.306082	0.000148
C70	C	0.528256	-0.255678	0.000172
N71	N	0.572592	-0.236562	0.000188
C72	C	0.616415	-0.267861	0.000203
C73	C	0.523591	-0.714446	0.000140
C74	C	0.523078	-0.764860	0.000140
C75	C	0.611241	-0.777044	0.000172
C76	C	0.611753	-0.726629	0.000178
C77	C	0.567927	-0.695330	0.000156
C78	C	0.617487	-0.161992	0.000220
C79	C	0.617995	-0.111574	0.000231
C80	C	0.529833	-0.099395	0.000195
C81	C	0.529325	-0.149808	0.000188
C82	C	0.573156	-0.181105	0.000198
O83	O	0.491054	-0.224386	0.000185
O84	O	0.654167	-0.246966	0.000207
C85	C	0.614366	-0.469512	0.000180
C86	C	0.570031	-0.488625	0.000157
C87	C	0.526208	-0.457326	0.000142
C88	C	0.569518	-0.539039	0.000157
C89	C	0.613341	-0.570338	0.000172
C90	C	0.657677	-0.551222	0.000188
C91	C	0.658189	-0.500810	0.000196
C92	C	0.481872	-0.476442	0.000126
C93	C	0.481364	-0.526854	0.000119
C94	C	0.525187	-0.558153	0.000135
C95	C	0.658942	0.057577	0.000220
C96	C	0.712598	0.058120	0.000234
C97	C	0.566348	0.150187	0.000168
C98	C	0.566901	0.203841	0.000156
N99	N	0.563736	0.068562	0.215983
N100	N	0.577342	0.055000	-0.215604
C101	C	0.595483	0.036832	0.259586
C102	C	0.592742	0.039574	0.346774
C103	C	0.558257	0.074047	0.390356
C104	C	0.526507	0.105779	0.346746
C105	C	0.529245	0.103034	0.259561
C106	C	0.548330	0.083987	0.653600
C107	C	0.545595	0.086730	0.740792
C108	C	0.611830	0.020524	0.740813
C109	C	0.614567	0.017785	0.653626
C110	C	0.582815	0.049514	0.610024
C111	C	0.555456	0.076852	0.479475
C112	C	0.585614	0.046707	0.520906
H113	H	0.328042	0.068755	0.137142
Br114	Br	0.062271	0.053649	-0.253308
H115	H	0.647857	-0.711071	0.000197
H116	H	0.654102	-0.096016	0.000253
Br117	Br	0.422714	-0.401538	0.000088
Br118	Br	-0.290819	0.052447	-0.177750
Br119	Br	0.078795	0.069898	0.253658
H120	H	0.487901	-0.688967	0.000122
Br121	Br	-0.171999	0.053648	-0.177776
H122	H	-0.044144	0.053864	-0.212300
H123	H	0.447719	-0.299714	0.000104
Br124	Br	0.718695	-0.442455	0.000231
Br125	Br	-0.072452	0.068327	0.253682
H126	H	0.493220	-0.165369	0.000191
H127	H	0.486973	-0.780417	0.000135
H128	H	0.637680	-0.005309	0.776322
H129	H	0.646923	-0.802536	0.000185
Br130	Br	0.642290	-0.009953	0.200448
Br131	Br	0.324233	0.058737	-0.177837
H132	H	0.503393	0.128872	0.224059
H133	H	0.107092	0.055408	-0.212319
H134	H	0.198553	0.056342	-0.212321
H135	H	0.494154	-0.073903	0.000185
H136	H	0.517511	0.114804	0.776273
Br137	Br	-0.183152	0.064833	0.178198
Br138	Br	0.719903	-0.323644	0.000228
H139	H	0.613691	0.018637	0.485419
H140	H	-0.287018	0.062469	0.137214
Br141	Br	0.505240	0.127048	0.594431
H142	H	0.694294	-0.485254	0.000215
H143	H	0.498426	0.133846	0.382236
H144	H	0.428096	0.061097	-0.136849
H145	H	0.618593	0.013736	0.382275
H146	H	0.693359	-0.576715	0.000204
Br147	Br	0.676973	-0.204459	0.000232
H148	H	0.445255	-0.542410	0.000107
Br149	Br	0.661371	-0.029000	0.594477
Br150	Br	0.431887	0.071134	0.178118
H151	H	0.527378	0.104922	0.514967
H152	H	0.033968	0.068126	0.212683
H153	H	0.185211	0.069683	0.212653
H154	H	0.446186	-0.450963	0.000111
