data_functionalizedCrystal
_audit_creation_method	'MofGen! by Chris Wilmer'
_symmetry_space_group_name_H-M	'P1'
_symmetry_Int_Tables_number	1
_symmetry_cell_setting	triclinic
loop_
_symmetry_equiv_pos_as_xyz
  x,y,z
_cell_length_a	19.188930
_cell_length_b	19.188930
_cell_length_c	7.681481
_cell_angle_alpha	84.272277
_cell_angle_beta	95.690192
_cell_angle_gamma	83.144779
loop_
_atom_site_label
_atom_site_type_symbol
_atom_site_fract_x
_atom_site_fract_y
_atom_site_fract_z
O1	O	0.919497	0.093824	-0.147013
O2	O	1.419497	0.593824	0.352987
O3	O	0.716191	0.105553	-0.146895
O4	O	1.216191	0.605553	0.353105
O5	O	0.823712	-0.001968	-0.146923
O6	O	1.323712	0.498032	0.353077
O7	O	0.811975	0.201346	-0.146985
O8	O	1.311975	0.701346	0.353015
O9	O	0.836946	-0.015232	0.145932
O10	O	1.336946	0.484768	0.645932
O11	O	0.729425	0.092289	0.145960
O12	O	1.229425	0.592289	0.645960
O13	O	0.932731	0.080561	0.145842
O14	O	1.432731	0.580561	0.645842
Zn15	Zn	0.833179	0.084319	0.192398
Zn16	Zn	1.333179	0.584319	0.692398
Zn17	Zn	0.815742	0.101795	-0.193451
Zn18	Zn	1.315742	0.601795	0.306549
O19	O	0.825209	0.188082	0.145870
O20	O	1.325209	0.688082	0.645870
C21	C	0.696797	0.098541	-0.000452
C22	C	1.196797	0.598541	0.499548
C23	C	0.619295	0.097398	-0.000405
C24	C	1.119295	0.597398	0.499595
C25	C	0.574369	0.160491	-0.000452
C26	C	1.074369	0.660491	0.499548
C27	C	0.501544	0.159420	-0.000471
C28	C	1.001544	0.659420	0.499529
C29	C	0.473647	0.095254	-0.000479
C30	C	0.973647	0.595254	0.499521
C31	C	0.518584	0.032153	-0.000422
C32	C	1.018584	0.532153	0.499578
C33	C	0.591408	0.033224	-0.000385
C34	C	1.091408	0.533224	0.499615
N35	N	0.361161	0.050724	-0.100206
N36	N	0.861161	0.550724	0.399794
N37	N	0.291980	0.049710	-0.100244
N38	N	0.791980	0.549710	0.399756
C39	C	0.254234	0.092021	-0.000585
C40	C	0.754234	0.592021	0.499415
N41	N	0.288279	0.135395	0.099092
N42	N	0.788279	0.635395	0.599092
N43	N	0.357465	0.136411	0.099122
N44	N	0.857465	0.636411	0.599122
C45	C	0.394683	0.094085	-0.000517
C46	C	0.894683	0.594085	0.499483
C47	C	0.130343	0.153957	-0.000650
C48	C	0.630343	0.653957	0.499350
C49	C	0.057517	0.152883	-0.000659
C50	C	0.557517	0.652883	0.499341
C51	C	0.074558	0.025615	-0.000627
C52	C	0.574558	0.525615	0.499373
C53	C	0.147382	0.026690	-0.000601
C54	C	0.647382	0.526690	0.499399
C55	C	0.175270	0.090863	-0.000621
C56	C	0.675270	0.590863	0.499379
C57	C	0.829950	-0.034611	-0.000490
C58	C	1.329950	0.465389	0.499510
C59	C	0.828810	-0.112117	-0.000474
C60	C	1.328810	0.387883	0.499526
C61	C	0.891899	-0.157039	-0.000503
C62	C	1.391899	0.342961	0.499497
C63	C	0.890826	-0.229862	-0.000530
C64	C	1.390826	0.270138	0.499470
C65	C	0.826662	-0.257760	-0.000494
C66	C	1.326662	0.242240	0.499506
C67	C	0.763563	-0.212827	-0.000476
C68	C	1.263563	0.287173	0.499524
C69	C	0.764637	-0.140005	-0.000466
C70	C	1.264637	0.359995	0.499534
N71	N	0.782120	-0.370280	0.099198
N72	N	1.282120	0.129720	0.599198
N73	N	0.781104	-0.439459	0.099192
N74	N	1.281104	0.060541	0.599192
C75	C	0.823422	-0.477167	-0.000528
C76	C	1.323422	0.022833	0.499472
N77	N	0.866806	-0.443086	-0.100221
N78	N	1.366806	0.056914	0.399779
N79	N	0.867824	-0.373902	-0.100207
N80	N	1.367824	0.126098	0.399793
C81	C	0.825490	-0.336722	-0.000506
C82	C	1.325490	0.163278	0.499494
C83	C	0.885353	-0.601053	-0.000589
C84	C	1.385353	-0.101053	0.499411
C85	C	0.884276	-0.673876	-0.000627
C86	C	1.384276	-0.173876	0.499373
C87	C	0.757013	-0.656840	-0.000555
C88	C	1.257013	-0.156840	0.499445
C89	C	0.758090	-0.584018	-0.000534
C90	C	1.258090	-0.084018	0.499466
C91	C	0.822262	-0.556129	-0.000543
C92	C	1.322262	-0.056129	0.499457
C93	C	0.952124	0.087573	-0.000605
C94	C	1.452124	0.587573	0.499395
C95	C	1.029626	0.088717	-0.000663
C96	C	1.529626	0.588717	0.499337
C97	C	0.818972	0.220725	-0.000567
C98	C	1.318972	0.720725	0.499433
C99	C	0.820111	0.298231	-0.000594
C100	C	1.320111	0.798231	0.499406
N101	N	0.845084	0.072392	0.455729
N102	N	1.345084	0.572392	0.955729
N103	N	0.803843	0.113717	-0.456782
N104	N	1.303843	0.613717	0.043218
H105	H	0.020939	0.204263	-0.000687
H106	H	0.520939	0.704263	0.499313
C107	C	0.901289	0.016127	0.555659
C108	C	1.401289	0.516127	1.055659
C109	C	0.937564	-0.020204	0.435632
C110	C	1.437564	0.479796	0.935632
C111	C	0.989348	-0.072033	0.527623
C112	C	1.489348	0.427967	1.027623
H113	H	0.879529	-0.016133	0.627621
H114	H	1.379529	0.483867	1.127621
H115	H	0.933579	0.037880	0.627501
H116	H	1.433579	0.537880	1.127501
H117	H	0.905279	-0.041956	0.363821
H118	H	1.405279	0.458044	0.863821
H119	H	0.959339	0.012037	0.363667
H120	H	1.459339	0.512037	0.863667
H121	H	1.021638	-0.050280	0.599464
H122	H	1.521638	0.449720	1.099464
H123	H	0.967582	-0.104288	0.599582
H124	H	1.467582	0.395712	1.099582
H125	H	1.013972	-0.096686	0.446199
H126	H	1.513972	0.403314	0.946199
H127	H	0.051840	-0.026625	-0.000742
H128	H	0.551840	0.473375	0.499258
C129	C	0.160496	0.223694	-0.000562
C130	C	0.660496	0.723694	0.499438
C131	C	0.105563	0.278719	-0.000542
C132	C	0.605563	0.778719	0.499458
C133	C	0.133312	0.342969	-0.000436
C134	C	0.633312	0.842969	0.499564
H135	H	0.183941	0.231484	-0.102649
H136	H	0.683941	0.731484	0.397351
H137	H	0.193132	0.222167	0.101614
H138	H	0.693132	0.722167	0.601614
H139	H	0.072939	0.280247	-0.102707
H140	H	0.572939	0.780247	0.397293
H141	H	0.082113	0.270953	0.101538
H142	H	0.582113	0.770953	0.601538
H143	H	0.165948	0.341441	0.101740
H144	H	0.665948	0.841441	0.601740
H145	H	0.156757	0.350751	-0.102525
H146	H	0.656757	0.850751	0.397475
H147	H	0.096046	0.380310	-0.000406
H148	H	0.596046	0.880310	0.499594
C149	C	0.954957	-0.570655	-0.000898
C150	C	1.454957	-0.070655	0.499102
C151	C	0.952471	-0.522493	-0.151533
C152	C	1.452471	-0.022493	0.348467
C153	C	1.016572	-0.494472	-0.151868
C154	C	1.516572	0.005528	0.348132
H155	H	0.992435	-0.607764	-0.001024
H156	H	1.492435	-0.107764	0.498976
H157	H	0.962640	-0.547195	0.101180
H158	H	1.462640	-0.047195	0.601180
H159	H	0.944795	-0.545953	-0.253585
H160	H	1.444795	-0.045953	0.246415
H161	H	0.915005	-0.485373	-0.151439
H162	H	1.415005	0.014627	0.348561
H163	H	1.024256	-0.471011	-0.049790
H164	H	1.524256	0.028989	0.450210
H165	H	1.054046	-0.531585	-0.151990
H166	H	1.554046	-0.031585	0.348010
H167	H	1.014892	-0.461786	-0.254063
H168	H	1.514892	0.038214	0.245937
H169	H	0.597070	0.212746	-0.000472
H170	H	1.097070	0.712746	0.499528
H171	H	0.627987	-0.018155	-0.000348
H172	H	1.127987	0.481845	0.499652
H173	H	0.761744	0.155897	0.468032
H174	H	1.261744	0.655897	0.968032
C175	C	0.687308	-0.687063	-0.000883
C176	C	1.187308	-0.187063	0.499117
C177	C	0.642381	-0.657386	-0.151549
C178	C	1.142381	-0.157386	0.348451
C179	C	0.578165	-0.685220	-0.151930
C180	C	1.078165	-0.185220	0.348070
H181	H	0.665865	-0.676276	0.101138
H182	H	1.165865	-0.176276	0.601138
H183	H	0.695668	-0.736866	-0.000992
H184	H	1.195668	-0.236866	0.499008
H185	H	0.634020	-0.607595	-0.151423
H186	H	1.134020	-0.107595	0.348577
H187	H	0.663802	-0.668171	-0.253594
H188	H	1.163802	-0.168171	0.246406
H189	H	0.586525	-0.735022	-0.152040
H190	H	1.086525	-0.235022	0.347960
H191	H	0.556728	-0.674431	-0.049903
H192	H	1.056728	-0.174431	0.450097
H193	H	0.547676	-0.665093	-0.254162
H194	H	1.047676	-0.165093	0.245838
H195	H	0.495864	-0.020091	-0.000452
H196	H	0.995864	0.479909	0.499548
H197	H	0.464959	0.210799	-0.000504
H198	H	0.964959	0.710799	0.499496
H199	H	0.944153	-0.134337	-0.000516
H200	H	1.444153	0.365663	0.499484
H201	H	0.935653	-0.710451	-0.000660
H202	H	1.435653	-0.210451	0.499340
H203	H	0.942203	-0.266445	-0.000560
H204	H	1.442203	0.233555	0.499440
C205	C	0.196043	-0.041883	-0.000661
C206	C	0.696043	0.458117	0.499339
C207	C	0.156027	-0.098306	-0.000717
C208	C	0.656027	0.401694	0.499283
C209	C	0.200828	-0.161488	-0.000790
C210	C	0.700828	0.338512	0.499210
H211	H	0.229419	-0.048835	0.101449
H212	H	0.729419	0.451165	0.601449
H213	H	0.220196	-0.039520	-0.102814
H214	H	0.720196	0.460480	0.397186
H215	H	0.131885	-0.100670	0.101425
H216	H	0.631885	0.399330	0.601425
H217	H	0.122653	-0.091378	-0.102820
H218	H	0.622653	0.408622	0.397180
H219	H	0.224981	-0.159125	-0.102942
H220	H	0.724981	0.340875	0.397058
H221	H	0.234201	-0.168432	0.101323
H222	H	0.734201	0.331568	0.601323
H223	H	0.173683	-0.199778	-0.000844
H224	H	0.673683	0.300222	0.499156
H225	H	0.706716	-0.547441	-0.000501
H226	H	1.206716	-0.047441	0.499499
H227	H	0.711320	-0.235546	-0.000451
H228	H	1.211320	0.264454	0.499549
H229	H	0.713261	-0.103428	-0.000442
H230	H	1.213261	0.396572	0.499558
