data_functionalizedCrystal
_audit_creation_method	'MofGen! by Chris Wilmer'
_symmetry_space_group_name_H-M	'P1'
_symmetry_Int_Tables_number	1
_symmetry_cell_setting	triclinic
loop_
_symmetry_equiv_pos_as_xyz
  x,y,z
_cell_length_a	10.654556
_cell_length_b	10.654551
_cell_length_c	9.130313
_cell_angle_alpha	89.998309
_cell_angle_beta	89.998135
_cell_angle_gamma	84.486449
loop_
_atom_site_label
_atom_site_type_symbol
_atom_site_fract_x
_atom_site_fract_y
_atom_site_fract_z
O1	O	1.667835	0.176437	-0.121734
O2	O	1.302358	0.193235	-0.121748
O3	O	1.493499	0.002097	-0.121741
O4	O	1.476694	0.367575	-0.121741
O5	O	1.493486	0.002091	0.121857
O6	O	1.302345	0.193229	0.121851
O7	O	1.667822	0.176431	0.121865
Cu8	Cu	1.485082	0.184830	0.144100
Cu9	Cu	1.485098	0.184836	-0.143984
O10	O	1.476681	0.367569	0.121858
C11	C	1.255554	0.191997	0.000049
C12	C	1.116111	0.188302	0.000044
C13	C	0.919572	0.183102	-0.132731
C14	C	1.050595	0.186566	-0.132740
C15	C	1.050599	0.186560	0.132845
C16	C	0.919580	0.183087	0.132853
C17	C	1.492258	-0.044704	0.000055
C18	C	1.488566	-0.184147	0.000045
C19	C	1.486841	-0.249656	-0.132739
C20	C	1.483361	-0.380677	-0.132732
C21	C	1.483336	-0.380668	0.132853
C22	C	1.486807	-0.249649	0.132845
C23	C	1.486861	-0.249663	-0.286072
C24	C	1.483380	-0.380683	-0.286066
C25	C	1.714627	0.177669	0.000064
C26	C	1.854070	0.181364	0.000060
C27	C	1.477922	0.414370	0.000059
C28	C	1.481614	0.553813	0.000059
N29	N	1.485081	0.184824	0.346723
N30	N	1.485110	0.184832	-0.346606
C31	C	1.569747	0.100224	0.423378
C32	C	1.569759	0.100224	0.576715
C33	C	1.400434	0.269436	0.576728
C34	C	1.400417	0.269428	0.423394
H35	H	1.488205	-0.196316	0.240970
O36	O	1.383295	-0.194283	-0.356111
C37	C	1.313020	-0.112202	-0.258867
H38	H	1.377253	-0.082640	-0.167855
H39	H	1.233435	-0.162533	-0.209185
C40	C	1.178102	-0.030792	-0.454485
C41	C	1.256997	0.005525	-0.342708
H42	H	1.143539	0.041825	-0.506200
H43	H	1.225444	-0.086095	-0.519999
H44	H	1.111791	-0.072736	-0.413065
H45	H	1.323314	0.047453	-0.384129
H46	H	1.209664	0.060838	-0.277202
H47	H	1.578462	-0.220093	-0.333643
H48	H	1.638683	0.031333	0.360956
H49	H	1.638700	0.031334	0.639123
O50	O	1.481411	-0.444215	0.261887
C51	C	1.373693	-0.398891	0.342673
H52	H	1.298766	-0.353596	0.264966
H53	H	1.400252	-0.325839	0.425466
C54	C	1.413388	-0.564884	0.519491
C55	C	1.321358	-0.509261	0.424048
H56	H	1.381107	-0.632962	0.569693
H57	H	1.485963	-0.595417	0.465068
H58	H	1.435513	-0.503994	0.588472
H59	H	1.299246	-0.570145	0.355058
H60	H	1.248777	-0.478740	0.478462
H61	H	1.391787	-0.410252	-0.333661
O62	O	1.586795	-0.435965	-0.356487
C63	C	1.548466	-0.504810	-0.477732
H64	H	1.449734	-0.465582	-0.512845
H65	H	1.547670	-0.608241	-0.446102
C66	C	1.762305	-0.541462	-0.562344
C67	C	1.641045	-0.493275	-0.605479
H68	H	1.819414	-0.534353	-0.641143
H69	H	1.788129	-0.495084	-0.480656
H70	H	1.761624	-0.627651	-0.535985
H71	H	1.641724	-0.407084	-0.631819
H72	H	1.615223	-0.539638	-0.687174
O73	O	0.856136	0.181371	-0.261850
C74	C	0.942049	0.183680	-0.379055
H75	H	1.040297	0.146461	-0.340129
H76	H	0.943688	0.284628	-0.419886
C77	C	0.780298	0.145826	-0.552322
C78	C	0.900965	0.100103	-0.504515
H79	H	0.754954	0.094277	-0.629715
H80	H	0.722415	0.144275	-0.473360
H81	H	0.781679	0.229949	-0.586337
H82	H	0.899578	0.015987	-0.470484
H83	H	0.958848	0.101637	-0.583474
O84	O	1.114398	0.188081	0.261738
C85	C	1.203443	0.081498	0.269699
H86	H	1.227495	0.045819	0.154406
H87	H	1.162251	0.004128	0.335236
C88	C	1.294324	0.161606	0.487212
C89	C	1.323873	0.117791	0.345606
H90	H	1.368610	0.183990	0.534040
H91	H	1.234330	0.233411	0.481853
H92	H	1.259996	0.097123	0.541807
H93	H	1.358186	0.182278	0.291007
H94	H	1.383876	0.045997	0.350957
O95	O	1.318152	0.351449	0.651375
C96	C	1.240086	0.283467	0.740069
H97	H	1.289258	0.185657	0.763038
H98	H	1.147187	0.274066	0.680999
C99	C	1.153485	0.474166	0.857509
C100	C	1.213884	0.354037	0.885730
H101	H	1.137317	0.517698	0.947357
H102	H	1.206076	0.519968	0.797751
H103	H	1.076076	0.466315	0.808281
H104	H	1.291298	0.361890	0.934940
H105	H	1.161306	0.308238	0.945500
H106	H	1.103922	0.187979	-0.240872
H107	H	0.866246	0.181670	0.240994
H108	H	1.331466	0.338320	0.360978
