data_functionalizedCrystal
_audit_creation_method	'MofGen! by Chris Wilmer'
_symmetry_space_group_name_H-M	'P1'
_symmetry_Int_Tables_number	1
_symmetry_cell_setting	triclinic
loop_
_symmetry_equiv_pos_as_xyz
  x,y,z
_cell_length_a	16.974885
_cell_length_b	15.455425
_cell_length_c	16.974813
_cell_angle_alpha	83.359617
_cell_angle_beta	83.628230
_cell_angle_gamma	90.646018
loop_
_atom_site_label
_atom_site_type_symbol
_atom_site_fract_x
_atom_site_fract_y
_atom_site_fract_z
O1	O	1.049266	-0.005631	0.100989
O2	O	1.549266	0.494369	0.600989
O3	O	0.819778	-0.022679	0.114557
O4	O	1.319778	0.477321	0.614557
O5	O	0.940575	-0.005621	-0.007701
O6	O	1.440575	0.494379	0.492299
O7	O	0.928469	-0.022689	0.223247
O8	O	1.428469	0.477311	0.723247
O9	O	0.934391	0.138636	-0.013846
O10	O	1.434391	0.638636	0.486154
O11	O	0.813594	0.121578	0.108412
O12	O	1.313594	0.621578	0.608412
O13	O	1.043082	0.138626	0.094844
O14	O	1.543082	0.638626	0.594844
Cu15	Cu	0.927774	0.143274	0.101067
Cu16	Cu	1.427774	0.643274	0.601067
Cu17	Cu	0.935087	-0.027327	0.108334
Cu18	Cu	1.435087	0.472673	0.608334
O19	O	0.922286	0.121568	0.217102
O20	O	1.422286	0.621568	0.717102
C21	C	0.787315	0.047418	0.111084
C22	C	1.287315	0.547418	0.611084
C23	C	0.699800	0.041364	0.109879
C24	C	1.199800	0.541364	0.609879
C25	C	0.207552	-0.001210	0.103437
C26	C	0.707552	0.498790	0.603437
C27	C	0.289781	0.004490	0.104568
C28	C	0.789781	0.504490	0.604568
C29	C	0.327516	0.085975	0.101790
C30	C	0.827516	0.585975	0.601790
C31	C	0.283019	0.161766	0.097872
C32	C	0.783019	0.661766	0.597872
C33	C	0.200792	0.156066	0.096735
C34	C	0.700792	0.656066	0.596735
C35	C	0.573076	0.111455	0.104825
C36	C	1.073076	0.611455	0.604825
C37	C	0.655309	0.117149	0.105965
C38	C	1.155309	0.617149	0.605965
C39	C	0.662066	-0.040127	0.112659
C40	C	1.162066	0.459873	0.612659
C41	C	0.579836	-0.045821	0.111526
C42	C	1.079836	0.454179	0.611526
C43	C	0.535346	0.029971	0.107605
C44	C	1.035346	0.529971	0.607605
N45	N	0.411567	0.091803	0.102948
N46	N	0.911567	0.591803	0.602948
N47	N	0.451298	0.024142	0.106441
N48	N	0.951298	0.524142	0.606441
C49	C	0.936907	0.068540	-0.040318
C50	C	1.436907	0.568540	0.459682
C51	C	0.935184	0.074596	-0.128351
C52	C	1.435184	0.574596	0.371649
C53	C	1.075545	0.068528	0.098317
C54	C	1.575545	0.568528	0.598317
C55	C	1.163060	0.074575	0.099522
C56	C	1.663060	0.574575	0.599522
N57	N	0.922636	0.263266	0.095956
N58	N	1.422636	0.763266	0.595956
N59	N	0.940230	-0.147318	0.113439
N60	N	1.440230	0.352682	0.613439
C61	C	0.894274	0.807276	0.067456
C62	C	1.394274	1.307276	0.567456
C63	C	0.898154	0.716468	0.071352
C64	C	1.398154	1.216468	0.571352
C65	C	0.947988	0.671067	0.121236
C66	C	1.447988	1.171067	0.621236
C67	C	0.993950	0.716479	0.167221
C68	C	1.493950	1.216479	0.667221
C69	C	0.990073	0.807286	0.163320
C70	C	1.490073	1.307286	0.663320
C71	C	0.964721	0.399485	0.138040
C72	C	1.464721	0.899485	0.638040
C73	C	0.968593	0.308672	0.141939
C74	C	1.468593	0.808672	0.641939
C75	C	0.872798	0.308668	0.046068
C76	C	1.372798	0.808668	0.546068
C77	C	0.868922	0.399476	0.042175
C78	C	1.368922	0.899476	0.542175
C79	C	0.914887	0.444880	0.088157
C80	C	1.414887	0.944880	0.588157
N81	N	0.951953	0.578246	0.125222
N82	N	1.451953	1.078246	0.625222
N83	N	0.910925	0.537700	0.084166
N84	N	1.410925	1.037700	0.584166
C85	C	0.937746	-0.001193	-0.166355
C86	C	1.437746	0.498807	0.333645
C87	C	0.936122	0.004500	-0.249071
C88	C	1.436122	0.504500	0.250929
C89	C	0.931940	0.085983	-0.293782
C90	C	1.431940	0.585983	0.206218
C91	C	0.929375	0.161777	-0.255772
C92	C	1.429375	0.661777	0.244228
C93	C	0.930994	0.156083	-0.173057
C94	C	1.430994	0.656083	0.326943
C95	C	0.926731	0.111444	-0.541523
C96	C	1.426731	0.611444	-0.041523
C97	C	0.925114	0.117132	-0.624243
C98	C	1.425114	0.617132	-0.124243
C99	C	0.931860	-0.040146	-0.617537
C100	C	1.431860	0.459854	-0.117537
C101	C	0.933483	-0.045832	-0.534821
C102	C	1.433483	0.454168	-0.034821
C103	C	0.930914	0.029962	-0.496818
C104	C	1.430914	0.529962	0.003182
N105	N	0.930281	0.091804	-0.378331
N106	N	1.430281	0.591804	0.121669
N107	N	0.932567	0.024139	-0.412269
N108	N	1.432567	0.524139	0.087731
C109	C	0.925953	0.047405	0.249719
C110	C	1.425953	0.547405	0.749719
C111	C	0.927677	0.041343	0.337752
C112	C	1.427677	0.541343	0.837752
H113	H	0.164566	0.217778	0.093556
H114	H	0.664566	0.717778	0.593556
H115	H	0.549118	-0.112174	0.113788
H116	H	1.049118	0.387826	0.613788
H117	H	0.536864	0.173171	0.101620
H118	H	1.036864	0.673171	0.601620
O119	O	0.938854	-0.077257	-0.290043
O120	O	1.438854	0.422743	0.209957
H121	H	0.994458	-0.111796	-0.279859
H122	H	1.494458	0.388204	0.220141
H123	H	0.936890	-0.112184	-0.498423
H124	H	1.436890	0.387816	0.001577
O125	O	1.014290	0.448447	0.187642
O126	O	1.514290	0.948447	0.687642
H127	H	1.054830	0.495436	0.147700
H128	H	1.554830	0.995436	0.647700
H129	H	0.686029	0.183507	0.103708
H130	H	1.186029	0.683507	0.603708
O131	O	0.323719	0.249653	0.094880
O132	O	0.823719	0.749653	0.594880
H133	H	0.278964	0.301394	0.091961
H134	H	0.778964	0.801394	0.591961
H135	H	0.326004	-0.057222	0.107751
H136	H	0.826004	0.442778	0.607751
O137	O	0.840540	0.856246	0.013636
O138	O	1.340540	1.356246	0.513636
H139	H	0.809247	0.809415	-0.017695
H140	H	1.309247	1.309415	0.482305
H141	H	0.698298	-0.101832	0.115850
H142	H	1.198298	0.398168	0.615850
H143	H	0.860733	0.679503	0.033905
H144	H	1.360733	1.179503	0.533905
O145	O	1.022349	0.259709	0.195747
O146	O	1.522349	0.759709	0.695747
H147	H	0.986398	0.212724	0.240286
H148	H	1.486398	0.712724	0.740286
H149	H	0.928896	0.217798	-0.142113
H150	H	1.428896	0.717798	0.357887
H151	H	0.828343	0.436435	0.001553
H152	H	1.328343	0.936435	0.501553
O153	O	0.166850	-0.089096	0.106434
O154	O	0.666850	0.410904	0.606434
H155	H	0.136469	-0.091161	0.052030
H156	H	0.636469	0.408839	0.552030
H157	H	0.835376	0.271689	0.008632
H158	H	1.335376	0.771689	0.508632
O159	O	1.047695	0.667516	0.221033
O160	O	1.547695	1.167516	0.721033
H161	H	1.042663	0.596742	0.216030
H162	H	1.542663	1.096742	0.716030
O163	O	0.920616	0.205019	-0.672478
O164	O	1.420616	0.705019	-0.172478
H165	H	0.866045	0.207095	-0.703051
H166	H	1.366045	0.707095	-0.203051
O167	O	1.039636	0.856265	0.212919
O168	O	1.539636	1.356265	0.712919
H169	H	1.074935	0.809440	0.248269
H170	H	1.574935	1.309440	0.748269
O171	O	0.942250	-0.089079	-0.118131
O172	O	1.442250	0.410921	0.381869
H173	H	0.943749	-0.140823	-0.158456
H174	H	1.443749	0.359177	0.341544
O175	O	0.934618	-0.121894	-0.658522
O176	O	1.434618	0.378106	-0.158522
H177	H	0.932781	-0.104251	-0.723549
H178	H	1.432781	0.395749	-0.223549
H179	H	0.924654	0.173162	-0.510592
H180	H	1.424654	0.673162	-0.010592
O181	O	0.924879	0.249667	-0.303992
O182	O	1.424879	0.749667	0.196008
H183	H	0.924198	0.240897	-0.367896
H184	H	1.424198	0.740897	0.132104
