data_functionalizedCrystal
_audit_creation_method	'MofGen! by Chris Wilmer'
_symmetry_space_group_name_H-M	'P1'
_symmetry_Int_Tables_number	1
_symmetry_cell_setting	triclinic
loop_
_symmetry_equiv_pos_as_xyz
  x,y,z
_cell_length_a	15.995292
_cell_length_b	10.654550
_cell_length_c	9.730223
_cell_angle_alpha	90.000193
_cell_angle_beta	89.998623
_cell_angle_gamma	96.023240
loop_
_atom_site_label
_atom_site_type_symbol
_atom_site_fract_x
_atom_site_fract_y
_atom_site_fract_z
O1	O	1.111949	-0.161520	-0.114324
O2	O	0.868284	-0.181585	-0.114318
O3	O	0.995719	0.011262	-0.114316
O4	O	0.984514	-0.354367	-0.114326
O5	O	0.995717	0.011257	0.114264
O6	O	0.868282	-0.181590	0.114262
O7	O	1.111948	-0.161524	0.114256
Zn8	Zn	0.990115	-0.171558	0.150551
Zn9	Zn	0.990117	-0.171552	-0.150613
O10	O	0.984512	-0.354371	0.114254
C11	C	0.837083	-0.180771	-0.000027
C12	C	0.744115	-0.178322	-0.000025
C13	C	0.406325	-0.169322	-0.000040
C14	C	0.430445	-0.308513	-0.000554
C15	C	0.527136	-0.311159	-0.000033
C16	C	0.573907	-0.173788	-0.000033
C17	C	0.544400	-0.104201	0.130494
C18	C	0.447599	-0.102526	0.130598
C19	C	0.447729	-0.099678	-0.129340
C20	C	0.544252	-0.104836	-0.131060
C21	C	0.668617	-0.176305	-0.000025
C22	C	0.311614	-0.166801	-0.000039
C23	C	0.994895	0.058046	-0.000027
C24	C	0.992434	0.197457	-0.000032
C25	C	1.143149	-0.162339	-0.000037
C26	C	1.236116	-0.164787	-0.000049
C27	C	0.985336	-0.401156	-0.000037
C28	C	0.987797	-0.540566	-0.000041
N29	N	0.990119	-0.171562	0.356088
C30	C	1.067466	0.277946	-0.000030
C31	C	1.065148	0.408936	-0.000039
C32	C	0.912760	0.378934	-0.000048
C33	C	0.915079	0.247947	-0.000048
C34	C	1.144821	0.227456	-0.000014
C35	C	1.219859	0.307947	-0.000010
C36	C	1.217541	0.438936	-0.000019
C37	C	1.140185	0.489436	-0.000033
N38	N	0.990118	-0.171538	-0.356149
C39	C	1.046562	-0.086198	0.428015
C40	C	1.046560	-0.086182	0.571898
C41	C	0.933669	-0.256906	0.571914
C42	C	0.933668	-0.256914	0.428034
C43	C	1.103013	-0.000845	0.356069
C44	C	1.159462	0.084525	0.427996
C45	C	1.159459	0.084540	0.571879
C46	C	1.103009	-0.000814	0.643835
H47	H	0.546480	-0.365649	-0.093604
C48	C	1.271049	0.253285	0.557403
C49	C	1.221504	0.178377	0.650943
H50	H	1.309359	0.311208	0.606216
H51	H	1.235939	0.298476	0.501285
H52	H	1.301463	0.200968	0.501287
H53	H	1.191085	0.230693	0.707054
H54	H	1.256618	0.133182	0.707086
H55	H	0.887706	-0.326424	0.369470
H56	H	1.138304	0.596098	-0.000055
H57	H	0.576640	-0.004569	-0.138943
H58	H	0.575681	-0.003115	0.135348
H59	H	1.205417	0.154025	0.369402
C60	C	0.841545	0.566411	-0.000036
C61	C	0.827735	0.434441	-0.000045
H62	H	0.789053	0.600674	-0.000022
H63	H	0.872465	0.594033	-0.079743
H64	H	0.872474	0.594024	0.079680
H65	H	0.796812	0.406827	-0.079766
H66	H	0.796802	0.406808	0.079670
C67	C	1.291077	0.120473	0.000016
C68	C	1.304885	0.252443	0.000002
H69	H	1.343571	0.086212	0.000031
H70	H	1.260160	0.092846	-0.079690
H71	H	1.260148	0.092861	0.079733
H72	H	1.335809	0.280056	-0.079720
H73	H	1.335816	0.280081	0.079716
C74	C	0.624508	-0.083416	0.339446
C75	C	0.571854	-0.169438	0.261631
H76	H	0.641461	-0.123700	0.420396
H77	H	0.595062	-0.013790	0.363913
H78	H	0.672720	-0.054436	0.286805
H79	H	0.523639	-0.198412	0.314268
H80	H	0.601301	-0.239087	0.237167
H81	H	1.103022	-0.000852	0.238912
C82	C	0.819885	-0.284079	0.733744
C83	C	0.871629	-0.350729	0.651010
H84	H	0.781589	-0.342007	0.782579
H85	H	0.789464	-0.231805	0.677613
H86	H	0.853512	-0.233239	0.797165
H87	H	0.838003	-0.401562	0.587582
H88	H	0.902052	-0.403026	0.707146
H89	H	0.853981	0.182410	-0.000048
C90	C	1.368401	0.455428	-0.000000
C91	C	1.300019	0.527413	-0.000017
H92	H	1.419320	0.510051	0.000014
H93	H	1.366141	0.403716	-0.079705
H94	H	1.366123	0.403712	0.079717
H95	H	1.302294	0.579123	-0.079741
H96	H	1.302281	0.579147	0.079696
H97	H	0.433141	0.002777	-0.130223
H98	H	1.103006	-0.000786	0.760994
H99	H	0.402761	-0.362162	-0.094162
H100	H	0.432456	-0.000470	0.136527
H101	H	0.401736	-0.361868	0.092525
H102	H	0.545857	-0.365989	0.093691
H103	H	0.421062	-0.150723	0.228170
H104	H	0.563116	-0.155502	-0.227623
C105	C	0.424049	-0.285924	-0.268787
C106	C	0.409938	-0.158536	-0.262908
H107	H	0.400722	-0.322266	-0.351246
H108	H	0.398201	-0.329295	-0.192031
H109	H	0.482798	-0.292600	-0.267095
H110	H	0.351189	-0.151860	-0.264589
H111	H	0.435783	-0.115153	-0.339684
H112	H	1.146717	0.120799	-0.000002
