data_functionalizedCrystal
_audit_creation_method	'MofGen! by Chris Wilmer'
_symmetry_space_group_name_H-M	'P1'
_symmetry_Int_Tables_number	1
_symmetry_cell_setting	triclinic
loop_
_symmetry_equiv_pos_as_xyz
  x,y,z
_cell_length_a	19.805407
_cell_length_b	16.959453
_cell_length_c	19.805399
_cell_angle_alpha	90.026715
_cell_angle_beta	90.019573
_cell_angle_gamma	90.019988
loop_
_atom_site_label
_atom_site_type_symbol
_atom_site_fract_x
_atom_site_fract_y
_atom_site_fract_z
Zn1	Zn	1.034766	-0.314700	0.382724
Zn2	Zn	1.534766	0.185300	0.882724
Zn3	Zn	1.034693	-0.446882	0.269537
Zn4	Zn	1.534693	0.053118	0.769537
Zn5	Zn	0.921581	-0.314722	0.269548
Zn6	Zn	1.421581	0.185278	0.769548
Zn7	Zn	0.921557	-0.446840	0.382684
Zn8	Zn	1.421557	0.053160	0.882684
O9	O	0.978149	-0.380786	0.326123
O10	O	1.478149	0.119214	0.826123
O11	O	1.129473	-0.332243	0.367721
O12	O	1.629473	0.167757	0.867721
O13	O	1.019668	-0.429378	0.174822
O14	O	1.519668	0.070622	0.674822
O15	O	0.936635	-0.204108	0.284583
O16	O	1.436635	0.295892	0.784583
O17	O	1.129420	-0.429356	0.284564
O18	O	1.629420	0.070644	0.784564
O19	O	1.019792	-0.204092	0.367732
O20	O	1.519792	0.295908	0.867732
O21	O	0.936565	-0.332280	0.174830
O22	O	1.436565	0.167720	0.674830
O23	O	0.826861	-0.332239	0.284544
O24	O	1.326861	0.167761	0.784544
O25	O	0.936595	-0.429285	0.477406
O26	O	1.436595	0.070715	0.977406
O27	O	0.826843	-0.429306	0.367664
O28	O	1.326843	0.070694	0.867664
O29	O	1.019769	-0.332202	0.477435
O30	O	1.519769	0.167798	0.977435
O31	O	1.019645	-0.557488	0.284525
O32	O	1.519645	-0.057488	0.784525
O33	O	0.936524	-0.557457	0.367653
O34	O	1.436524	-0.057457	0.867653
C35	C	0.802293	-0.380771	0.326101
C36	C	1.302293	0.119229	0.826101
C37	C	0.727061	-0.380783	0.326108
C38	C	1.227061	0.119217	0.826108
C39	C	0.691726	-0.431402	0.369319
C40	C	1.191726	0.068598	0.869319
C41	C	0.621037	-0.431404	0.369328
C42	C	1.121037	0.068596	0.869328
C43	C	0.585686	-0.380790	0.326123
C44	C	1.085686	0.119210	0.826123
C45	C	0.621026	-0.330165	0.282911
C46	C	1.121026	0.169835	0.782911
C47	C	0.691713	-0.330160	0.282905
C48	C	1.191713	0.169840	0.782905
C49	C	0.335953	-0.330183	0.282933
C50	C	0.835953	0.169817	0.782933
C51	C	0.265261	-0.330193	0.282941
C52	C	0.765261	0.169807	0.782941
C53	C	0.265277	-0.431426	0.369356
C54	C	0.765277	0.068574	0.869356
C55	C	0.335964	-0.431421	0.369351
C56	C	0.835964	0.068579	0.869351
C57	C	0.371298	-0.380794	0.326141
C58	C	0.871298	0.119206	0.826141
C59	C	0.447947	-0.380792	0.326132
C60	C	0.947947	0.119208	0.826132
C61	C	0.509038	-0.380795	0.326128
C62	C	1.009038	0.119205	0.826128
C63	C	0.978093	-0.586152	0.326098
C64	C	1.478093	-0.086152	0.826098
C65	C	0.978130	-0.674009	0.326111
C66	C	1.478130	-0.174009	0.826111
C67	C	1.021504	-1.045418	0.369501
C68	C	1.521504	-0.545418	0.869501
C69	C	0.934983	-1.045551	0.282846
C70	C	1.434983	-0.545551	0.782846
C71	C	0.934958	-0.963005	0.282831
C72	C	1.434958	-0.463005	0.782831
C73	C	0.978206	-0.921662	0.326152
C74	C	1.478206	-0.421662	0.826152
C75	C	1.021479	-0.962864	0.369488
C76	C	1.521479	-0.462864	0.869488
C77	C	0.891681	-0.921797	0.239500
C78	C	1.391681	-0.421797	0.739500
C79	C	0.891653	-0.839246	0.239483
C80	C	1.391653	-0.339246	0.739483
C81	C	0.934905	-0.797901	0.282801
C82	C	1.434905	-0.297901	0.782801
C83	C	0.978181	-0.839108	0.326139
C84	C	1.478181	-0.339108	0.826139
C85	C	1.021429	-0.797765	0.369460
C86	C	1.521429	-0.297765	0.869460
C87	C	1.064708	-0.838971	0.412795
C88	C	1.564708	-0.338971	0.912795
C89	C	1.064731	-0.921519	0.412806
C90	C	1.564731	-0.421519	0.912806
C91	C	0.934882	-0.715352	0.282790
C92	C	1.434882	-0.215352	0.782790
C93	C	1.021404	-0.715211	0.369447
C94	C	1.521404	-0.215211	0.869447
C95	C	1.154692	-0.380802	0.326146
C96	C	1.654692	0.119198	0.826146
C97	C	1.229924	-0.380808	0.326155
C98	C	1.729924	0.119192	0.826155
C99	C	0.978187	-0.380736	0.502666
C100	C	1.478187	0.119264	1.002666
C101	C	0.978203	-0.380715	0.577898
C102	C	1.478203	0.119285	1.077898
C103	C	0.978224	-0.174618	0.326163
C104	C	1.478224	0.325382	0.826163
C105	C	0.978256	-0.086761	0.326180
C106	C	1.478256	0.413239	0.826180
C107	C	0.978150	-0.380779	0.150267
C108	C	1.478150	0.119221	0.650267
C109	C	0.978265	-0.380577	0.075036
C110	C	1.478265	0.119423	0.575036
C111	C	1.021513	-0.330161	0.613259
C112	C	1.521513	0.169839	1.113259
C113	C	1.021520	-0.330138	0.683947
C114	C	1.521520	0.169862	1.183947
C115	C	0.978220	-0.380674	0.719274
C116	C	1.478220	0.119326	1.219274
C117	C	0.934905	-0.431230	0.683908
C118	C	1.434905	0.068770	1.183908
C119	C	0.934896	-0.431248	0.613221
C120	C	1.434896	0.068752	1.113221
C121	C	0.934944	-0.431156	0.968982
C122	C	1.434944	0.068844	1.468982
C123	C	0.934958	-0.431135	1.039674
C124	C	1.434958	0.068865	1.539674
C125	C	1.021568	-0.330046	1.039708
C126	C	1.521568	0.169954	1.539708
C127	C	1.021558	-0.330065	0.969021
C128	C	1.521558	0.169935	1.469021
C129	C	0.978241	-0.380617	0.933661
C130	C	1.478241	0.119383	1.433661
C131	C	0.978234	-0.380641	0.857013
C132	C	1.478234	0.119359	1.357013
C133	C	0.978231	-0.380655	0.795921
C134	C	1.478231	0.119345	1.295921
H135	H	0.720504	-0.472621	0.404499
H136	H	1.220504	0.027379	0.904499
H137	H	0.364744	-0.472639	0.404530
H138	H	0.864744	0.027361	0.904530
Cl139	Cl	1.119069	-0.786986	0.467259
Cl140	Cl	1.619069	-0.286986	0.967259
H141	H	1.056820	-0.288916	0.940261
H142	H	1.556820	0.211084	1.440261
Cl143	Cl	1.075912	-1.097216	0.423974
Cl144	Cl	1.575912	-0.597216	0.923974
Cl145	Cl	1.075954	-0.266631	0.568855
Cl146	Cl	1.575954	0.233369	1.068855
Cl147	Cl	0.880468	-0.494757	0.728319
Cl148	Cl	1.380468	0.005243	1.228319
Cl149	Cl	0.220819	-0.266557	0.228623
Cl150	Cl	0.720819	0.233443	0.728623
Cl151	Cl	0.220852	-0.495072	0.423679
Cl152	Cl	0.720852	0.004928	0.923679
H153	H	0.899642	-0.681806	0.247510
H154	H	1.399642	-0.181806	0.747510
H155	H	0.899621	-0.472406	0.584432
H156	H	1.399621	0.027594	1.084432
Cl157	Cl	0.880608	-1.097527	0.228398
Cl158	Cl	1.380608	-0.597527	0.728398
H159	H	0.592270	-0.472623	0.404514
H160	H	1.092270	0.027377	0.904514
Cl161	Cl	0.380364	-0.266535	0.228614
Cl162	Cl	0.880364	0.233465	0.728614
H163	H	0.592237	-0.288951	0.247735
H164	H	1.092237	0.211049	0.747735
Cl165	Cl	1.119131	-0.973325	0.467282
Cl166	Cl	1.619131	-0.473325	0.967282
H167	H	0.856469	-0.955465	0.204232
H168	H	1.356469	-0.455465	0.704232
Cl169	Cl	1.075780	-0.663243	0.423908
Cl170	Cl	1.575780	-0.163243	0.923908
Cl171	Cl	1.076022	-0.266490	1.084164
Cl172	Cl	1.576022	0.233510	1.584164
Cl173	Cl	0.837245	-0.787452	0.185007
Cl174	Cl	1.337245	-0.287452	0.685007
H175	H	1.056789	-0.288975	0.712734
H176	H	1.556789	0.211025	1.212734
H177	H	0.899695	-0.472289	1.068435
H178	H	1.399695	0.027711	1.568435
H179	H	0.899682	-0.472330	0.940201
H180	H	1.399682	0.027670	1.440201
H181	H	0.720483	-0.288937	0.247722
H182	H	1.220483	0.211063	0.747722
