data_functionalizedCrystal
_audit_creation_method	'MofGen! by Chris Wilmer'
_symmetry_space_group_name_H-M	'P1'
_symmetry_Int_Tables_number	1
_symmetry_cell_setting	triclinic
loop_
_symmetry_equiv_pos_as_xyz
  x,y,z
_cell_length_a	17.699083
_cell_length_b	14.750779
_cell_length_c	17.699083
_cell_angle_alpha	102.617135
_cell_angle_beta	83.283015
_cell_angle_gamma	77.378405
loop_
_atom_site_label
_atom_site_type_symbol
_atom_site_fract_x
_atom_site_fract_y
_atom_site_fract_z
O1	O	0.987643	0.079696	0.112136
O2	O	0.767258	0.079728	0.124595
O3	O	0.883679	0.079702	0.008174
O4	O	0.871222	0.079721	0.228556
O5	O	0.916589	-0.079955	-0.024733
O6	O	0.800169	-0.079930	0.091687
O7	O	1.020553	-0.079961	0.079228
Zn8	Zn	0.915586	-0.105295	0.080233
Zn9	Zn	0.872225	0.105061	0.123590
O10	O	0.904133	-0.079936	0.195649
C11	C	0.755515	-0.000097	0.107696
C12	C	0.671495	-0.000085	0.106360
N13	N	0.945185	-0.248857	0.050643
C14	C	0.622873	-0.000080	0.174694
C15	C	0.543932	-0.000092	0.173429
C16	C	0.513614	-0.000103	0.103830
C17	C	0.562242	-0.000112	0.035490
C18	C	0.641183	-0.000106	0.036754
C19	C	0.243884	-0.000136	0.030390
C20	C	0.164937	-0.000139	0.029131
C21	C	0.146633	-0.000122	0.167065
C22	C	0.225574	-0.000116	0.168329
C23	C	0.274197	-0.000130	0.099988
C24	C	0.359794	-0.000118	0.101360
C25	C	0.428017	-0.000108	0.102459
C26	C	0.759968	-0.600635	0.235782
C27	C	0.780715	-0.701138	0.215052
C28	C	0.883826	-0.701123	0.111999
C29	C	0.863086	-0.600618	0.132718
C30	C	0.801157	-0.550381	0.194610
C31	C	0.904275	-0.550364	0.091547
C32	C	0.883539	-0.449868	0.112267
C33	C	0.821614	-0.399624	0.174158
C34	C	0.780421	-0.449885	0.215330
C35	C	0.966207	-0.600603	0.029658
C36	C	1.007396	-0.550349	-0.011513
C37	C	0.986657	-0.449851	0.009203
C38	C	0.924732	-0.399607	0.071094
C39	C	1.027850	-0.399590	-0.031969
C40	C	1.007114	-0.299093	-0.011249
C41	C	0.903996	-0.299110	0.091814
C42	C	1.032296	-0.000135	0.096128
C43	C	1.116315	-0.000140	0.097465
C44	C	0.899688	-0.000126	-0.036477
C45	C	0.898349	-0.000127	-0.120495
N46	N	0.842633	0.248623	0.153174
C47	C	0.966685	-0.000138	-0.169118
C48	C	0.965421	-0.000129	-0.248059
C49	C	0.895822	-0.000116	-0.278378
C50	C	0.827480	-0.000102	-0.229748
C51	C	0.828744	-0.000104	-0.150806
C52	C	0.822383	-0.000093	-0.548109
C53	C	0.821125	-0.000095	-0.627057
C54	C	0.959060	-0.000119	-0.645362
C55	C	0.960324	-0.000120	-0.566421
C56	C	0.891982	-0.000101	-0.517797
C57	C	0.893353	-0.000109	-0.432199
C58	C	0.894451	-0.000115	-0.363975
C59	C	0.888123	-0.000105	0.240300
C60	C	0.889461	-0.000099	0.324320
H61	H	0.647551	-0.000070	0.231370
F62	F	0.749646	-0.000071	-0.496369
F63	F	0.529975	-0.000130	-0.038584
H64	H	1.016999	-0.000136	-0.541742
F65	F	0.714502	-0.396417	0.281197
H66	H	1.021067	-0.000140	-0.287646
H67	H	0.680771	-0.000110	-0.018891
F68	F	0.736870	-0.754615	0.258881
F69	F	0.132672	-0.000151	-0.044949
H70	H	0.853562	-0.258206	0.142208
F71	F	0.753405	-0.000077	-0.262014
F72	F	0.756011	-0.000089	-0.099057
H73	H	0.804734	-0.317793	0.191030
H74	H	0.709534	-0.559730	0.286175
H75	H	0.983090	-0.682434	0.012793
F76	F	0.492187	-0.000082	0.246161
H77	H	0.934251	-0.742037	0.061607
H78	H	1.057821	-0.591263	-0.061905
F79	F	1.050954	-0.245609	-0.055068
F80	F	1.093764	-0.453066	-0.097831
H81	H	1.023362	-0.000154	-0.144441
H82	H	0.250254	-0.000103	0.225004
H83	H	1.014707	-0.000129	-0.684961
F84	F	0.747045	-0.000079	-0.659321
H85	H	0.283465	-0.000148	-0.025258
F86	F	0.094880	-0.000112	0.239799
