data_functionalizedCrystal
_audit_creation_method	'MofGen! by Chris Wilmer'
_symmetry_space_group_name_H-M	'P1'
_symmetry_Int_Tables_number	1
_symmetry_cell_setting	triclinic
loop_
_symmetry_equiv_pos_as_xyz
  x,y,z
_cell_length_a	16.974800
_cell_length_b	10.540539
_cell_length_c	16.053934
_cell_angle_alpha	87.401742
_cell_angle_beta	96.214647
_cell_angle_gamma	83.956435
loop_
_atom_site_label
_atom_site_type_symbol
_atom_site_fract_x
_atom_site_fract_y
_atom_site_fract_z
O1	O	1.050135	0.161573	0.001557
O2	O	0.819304	0.183401	-0.014047
O3	O	0.939986	-0.012333	-0.005888
O4	O	0.929453	0.357307	-0.006602
O5	O	0.946592	-0.023070	0.133415
O6	O	0.825910	0.172665	0.125256
O7	O	1.056742	0.150836	0.140860
Zn8	Zn	0.942375	0.160046	0.155175
Zn9	Zn	0.933671	0.174191	-0.028362
O10	O	0.936060	0.346570	0.132701
C11	C	0.793049	0.177405	0.053606
C12	C	0.704977	0.175521	0.047653
C13	C	0.667206	0.168780	0.120792
C14	C	0.584454	0.166988	0.115200
C15	C	0.539473	0.171947	0.036469
C16	C	0.577250	0.178685	-0.036676
C17	C	0.660001	0.180467	-0.031083
C18	C	0.291597	0.167237	0.011601
C19	C	0.208840	0.165458	0.006014
C20	C	0.216050	0.153759	0.157890
C21	C	0.298802	0.155549	0.163475
C22	C	0.336572	0.162280	0.090331
N23	N	0.454887	0.170121	0.030751
N24	N	0.421157	0.164098	0.096049
C25	C	0.942499	-0.064987	0.063708
C26	C	0.940136	-0.205884	0.063544
C27	C	0.849568	-0.387336	0.057110
C28	C	0.851979	-0.240794	0.057586
C29	C	0.986334	-0.274587	0.145961
C30	C	0.983328	-0.421072	0.145824
C31	C	0.977609	-0.409419	-0.012468
C32	C	0.978371	-0.262374	-0.013465
C33	C	1.082996	0.156832	0.073204
C34	C	1.171069	0.158717	0.079152
C35	C	0.933546	0.399225	0.063102
C36	C	0.935910	0.540122	0.063261
N37	N	0.948321	0.150391	0.280435
N38	N	0.927731	0.183836	-0.153622
C39	C	0.896961	0.233645	0.320677
C40	C	0.901143	0.226886	0.408365
C41	C	0.956683	0.136865	0.455809
C42	C	1.008049	0.053607	0.415561
C43	C	1.003870	0.060373	0.327875
C44	C	0.974918	0.107344	0.718444
C45	C	0.979091	0.100582	0.806136
C46	C	0.872186	0.273863	0.798934
C47	C	0.868008	0.280616	0.711246
C48	C	0.919377	0.197363	0.671006
N49	N	0.960958	0.129951	0.545440
N50	N	0.915105	0.204284	0.581377
H51	H	0.553706	0.161478	0.174758
Br52	Br	0.792629	0.402783	0.646857
H53	H	0.830365	0.341646	0.831706
H54	H	1.042416	-0.239167	-0.013924
H55	H	0.185288	0.148277	0.217440
H56	H	0.690752	0.185959	-0.090641
H57	H	0.703823	0.164752	0.184903
Br58	Br	1.083696	-0.490348	-0.006187
Br59	Br	1.094474	-0.240041	0.158190
H60	H	0.821071	-0.202716	0.112432
Br61	Br	1.054471	-0.021606	0.870519
H62	H	0.851731	0.306945	0.282054
Br63	Br	0.359840	0.148833	0.270329
H64	H	0.859322	0.294679	0.441130
H65	H	0.172218	0.169500	-0.058102
H66	H	0.815892	-0.193076	-0.001694
H67	H	0.322339	0.172713	-0.047959
Br68	Br	0.925280	-0.453220	-0.116176
H69	H	1.016743	0.039553	0.685687
Br70	Br	0.516210	0.185360	-0.143527
H71	H	1.053275	-0.019686	0.454195
H72	H	0.812038	-0.410789	-0.002289
Br73	Br	1.073582	-0.052613	0.273261
H74	H	0.817576	-0.421169	0.111492
H75	H	0.954794	-0.453179	0.203169
H76	H	0.944537	-0.216311	-0.074411
Br77	Br	0.941896	-0.210138	0.241311
Br78	Br	1.089283	-0.503770	0.158993
