data_functionalizedCrystal
_audit_creation_method	'MofGen! by Chris Wilmer'
_symmetry_space_group_name_H-M	'P1'
_symmetry_Int_Tables_number	1
_symmetry_cell_setting	triclinic
loop_
_symmetry_equiv_pos_as_xyz
  x,y,z
_cell_length_a	17.640112
_cell_length_b	16.994747
_cell_length_c	17.640968
_cell_angle_alpha	101.211591
_cell_angle_beta	87.860920
_cell_angle_gamma	101.231708
loop_
_atom_site_label
_atom_site_type_symbol
_atom_site_fract_x
_atom_site_fract_y
_atom_site_fract_z
Zn1	Zn	1.247784	-0.022661	0.195088
Zn2	Zn	1.222059	-0.185380	0.068161
Zn3	Zn	1.095130	-0.073965	0.093751
Zn4	Zn	1.120797	-0.174998	0.220739
O5	O	1.171443	-0.114251	0.144435
O6	O	1.350637	-0.027120	0.156806
O7	O	1.183714	-0.196416	-0.034709
O8	O	1.115405	0.043222	0.107168
O9	O	1.331736	-0.146669	0.063553
O10	O	1.227559	0.080914	0.181620
O11	O	1.090460	-0.114560	-0.015908
O12	O	0.992271	-0.104493	0.132041
O13	O	1.159150	-0.128975	0.323601
O14	O	1.011128	-0.178722	0.225339
O15	O	1.252447	-0.017053	0.304755
O16	O	1.208602	-0.294384	0.088426
O17	O	1.134205	-0.286756	0.200525
C18	C	0.974146	-0.146049	0.184251
C19	C	0.889745	-0.159666	0.201303
C20	C	1.171406	-0.319190	0.144478
C21	C	1.171411	-0.408511	0.144474
Zn22	Zn	1.095148	-0.705053	0.093725
Zn23	Zn	1.247811	-0.653729	0.195047
Zn24	Zn	1.120820	-0.542389	0.220721
Zn25	Zn	1.222068	-0.552639	0.068133
O26	O	1.171462	-0.613452	0.144407
O27	O	1.115429	-0.808627	0.107132
O28	O	1.252484	-0.613190	0.304715
O29	O	1.011152	-0.581157	0.225330
O30	O	1.227590	-0.770919	0.181573
O31	O	0.992291	-0.700665	0.132027
O32	O	1.159184	-0.531390	0.323578
O33	O	1.134221	-0.433367	0.200514
O34	O	1.183714	-0.598626	-0.034734
O35	O	1.208607	-0.440897	0.088408
O36	O	1.090466	-0.710604	-0.015932
O37	O	1.350659	-0.623129	0.156757
O38	O	1.331745	-0.548858	0.063513
C39	C	0.563042	-0.010783	0.014902
C40	C	0.483737	-0.023592	0.030935
C41	C	0.503393	-0.101066	0.127918
C42	C	0.582702	-0.088260	0.111896
C43	C	0.612520	-0.043118	0.055386
C44	C	0.632180	-0.120595	0.152380
C45	C	0.711482	-0.107793	0.136356
C46	C	0.741305	-0.062656	0.079848
C47	C	0.691821	-0.030316	0.039362
C48	C	0.602360	-0.165741	0.208886
C49	C	0.651838	-0.198077	0.249370
C50	C	0.731142	-0.185270	0.233350
C51	C	0.760966	-0.140133	0.176842
C52	C	0.780626	-0.217610	0.273836
C53	C	0.859927	-0.204808	0.257812
C54	C	0.840267	-0.127331	0.160818
C55	C	1.369510	-0.082330	0.104463
C56	C	1.453914	-0.068727	0.087430
C57	C	1.211531	-0.066133	0.342501
C58	C	1.228614	-0.045628	0.426905
C59	C	1.171483	0.091488	0.144386
C60	C	1.171503	0.180809	0.144365
C61	C	1.131554	-0.162118	-0.052870
C62	C	1.114618	-0.182377	-0.137304
C63	C	1.041954	-0.269549	0.753555
C64	C	1.058023	-0.250269	0.832862
C65	C	1.155164	-0.133735	0.813229
C66	C	1.139102	-0.153003	0.733919
C67	C	1.082496	-0.220912	0.704088
C68	C	1.179644	-0.104366	0.684452
C69	C	1.163585	-0.123635	0.605149
C70	C	1.106984	-0.191542	0.575311
C71	C	1.066437	-0.240181	0.624784
C72	C	1.236253	-0.036461	0.714284
C73	C	1.276795	0.012176	0.664817
C74	C	1.260732	-0.007089	0.585513
C75	C	1.204131	-0.074996	0.555676
C76	C	1.301279	0.041550	0.536040
C77	C	1.285220	0.022280	0.456736
C78	C	1.188072	-0.094265	0.476372
C79	C	1.368755	-0.581538	0.104574
C80	C	1.453163	-0.567903	0.087556
C81	C	1.131355	-0.661483	-0.053656
C82	C	1.114263	-0.681951	-0.138059
C83	C	0.973398	-0.645493	0.184397
C84	C	0.888996	-0.659147	0.201438
C85	C	1.211359	-0.565662	0.341710
C86	C	1.228238	-0.545379	0.426155
C87	C	1.502619	-0.600228	0.128076
C88	C	1.581929	-0.587432	0.112085
C89	C	1.611782	-0.542305	0.055578
C90	C	1.562319	-0.509979	0.015054
C91	C	1.483010	-0.522781	0.031041
C92	C	1.057681	-0.749866	-0.167908
C93	C	1.041607	-0.769101	-0.247210
C94	C	1.082120	-0.720422	-0.296662
C95	C	1.138705	-0.652499	-0.266807
C96	C	1.154774	-0.633263	-0.187506
C97	C	0.859175	-0.603332	0.258020
C98	C	0.779870	-0.616145	0.274033
C99	C	0.730387	-0.684777	0.233466
C100	C	0.760212	-0.740595	0.176878
C101	C	0.839515	-0.727778	0.160862
C102	C	1.187930	-0.492851	0.475529
C103	C	1.203775	-0.473795	0.554877
C104	C	1.259933	-0.507263	0.584848
C105	C	1.300242	-0.559798	0.535468
C106	C	1.284392	-0.578858	0.456123
H107	H	0.805878	-0.052236	0.066801
O108	O	0.868497	-0.781909	0.105817
C109	C	0.904450	-0.741491	0.047521
H110	H	0.879600	-0.684361	0.047664
H111	H	0.893511	-0.784057	-0.011102
H112	H	0.969308	-0.723373	0.058859
O113	O	0.653377	-0.697122	0.249152
C114	C	0.637674	-0.633125	0.307782
H115	H	0.692366	-0.603934	0.342911
H116	H	0.590466	-0.658510	0.347314
H117	H	0.617492	-0.585184	0.280533
H118	H	0.995842	-0.324831	0.729269
H119	H	0.755599	-0.570688	0.320113
H120	H	1.622192	-0.613756	0.145091
H121	H	1.676362	-0.531886	0.042569
H122	H	1.478325	-0.636973	0.174091
H123	H	0.627549	-0.234834	0.295378
O124	O	1.018540	-0.297584	0.880812
C125	C	0.965152	-0.361664	0.837470
H126	H	0.951081	-0.343515	0.781463
H127	H	0.909962	-0.374156	0.872465
H128	H	0.991243	-0.419137	0.823435
O129	O	0.712037	-0.807241	0.137573
C130	C	0.635649	-0.806565	0.163840
H131	H	0.636696	-0.768259	0.224632
H132	H	0.604472	-0.871767	0.164773
H133	H	0.604011	-0.779124	0.123355
O134	O	1.209798	-0.567375	-0.158437
C135	C	1.268161	-0.593226	-0.122506
H136	H	1.243804	-0.654449	-0.105225
H137	H	1.289634	-0.545920	-0.068793
H138	H	1.318238	-0.600210	-0.164445
H139	H	1.249328	-0.020776	0.778858
O140	O	1.133324	-0.460298	0.446557
C141	C	1.101163	-0.409840	0.507161
H142	H	1.109618	-0.429021	0.564223
H143	H	1.036780	-0.416193	0.496174
H144	H	1.131083	-0.343506	0.510091
O145	O	1.331731	0.078131	0.693930
C146	C	1.337228	0.084698	0.774530
H147	H	1.280816	0.052049	0.797201
H148	H	1.348493	0.151934	0.803617
H149	H	1.386821	0.055422	0.787948
H150	H	1.171686	-0.612870	-0.307083
H151	H	1.345965	-0.587045	0.559884
H152	H	0.995530	-0.824408	-0.271506
H153	H	1.586638	-0.473236	-0.030955
H154	H	1.442748	-0.496450	-0.001955
H155	H	1.024687	-0.789513	-0.127654
H156	H	1.317223	-0.621627	0.415927
O157	O	1.164664	-0.422804	0.602947
C158	C	1.190695	-0.413140	0.679407
H159	H	1.217310	-0.467651	0.685264
H160	H	1.139843	-0.409344	0.720893
H161	H	1.235981	-0.354612	0.693894
H162	H	0.864548	-0.090558	0.114814
O163	O	1.066447	-0.739261	-0.373683
C164	C	1.007810	-0.809640	-0.389415
H165	H	1.006444	-0.846340	-0.341563
H166	H	1.019992	-0.848752	-0.447093
H167	H	0.949580	-0.790741	-0.392312
O168	O	1.011549	-0.306245	0.595806
C169	C	1.032054	-0.377471	0.611868
H170	H	1.097128	-0.366363	0.621443
H171	H	1.014969	-0.430161	0.561035
H172	H	1.000645	-0.393484	0.666113
H173	H	1.272832	-0.491736	0.649458
H174	H	1.318232	0.061887	0.416459
H175	H	0.716103	0.006457	-0.006642
O176	O	0.907173	-0.536685	0.297552
C177	C	0.903135	-0.538708	0.377142
H178	H	0.845882	-0.577963	0.390333
H179	H	0.907300	-0.473960	0.411751
H180	H	0.952958	-0.565837	0.393700
O181	O	0.591961	0.032950	-0.040095
C182	C	0.557231	-0.005679	-0.111879
H183	H	0.534629	-0.073156	-0.111388
H184	H	0.601786	0.000471	-0.159920
H185	H	0.507194	0.024409	-0.122377
O186	O	0.435618	0.007695	-0.008454
C187	C	0.379776	-0.056460	-0.048270
H188	H	0.402705	-0.115882	-0.057889
H189	H	0.367029	-0.042161	-0.106478
H190	H	0.324440	-0.063215	-0.012640
H191	H	0.479104	-0.137823	0.173926
H192	H	0.756335	-0.254370	0.319840
O193	O	0.525354	-0.178156	0.224589
C194	C	0.513603	-0.144600	0.302742
H195	H	0.568165	-0.140135	0.337228
H196	H	0.463284	-0.185512	0.326905
H197	H	0.499856	-0.081019	0.307288
H198	H	0.900214	-0.231137	0.290779
H199	H	1.141960	-0.149547	0.452086
O200	O	1.091308	-0.210399	0.498291
C201	C	1.032640	-0.280751	0.482574
H202	H	1.031254	-0.317444	0.530435
H203	H	1.044800	-0.319883	0.424900
H204	H	0.974426	-0.261817	0.479678
O205	O	1.210100	-0.067780	0.842342
C206	C	1.215598	-0.061214	0.922942
H207	H	1.159186	-0.093862	0.945613
H208	H	1.226862	0.006023	0.952028
H209	H	1.265191	-0.090490	0.936360
O210	O	1.356164	0.107584	0.565078
C211	C	1.322240	0.162698	0.619687
H212	H	1.257594	0.152131	0.607866
H213	H	1.349902	0.228047	0.615031
H214	H	1.331791	0.152486	0.680322
