data_functionalizedCrystal
_audit_creation_method	'MofGen! by Chris Wilmer'
_symmetry_space_group_name_H-M	'P1'
_symmetry_Int_Tables_number	1
_symmetry_cell_setting	triclinic
loop_
_symmetry_equiv_pos_as_xyz
  x,y,z
_cell_length_a	19.188900
_cell_length_b	17.666332
_cell_length_c	19.188930
_cell_angle_alpha	90.006765
_cell_angle_beta	96.861366
_cell_angle_gamma	89.985047
loop_
_atom_site_label
_atom_site_type_symbol
_atom_site_fract_x
_atom_site_fract_y
_atom_site_fract_z
O1	O	-0.926161	0.063104	0.087064
O2	O	-0.722846	0.063074	0.098820
O3	O	-0.830371	0.063075	-0.008714
O4	O	-0.818636	0.063103	0.194599
O5	O	-0.830357	-0.062822	-0.008710
O6	O	-0.722832	-0.062823	0.098824
O7	O	-0.926146	-0.062793	0.087068
Cu8	Cu	-0.824488	-0.074303	0.092946
Cu9	Cu	-0.824505	0.074584	0.092942
O10	O	-0.818622	-0.062794	0.194602
C11	C	-0.696828	0.000122	0.098445
C12	C	-0.619322	0.000110	0.097313
N13	N	-0.824481	-0.179023	0.092949
C14	C	-0.582938	0.068737	0.096767
C15	C	-0.510114	0.068745	0.095695
C16	C	-0.473679	0.000121	0.095155
C17	C	-0.510072	-0.068516	0.095705
C18	C	-0.582893	-0.068521	0.096784
N19	N	-0.364653	-0.050957	0.053730
N20	N	-0.295476	-0.050947	0.052704
C21	C	-0.254272	0.000133	0.091907
N22	N	-0.284860	0.051215	0.132166
N23	N	-0.354044	0.051207	0.133189
C24	C	-0.394717	0.000119	0.093986
C25	C	-0.138924	0.068774	0.090200
C26	C	-0.066098	0.068778	0.089132
C27	C	-0.066058	-0.068484	0.089135
C28	C	-0.138881	-0.068486	0.090210
C29	C	-0.175310	0.000144	0.090738
C30	C	-0.866732	-0.781059	0.135165
C31	C	-0.866725	-0.701812	0.135172
C32	C	-0.824511	-0.662204	0.092935
C33	C	-0.782288	-0.701851	0.050701
C34	C	-0.782291	-0.781097	0.050701
N35	N	-0.822821	-0.537789	0.031774
N36	N	-0.822822	-0.462508	0.031777
C37	C	-0.824499	-0.423440	0.092935
N38	N	-0.826188	-0.462496	0.154091
N39	N	-0.826191	-0.537784	0.154088
C40	C	-0.824503	-0.576275	0.092931
C41	C	-0.866708	-0.297874	0.135177
C42	C	-0.866696	-0.218625	0.135185
C43	C	-0.782263	-0.218665	0.050708
C44	C	-0.782271	-0.297913	0.050706
C45	C	-0.824497	-0.337512	0.092939
C46	C	0.047836	0.000155	0.087448
C47	C	-0.029668	0.000154	0.088594
C48	C	-0.829984	0.000124	-0.034723
C49	C	-0.828843	0.000118	-0.112228
N50	N	-0.824517	0.179304	0.092934
C51	C	-0.891935	0.000123	-0.157158
C52	C	-0.890863	0.000135	-0.229982
C53	C	-0.826696	0.000126	-0.257872
C54	C	-0.763596	0.000125	-0.212931
C55	C	-0.764669	0.000121	-0.140109
N56	N	-0.777643	-0.042726	-0.365870
N57	N	-0.776628	-0.042723	-0.435049
C58	C	-0.823458	0.000141	-0.477280
N59	N	-0.871352	0.042994	-0.447721
N60	N	-0.872370	0.042988	-0.378536
C61	C	-0.825525	0.000132	-0.336834
C62	C	-0.885392	0.000161	-0.601175
C63	C	-0.884318	0.000177	-0.674000
C64	C	-0.757049	0.000160	-0.656947
C65	C	-0.758125	0.000151	-0.584124
C66	C	-0.822298	0.000148	-0.556243
C67	C	-0.819009	0.000158	0.220611
C68	C	-0.820150	0.000170	0.298116
H69	H	-0.480485	0.124631	0.095252
H70	H	-0.036393	-0.124359	0.088700
H71	H	-0.937646	0.000162	-0.578473
O72	O	-0.736746	-0.340654	0.005137
H73	H	-0.699110	-0.376764	0.038696
O74	O	-0.961147	0.000141	-0.127084
H75	H	-1.004839	0.000158	-0.170567
O76	O	-0.958914	0.000131	-0.278457
H77	H	-1.003717	0.000122	-0.246835
H78	H	-0.901101	-0.669533	0.169564
H79	H	-0.901115	-0.813296	0.169556
H80	H	-0.711351	0.000120	-0.235643
O81	O	-0.952372	0.000176	-0.722463
H82	H	-0.983107	0.051484	-0.712561
O83	O	-0.696618	0.000102	-0.091640
H84	H	-0.651817	0.000092	-0.123265
H85	H	-0.704803	0.000156	-0.679654
O86	O	-0.690076	0.000126	-0.535655
H87	H	-0.645275	0.000113	-0.567281
H88	H	-0.612594	0.124622	0.097197
O89	O	-0.470620	-0.142454	0.095378
H90	H	-0.443692	-0.145860	0.047396
O91	O	-0.622142	-0.142543	0.097382
H92	H	-0.584575	-0.190263	0.096829
H93	H	-0.036475	0.124665	0.088692
O94	O	-0.178222	0.142791	0.090782
H95	H	-0.140682	0.190516	0.090236
H96	H	-0.747913	-0.813369	0.016310
O97	O	-0.912240	-0.340594	0.180734
H98	H	-0.941585	-0.299715	0.210112
H99	H	-0.168506	-0.124370	0.090650
O100	O	-0.736790	-0.659138	0.005109
H101	H	-0.743898	-0.597374	0.012186
H102	H	-0.901071	-0.186354	0.169579
H103	H	-0.747888	-0.186418	0.016322
