data_functionalizedCrystal
_audit_creation_method	'MofGen! by Chris Wilmer'
_symmetry_space_group_name_H-M	'P1'
_symmetry_Int_Tables_number	1
_symmetry_cell_setting	triclinic
loop_
_symmetry_equiv_pos_as_xyz
  x,y,z
_cell_length_a	14.853567
_cell_length_b	14.853567
_cell_length_c	13.930277
_cell_angle_alpha	89.999243
_cell_angle_beta	89.995755
_cell_angle_gamma	83.634930
loop_
_atom_site_label
_atom_site_type_symbol
_atom_site_fract_x
_atom_site_fract_y
_atom_site_fract_z
O1	O	1.196368	0.117704	-0.079756
O2	O	0.933909	0.131725	-0.079772
O3	O	1.072149	-0.006516	-0.079767
O4	O	1.058128	0.255944	-0.079762
O5	O	1.072130	-0.006519	0.079895
O6	O	0.933890	0.131722	0.079890
O7	O	1.196349	0.117701	0.079905
Zn8	Zn	1.065116	0.124711	0.105247
Zn9	Zn	1.065142	0.124715	-0.105114
O10	O	1.058109	0.255941	0.079900
C11	C	0.900311	0.131088	0.000057
C12	C	0.800227	0.129184	0.000051
C13	C	0.387693	0.039019	0.000070
C14	C	0.366412	0.203251	0.000073
C15	C	0.460446	0.205042	0.000070
C16	C	0.518108	0.123819	0.000066
C17	C	0.481736	0.040806	0.000065
C18	C	0.496825	0.288053	0.000061
C19	C	0.590864	0.289846	0.000057
C20	C	0.648528	0.208623	0.000060
C21	C	0.612150	0.125607	0.000060
C22	C	0.669812	0.044384	0.000056
C23	C	0.633437	-0.038633	0.000063
C24	C	0.539399	-0.040417	0.000067
C25	C	0.742565	0.210407	0.000055
C26	C	0.763855	0.046172	0.000050
C27	C	1.071504	-0.040106	0.000061
C28	C	1.069601	-0.140189	0.000053
C29	C	0.979435	-0.552723	0.000066
C30	C	1.143668	-0.574004	0.000076
C31	C	1.145458	-0.479971	0.000070
C32	C	1.064235	-0.422309	0.000064
C33	C	0.981223	-0.458680	0.000063
C34	C	1.228469	-0.443591	0.000080
C35	C	1.230262	-0.349552	0.000076
C36	C	1.149039	-0.291889	0.000063
C37	C	1.066023	-0.328266	0.000061
C38	C	0.984800	-0.270604	0.000055
C39	C	0.901783	-0.306979	0.000047
C40	C	0.899999	-0.401017	0.000050
C41	C	1.150823	-0.197851	0.000059
C42	C	0.986588	-0.176561	0.000052
C43	C	1.229947	0.118337	0.000075
C44	C	1.330031	0.120241	0.000075
C45	C	1.058754	0.289531	0.000070
C46	C	1.060657	0.389615	0.000072
N47	N	1.065106	0.124708	0.248814
N48	N	1.065160	0.124711	-0.248680
C49	C	1.003926	0.185904	0.701081
C50	C	1.126382	0.063519	0.701055
C51	C	1.126371	0.063516	0.600559
C52	C	1.065138	0.124709	0.550319
C53	C	1.003916	0.185904	0.600576
C54	C	1.187598	0.002328	0.550295
C55	C	1.187591	0.002323	0.449793
C56	C	1.126353	0.063512	0.399552
C57	C	1.065127	0.124710	0.449814
C58	C	1.003894	0.185902	0.399575
C59	C	0.942664	0.247096	0.449835
C60	C	0.942677	0.247094	0.550334
C61	C	1.126339	0.063515	0.299053
C62	C	1.003883	0.185903	0.299070
H63	H	0.772178	0.277998	0.000051
H64	H	1.294596	-0.490546	0.000094
Cl65	Cl	0.836337	-0.055943	0.000052
H66	H	0.920445	-0.129618	0.000043
H67	H	0.892827	0.296916	0.591263
H68	H	0.892811	0.296924	0.408919
Cl69	Cl	0.799679	-0.234480	0.000047
H70	H	0.911844	-0.582344	0.000055
Cl71	Cl	0.705937	-0.140737	0.000050
Cl72	Cl	1.203314	-0.013403	0.235875
Cl73	Cl	0.795645	-0.446752	0.000037
H74	H	0.449870	0.354180	0.000054
H75	H	0.509774	-0.108005	0.000096
H76	H	1.209795	-0.620958	0.000088
Cl77	Cl	0.926951	0.262826	0.764260
H78	H	0.358072	-0.028572	0.000080
H79	H	1.176240	0.013702	0.741963
H80	H	0.319459	0.269379	0.000068
H81	H	1.237457	-0.047489	0.591203
Cl82	Cl	1.334624	-0.303832	0.000070
Cl83	Cl	1.255178	-0.152125	0.000088
H84	H	1.237447	-0.047505	0.408877
H85	H	0.620472	0.357443	0.000051
H86	H	0.954016	0.235731	0.258171
