data_functionalizedCrystal
_audit_creation_method	'MofGen! by Chris Wilmer'
_symmetry_space_group_name_H-M	'P1'
_symmetry_Int_Tables_number	1
_symmetry_cell_setting	triclinic
loop_
_symmetry_equiv_pos_as_xyz
  x,y,z
_cell_length_a	16.992694
_cell_length_b	14.586319
_cell_length_c	16.109304
_cell_angle_alpha	90.001538
_cell_angle_beta	87.065430
_cell_angle_gamma	89.998473
loop_
_atom_site_label
_atom_site_type_symbol
_atom_site_fract_x
_atom_site_fract_y
_atom_site_fract_z
O1	O	1.040348	0.076116	0.176289
O2	O	1.540348	0.576116	0.676289
O3	O	0.812063	0.076143	0.174355
O4	O	1.312063	0.576143	0.674355
O5	O	0.932475	0.076129	0.054709
O6	O	1.432475	0.576129	0.554709
O7	O	0.919935	0.076130	0.295934
O8	O	1.419935	0.576130	0.795934
O9	O	0.932466	-0.076351	0.054705
O10	O	1.432466	0.423649	0.554705
O11	O	0.812053	-0.076338	0.174351
O12	O	1.312053	0.423662	0.674351
O13	O	1.040338	-0.076365	0.176285
O14	O	1.540338	0.423635	0.676285
Cu15	Cu	0.926195	-0.090274	0.175318
Cu16	Cu	1.426195	0.409726	0.675318
Cu17	Cu	0.926206	0.090052	0.175322
Cu18	Cu	1.426206	0.590052	0.675322
O19	O	0.919925	-0.076351	0.295930
O20	O	1.419925	0.423649	0.795930
C21	C	0.782846	-0.000094	0.171865
C22	C	1.282846	0.499906	0.671865
C23	C	0.695804	-0.000083	0.164441
C24	C	1.195804	0.499917	0.664441
N25	N	0.926192	-0.217106	0.175314
N26	N	1.426192	0.282894	0.675314
C27	C	0.931962	-0.000109	0.023699
C28	C	1.431962	0.499891	0.523699
C29	C	0.930438	-0.000102	-0.068698
C30	C	1.430438	0.499898	0.431302
C31	C	0.645546	-0.000084	0.236067
C32	C	1.145546	0.499916	0.736067
C33	C	0.563761	-0.000096	0.229087
C34	C	1.063761	0.499904	0.729087
C35	C	0.532235	-0.000102	0.150480
C36	C	1.032235	0.499898	0.650480
C37	C	0.582500	-0.000104	0.078849
C38	C	1.082500	0.499896	0.578849
C39	C	0.664283	-0.000098	0.085830
C40	C	1.164283	0.499902	0.585830
C41	C	0.288645	-0.000126	0.121548
C42	C	0.788645	0.499874	0.621548
C43	C	0.206855	-0.000130	0.114572
C44	C	0.706855	0.499870	0.614572
C45	C	0.188121	-0.000124	0.264811
C46	C	0.688121	0.499876	0.764811
C47	C	0.269907	-0.000112	0.271785
C48	C	0.769907	0.499888	0.771785
C49	C	0.320164	-0.000119	0.200154
C50	C	0.820164	0.499881	0.700154
N51	N	0.448638	-0.000112	0.143344
N52	N	0.948638	0.499888	0.643344
N53	N	0.403760	-0.000116	0.207291
N54	N	0.903760	0.499884	0.707291
C55	C	1.069555	-0.000126	0.178775
C56	C	1.569555	0.499874	0.678775
C57	C	1.156597	-0.000130	0.186198
C58	C	1.656597	0.499870	0.686198
C59	C	0.979532	-0.548105	0.122355
C60	C	1.479532	-0.048105	0.622355
C61	C	0.979530	-0.452124	0.122356
C62	C	1.479530	0.047876	0.622356
C63	C	0.872873	-0.452123	0.228284
C64	C	1.372873	0.047877	0.728284
C65	C	0.872879	-0.548102	0.228287
C66	C	1.372879	-0.048102	0.728287
C67	C	0.926208	-0.596091	0.175318
C68	C	1.426208	-0.096091	0.675318
C69	C	0.926199	-0.404130	0.175315
C70	C	1.426199	0.095870	0.675315
C71	C	0.926197	-0.300063	0.175316
C72	C	1.426197	0.199937	0.675316
C73	C	0.926211	-0.700165	0.175318
C74	C	1.426211	-0.200165	0.675318
N75	N	0.926215	0.216884	0.175319
N76	N	1.426215	0.716884	0.675319
C77	C	0.926922	0.083012	-0.281269
C78	C	1.426922	0.583012	0.218731
C79	C	0.925483	0.083011	-0.368085
C80	C	1.425483	0.583011	0.131915
C81	C	0.925476	-0.083232	-0.368086
C82	C	1.425476	0.416768	0.131914
C83	C	0.926910	-0.083230	-0.281271
C84	C	1.426910	0.416770	0.218729
C85	C	0.927637	-0.000105	-0.237865
C86	C	1.427637	0.499895	0.262135
C87	C	0.924764	-0.000108	-0.411496
C88	C	1.424764	0.499892	0.088504
C89	C	0.923203	-0.000109	-0.505626
C90	C	1.423203	0.499891	-0.005626
C91	C	0.929196	-0.000104	-0.143729
C92	C	1.429196	0.499896	0.356271
C93	C	0.920439	-0.000111	0.326941
C94	C	1.420439	0.499889	0.826941
C95	C	0.921963	-0.000111	0.419338
C96	C	1.421963	0.499889	0.919338
H97	H	0.671206	-0.000078	0.300077
H98	H	1.171206	0.499922	0.800077
H99	H	0.829453	-0.413040	0.271409
H100	H	1.329453	0.086960	0.771409
H101	H	0.522843	-0.000096	0.287413
H102	H	1.022843	0.499904	0.787413
H103	H	0.829456	-0.587175	0.271420
H104	H	1.329456	-0.087175	0.771420
Cl105	Cl	0.309532	-0.000099	0.370609
Cl106	Cl	0.809532	0.499901	0.870609
H107	H	0.556826	-0.000122	0.014846
H108	H	1.056826	0.499878	0.514846
H109	H	1.022952	-0.413057	0.079229
H110	H	1.522952	0.086943	0.579229
H111	H	0.927512	0.150697	-0.245930
H112	H	1.427512	0.650697	0.254070
Cl113	Cl	0.924583	0.187507	-0.422646
Cl114	Cl	1.424583	0.687507	0.077354
H115	H	0.924886	-0.150909	-0.403437
H116	H	1.424886	0.349091	0.096563
Cl117	Cl	0.167225	-0.000157	0.015745
Cl118	Cl	0.667225	0.499843	0.515745
Cl119	Cl	0.124937	-0.000119	0.354856
Cl120	Cl	0.624937	0.499881	0.854856
Cl121	Cl	0.927799	-0.187729	-0.226701
Cl122	Cl	1.427799	0.312271	0.273299
H123	H	0.329555	-0.000133	0.063220
H124	H	0.829555	0.499867	0.563220
Cl125	Cl	0.727466	-0.000101	-0.004218
Cl126	Cl	1.227466	0.499899	0.495782
Cl127	Cl	1.046576	-0.608430	0.055769
Cl128	Cl	1.546576	-0.108430	0.555769
