data_functionalizedCrystal
_audit_creation_method	'MofGen! by Chris Wilmer'
_symmetry_space_group_name_H-M	'P1'
_symmetry_Int_Tables_number	1
_symmetry_cell_setting	triclinic
loop_
_symmetry_equiv_pos_as_xyz
  x,y,z
_cell_length_a	10.723024
_cell_length_b	12.996460
_cell_length_c	10.723022
_cell_angle_alpha	89.999097
_cell_angle_beta	84.467548
_cell_angle_gamma	90.005942
loop_
_atom_site_label
_atom_site_type_symbol
_atom_site_fract_x
_atom_site_fract_y
_atom_site_fract_z
O1	O	1.657192	0.085557	0.175019
O2	O	1.294039	0.085561	0.191772
O3	O	1.483993	0.085555	0.001819
O4	O	1.467238	0.085563	0.364972
O5	O	1.483968	-0.085579	0.001830
O6	O	1.294014	-0.085573	0.191783
O7	O	1.657167	-0.085576	0.175030
Cu8	Cu	1.475588	-0.101201	0.183407
Cu9	Cu	1.475618	0.101185	0.183395
O10	O	1.467213	-0.085571	0.364983
C11	C	1.247527	-0.000006	0.190558
C12	C	1.108973	-0.000005	0.186911
N13	N	1.475577	-0.243548	0.183416
C14	C	1.033990	-0.000002	0.293199
C15	C	0.890786	-0.000000	0.289431
C16	C	1.475583	-0.336654	0.183419
C17	C	1.475594	-0.453459	0.183411
C18	C	1.475610	-0.546557	0.183397
C19	C	1.475623	-0.663370	0.183390
C20	C	1.703679	-0.000008	0.176243
C21	C	1.842233	-0.000002	0.179891
C22	C	1.482762	-0.000011	-0.044675
C23	C	1.479115	-0.000007	-0.183229
N24	N	1.475639	0.243532	0.183376
C25	C	1.581631	-0.000003	-0.401408
C26	C	1.585403	-0.000006	-0.258205
C27	C	1.468444	-0.000003	0.411477
C28	C	1.472091	0.000000	0.550031
H29	H	1.075811	-0.000006	0.386984
Br30	Br	0.949611	0.000006	0.028219
Br31	Br	0.783401	0.000016	0.441098
H32	H	1.381103	-0.000007	-0.385526
H33	H	1.067151	0.000020	0.093125
Br34	Br	1.322782	0.000009	-0.252900
H35	H	1.672620	-0.000008	-0.465850
Br36	Br	1.741731	0.000002	-0.188526
