data_functionalizedCrystal
_audit_creation_method	'MofGen! by Chris Wilmer'
_symmetry_space_group_name_H-M	'P1'
_symmetry_Int_Tables_number	1
_symmetry_cell_setting	triclinic
loop_
_symmetry_equiv_pos_as_xyz
  x,y,z
_cell_length_a	18.426585
_cell_length_b	27.440279
_cell_length_c	18.426585
_cell_angle_alpha	60.004901
_cell_angle_beta	90.001513
_cell_angle_gamma	60.014349
loop_
_atom_site_label
_atom_site_type_symbol
_atom_site_fract_x
_atom_site_fract_y
_atom_site_fract_z
Zr1	Zr	0.699373	0.533302	-0.095083
O2	O	0.583542	0.634942	-0.210929
O3	O	0.734846	0.431661	-0.059594
O4	O	0.734889	0.533306	-0.210965
O5	O	0.583505	0.533294	0.059874
O6	O	0.854315	0.533309	-0.210968
O7	O	0.583499	0.533297	-0.059557
O8	O	0.854238	0.351485	0.059808
O9	O	0.583582	0.715118	-0.210902
O10	O	0.839144	0.473470	-0.044432
O11	O	0.750023	0.473465	0.044700
O12	O	0.750073	0.593139	-0.133521
O13	O	0.660952	0.593134	-0.044389
Zr14	Zr	0.889854	0.533302	0.095390
Zr15	Zr	0.889844	0.533307	-0.095088
Zr16	Zr	0.699383	0.533296	0.095395
Zr17	Zr	0.699437	0.661173	-0.095042
Zr18	Zr	0.889789	0.405431	0.095349
O19	O	0.854380	0.634942	0.059901
O20	O	0.854366	0.634950	-0.210935
O21	O	0.583556	0.634935	0.059907
O22	O	1.005685	0.431661	0.211236
O23	O	1.005671	0.431669	-0.059600
O24	O	0.734860	0.431654	0.211242
O25	O	1.005722	0.533309	-0.059567
O26	O	0.854337	0.533297	0.211273
O27	O	0.734911	0.533294	0.211276
O28	O	1.005728	0.533306	0.059864
O29	O	0.734981	0.715122	-0.210906
O30	O	0.854246	0.351481	0.211213
O31	O	1.005645	0.351485	0.211209
O32	O	1.005637	0.351490	0.059804
O33	O	0.583590	0.715114	-0.059497
O34	O	0.734988	0.715118	-0.059501
O35	O	0.839153	0.473465	0.133828
O36	O	0.928275	0.473470	0.044696
O37	O	0.839204	0.593139	-0.044393
O38	O	0.750083	0.593134	0.044739
C39	C	0.794533	0.373354	0.000101
C40	C	0.794506	0.319070	0.000084
C41	C	0.556364	0.533295	0.000160
C42	C	0.475504	0.533293	0.000162
C43	C	0.179389	0.533313	0.000146
C44	C	0.261775	0.533311	0.000148
C45	C	0.327444	0.533303	0.000153
C46	C	0.409835	0.533300	0.000157
C47	C	0.748081	0.084309	0.046685
C48	C	0.748064	0.135339	0.046673
O49	O	0.708518	0.161713	0.086260
N50	N	0.794572	0.160866	0.000136
C51	C	0.841108	0.135356	-0.046385
O52	O	0.880666	0.161755	-0.085969
C53	C	0.841130	0.084324	-0.046368
C54	C	0.794612	0.058803	0.000165
C55	C	0.701567	0.058788	0.093215
C56	C	0.701584	0.007762	0.093226
C57	C	0.748114	-0.017743	0.046706
C58	C	0.794628	0.007778	0.000175
C59	C	0.887671	0.058811	-0.092884
C60	C	0.887689	0.007774	-0.092862
C61	C	0.841171	-0.017746	-0.046328
C62	C	0.841174	-0.068753	-0.046334
N63	N	0.794666	-0.094281	0.000203
C64	C	0.748136	-0.068776	0.046723
C65	C	0.841059	0.242528	-0.046417
C66	C	0.841033	0.293563	-0.046440
C67	C	0.747990	0.293541	0.046620
C68	C	0.748012	0.242508	0.046637
C69	C	0.794551	0.217000	0.000120
C70	C	0.748173	-0.175933	0.046740
C71	C	0.748191	-0.226961	0.046743
C72	C	0.841237	-0.226937	-0.046313
C73	C	0.841216	-0.175911	-0.046320
C74	C	0.794682	-0.150412	0.000213
O75	O	0.880704	-0.095161	-0.085897
O76	O	0.708594	-0.095187	0.086310
C77	C	1.032863	0.533309	0.000147
C78	C	1.113723	0.533311	0.000145
C79	C	0.794601	0.533309	-0.238106
C80	C	0.794597	0.533311	-0.318969
C81	C	0.794694	0.693249	0.000206
C82	C	0.794721	0.747534	0.000223
C83	C	0.794630	0.533290	-0.615053
C84	C	0.794623	0.533293	-0.532671
C85	C	0.794613	0.533300	-0.467014
C86	C	0.794607	0.533303	-0.384627
C87	C	0.794626	0.533295	0.238413
C88	C	0.794630	0.533293	0.319276
C89	C	1.032783	0.373361	0.000095
C90	C	1.113615	0.319079	0.000076
C91	C	0.794545	0.373348	0.238361
C92	C	0.794522	0.319061	0.319207
C93	C	1.032795	0.373354	0.238355
C94	C	1.113632	0.319070	0.319198
C95	C	0.556432	0.693249	-0.238048
C96	C	0.475595	0.747534	-0.318891
C97	C	0.556444	0.693242	0.000212
C98	C	0.475611	0.747525	0.000231
C99	C	0.794681	0.693256	-0.238054
C100	C	0.794704	0.747543	-0.318899
C101	C	1.105050	0.293587	-0.046465
C102	C	1.180993	0.242590	-0.046502
C103	C	1.265501	0.217082	0.000009
C104	C	1.274065	0.242579	0.046551
C105	C	1.198122	0.293578	0.046582
C106	C	0.841037	0.293567	0.403704
C107	C	0.841012	0.242566	0.479674
C108	C	0.794477	0.217056	0.471145
C109	C	0.747957	0.242554	0.386638
C110	C	0.747977	0.293558	0.310670
C111	C	1.198122	0.293580	0.310637
C112	C	1.274084	0.242581	0.386591
C113	C	1.265554	0.217069	0.471105
C114	C	1.181054	0.242564	0.479664
C115	C	1.105094	0.293566	0.403712
C116	C	0.391105	0.773030	-0.310330
C117	C	0.315143	0.824045	-0.386284
C118	C	0.323673	0.849559	-0.470798
C119	C	0.408172	0.824061	-0.479357
C120	C	0.484132	0.773050	-0.403404
C121	C	0.484177	0.773022	0.046765
C122	C	0.408234	0.824033	0.046780
C123	C	0.323725	0.849542	0.000267
C124	C	0.315162	0.824043	-0.046272
C125	C	0.391104	0.773037	-0.046292
C126	C	0.841248	0.773037	-0.310342
C127	C	0.841287	0.824038	-0.386297
C128	C	0.794777	0.849549	-0.470810
C129	C	0.748231	0.824050	-0.479366
C130	C	0.748198	0.773046	-0.403411
H131	H	0.710306	-0.247736	0.084636
C132	C	1.367025	0.214539	0.377156
N133	N	1.437025	0.193418	0.370046
H134	H	0.794468	0.175525	0.533010
H135	H	1.174003	0.221837	-0.084402
C136	C	1.012157	0.321598	0.413144
N137	N	0.942157	0.342710	0.420255
H138	H	0.710363	0.844828	-0.548186
H139	H	0.879123	0.752274	-0.241534
H140	H	0.878932	0.314332	0.410666
C141	C	0.696982	-0.147890	0.097927
N142	N	0.658420	-0.126765	0.136477
H143	H	1.174122	0.221785	0.548486
H144	H	0.261814	0.891095	-0.532636
H145	H	0.710069	0.221777	0.379707
H146	H	0.384142	0.752259	-0.241521
C147	C	0.696979	0.745017	-0.412840
N148	N	0.658395	0.723910	-0.419948
H149	H	1.327331	0.175555	-0.000023
C150	C	0.696815	0.321588	0.217724
N151	N	0.658279	0.342697	0.147718
H152	H	1.342882	0.221803	0.084418
H153	H	0.415107	0.844841	-0.548178
H154	H	0.552981	0.752255	0.084647
H155	H	1.205109	0.314327	0.084486
H156	H	0.415224	0.844785	0.084681
C157	C	0.650477	-0.020349	0.144484
N158	N	0.612006	-0.041536	0.183120
C159	C	0.892241	0.214486	-0.097612
N160	N	0.930788	0.193369	-0.136175
H161	H	0.246345	0.844821	-0.084142
C162	C	1.207527	0.321637	0.217679
N163	N	1.214619	0.342770	0.147664
C164	C	0.892200	0.214520	0.572623
N165	N	0.930758	0.193396	0.642630
C166	C	0.240194	0.905648	0.000302
N167	N	0.177282	0.947905	0.000336
H168	H	0.925551	0.079582	-0.130774
C169	C	0.222202	0.852082	-0.376848
N170	N	0.152202	0.873199	-0.369739
H171	H	0.384118	0.752279	-0.084182
H172	H	0.552926	0.752292	-0.410386
H173	H	0.879189	0.844794	-0.379313
C174	C	0.794820	0.905656	-0.554354
N175	N	0.794855	0.947918	-0.617277
H176	H	0.710132	0.221733	0.084529
C177	C	0.650388	0.086827	0.144407
N178	N	0.611835	0.107944	0.182968
H179	H	1.327412	0.175540	0.532943
H180	H	0.710103	0.314316	0.084500
C181	C	0.938883	-0.020278	-0.144040
N182	N	0.977439	-0.041404	-0.182591
H183	H	0.878901	0.314345	-0.084343
H184	H	0.879118	-0.247709	-0.084192
C185	C	1.012097	0.321640	-0.097640
N186	N	0.942088	0.342770	-0.136193
C187	C	0.892383	-0.147834	-0.097514
N188	N	0.930931	-0.126695	-0.136067
