data_functionalizedCrystal
_audit_creation_method	'MofGen! by Chris Wilmer'
_symmetry_space_group_name_H-M	'P1'
_symmetry_Int_Tables_number	1
_symmetry_cell_setting	triclinic
loop_
_symmetry_equiv_pos_as_xyz
  x,y,z
_cell_length_a	42.784839
_cell_length_b	42.784841
_cell_length_c	42.784893
_cell_angle_alpha	90.002418
_cell_angle_beta	59.997780
_cell_angle_gamma	119.999863
loop_
_atom_site_label
_atom_site_type_symbol
_atom_site_fract_x
_atom_site_fract_y
_atom_site_fract_z
O1	O	0.275695	-0.214412	-0.009300
O2	O	0.211692	-0.168961	0.009253
O3	O	0.275692	-0.168961	-0.054750
O4	O	0.211694	-0.214412	0.054702
O5	O	0.223708	-0.220945	-0.054749
O6	O	0.159708	-0.220945	0.009253
O7	O	0.223710	-0.266397	-0.009300
Cu8	Cu	0.186962	-0.248417	-0.000023
Cu9	Cu	0.248440	-0.186940	-0.000024
O10	O	0.159710	-0.266396	0.054703
C11	C	0.051021	-0.022778	0.028112
C12	C	0.013142	-0.041761	0.028375
C13	C	0.051018	-0.079378	0.028116
C14	C	0.013139	-0.098275	0.028379
C15	C	-0.005578	-0.079377	0.028112
C16	C	0.069652	-0.041762	0.028379
C17	C	0.152948	0.113708	0.017863
C18	C	0.173786	0.152360	0.014965
C19	C	0.155902	0.171750	0.013509
C20	C	0.178499	0.213661	0.010359
C21	C	0.117177	0.152485	0.014953
C22	C	0.096339	0.113835	0.017857
C23	C	0.114226	0.094447	0.019312
C24	C	-0.131813	-0.113936	0.017859
C25	C	-0.167567	-0.131750	0.014961
C26	C	-0.185502	-0.169024	0.013506
C27	C	-0.224264	-0.188340	0.010358
C28	C	-0.167685	-0.188485	0.014954
C29	C	-0.131938	-0.170675	0.017859
C30	C	-0.114002	-0.133396	0.019309
C31	C	0.152939	-0.113943	0.017877
C32	C	0.173778	-0.131757	0.014977
C33	C	0.155892	-0.169032	0.013523
C34	C	0.178486	-0.188349	0.010377
C35	C	0.117170	-0.188491	0.014967
C36	C	0.096334	-0.170675	0.017865
C37	C	0.114220	-0.133401	0.019323
C38	C	0.091629	0.052537	0.022456
C39	C	0.073617	0.019131	0.024964
C40	C	0.073613	-0.098693	0.024971
C41	C	0.091623	-0.114089	0.022466
C42	C	-0.044339	-0.098690	0.024964
C43	C	-0.075237	-0.114084	0.022456
O44	O	-0.327856	-0.266388	-0.009322
O45	O	-0.236954	-0.220935	0.009228
O46	O	-0.236950	-0.220939	-0.054773
O47	O	-0.327860	-0.266385	0.054680
O48	O	-0.236948	-0.168954	-0.054776
O49	O	-0.236952	-0.168950	0.009225
O50	O	-0.327854	-0.214403	-0.009325
Cu51	Cu	-0.282403	-0.186930	-0.000050
Cu52	Cu	-0.282405	-0.248408	-0.000046
O53	O	-0.327858	-0.214400	0.054676
C54	C	0.384390	-0.079141	-0.361606
C55	C	0.422270	-0.041526	-0.380503
C56	C	0.384390	-0.079141	-0.305008
C57	C	0.422270	-0.041526	-0.323990
C58	C	0.440988	-0.022543	-0.361606
C59	C	0.365758	-0.098038	-0.323991
C60	C	0.282465	-0.170819	-0.396168
C61	C	0.261627	-0.188759	-0.413983
C62	C	0.279513	-0.169420	-0.451257
C63	C	0.256917	-0.188867	-0.470572
C64	C	0.318239	-0.132140	-0.470717
C65	C	0.339076	-0.114205	-0.452905
C66	C	0.321187	-0.133546	-0.415628
C67	C	0.567227	0.113942	-0.453282
C68	C	0.602981	0.152594	-0.471222
C69	C	0.620916	0.171985	-0.451883
C70	C	0.659678	0.213894	-0.471328
C71	C	0.603097	0.152719	-0.414603
C72	C	0.567349	0.114068	-0.396667
C73	C	0.549414	0.094682	-0.416011
C74	C	0.282465	-0.170819	-0.168522
C75	C	0.261624	-0.188757	-0.129868
C76	C	0.279510	-0.169418	-0.110479
C77	C	0.256914	-0.188865	-0.068568
C78	C	0.318233	-0.132140	-0.129742
C79	C	0.339070	-0.114203	-0.168394
C80	C	0.321184	-0.133548	-0.187782
C81	C	0.343783	-0.114094	-0.396315
C82	C	0.361794	-0.098590	-0.380920
C83	C	0.361794	-0.098590	-0.263099
C84	C	0.343783	-0.114094	-0.229693
C85	C	0.479750	0.019366	-0.381054
C86	C	0.510649	0.052771	-0.396557
C87	C	0.440758	-0.356212	-0.028193
C88	C	0.422041	-0.393827	-0.028459
C89	C	0.384158	-0.356213	-0.028190
C90	C	0.365526	-0.393828	-0.028456
C91	C	0.384160	-0.412810	-0.028193
C92	C	0.422038	-0.337315	-0.028456
C93	C	0.567000	-0.264532	-0.017949
C94	C	0.602755	-0.246591	-0.015053
C95	C	0.620692	-0.265931	-0.013601
C96	C	0.659455	-0.246483	-0.010453
C97	C	0.602873	-0.303210	-0.015048
C98	C	0.567125	-0.321146	-0.017949
C99	C	0.549188	-0.301805	-0.019399
C100	C	0.339356	-0.549295	-0.017951
C101	C	0.318645	-0.587947	-0.015055
C102	C	0.279915	-0.607338	-0.013597
C103	C	0.257452	-0.649247	-0.010452
C104	C	0.261899	-0.588073	-0.015042
C105	C	0.282613	-0.549422	-0.017945
C106	C	0.321343	-0.530035	-0.019397
C107	C	0.339344	-0.264537	-0.017936
C108	C	0.318628	-0.246599	-0.015032
C109	C	0.279898	-0.265939	-0.013577
C110	C	0.257433	-0.246493	-0.010426
C111	C	0.261884	-0.303217	-0.015022
C112	C	0.282601	-0.321153	-0.017924
C113	C	0.321334	-0.301808	-0.019385
C114	C	0.510421	-0.321258	-0.022542
C115	C	0.479522	-0.336762	-0.025048
C116	C	0.361696	-0.336765	-0.025041
C117	C	0.343793	-0.321261	-0.022532
C118	C	0.361701	-0.454719	-0.025047
C119	C	0.343799	-0.488125	-0.022541
O120	O	0.223728	0.336934	-0.009323
O121	O	0.159726	0.227482	0.009227
O122	O	0.223729	0.291478	-0.054775
O123	O	0.159725	0.272938	0.054678
O124	O	0.275711	0.291477	-0.054771
O125	O	0.211707	0.227481	0.009230
O126	O	0.275710	0.336932	-0.009320
Cu127	Cu	0.248455	0.282206	-0.000045
Cu128	Cu	0.186981	0.282208	-0.000049
O129	O	0.211707	0.272936	0.054681
O130	O	0.763271	0.337164	-0.496871
O131	O	0.672367	0.227713	-0.451422
O132	O	0.672365	0.291711	-0.451418
O133	O	0.763273	0.273165	-0.496876
O134	O	0.672366	0.291712	-0.503402
O135	O	0.672368	0.227714	-0.503407
O136	O	0.763272	0.337165	-0.548856
Cu137	Cu	0.717820	0.282440	-0.530878
Cu138	Cu	0.717819	0.282438	-0.469400
O139	O	0.763275	0.273167	-0.548860
O140	O	0.211690	-0.214417	-0.548617
O141	O	0.275691	-0.168962	-0.503167
O142	O	0.211689	-0.168964	-0.503163
O143	O	0.275692	-0.214415	-0.548621
O144	O	0.159706	-0.220947	-0.451179
O145	O	0.223708	-0.220945	-0.451183
O146	O	0.159707	-0.266400	-0.496633
Cu147	Cu	0.186961	-0.248419	-0.469161
Cu148	Cu	0.248437	-0.186943	-0.530639
O149	O	0.223709	-0.266398	-0.496637
C150	C	-0.005343	-0.412572	0.361558
C151	C	0.013375	-0.393590	0.380456
C152	C	0.051255	-0.355974	0.304961
C153	C	0.069887	-0.337077	0.323944
C154	C	0.051254	-0.355974	0.361560
C155	C	0.013375	-0.393589	0.323943
C156	C	-0.131582	-0.549057	0.396116
C157	C	-0.167336	-0.587709	0.413930
C158	C	-0.185271	-0.607098	0.451205
C159	C	-0.224034	-0.649009	0.470519
C160	C	-0.167452	-0.587833	0.470666
C161	C	-0.131705	-0.549184	0.452854
C162	C	-0.113770	-0.529796	0.415578
C163	C	0.096061	-0.321414	0.453239
C164	C	0.116773	-0.303600	0.471179
C165	C	0.155502	-0.266327	0.451842
C166	C	0.177965	-0.247011	0.471288
C167	C	0.173517	-0.246866	0.414562
C168	C	0.152802	-0.264677	0.396625
C169	C	0.114073	-0.301955	0.415968
C170	C	0.096064	-0.321412	0.168474
C171	C	0.116779	-0.303599	0.129820
C172	C	0.155508	-0.266324	0.110432
C173	C	0.177972	-0.247009	0.068521
C174	C	0.173522	-0.246865	0.129696
C175	C	0.152807	-0.264680	0.168348
C176	C	0.114075	-0.301953	0.187735
C177	C	-0.075004	-0.487887	0.396265
C178	C	-0.044106	-0.454481	0.380871
C179	C	0.073715	-0.336660	0.263052
C180	C	0.091618	-0.321265	0.229646
C181	C	0.073714	-0.336661	0.381009
C182	C	0.091616	-0.321267	0.396513
C183	C	0.051046	-0.022794	-0.361634
C184	C	0.069679	-0.041778	-0.380530
C185	C	-0.005555	-0.079390	-0.305034
C186	C	0.013163	-0.098288	-0.324016
C187	C	0.051045	-0.079393	-0.361631
C188	C	0.013164	-0.041775	-0.324018
C189	C	0.095858	0.113693	-0.396200
C190	C	0.116571	0.152344	-0.414015
C191	C	0.155302	0.171732	-0.451290
C192	C	0.177767	0.213642	-0.470607
C193	C	0.173317	0.152465	-0.470750
C194	C	0.152600	0.113815	-0.452936
C195	C	0.113869	0.094429	-0.415659
C196	C	0.152973	-0.113959	-0.453306
C197	C	0.173810	-0.131775	-0.471245
C198	C	0.155926	-0.169048	-0.451906
C199	C	0.178519	-0.188366	-0.471350
C200	C	0.117198	-0.188507	-0.414626
C201	C	0.096358	-0.170694	-0.396690
C202	C	0.114251	-0.133416	-0.416035
C203	C	-0.131801	-0.113944	-0.168548
C204	C	-0.167554	-0.131755	-0.129895
C205	C	-0.185491	-0.169029	-0.110504
C206	C	-0.224255	-0.188343	-0.068593
C207	C	-0.167671	-0.188490	-0.129767
C208	C	-0.131918	-0.170677	-0.168418
C209	C	-0.113988	-0.133404	-0.187808
C210	C	0.091411	0.052521	-0.396344
C211	C	0.073508	0.019115	-0.380949
C212	C	-0.044320	-0.098701	-0.263125
C213	C	-0.075220	-0.114094	-0.229719
C214	C	0.073641	-0.098707	-0.381079
C215	C	0.091652	-0.114103	-0.396582
C216	C	-0.615853	-0.356193	0.361535
C217	C	-0.634487	-0.393808	0.380433
C218	C	-0.559253	-0.356195	0.304938
C219	C	-0.577972	-0.393810	0.323921
C220	C	-0.615854	-0.412792	0.361537
C221	C	-0.577972	-0.337297	0.323920
C222	C	-0.660661	-0.264512	0.396093
C223	C	-0.681373	-0.246571	0.413906
C224	C	-0.720104	-0.265909	0.451181
C225	C	-0.742568	-0.246461	0.470495
C226	C	-0.738120	-0.303189	0.470643
C227	C	-0.717405	-0.321125	0.452831
C228	C	-0.678674	-0.301785	0.415554
C229	C	-0.717784	-0.549275	0.453218
C230	C	-0.738622	-0.587926	0.471159
C231	C	-0.720740	-0.607319	0.451822
C232	C	-0.743333	-0.649227	0.471268
C233	C	-0.682012	-0.588055	0.414542
C234	C	-0.661170	-0.549403	0.396604
C235	C	-0.679063	-0.530016	0.415946
C236	C	-0.433006	-0.264522	0.168449
C237	C	-0.397253	-0.246585	0.129796
C238	C	-0.379317	-0.265926	0.110407
C239	C	-0.340553	-0.246480	0.068496
C240	C	-0.397138	-0.303204	0.129672
C241	C	-0.432891	-0.321139	0.168324
C242	C	-0.450820	-0.301793	0.187711
C243	C	-0.656216	-0.321238	0.396242
C244	C	-0.638314	-0.336743	0.380848
C245	C	-0.520488	-0.336748	0.263028
C246	C	-0.489588	-0.321245	0.229622
C247	C	-0.638451	-0.454700	0.380987
C248	C	-0.656463	-0.488106	0.396492
C249	C	0.440756	0.310302	-0.361620
C250	C	0.422038	0.310564	-0.380518
C251	C	0.384160	0.310312	-0.305026
C252	C	0.365528	0.310574	-0.324010
C253	C	0.384159	0.310303	-0.361624
C254	C	0.422038	0.310573	-0.324006
C255	C	0.566989	0.300046	-0.396172
C256	C	0.602741	0.297145	-0.413984
C257	C	0.620675	0.295684	-0.451257
C258	C	0.659436	0.292531	-0.470569
C259	C	0.602857	0.297127	-0.470719
C260	C	0.567111	0.300033	-0.452909
C261	C	0.549177	0.301493	-0.415634
C262	C	0.339351	0.300042	-0.453303
C263	C	0.318640	0.297142	-0.471244
C264	C	0.279912	0.295690	-0.451908
C265	C	0.257449	0.292541	-0.471354
C266	C	0.261899	0.297143	-0.414629
C267	C	0.282613	0.300049	-0.396692
C268	C	0.321341	0.301496	-0.416033
C269	C	0.339354	0.300088	-0.168540
C270	C	0.318640	0.297192	-0.129888
C271	C	0.279912	0.295742	-0.110501
C272	C	0.257450	0.292601	-0.068591
C273	C	0.261898	0.297184	-0.129766
C274	C	0.282612	0.300078	-0.168417
C275	C	0.321344	0.301533	-0.187802
C276	C	0.510413	0.304640	-0.396323
C277	C	0.479516	0.307151	-0.380931
C278	C	0.361701	0.307173	-0.263117
C279	C	0.343799	0.304671	-0.229712
C280	C	0.361700	0.307154	-0.381073
C281	C	0.343798	0.304644	-0.396578
O282	O	0.275503	0.336913	-0.548651
O283	O	0.211494	0.227461	-0.503201
O284	O	0.275490	0.291455	-0.503192
O285	O	0.211507	0.272919	-0.548659
O286	O	0.223502	0.291457	-0.451211
O287	O	0.159506	0.227463	-0.451219
O288	O	0.223515	0.336915	-0.496669
Cu289	Cu	0.186764	0.282189	-0.469197
Cu290	Cu	0.248246	0.282187	-0.530672
O291	O	0.159519	0.272921	-0.496677
C292	C	0.051032	0.254111	0.361530
C293	C	0.013154	0.253851	0.380425
C294	C	0.051031	0.254102	0.304932
C295	C	0.013153	0.253842	0.323913
C296	C	-0.005564	0.254113	0.361527
C297	C	0.069663	0.253840	0.323916
C298	C	0.152954	0.264360	0.396096
C299	C	0.173791	0.267260	0.413911
C300	C	0.155906	0.268721	0.451185
C301	C	0.178502	0.271871	0.470501
C302	C	0.117182	0.267279	0.470643
C303	C	0.096345	0.264374	0.452830
C304	C	0.114233	0.262915	0.415555
C305	C	-0.131796	0.264379	0.453195
C306	C	-0.167548	0.267281	0.471133
C307	C	-0.185483	0.268734	0.451793
C308	C	-0.224243	0.271886	0.471236
C309	C	-0.167664	0.267282	0.414515
C310	C	-0.131919	0.264374	0.396581
C311	C	-0.113984	0.262925	0.415925
C312	C	0.152952	0.264325	0.168451
C313	C	0.173792	0.267221	0.129798
C314	C	0.155907	0.268673	0.110407
C315	C	0.178502	0.271814	0.068498
C316	C	0.117186	0.267232	0.129669
C317	C	0.096350	0.264339	0.168320
C318	C	0.114234	0.262881	0.187709
C319	C	0.091638	0.259769	0.396240
C320	C	0.073627	0.257260	0.380845
C321	C	0.073626	0.257242	0.263024
C322	C	0.091636	0.259743	0.229619
C323	C	-0.044324	0.257264	0.380973
C324	C	-0.075221	0.259775	0.396474
H325	H	0.064802	-0.186523	0.019045
H326	H	0.205316	0.168042	0.013788
C327	C	-0.780621	-0.608838	0.511657
C328	C	-0.773583	-0.622363	0.535626
C329	C	-0.812261	-0.641623	0.572936
H330	H	-0.803959	-0.629801	0.511742
H331	H	-0.788291	-0.591760	0.520625
H332	H	-0.765918	-0.639439	0.526660
H333	H	-0.750252	-0.601407	0.535553
H334	H	-0.819931	-0.624545	0.581904
H335	H	-0.835596	-0.662585	0.573016
H336	H	-0.807490	-0.650799	0.589204
H337	H	0.102103	-0.319447	0.501532
H338	H	-0.182272	0.268459	0.398770
C339	C	-0.112331	0.262862	0.474222
C340	C	-0.096986	0.296231	0.483664
C341	C	-0.079056	0.294846	0.503036
H342	H	-0.088468	0.260945	0.458238
H343	H	-0.134445	0.241206	0.496950
H344	H	-0.074873	0.317882	0.460939
H345	H	-0.120840	0.298156	0.499652
H346	H	-0.101170	0.273189	0.525764
H347	H	-0.055195	0.292927	0.487050
H348	H	-0.068646	0.317484	0.509448
H349	H	0.335046	0.310999	-0.308768
C350	C	0.097765	-0.228955	-0.393560
C351	C	0.096268	-0.229730	-0.360104
C352	C	0.078365	-0.266985	-0.340686
H353	H	0.115693	-0.236818	-0.409531
H354	H	0.068702	-0.245838	-0.387105
H355	H	0.125327	-0.212853	-0.366560
H356	H	0.078339	-0.221875	-0.344124
H357	H	0.049302	-0.283868	-0.334231
H358	H	0.096295	-0.274845	-0.356660
H359	H	0.077344	-0.267517	-0.317982
C360	C	0.622158	0.295587	-0.392924
C361	C	0.657310	0.292740	-0.416503
C362	C	0.675209	0.291308	-0.397117
H363	H	0.600040	0.273924	-0.370209
H364	H	0.632581	0.318216	-0.386499
H365	H	0.646885	0.270113	-0.422922
H366	H	0.679436	0.314400	-0.439218
H367	H	0.685633	0.313937	-0.390692
H368	H	0.653088	0.269645	-0.374403
H369	H	0.699064	0.289379	-0.413113
H370	H	-0.182052	0.268464	0.501484
C371	C	0.622386	-0.324195	-0.013552
C372	C	0.637751	-0.333620	-0.046930
C373	C	0.655734	-0.352949	-0.045567
H374	H	0.600308	-0.346926	0.008093
H375	H	0.646248	-0.308179	-0.011637
H376	H	0.613892	-0.349636	-0.048840
H377	H	0.659835	-0.310896	-0.068580
H378	H	0.679596	-0.336932	-0.043653
H379	H	0.633653	-0.375678	-0.023921
H380	H	0.666165	-0.359343	-0.068215
H381	H	0.267896	-0.186572	-0.365817
C382	C	0.325106	-0.139243	-0.303729
C383	C	0.312711	-0.151800	-0.328412
C384	C	0.275259	-0.189751	-0.309757
H385	H	0.301542	-0.140722	-0.281499
H386	H	0.331676	-0.154992	-0.296565
H387	H	0.306138	-0.136055	-0.335570
H388	H	0.336263	-0.150331	-0.350643
H389	H	0.281830	-0.205500	-0.302593
H390	H	0.251699	-0.191226	-0.287527
H391	H	0.266847	-0.198277	-0.326503
C392	C	0.547820	-0.361588	-0.019600
C393	C	0.551322	-0.361531	-0.053938
C394	C	0.533547	-0.398779	-0.055473
H395	H	0.517589	-0.377935	0.001386
H396	H	0.563626	-0.370544	-0.018341
H397	H	0.535515	-0.352580	-0.055193
H398	H	0.581547	-0.345192	-0.074929
H399	H	0.549353	-0.407736	-0.054214
H400	H	0.503318	-0.415123	-0.034486
H401	H	0.535925	-0.398745	-0.078772
H402	H	0.167506	-0.083593	0.019063
H403	H	0.064825	-0.186540	-0.366338
C404	C	-0.737035	-0.361626	0.473948
C405	C	-0.779847	-0.386348	0.483378
C406	C	-0.797944	-0.423662	0.502827
H407	H	-0.738129	-0.362234	0.496684
H408	H	-0.719176	-0.369563	0.458005
H409	H	-0.797702	-0.378414	0.499321
H410	H	-0.778766	-0.385752	0.460650
H411	H	-0.780085	-0.431599	0.486884
H412	H	-0.799035	-0.424267	0.525561
H413	H	-0.826992	-0.440441	0.509224
C414	C	0.172310	0.092597	0.019433
C415	C	0.145781	0.054628	0.022272
C416	C	0.163605	0.035169	0.023712
H417	H	0.173349	0.092996	0.041102
H418	H	0.201358	0.104752	-0.003191
H419	H	0.116741	0.042476	0.044893
H420	H	0.144739	0.054217	0.000605
H421	H	0.192653	0.047324	0.001089
H422	H	0.164644	0.035571	0.045382
H423	H	0.145610	0.009406	0.025635
H424	H	0.552400	-0.248780	-0.019131
C425	C	0.263102	-0.361629	-0.019484
C426	C	0.289528	-0.373201	-0.022328
C427	C	0.271576	-0.410487	-0.023761
H428	H	0.262054	-0.362227	-0.041149
H429	H	0.234048	-0.378477	0.003144
H430	H	0.318574	-0.356358	-0.044954
H431	H	0.290578	-0.372612	-0.000666
H432	H	0.242521	-0.427335	-0.001132
H433	H	0.270528	-0.411081	-0.045425
H434	H	0.289500	-0.418344	-0.025687
H435	H	-0.117415	0.263190	0.366230
H436	H	0.617463	0.295940	-0.501068
C437	C	0.219595	-0.229236	-0.109025
C438	C	0.208398	-0.242338	-0.134279
C439	C	0.169686	-0.279626	-0.115093
H440	H	0.196245	-0.229314	-0.088084
H441	H	0.224284	-0.245567	-0.099824
H442	H	0.203706	-0.226011	-0.143474
H443	H	0.231737	-0.242269	-0.155220
H444	H	0.174375	-0.295957	-0.105893
H445	H	0.146339	-0.279701	-0.094153
H446	H	0.162086	-0.288522	-0.132226
H447	H	-0.117435	-0.186523	0.019040
C448	C	-0.112201	-0.528013	0.355678
C449	C	-0.144885	-0.528721	0.354921
C450	C	-0.127049	-0.509336	0.317678
H451	H	-0.101766	-0.540167	0.338767
H452	H	-0.088368	-0.502225	0.347841
H453	H	-0.168709	-0.554505	0.362752
H454	H	-0.155322	-0.516565	0.371824
H455	H	-0.103216	-0.483548	0.309841
H456	H	-0.116614	-0.521492	0.300770
H457	H	-0.149220	-0.509811	0.317160
C458	C	0.324869	-0.414224	-0.029002
C459	C	0.312485	-0.451299	-0.029171
C460	C	0.275032	-0.470100	-0.029670
H461	H	0.331423	-0.400501	-0.051313
H462	H	0.301307	-0.415557	-0.006908
H463	H	0.336042	-0.449964	-0.051263
H464	H	0.305923	-0.465032	-0.006863
H465	H	0.251470	-0.471433	-0.007576
H466	H	0.281589	-0.456374	-0.051981
H467	H	0.266622	-0.495258	-0.029781
H468	H	0.370892	-0.533512	-0.019136
H469	H	0.064321	0.097912	-0.365848
H470	H	0.205048	-0.216515	0.398819
H471	H	-0.732353	-0.533492	0.468971
C472	C	0.622019	-0.206127	-0.013463
C473	C	0.598652	-0.193034	-0.015343
C474	C	0.616380	-0.155763	-0.013872
H475	H	0.652238	-0.189769	-0.034468
H476	H	0.619670	-0.206086	0.009822
H477	H	0.601005	-0.193073	-0.038624
H478	H	0.568433	-0.209382	0.005662
H479	H	0.614031	-0.155721	0.009412
H480	H	0.646599	-0.139408	-0.034879
H481	H	0.600525	-0.146875	-0.015144
C482	C	0.381438	0.301721	-0.189557
C483	C	0.414177	0.333682	-0.188842
C484	C	0.452947	0.335195	-0.208196
H485	H	0.391254	0.303673	-0.215346
H486	H	0.375714	0.279114	-0.177376
H487	H	0.419901	0.356283	-0.201024
H488	H	0.404375	0.331737	-0.163058
H489	H	0.447223	0.312589	-0.196015
H490	H	0.462759	0.337147	-0.233984
H491	H	0.475164	0.356879	-0.207710
H492	H	0.102618	0.168275	0.013770
H493	H	-0.002524	-0.026519	0.028802
C494	C	0.172146	0.092867	-0.473993
C495	C	0.182560	0.079329	-0.453406
C496	C	0.200562	0.060025	-0.472789
H497	H	0.198196	0.109909	-0.498743
H498	H	0.151238	0.071905	-0.476349
H499	H	0.203467	0.100288	-0.451055
H500	H	0.156518	0.062282	-0.428657
H501	H	0.179654	0.039064	-0.475145
H502	H	0.226610	0.077070	-0.497538
H503	H	0.207627	0.050835	-0.458822
C504	C	0.097822	0.268795	0.108557
C505	C	0.124349	0.271628	0.070588
C506	C	0.106522	0.273064	0.051131
H507	H	0.096783	0.290465	0.108953
H508	H	0.068774	0.246172	0.120715
H509	H	0.153389	0.294249	0.058433
H510	H	0.125390	0.249961	0.070181
H511	H	0.077474	0.250441	0.063289
H512	H	0.105484	0.294734	0.051530
H513	H	0.124515	0.274983	0.025368
C514	C	0.442999	-0.296102	-0.029036
C515	C	0.480249	-0.283539	-0.029213
C516	C	0.499569	-0.245576	-0.029750
H517	H	0.422264	-0.294600	-0.006960
H518	H	0.451579	-0.280370	-0.051363
H519	H	0.471668	-0.299267	-0.006888
H520	H	0.500994	-0.285031	-0.051288
H521	H	0.508149	-0.229845	-0.052077
H522	H	0.478830	-0.244079	-0.007673
H523	H	0.524847	-0.237047	-0.029873
H524	H	-0.182070	-0.115902	0.013781
C525	C	-0.675177	-0.414209	0.421622
C526	C	-0.709779	-0.446967	0.423648
C527	C	-0.747268	-0.465779	0.461582
H528	H	-0.683719	-0.397567	0.430258
H529	H	-0.668593	-0.421399	0.437344
H530	H	-0.716363	-0.439777	0.407931
H531	H	-0.701251	-0.463618	0.415019
H532	H	-0.740684	-0.472968	0.477304
H533	H	-0.755806	-0.449134	0.470215
H534	H	-0.770749	-0.488009	0.462962
H535	H	-0.002293	-0.408830	0.308704
C536	C	0.097141	-0.324781	0.108978
C537	C	0.058782	-0.361232	0.134232
C538	C	0.040674	-0.380753	0.115048
H539	H	0.117999	-0.327193	0.088035
H540	H	0.090011	-0.310888	0.099780
H541	H	0.065913	-0.375122	0.143424
H542	H	0.037914	-0.358831	0.155175
H543	H	0.033545	-0.366860	0.105851
H544	H	0.061535	-0.383162	0.094106
H545	H	0.014644	-0.405486	0.132181
H546	H	-0.769653	-0.318930	0.500992
H547	H	0.333315	-0.603629	-0.013877
H548	H	-0.181841	-0.603391	0.398082
C549	C	0.215796	0.268729	0.108855
C550	C	0.208748	0.237726	0.095320
C551	C	0.247433	0.239104	0.076023
H552	H	0.223498	0.267430	0.125902
H553	H	0.239116	0.291992	0.087893
H554	H	0.185435	0.214469	0.116280
H555	H	0.201052	0.239018	0.078268
H556	H	0.270753	0.262367	0.055060
H557	H	0.255132	0.237806	0.093072
H558	H	0.242657	0.218071	0.066834
C559	C	0.263114	0.301634	-0.189395
C560	C	0.289537	0.304469	-0.227390
C561	C	0.271585	0.305898	-0.246725
H562	H	0.262068	0.323300	-0.188948
H563	H	0.234058	0.279007	-0.177187
H564	H	0.318585	0.327092	-0.239595
H565	H	0.290585	0.282805	-0.227848
H566	H	0.242529	0.283272	-0.234517
H567	H	0.270540	0.327564	-0.246275
H568	H	0.289508	0.307818	-0.272506
C569	C	0.338265	-0.206119	-0.013485
C570	C	0.376624	-0.193015	-0.015394
C571	C	0.394730	-0.155724	-0.013976
H572	H	0.317406	-0.206036	0.009785
H573	H	0.345393	-0.189791	-0.034506
H574	H	0.369494	-0.209339	0.005626
H575	H	0.397492	-0.193088	-0.038663
H576	H	0.401858	-0.139397	-0.034997
H577	H	0.373868	-0.155646	0.009295
H578	H	0.420760	-0.146828	-0.015274
H579	H	0.230365	-0.603862	-0.013858
H580	H	0.552845	0.098385	-0.366316
H581	H	0.167477	-0.248833	0.184031
C582	C	0.219846	-0.324146	-0.013462
C583	C	0.205565	-0.300457	-0.010624
C584	C	0.166848	-0.319720	-0.009193
H585	H	0.197533	-0.346857	0.008204
H586	H	0.225587	-0.330565	-0.036089
H587	H	0.199822	-0.294044	0.012001
H588	H	0.227867	-0.277746	-0.032287
H589	H	0.172589	-0.326139	-0.031820
H590	H	0.144538	-0.342431	0.012473
H591	H	0.157156	-0.303649	-0.007271
C592	C	0.215782	-0.110699	0.013466
C593	C	0.208734	-0.131283	0.044468
C594	C	0.247418	-0.111900	0.043088
H595	H	0.223487	-0.085949	0.014766
H596	H	0.239102	-0.108342	-0.009798
H597	H	0.185422	-0.133636	0.067726
H598	H	0.201035	-0.156032	0.043174
H599	H	0.270738	-0.109543	0.019823
H600	H	0.255120	-0.087151	0.044387
H601	H	0.242642	-0.125865	0.064120
C602	C	0.262974	-0.528580	-0.019487
C603	C	0.224617	-0.553834	-0.017582
C604	C	0.206509	-0.534649	-0.018996
H605	H	0.283832	-0.507638	-0.042756
H606	H	0.255843	-0.519382	0.001537
H607	H	0.231749	-0.563025	-0.038604
H608	H	0.203748	-0.574776	0.005685
H609	H	0.199378	-0.525452	0.002028
H610	H	0.227371	-0.513708	-0.042264
H611	H	0.180480	-0.551782	-0.017700
H612	H	-0.002509	-0.129196	-0.308775
H613	H	0.370881	-0.248784	-0.019122
H614	H	-0.117412	-0.186525	-0.184100
H615	H	0.064821	0.263164	0.184001
C616	C	0.110516	-0.295861	0.303567
C617	C	0.122900	-0.283299	0.266494
C618	C	0.160320	-0.245333	0.247715
H619	H	0.134096	-0.294355	0.302224
H620	H	0.103914	-0.280133	0.317319
H621	H	0.129504	-0.299022	0.252746
H622	H	0.099331	-0.284796	0.267826
H623	H	0.153718	-0.229605	0.261467
H624	H	0.183897	-0.243830	0.246375
H625	H	0.168725	-0.236803	0.222560
H626	H	0.102606	-0.218843	0.013783
C627	C	-0.187220	-0.228966	-0.108655
C628	C	-0.222352	-0.240406	-0.070686
C629	C	-0.240374	-0.277690	-0.051229
H630	H	-0.165154	-0.229610	-0.109053
H631	H	-0.197687	-0.245855	-0.120813
H632	H	-0.211885	-0.223521	-0.058531
H633	H	-0.244427	-0.239771	-0.070276
H634	H	-0.250841	-0.294580	-0.063387
H635	H	-0.218305	-0.278331	-0.051630
H636	H	-0.264216	-0.285459	-0.025466
H637	H	0.552391	0.301235	-0.365822
C638	C	-0.007589	-0.413968	0.421671
C639	C	-0.044838	-0.451042	0.434232
C640	C	-0.064167	-0.469821	0.472199
H641	H	-0.016176	-0.400230	0.437406
H642	H	0.013155	-0.415303	0.423168
H643	H	-0.065578	-0.449706	0.432738
H644	H	-0.036263	-0.464791	0.418507
H645	H	-0.043422	-0.471155	0.473696
H646	H	-0.072751	-0.456079	0.487930
H647	H	-0.089440	-0.494978	0.480725
H648	H	0.332799	-0.116397	-0.501067
H649	H	-0.667447	-0.603843	0.398798
H650	H	0.205320	0.268435	0.398066
C651	C	0.263129	0.301715	-0.356254
C652	C	0.294028	0.336057	-0.356322
C653	C	0.276091	0.337610	-0.319080
H654	H	0.256021	0.280734	-0.339897
H655	H	0.237110	0.300459	-0.347304
H656	H	0.320038	0.337309	-0.365268
H657	H	0.301138	0.357044	-0.372672
H658	H	0.250073	0.336354	-0.310130
H659	H	0.268984	0.316627	-0.302726
H660	H	0.297052	0.360912	-0.319122
H661	H	-0.629638	-0.533721	0.366252
C662	C	0.053963	-0.361850	0.189567
C663	C	0.019751	-0.361721	0.220409
C664	C	-0.019040	-0.398964	0.239849
H665	H	0.058645	-0.378151	0.198820
H666	H	0.046169	-0.370900	0.172579
H667	H	0.027543	-0.352676	0.237394
H668	H	0.015054	-0.345428	0.211167
H669	H	-0.026834	-0.408014	0.222861
H670	H	-0.014353	-0.415261	0.249099
H671	H	-0.042258	-0.398881	0.260775
H672	H	0.552607	0.301210	-0.468757
H673	H	0.332793	-0.116391	-0.113952
H674	H	0.267897	-0.186572	-0.184305
C675	C	-0.112348	-0.073491	0.019505
C676	C	-0.115828	-0.073613	0.053837
C677	C	-0.097895	-0.036362	0.055365
H678	H	-0.128056	-0.064416	0.018252
H679	H	-0.082109	-0.057214	-0.001494
H680	H	-0.146061	-0.089884	0.074830
H681	H	-0.100118	-0.082681	0.055097
H682	H	-0.067657	-0.020085	0.034366
H683	H	-0.113606	-0.027290	0.054111
H684	H	-0.100250	-0.036440	0.078657
H685	H	-0.382532	-0.318952	0.113884
H686	H	-0.002525	-0.129181	0.028805
C687	C	0.054315	0.092993	0.019399
C688	C	0.043118	0.118248	0.017491
C689	C	0.004413	0.099063	0.018903
H690	H	0.030961	0.072052	0.042667
H691	H	0.059013	0.083795	-0.001625
H692	H	0.038418	0.127440	0.038513
H693	H	0.066461	0.139190	-0.005776
H694	H	0.009111	0.089866	-0.002120
H695	H	-0.018937	0.078122	0.042172
H696	H	-0.003186	0.116196	0.017606
H697	H	0.100131	-0.026521	0.028807
H698	H	0.205343	-0.115928	-0.501596
H699	H	0.167543	-0.083608	-0.469060
H700	H	-0.447397	-0.351491	0.184007
C701	C	-0.556998	-0.414058	0.303549
C702	C	-0.519741	-0.389369	0.266477
C703	C	-0.500403	-0.408004	0.247705
H704	H	-0.577721	-0.436299	0.302203
H705	H	-0.548422	-0.421201	0.317306
H706	H	-0.528319	-0.382232	0.252724
H707	H	-0.499008	-0.367128	0.267812
H708	H	-0.491827	-0.415147	0.261462
H709	H	-0.521130	-0.430244	0.246362
H710	H	-0.475120	-0.391254	0.222551
C711	C	0.443094	-0.021268	-0.303605
C712	C	0.418577	-0.045953	-0.266529
C713	C	0.437744	-0.027303	-0.247739
H714	H	0.443246	0.000964	-0.302267
H715	H	0.472577	-0.014109	-0.317346
H716	H	0.389102	-0.053106	-0.252791
H717	H	0.418424	-0.068185	-0.267856
H718	H	0.467227	-0.020144	-0.261480
H719	H	0.437895	-0.005072	-0.246404
H720	H	0.421115	-0.044050	-0.222582
H721	H	-0.182293	-0.218837	0.013775
C722	C	0.338128	0.295547	-0.108932
C723	C	0.307236	0.261213	-0.078094
C724	C	0.325177	0.259684	-0.058785
H725	H	0.345230	0.316535	-0.099690
H726	H	0.364150	0.296807	-0.125997
H727	H	0.281222	0.259957	-0.061032
H728	H	0.300132	0.240219	-0.087326
H729	H	0.351200	0.260943	-0.075849
H730	H	0.332279	0.280673	-0.049544
H731	H	0.304222	0.236387	-0.037861
H732	H	0.437707	0.310988	-0.411425
H733	H	0.437935	-0.026287	-0.411409
H734	H	-0.447603	-0.248768	0.184232
H735	H	0.230097	-0.219111	-0.398135
H736	H	0.370607	-0.083853	-0.468752
C737	C	-0.007652	0.253333	0.303527
C738	C	0.023060	0.285907	0.270769
C739	C	0.003912	0.285450	0.251980
H740	H	-0.032931	0.253235	0.320183
H741	H	-0.016188	0.231026	0.296339
H742	H	0.031590	0.308209	0.277958
H743	H	0.048341	0.286013	0.254104
H744	H	-0.004624	0.263142	0.244792
H745	H	-0.021367	0.285350	0.268639
H746	H	0.024748	0.307549	0.229750
C747	C	0.547765	0.092957	-0.474311
C748	C	0.532423	0.110981	-0.483757
C749	C	0.514497	0.091663	-0.503132
H750	H	0.523901	0.067179	-0.458326
H751	H	0.569881	0.093412	-0.497036
H752	H	0.510309	0.110522	-0.461035
H753	H	0.556278	0.136758	-0.499746
H754	H	0.536613	0.092118	-0.525858
H755	H	0.490635	0.065885	-0.487146
H756	H	0.504089	0.103891	-0.509547
C757	C	0.622317	0.173572	-0.511667
C758	C	0.618826	0.204414	-0.511601
C759	C	0.636636	0.223750	-0.548852
H760	H	0.606537	0.156536	-0.520652
H761	H	0.652551	0.182808	-0.527995
H762	H	0.588597	0.195178	-0.495279
H763	H	0.634607	0.221458	-0.502623
H764	H	0.666870	0.232987	-0.565180
H765	H	0.620854	0.206712	-0.557835
H766	H	0.634273	0.244681	-0.548814
C767	C	0.622616	0.173840	-0.393662
C768	C	0.657730	0.211814	-0.417343
C769	C	0.675717	0.231284	-0.398062
H770	H	0.633097	0.161712	-0.387227
H771	H	0.600516	0.173420	-0.370955
H772	H	0.679826	0.212231	-0.440043
H773	H	0.647261	0.223953	-0.423779
H774	H	0.653616	0.230865	-0.375355
H775	H	0.686195	0.219153	-0.391628
H776	H	0.699541	0.257052	-0.414126
C777	C	0.381116	-0.073734	-0.189244
C778	C	0.392324	-0.060638	-0.163994
C779	C	0.431055	-0.023361	-0.183188
H780	H	0.376457	-0.057384	-0.198451
H781	H	0.404449	-0.073683	-0.210184
H782	H	0.368997	-0.060687	-0.143062
H783	H	0.396992	-0.076979	-0.154786
H784	H	0.454387	-0.023310	-0.204128
H785	H	0.426392	-0.007013	-0.192395
H786	H	0.438667	-0.014472	-0.166060
C787	C	-0.186971	-0.608956	0.511124
C788	C	-0.222084	-0.646930	0.522555
C789	C	-0.240070	-0.666401	0.559821
H790	H	-0.197452	-0.596829	0.528042
H791	H	-0.164869	-0.608536	0.511728
H792	H	-0.244181	-0.647348	0.521954
H793	H	-0.211614	-0.659068	0.505647
H794	H	-0.217968	-0.665981	0.560426
H795	H	-0.250548	-0.654271	0.576737
H796	H	-0.263893	-0.692169	0.567581
C797	C	-0.112410	-0.528340	0.474039
C798	C	-0.135761	-0.553593	0.510491
C799	C	-0.117996	-0.534406	0.530016
H800	H	-0.114740	-0.507399	0.476448
H801	H	-0.082189	-0.519140	0.460148
H802	H	-0.165975	-0.562786	0.524379
H803	H	-0.133433	-0.574534	0.508093
H804	H	-0.087775	-0.525207	0.516125
H805	H	-0.120326	-0.513466	0.532423
H806	H	-0.133834	-0.551538	0.554749
C807	C	0.442959	-0.414145	-0.029111
C808	C	0.455526	-0.424646	-0.062045
C809	C	0.474800	-0.443361	-0.062662
H810	H	0.422213	-0.436404	-0.007058
H811	H	0.468264	-0.397453	-0.029249
H812	H	0.430225	-0.441338	-0.061904
H813	H	0.476276	-0.402395	-0.084103
H814	H	0.500104	-0.426669	-0.062800
H815	H	0.454051	-0.465619	-0.040608
H816	H	0.483332	-0.450486	-0.085010
C817	C	-0.618658	-0.243560	0.355595
C818	C	-0.625771	-0.264205	0.331700
C819	C	-0.587090	-0.244916	0.294391
H820	H	-0.595364	-0.241237	0.355554
H821	H	-0.610891	-0.218794	0.346535
H822	H	-0.633531	-0.288965	0.340758
H823	H	-0.649058	-0.266530	0.331730
H824	H	-0.579324	-0.220150	0.285331
H825	H	-0.563799	-0.242594	0.294354
H826	H	-0.591913	-0.258919	0.278173
H827	H	0.064526	-0.351765	0.468991
C828	C	0.443003	0.311163	-0.303754
C829	C	0.480253	0.311336	-0.328441
C830	C	0.499578	0.311886	-0.309800
H831	H	0.422271	0.289093	-0.281514
H832	H	0.451585	0.333495	-0.296609
H833	H	0.471670	0.289007	-0.335581
H834	H	0.500995	0.333405	-0.350681
H835	H	0.508160	0.334218	-0.302654
H836	H	0.478843	0.289815	-0.287560
H837	H	0.524856	0.312007	-0.326548
H838	H	-0.562326	-0.306401	0.308670
H839	H	0.167470	-0.248829	0.366274
C840	C	0.338279	0.295624	-0.511735
C841	C	0.381103	0.328992	-0.536463
C842	C	0.399211	0.327604	-0.573766
H843	H	0.320449	0.293706	-0.519702
H844	H	0.339349	0.273967	-0.512299
H845	H	0.380031	0.350644	-0.535901
H846	H	0.398944	0.330917	-0.528509
H847	H	0.400281	0.305947	-0.574330
H848	H	0.381378	0.325686	-0.581729
H849	H	0.428270	0.350242	-0.590548
H850	H	0.370885	0.301223	-0.469054
C851	C	0.219839	0.295546	-0.393690
C852	C	0.205546	0.292682	-0.417372
C853	C	0.166798	0.291203	-0.398094
H854	H	0.225533	0.318157	-0.387258
H855	H	0.197550	0.273868	-0.370982
H856	H	0.227830	0.314358	-0.440074
H857	H	0.199842	0.270072	-0.423806
H858	H	0.144509	0.269525	-0.375386
H859	H	0.172496	0.313814	-0.391662
H860	H	0.157093	0.289256	-0.414158
C861	C	0.215562	-0.206389	0.108587
C862	C	0.229843	-0.194946	0.070617
C863	C	0.268564	-0.157662	0.051162
H864	H	0.237874	-0.205745	0.108985
H865	H	0.209825	-0.189501	0.120745
H866	H	0.235583	-0.211830	0.058461
H867	H	0.207543	-0.195581	0.070207
H868	H	0.262826	-0.140774	0.063321
H869	H	0.290872	-0.157022	0.051563
H870	H	0.278256	-0.149892	0.025399
H871	H	0.100165	-0.026535	-0.411435
C872	C	0.219861	0.295627	-0.108658
C873	C	0.205582	0.292795	-0.070690
C874	C	0.166864	0.291366	-0.051237
H875	H	0.197548	0.273959	-0.109055
H876	H	0.225602	0.318252	-0.120820
H877	H	0.199839	0.270173	-0.058531
H878	H	0.227884	0.314460	-0.070282
H879	H	0.172605	0.313991	-0.063399
H880	H	0.144554	0.269698	-0.051636
H881	H	0.157173	0.289448	-0.025474
C882	C	-0.007672	-0.021394	-0.303767
C883	C	0.016842	0.015679	-0.328457
C884	C	-0.002341	0.034461	-0.309816
H885	H	-0.007835	-0.020052	-0.281530
H886	H	-0.037151	-0.035142	-0.296617
H887	H	0.046313	0.029423	-0.335601
H888	H	0.017007	0.014348	-0.350694
H889	H	-0.031820	0.020714	-0.302666
H890	H	-0.002504	0.035801	-0.287579
H891	H	0.014286	0.059616	-0.326566
H892	H	-0.002512	0.253428	0.411332
H893	H	-0.182059	-0.115906	-0.114213
H894	H	-0.117212	-0.083598	-0.184336
C895	C	0.096960	0.173200	-0.392817
C896	C	0.058617	0.147953	-0.356356
C897	C	0.040543	0.167153	-0.336815
H898	H	0.089817	0.182413	-0.406678
H899	H	0.117854	0.194135	-0.390426
H900	H	0.037727	0.127025	-0.358749
H901	H	0.065748	0.138738	-0.342485
H902	H	0.061437	0.188088	-0.334424
H903	H	0.033403	0.176366	-0.350680
H904	H	0.014528	0.150027	-0.312073
H905	H	0.204850	0.168253	-0.501099
H906	H	-0.382753	-0.216236	0.114110
H907	H	-0.666703	-0.216219	0.398058
H908	H	0.100149	0.253421	0.308676
H909	H	0.167518	0.263140	0.184235
H910	H	0.167522	0.263171	0.365746
C911	C	0.097850	0.268894	0.511098
C912	C	0.124393	0.271758	0.522531
C913	C	0.106601	0.273255	0.559794
H914	H	0.068803	0.246290	0.528020
H915	H	0.096830	0.290578	0.511697
H916	H	0.125408	0.250076	0.521936
H917	H	0.153440	0.294361	0.505620
H918	H	0.105582	0.294938	0.560393
H919	H	0.077555	0.250650	0.576713
H920	H	0.124610	0.275201	0.567555
H921	H	0.064816	0.263199	0.468675
