data_functionalizedCrystal
_audit_creation_method	'MofGen! by Chris Wilmer'
_symmetry_space_group_name_H-M	'P1'
_symmetry_Int_Tables_number	1
_symmetry_cell_setting	triclinic
loop_
_symmetry_equiv_pos_as_xyz
  x,y,z
_cell_length_a	10.654550
_cell_length_b	14.853567
_cell_length_c	9.730223
_cell_angle_alpha	89.999394
_cell_angle_beta	89.999957
_cell_angle_gamma	84.059930
loop_
_atom_site_label
_atom_site_type_symbol
_atom_site_fract_x
_atom_site_fract_y
_atom_site_fract_z
O1	O	1.666524	0.126626	-0.114175
O2	O	1.300920	0.138690	-0.114199
O3	O	1.493487	0.001480	-0.114190
O4	O	1.473956	0.263835	-0.114183
O5	O	1.493475	0.001477	0.114390
O6	O	1.300907	0.138686	0.114381
O7	O	1.666511	0.126622	0.114405
Zn8	Zn	1.483707	0.132654	0.150685
Zn9	Zn	1.483724	0.132659	-0.150479
O10	O	1.473943	0.263832	0.114397
C11	C	1.254125	0.137802	0.000088
C12	C	1.114709	0.135152	0.000078
C13	C	1.034384	0.215939	0.000084
C14	C	0.903389	0.213443	0.000108
C15	C	0.933057	0.049367	0.000114
C16	C	1.064049	0.051864	0.000100
C17	C	1.492596	-0.032115	0.000096
C18	C	1.489944	-0.132213	0.000084
C19	C	1.364344	-0.545419	0.000102
C20	C	1.593119	-0.565475	0.000116
C21	C	1.595613	-0.471428	0.000109
C22	C	1.482470	-0.414372	0.000099
C23	C	1.366834	-0.451363	0.000098
C24	C	1.711247	-0.434430	0.000124
C25	C	1.713745	-0.340378	0.000118
C26	C	1.600601	-0.283320	0.000098
C27	C	1.484961	-0.320316	0.000095
C28	C	1.371818	-0.263260	0.000086
C29	C	1.256176	-0.300254	0.000073
C30	C	1.253691	-0.394305	0.000079
C31	C	1.603087	-0.189269	0.000093
C32	C	1.374308	-0.169204	0.000082
C33	C	1.713306	0.127510	0.000116
C34	C	1.852722	0.130160	0.000116
C35	C	1.474835	0.297427	0.000108
C36	C	1.477487	0.397525	0.000111
N37	N	1.483705	0.132650	0.356222
N38	N	1.483735	0.132655	-0.356015
C39	C	1.569003	0.071919	0.428151
C40	C	1.569016	0.071919	0.572034
C41	C	1.398429	0.193389	0.572045
C42	C	1.398411	0.193383	0.428165
H43	H	0.837993	0.279228	0.000116
H44	H	0.891793	-0.018444	0.000140
H45	H	1.685234	-0.611935	0.000135
C46	C	1.738599	-0.095139	0.117611
C47	C	1.730189	-0.148607	0.000110
H48	H	1.817076	-0.070044	0.117620
H49	H	1.671585	-0.047702	0.117586
H50	H	1.732859	-0.131418	0.197315
H51	H	1.735920	-0.112326	-0.079595
H52	H	1.797222	-0.196051	0.000122
C53	C	1.227520	0.211803	0.266380
C54	C	1.304647	0.260145	0.349087
H55	H	1.169633	0.253018	0.217568
H56	H	1.278310	0.175636	0.202952
H57	H	1.182295	0.173981	0.322537
H58	H	1.349881	0.297963	0.292929
H59	H	1.253851	0.296328	0.412522
C60	C	1.244389	-0.051803	-0.117439
C61	C	1.249935	-0.106491	0.000067
H62	H	1.167602	-0.013092	-0.117450
H63	H	1.313600	-0.016311	-0.117418
H64	H	1.248184	-0.088919	-0.197140
H65	H	1.246150	-0.069374	0.079769
H66	H	1.180705	-0.141986	0.000059
C67	C	1.126276	-0.182842	-0.117442
C68	C	1.131811	-0.237533	0.000061
H69	H	1.049496	-0.144123	-0.117451
H70	H	1.195496	-0.147359	-0.117421
H71	H	1.130061	-0.219957	-0.197145
H72	H	1.128035	-0.200418	0.079764
H73	H	1.062572	-0.273019	0.000052
H74	H	1.803361	-0.480891	0.000144
C75	C	1.148298	-0.529571	0.000106
C76	C	1.126586	-0.434972	0.000085
H77	H	1.069828	-0.554677	0.000123
H78	H	1.194879	-0.549103	-0.079598
H79	H	1.194894	-0.549089	0.079824
H80	H	1.079997	-0.415453	-0.079639
H81	H	1.079985	-0.415432	0.079798
H82	H	1.129454	-0.013927	0.000099
C83	C	1.939634	-0.369660	0.000123
C84	C	1.840854	-0.299717	0.000116
H85	H	2.018105	-0.344555	0.000110
H86	H	1.933903	-0.405918	0.079835
H87	H	1.933895	-0.405932	-0.079588
H88	H	1.846588	-0.263449	0.079832
H89	H	1.846588	-0.263444	-0.079605
C90	C	1.737610	-0.048155	0.442598
C91	C	1.662745	0.005153	0.349070
H92	H	1.795476	-0.089379	0.393776
H93	H	1.782850	-0.010324	0.498700
H94	H	1.685274	-0.080927	0.498732
H95	H	1.715081	0.037930	0.292942
H96	H	1.617502	-0.032683	0.292944
H97	H	1.270191	-0.575544	0.000086
H98	H	1.075626	0.283758	0.000077
H99	H	1.638471	0.022466	0.630596
C100	C	1.227587	0.211815	0.733890
C101	C	1.304687	0.260149	0.651137
H102	H	1.169723	0.253034	0.782722
H103	H	1.182347	0.173993	0.677774
H104	H	1.278407	0.175649	0.797314
H105	H	1.253868	0.296310	0.587706
H106	H	1.349932	0.297987	0.707258
