data_functionalizedCrystal
_audit_creation_method	'MofGen! by Chris Wilmer'
_symmetry_space_group_name_H-M	'P1'
_symmetry_Int_Tables_number	1
_symmetry_cell_setting	triclinic
loop_
_symmetry_equiv_pos_as_xyz
  x,y,z
_cell_length_a	19.805407
_cell_length_b	29.839132
_cell_length_c	19.805399
_cell_angle_alpha	90.031779
_cell_angle_beta	89.980427
_cell_angle_gamma	89.954737
loop_
_atom_site_label
_atom_site_type_symbol
_atom_site_fract_x
_atom_site_fract_y
_atom_site_fract_z
Zn1	Zn	1.034647	0.178864	-0.382700
Zn2	Zn	1.534647	0.678864	0.117300
Zn3	Zn	1.034525	0.253991	-0.269503
Zn4	Zn	1.534525	0.753991	0.230497
Zn5	Zn	0.921462	0.178876	-0.269524
Zn6	Zn	1.421462	0.678876	0.230476
Zn7	Zn	0.921388	0.253967	-0.382650
Zn8	Zn	1.421388	0.753967	0.117350
O9	O	0.978005	0.216425	-0.326094
O10	O	1.478005	0.716425	0.173906
O11	O	1.129347	0.188834	-0.367696
O12	O	1.629347	0.688834	0.132304
O13	O	1.019506	0.244042	-0.174790
O14	O	1.519506	0.744042	0.325210
O15	O	0.936558	0.116007	-0.284567
O16	O	1.436558	0.616007	0.215433
O17	O	1.129257	0.244030	-0.284531
O18	O	1.629257	0.744030	0.215469
O19	O	1.019715	0.115998	-0.367717
O20	O	1.519715	0.615998	0.132283
O21	O	0.936439	0.188856	-0.174805
O22	O	1.436439	0.688856	0.325195
O23	O	0.826735	0.188832	-0.284519
O24	O	1.326735	0.688832	0.215481
O25	O	0.936432	0.243990	-0.477373
O26	O	1.436432	0.743990	0.022627
O27	O	0.826681	0.244002	-0.367632
O28	O	1.326681	0.744002	0.132368
O29	O	1.019643	0.188811	-0.477410
O30	O	1.519643	0.688811	0.022590
O31	O	1.019435	0.316855	-0.284483
O32	O	1.519435	0.816855	0.215517
O33	O	0.936314	0.316838	-0.367611
O34	O	1.436314	0.816838	0.132389
C35	C	0.802149	0.216416	-0.326073
C36	C	1.302149	0.716416	0.173927
C37	C	0.726917	0.216423	-0.326079
C38	C	1.226917	0.716423	0.173921
C39	C	0.691563	0.245193	-0.369286
C40	C	1.191563	0.745193	0.130714
C41	C	0.620874	0.245194	-0.369296
C42	C	1.120874	0.745194	0.130704
C43	C	0.585542	0.216427	-0.326094
C44	C	1.085542	0.716427	0.173906
C45	C	0.620901	0.187654	-0.282886
C46	C	1.120901	0.687654	0.217114
C47	C	0.691588	0.187651	-0.282880
C48	C	1.191588	0.687651	0.217120
C49	C	0.335828	0.187664	-0.282908
C50	C	0.835828	0.687664	0.217092
C51	C	0.265136	0.187669	-0.282916
C52	C	0.765136	0.687669	0.217084
C53	C	0.265114	0.245207	-0.369324
C54	C	0.765114	0.745207	0.130676
C55	C	0.335801	0.245204	-0.369318
C56	C	0.835801	0.745204	0.130682
C57	C	0.371154	0.216429	-0.326112
C58	C	0.871154	0.716429	0.173888
C59	C	0.447803	0.216428	-0.326103
C60	C	0.947803	0.716428	0.173897
C61	C	0.508895	0.216430	-0.326099
C62	C	1.008895	0.716430	0.173901
C63	C	0.977871	0.333147	-0.326054
C64	C	1.477871	0.833147	0.173946
C65	C	0.977876	0.383082	-0.326059
C66	C	1.477876	0.883082	0.173941
C67	C	1.021317	0.692722	-0.282845
C68	C	1.521317	1.192722	0.217155
C69	C	1.021382	0.880395	-0.282860
C70	C	1.521382	1.380395	0.217140
O71	O	1.058244	0.904656	-0.246106
O72	O	1.558244	1.404656	0.253894
N73	N	0.978076	0.903867	-0.326105
N74	N	1.478076	1.403867	0.173895
C75	C	0.934755	0.880418	-0.369353
C76	C	1.434755	1.380418	0.130647
O77	O	0.897927	0.904688	-0.406141
O78	O	1.397927	1.404688	0.093859
C79	C	0.934694	0.692746	-0.369341
C80	C	1.434694	1.192746	0.130659
C81	C	0.977997	0.669276	-0.326088
C82	C	1.477997	1.169276	0.173912
C83	C	1.064617	0.669252	-0.239596
C84	C	1.564617	1.169252	0.260404
C85	C	1.064598	0.622336	-0.239590
C86	C	1.564598	1.122336	0.260410
C87	C	1.021279	0.598891	-0.282833
C88	C	1.521279	1.098891	0.217167
C89	C	0.977978	0.622360	-0.326082
C90	C	1.477978	1.122360	0.173918
C91	C	0.891376	0.669297	-0.412591
C92	C	1.391376	1.169297	0.087409
C93	C	0.891366	0.622376	-0.412585
C94	C	1.391366	1.122376	0.087415
C95	C	0.934670	0.598907	-0.369332
C96	C	1.434670	1.098907	0.130668
C97	C	0.934639	0.551999	-0.369318
C98	C	1.434639	1.051999	0.130682
N99	N	0.977945	0.528527	-0.326073
N100	N	1.477945	1.028527	0.173927
C101	C	1.021264	0.551973	-0.282831
C102	C	1.521264	1.051973	0.217169
C103	C	0.934789	0.978948	-0.369355
C104	C	1.434789	1.478948	0.130645
C105	C	0.934803	1.025866	-0.369358
C106	C	1.434803	1.525866	0.130642
C107	C	1.021431	1.025840	-0.282866
C108	C	1.521431	1.525840	0.217134
C109	C	1.021413	0.978921	-0.282861
C110	C	1.521413	1.478921	0.217139
C111	C	0.978094	0.955476	-0.326110
C112	C	1.478094	1.455476	0.173890
C113	C	1.021220	0.453447	-0.282821
C114	C	1.521220	0.953447	0.217179
C115	C	1.021195	0.406527	-0.282817
C116	C	1.521195	0.906527	0.217183
C117	C	0.934570	0.406558	-0.369311
C118	C	1.434570	0.906558	0.130689
C119	C	0.934592	0.453473	-0.369313
C120	C	1.434592	0.953473	0.130687
C121	C	0.977923	0.476917	-0.326065
C122	C	1.477923	0.976917	0.173935
O123	O	0.897802	0.527709	-0.406059
O124	O	1.397802	1.027709	0.093941
O125	O	1.058097	0.527694	-0.246059
O126	O	1.558097	1.027694	0.253941
C127	C	1.021336	0.739637	-0.282851
C128	C	1.521336	1.239637	0.217149
C129	C	0.978036	0.763107	-0.326100
C130	C	1.478036	1.263107	0.173900
C131	C	0.934716	0.739661	-0.369342
C132	C	1.434716	1.239661	0.130658
C133	C	0.978050	0.810025	-0.326102
C134	C	1.478050	1.310025	0.173898
C135	C	1.021369	0.833470	-0.282859
C136	C	1.521369	1.333470	0.217141
C137	C	1.064675	0.809998	-0.239614
C138	C	1.564675	1.309998	0.260386
C139	C	1.064656	0.763083	-0.239608
C140	C	1.564656	1.263083	0.260392
C141	C	0.891411	0.763133	-0.412588
C142	C	1.391411	1.263133	0.087412
C143	C	0.891433	0.810049	-0.412590
C144	C	1.391433	1.310049	0.087410
C145	C	0.934753	0.833494	-0.369347
C146	C	1.434753	1.333494	0.130653
C147	C	1.154548	0.216434	-0.326117
C148	C	1.654548	0.716434	0.173883
C149	C	1.229780	0.216437	-0.326126
C150	C	1.729780	0.716437	0.173874
C151	C	0.978043	0.216396	-0.502637
C152	C	1.478043	0.716396	-0.002637
C153	C	0.978059	0.216384	-0.577869
C154	C	1.478059	0.716384	-0.077869
C155	C	0.978133	1.099246	-0.326135
C156	C	1.478133	1.599246	0.173865
C157	C	0.978122	1.049312	-0.326115
C158	C	1.478122	1.549312	0.173885
C159	C	1.021388	0.187652	-0.613234
C160	C	1.521388	0.687652	-0.113234
C161	C	1.021395	0.187638	-0.683922
C162	C	1.521395	0.687638	-0.183922
C163	C	0.978076	0.216361	-0.719245
C164	C	1.478076	0.716361	-0.219245
C165	C	0.934743	0.245095	-0.683876
C166	C	1.434743	0.745095	-0.183876
C167	C	0.934733	0.245105	-0.613188
C168	C	1.434733	0.745105	-0.113188
C169	C	0.934781	0.245053	-0.968949
C170	C	1.434781	0.745053	-0.468949
C171	C	0.934795	0.245041	-1.039641
C172	C	1.434795	0.745041	-0.539641
C173	C	1.021443	0.187586	-1.039683
C174	C	1.521443	0.687586	-0.539683
C175	C	1.021434	0.187597	-0.968995
C176	C	1.521434	0.687597	-0.468995
C177	C	0.978098	0.216329	-0.933632
C178	C	1.478098	0.716329	-0.433632
C179	C	0.978090	0.216342	-0.856984
C180	C	1.478090	0.716342	-0.356984
C181	C	0.978087	0.216350	-0.795892
C182	C	1.478087	0.716350	-0.295892
C183	C	0.978006	0.216420	-0.150238
C184	C	1.478006	0.716420	0.349762
C185	C	0.978121	0.216306	-0.075007
C186	C	1.478121	0.716306	0.424993
H187	H	0.364604	0.164237	-0.247722
H188	H	0.864604	0.664237	0.252278
O189	O	0.370091	0.273100	-0.411382
O190	O	0.870091	0.773100	0.088618
C191	C	0.391712	0.295021	-0.526452
C192	C	0.891712	0.795021	-0.026452
C193	C	0.352850	0.263395	-0.478889
C194	C	0.852850	0.763395	0.021111
H195	H	0.377776	0.287193	-0.581040
H196	H	0.877776	0.787193	-0.081040
H197	H	0.448315	0.290076	-0.519086
H198	H	0.948315	0.790076	-0.019086
H199	H	0.377777	0.331234	-0.514433
H200	H	0.877777	0.831234	-0.014433
H201	H	0.366728	0.227170	-0.490879
H202	H	0.866728	0.727170	0.009121
H203	H	0.296257	0.268379	-0.486264
H204	H	0.796257	0.768379	0.013736
O205	O	0.586636	0.273189	-0.411280
O206	O	1.086636	0.773189	0.088720
C207	C	0.594073	0.330253	-0.496998
C208	C	1.094073	0.830253	0.003002
C209	C	0.632932	0.298576	-0.449475
C210	C	1.132932	0.798576	0.050525
H211	H	0.631487	0.350780	-0.527900
H212	H	1.131487	0.850780	-0.027900
H213	H	0.560962	0.353744	-0.465882
H214	H	1.060962	0.853744	0.034118
H215	H	0.560996	0.309659	-0.532427
H216	H	1.060996	0.809659	-0.032427
H217	H	0.666046	0.319134	-0.414035
H218	H	1.166046	0.819134	0.085965
H219	H	0.666001	0.275083	-0.480632
H220	H	1.166001	0.775083	0.019368
H221	H	1.099917	0.743977	-0.204388
H222	H	1.599917	1.243977	0.295612
H223	H	0.899517	0.268431	-1.068399
H224	H	1.399517	0.768431	-0.568399
O225	O	0.892742	0.273040	-0.578755
O226	O	1.392742	0.773040	-0.078755
C227	C	0.883556	0.333720	-0.498939
C228	C	1.383556	0.833720	0.001061
C229	C	0.931188	0.302107	-0.537881
C230	C	1.431188	0.802107	-0.037881
H231	H	0.914621	0.357234	-0.465894
H232	H	1.414621	0.857234	0.034106
H233	H	0.848199	0.313120	-0.465802
H234	H	1.348199	0.813120	0.034198
H235	H	0.852580	0.354229	-0.536334
H236	H	1.352580	0.854229	-0.036334
H237	H	0.962208	0.281590	-0.500535
H238	H	1.462208	0.781590	-0.000535
H239	H	0.966500	0.322731	-0.571029
H240	H	1.466500	0.822731	-0.071029
O241	O	0.849293	0.832865	-0.454512
O242	O	1.349293	1.332865	0.045488
C243	C	0.757954	0.885915	-0.463565
C244	C	1.257954	1.385915	0.036435
C245	C	0.805614	0.860098	-0.416007
C246	C	1.305614	1.360098	0.083993
H247	H	0.722637	0.907947	-0.432453
H248	H	1.222637	1.407947	0.067547
H249	H	0.726943	0.861115	-0.494459
H250	H	1.226943	1.361115	0.005541
H251	H	0.789035	0.907821	-0.499002
H252	H	1.289035	1.407821	0.000998
H253	H	0.774585	0.838192	-0.380529
H254	H	1.274585	1.338192	0.119471
H255	H	0.836627	0.884923	-0.385161
H256	H	1.336627	1.384923	0.114839
H257	H	0.856111	0.688398	-0.447809
H258	H	1.356111	1.188398	0.052191
O259	O	0.230891	0.159743	-0.240853
O260	O	0.730891	0.659743	0.259147
C261	C	0.209215	0.137850	-0.125781
C262	C	0.709215	0.637850	0.374219
C263	C	0.248047	0.169494	-0.173340
C264	C	0.748047	0.669494	0.326660
H265	H	0.223060	0.145729	-0.071187
H266	H	0.723060	0.645729	0.428813
H267	H	0.223169	0.101627	-0.137717
H268	H	0.723169	0.601627	0.362283
H269	H	0.152622	0.142787	-0.133237
H270	H	0.652622	0.642787	0.366763
H271	H	0.304648	0.164597	-0.165911
H272	H	0.804648	0.664597	0.334089
H273	H	0.234037	0.205705	-0.161393
H274	H	0.734037	0.705705	0.338607
H275	H	0.899469	0.268480	-0.712641
H276	H	1.399469	0.768480	-0.212641
O277	O	0.230666	0.273113	-0.411279
O278	O	0.730666	0.773113	0.088721
C279	C	0.121760	0.298640	-0.449562
C280	C	0.621760	0.798640	0.050438
C281	C	0.160685	0.267005	-0.402028
C282	C	0.660685	0.767005	0.097972
H283	H	0.065173	0.293719	-0.442089
H284	H	0.565173	0.793719	0.057911
H285	H	0.135642	0.290798	-0.504175
H286	H	0.635642	0.790798	-0.004175
H287	H	0.135654	0.334849	-0.437576
H288	H	0.635654	0.834849	0.062424
H289	H	0.146811	0.230786	-0.413952
H290	H	0.646811	0.730786	0.086048
H291	H	0.146798	0.274885	-0.347429
H292	H	0.646798	0.774885	0.152571
O293	O	0.586477	0.159749	-0.240945
O294	O	1.086477	0.659749	0.259055
C295	C	0.477592	0.134229	-0.202690
C296	C	0.977592	0.634229	0.297310
C297	C	0.516491	0.165863	-0.250211
C298	C	1.016491	0.665863	0.249789
H299	H	0.421002	0.139155	-0.210176
H300	H	0.921002	0.639155	0.289824
H301	H	0.491407	0.142068	-0.148073
H302	H	0.991407	0.642068	0.351927
H303	H	0.491577	0.098020	-0.214674
H304	H	0.991577	0.598020	0.285326
H305	H	0.502527	0.202083	-0.238288
H306	H	1.002527	0.702083	0.261712
H307	H	0.502672	0.157985	-0.304814
H308	H	1.002672	0.657985	0.195186
H309	H	1.099897	0.688336	-0.204383
H310	H	1.599897	1.188336	0.295617
O311	O	0.892656	0.272999	-0.934708
O312	O	1.392656	0.772999	-0.434708
C313	C	0.806658	0.329952	-0.942133
C314	C	1.306658	0.829952	-0.442133
C315	C	0.854350	0.298337	-0.980998
C316	C	1.354350	0.798337	-0.480998
H317	H	0.775665	0.350439	-0.979542
H318	H	1.275665	0.850439	-0.479542
H319	H	0.837646	0.353484	-0.909042
H320	H	1.337646	0.853484	-0.409042
H321	H	0.771321	0.309312	-0.909035
H322	H	1.271321	0.809312	-0.409035
H323	H	0.889697	0.318940	-1.014134
H324	H	1.389697	0.818940	-0.514134
H325	H	0.823320	0.274804	-1.014047
H326	H	1.323320	0.774804	-0.514047
H327	H	1.099861	0.603230	-0.204372
H328	H	1.599861	1.103230	0.295628
O329	O	1.106751	0.832847	-0.197688
O330	O	1.606751	1.332847	0.302312
C331	C	1.145170	0.905122	-0.159389
C332	C	1.645170	1.405122	0.340611
C333	C	1.097486	0.879299	-0.206897
C334	C	1.597486	1.379299	0.293103
H335	H	1.137686	0.942683	-0.166808
H336	H	1.637686	1.442683	0.333192
H337	H	1.199745	0.895883	-0.171350
H338	H	1.699745	1.395883	0.328650
H339	H	1.133348	0.895913	-0.104796
H340	H	1.633348	1.395913	0.395204
H341	H	1.109247	0.888494	-0.261506
H342	H	1.609247	1.388494	0.238494
H343	H	1.042926	0.888541	-0.194878
H344	H	1.542926	1.388541	0.305122
O345	O	0.892399	0.383800	-0.411249
O346	O	1.392399	0.883800	0.088751
C347	C	0.777253	0.369522	-0.444051
C348	C	1.277253	0.869522	0.055949
C349	C	0.824927	0.395315	-0.396495
C350	C	1.324927	0.895315	0.103505
H351	H	0.722693	0.378829	-0.432148
H352	H	1.222693	0.878829	0.067852
H353	H	0.784625	0.331952	-0.436617
H354	H	1.284625	0.831952	0.063383
H355	H	0.789156	0.378713	-0.498633
H356	H	1.289156	0.878713	0.001367
H357	H	0.813054	0.386162	-0.341895
H358	H	1.313054	0.886162	0.158105
H359	H	0.817547	0.432879	-0.403987
H360	H	1.317547	0.932879	0.096013
O361	O	1.063330	0.476146	-0.240745
O362	O	1.563330	0.976146	0.259255
C363	C	1.149271	0.471156	-0.154978
C364	C	1.649271	0.971156	0.345022
C365	C	1.101611	0.445394	-0.202587
C366	C	1.601611	0.945394	0.297413
H367	H	1.180243	0.446304	-0.124125
H368	H	1.680243	0.946304	0.375875
H369	H	1.118259	0.493144	-0.119512
H370	H	1.618259	0.993144	0.380488
H371	H	1.184629	0.493097	-0.186093
H372	H	1.684629	0.993097	0.313907
H373	H	1.066243	0.423428	-0.171527
H374	H	1.566243	0.923428	0.328473
H375	H	1.132665	0.423433	-0.238055
H376	H	1.632665	0.923433	0.261945
H377	H	0.720373	0.164221	-0.247700
H378	H	1.220373	0.664221	0.252300
O379	O	1.063167	0.383710	-0.240728
O380	O	1.563167	0.883710	0.259272
C381	C	1.072313	0.330754	-0.149370
C382	C	1.572313	0.830754	0.350630
C383	C	1.024705	0.356572	-0.196979
C384	C	1.524705	0.856572	0.303021
H385	H	1.041236	0.308800	-0.113996
H386	H	1.541236	0.808800	0.386004
H387	H	1.103266	0.355553	-0.118417
H388	H	1.603266	0.855553	0.381583
H389	H	1.107692	0.308770	-0.180488
H390	H	1.607692	0.808770	0.319512
H391	H	0.989285	0.378557	-0.165913
H392	H	1.489285	0.878557	0.334087
H393	H	0.993799	0.331748	-0.227933
H394	H	1.493799	0.831748	0.272067
H395	H	1.056711	0.164209	-0.940239
H396	H	1.556711	0.664209	-0.440239
H397	H	1.056674	0.959815	-0.247641
H398	H	1.556674	1.459815	0.252359
O399	O	1.063531	1.048689	-0.240964
O400	O	1.563531	1.548689	0.259036
C401	C	1.102004	1.120963	-0.202716
C402	C	1.602004	1.620963	0.297284
C403	C	1.054276	1.095140	-0.250182
C404	C	1.554276	1.595140	0.249818
H405	H	1.094527	1.158524	-0.210142
H406	H	1.594527	1.658524	0.289858
H407	H	1.156567	1.111713	-0.214714
H408	H	1.656567	1.611713	0.285286
H409	H	1.090218	1.111764	-0.148112
H410	H	1.590218	1.611764	0.351888
H411	H	1.066001	1.104325	-0.304802
H412	H	1.566001	1.604325	0.195198
H413	H	0.999728	1.104392	-0.238126
H414	H	1.499728	1.604392	0.261874
O415	O	0.892711	1.048592	-0.411432
O416	O	1.392711	1.548592	0.088568
C417	C	0.806762	1.043654	-0.497194
C418	C	1.306762	1.543654	0.002806
C419	C	0.854405	1.017863	-0.449585
C420	C	1.354405	1.517863	0.050415
H421	H	0.775769	1.018820	-0.528043
H422	H	1.275769	1.518820	-0.028043
H423	H	0.837789	1.065572	-0.532664
H424	H	1.337789	1.565572	-0.032664
H425	H	0.771422	1.065668	-0.466080
H426	H	1.271422	1.565668	0.033920
H427	H	0.889755	0.995825	-0.480645
H428	H	1.389755	1.495825	0.019355
H429	H	0.823337	0.995973	-0.414113
H430	H	1.323337	1.495973	0.085887
O431	O	1.063374	0.159726	-0.578851
O432	O	1.563374	0.659726	-0.078851
C433	C	1.072541	0.099062	-0.499113
C434	C	1.572541	0.599062	0.000887
C435	C	1.024918	0.130669	-0.537993
C436	C	1.524918	0.630669	-0.037993
H437	H	1.041468	0.075555	-0.466081
H438	H	1.541468	0.575555	0.033919
H439	H	1.107893	0.119667	-0.465969
H440	H	1.607893	0.619667	0.034031
H441	H	1.103522	0.078544	-0.536548
H442	H	1.603522	0.578544	-0.036548
H443	H	0.993893	0.151194	-0.500606
H444	H	1.493893	0.651194	-0.000606
H445	H	0.989611	0.110039	-0.571147
H446	H	1.489611	0.610039	-0.071147
H447	H	0.899512	0.959863	-0.404575
H448	H	1.399512	1.459863	0.095425
H449	H	1.056680	0.164242	-0.712713
H450	H	1.556680	0.664242	-0.212713
H451	H	0.856092	0.603290	-0.447807
H452	H	1.356092	1.103290	0.052193
O453	O	0.892599	0.476256	-0.411421
O454	O	1.392599	0.976256	0.088579
C455	C	0.859660	0.490561	-0.526526
C456	C	1.359660	0.990561	-0.026526
C457	C	0.907263	0.464744	-0.478910
C458	C	1.407263	0.964744	0.021090
H459	H	0.871490	0.481257	-0.581100
H460	H	1.371490	0.981257	-0.081100
H461	H	0.867121	0.528127	-0.519165
H462	H	1.367121	1.028127	-0.019165
H463	H	0.805089	0.481389	-0.514554
H464	H	1.305089	0.981389	-0.014554
H465	H	0.961853	0.473879	-0.490852
H466	H	1.461853	0.973879	0.009148
H467	H	0.899744	0.427184	-0.486279
H468	H	1.399744	0.927184	0.013721
H469	H	0.856136	0.744047	-0.447802
H470	H	1.356136	1.244047	0.052198
H471	H	0.720325	0.268620	-0.404463
H472	H	1.220325	0.768620	0.095537
H473	H	1.056727	0.164189	-1.068484
H474	H	1.556727	0.664189	-0.568484
