data_functionalizedCrystal
_audit_creation_method	'MofGen! by Chris Wilmer'
_symmetry_space_group_name_H-M	'P1'
_symmetry_Int_Tables_number	1
_symmetry_cell_setting	triclinic
loop_
_symmetry_equiv_pos_as_xyz
  x,y,z
_cell_length_a	16.992694
_cell_length_b	16.053810
_cell_length_c	16.992695
_cell_angle_alpha	92.752725
_cell_angle_beta	90.668223
_cell_angle_gamma	87.261482
loop_
_atom_site_label
_atom_site_type_symbol
_atom_site_fract_x
_atom_site_fract_y
_atom_site_fract_z
O1	O	1.053945	-0.069325	0.163802
O2	O	0.825546	-0.069350	0.161969
O3	O	0.938829	-0.069331	0.048686
O4	O	0.940661	-0.069344	0.277085
O5	O	0.932621	0.069527	0.054921
O6	O	0.819337	0.069508	0.168204
O7	O	1.047736	0.069533	0.170037
Zn8	Zn	0.932551	0.091567	0.170110
Zn9	Zn	0.940731	-0.091384	0.161895
O10	O	0.934453	0.069514	0.283320
C11	C	0.793082	0.000076	0.162731
C12	C	0.705597	0.000067	0.155702
N13	N	0.926974	0.216426	0.175717
C14	C	0.659607	0.000064	0.223520
C15	C	0.577405	0.000076	0.216911
C16	C	0.541197	0.000085	0.142484
C17	C	0.587193	0.000091	0.074661
C18	C	0.669393	0.000085	0.081271
C19	C	0.295881	0.000109	0.115090
C20	C	0.213676	0.000112	0.108486
C21	C	0.203893	0.000099	0.250737
C22	C	0.286095	0.000088	0.257339
C23	C	0.332084	0.000098	0.189517
N24	N	0.457174	0.000094	0.135727
N25	N	0.416105	0.000094	0.196275
N26	N	0.946314	-0.216243	0.156283
C27	C	1.080201	0.000105	0.169275
C28	C	1.167685	0.000109	0.176304
C29	C	0.898098	0.740054	0.204472
C30	C	0.902017	0.652648	0.200567
C31	C	0.954157	0.608946	0.148475
C32	C	1.002374	0.652656	0.100281
C33	C	0.998450	0.740060	0.104183
C34	C	0.971268	0.347540	0.131425
C35	C	0.975190	0.260130	0.127528
C36	C	0.874832	0.260128	0.227813
C37	C	0.870916	0.347534	0.231714
C38	C	0.919131	0.391235	0.183516
N39	N	0.958166	0.519603	0.144484
N40	N	0.915117	0.480577	0.187505
C41	C	0.933370	0.000098	0.022443
C42	C	0.926341	0.000097	-0.065042
C43	C	0.994158	0.000105	-0.111032
C44	C	0.987550	0.000096	-0.193233
C45	C	0.913123	0.000086	-0.229442
C46	C	0.845300	0.000075	-0.183446
C47	C	0.851910	0.000078	-0.101246
C48	C	0.885729	0.000071	-0.474757
C49	C	0.879124	0.000071	-0.556962
C50	C	1.021375	0.000091	-0.566745
C51	C	1.027978	0.000099	-0.484543
C52	C	0.960155	0.000083	-0.438554
N53	N	0.906366	0.000079	-0.313465
N54	N	0.966913	0.000084	-0.354533
C55	C	0.939913	0.000084	0.309563
C56	C	0.946942	0.000079	0.397047
H57	H	0.689081	0.000056	0.284126
F58	F	0.344816	0.000119	0.042907
F59	F	0.175141	0.000136	0.029267
F60	F	0.842608	0.786556	0.259920
F61	F	0.850700	0.606135	0.251854
H62	H	1.042774	0.000105	-0.230676
H63	H	1.088584	0.000108	-0.455068
H64	H	0.706838	0.000087	0.026046
H65	H	0.830503	0.000059	-0.437322
H66	H	0.539963	0.000072	0.272136
F67	F	0.324625	0.000074	0.336555
F68	F	0.548655	0.000106	-0.004550
H69	H	0.828460	0.383113	0.274131
F70	F	0.154943	0.000090	0.322913
F71	F	0.823520	0.213612	0.279102
H72	H	1.017651	0.224552	0.085106
H73	H	1.076592	0.000102	-0.604198
F74	F	0.779729	0.000066	-0.052300
H75	H	0.784700	0.000061	-0.212933
F76	F	1.022583	0.394044	0.080132
F77	F	0.799905	0.000064	-0.595496
H78	H	1.044824	0.617069	0.057863
F79	F	1.049766	0.786571	0.052891
H80	H	1.054765	0.000119	-0.081557
