data_functionalizedCrystal
_audit_creation_method	'MofGen! by Chris Wilmer'
_symmetry_space_group_name_H-M	'P1'
_symmetry_Int_Tables_number	1
_symmetry_cell_setting	triclinic
loop_
_symmetry_equiv_pos_as_xyz
  x,y,z
_cell_length_a	16.109301
_cell_length_b	10.654550
_cell_length_c	15.186229
_cell_angle_alpha	89.996404
_cell_angle_beta	89.999362
_cell_angle_gamma	83.973206
loop_
_atom_site_label
_atom_site_type_symbol
_atom_site_fract_x
_atom_site_fract_y
_atom_site_fract_z
O1	O	1.104090	0.161419	-0.073173
O2	O	0.862148	0.181507	-0.073187
O3	O	0.988682	-0.011352	-0.073174
O4	O	0.977556	0.354278	-0.073185
O5	O	0.988673	-0.011354	0.073284
O6	O	0.862139	0.181504	0.073271
O7	O	1.104082	0.161416	0.073285
Zn8	Zn	0.983109	0.171460	0.096531
Zn9	Zn	0.983120	0.171463	-0.096433
O10	O	0.977548	0.354275	0.073272
C11	C	0.831164	0.180692	0.000040
C12	C	0.738854	0.178253	0.000035
C13	C	0.517228	0.287019	0.000042
C14	C	0.430494	0.284717	0.000048
C15	C	0.449008	0.055896	0.000051
C16	C	0.535741	0.058199	0.000052
C17	C	0.569848	0.173764	0.000043
C18	C	0.396382	0.169159	0.000048
C19	C	0.302341	0.166662	0.000054
C20	C	0.663895	0.176262	0.000038
C21	C	0.987861	-0.058140	0.000054
C22	C	0.985417	-0.197550	0.000053
C23	C	1.059918	-0.278046	0.000057
C24	C	1.057616	-0.409036	0.000046
C25	C	0.906306	-0.379020	0.000031
C26	C	0.908608	-0.248033	0.000035
C27	C	1.145364	-0.606070	-0.051264
C28	C	1.219869	-0.686572	-0.051245
C29	C	1.287407	-0.657317	0.000083
C30	C	1.280443	-0.547563	0.051414
C31	C	1.205937	-0.467068	0.051402
C32	C	1.138402	-0.496322	0.000054
C33	C	0.820866	-0.050997	0.051353
C34	C	0.746359	0.029500	0.051348
C35	C	0.678814	0.000249	0.000025
C36	C	0.685769	-0.109507	-0.051292
C37	C	0.760277	-0.190004	-0.051287
C38	C	0.827822	-0.160745	0.000034
C39	C	1.135066	0.162231	0.000056
C40	C	1.227376	0.164671	0.000055
C41	C	0.978369	0.401063	0.000042
C42	C	0.980813	0.540473	0.000037
N43	N	0.983108	0.171457	0.228224
N44	N	0.983129	0.171457	-0.228126
C45	C	1.039156	0.086088	0.453952
C46	C	1.039159	0.086085	0.546142
C47	C	0.927074	0.256830	0.546140
C48	C	0.927068	0.256826	0.453952
C49	C	0.983114	0.171456	0.407860
C50	C	0.983122	0.171457	0.592238
C51	C	0.983125	0.171455	0.692194
C52	C	0.983111	0.171457	0.307898
H53	H	1.122460	-0.236948	0.000069
H54	H	0.387654	0.376940	0.000049
O55	O	1.346067	-0.519373	0.101339
C56	C	1.441130	-0.584997	0.219086
C57	C	1.366821	-0.617097	0.162596
H58	H	1.457921	-0.663976	0.268638
H59	H	1.497095	-0.574491	0.174757
H60	H	1.423346	-0.492699	0.255726
H61	H	1.384525	-0.709406	0.125947
H62	H	1.310876	-0.627521	0.206970
H63	H	0.544996	0.381119	0.000041
O64	O	0.415736	-0.056248	0.000014
C65	C	0.290326	-0.161209	0.000063
C66	C	0.327892	-0.034116	0.000088
H67	H	0.219300	-0.143360	0.000141
H68	H	0.311886	-0.217189	-0.061243
H69	H	0.311992	-0.217178	0.061341
H70	H	0.306244	0.021955	-0.061150
H71	H	0.306337	0.021768	0.061434
H72	H	0.843771	-0.420140	0.000018
O73	O	0.872604	0.339587	0.591014
C74	C	0.759195	0.366277	0.695069
C75	C	0.820846	0.272412	0.644322
H76	H	0.717321	0.312002	0.738167
H77	H	0.795410	0.429012	0.738280
H78	H	0.719174	0.427317	0.646274
H79	H	0.860883	0.211289	0.693054
H80	H	0.784581	0.209764	0.601098
H81	H	0.578586	-0.034032	0.000055
O82	O	0.872595	0.339881	0.409308
C83	C	0.761388	0.509186	0.419027
C84	C	0.823045	0.415226	0.469694
H85	H	0.721299	0.570109	0.467827
H86	H	0.797597	0.572021	0.375882
H87	H	0.719581	0.454917	0.375851
H88	H	0.864867	0.469392	0.512918
H89	H	0.786784	0.352391	0.512784
H90	H	1.200266	-0.377712	0.093198
H91	H	1.348071	-0.722871	0.000097
O92	O	1.093521	0.003208	0.591052
C93	C	1.143239	-0.072417	0.733071
C94	C	1.081616	0.021495	0.682322
H95	H	1.133647	-0.057647	0.806871
H96	H	1.131829	-0.173036	0.715015
H97	H	1.209911	-0.056033	0.714887
H98	H	1.014920	0.005226	0.700478
H99	H	1.093099	0.122082	0.700381
O100	O	1.226646	-0.793048	-0.101245
C101	C	1.221809	-0.881037	-0.247098
C102	C	1.214129	-0.760350	-0.190588
H103	H	1.211676	-0.854645	-0.319340
H104	H	1.286667	-0.933561	-0.238341
H105	H	1.172708	-0.944268	-0.225431
H106	H	1.263184	-0.697024	-0.212218
H107	H	1.149244	-0.707925	-0.199349
H108	H	1.084791	0.016573	0.416427
O109	O	0.739506	0.136022	0.101301
C110	C	0.666346	0.252190	0.218942
C111	C	0.674030	0.131482	0.162454
H112	H	0.613400	0.248572	0.268385
H113	H	0.727384	0.259310	0.255689
H114	H	0.652532	0.338102	0.174519
H115	H	0.687816	0.045502	0.206814
H116	H	0.612984	0.124473	0.125699
O117	O	1.079787	-0.634317	-0.101241
C118	C	0.984664	-0.568636	-0.218924
C119	C	1.058944	-0.536498	-0.162403
H120	H	0.967778	-0.489557	-0.268374
H121	H	1.002416	-0.660862	-0.255664
H122	H	0.928765	-0.579251	-0.174526
H123	H	1.114874	-0.525818	-0.206737
H124	H	1.041123	-0.444300	-0.125655
H125	H	0.765940	-0.279365	-0.093086
H126	H	0.618142	0.065794	0.000037
O127	O	0.620186	-0.137761	-0.101258
C128	C	0.525042	-0.072081	-0.218923
C129	C	0.599333	-0.039943	-0.162418
H130	H	0.508148	0.006999	-0.268371
H131	H	0.542787	-0.164307	-0.255665
H132	H	0.469151	-0.082693	-0.174513
H133	H	0.655254	-0.029264	-0.206764
H134	H	0.581519	0.052255	-0.125668
H135	H	0.875873	-0.027152	0.093129
