data_functionalizedCrystal
_audit_creation_method	'MofGen! by Chris Wilmer'
_symmetry_space_group_name_H-M	'P1'
_symmetry_Int_Tables_number	1
_symmetry_cell_setting	triclinic
loop_
_symmetry_equiv_pos_as_xyz
  x,y,z
_cell_length_a	11.792241
_cell_length_b	10.268362
_cell_length_c	11.792240
_cell_angle_alpha	89.984887
_cell_angle_beta	84.193417
_cell_angle_gamma	90.003482
loop_
_atom_site_label
_atom_site_type_symbol
_atom_site_fract_x
_atom_site_fract_y
_atom_site_fract_z
O1	O	-1.506902	0.108203	-0.155570
O2	O	-1.006902	0.608203	0.344430
O3	O	-1.176561	0.108236	-0.171603
O4	O	-0.676561	0.608236	0.328397
O5	O	-1.349748	0.108179	0.001584
O6	O	-0.849748	0.608179	0.501584
O7	O	-1.333715	0.108260	-0.328757
O8	O	-0.833715	0.608260	0.171243
O9	O	-1.349746	-0.108421	0.001594
O10	O	-0.849746	0.391579	0.501594
O11	O	-1.176559	-0.108364	-0.171593
O12	O	-0.676559	0.391636	0.328407
O13	O	-1.506900	-0.108398	-0.155560
O14	O	-1.006900	0.391602	0.344440
Cu15	Cu	-1.341729	-0.128158	-0.163576
Cu16	Cu	-0.841729	0.371842	0.336424
Cu17	Cu	-1.341732	0.127997	-0.163588
Cu18	Cu	-0.841732	0.627997	0.336412
O19	O	-1.333713	-0.108341	-0.328747
O20	O	-0.833713	0.391659	0.171253
C21	C	-1.134269	-0.000060	-0.170591
C22	C	-0.634269	0.499940	0.329409
C23	C	-1.008255	-0.000050	-0.167576
C24	C	-0.508255	0.499950	0.332424
C25	C	-1.348740	-0.000128	0.043880
C26	C	-0.848740	0.499872	0.543880
C27	C	-1.345726	-0.000150	0.169894
C28	C	-0.845726	0.499850	0.669894
C29	C	-1.549192	-0.000098	-0.156572
C30	C	-1.049192	0.499902	0.343428
C31	C	-1.675206	-0.000100	-0.159587
C32	C	-1.175206	0.499900	0.340413
C33	C	-0.777543	-0.000088	-0.162034
C34	C	-0.277543	0.499912	0.337966
C35	C	-0.905928	-0.000067	-0.165113
C36	C	-0.405928	0.499933	0.334887
N37	N	-1.341734	0.308163	-0.163588
N38	N	-0.841734	0.808163	0.336412
N39	N	-1.341736	-0.308324	-0.163566
N40	N	-0.841736	0.191676	0.336434
C41	C	-1.341731	0.573833	-0.163581
C42	C	-0.841731	1.073833	0.336419
C43	C	-1.341730	0.425996	-0.163588
C44	C	-0.841730	0.925996	0.336412
C45	C	-1.340183	-0.000170	0.400606
C46	C	-0.840183	0.499830	0.900606
C47	C	-1.343262	-0.000159	0.272221
C48	C	-0.843262	0.499841	0.772221
C49	C	-1.334721	-0.000076	0.628957
C50	C	-0.834721	0.499924	1.128957
C51	C	-1.337736	-0.000184	0.502943
C52	C	-0.837736	0.499816	1.002943
