data_functionalizedCrystal
_audit_creation_method	'MofGen! by Chris Wilmer'
_symmetry_space_group_name_H-M	'P1'
_symmetry_Int_Tables_number	1
_symmetry_cell_setting	triclinic
loop_
_symmetry_equiv_pos_as_xyz
  x,y,z
_cell_length_a	18.050591
_cell_length_b	15.297327
_cell_length_c	15.296720
_cell_angle_alpha	72.680778
_cell_angle_beta	99.656035
_cell_angle_gamma	80.295981
loop_
_atom_site_label
_atom_site_type_symbol
_atom_site_fract_x
_atom_site_fract_y
_atom_site_fract_z
Zn1	Zn	0.985502	0.461333	-0.589979
Zn2	Zn	0.985418	0.589955	-0.461373
Zn3	Zn	0.887310	0.434450	-0.434482
Zn4	Zn	0.835305	0.616780	-0.616795
O5	O	0.923384	0.525630	-0.525657
O6	O	1.089408	0.478419	-0.572950
O7	O	0.994133	0.546849	-0.327685
O8	O	0.922135	0.307882	-0.432632
O9	O	1.089346	0.572917	-0.478464
O10	O	0.994276	0.327633	-0.546875
O11	O	0.922053	0.432601	-0.307928
O12	O	0.776495	0.458613	-0.458635
O13	O	0.833500	0.618637	-0.743358
O14	O	0.738287	0.592570	-0.592579
O15	O	0.943849	0.504431	-0.723657
O16	O	0.943705	0.723648	-0.504467
O17	O	0.833418	0.743356	-0.618655
C18	C	0.882926	0.767248	-0.567409
C19	C	0.865681	0.870619	-0.585302
C20	C	0.730446	0.525586	-0.525600
C21	C	0.647899	0.525594	-0.525601
C22	C	0.882883	0.567525	-0.768190
C23	C	0.865624	0.585378	-0.871543
C24	C	0.469192	0.452700	-0.452892
C25	C	0.409424	0.533566	-0.444678
C26	C	0.496757	0.525629	-0.525648
C27	C	0.409439	0.444793	-0.533865
C28	C	0.350762	0.525656	-0.525690
C29	C	0.438076	0.606532	-0.517397
C30	C	0.438098	0.517708	-0.606614
C31	C	0.378337	0.598638	-0.598441
C32	C	0.580861	0.525612	-0.525621
C33	C	0.266658	0.525682	-0.525719
C34	C	1.117075	0.525674	-0.525715
C35	C	1.199614	0.525693	-0.525740
C36	C	0.964016	0.283071	-0.483763
C37	C	0.981331	0.179707	-0.465910
C38	C	1.046891	1.120861	-0.398092
C39	C	1.063094	1.023738	-0.381277
C40	C	1.013742	0.985453	-0.432282
C41	C	0.948184	1.044301	-0.500105
C42	C	0.931976	1.141432	-0.516917
C43	C	0.898828	1.006025	-0.551106
C44	C	0.833270	1.064873	-0.618930
C45	C	0.817065	1.161994	-0.635739
C46	C	0.866417	1.200279	-0.584734
C47	C	0.915036	0.908894	-0.534294
C48	C	0.800122	0.929465	-0.653119
C49	C	0.783918	1.026588	-0.669935
C50	C	1.046791	0.397866	-1.121848
C51	C	1.063011	0.381093	-1.024743
C52	C	1.013666	0.432163	-0.986438
C53	C	0.948098	0.500008	-1.045248
C54	C	0.931879	0.516788	-1.142363
C55	C	0.898754	0.551085	-1.006953
C56	C	0.833186	0.618930	-1.065763
C57	C	0.816970	0.635706	-1.162869
C58	C	0.866315	0.584637	-1.201174
C59	C	0.914972	0.534305	-0.909838
C60	C	0.800060	0.653227	-0.930353
C61	C	0.783840	0.670000	-1.027458
C62	C	0.963781	0.483830	-0.284056
C63	C	0.981227	0.465715	-0.180659
H64	H	0.508403	0.391074	-0.391319
C65	C	0.744944	1.226723	-0.710339
N66	N	0.690622	1.275476	-0.766528
H67	H	0.396484	0.540285	-0.376226
C68	C	1.135129	0.306458	-0.960059
N69	N	1.189450	0.250234	-0.911336
C70	C	0.325522	0.682051	-0.681595
N71	N	0.285739	0.744880	-0.744222
C72	C	0.455624	0.508586	-0.699050
N73	N	0.468830	0.501703	-0.768670
C74	C	1.101060	0.341694	-1.163990
N75	N	1.141938	0.299378	-1.195732
C76	C	0.848485	0.603096	-1.307997
N77	N	0.835060	0.617003	-1.388459
H78	H	0.763585	0.690958	-1.210751
H79	H	0.450913	0.674912	-0.510386
H80	H	0.396486	0.376424	-0.540769
H81	H	0.730540	1.074515	-0.725157
C82	C	1.135195	0.959010	-0.306657
N83	N	1.189503	0.910255	-0.250445
H84	H	0.968413	0.860988	-0.479071
C85	C	0.848594	1.307119	-0.603225
N86	N	0.835171	1.387592	-0.617148
H87	H	0.759934	0.898295	-0.694650
C88	C	1.031579	0.878618	-0.413798
N89	N	1.045022	0.798146	-0.399881
C90	C	0.711716	0.744627	-1.092161
N91	N	0.657391	0.800834	-1.140895
H92	H	0.759880	0.694814	-0.899166
H93	H	0.968358	0.479064	-0.861964
C94	C	1.031506	0.413703	-0.879618
N95	N	1.044943	0.399791	-0.799156
C96	C	1.101163	1.162980	-0.341985
N97	N	1.142043	1.194704	-0.299719
