data_functionalizedCrystal
_audit_creation_method	'MofGen! by Chris Wilmer'
_symmetry_space_group_name_H-M	'P1'
_symmetry_Int_Tables_number	1
_symmetry_cell_setting	triclinic
loop_
_symmetry_equiv_pos_as_xyz
  x,y,z
_cell_length_a	13.033409
_cell_length_b	13.033855
_cell_length_c	13.032268
_cell_angle_alpha	89.130626
_cell_angle_beta	74.837427
_cell_angle_gamma	76.696889
loop_
_atom_site_label
_atom_site_type_symbol
_atom_site_fract_x
_atom_site_fract_y
_atom_site_fract_z
Zn1	Zn	1.643883	-0.662332	0.297617
Zn2	Zn	2.143883	-0.162332	0.797617
Zn3	Zn	1.688915	-0.817399	0.097473
Zn4	Zn	2.188915	-0.317399	0.597473
Zn5	Zn	1.483112	-0.623026	0.148340
Zn6	Zn	1.983112	-0.123026	0.648340
Zn7	Zn	1.488826	-0.817359	0.297630
Zn8	Zn	1.988826	-0.317359	0.797630
O9	O	1.576184	-0.730029	0.210265
O10	O	2.076184	-0.230029	0.710265
O11	O	1.800877	-0.699368	0.249774
O12	O	2.300877	-0.199368	0.749774
O13	O	1.678069	-0.775181	-0.042018
O14	O	2.178069	-0.275181	0.457982
O15	O	1.483201	-0.482015	0.189424
O16	O	1.983201	0.017985	0.689424
O17	O	1.833962	-0.813295	0.102730
O18	O	2.333962	-0.313295	0.602730
O19	O	1.601319	-0.510894	0.299097
O20	O	2.101319	-0.010894	0.799097
O21	O	1.526867	-0.632377	-0.004647
O22	O	2.026867	-0.132377	0.495353
O23	O	1.332849	-0.632339	0.189437
O24	O	1.832849	-0.132339	0.689437
O25	O	1.492940	-0.813228	0.443868
O26	O	1.992940	-0.313228	0.943868
O27	O	1.337048	-0.775115	0.299120
O28	O	1.837048	-0.275115	0.799120
O29	O	1.606860	-0.699331	0.443858
O30	O	2.106860	-0.199331	0.943858
O31	O	1.683610	-0.963618	0.102742
O32	O	2.183610	-0.463618	0.602742
O33	O	1.536606	-0.963590	0.249797
O34	O	2.036606	-0.463590	0.749797
C35	C	1.295791	-0.699458	0.249800
C36	C	1.795791	-0.199458	0.749800
C37	C	1.175838	-0.686408	0.266734
C38	C	1.675838	-0.186408	0.766734
C39	C	1.014745	-0.723361	0.218948
C40	C	1.514745	-0.223361	0.718948
C41	C	1.138724	-0.736853	0.201440
C42	C	1.638724	-0.236853	0.701440
C43	C	1.615641	-1.001524	0.170770
C44	C	2.115641	-0.501524	0.670770
C45	C	1.632616	-1.117685	0.153895
C46	C	2.132616	-0.617685	0.653895
C47	C	1.567407	-1.169482	0.219081
C48	C	2.067407	-0.669482	0.719081
C49	C	1.584949	-1.289541	0.201642
C50	C	2.084949	-0.789541	0.701642
C51	C	1.857672	-0.760720	0.170576
C52	C	2.357672	-0.260720	0.670576
C53	C	1.977626	-0.773799	0.153663
C54	C	2.477626	-0.273799	0.653663
C55	C	1.545514	-0.760660	0.482841
C56	C	2.045514	-0.260660	0.982841
C57	C	1.532445	-0.773712	0.598997
C58	C	2.032445	-0.273712	1.098997
C59	C	1.536599	-0.457480	0.249933
C60	C	2.036599	0.042520	0.749933
C61	C	1.519731	-0.341336	0.266837
C62	C	2.019731	0.158664	0.766837
C63	C	1.606786	-0.699449	-0.061249
C64	C	2.106786	-0.199449	0.438751
C65	C	1.620021	-0.686125	-0.177390
C66	C	2.120021	-0.186125	0.322610
C67	C	1.582983	-0.723177	0.650778
C68	C	2.082983	-0.223177	1.150778
C69	C	1.569476	-0.736667	0.770831
C70	C	2.069476	-0.236667	1.270831
H71	H	0.954739	-0.670196	0.287806
H72	H	1.454739	-0.170196	0.787806
F73	F	1.652584	-0.653548	0.592564
F74	F	2.152584	-0.153548	1.092564
H75	H	1.037632	-0.826976	0.084814
H76	H	1.537632	-0.326976	0.584814
H77	H	1.198727	-0.790033	0.132586
H78	H	1.698727	-0.290033	0.632586
H79	H	1.498587	-1.124946	0.287799
H80	H	1.998587	-0.624946	0.787799
H81	H	1.450907	-1.296802	0.335559
H82	H	1.950907	-0.796802	0.835559
H83	H	1.516197	-0.789915	0.815376
H84	H	2.016197	-0.289915	1.315376
H85	H	1.115836	-0.633237	0.335596
H86	H	1.615836	-0.133237	0.835596
H87	H	1.673286	-0.632863	0.778070
H88	H	2.173286	-0.132863	1.278070
H89	H	1.701429	-1.162222	0.085172
H90	H	2.201429	-0.662222	0.585172
H91	H	1.653767	-1.334074	0.132915
H92	H	2.153767	-0.834074	0.632915
H93	H	1.479170	-0.826956	0.643546
H94	H	1.979170	-0.326956	1.143546
