data_functionalizedCrystal
_audit_creation_method	'MofGen! by Chris Wilmer'
_symmetry_space_group_name_H-M	'P1'
_symmetry_Int_Tables_number	1
_symmetry_cell_setting	triclinic
loop_
_symmetry_equiv_pos_as_xyz
  x,y,z
_cell_length_a	18.101398
_cell_length_b	29.839131
_cell_length_c	18.101389
_cell_angle_alpha	90.021287
_cell_angle_beta	90.024327
_cell_angle_gamma	90.036686
loop_
_atom_site_label
_atom_site_type_symbol
_atom_site_fract_x
_atom_site_fract_y
_atom_site_fract_z
Zn1	Zn	1.132068	-0.178957	0.418824
Zn2	Zn	1.632068	0.321043	0.918824
Zn3	Zn	1.131941	-0.254074	0.294976
Zn4	Zn	1.631941	0.245926	0.794976
Zn5	Zn	1.008227	-0.178952	0.294985
Zn6	Zn	1.508227	0.321048	0.794985
Zn7	Zn	1.008155	-0.254055	0.418765
Zn8	Zn	1.508155	0.245945	0.918765
O9	O	1.070098	-0.216510	0.356887
O10	O	1.570098	0.283490	0.856887
O11	O	1.235684	-0.188932	0.402416
O12	O	1.735684	0.311068	0.902416
O13	O	1.115507	-0.244115	0.191344
O14	O	1.615507	0.255885	0.691344
O15	O	1.024737	-0.116086	0.311441
O16	O	1.524737	0.383914	0.811441
O17	O	1.235591	-0.244119	0.311426
O18	O	1.735591	0.255881	0.811426
O19	O	1.115723	-0.116089	0.402425
O20	O	1.615723	0.383911	0.902425
O21	O	1.024615	-0.188924	0.191351
O22	O	1.524615	0.311076	0.691351
O23	O	0.904584	-0.188905	0.311384
O24	O	1.404584	0.311095	0.811384
O25	O	1.024615	-0.244087	0.522406
O26	O	1.524615	0.255913	1.022406
O27	O	0.904532	-0.244082	0.402324
O28	O	1.404532	0.255918	0.902324
O29	O	1.115654	-0.188913	0.522449
O30	O	1.615654	0.311087	1.022449
O31	O	1.115438	-0.316938	0.311369
O32	O	1.615438	0.183062	0.811369
O33	O	1.024493	-0.316924	0.402315
O34	O	1.524493	0.183076	0.902315
C35	C	0.877687	-0.216491	0.356849
C36	C	1.377687	0.283509	0.856849
C37	C	0.795373	-0.216494	0.356850
C38	C	1.295373	0.283506	0.856850
C39	C	0.496282	-0.216522	0.356912
C40	C	0.996282	0.283478	0.856912
C41	C	0.527616	-0.181633	0.299974
C42	C	1.027616	0.318367	0.799974
C43	C	0.613234	-0.181726	0.299731
C44	C	1.113234	0.318274	0.799731
C45	C	0.644665	-0.216508	0.356881
C46	C	1.144665	0.283492	0.856881
C47	C	0.613533	-0.263830	0.335553
C48	C	1.113533	0.236170	0.835553
C49	C	0.527888	-0.263636	0.335157
C50	C	1.027888	0.236364	0.835157
C51	C	0.527900	-0.204501	0.435313
C52	C	1.027900	0.295499	0.935313
C53	C	0.613552	-0.203447	0.434885
C54	C	1.113552	0.296553	0.934885
C55	C	0.728524	-0.216503	0.356865
C56	C	1.228524	0.283497	0.856865
C57	C	0.412423	-0.216531	0.356926
C58	C	0.912423	0.283469	0.856926
C59	C	1.069964	-0.333232	0.356851
C60	C	1.569964	0.166768	0.856851
C61	C	1.069975	-0.383167	0.356860
C62	C	1.569975	0.116833	0.856860
C63	C	1.117539	-0.692805	0.309601
C64	C	1.617539	-0.192805	0.809601
C65	C	1.117631	-0.880478	0.309629
C66	C	1.617631	-0.380478	0.809629
O67	O	1.157965	-0.904738	0.269420
O68	O	1.657965	-0.404738	0.769420
N69	N	1.070251	-0.903952	0.356943
N70	N	1.570251	-0.403952	0.856943
C71	C	1.022849	-0.880504	0.404257
C72	C	1.522849	-0.380504	0.904257
O73	O	0.982558	-0.904777	0.444506
O74	O	1.482558	-0.404777	0.944506
C75	C	1.022762	-0.692832	0.404231
C76	C	1.522762	-0.192832	0.904231
C77	C	1.070139	-0.669361	0.356909
C78	C	1.570139	-0.169361	0.856909
C79	C	1.164913	-0.669333	0.262283
C80	C	1.664913	-0.169333	0.762283
C81	C	1.164887	-0.622418	0.262273
C82	C	1.664887	-0.122418	0.762273
C83	C	1.117487	-0.598974	0.309582
C84	C	1.617487	-0.098974	0.809582
C85	C	1.070113	-0.622445	0.356899
C86	C	1.570113	-0.122445	0.856899
C87	C	0.975365	-0.669386	0.451548
C88	C	1.475365	-0.169386	0.951548
C89	C	0.975348	-0.622465	0.451539
C90	C	1.475348	-0.122465	0.951539
C91	C	1.022725	-0.598993	0.404217
C92	C	1.522725	-0.098993	0.904217
C93	C	1.022687	-0.552086	0.404198
C94	C	1.522687	-0.052086	0.904198
N95	N	1.070066	-0.528612	0.356884
N96	N	1.570066	-0.028612	0.856884
C97	C	1.117466	-0.552056	0.309576
C98	C	1.617466	-0.052056	0.809576
C99	C	1.022898	-0.979035	0.404266
C100	C	1.522898	-0.479035	0.904266
C101	C	1.022918	-1.025953	0.404272
C102	C	1.522918	-0.525953	0.904272
C103	C	1.117700	-1.025923	0.309645
C104	C	1.617700	-0.525923	0.809645
C105	C	1.117675	-0.979004	0.309636
C106	C	1.617675	-0.479004	0.809636
C107	C	1.070277	-0.955561	0.356952
C108	C	1.570277	-0.455561	0.856952
C109	C	1.117407	-0.453530	0.309559
C110	C	1.617407	0.046470	0.809559
C111	C	1.117374	-0.406610	0.309551
C112	C	1.617374	0.093390	0.809551
C113	C	1.022595	-0.406645	0.404181
C114	C	1.522595	0.093355	0.904181
C115	C	1.022625	-0.453560	0.404186
C116	C	1.522625	0.046440	0.904186
C117	C	1.070037	-0.477002	0.356872
C118	C	1.570037	0.022998	0.856872
O119	O	0.982379	-0.527797	0.444393
O120	O	1.482379	-0.027797	0.944393
O121	O	1.157763	-0.527776	0.269344
O122	O	1.657763	-0.027776	0.769344
C123	C	1.117565	-0.739720	0.309610
C124	C	1.617565	-0.239720	0.809610
C125	C	1.070192	-0.763192	0.356928
C126	C	1.570192	-0.263192	0.856928
C127	C	1.022792	-0.739748	0.404236
C128	C	1.522792	-0.239748	0.904236
C129	C	1.070212	-0.810109	0.356934
C130	C	1.570212	-0.310109	0.856934
C131	C	1.117612	-0.833553	0.309625
C132	C	1.617612	-0.333553	0.809625
C133	C	1.164991	-0.810079	0.262311
C134	C	1.664991	-0.310079	0.762311
C135	C	1.164965	-0.763164	0.262302
C136	C	1.664965	-0.263164	0.762302
C137	C	0.975413	-0.763222	0.451550
C138	C	1.475413	-0.263222	0.951550
C139	C	0.975442	-0.810137	0.451556
C140	C	1.475442	-0.310137	0.951556
C141	C	1.022842	-0.833581	0.404247
C142	C	1.522842	-0.333581	0.904247
C143	C	1.263260	-0.216528	0.356927
C144	C	1.763260	0.283472	0.856927
C145	C	1.345574	-0.216536	0.356943
C146	C	1.845574	0.283464	0.856943
C147	C	1.070141	-0.216498	0.550049
C148	C	1.570141	0.283502	1.050049
C149	C	1.070159	-0.216493	0.632364
C150	C	1.570159	0.283507	1.132364
C151	C	1.070252	-0.099331	0.356941
C152	C	1.570252	0.400669	0.856941
C153	C	1.070318	-0.049397	0.356963
C154	C	1.570318	0.450603	0.856963
C155	C	1.070098	-0.216488	0.164477
C156	C	1.570098	0.283512	0.664477
C157	C	1.070223	-0.216367	0.082163
C158	C	1.570223	0.283633	0.582163
C159	C	1.070202	-0.216409	0.931455
C160	C	1.570202	0.283591	1.431455
C161	C	1.012726	-0.251013	0.900102
C162	C	1.512726	0.248987	1.400102
C163	C	1.012881	-0.251173	0.814484
C164	C	1.512881	0.248827	1.314484
C165	C	1.070180	-0.216451	0.783072
C166	C	1.570180	0.283549	1.283072
C167	C	1.148202	-0.229306	0.814177
C168	C	1.648202	0.270694	1.314177
C169	C	1.147881	-0.229533	0.899822
C170	C	1.647881	0.270467	1.399822
C171	C	1.050335	-0.168874	0.899883
C172	C	1.550335	0.331126	1.399883
C173	C	1.048599	-0.169148	0.814232
C174	C	1.548599	0.330852	1.314232
C175	C	1.070172	-0.216474	0.699213
C176	C	1.570172	0.283526	1.199213
C177	C	1.070215	-0.216387	1.015314
C178	C	1.570215	0.283613	1.515314
H179	H	0.633906	-0.168623	0.450967
H180	H	1.133906	0.331377	0.950967
N181	N	1.168827	-1.051217	0.258625
N182	N	1.668827	-0.551217	0.758625
H183	H	1.221729	-1.043022	0.270185
H184	H	1.721729	-0.543022	0.770185
H185	H	1.157299	-1.043068	0.205715
H186	H	1.657299	-0.543068	0.705715
N187	N	0.936254	-0.240498	0.786617
N188	N	1.436254	0.259502	1.286617
H189	H	0.902069	-0.235648	0.829969
H190	H	1.402069	0.264352	1.329969
H191	H	0.917476	-0.266280	0.755688
H192	H	1.417476	0.233720	1.255688
N193	N	1.216121	-0.835372	0.211292
N194	N	1.716121	-0.335372	0.711292
H195	H	1.246135	-0.813387	0.181312
H196	H	1.746135	-0.313387	0.681312
H197	H	1.186006	-0.854867	0.176995
H198	H	1.686006	-0.354867	0.676995
N199	N	0.971480	-0.381349	0.455204
N200	N	1.471480	0.118651	0.955204
H201	H	0.982958	-0.389490	0.508130
H202	H	1.482958	0.110510	1.008130
H203	H	0.918594	-0.389552	0.443595
H204	H	1.418594	0.110448	0.943595
N205	N	1.170179	-0.275561	0.926300
N206	N	1.670179	0.224439	1.426300
H207	H	1.216355	-0.273155	0.957395
H208	H	1.716355	0.226845	1.457395
H209	H	1.180086	-0.295490	0.882300
H210	H	1.680086	0.204510	1.382300
H211	H	1.092198	-0.143093	0.920161
H212	H	1.592198	0.356907	1.420161
N213	N	1.170903	-0.274845	0.785772
N214	N	1.670903	0.225155	1.285772
H215	H	1.133659	-0.298011	0.802166
H216	H	1.633659	0.201989	1.302166
H217	H	1.221187	-0.282778	0.806102
H218	H	1.721187	0.217222	1.306102
N219	N	0.971768	-0.953753	0.455299
N220	N	1.471768	-0.453753	0.955299
H221	H	0.941758	-0.975747	0.485266
H222	H	1.441758	-0.475747	0.985266
H223	H	0.937504	-0.934315	0.425116
H224	H	1.437504	-0.434315	0.925116
H225	H	0.954696	-0.243050	0.920689
H226	H	1.454696	0.256950	1.420689
H227	H	1.192156	-0.205424	0.920564
H228	H	1.692156	0.294576	1.420564
N229	N	0.500420	-0.299233	0.387692
N230	N	1.000420	0.200767	0.887692
H231	H	0.543950	-0.314982	0.411002
H232	H	1.043950	0.185018	0.911002
H233	H	0.469452	-0.321694	0.359656
H234	H	0.969452	0.178306	0.859656
N235	N	0.924261	-0.694694	0.502586
N236	N	1.424261	-0.194694	1.002586
H237	H	0.894237	-0.672716	0.532551
H238	H	1.394237	-0.172716	1.032551
H239	H	0.954392	-0.714133	0.536894
H240	H	1.454392	-0.214133	1.036894
H241	H	0.633685	-0.189673	0.241637
H242	H	1.133685	0.310327	0.741637
H243	H	0.506339	-0.170595	0.454703
H244	H	1.006339	0.329405	0.954703
H245	H	1.192175	-0.204894	0.793833
H246	H	1.692175	0.295106	1.293833
N247	N	1.029942	-0.297402	0.928591
N248	N	1.529942	0.202598	1.428591
H249	H	1.027382	-0.297477	0.984328
H250	H	1.527382	0.202523	1.484328
H251	H	1.081208	-0.306351	0.912291
H252	H	1.581208	0.193649	1.412291
N253	N	0.641126	-0.135244	0.317433
N254	N	1.141126	0.364756	0.817433
H255	H	0.597786	-0.114509	0.325465
H256	H	1.097786	0.385491	0.825465
H257	H	0.672027	-0.123849	0.274956
H258	H	1.172027	0.376151	0.774956
H259	H	0.994431	-0.157163	0.921470
H260	H	1.494431	0.342837	1.421470
H261	H	1.025997	-0.286408	0.793999
H262	H	1.525997	0.213592	1.293999
H263	H	0.991182	-0.159454	0.793901
H264	H	1.491182	0.340546	1.293901
H265	H	1.156254	-0.959896	0.271103
H266	H	1.656254	-0.459896	0.771103
N267	N	0.640467	-0.299187	0.388780
N268	N	1.140467	0.200813	0.888780
H269	H	0.673191	-0.284835	0.427320
H270	H	1.173191	0.215165	0.927320
H271	H	0.669468	-0.322623	0.360887
H272	H	1.169468	0.177377	0.860887
N273	N	0.641889	-0.277574	0.260454
N274	N	1.141889	0.222426	0.760454
H275	H	0.674894	-0.253219	0.240140
H276	H	1.174894	0.246781	0.740140
H277	H	0.598771	-0.282396	0.225920
H278	H	1.098771	0.217604	0.725920
N279	N	0.971817	-1.051268	0.455307
N280	N	1.471817	-0.551268	0.955307
H281	H	0.937522	-1.070762	0.425181
H282	H	1.437522	-0.570762	0.925181
H283	H	0.941839	-1.029266	0.485266
H284	H	1.441839	-0.529266	0.985266
H285	H	0.634950	-0.227008	0.479581
H286	H	1.134950	0.272992	0.979581
H287	H	0.936751	-0.603380	0.490072
H288	H	1.436751	-0.103380	0.990072
N289	N	0.499072	-0.192037	0.223468
N290	N	0.999072	0.307963	0.723468
H291	H	0.519464	-0.169471	0.187233
H292	H	1.019464	0.330529	0.687233
H293	H	0.443338	-0.190486	0.223412
H294	H	0.943338	0.309514	0.723412
H295	H	0.984049	-0.472671	0.442722
H296	H	1.484049	0.027329	0.942722
N297	N	0.500376	-0.135007	0.317474
N298	N	1.000376	0.364993	0.817474
H299	H	0.467458	-0.136046	0.362479
H300	H	0.967458	0.363954	0.862479
H301	H	0.471500	-0.123012	0.274023
H302	H	0.971500	0.376988	0.774023
H303	H	1.087408	-0.141998	0.792850
H304	H	1.587408	0.358002	1.292850
H305	H	1.203544	-0.744057	0.223768
H306	H	1.703544	-0.244057	0.723768
N307	N	0.501363	-0.277137	0.259240
N308	N	1.001363	0.222863	0.759240
H309	H	0.520127	-0.308158	0.247183
H310	H	1.020127	0.191842	0.747183
H311	H	0.520625	-0.255126	0.221496
H312	H	1.020625	0.244874	0.721496
H313	H	0.936856	-0.829244	0.490090
H314	H	1.436856	-0.329244	0.990090
H315	H	1.155954	-0.387501	0.271013
H316	H	1.655954	0.112499	0.771013
N317	N	0.501064	-0.238161	0.491512
N318	N	1.001064	0.261839	0.991512
H319	H	0.468585	-0.261087	0.466352
H320	H	0.968585	0.238913	0.966352
H321	H	0.471825	-0.222203	0.531072
H322	H	0.971825	0.277797	1.031072
N323	N	1.215999	-0.597107	0.211243
N324	N	1.715999	-0.097107	0.711243
H325	H	1.208801	-0.563826	0.218411
H326	H	1.708801	-0.063826	0.718411
H327	H	1.204512	-0.605331	0.158342
H328	H	1.704512	-0.105331	0.658342
H329	H	1.203515	-0.688416	0.223758
H330	H	1.703515	-0.188416	0.723758
H331	H	1.156016	-0.472611	0.271034
H332	H	1.656016	0.027389	0.771034
N333	N	0.924284	-0.737939	0.502576
N334	N	1.424284	-0.237939	1.002576
H335	H	0.894277	-0.759933	0.532546
H336	H	1.394277	-0.259933	1.032546
H337	H	0.890018	-0.718504	0.472390
H338	H	1.390018	-0.218504	0.972390
