data_functionalizedCrystal
_audit_creation_method	'MofGen! by Chris Wilmer'
_symmetry_space_group_name_H-M	'P1'
_symmetry_Int_Tables_number	1
_symmetry_cell_setting	triclinic
loop_
_symmetry_equiv_pos_as_xyz
  x,y,z
_cell_length_a	12.759401
_cell_length_b	12.759400
_cell_length_c	12.759393
_cell_angle_alpha	90.030490
_cell_angle_beta	90.020435
_cell_angle_gamma	90.016391
loop_
_atom_site_label
_atom_site_type_symbol
_atom_site_fract_x
_atom_site_fract_y
_atom_site_fract_z
Zn1	Zn	1.606266	-0.418168	0.594006
Zn2	Zn	1.606158	-0.593883	0.418326
Zn3	Zn	1.430565	-0.418224	0.418343
Zn4	Zn	1.430557	-0.593810	0.593965
O5	O	1.518387	-0.506021	0.506160
O6	O	1.753273	-0.441484	0.570712
O7	O	1.582823	-0.570636	0.271307
O8	O	1.453921	-0.271196	0.441669
O9	O	1.753193	-0.570581	0.441641
O10	O	1.583008	-0.271154	0.570728
O11	O	1.453816	-0.441580	0.271319
O12	O	1.283543	-0.441509	0.441629
O13	O	1.453908	-0.570457	0.740992
O14	O	1.283537	-0.570512	0.570658
O15	O	1.583000	-0.441413	0.741022
O16	O	1.582815	-0.740895	0.441601
O17	O	1.453802	-0.740841	0.570642
C18	C	1.245419	-0.506009	0.506142
C19	C	1.128643	-0.506029	0.506159
C20	C	0.964103	-0.438926	0.573482
C21	C	1.073827	-0.438923	0.573470
C22	C	1.073728	-0.573151	0.438861
C23	C	0.964006	-0.573158	0.438879
C24	C	0.964161	-0.361427	0.651194
C25	C	1.073885	-0.361424	0.651183
C26	C	1.518324	-0.778989	0.506138
C27	C	1.518394	-0.895765	0.506164
C28	C	1.585645	-0.950620	0.439046
C29	C	1.585710	-1.060344	0.439079
C30	C	1.451262	-1.060349	0.573349
C31	C	1.451204	-0.950627	0.573321
C32	C	1.663264	-0.950619	0.361523
C33	C	1.663329	-1.060343	0.361556
C34	C	1.792420	-0.506034	0.506179
C35	C	1.909196	-0.506040	0.506187
C36	C	1.518465	-0.505920	0.780193
C37	C	1.518499	-0.505877	0.896970
C38	C	1.518478	-0.231988	0.506205
C39	C	1.518517	-0.115211	0.506224
C40	C	1.518369	-0.506046	0.233193
C41	C	1.518539	-0.505793	0.116416
C42	C	1.585722	-0.438674	0.951850
C43	C	1.585740	-0.438628	1.061574
C44	C	1.451308	-0.573000	1.061529
C45	C	1.451285	-0.573039	0.951807
H46	H	1.118368	-0.627798	0.384063
O47	O	1.114649	-0.396133	0.743339
C48	C	1.222866	-0.356105	0.892916
C49	C	1.176792	-0.316677	0.788561
H50	H	1.273100	-0.291877	0.929520
H51	H	1.273201	-0.428368	0.877873
H52	H	1.156333	-0.377244	0.948652
H53	H	1.243258	-0.295479	0.732774
H54	H	1.126429	-0.244452	0.803685
H55	H	1.640479	-0.383902	1.106252
O56	O	1.651111	-0.373577	0.898531
C57	C	1.792890	-0.359477	0.774624
C58	C	1.718924	-0.433326	0.834957
H59	H	1.847720	-0.407753	0.723194
H60	H	1.841014	-0.311451	0.832651
H61	H	1.744634	-0.304540	0.723306
H62	H	1.767098	-0.488326	0.886277
H63	H	1.670796	-0.481278	0.776874
H64	H	1.103672	-0.280029	0.629514
O65	O	0.928850	-0.387562	0.748283
C66	C	0.974749	-0.435016	0.925210
C67	C	1.014881	-0.405482	0.815298
H68	H	1.044284	-0.449491	0.979428
H69	H	0.925116	-0.509140	0.919899
H70	H	0.925122	-0.368200	0.957692
H71	H	1.064550	-0.472230	0.782752
H72	H	1.064456	-0.331326	0.820675
O73	O	1.386124	-0.638208	1.114963
C74	C	1.326535	-0.697658	1.283975
C75	C	1.400425	-0.623770	1.223597
H76	H	1.338056	-0.685994	1.371816
H77	H	1.344950	-0.782406	1.262467
H78	H	1.241833	-0.679220	1.262330
H79	H	1.485152	-0.642113	1.245210
H80	H	1.381920	-0.539044	1.245110
O81	O	1.628377	-0.910235	0.269276
C82	C	1.485541	-0.898609	0.146235
C83	C	1.524930	-0.944433	0.250710
H84	H	1.401892	-0.926222	0.131202
H85	H	1.538398	-0.926234	0.079715
H86	H	1.487156	-0.809374	0.150481
H87	H	1.523314	-1.033668	0.246568
H88	H	1.472064	-0.916726	0.317188
H89	H	1.396536	-0.627764	0.907123
O90	O	1.755462	-1.100893	0.396576
C91	C	1.841222	-1.208961	0.525496
C92	C	1.736819	-1.163088	0.485959
H93	H	1.826182	-1.259272	0.597755
H94	H	1.896996	-1.142403	0.546642
H95	H	1.877778	-1.259228	0.461305
H96	H	1.700172	-1.112832	0.550103
H97	H	1.681118	-1.229695	0.464782
H98	H	1.396559	-1.105030	0.628027
H99	H	0.919305	-0.627818	0.384090
H100	H	1.641590	-1.090204	0.280175
H101	H	0.930131	-0.284101	0.622187
H102	H	1.744608	-0.920759	0.383376
O103	O	1.385780	-0.897502	0.638555
C104	C	1.252482	-0.909090	0.771785
C105	C	1.326507	-0.969383	0.697942
H106	H	1.204557	-0.967179	0.819834
H107	H	1.197469	-0.857835	0.723543
H108	H	1.300682	-0.857608	0.826701
H109	H	1.278393	-1.020922	0.643012
H110	H	1.381523	-1.020572	0.746250
