data_functionalizedCrystal
_audit_creation_method	'MofGen! by Chris Wilmer'
_symmetry_space_group_name_H-M	'P1'
_symmetry_Int_Tables_number	1
_symmetry_cell_setting	triclinic
loop_
_symmetry_equiv_pos_as_xyz
  x,y,z
_cell_length_a	16.625547
_cell_length_b	19.120786
_cell_length_c	16.625539
_cell_angle_alpha	87.530339
_cell_angle_beta	89.978691
_cell_angle_gamma	92.464876
loop_
_atom_site_label
_atom_site_type_symbol
_atom_site_fract_x
_atom_site_fract_y
_atom_site_fract_z
Zn1	Zn	1.218941	-0.279643	-0.442285
Zn2	Zn	1.213094	-0.397103	-0.301692
Zn3	Zn	1.084110	-0.279664	-0.307455
Zn4	Zn	1.078316	-0.397064	-0.436473
O5	O	1.148615	-0.338369	-0.371976
O6	O	1.330998	-0.295232	-0.423656
O7	O	1.195961	-0.381550	-0.189623
O8	O	1.106868	-0.181371	-0.330185
O9	O	1.326701	-0.381530	-0.320362
O10	O	1.205928	-0.181355	-0.429244
O11	O	1.101198	-0.295267	-0.193857
O12	O	0.970510	-0.295229	-0.324549
O13	O	1.096993	-0.381463	-0.550078
O14	O	0.966253	-0.381483	-0.419338
O15	O	1.200310	-0.295194	-0.554348
O16	O	1.190343	-0.495388	-0.314727
O17	O	1.091323	-0.495360	-0.413750
C18	C	0.939125	-0.338355	-0.371939
C19	C	0.849504	-0.338366	-0.371941
C20	C	0.776721	-0.338367	-0.371951
C21	C	0.685412	-0.338371	-0.371971
C22	C	0.612636	-0.338378	-0.371991
C23	C	0.521321	-0.338382	-0.372010
C24	C	1.139591	-0.520860	-0.363000
C25	C	1.135805	-0.598930	-0.359187
C26	C	1.185562	-0.635540	-0.409012
C27	C	1.182001	-0.708895	-0.405430
C28	C	1.128686	-0.745640	-0.352019
C29	C	1.078922	-0.709025	-0.302191
C30	C	1.082480	-0.635671	-0.305778
C31	C	1.115361	-0.967126	-0.338612
C32	C	1.111809	-1.040485	-0.335028
C33	C	1.214887	-1.040350	-0.438268
C34	C	1.218443	-0.966994	-0.441846
C35	C	1.168677	-0.930386	-0.392022
C36	C	1.125046	-0.820621	-0.348355
C37	C	1.172314	-0.855406	-0.395691
C38	C	1.358924	-0.338383	-0.372014
C39	C	1.448544	-0.338389	-0.372031
C40	C	1.148657	-0.338322	-0.582288
C41	C	1.148675	-0.338302	-0.671910
C42	C	1.157697	-0.155165	-0.381006
C43	C	1.161567	-0.077094	-0.384853
C44	C	1.148689	-0.338287	-0.744693
C45	C	1.148709	-0.338261	-0.836003
C46	C	1.148729	-0.338236	-0.908781
C47	C	1.148751	-0.338211	-1.000096
C48	C	1.148623	-0.338364	-0.162486
C49	C	1.148771	-0.338186	-0.072874
H50	H	1.228981	-0.605627	-0.452502
F51	F	1.062389	-0.928174	-0.285590
F52	F	1.234951	-0.747854	-0.458470
F53	F	1.229050	-0.816298	-0.452538
F54	F	1.055063	-1.079590	-0.278175
F55	F	1.022173	-0.748134	-0.245354
H56	H	1.081639	-0.850547	-0.304865
F57	F	1.267845	-1.079316	-0.491293
F58	F	1.275188	-0.927893	-0.498695
H59	H	1.041961	-0.605865	-0.265206
