data_functionalizedCrystal
_audit_creation_method	'MofGen! by Chris Wilmer'
_symmetry_space_group_name_H-M	'P1'
_symmetry_Int_Tables_number	1
_symmetry_cell_setting	triclinic
loop_
_symmetry_equiv_pos_as_xyz
  x,y,z
_cell_length_a	12.594516
_cell_length_b	13.897449
_cell_length_c	13.897441
_cell_angle_alpha	89.979267
_cell_angle_beta	90.031017
_cell_angle_gamma	89.985197
loop_
_atom_site_label
_atom_site_type_symbol
_atom_site_fract_x
_atom_site_fract_y
_atom_site_fract_z
Zn1	Zn	-0.423672	-1.474731	0.545378
Zn2	Zn	0.076328	-0.974731	1.045378
Zn3	Zn	-0.601683	-1.474636	0.384079
Zn4	Zn	-0.101683	-0.974636	0.884079
Zn5	Zn	-0.423723	-1.313420	0.384097
Zn6	Zn	0.076277	-0.813420	0.884097
Zn7	Zn	-0.601613	-1.313413	0.545331
Zn8	Zn	-0.101613	-0.813413	1.045331
O9	O	-0.512672	-1.394050	0.464721
O10	O	-0.012672	-0.894050	0.964721
O11	O	-0.447293	-1.609700	0.523994
O12	O	0.052707	-1.109700	1.023994
O13	O	-0.578126	-1.453214	0.249099
O14	O	-0.078126	-0.953214	0.749099
O15	O	-0.274770	-1.334860	0.405518
O16	O	0.225230	-0.834860	0.905518
O17	O	-0.578077	-1.609630	0.405488
O18	O	-0.078077	-1.109630	0.905488
O19	O	-0.274733	-1.453375	0.524011
O20	O	0.225267	-0.953375	1.024011
O21	O	-0.447380	-1.334769	0.249113
O22	O	0.052620	-0.834769	0.749113
O23	O	-0.447312	-1.178437	0.405473
O24	O	0.052688	-0.678437	0.905473
O25	O	-0.577958	-1.334849	0.680319
O26	O	-0.077958	-0.834849	1.180319
O27	O	-0.578007	-1.178432	0.523931
O28	O	-0.078007	-0.678432	1.023931
O29	O	-0.447226	-1.453368	0.680354
O30	O	0.052774	-0.953368	1.180354
O31	O	-0.750619	-1.453207	0.405442
O32	O	-0.250619	-0.953207	0.905442
O33	O	-0.750568	-1.334758	0.523913
O34	O	-0.250568	-0.834758	1.023913
C35	C	-0.789213	-1.393998	0.464692
C36	C	-0.289213	-0.893998	0.964692
C37	C	-0.907519	-1.394064	0.464711
C38	C	-0.407519	-0.894064	0.964711
C39	C	-0.512658	-1.143436	0.464699
C40	C	-0.012658	-0.643436	0.964699
C41	C	-0.512678	-1.036222	0.464713
C42	C	-0.012678	-0.536222	0.964713
C43	C	-0.512578	-1.394118	0.716314
C44	C	-0.012578	-0.894118	1.216314
C45	C	-0.512538	-1.394147	0.823528
C46	C	-0.012538	-0.894147	1.323528
C47	C	-1.047525	-1.458607	0.400386
C48	C	-0.547525	-0.958607	0.900386
C49	C	-0.976843	-1.370583	0.376682
C50	C	-0.476843	-0.870583	0.876682
C51	C	-0.976629	-1.482077	0.488371
C52	C	-0.476629	-0.982077	0.988371
C53	C	-1.047622	-1.306092	0.441045
C54	C	-0.547622	-0.806092	0.941045
C55	C	-1.047415	-1.417646	0.552775
C56	C	-0.547415	-0.917646	1.052775
C57	C	-0.976765	-1.329561	0.529104
C58	C	-0.476765	-0.829561	1.029104
C59	C	-0.235052	-1.394129	0.464772
C60	C	0.264948	-0.894129	0.964772
C61	C	-0.116746	-1.394162	0.464794
C62	C	0.383254	-0.894162	0.964794
C63	C	-0.512687	-1.645643	0.464744
C64	C	-0.012687	-1.145643	0.964744
C65	C	-0.512694	-1.752857	0.464754
C66	C	-0.012694	-1.252857	0.964754
C67	C	-0.512682	-0.839927	0.464738
C68	C	-0.012682	-0.339927	0.964738
C69	C	-0.512676	-0.949159	0.464721
C70	C	-0.012676	-0.449159	0.964721
C71	C	-0.512689	-1.394037	0.214107
C72	C	-0.012689	-0.894037	0.714107
C73	C	-0.512430	-1.394195	0.106893
C74	C	-0.012430	-0.894195	0.606893
C75	C	-0.512466	-1.394174	1.019824
C76	C	-0.012466	-0.894174	1.519824
C77	C	-0.512509	-1.394156	0.910591
C78	C	-0.012509	-0.894156	1.410591
H79	H	-1.078594	-1.513080	0.345913
H80	H	-0.578594	-1.013080	0.845913
O81	O	-1.084386	-1.441595	0.641526
O82	O	-0.584386	-0.941595	1.141526
C83	C	-1.048250	-1.534425	0.666163
C84	C	-0.548250	-1.034425	1.166163
H85	H	-1.028411	-1.576071	0.597841
H86	H	-0.528411	-1.076071	1.097841
H87	H	-1.112962	-1.573995	0.707651
H88	H	-0.612962	-1.073995	1.207651
H89	H	-0.974161	-1.528274	0.712920
H90	H	-0.474161	-1.028274	1.212920
O91	O	-0.939802	-1.346662	0.287941
O92	O	-0.439802	-0.846662	0.787941
C93	C	-0.878292	-1.262164	0.294507
C94	C	-0.378292	-0.762164	0.794507
H95	H	-0.902416	-1.220122	0.361440
H96	H	-0.402416	-0.720122	0.861440
H97	H	-0.892069	-1.215924	0.227886
H98	H	-0.392069	-0.715924	0.727886
H99	H	-0.790656	-1.282117	0.299502
H100	H	-0.290656	-0.782117	0.799502
H101	H	-0.945447	-1.556467	0.508347
H102	H	-0.445447	-1.056467	1.008347
O103	O	-1.084780	-1.217325	0.417242
O104	O	-0.584780	-0.717325	0.917242
C105	C	-1.147063	-1.181064	0.493311
C106	C	-0.647063	-0.681064	0.993311
H107	H	-1.177884	-1.243394	0.538733
H108	H	-0.677884	-0.743394	1.038733
H109	H	-1.217029	-1.138961	0.462647
H110	H	-0.717029	-0.638961	0.962647
H111	H	-1.096640	-1.131514	0.540061
H112	H	-0.596640	-0.631514	1.040061
O113	O	-0.939973	-1.264294	0.593932
O114	O	-0.439973	-0.764294	1.093932
C115	C	-0.976369	-1.171711	0.568686
C116	C	-0.476369	-0.671711	1.068686
H117	H	-0.996220	-1.169931	0.488664
H118	H	-0.496220	-0.669931	0.988664
H119	H	-0.911809	-1.116530	0.584798
H120	H	-0.411809	-0.616530	1.084798
H121	H	-1.050505	-1.153806	0.612179
H122	H	-0.550505	-0.653806	1.112179
