data_functionalizedCrystal
_audit_creation_method	'MofGen! by Chris Wilmer'
_symmetry_space_group_name_H-M	'P1'
_symmetry_Int_Tables_number	1
_symmetry_cell_setting	triclinic
loop_
_symmetry_equiv_pos_as_xyz
  x,y,z
_cell_length_a	19.288864
_cell_length_b	11.792241
_cell_length_c	18.366186
_cell_angle_alpha	89.993644
_cell_angle_beta	89.977106
_cell_angle_gamma	83.664831
loop_
_atom_site_label
_atom_site_type_symbol
_atom_site_fract_x
_atom_site_fract_y
_atom_site_fract_z
O1	O	0.922157	0.141582	-0.060784
O2	O	0.720005	0.160681	-0.060734
O3	O	0.825987	-0.014113	-0.060755
O4	O	0.816175	0.316377	-0.060763
O5	O	0.825968	-0.014122	0.060345
O6	O	0.719987	0.160673	0.060365
O7	O	0.922139	0.141574	0.060316
Zn8	Zn	0.821060	0.151122	0.079568
Zn9	Zn	0.821084	0.151133	-0.079986
O10	O	0.816157	0.316368	0.060337
C11	C	0.694116	0.160063	-0.000178
C12	C	0.617002	0.158218	-0.000159
C13	C	0.572888	0.260779	-0.000173
C14	C	0.500431	0.259046	-0.000181
C15	C	0.472091	0.154746	-0.000189
C16	C	0.516215	0.052171	-0.000171
C17	C	0.588670	0.053907	-0.000156
C18	C	0.363370	0.072757	-0.042638
C19	C	0.290915	0.071025	-0.042658
C20	C	0.248615	0.149387	-0.000233
C21	C	0.278777	0.229500	0.042202
C22	C	0.351232	0.231236	0.042217
C23	C	0.393526	0.152852	-0.000205
C24	C	0.125935	0.250076	-0.000255
C25	C	0.053477	0.248339	-0.000258
C26	C	0.069262	0.041460	-0.000256
C27	C	0.141718	0.043201	-0.000246
C28	C	0.170050	0.147512	-0.000248
C29	C	0.825361	-0.056399	-0.000205
C30	C	0.823517	-0.182385	-0.000206
C31	C	0.820125	-0.413045	-0.000217
C32	C	0.822009	-0.284689	-0.000211
C33	C	0.948028	0.142192	-0.000242
C34	C	1.025142	0.144037	-0.000266
C35	C	0.816783	0.358654	-0.000214
C36	C	0.818627	0.484640	-0.000219
N37	N	0.821049	0.151113	0.188459
N38	N	0.821101	0.151133	-0.188877
C39	C	0.867993	0.073752	0.226550
C40	C	0.867997	0.073747	0.302778
C41	C	0.821064	0.151123	0.340912
C42	C	0.774111	0.228490	0.302811
C43	C	0.774103	0.228485	0.226585
C44	C	0.812353	0.254534	0.461671
C45	C	0.812366	0.254540	0.537896
C46	C	0.821084	0.151137	0.576019
C47	C	0.829804	0.047723	0.537908
C48	C	0.829796	0.047719	0.461682
C49	C	0.821067	0.151136	0.423566
C50	C	0.868036	0.073764	0.696765
C51	C	0.868035	0.073757	0.772994
C52	C	0.774152	0.228510	0.773026
C53	C	0.774149	0.228507	0.696799
C54	C	0.821095	0.151135	0.658673
H55	H	0.046188	-0.043463	-0.000309
N56	N	0.154882	0.356620	-0.000233
N57	N	0.193524	0.380657	0.050823
H58	H	0.213967	0.455904	0.050841
H59	H	0.906217	0.010749	0.195510
N60	N	0.186784	-0.061565	-0.000255
N61	N	0.229002	-0.083668	-0.051296
H62	H	0.260831	-0.157663	-0.051302
H63	H	0.906226	0.010748	0.333797
N64	N	0.487270	-0.054370	-0.000166
N65	N	0.448572	-0.078418	0.050874
H66	H	0.428130	-0.153667	0.050883
H67	H	0.906261	0.010755	0.804009
H68	H	0.906259	0.010760	0.665722
N69	N	0.726208	0.307530	0.811981
N70	N	0.726216	0.307520	0.880039
H71	H	0.692352	0.363326	0.907555
H72	H	0.805270	0.338745	0.568920
H73	H	0.735875	0.291483	0.195571
N74	N	0.260120	-0.010800	-0.086015
N75	N	0.297894	-0.080767	-0.123885
H76	H	0.276147	-0.138558	-0.154509
H77	H	0.735925	0.291506	0.665783
H78	H	0.397806	0.008943	-0.077190
H79	H	0.464507	0.342567	-0.000190
H80	H	0.624588	-0.029614	-0.000145
N81	N	0.382031	0.313069	0.085564
N82	N	0.344262	0.383036	0.123440
H83	H	0.366013	0.440831	0.154056
N84	N	0.803455	0.360176	0.422744
N85	N	0.795686	0.452498	0.456777
H86	H	0.789405	0.527106	0.429287
H87	H	0.836895	-0.036484	0.430655
H88	H	0.735896	0.291488	0.333864
N89	N	0.838711	-0.057915	0.576833
N90	N	0.892983	-0.124944	0.568306
H91	H	0.899274	-0.199547	0.595801
H92	H	0.595951	0.345717	-0.000176
H93	H	0.244337	0.293309	0.076749
H94	H	0.017560	0.331860	-0.000265
