data_functionalizedCrystal
_audit_creation_method	'MofGen! by Chris Wilmer'
_symmetry_space_group_name_H-M	'P1'
_symmetry_Int_Tables_number	1
_symmetry_cell_setting	triclinic
loop_
_symmetry_equiv_pos_as_xyz
  x,y,z
_cell_length_a	19.188933
_cell_length_b	19.188930
_cell_length_c	11.892095
_cell_angle_alpha	93.870839
_cell_angle_beta	86.115576
_cell_angle_gamma	83.145175
loop_
_atom_site_label
_atom_site_type_symbol
_atom_site_fract_x
_atom_site_fract_y
_atom_site_fract_z
O1	O	0.930621	0.082698	-0.093977
O2	O	0.727310	0.094430	-0.093990
O3	O	0.834831	-0.013090	-0.093961
O4	O	0.823099	0.190219	-0.094006
O5	O	0.825866	-0.004139	0.094044
O6	O	0.718345	0.103381	0.094015
O7	O	0.921656	0.091649	0.094028
Zn8	Zn	0.818577	0.098936	0.123871
Zn9	Zn	0.830389	0.087143	-0.123833
O10	O	0.814134	0.199170	0.093999
C11	C	0.696817	0.098526	0.000012
C12	C	0.619312	0.097384	0.000008
C13	C	0.070943	0.084360	-0.102460
C14	C	0.143768	0.085428	-0.102464
C15	C	0.175298	0.090845	0.000017
C16	C	0.134000	0.095176	0.102510
C17	C	0.061178	0.094101	0.102512
N18	N	0.280681	0.135895	0.076289
N19	N	0.349859	0.136917	0.076281
C20	C	0.394706	0.094083	0.000018
N21	N	0.367762	0.050195	-0.076253
N22	N	0.298578	0.049176	-0.076248
C23	C	0.254261	0.092011	0.000026
C24	C	0.514961	0.090905	-0.102474
C25	C	0.587787	0.091969	-0.102474
C26	C	0.578017	0.101724	0.102503
C27	C	0.505193	0.100653	0.102501
C28	C	0.473669	0.095247	0.000009
C29	C	0.829969	-0.034626	0.000045
C30	C	0.828828	-0.112130	0.000054
C31	C	0.891918	-0.157053	0.000064
C32	C	0.890847	-0.229877	0.000045
C33	C	0.826681	-0.257775	0.000041
C34	C	0.763583	-0.212842	0.000025
C35	C	0.764656	-0.140020	0.000032
N36	N	0.774583	-0.362734	0.064019
N37	N	0.773568	-0.431913	0.064015
C38	C	0.823444	-0.477184	0.000018
N39	N	0.874384	-0.450665	-0.063962
N40	N	0.875401	-0.381480	-0.063953
C41	C	0.825511	-0.336738	0.000033
C42	C	0.885378	-0.601073	0.000005
C43	C	0.884305	-0.673899	-0.000020
C44	C	0.757038	-0.656861	-0.000029
C45	C	0.758114	-0.584038	-0.000015
C46	C	0.822285	-0.556148	0.000008
C47	C	0.952149	0.087554	0.000024
C48	C	1.029654	0.088695	0.000020
C49	C	0.818997	0.220705	-0.000009
C50	C	0.820139	0.298209	-0.000026
N51	N	0.810521	0.106985	0.292923
N52	N	0.838450	0.079089	-0.292885
C53	C	0.894508	0.023045	0.529593
C54	C	0.888882	0.028676	0.647934
C55	C	0.793640	0.123873	0.647947
C56	C	0.799266	0.118242	0.529606
C57	C	0.849702	0.067828	0.470434
C58	C	0.855331	0.062201	0.352091
C59	C	0.760087	0.157394	0.352106
C60	C	0.754461	0.163025	0.470447
H61	H	0.177391	0.081902	-0.185918
H62	H	0.159676	0.099585	0.185951
H63	H	0.027559	0.097633	0.185966
Cl64	Cl	0.972592	-0.121997	0.000060
Cl65	Cl	0.918737	-0.001176	0.277705
H66	H	0.471574	0.104185	0.185951
Cl67	Cl	0.945210	-0.027625	0.722303
H68	H	0.713394	0.204070	0.518638
H69	H	0.935683	-0.710476	-0.000018
Cl70	Cl	0.475328	0.084104	-0.231317
Cl71	Cl	0.957919	-0.040325	0.455204
H72	H	0.752571	0.164915	0.696140
H73	H	0.045282	0.079956	-0.185917
Cl74	Cl	0.639696	0.086512	-0.231319
H75	H	0.723605	0.193861	0.303925
H76	H	0.704794	-0.679575	-0.000038
H77	H	0.603688	0.106131	0.185945
Cl78	Cl	0.682918	-0.247912	0.000010
Cl79	Cl	0.970167	-0.286363	0.000056
H80	H	0.713279	-0.103442	0.000025
Cl81	Cl	0.966049	-0.566008	0.000040
H82	H	0.706738	-0.547460	-0.000016
