data_functionalizedCrystal
_audit_creation_method	'MofGen! by Chris Wilmer'
_symmetry_space_group_name_H-M	'P1'
_symmetry_Int_Tables_number	1
_symmetry_cell_setting	triclinic
loop_
_symmetry_equiv_pos_as_xyz
  x,y,z
_cell_length_a	15.995292
_cell_length_b	15.995292
_cell_length_c	13.448316
_cell_angle_alpha	89.996588
_cell_angle_beta	89.992066
_cell_angle_gamma	83.468616
loop_
_atom_site_label
_atom_site_type_symbol
_atom_site_fract_x
_atom_site_fract_y
_atom_site_fract_z
O1	O	1.110996	0.107700	-0.082712
O2	O	1.610996	0.607700	0.417288
O3	O	0.867211	0.121078	-0.082707
O4	O	1.367211	0.621078	0.417293
O5	O	0.995793	-0.007503	-0.082711
O6	O	1.495793	0.492497	0.417289
O7	O	0.982414	0.236281	-0.082708
O8	O	1.482414	0.736281	0.417292
O9	O	0.995777	-0.007511	0.082673
O10	O	1.495777	0.492489	0.582673
O11	O	0.867195	0.121071	0.082677
O12	O	1.367195	0.621071	0.582677
O13	O	1.110980	0.107692	0.082672
O14	O	1.610980	0.607692	0.582672
Cu15	Cu	0.989086	0.114380	0.097775
Cu16	Cu	1.489086	0.614380	0.597775
Cu17	Cu	0.989105	0.114390	-0.097810
Cu18	Cu	1.489105	0.614390	0.402190
O19	O	0.982398	0.236273	0.082676
O20	O	1.482398	0.736273	0.582676
C21	C	0.836008	0.120530	-0.000014
C22	C	1.336008	0.620530	0.499986
C23	C	0.743055	0.118898	-0.000013
C24	C	1.243055	0.618898	0.499987
C25	C	0.995240	-0.038703	-0.000021
C26	C	1.495240	0.461297	0.499979
C27	C	0.993608	-0.131655	-0.000029
C28	C	1.493608	0.368345	0.499971
C29	C	0.405318	0.112896	-0.000024
C30	C	0.905318	0.612896	0.499976
C31	C	0.428611	0.205703	-0.000392
C32	C	0.928611	0.705703	0.499608
C33	C	0.525286	0.207467	-0.000015
C34	C	1.025286	0.707467	0.499985
C35	C	0.572873	0.115874	-0.000019
C36	C	1.072873	0.615874	0.499981
C37	C	0.543772	0.069471	0.094419
C38	C	1.043772	0.569471	0.594419
C39	C	0.446981	0.068353	0.094494
C40	C	0.946981	0.568353	0.594494
C41	C	0.447145	0.066467	-0.093578
C42	C	0.947145	0.566467	0.406422
C43	C	0.543637	0.069906	-0.094822
C44	C	1.043637	0.569906	0.405178
C45	C	0.667569	0.117552	-0.000013
C46	C	1.167569	0.617552	0.499987
C47	C	0.310622	0.111215	-0.000024
C48	C	0.810622	0.611215	0.499976
C49	C	0.987607	-0.469393	-0.000020
C50	C	1.487607	0.030607	0.499980
C51	C	1.080413	-0.446100	0.000348
C52	C	1.580413	0.053900	0.500348
C53	C	1.082177	-0.349424	-0.000028
C54	C	1.582177	0.150576	0.499972
C55	C	0.990584	-0.301837	-0.000024
C56	C	1.490584	0.198163	0.499976
C57	C	0.944195	-0.330924	-0.094462
C58	C	1.444195	0.169076	0.405538
C59	C	0.943077	-0.427714	-0.094537
C60	C	1.443077	0.072286	0.405463
C61	C	0.941164	-0.427580	0.093535
C62	C	1.441164	0.072420	0.593535
C63	C	0.944603	-0.331088	0.094779
C64	C	1.444603	0.168912	0.594779
C65	C	0.992263	-0.207141	-0.000029
C66	C	1.492263	0.292859	0.499971
C67	C	0.985926	-0.564088	-0.000021
C68	C	1.485926	-0.064088	0.499979
C69	C	1.142183	0.108240	-0.000022
C70	C	1.642183	0.608240	0.499978
C71	C	1.235136	0.109873	-0.000030
C72	C	1.735136	0.609873	0.499970
C73	C	0.982951	0.267473	-0.000015
C74	C	1.482951	0.767473	0.499985
C75	C	0.984583	0.360426	-0.000014
C76	C	1.484583	0.860426	0.499986
N77	N	0.989079	0.114373	0.235340
N78	N	1.489079	0.614373	0.735340
N79	N	0.989119	0.114390	-0.235374
N80	N	1.489119	0.614390	0.264626
C81	C	1.046032	0.057461	0.287378
C82	C	1.546032	0.557461	0.787378
C83	C	1.046038	0.057460	0.391482
C84	C	1.546038	0.557460	0.891482
C85	C	0.989092	0.114377	0.443544
C86	C	1.489092	0.614377	0.943544
C87	C	0.932133	0.171292	0.391498
C88	C	1.432133	0.671292	0.891498
C89	C	0.932124	0.171288	0.287397
C90	C	1.432124	0.671288	0.787397
C91	C	0.932156	0.171298	0.608479
C92	C	1.432156	0.671298	1.108479
C93	C	0.932165	0.171303	0.712587
C94	C	1.432165	0.671303	1.212587
C95	C	1.046069	0.057470	0.712563
C96	C	1.546069	0.557470	1.212563
C97	C	1.046061	0.057466	0.608462
C98	C	1.546061	0.557466	1.108462
C99	C	0.989102	0.114382	0.556423
C100	C	1.489102	0.614382	1.056423
H101	H	0.544312	0.243803	-0.067715
H102	H	1.044312	0.743803	0.432285
H103	H	0.420151	0.100484	0.165091
H104	H	0.920151	0.600484	0.665091
H105	H	0.975218	-0.454534	-0.165135
H106	H	1.475218	0.045466	0.334865
H107	H	0.976422	-0.310867	-0.164746
H108	H	1.476422	0.189133	0.335254
N109	N	0.390168	0.252827	0.088817
N110	N	0.890168	0.752827	0.588817
H111	H	0.326942	0.253897	0.086492
H112	H	0.826942	0.753897	0.586492
H113	H	0.412430	0.223742	0.151668
H114	H	0.912430	0.723742	0.651668
H115	H	0.576621	0.003053	-0.100529
H116	H	1.076621	0.503053	0.399471
H117	H	1.092434	0.011124	0.566072
H118	H	1.592434	0.511124	1.066072
H119	H	1.092447	0.011126	0.754939
H120	H	1.592447	0.511126	1.254939
H121	H	0.432445	0.000307	0.098781
H122	H	0.932445	0.500307	0.598781
N123	N	0.854914	-0.288701	-0.099117
N124	N	1.354914	0.211299	0.400883
H125	H	0.843653	-0.250218	-0.039912
H126	H	1.343653	0.249782	0.460088
H127	H	0.846783	-0.254765	-0.162411
H128	H	1.346783	0.245235	0.337589
H129	H	0.575654	0.002070	0.097928
H130	H	1.075654	0.502070	0.597928
H131	H	0.400614	0.241478	-0.068119
H132	H	0.900614	0.741478	0.431881
N133	N	1.127800	-0.483213	0.090045
N134	N	1.627800	0.016787	0.590045
H135	H	1.187196	-0.467521	0.088839
H136	H	1.687196	0.032479	0.588839
H137	H	1.098573	-0.460472	0.152608
H138	H	1.598573	0.039528	0.652608
H139	H	0.543675	0.244021	0.067798
H140	H	1.043675	0.744021	0.567798
H141	H	1.092413	0.011117	0.433851
H142	H	1.592413	0.511117	0.933851
N143	N	0.428637	-0.024021	-0.094433
N144	N	0.928637	0.475979	0.405567
H145	H	0.393337	-0.034924	-0.034548
H146	H	0.893337	0.465076	0.465452
H147	H	0.396975	-0.035187	-0.157129
H148	H	0.896975	0.464813	0.342871
N149	N	0.870756	0.232697	0.768744
N150	N	1.370756	0.732697	1.268744
H151	H	0.834669	0.268751	0.719984
H152	H	1.334669	0.768751	1.219984
H153	H	0.833757	0.200631	0.811960
H154	H	1.333757	0.700631	1.311960
N155	N	1.130577	-0.325025	-0.089870
N156	N	1.630577	0.174975	0.410130
H157	H	1.180540	-0.296503	-0.067530
H158	H	1.680540	0.203497	0.432470
H159	H	1.150796	-0.377135	-0.129356
H160	H	1.650796	0.122865	0.370644
N161	N	0.989336	-0.306508	0.187329
N162	N	1.489336	0.193492	0.687329
H163	H	1.039179	-0.276548	0.167939
H164	H	1.539179	0.223452	0.667939
H165	H	0.949274	-0.267866	0.229229
H166	H	1.449274	0.232134	0.729229
H167	H	0.563817	0.101688	0.164703
H168	H	1.063817	0.601688	0.664703
N169	N	0.870700	0.232678	0.231268
N170	N	1.370700	0.732678	0.731268
H171	H	0.879333	0.224038	0.157421
H172	H	1.379333	0.724038	0.657421
H173	H	0.811308	0.222981	0.249485
H174	H	1.311308	0.722981	0.749485
H175	H	1.118509	-0.330410	0.067667
H176	H	1.618509	0.169590	0.567667
N177	N	0.852949	-0.446979	-0.100224
N178	N	1.352949	0.053021	0.399776
H179	H	0.814119	-0.392616	-0.102675
H180	H	1.314119	0.107384	0.397325
H181	H	0.845027	-0.480944	-0.162128
H182	H	1.345027	0.019056	0.337872
N183	N	0.870717	0.232680	0.447656
N184	N	1.370717	0.732680	0.947656
H185	H	0.880341	0.292111	0.429526
H186	H	1.380341	0.792111	0.929526
H187	H	0.811319	0.222940	0.429541
H188	H	1.311319	0.722940	0.929541
N189	N	0.979657	-0.465020	0.188356
N190	N	1.479657	0.034980	0.688356
H191	H	1.027596	-0.509472	0.171624
H192	H	1.527596	-0.009472	0.671624
H193	H	1.001537	-0.419272	0.229334
H194	H	1.501537	0.080728	0.729334
H195	H	0.562206	0.103693	-0.164687
H196	H	1.062206	0.603693	0.335313
N197	N	1.127542	-0.484542	-0.088860
N198	N	1.627542	0.015458	0.411140
H199	H	1.098497	-0.462337	-0.151761
H200	H	1.598497	0.037663	0.348239
H201	H	1.187091	-0.469268	-0.087972
H202	H	1.687091	0.030732	0.412028
H203	H	0.885771	0.217643	0.566112
H204	H	1.385771	0.717643	1.066112
H205	H	0.418819	0.095479	-0.165157
H206	H	0.918819	0.595479	0.334843
H207	H	0.877749	-0.298105	0.100486
H208	H	1.377749	0.201895	0.600486
N209	N	0.850676	-0.446088	0.094390
N210	N	1.350676	0.053912	0.594390
H211	H	0.839781	-0.481379	0.034504
H212	H	1.339781	0.018621	0.534504
H213	H	0.839501	-0.477760	0.157086
H214	H	1.339501	0.022240	0.657086
H215	H	1.092407	0.011116	0.244996
H216	H	1.592407	0.511116	0.744996
