data_functionalizedCrystal
_audit_creation_method	'MofGen! by Chris Wilmer'
_symmetry_space_group_name_H-M	'P1'
_symmetry_Int_Tables_number	1
_symmetry_cell_setting	triclinic
loop_
_symmetry_equiv_pos_as_xyz
  x,y,z
_cell_length_a	16.109301
_cell_length_b	26.809956
_cell_length_c	16.109301
_cell_angle_alpha	89.994023
_cell_angle_beta	96.538519
_cell_angle_gamma	90.013343
loop_
_atom_site_label
_atom_site_type_symbol
_atom_site_fract_x
_atom_site_fract_y
_atom_site_fract_z
O1	O	1.103146	0.041450	-0.106865
O2	O	1.603146	0.541450	0.393135
O3	O	0.861084	0.041458	-0.120165
O4	O	1.361084	0.541458	0.379835
O5	O	0.988765	0.041448	0.007516
O6	O	1.488765	0.541448	0.507516
O7	O	0.975465	0.041459	-0.234546
O8	O	1.475465	0.541459	0.265454
O9	O	0.988725	-0.041511	0.007516
O10	O	1.488725	0.458489	0.507516
O11	O	0.861045	-0.041501	-0.120164
O12	O	1.361045	0.458499	0.379836
O13	O	1.103107	-0.041510	-0.106865
O14	O	1.603107	0.458490	0.393135
Zn15	Zn	0.982069	-0.054677	-0.113515
Zn16	Zn	1.482069	0.445323	0.386485
Zn17	Zn	0.982121	0.054625	-0.113515
Zn18	Zn	1.482121	0.554625	0.386485
O19	O	0.975426	-0.041500	-0.234546
O20	O	1.475426	0.458500	0.265454
C21	C	0.830090	-0.000021	-0.119626
C22	C	1.330090	0.499979	0.380374
C23	C	0.737794	-0.000018	-0.118011
C24	C	1.237794	0.499982	0.381989
N25	N	0.982040	-0.129273	-0.113514
N26	N	1.482040	0.370727	0.386486
C27	C	0.515522	-0.000021	-0.190018
C28	C	1.015522	0.499979	0.309982
C29	C	0.428801	-0.000024	-0.188494
C30	C	0.928801	0.499976	0.311506
C31	C	0.448676	-0.000028	-0.037006
C32	C	0.948676	0.499972	0.462994
C33	C	0.535394	-0.000029	-0.038530
C34	C	1.035394	0.499971	0.461470
C35	C	0.568815	-0.000022	-0.115039
C36	C	1.068815	0.499978	0.384961
C37	C	0.395376	-0.000025	-0.111990
C38	C	0.895376	0.499975	0.388010
C39	C	0.301350	-0.000029	-0.110337
C40	C	0.801350	0.499971	0.389663
C41	C	0.662847	-0.000020	-0.116693
C42	C	1.162847	0.499980	0.383307
C43	C	1.032519	-0.473899	-0.163947
C44	C	1.532519	0.026101	0.336053
C45	C	1.032545	-0.682776	-0.163946
C46	C	1.532545	-0.182776	0.336054
O47	O	1.075442	-0.709780	-0.206817
O48	O	1.575442	-0.209780	0.293183
N49	N	0.982141	-0.708900	-0.113507
N50	N	1.482141	-0.208900	0.386493
C51	C	0.931731	-0.682801	-0.063059
C52	C	1.431731	-0.182801	0.436941
O53	O	0.888866	-0.709814	-0.020151
O54	O	1.388866	-0.209814	0.479849
C55	C	0.931709	-0.473925	-0.063056
C56	C	1.431709	0.026075	0.436944
C57	C	0.982110	-0.447804	-0.113505
C58	C	1.482110	0.052196	0.386495
C59	C	1.082916	-0.447777	-0.214391
C60	C	1.582916	0.052223	0.285609
C61	C	1.082906	-0.395561	-0.214394
C62	C	1.582906	0.104439	0.285606
C63	C	1.032497	-0.369466	-0.163953
C64	C	1.532497	0.130534	0.336047
C65	C	0.982099	-0.395587	-0.113508
C66	C	1.482099	0.104413	0.386492
C67	C	0.881303	-0.447827	-0.012605
C68	C	1.381303	0.052173	0.487395
C69	C	0.881304	-0.395604	-0.012607
C70	C	1.381304	0.104396	0.487393
C71	C	0.931705	-0.369483	-0.063056
C72	C	1.431705	0.130517	0.436944
C73	C	0.931680	-0.317276	-0.063070
C74	C	1.431680	0.182724	0.436930
N75	N	0.982085	-0.291152	-0.113510
N76	N	1.482085	0.208848	0.386490
C77	C	1.032493	-0.317247	-0.163951
C78	C	1.532493	0.182753	0.336049
C79	C	0.931744	-0.792465	-0.063066
C80	C	1.431744	-0.292465	0.436934
C81	C	0.931749	-0.844684	-0.063068
C82	C	1.431749	-0.344684	0.436932
C83	C	1.032565	-0.844655	-0.163954
C84	C	1.532565	-0.344655	0.336046
C85	C	1.032556	-0.792435	-0.163956
C86	C	1.532556	-0.292435	0.336044
C87	C	0.982149	-0.766341	-0.113506
C88	C	1.482149	-0.266341	0.386494
C89	C	1.032466	-0.207589	-0.163954
C90	C	1.532466	0.292411	0.336046
C91	C	1.032449	-0.155368	-0.163955
C92	C	1.532449	0.344632	0.336045
C93	C	0.931636	-0.155401	-0.063067
C94	C	1.431636	0.344599	0.436933
C95	C	0.931650	-0.207618	-0.063068
C96	C	1.431650	0.292382	0.436932
C97	C	0.982072	-0.233710	-0.113515
C98	C	1.482072	0.266290	0.386485
O99	O	0.888813	-0.290240	-0.020215
O100	O	1.388813	0.209760	0.479785
O101	O	1.075365	-0.290225	-0.206839
O102	O	1.575365	0.209775	0.293161
C103	C	1.032529	-0.526115	-0.163944
C104	C	1.532529	-0.026115	0.336056
C105	C	0.982131	-0.552236	-0.113499
C106	C	1.482131	-0.052236	0.386501
C107	C	0.931723	-0.526141	-0.063058
C108	C	1.431723	-0.026141	0.436942
C109	C	0.982136	-0.604455	-0.113501
C110	C	1.482136	-0.104455	0.386499
C111	C	1.032544	-0.630550	-0.163943
C112	C	1.532544	-0.130550	0.336057
C113	C	1.082948	-0.604426	-0.214382
C114	C	1.582948	-0.104426	0.285618
C115	C	1.082938	-0.552210	-0.214385
C116	C	1.582938	-0.052210	0.285615
C117	C	0.881318	-0.552265	-0.012618
C118	C	1.381318	-0.052265	0.487382
C119	C	0.881332	-0.604481	-0.012620
C120	C	1.381332	-0.104481	0.487380
C121	C	0.931741	-0.630576	-0.063061
C122	C	1.431741	-0.130576	0.436939
C123	C	1.134101	-0.000030	-0.107404
C124	C	1.634101	0.499970	0.392596
C125	C	1.226397	-0.000030	-0.109019
C126	C	1.726397	0.499970	0.390981
N127	N	0.982157	0.129221	-0.113509
N128	N	1.482157	0.629221	0.386491
C129	C	0.988206	-0.000031	0.038491
C130	C	1.488206	0.499969	0.538491
C131	C	0.986591	-0.000032	0.130786
C132	C	1.486591	0.499968	0.630786
C133	C	0.975984	-0.000019	-0.265521
C134	C	1.475984	0.499981	0.234479
C135	C	0.977600	-0.000015	-0.357816
C136	C	1.477600	0.499985	0.142184
C137	C	1.058599	-0.000027	0.353059
C138	C	1.558599	0.499973	0.853059
C139	C	1.057075	-0.000022	0.439779
C140	C	1.557075	0.499978	0.939779
C141	C	0.905586	-0.000019	0.419905
C142	C	1.405586	0.499981	0.919905
C143	C	0.907111	-0.000020	0.333186
C144	C	1.407111	0.499980	0.833186
C145	C	0.983620	-0.000026	0.299766
C146	C	1.483620	0.499974	0.799766
C147	C	0.980571	-0.000021	0.473205
C148	C	1.480571	0.499979	0.973205
C149	C	0.978918	-0.000017	0.567231
C150	C	1.478918	0.499983	1.067231
C151	C	0.985273	-0.000030	0.205734
C152	C	1.485273	0.499970	0.705734
H153	H	0.542730	-0.000019	-0.252317
H154	H	1.042730	0.499981	0.247683
H155	H	1.118130	-0.000022	0.483168
H156	H	1.618130	0.499978	0.983168
H157	H	0.385413	-0.000023	-0.249550
H158	H	0.885413	0.499977	0.250450
H159	H	0.890592	-0.134145	-0.022001
H160	H	1.390592	0.365855	0.477999
H161	H	0.578788	-0.000031	0.022530
H162	H	1.078788	0.499969	0.522530
H163	H	1.073491	-0.134103	-0.205041
H164	H	1.573491	0.365897	0.294959
H165	H	1.120897	-0.000031	0.325851
H166	H	1.620897	0.499969	0.825851
Cl167	Cl	0.406655	-0.000033	0.059172
Cl168	Cl	0.906655	0.499967	0.559172
H169	H	0.843295	-0.000015	0.447127
H170	H	1.343295	0.499985	0.947127
Cl171	Cl	0.812844	-0.000015	0.266184
Cl172	Cl	1.312844	0.499985	0.766184
Cl173	Cl	0.817927	-0.519468	0.050787
Cl174	Cl	1.317927	-0.019468	0.550787
Cl175	Cl	1.146258	-0.362731	-0.277833
Cl176	Cl	1.646258	0.137269	0.222167
Cl177	Cl	1.095854	-0.240383	-0.227374
Cl178	Cl	1.595854	0.259617	0.272626
H179	H	1.123970	-0.469019	-0.255467
H180	H	1.623970	0.030981	0.244533
H181	H	1.073596	-0.771171	-0.205037
H182	H	1.573596	-0.271171	0.294963
H183	H	1.073606	-0.865911	-0.205028
H184	H	1.573606	-0.365911	0.294972
Cl185	Cl	0.817960	-0.637313	0.050805
Cl186	Cl	1.317960	-0.137313	0.550805
Cl187	Cl	0.868371	-0.877515	0.000344
Cl188	Cl	1.368371	-0.377515	0.500344
H189	H	0.840262	-0.469086	0.028477
H190	H	1.340262	0.030914	0.528477
Cl191	Cl	0.817937	-0.362803	0.050827
Cl192	Cl	1.317937	0.137197	0.550827
Cl193	Cl	0.868352	-0.759668	0.000347
Cl194	Cl	1.368352	-0.259668	0.500347
Cl195	Cl	0.868280	-0.240457	0.000346
Cl196	Cl	1.368280	0.259543	0.500346
H197	H	1.123980	-0.530947	-0.255466
H198	H	1.623980	-0.030947	0.244534
H199	H	1.123989	-0.625682	-0.255458
H200	H	1.623989	-0.125682	0.244542
