data_functionalizedCrystal
_audit_creation_method	'MofGen! by Chris Wilmer'
_symmetry_space_group_name_H-M	'P1'
_symmetry_Int_Tables_number	1
_symmetry_cell_setting	triclinic
loop_
_symmetry_equiv_pos_as_xyz
  x,y,z
_cell_length_a	19.288840
_cell_length_b	17.699092
_cell_length_c	17.766277
_cell_angle_alpha	90.006058
_cell_angle_beta	90.006284
_cell_angle_gamma	83.206192
loop_
_atom_site_label
_atom_site_type_symbol
_atom_site_fract_x
_atom_site_fract_y
_atom_site_fract_z
O1	O	0.921468	0.094330	0.062717
O2	O	1.421468	0.594330	0.562717
O3	O	0.719220	0.107086	0.062691
O4	O	1.219220	0.607086	0.562691
O5	O	0.826055	-0.009490	0.062703
O6	O	1.326055	0.490510	0.562703
O7	O	0.814633	0.210905	0.062705
O8	O	1.314633	0.710905	0.562705
O9	O	0.826057	-0.009501	-0.062486
O10	O	1.326057	0.490499	0.437514
O11	O	0.719223	0.107074	-0.062498
O12	O	1.219223	0.607074	0.437502
O13	O	0.921470	0.094318	-0.062471
O14	O	1.421470	0.594318	0.437529
Cu15	Cu	0.820347	0.100695	-0.073915
Cu16	Cu	1.320347	0.600695	0.426085
Cu17	Cu	0.820344	0.100709	0.074135
Cu18	Cu	1.320344	0.600709	0.574135
O19	O	0.814635	0.210893	-0.062484
O20	O	1.314635	0.710893	0.437516
C21	C	0.693344	0.106673	0.000093
C22	C	1.193344	0.606673	0.500093
C23	C	0.616238	0.105450	0.000083
C24	C	1.116238	0.605450	0.500083
C25	C	0.580032	0.104869	0.068325
C26	C	1.080032	0.604869	0.568325
C27	C	0.507584	0.103712	0.068334
C28	C	1.007584	0.603712	0.568334
C29	C	0.471346	0.103120	0.000098
C30	C	0.971346	0.603120	0.500098
C31	C	0.507560	0.103706	-0.068154
C32	C	1.007560	0.603706	0.431846
C33	C	0.580006	0.104871	-0.068161
C34	C	1.080006	0.604871	0.431839
C35	C	0.361964	0.056939	-0.052171
C36	C	0.861964	0.556939	0.447829
C37	C	0.289519	0.055769	-0.052161
C38	C	0.789519	0.555769	0.447839
C39	C	0.247898	0.099531	0.000117
C40	C	0.747898	0.599531	0.500117
C41	C	0.278731	0.144453	0.052398
C42	C	0.778731	0.644453	0.552398
C43	C	0.351177	0.145618	0.052391
C44	C	0.851177	0.645618	0.552391
C45	C	0.392791	0.101858	0.000098
C46	C	0.892791	0.601858	0.500098
C47	C	0.133136	0.097696	0.068374
C48	C	0.633136	0.597696	0.568374
C49	C	0.060685	0.096544	0.068380
C50	C	0.560685	0.596544	0.568380
C51	C	0.060664	0.096530	-0.068110
C52	C	0.560664	0.596530	0.431890
C53	C	0.133111	0.097690	-0.068114
C54	C	0.633111	0.597690	0.431886
C55	C	0.169344	0.098270	0.000130
C56	C	0.669344	0.598270	0.500130
C57	C	0.825646	-0.037692	0.000110
C58	C	1.325646	0.462308	0.500110
C59	C	0.824415	-0.121708	0.000113
C60	C	1.324415	0.378292	0.500113
C61	C	0.823837	-0.161168	0.068354
C62	C	1.323837	0.338832	0.568354
C63	C	0.822676	-0.240109	0.068355
C64	C	1.322676	0.259891	0.568355
C65	C	0.822098	-0.279589	0.000114
C66	C	1.322098	0.220411	0.500114
C67	C	0.822674	-0.240123	-0.068132
C68	C	1.322674	0.259877	0.431868
C69	C	0.823830	-0.161183	-0.068132
C70	C	1.323830	0.338817	0.431868
C71	C	0.818012	-0.558481	-0.068134
C72	C	1.318012	-0.058481	0.431866
C73	C	0.816858	-0.637428	-0.068129
C74	C	1.316858	-0.137428	0.431871
C75	C	0.816858	-0.637408	0.068353
C76	C	1.316858	-0.137408	0.568353
C77	C	0.818014	-0.558467	0.068353
C78	C	1.318014	-0.058467	0.568353
C79	C	0.818586	-0.519007	0.000107
C80	C	1.318586	-0.019007	0.500107
C81	C	0.819843	-0.433410	0.000107
C82	C	1.319843	0.066590	0.500107
C83	C	0.820846	-0.365186	0.000113
C84	C	1.320846	0.134814	0.500113
C85	C	0.947346	0.094731	0.000128
C86	C	1.447346	0.594731	0.500128
C87	C	1.024452	0.095954	0.000143
C88	C	1.524452	0.595954	0.500143
C89	C	0.815044	0.239096	0.000111
C90	C	1.315044	0.739096	0.500111
C91	C	0.816275	0.323111	0.000113
C92	C	1.316275	0.823111	0.500113
N93	N	0.820354	0.100685	-0.178046
N94	N	1.320354	0.600685	0.321954
N95	N	0.820342	0.100713	0.178265
N96	N	1.320342	0.600713	0.678265
C97	C	0.867733	0.049194	0.217657
C98	C	1.367733	0.549194	0.717657
C99	C	0.867739	0.049192	0.296459
C100	C	1.367739	0.549192	0.796459
C101	C	0.820342	0.100703	0.335866
C102	C	1.320342	0.600703	0.835866
C103	C	0.772948	0.152232	0.296464
C104	C	1.272948	0.652232	0.796464
C105	C	0.772948	0.152237	0.217663
C106	C	1.272948	0.652237	0.717663
C107	C	0.757066	0.110674	0.460702
C108	C	1.257066	0.610674	0.960702
C109	C	0.757065	0.110664	0.539501
C110	C	1.257065	0.610664	1.039501
C111	C	0.820342	0.100692	0.578912
C112	C	1.320342	0.600692	1.078912
C113	C	0.883623	0.090715	0.539514
C114	C	1.383623	0.590715	1.039514
C115	C	0.883623	0.090719	0.460714
C116	C	1.383623	0.590719	0.960714
C117	C	0.820337	0.100704	0.421311
C118	C	1.320337	0.600704	0.921311
C119	C	0.867743	0.049169	0.703750
C120	C	1.367743	0.549169	1.203750
C121	C	0.867750	0.049173	0.782553
C122	C	1.367750	0.549173	1.282553
C123	C	0.772953	0.152209	0.782556
C124	C	1.272953	0.652209	1.282556
C125	C	0.772952	0.152208	0.703755
C126	C	1.272952	0.652208	1.203755
C127	C	0.820347	0.100684	0.664356
C128	C	1.320347	0.600684	1.164356
H129	H	0.031159	0.096053	-0.123669
H130	H	0.531159	0.596053	0.376331
H131	H	0.734360	0.194157	0.671679
H132	H	1.234360	0.694157	1.171679
H133	H	0.609484	0.105345	-0.123734
H134	H	1.109484	0.605345	0.376266
H135	H	0.264422	0.019187	-0.094728
H136	H	0.764422	0.519187	0.405272
O137	O	0.468527	0.103070	0.141944
O138	O	0.968527	0.603070	0.641944
H139	H	0.476153	0.154862	0.174681
H140	H	0.976153	0.654862	0.674681
H141	H	0.824311	-0.129029	0.123924
H142	H	1.324311	0.370971	0.623924
H143	H	0.906331	0.007238	0.328538
H144	H	1.406331	0.507238	0.828538
O145	O	0.172218	0.098317	0.141978
O146	O	0.672218	0.598317	0.641978
H147	H	0.228679	0.099209	0.130509
H148	H	0.728679	0.599209	0.630509
O149	O	0.688812	0.121432	0.418198
O150	O	1.188812	0.621432	0.918198
H151	H	0.687039	0.172954	0.382311
H152	H	1.187039	0.672954	0.882311
H153	H	0.824291	-0.129054	-0.123701
H154	H	1.324291	0.370946	0.376299
O155	O	0.918865	-0.006364	0.175170
O156	O	1.418865	0.493636	0.675170
H157	H	0.910230	-0.065376	0.190286
H158	H	1.410230	0.434624	0.690286
H159	H	0.935148	0.082597	0.428639
H160	H	1.435148	0.582597	0.928639
H161	H	0.734358	0.194174	0.328552
H162	H	1.234358	0.694174	0.828552
H163	H	0.816388	-0.669545	0.123922
H164	H	1.316388	-0.169545	0.623922
H165	H	0.734365	0.194153	0.814641
H166	H	1.234365	0.694153	1.314641
H167	H	0.906345	0.007222	0.814627
H168	H	1.406345	0.507222	1.314627
O169	O	0.172168	0.098328	-0.141718
O170	O	0.672168	0.598328	0.358282
H171	H	0.134800	0.097724	-0.189168
H172	H	0.634800	0.597724	0.310832
H173	H	0.244844	0.180091	0.094966
H174	H	0.744844	0.680091	0.594966
H175	H	0.822200	-0.272274	-0.123696
H176	H	1.322200	0.227726	0.376304
H177	H	0.031207	0.096075	0.123954
H178	H	0.531207	0.596075	0.623954
O179	O	0.406855	0.009731	-0.108557
O180	O	0.906855	0.509731	0.391443
H181	H	0.373248	-0.021711	-0.144898
H182	H	0.873248	0.478289	0.355102
O183	O	0.468590	0.103160	-0.141830
O184	O	0.968590	0.603160	0.358170
H185	H	0.476313	0.154996	-0.174437
H186	H	0.976313	0.654996	0.325563
H187	H	0.822208	-0.272234	0.123924
H188	H	1.322208	0.227766	0.623924
H189	H	0.935150	0.082600	0.571600
H190	H	1.435150	0.582600	1.071600
H191	H	0.705538	0.118780	0.571573
H192	H	1.205538	0.618780	1.071573
H193	H	0.818488	-0.526327	0.123922
H194	H	1.318488	-0.026327	0.623922
H195	H	0.816386	-0.669570	-0.123702
H196	H	1.316386	-0.169570	0.376298
H197	H	0.734356	0.194191	0.185589
H198	H	1.234356	0.694191	0.685589
O199	O	0.818646	-0.515935	-0.141742
O200	O	1.318646	-0.015935	0.358258
H201	H	0.771108	-0.524188	-0.174479
H202	H	1.271108	-0.024188	0.325521
O203	O	0.619112	0.105504	0.141927
O204	O	1.119112	0.605504	0.641927
H205	H	0.581759	0.104913	0.189383
H206	H	1.081759	0.604913	0.689383
H207	H	0.906337	0.007217	0.671671
H208	H	1.406337	0.507217	1.171671
H209	H	0.376278	0.182196	0.094958
H210	H	0.876278	0.682196	0.594958
