data_functionalizedCrystal
_audit_creation_method	'MofGen! by Chris Wilmer'
_symmetry_space_group_name_H-M	'P1'
_symmetry_Int_Tables_number	1
_symmetry_cell_setting	triclinic
loop_
_symmetry_equiv_pos_as_xyz
  x,y,z
_cell_length_a	12.759401
_cell_length_b	16.120444
_cell_length_c	12.759393
_cell_angle_alpha	92.863572
_cell_angle_beta	89.981425
_cell_angle_gamma	92.926867
loop_
_atom_site_label
_atom_site_type_symbol
_atom_site_fract_x
_atom_site_fract_y
_atom_site_fract_z
Zn1	Zn	1.584964	-0.331848	-0.615154
Zn2	Zn	2.084964	0.168152	-0.115154
Zn3	Zn	1.575912	-0.471287	-0.448369
Zn4	Zn	2.075912	0.028713	0.051631
Zn5	Zn	1.409263	-0.331893	-0.439496
Zn6	Zn	1.909263	0.168107	0.060504
Zn7	Zn	1.400313	-0.471223	-0.624006
Zn8	Zn	1.900313	0.028777	-0.124006
O9	O	1.492613	-0.401563	-0.531756
O10	O	1.992613	0.098437	-0.031756
O11	O	1.730784	-0.350353	-0.593039
O12	O	2.230784	0.149647	-0.093039
O13	O	1.553764	-0.452841	-0.300174
O14	O	2.053764	0.047159	0.199826
O15	O	1.440105	-0.215221	-0.455379
O16	O	1.940105	0.284779	0.044621
O17	O	1.724134	-0.452798	-0.470503
O18	O	2.224134	0.047202	0.029497
O19	O	1.569191	-0.215188	-0.584434
O20	O	2.069191	0.284812	-0.084434
O21	O	1.431327	-0.350429	-0.293655
O22	O	1.931327	0.149571	0.206345
O23	O	1.261056	-0.350367	-0.463963
O24	O	1.761056	0.149633	0.036037
O25	O	1.424849	-0.452689	-0.769850
O26	O	1.924849	0.047311	-0.269850
O27	O	1.254480	-0.452732	-0.599522
O28	O	1.754480	0.047268	-0.099522
O29	O	1.560512	-0.350291	-0.763347
O30	O	2.060512	0.149709	-0.263347
O31	O	1.545085	-0.587944	-0.479086
O32	O	2.045085	-0.087944	0.020914
O33	O	1.416072	-0.587897	-0.608126
O34	O	1.916072	-0.087897	-0.108126
C35	C	1.219647	-0.401548	-0.531741
C36	C	1.719647	0.098452	-0.031741
C37	C	1.102869	-0.401562	-0.531760
C38	C	1.602869	0.098438	-0.031760
C39	C	1.051464	-0.348315	-0.595674
C40	C	1.551464	0.151685	-0.095674
C41	C	0.941740	-0.348324	-0.595682
C42	C	1.441740	0.151676	-0.095682
C43	C	0.934834	-0.454833	-0.467858
C44	C	1.434834	0.045167	0.032142
C45	C	1.044557	-0.454820	-0.467846
C46	C	1.544557	0.045180	0.032154
C47	C	1.478654	-0.618171	-0.545552
C48	C	1.978654	-0.118171	-0.045552
C49	C	1.472778	-0.710836	-0.551490
C50	C	1.972778	-0.210836	-0.051490
C51	C	1.523352	-0.921781	-0.501183
C52	C	2.023352	-0.421781	-0.001183
C53	C	1.462069	-0.880493	-0.562340
C54	C	1.962069	-0.380493	-0.062340
C55	C	1.468029	-0.786087	-0.556301
C56	C	1.968029	-0.286087	-0.056301
C57	C	1.517393	-1.016195	-0.507221
C58	C	2.017393	-0.516195	-0.007221
C59	C	1.766645	-0.401578	-0.531773
C60	C	2.266645	0.098422	-0.031773
C61	C	1.883422	-0.401584	-0.531780
C62	C	2.383422	0.098416	-0.031780
C63	C	1.492692	-0.401478	-0.805785
C64	C	1.992692	0.098522	-0.305785
C65	C	1.492726	-0.401442	-0.922559
C66	C	1.992726	0.098558	-0.422559
C67	C	1.506656	-0.184109	-0.517930
C68	C	2.006656	0.315891	-0.017930
C69	C	1.512640	-0.091443	-0.512037
C70	C	2.012640	0.408557	-0.012037
C71	C	1.428998	-0.348107	-0.974025
C72	C	1.928998	0.151893	-0.474025
C73	C	1.429024	-0.348081	-1.083748
C74	C	1.929024	0.151919	-0.583748
C75	C	1.556514	-0.454729	-1.090528
C76	C	2.056514	0.045271	-0.590528
C77	C	1.556482	-0.454758	-0.980808
C78	C	2.056482	0.045242	-0.480808
C79	C	1.492599	-0.401586	-0.258791
C80	C	1.992599	0.098414	0.241209
C81	C	1.492784	-0.401387	-0.142002
C82	C	1.992784	0.098613	0.357998
H83	H	0.887343	-0.498194	-0.415823
H84	H	1.387343	0.001806	0.084177
H85	H	1.580289	-0.886233	-0.444293
H86	H	2.080289	-0.386233	0.055707
F87	F	1.099269	-0.511488	-0.399807
F88	F	1.599269	-0.011488	0.100193
H89	H	1.377083	-0.304693	-0.926602
H90	H	1.877083	0.195307	-0.426602
H91	H	0.899891	-0.304964	-0.647726
H92	H	1.399891	0.195036	-0.147726
H93	H	1.098940	-0.304947	-0.647714
H94	H	1.598940	0.195053	-0.147714
H95	H	1.608424	-0.498136	-1.137968
H96	H	2.108424	0.001864	-0.637968
H97	H	1.405127	-0.916045	-0.619234
H98	H	1.905127	-0.416045	-0.119234
F99	F	1.361184	-0.291323	-1.138518
F100	F	1.861184	0.208677	-0.638518
F101	F	1.624310	-0.511532	-0.926031
F102	F	2.124310	-0.011532	-0.426031
