data_functionalizedCrystal
_audit_creation_method	'MofGen! by Chris Wilmer'
_symmetry_space_group_name_H-M	'P1'
_symmetry_Int_Tables_number	1
_symmetry_cell_setting	triclinic
loop_
_symmetry_equiv_pos_as_xyz
  x,y,z
_cell_length_a	18.050591
_cell_length_b	18.050588
_cell_length_c	19.805399
_cell_angle_alpha	89.974760
_cell_angle_beta	89.985740
_cell_angle_gamma	90.028402
loop_
_atom_site_label
_atom_site_type_symbol
_atom_site_fract_x
_atom_site_fract_y
_atom_site_fract_z
Zn1	Zn	1.135313	-0.295700	-0.382635
Zn2	Zn	1.468646	0.037634	-0.049301
Zn3	Zn	1.801979	0.370967	0.284032
Zn4	Zn	1.135213	-0.419892	-0.269451
Zn5	Zn	1.468546	-0.086559	0.063882
Zn6	Zn	1.801879	0.246775	0.397216
Zn7	Zn	1.011124	-0.295718	-0.269470
Zn8	Zn	1.344457	0.037616	0.063864
Zn9	Zn	1.677791	0.370949	0.397197
Zn10	Zn	1.011077	-0.419850	-0.382608
Zn11	Zn	1.344410	-0.086517	-0.049275
Zn12	Zn	1.677744	0.246817	0.284058
O13	O	1.073182	-0.357790	-0.326041
O14	O	1.406515	-0.024456	0.007292
O15	O	1.739848	0.308877	0.340626
O16	O	1.239224	-0.312184	-0.367624
O17	O	1.572557	0.021149	-0.034291
O18	O	1.905891	0.354483	0.299043
O19	O	1.118730	-0.403445	-0.174737
O20	O	1.452063	-0.070112	0.158596
O21	O	1.785396	0.263222	0.491930
O22	O	1.027659	-0.191791	-0.284500
O23	O	1.360993	0.141543	0.048833
O24	O	1.694326	0.474876	0.382166
O25	O	1.239150	-0.403428	-0.284468
O26	O	1.572484	-0.070094	0.048865
O27	O	1.905817	0.263239	0.382198
O28	O	1.118900	-0.191777	-0.367642
O29	O	1.452234	0.141556	-0.034309
O30	O	1.785567	0.474889	0.299025
O31	O	1.027562	-0.312215	-0.174751
O32	O	1.360896	0.021119	0.158583
O33	O	1.694229	0.354452	0.491916
O34	O	0.907193	-0.312174	-0.284475
O35	O	1.240526	0.021159	0.048859
O36	O	1.573860	0.354493	0.382192
O37	O	1.027580	-0.403356	-0.477328
O38	O	1.360913	-0.070023	-0.143995
O39	O	1.694246	0.263311	0.189338
O40	O	0.907159	-0.403373	-0.367597
O41	O	1.240492	-0.070040	-0.034264
O42	O	1.573825	0.263293	0.299070
O43	O	1.118855	-0.312143	-0.477348
O44	O	1.452188	0.021190	-0.144014
O45	O	1.785522	0.354523	0.189319
O46	O	1.118684	-0.523811	-0.284443
O47	O	1.452017	-0.190478	0.048891
O48	O	1.785351	0.142856	0.382224
O49	O	1.027482	-0.523780	-0.367579
O50	O	1.360816	-0.190447	-0.034246
O51	O	1.694149	0.142887	0.299088
C52	C	0.880229	-0.357772	-0.326035
C53	C	1.213563	-0.024438	0.007298
C54	C	1.546896	0.308895	0.340631
C55	C	0.797684	-0.357782	-0.326049
C56	C	1.131017	-0.024448	0.007284
C57	C	1.464350	0.308885	0.340618
C58	C	0.548861	-0.407479	-0.371189
C59	C	0.882194	-0.074145	-0.037856
C60	C	1.215528	0.259188	0.295477
C61	C	0.598226	-0.425554	-0.309410
C62	C	0.931559	-0.092221	0.023923
C63	C	1.264893	0.241112	0.357257
C64	C	0.500563	-0.357805	-0.326048
C65	C	0.833897	-0.024472	0.007285
C66	C	1.167230	0.308862	0.340619
C67	C	0.598280	-0.339753	-0.387824
C68	C	0.931613	-0.006419	-0.054491
C69	C	1.264946	0.326914	0.278842
C70	C	0.646548	-0.357795	-0.326052
C71	C	0.979882	-0.024462	0.007282
C72	C	1.313215	0.308871	0.340615
C73	C	0.548841	-0.375916	-0.264236
C74	C	0.882174	-0.042583	0.069098
C75	C	1.215508	0.290751	0.402431
C76	C	0.548891	-0.290083	-0.342692
C77	C	0.882224	0.043250	-0.009358
C78	C	1.215557	0.376584	0.323975
C79	C	0.598233	-0.308133	-0.280870
C80	C	0.931567	0.025200	0.052464
C81	C	1.264900	0.358534	0.385797
C82	C	0.416465	-0.357813	-0.326047
C83	C	0.749798	-0.024479	0.007287
C84	C	1.083132	0.308854	0.340620
C85	C	0.730645	-0.357788	-0.326046
C86	C	1.063978	-0.024455	0.007287
C87	C	1.397312	0.308879	0.340621
C88	C	1.073087	-0.550742	-0.326021
C89	C	1.406421	-0.217409	0.007313
C90	C	1.739754	0.115925	0.340646
C91	C	1.073115	-0.633288	-0.326035
C92	C	1.406448	-0.299954	0.007299
C93	C	1.739782	0.033379	0.340632
C94	C	1.023598	-0.882123	-0.371244
C95	C	1.356931	-0.548790	-0.037911
C96	C	1.690264	-0.215457	0.295422
C97	C	1.091315	-0.832655	-0.387849
C98	C	1.424649	-0.499322	-0.054516
C99	C	1.757982	-0.165988	0.278817
C100	C	1.073269	-0.930408	-0.326072
C101	C	1.406603	-0.597075	0.007261
C102	C	1.739936	-0.263741	0.340594
C103	C	1.005479	-0.832795	-0.309481
C104	C	1.338813	-0.499462	0.023853
C105	C	1.672146	-0.166128	0.357186
C106	C	1.073190	-0.784423	-0.326055
C107	C	1.406523	-0.451090	0.007278
C108	C	1.739857	-0.117756	0.340611
C109	C	1.141023	-0.882027	-0.342709
C110	C	1.474356	-0.548693	-0.009376
C111	C	1.807690	-0.215360	0.323957
C112	C	1.055142	-0.882171	-0.264312
C113	C	1.388475	-0.548838	0.069021
C114	C	1.721808	-0.215504	0.402355
C115	C	1.122906	-0.832725	-0.280893
C116	C	1.456239	-0.499391	0.052440
C117	C	1.789573	-0.166058	0.385773
C118	C	1.073314	-1.014506	-0.326084
C119	C	1.406647	-0.681173	0.007250
C120	C	1.739981	-0.347840	0.340583
C121	C	1.073153	-0.700326	-0.326044
C122	C	1.406486	-0.366993	0.007289
C123	C	1.739820	-0.033660	0.340623
C124	C	1.266887	-0.357809	-0.326047
C125	C	1.600220	-0.024475	0.007286
C126	C	1.933554	0.308858	0.340620
C127	C	1.349433	-0.357816	-0.326049
C128	C	1.682766	-0.024483	0.007284
C129	C	2.016100	0.308850	0.340617
C130	C	1.073223	-0.357743	-0.502584
C131	C	1.406557	-0.024410	-0.169250
C132	C	1.739890	0.308924	0.164083
C133	C	1.073241	-0.357723	-0.577816
C134	C	1.406574	-0.024390	-0.244482
C135	C	1.739908	0.308944	0.088851
C136	C	1.073296	-0.164084	-0.326076
C137	C	1.406630	0.169249	0.007257
C138	C	1.739963	0.502583	0.340591
C139	C	1.073345	-0.081538	-0.326091
C140	C	1.406679	0.251795	0.007242
C141	C	1.740012	0.585128	0.340576
C142	C	1.120769	-0.310226	-0.613171
C143	C	1.454103	0.023107	-0.279838
C144	C	1.787436	0.356440	0.053496
C145	C	1.120777	-0.310205	-0.683860
C146	C	1.454110	0.023129	-0.350526
C147	C	1.787443	0.356462	-0.017193
C148	C	1.073259	-0.357684	-0.719191
C149	C	1.406593	-0.024351	-0.385858
C150	C	1.739926	0.308982	-0.052525
C151	C	1.025726	-0.405183	-0.683831
C152	C	1.359059	-0.071850	-0.350498
C153	C	1.692393	0.261484	-0.017164
C154	C	1.025715	-0.405200	-0.613144
C155	C	1.359049	-0.071867	-0.279811
C156	C	1.692382	0.261466	0.053523
C157	C	1.025768	-0.405114	-0.968905
C158	C	1.359101	-0.071781	-0.635571
C159	C	1.692435	0.261553	-0.302238
C160	C	1.025784	-0.405095	-1.039597
C161	C	1.359117	-0.071761	-0.706263
C162	C	1.692451	0.261572	-0.372930
C163	C	1.120830	-0.310118	-1.039620
C164	C	1.454163	0.023215	-0.706287
C165	C	1.787496	0.356548	-0.372954
C166	C	1.120819	-0.310136	-0.968933
C167	C	1.454152	0.023198	-0.635600
C168	C	1.787485	0.356531	-0.302266
C169	C	1.073283	-0.357631	-0.933579
C170	C	1.406616	-0.024298	-0.600246
C171	C	1.739950	0.309035	-0.266912
C172	C	1.073274	-0.357653	-0.856930
C173	C	1.406608	-0.024320	-0.523597
C174	C	1.739941	0.309014	-0.190264
C175	C	1.073271	-0.357667	-0.795839
C176	C	1.406605	-0.024333	-0.462505
C177	C	1.739938	0.309000	-0.129172
C178	C	1.073183	-0.357783	-0.150185
C179	C	1.406516	-0.024449	0.183148
C180	C	1.739849	0.308884	0.516482
C181	C	1.073309	-0.357593	-0.074953
C182	C	1.406642	-0.024260	0.258380
C183	C	1.739976	0.309073	0.591713
H184	H	0.527203	-0.232832	-0.356790
H185	H	0.860536	0.100501	-0.023457
H186	H	1.193869	0.433835	0.309876
H187	H	1.198335	-0.903564	-0.356796
H188	H	1.531669	-0.570230	-0.023462
H189	H	1.865002	-0.236897	0.309871
F190	F	0.626666	-0.319800	-0.456107
F191	F	0.959999	0.013533	-0.122774
F192	F	1.293332	0.346867	0.210559
F193	F	1.111320	-0.804228	-0.456107
F194	F	1.444653	-0.470895	-0.122773
F195	F	1.777986	-0.137562	0.210560
F196	F	1.177827	-0.804551	-0.230953
F197	F	1.511161	-0.471218	0.102380
F198	F	1.844494	-0.137884	0.435714
H199	H	0.948184	-0.811165	-0.295455
H200	H	1.281517	-0.477832	0.037878
H201	H	1.614850	-0.144499	0.371211
H202	H	0.981677	-0.903811	-0.409481
H203	H	1.315011	-0.570478	-0.076148
H204	H	1.648344	-0.237144	0.257185
H205	H	0.987034	-0.443839	-0.712604
H206	H	1.320367	-0.110506	-0.379271
H207	H	1.653701	0.222828	-0.045937
F208	F	1.035113	-0.910621	-0.196073
F209	F	1.368447	-0.577288	0.137260
F210	F	1.701780	-0.243954	0.470594
H211	H	1.159466	-0.271565	-0.584409
H212	H	1.492799	0.061768	-0.251076
H213	H	1.826132	0.395101	0.082258
H214	H	1.159481	-0.271530	-0.712643
H215	H	1.492814	0.061803	-0.379309
H216	H	1.826147	0.395137	-0.045976
F217	F	1.171396	-0.259604	-0.931334
F218	F	1.504729	0.073729	-0.598001
F219	F	1.838062	0.407063	-0.264667
F220	F	0.520524	-0.462430	-0.421022
F221	F	0.853857	-0.129097	-0.087689
F222	F	1.187190	0.204237	0.245644
F223	F	0.975206	-0.455631	-1.077198
F224	F	1.308540	-0.122298	-0.743865
F225	F	1.641873	0.211036	-0.410531
H226	H	1.159533	-0.271442	-1.068414
H227	H	1.492866	0.061891	-0.735081
H228	H	1.826200	0.395224	-0.401747
F229	F	0.626556	-0.500405	-0.291006
F230	F	0.959889	-0.167072	0.042328
F231	F	1.293222	0.166261	0.375661
H232	H	0.987072	-0.443799	-0.940128
H233	H	1.320406	-0.110465	-0.606794
H234	H	1.653739	0.222868	-0.273461
H235	H	0.527217	-0.391250	-0.211979
H236	H	0.860550	-0.057917	0.121354
H237	H	1.193883	0.275417	0.454687
F238	F	0.626385	-0.253215	-0.230920
F239	F	0.959718	0.080118	0.102413
F240	F	1.293052	0.413451	0.435747
H241	H	0.987005	-0.443870	-0.584359
H242	H	1.320339	-0.110536	-0.251025
H243	H	1.653672	0.222797	0.082308
