data_functionalizedCrystal
_audit_creation_method	'MofGen! by Chris Wilmer'
_symmetry_space_group_name_H-M	'P1'
_symmetry_Int_Tables_number	1
_symmetry_cell_setting	triclinic
loop_
_symmetry_equiv_pos_as_xyz
  x,y,z
_cell_length_a	13.339070
_cell_length_b	14.519709
_cell_length_c	11.804365
_cell_angle_alpha	101.851959
_cell_angle_beta	74.875130
_cell_angle_gamma	99.654719
loop_
_atom_site_label
_atom_site_type_symbol
_atom_site_fract_x
_atom_site_fract_y
_atom_site_fract_z
O1	O	1.363544	0.449147	-0.099080
O2	O	1.068905	0.388436	-0.099072
O3	O	1.224034	0.286542	-0.099066
O4	O	1.208414	0.551041	-0.099087
O5	O	1.183194	0.313329	0.098989
O6	O	1.028065	0.415223	0.098982
O7	O	1.322704	0.475934	0.098974
Cu8	Cu	1.171656	0.448024	0.117062
Cu9	Cu	1.219953	0.416345	-0.117160
O10	O	1.167575	0.577828	0.098968
C11	C	1.010777	0.391574	-0.000044
C12	C	0.898419	0.361005	-0.000040
C13	C	1.202886	0.265390	-0.000038
C14	C	1.200704	0.162454	-0.000038
C15	C	0.534064	0.598691	-0.000078
C16	C	0.639630	0.627415	-0.000085
C17	C	0.704332	0.560815	-0.000073
C18	C	0.663459	0.465486	-0.000055
C19	C	0.557884	0.436759	-0.000058
C20	C	0.728152	0.398882	-0.000053
C21	C	0.687279	0.303554	-0.000035
C22	C	0.581714	0.274831	-0.000037
C23	C	0.517012	0.341431	-0.000048
C24	C	0.833727	0.427610	-0.000051
C25	C	0.857547	0.265677	-0.000031
C26	C	0.751981	0.236954	-0.000024
C27	C	1.192677	-0.214489	-0.000068
C28	C	1.194906	-0.109613	-0.000059
C29	C	1.196690	-0.026021	-0.000052
C30	C	1.198920	0.078862	-0.000045
C31	C	1.380832	0.472796	-0.000057
C32	C	1.493192	0.503364	-0.000068
C33	C	1.188723	0.598979	-0.000062
C34	C	1.190907	0.701915	-0.000071
N35	N	1.137693	0.470307	0.281801
N36	N	1.253924	0.394058	-0.281899
C37	C	1.335480	0.340531	0.655758
C38	C	1.361172	0.323670	0.531097
C39	C	1.305304	0.360328	0.468767
C40	C	1.223741	0.413850	0.531110
C41	C	1.198052	0.430719	0.655783
C42	C	1.167876	0.450515	0.468792
C43	C	1.086313	0.504037	0.531135
C44	C	1.060628	0.520903	0.655795
C45	C	1.116496	0.484245	0.718126
C46	C	1.193565	0.433646	0.344119
C47	C	1.056137	0.523834	0.344144
C48	C	1.030445	0.540695	0.468805
H49	H	0.790289	0.584207	-0.000082
O50	O	0.712278	0.144371	0.000194
C51	C	0.724187	0.115998	0.102757
H52	H	0.731456	0.180963	0.174448
H53	H	0.653060	0.065041	0.137189
H54	H	0.797673	0.079046	0.079571
O55	O	0.471300	0.663382	-0.000306
C56	C	0.511019	0.705796	-0.102872
H57	H	0.561805	0.656625	-0.174554
H58	H	0.443291	0.718963	-0.137316
H59	H	0.560078	0.776095	-0.079686
O60	O	1.272664	0.381486	0.283662
C61	C	1.249733	0.290085	0.314228
H62	H	1.161632	0.273527	0.348489
H63	H	1.278190	0.235639	0.232285
H64	H	1.290833	0.287178	0.386621
H65	H	0.431050	0.318049	-0.000042
H66	H	1.427580	0.280094	0.480342
H67	H	1.095575	0.497970	0.819635
H68	H	0.910229	0.211445	-0.000026
H69	H	1.010646	0.553686	0.293396
H70	H	0.866995	0.505227	-0.000061
H71	H	1.380966	0.310695	0.706515
H72	H	0.964035	0.584274	0.519580
O73	O	0.679417	0.719969	-0.000332
C74	C	0.760930	0.727536	-0.102905
H75	H	0.750659	0.663220	-0.174570
H76	H	0.758679	0.794797	-0.137370
H77	H	0.839363	0.730711	-0.079719
O78	O	0.542008	0.182211	-0.000242
C79	C	0.502790	0.146884	-0.102804
H80	H	0.542630	0.191791	-0.174500
H81	H	0.519233	0.070293	-0.137230
H82	H	0.414798	0.149999	-0.079620
O83	O	1.330359	0.343821	0.347673
C84	C	1.414342	0.288740	0.306013
H85	H	1.417103	0.248030	0.377859
H86	H	1.402957	0.236526	0.222624
H87	H	1.490877	0.337122	0.283865
O88	O	0.981276	0.572766	0.716301
C89	C	0.887344	0.527972	0.685844
H90	H	0.893779	0.449338	0.651585
H91	H	0.819676	0.536656	0.767840
H92	H	0.872618	0.561697	0.613480
