data_functionalizedCrystal
_audit_creation_method	'MofGen! by Chris Wilmer'
_symmetry_space_group_name_H-M	'P1'
_symmetry_Int_Tables_number	1
_symmetry_cell_setting	triclinic
loop_
_symmetry_equiv_pos_as_xyz
  x,y,z
_cell_length_a	19.288864
_cell_length_b	9.065218
_cell_length_c	18.366186
_cell_angle_alpha	89.995673
_cell_angle_beta	89.977106
_cell_angle_gamma	84.076066
loop_
_atom_site_label
_atom_site_type_symbol
_atom_site_fract_x
_atom_site_fract_y
_atom_site_fract_z
O1	O	0.922782	0.184031	-0.060781
O2	O	0.720714	0.208857	-0.060731
O3	O	0.825924	-0.018345	-0.060755
O4	O	0.817571	0.411233	-0.060756
O5	O	0.825906	-0.018356	0.060344
O6	O	0.720696	0.208846	0.060369
O7	O	0.922763	0.184020	0.060319
Zn8	Zn	0.821727	0.196431	0.079571
Zn9	Zn	0.821751	0.196446	-0.079983
O10	O	0.817553	0.411222	0.060343
C11	C	0.694822	0.208053	-0.000174
C12	C	0.617700	0.205655	-0.000155
C13	C	0.574039	0.338966	-0.000167
C14	C	0.501574	0.336713	-0.000175
C15	C	0.472774	0.201142	-0.000186
C16	C	0.516445	0.067812	-0.000170
C17	C	0.588908	0.070069	-0.000155
C18	C	0.363691	0.094571	-0.042637
C19	C	0.291229	0.092320	-0.042657
C20	C	0.249274	0.194176	-0.000230
C21	C	0.279789	0.298308	0.042207
C22	C	0.352252	0.300565	0.042222
C23	C	0.394201	0.198680	-0.000202
C24	C	0.127038	0.325054	-0.000250
C25	C	0.054572	0.322796	-0.000253
C26	C	0.069445	0.053891	-0.000256
C27	C	0.141909	0.056153	-0.000245
C28	C	0.170701	0.191739	-0.000245
C29	C	0.825112	-0.073309	-0.000206
C30	C	0.822712	-0.237067	-0.000209
C31	C	0.948655	0.184825	-0.000239
C32	C	1.025777	0.187223	-0.000263
C33	C	0.818365	0.466186	-0.000207
C34	C	0.820765	0.629945	-0.000209
N35	N	0.821715	0.196420	0.188462
N36	N	0.821767	0.196445	-0.188874
C37	C	0.868318	0.095865	0.226552
C38	C	0.868323	0.095858	0.302779
C39	C	0.821731	0.196433	0.340915
C40	C	0.775119	0.296996	0.302816
C41	C	0.775111	0.296990	0.226590
C42	C	0.813476	0.330848	0.461676
C43	C	0.813489	0.330856	0.537901
C44	C	0.821751	0.196451	0.576022
C45	C	0.830015	0.062032	0.537909
C46	C	0.830007	0.062026	0.461683
C47	C	0.821734	0.196450	0.423570
C48	C	0.868361	0.095880	0.696767
C49	C	0.868361	0.095871	0.772996
C50	C	0.775160	0.297022	0.773031
C51	C	0.775157	0.297018	0.696803
C52	C	0.821761	0.196448	0.658676
H53	H	0.177459	-0.052404	-0.000239
H54	H	0.266389	0.007535	-0.077214
C55	C	0.735975	0.552636	0.796500
C56	C	0.723943	0.407576	0.814940
H57	H	0.704350	0.620884	0.822372
H58	H	0.782422	0.568400	0.808972
H59	H	0.729301	0.567008	0.745649
H60	H	0.730622	0.393201	0.865790
H61	H	0.677484	0.391806	0.802472
H62	H	0.906308	0.013979	0.804009
H63	H	0.245631	0.381248	0.076755
H64	H	0.737211	0.378905	0.665789
H65	H	0.737182	0.378883	0.333870
C66	C	0.735927	0.552599	0.203128
C67	C	0.723887	0.407540	0.184717
H68	H	0.704306	0.620848	0.177272
H69	H	0.729258	0.566982	0.253976
H70	H	0.782381	0.568350	0.190609
H71	H	0.677434	0.391785	0.197240
H72	H	0.730550	0.393150	0.133857
H73	H	0.906307	0.013986	0.665722
C74	C	0.797138	0.596575	0.530236
C75	C	0.804405	0.478606	0.579791
H76	H	0.791526	0.687790	0.556098
H77	H	0.837554	0.593376	0.500484
H78	H	0.757398	0.588577	0.500527
H79	H	0.844149	0.486598	0.609497
H80	H	0.763985	0.481808	0.609556
H81	H	0.597476	0.449370	-0.000169
C82	C	0.494144	0.602741	-0.000198
C83	C	0.453570	0.483259	-0.000198
H84	H	0.464509	0.693209	-0.000218
H85	H	0.522687	0.598046	0.042039
H86	H	0.522747	0.598008	-0.042422
H87	H	0.424970	0.487986	0.042029
H88	H	0.425016	0.487956	-0.042439
C89	C	0.105062	0.590626	-0.000240
C90	C	0.158692	0.474085	-0.000239
H91	H	0.124604	0.682629	-0.000229
H92	H	0.077131	0.584163	-0.042472
H93	H	0.077085	0.584133	0.041988
H94	H	0.186666	0.480571	-0.042470
H95	H	0.186634	0.480551	0.041998
H96	H	0.806736	0.440305	0.430644
C97	C	0.596328	-0.195955	-0.000161
C98	C	0.636905	-0.076478	-0.000151
H99	H	0.625962	-0.286426	-0.000164
H100	H	0.567737	-0.191252	0.042063
H101	H	0.567774	-0.191227	-0.042397
H102	H	0.665456	-0.081200	0.042089
H103	H	0.665508	-0.081184	-0.042379
C104	C	0.369300	0.395307	0.162252
C105	C	0.385796	0.415004	0.088875
H106	H	0.390013	0.465949	0.191054
H107	H	0.320146	0.408554	0.168310
H108	H	0.386565	0.298062	0.177157
H109	H	0.368526	0.512245	0.073968
H110	H	0.434960	0.401769	0.082813
C111	C	0.846369	-0.203698	0.530251
C112	C	0.839110	-0.085723	0.579801
H113	H	0.851994	-0.294909	0.556117
H114	H	0.805945	-0.200512	0.500546
H115	H	0.886099	-0.195692	0.500495
H116	H	0.799377	-0.093722	0.609554
H117	H	0.879539	-0.088911	0.609518
C118	C	-0.035511	0.476245	-0.062526
C119	C	0.006576	0.469344	-0.000268
H120	H	-0.065144	0.566716	-0.062532
H121	H	-0.006910	0.471535	-0.104743
H122	H	-0.063029	0.395174	-0.062519
H123	H	0.034098	0.550409	-0.000278
H124	H	-0.022028	0.474068	0.041960
C125	C	-0.003374	-0.104643	-0.062532
C126	C	0.037800	-0.095139	-0.000270
H127	H	-0.022908	-0.196656	-0.062540
H128	H	-0.039749	-0.025582	-0.062531
H129	H	0.024616	-0.098163	-0.104751
H130	H	0.009808	-0.101608	0.041949
H131	H	0.074179	-0.174222	-0.000264
C132	C	0.367718	-0.109239	-0.126545
C133	C	0.409803	-0.017386	-0.089285
H134	H	0.396186	-0.178344	-0.155347
H135	H	0.342262	-0.161136	-0.092441
H136	H	0.336172	-0.050528	-0.157128
H137	H	0.441346	-0.076097	-0.058698
H138	H	0.435271	0.034514	-0.123394
C139	C	0.960442	-0.102964	0.234179
C140	C	0.919538	-0.014695	0.184643
H141	H	0.992058	-0.171225	0.208304
H142	H	0.985812	-0.041685	0.263889
H143	H	0.931194	-0.155863	0.263933
H144	H	0.948785	0.038212	0.154892
H145	H	0.894166	-0.075982	0.154921
H146	H	0.492991	-0.042571	-0.000189
H147	H	0.906274	0.013971	0.333798
H148	H	0.836734	-0.047423	0.430654
