data_functionalizedCrystal
_audit_creation_method	'MofGen! by Chris Wilmer'
_symmetry_space_group_name_H-M	'P1'
_symmetry_Int_Tables_number	1
_symmetry_cell_setting	triclinic
loop_
_symmetry_equiv_pos_as_xyz
  x,y,z
_cell_length_a	18.101398
_cell_length_b	12.594516
_cell_length_c	18.101389
_cell_angle_alpha	90.013388
_cell_angle_beta	90.009745
_cell_angle_gamma	90.013729
loop_
_atom_site_label
_atom_site_type_symbol
_atom_site_fract_x
_atom_site_fract_y
_atom_site_fract_z
Zn1	Zn	1.132187	-0.423980	0.418576
Zn2	Zn	1.132111	-0.601948	0.294746
Zn3	Zn	1.008346	-0.423970	0.294769
Zn4	Zn	1.008325	-0.601903	0.418566
O5	O	1.070243	-0.512950	0.356664
O6	O	1.235810	-0.447611	0.402145
O7	O	1.115671	-0.578353	0.191116
O8	O	1.024815	-0.275025	0.311207
O9	O	1.235754	-0.578363	0.311167
O10	O	1.115800	-0.275033	0.402167
O11	O	1.024741	-0.447593	0.191133
O12	O	0.904711	-0.447550	0.311196
O13	O	1.024779	-0.578287	0.522200
O14	O	0.904695	-0.578277	0.402149
O15	O	1.115780	-0.447567	0.522208
O16	O	1.115650	-0.750888	0.311157
O17	O	1.024705	-0.750855	0.402127
C18	C	0.877832	-0.512908	0.356675
C19	C	0.795518	-0.512916	0.356697
C20	C	0.496427	-0.512979	0.356666
C21	C	0.527767	-0.595626	0.413608
C22	C	0.613385	-0.595367	0.413842
C23	C	0.644810	-0.512949	0.356681
C24	C	0.613737	-0.400846	0.378002
C25	C	0.528092	-0.401342	0.378407
C26	C	0.527979	-0.541446	0.278265
C27	C	0.613629	-0.543906	0.278684
C28	C	0.728669	-0.512925	0.356689
C29	C	0.412567	-0.512995	0.356660
C30	C	1.070187	-0.789491	0.356654
C31	C	1.070231	-0.907797	0.356675
C32	C	1.020806	-1.047834	0.406128
C33	C	1.088320	-0.976937	0.424287
C34	C	1.002724	-0.977122	0.338549
C35	C	1.137901	-1.047684	0.374896
C36	C	1.052260	-1.047877	0.289127
C37	C	1.119820	-0.977011	0.307259
C38	C	1.263404	-0.512993	0.356654
C39	C	1.345719	-0.513011	0.356650
C40	C	1.070285	-0.512923	0.549826
C41	C	1.070304	-0.512912	0.632140
C42	C	1.070319	-0.235329	0.356691
C43	C	1.070351	-0.117024	0.356702
C44	C	1.070243	-0.512900	0.164254
C45	C	1.070368	-0.512612	0.081940
C46	C	1.070347	-0.512712	0.931232
C47	C	1.012894	-0.594696	0.899902
C48	C	1.013049	-0.595076	0.814283
C49	C	1.070325	-0.512811	0.782849
C50	C	1.148355	-0.543267	0.813937
C51	C	1.148035	-0.543805	0.899582
C52	C	1.050448	-0.400091	0.899654
C53	C	1.048712	-0.400742	0.814004
C54	C	1.070317	-0.512865	0.698989
C55	C	1.070360	-0.512661	1.015091
H56	H	0.507361	-0.337558	0.338834
F57	F	1.212612	-1.088027	0.395035
F58	F	0.501995	-0.369782	0.453321
H59	H	1.192312	-0.485430	0.793576
H60	H	0.945583	-0.946121	0.323207
H61	H	0.634092	-0.337599	0.337821
F62	F	0.641786	-0.368710	0.452102
F63	F	0.973651	-0.370725	0.787454
H64	H	0.506254	-0.577032	0.471363
H65	H	1.026188	-0.678554	0.793803
F66	F	0.640183	-0.570749	0.489771
F67	F	1.174579	-0.936619	0.252611
H68	H	1.103575	-0.945778	0.481422
F69	F	1.099420	-0.316662	0.786044
F70	F	0.977366	-0.363826	0.927882
H71	H	1.036984	-1.079059	0.232008
H72	H	0.979010	-1.078927	0.447970
F73	F	1.105143	-0.320252	0.926136
F74	F	0.640173	-0.651736	0.257669
F75	F	0.640847	-0.704034	0.396402
F76	F	0.501486	-0.462764	0.222808
H77	H	0.954858	-0.575832	0.920501
F78	F	0.500835	-0.704641	0.396344
F79	F	0.937421	-0.570159	0.786808
F80	F	1.029862	-0.703131	0.928082
F81	F	0.499735	-0.646456	0.252931
F82	F	1.170080	-0.651413	0.925705
F83	F	1.205852	-0.469097	0.926674
H84	H	0.635021	-0.488079	0.233979
F85	F	1.170785	-0.649731	0.785913
