data_functionalizedCrystal
_audit_creation_method	'MofGen! by Chris Wilmer'
_symmetry_space_group_name_H-M	'P1'
_symmetry_Int_Tables_number	1
_symmetry_cell_setting	triclinic
loop_
_symmetry_equiv_pos_as_xyz
  x,y,z
_cell_length_a	12.759395
_cell_length_b	12.759394
_cell_length_c	21.395355
_cell_angle_alpha	89.985423
_cell_angle_beta	89.978919
_cell_angle_gamma	90.014682
loop_
_atom_site_label
_atom_site_type_symbol
_atom_site_fract_x
_atom_site_fract_y
_atom_site_fract_z
Zn1	Zn	1.606285	-0.418393	-0.354221
Zn2	Zn	1.606170	-0.594057	-0.249450
Zn3	Zn	1.430578	-0.418392	-0.249464
Zn4	Zn	1.430575	-0.594030	-0.354197
O5	O	1.518402	-0.506218	-0.301833
O6	O	1.753291	-0.441706	-0.340327
O7	O	1.582830	-0.570766	-0.161774
O8	O	1.453935	-0.271371	-0.263375
O9	O	1.753206	-0.570767	-0.263353
O10	O	1.583026	-0.271371	-0.340340
O11	O	1.453824	-0.441706	-0.161784
O12	O	1.283556	-0.441679	-0.263352
O13	O	1.453930	-0.570720	-0.441878
O14	O	1.283554	-0.570719	-0.340299
O15	O	1.583023	-0.441680	-0.441895
O16	O	1.582827	-0.741075	-0.263330
O17	O	1.453819	-0.741054	-0.340286
C18	C	1.245434	-0.506197	-0.301825
C19	C	1.128658	-0.506213	-0.301837
C20	C	1.128726	-0.372041	-0.382119
C21	C	1.073900	-0.304967	-0.422266
C22	C	0.964178	-0.304985	-0.422274
C23	C	0.909280	-0.372083	-0.382129
C24	C	0.964107	-0.439157	-0.341983
C25	C	1.073831	-0.439133	-0.341981
C26	C	0.964038	-0.573323	-0.261698
C27	C	1.073760	-0.573311	-0.261692
C28	C	0.909141	-0.640420	-0.221554
C29	C	0.963967	-0.707501	-0.181409
C30	C	1.073696	-0.707480	-0.181404
C31	C	1.128587	-0.640384	-0.221546
C32	C	1.518339	-0.779185	-0.301818
C33	C	1.518408	-0.895962	-0.301832
C34	C	1.652846	-0.895930	-0.221757
C35	C	1.720092	-0.950774	-0.181727
C36	C	1.720154	-1.060496	-0.181744
C37	C	1.652964	-1.115375	-0.221797
C38	C	1.585718	-1.060531	-0.261827
C39	C	1.585661	-0.950807	-0.261804
C40	C	1.451287	-1.060563	-0.341904
C41	C	1.451218	-0.950842	-0.341885
C42	C	1.384097	-1.115443	-0.381957
C43	C	1.316844	-1.060598	-0.421985
C44	C	1.316784	-0.950870	-0.421966
C45	C	1.383972	-0.895997	-0.381915
C46	C	1.792435	-0.506240	-0.301841
C47	C	1.909212	-0.506249	-0.301844
C48	C	1.518489	-0.506197	-0.465256
C49	C	1.518526	-0.506188	-0.534897
C50	C	1.518494	-0.232184	-0.301862
C51	C	1.518533	-0.115408	-0.301874
C52	C	1.585742	-0.438994	-0.567621
C53	C	1.585741	-0.438949	-0.633056
C54	C	1.518534	-0.506116	-0.665766
C55	C	1.451305	-0.573315	-0.633035
C56	C	1.451301	-0.573350	-0.567601
C57	C	1.510217	-0.600715	-0.769436
C58	C	1.510228	-0.600681	-0.834869
C59	C	1.518541	-0.506005	-0.867587
C60	C	1.526864	-0.411360	-0.834864
C61	C	1.526860	-0.411396	-0.769430
C62	C	1.518531	-0.506084	-0.736718
C63	C	1.585759	-0.438756	-0.971262
C64	C	1.585750	-0.438710	-1.036699
C65	C	1.451320	-0.573085	-1.036676
C66	C	1.451323	-0.573122	-0.971241
C67	C	1.518548	-0.505960	-0.938538
C68	C	1.518375	-0.506163	-0.139045
C69	C	1.518542	-0.505876	-0.069404
H70	H	1.218067	-0.372014	-0.382114
C71	C	1.384164	-1.236139	-0.381973
N72	N	1.384210	-1.327050	-0.381984
H73	H	1.217928	-0.640356	-0.221542
C74	C	1.133996	-0.781267	-0.137238
N75	N	1.179410	-0.836847	-0.103972
H76	H	1.652789	-0.806589	-0.221731
C77	C	1.242942	-1.120972	-0.466037
N78	N	1.187274	-1.166450	-0.499216
H79	H	1.396561	-0.628066	-0.540958
H80	H	0.819939	-0.372084	-0.382134
H81	H	1.118609	-0.250336	-0.454949
C82	C	1.501072	-0.704791	-0.870857
N83	N	1.494172	-0.783210	-0.897963
C84	C	1.794127	-1.120827	-0.137709
N85	N	1.849842	-1.166268	-0.104541
C86	C	1.793994	-0.890399	-0.137669
N87	N	1.849657	-0.844927	-0.104485
H88	H	0.919261	-0.762121	-0.148725
H89	H	1.653029	-1.204717	-0.221812
H90	H	0.919538	-0.250362	-0.454961
H91	H	1.262028	-0.906221	-0.454566
H92	H	0.819800	-0.640427	-0.221561
H93	H	1.383923	-0.806656	-0.381892
H94	H	1.533634	-0.334333	-0.742789
C95	C	1.659678	-0.365098	-0.531651
N96	N	1.715362	-0.309435	-0.504558
H97	H	1.640474	-0.384226	-0.659705
C98	C	1.536006	-0.307207	-0.870849
N99	N	1.542893	-0.228763	-0.897955
H100	H	1.640492	-0.384063	-0.944634
H101	H	1.396582	-0.627999	-0.659671
C102	C	1.659695	-0.364785	-1.072695
N103	N	1.715393	-0.309104	-1.099807
H104	H	1.396589	-0.627763	-1.063308
H105	H	1.396595	-0.627845	-0.944598
H106	H	1.503167	-0.677792	-0.742802
