data_functionalizedCrystal
_audit_creation_method	'MofGen! by Chris Wilmer'
_symmetry_space_group_name_H-M	'P1'
_symmetry_Int_Tables_number	1
_symmetry_cell_setting	triclinic
loop_
_symmetry_equiv_pos_as_xyz
  x,y,z
_cell_length_a	31.640172
_cell_length_b	17.052862
_cell_length_c	17.052862
_cell_angle_alpha	61.493325
_cell_angle_beta	90.004527
_cell_angle_gamma	70.263359
loop_
_atom_site_label
_atom_site_type_symbol
_atom_site_fract_x
_atom_site_fract_y
_atom_site_fract_z
Zr1	Zr	0.489848	0.816604	-0.200346
O2	O	0.443172	0.944506	-0.328485
O3	O	0.493880	0.665882	-0.146154
O4	O	0.516528	0.783681	-0.306961
O5	O	0.414348	0.860635	-0.057791
O6	O	0.586083	0.783670	-0.306944
O7	O	0.420524	0.826707	-0.167677
O8	O	0.545569	0.572948	-0.019289
O9	O	0.454862	1.071356	-0.345446
O10	O	0.559923	0.736319	-0.141044
O11	O	0.503407	0.761648	-0.059049
O12	O	0.530072	0.900341	-0.248379
O13	O	0.473556	0.925670	-0.166385
Zr14	Zr	0.590931	0.870697	-0.025063
Zr15	Zr	0.600780	0.816586	-0.200319
Zr16	Zr	0.479999	0.870715	-0.025090
Zr17	Zr	0.508492	1.018915	-0.227397
Zr18	Zr	0.572287	0.668386	0.001988
O19	O	0.586899	1.021419	-0.079255
O20	O	0.600903	0.944480	-0.328447
O21	O	0.429168	1.021445	-0.079293
O22	O	0.637607	0.742795	0.103076
O23	O	0.651611	0.665856	-0.146116
O24	O	0.479876	0.742821	0.103038
O25	O	0.666430	0.826666	-0.167618
O26	O	0.564251	0.903620	0.081552
O27	O	0.494696	0.903631	0.081535
O28	O	0.660255	0.860594	-0.057732
O29	O	0.543038	1.071342	-0.345425
O30	O	0.537741	0.615959	0.120016
O31	O	0.625917	0.615945	0.120037
O32	O	0.633745	0.572934	-0.019268
O33	O	0.447033	1.114367	-0.206141
O34	O	0.535209	1.114353	-0.206120
O35	O	0.550706	0.786959	0.022970
O36	O	0.607223	0.761631	-0.059024
O37	O	0.577372	0.925653	-0.166360
O38	O	0.520855	0.950981	-0.084365
C39	C	0.517068	0.590590	-0.078867
C40	C	0.509153	0.504704	-0.067383
C41	C	0.604846	0.209724	-0.206225
C42	C	0.612281	0.290421	-0.217021
C43	C	0.586500	0.343995	-0.179612
C44	C	0.553282	0.316865	-0.131406
C45	C	0.545843	0.236164	-0.120615
C46	C	0.527497	0.370436	-0.094003
C47	C	0.494278	0.343305	-0.045797
C48	C	0.486841	0.262612	-0.035007
C49	C	0.512622	0.209038	-0.072416
C50	C	0.534936	0.451137	-0.104794
C51	C	0.475933	0.477577	-0.019184
C52	C	0.468497	0.396880	-0.008388
C53	C	0.401631	0.843673	-0.112738
C54	C	0.354537	0.843681	-0.112749
C55	C	0.078105	0.758027	-0.056659
C56	C	-0.098883	0.758014	-0.056640
O57	O	-0.108518	0.685207	-0.008960
N58	N	-0.136594	0.843630	-0.112669
C59	C	-0.130058	0.929258	-0.168702
O60	O	-0.166195	1.002082	-0.216351
C61	C	0.046929	0.929272	-0.168715
C62	C	0.084640	0.843648	-0.112690
C63	C	0.115815	0.672410	-0.000636
C64	C	0.160059	0.672413	-0.000645
C65	C	0.166594	0.758034	-0.056676
C66	C	0.128884	0.843651	-0.112698
C67	C	0.053465	1.014900	-0.224743
C68	C	0.097716	1.014897	-0.224740
C69	C	0.135426	0.929273	-0.168714
C70	C	0.179663	0.929275	-0.168738
N71	N	0.217375	0.843658	-0.112709
C72	C	0.210840	0.758038	-0.056678
C73	C	-0.222977	0.929244	-0.168693
C74	C	-0.267224	0.929240	-0.168691
C75	C	-0.236046	0.757996	-0.056627
C76	C	-0.191798	0.757999	-0.056634
C77	C	-0.185265	0.843627	-0.112664
C78	C	0.303755	0.758051	-0.056702
C79	C	0.348002	0.758061	-0.056718
C80	C	0.316820	0.929305	-0.168778
C81	C	0.272577	0.929295	-0.168766
C82	C	0.266047	0.843661	-0.112720
O83	O	0.189333	1.002045	-0.216385
O84	O	0.246983	0.685229	-0.009022
C85	C	0.033861	0.758024	-0.056650
C86	C	-0.003849	0.843641	-0.112672
C87	C	0.002686	0.929262	-0.168703
C88	C	-0.048095	0.843638	-0.112670
C89	C	-0.054630	0.758017	-0.056639
C90	C	-0.016918	0.672401	-0.000610
C91	C	0.027326	0.672404	-0.000619
C92	C	-0.035026	1.014879	-0.224732
C93	C	-0.079269	1.014868	-0.224719
C94	C	-0.085803	0.929248	-0.168688
C95	C	0.679148	0.843628	-0.112671
C96	C	0.726242	0.843620	-0.112660
C97	C	0.552709	0.775966	-0.331923
C98	C	0.556890	0.752994	-0.406324
C99	C	0.563711	1.096711	-0.146542
C100	C	0.571626	1.182597	-0.158026
C101	C	0.506341	1.030721	-0.840165
C102	C	0.502410	1.052307	-0.770264
C103	C	0.516030	0.977481	-0.679276
C104	C	0.533581	0.881065	-0.658195
C105	C	0.537509	0.859476	-0.728103
C106	C	0.547198	0.806236	-0.567214
C107	C	0.564749	0.709820	-0.546133
C108	C	0.568677	0.688236	-0.616036
C109	C	0.555057	0.763062	-0.707023
C110	C	0.543270	0.827824	-0.497306
C111	C	0.574438	0.656580	-0.385244
C112	C	0.578369	0.634994	-0.455145
C113	C	0.528070	0.911335	0.106514
C114	C	0.523889	0.934307	0.180915
C115	C	0.655827	0.590567	-0.078834
C116	C	0.695005	0.504673	-0.067339
C117	C	0.504749	0.658275	0.140351
C118	C	0.492653	0.595360	0.226236
C119	C	0.643507	0.658252	0.140385
C120	C	0.678505	0.595329	0.226281
C121	C	0.437271	1.029049	-0.365794
C122	C	0.402274	1.091972	-0.451690
C123	C	0.424952	1.096734	-0.146575
C124	C	0.385773	1.182628	-0.158070
C125	C	0.576030	1.029026	-0.365760
C126	C	0.588126	1.091941	-0.451645
C127	C	0.688715	0.451122	-0.104761
C128	C	0.725525	0.370421	-0.093978
C129	C	0.768624	0.343269	-0.045766
C130	C	0.774915	0.396829	-0.008344
C131	C	0.738106	0.477532	-0.019133
C132	C	0.511662	0.579029	0.309389
C133	C	0.500295	0.519927	0.390092
C134	C	0.469921	0.477152	0.387641
C135	C	0.450910	0.493488	0.304478
C136	C	0.462275	0.552594	0.223777
C137	C	0.724446	0.552559	0.223818
C138	C	0.757335	0.493446	0.304519
C139	C	0.744282	0.477098	0.387681
C140	C	0.698337	0.519876	0.390141
C141	C	0.665449	0.578994	0.309441
C142	C	0.356334	1.134752	-0.449229
C143	C	0.323447	1.193890	-0.529932
C144	C	0.336500	1.210242	-0.613095
C145	C	0.382445	1.167459	-0.615555
C146	C	0.415332	1.108327	-0.534853
C147	C	0.392065	1.236185	-0.120657
C148	C	0.355258	1.316902	-0.131462
C149	C	0.312159	1.344056	-0.179676
C150	C	0.305868	1.290493	-0.217095
C151	C	0.342676	1.209782	-0.206295
C152	C	0.618501	1.134699	-0.449164
C153	C	0.629875	1.193805	-0.529854
C154	C	0.610872	1.210158	-0.613024
C155	C	0.580495	1.167393	-0.615502
C156	C	0.569124	1.108282	-0.534813
H157	H	0.625832	0.166104	-0.236685
Br158	Br	0.818575	0.233740	-0.031132
Br159	Br	0.560393	0.733770	-0.801896
Br160	Br	0.742173	0.574735	0.110965
H161	H	0.022767	1.084626	-0.270365
Br162	Br	0.580017	0.487948	-0.170215
Br163	Br	0.502533	0.099509	-0.057755
H164	H	0.270772	1.312615	-0.256352
Br165	Br	0.436474	0.574744	0.110930
H166	H	0.515780	0.506635	0.457798
Br167	Br	0.819685	0.435399	0.301159
H168	H	0.771066	0.428959	0.453386
H169	H	0.337546	1.166177	-0.236760
Br170	Br	0.441752	0.225805	0.030399
Br171	Br	0.291862	1.290495	-0.722613
Br172	Br	0.400152	1.189657	-0.728427
H173	H	0.810011	0.374710	0.030910
Br174	Br	-0.026166	1.131091	-0.300781
H175	H	0.743234	0.521126	0.011348
H176	H	0.628042	0.613811	0.311459
H177	H	0.687715	0.506557	0.457863
H178	H	0.345697	1.121442	-0.381520
Br179	Br	0.487849	1.132258	-0.963643
Br180	Br	0.552886	0.637065	0.312742
H181	H	0.241872	0.999014	-0.214397
Br182	Br	0.261097	1.251939	-0.526573
Br183	Br	0.477678	1.050268	-0.538208
H184	H	0.427155	1.214086	-0.081391
Br185	Br	0.454503	0.396938	0.497175
H186	H	0.360389	1.360502	-0.100986
Br187	Br	0.262211	1.453597	-0.194326
Br188	Br	0.644298	1.112522	-0.336301
H189	H	0.654608	1.228622	-0.527819
Br190	Br	0.626309	1.290385	-0.722525
Br191	Br	0.592486	0.557386	-0.587425
Br192	Br	0.657359	0.327241	-0.282447
Br193	Br	0.325698	1.045503	-0.244803
H194	H	0.653625	0.473223	-0.144030
H195	H	0.544389	1.073474	-0.536846
Br196	Br	0.423420	0.360044	0.057040
Br197	Br	0.399180	0.641847	0.019318
Br198	Br	0.440939	0.550285	0.031579
Br199	Br	0.554704	1.189605	-0.728386
Br200	Br	0.294900	0.641832	0.019360
Br201	Br	0.211232	0.556204	0.075400
H202	H	0.426179	0.458652	0.302496
H203	H	0.110501	0.602685	0.044996
Br204	Br	-0.140623	0.641791	0.019403
H205	H	0.592556	0.409702	-0.188405
Br206	Br	0.716977	0.297747	-0.144769
H207	H	-0.241373	0.688279	-0.011009
H208	H	-0.217665	0.998976	-0.214325
Br209	Br	0.106577	1.131115	-0.300781
Br210	Br	-0.318397	1.045445	-0.244744
H211	H	-0.022246	0.602684	0.045008
Br212	Br	0.078499	0.556193	0.075420
H213	H	-0.109972	1.084598	-0.270351
H214	H	0.528978	0.906328	-0.514479
Br215	Br	0.510696	1.006777	-0.584409
H216	H	0.592659	0.556491	-0.437993
Br217	Br	0.478572	1.183151	-0.798875
H218	H	0.585526	0.595650	-0.311158
