data_functionalizedCrystal
_audit_creation_method	'MofGen! by Chris Wilmer'
_symmetry_space_group_name_H-M	'P1'
_symmetry_Int_Tables_number	1
_symmetry_cell_setting	triclinic
loop_
_symmetry_equiv_pos_as_xyz
  x,y,z
_cell_length_a	38.067023
_cell_length_b	38.077490
_cell_length_c	38.067077
_cell_angle_alpha	59.997704
_cell_angle_beta	89.998734
_cell_angle_gamma	60.000154
loop_
_atom_site_label
_atom_site_type_symbol
_atom_site_fract_x
_atom_site_fract_y
_atom_site_fract_z
O1	O	-0.299412	-0.251366	0.010448
O2	O	-0.248328	-0.179451	-0.010403
O3	O	-0.248326	-0.251365	0.061532
O4	O	-0.299414	-0.179451	-0.061486
O5	O	-0.189899	-0.309776	0.061532
O6	O	-0.189901	-0.237861	-0.010403
O7	O	-0.240985	-0.309777	0.010448
Zn8	Zn	-0.206167	-0.283093	0.000023
Zn9	Zn	-0.283146	-0.206135	0.000023
O10	O	-0.240987	-0.237862	-0.061487
C11	C	-0.128227	-0.039355	-0.025248
C12	C	-0.085950	-0.060389	-0.025544
C13	C	-0.128229	-0.102948	-0.025252
C14	C	-0.085951	-0.123885	-0.025548
C15	C	-0.064614	-0.102951	-0.025248
C16	C	-0.149467	-0.060386	-0.025548
C17	C	-0.191984	0.024217	-0.020086
C18	C	-0.212145	0.064391	-0.016827
C19	C	-0.190407	0.084538	-0.015189
C20	C	-0.212265	0.128095	-0.011653
C21	C	-0.148508	0.064518	-0.016815
C22	C	-0.128349	0.024348	-0.020076
C23	C	-0.150087	0.004198	-0.021710
C24	C	0.004140	-0.107949	-0.020081
C25	C	0.047584	-0.131226	-0.016822
C26	C	0.069372	-0.174739	-0.015188
C27	C	0.116478	-0.199981	-0.011652
C28	C	0.047720	-0.194979	-0.016818
C29	C	0.004278	-0.171702	-0.020080
C30	C	-0.017511	-0.128189	-0.021709
C31	C	-0.191986	-0.107941	-0.020095
C32	C	-0.212147	-0.131219	-0.016834
C33	C	-0.190411	-0.174732	-0.015200
C34	C	-0.212269	-0.199971	-0.011669
C35	C	-0.148514	-0.194974	-0.016824
C36	C	-0.128351	-0.171700	-0.020083
C37	C	-0.150089	-0.128183	-0.021719
C38	C	-0.463698	-0.431923	0.031681
C39	C	-0.442362	-0.474487	0.031979
C40	C	-0.400086	-0.431922	0.031678
C41	C	-0.378847	-0.474485	0.031976
C42	C	-0.400085	-0.495519	0.031681
C43	C	-0.442363	-0.410986	0.031977
C44	C	-0.617099	-0.317399	0.020167
C45	C	-0.660541	-0.293986	0.016912
C46	C	-0.682333	-0.314084	0.015279
C47	C	-0.729438	-0.288695	0.011741
C48	C	-0.660680	-0.357598	0.016905
C49	C	-0.617240	-0.381011	0.020166
C50	C	-0.595450	-0.360909	0.021797
C51	C	-0.361240	-0.637368	0.020169
C52	C	-0.341218	-0.677543	0.016913
C53	C	-0.299325	-0.697695	0.015276
C54	C	-0.277614	-0.741250	0.011740
C55	C	-0.277453	-0.677671	0.016899
C56	C	-0.297472	-0.637503	0.020162
C57	C	-0.339370	-0.617352	0.021794
C58	C	-0.361243	-0.317391	0.020154
C59	C	-0.341223	-0.293973	0.016891
C60	C	-0.299329	-0.314068	0.015255
C61	C	-0.277621	-0.288678	0.011714
C62	C	-0.277458	-0.357579	0.016879
C63	C	-0.297480	-0.380994	0.020141
C64	C	-0.339372	-0.360898	0.021783
C65	C	-0.548347	-0.386298	0.025329
C66	C	-0.510801	-0.406535	0.028146
C67	C	-0.378379	-0.406531	0.028139
C68	C	-0.361077	-0.386292	0.025320
C69	C	-0.378378	-0.539074	0.028145
C70	C	-0.361075	-0.573793	0.025328
C71	C	-0.400366	-0.057316	-0.406377
C72	C	-0.442644	-0.014753	-0.427617
C73	C	-0.400367	-0.057315	-0.342764
C74	C	-0.442645	-0.014752	-0.364100
C75	C	-0.463980	0.006280	-0.406378
C76	C	-0.379128	-0.078252	-0.364099
C77	C	-0.297324	-0.171843	-0.445218
C78	C	-0.277160	-0.195257	-0.465240
C79	C	-0.298897	-0.175161	-0.507135
C80	C	-0.277039	-0.200550	-0.528843
C81	C	-0.340797	-0.131647	-0.529008
C82	C	-0.360956	-0.108233	-0.508988
C83	C	-0.339217	-0.128333	-0.467092
C84	C	-0.617383	0.148127	-0.509421
C85	C	-0.660825	0.188302	-0.529585
C86	C	-0.682620	0.208455	-0.507851
C87	C	-0.729723	0.252009	-0.529707
C88	C	-0.660967	0.188432	-0.465950
C89	C	-0.617524	0.148265	-0.445790
C90	C	-0.595735	0.128112	-0.467530
C91	C	-0.297326	-0.171842	-0.189359
C92	C	-0.277164	-0.195259	-0.145915
C93	C	-0.298901	-0.175162	-0.124123
C94	C	-0.277044	-0.200551	-0.077017
C95	C	-0.340800	-0.131651	-0.145775
C96	C	-0.360960	-0.108238	-0.189218
C97	C	-0.339217	-0.128335	-0.211008
C98	C	-0.361081	-0.102944	-0.445385
C99	C	-0.378507	-0.082705	-0.428083
C100	C	-0.378507	-0.082704	-0.295660
C101	C	-0.361082	-0.102942	-0.258114
C102	C	-0.511083	0.049835	-0.428238
C103	C	-0.548630	0.084554	-0.445664
O104	O	0.255029	-0.309790	0.010469
O105	O	0.132012	-0.237874	-0.010380
O106	O	0.203941	-0.309792	0.061554
O107	O	0.183100	-0.237872	-0.061465
O108	O	0.203942	-0.251384	0.061558
O109	O	0.132013	-0.179466	-0.010377
O110	O	0.255030	-0.251382	0.010473
Zn111	Zn	0.193522	-0.206151	0.000049
Zn112	Zn	0.193520	-0.283106	0.000044
O113	O	0.183101	-0.179464	-0.061461
O114	O	-0.240980	0.244491	0.010471
O115	O	-0.189894	0.142351	-0.010378
O116	O	-0.189896	0.142345	0.061556
O117	O	-0.240977	0.244497	-0.061463
O118	O	-0.248324	0.142347	0.061552
O119	O	-0.248322	0.142354	-0.010382
O120	O	-0.299407	0.244493	0.010467
Zn121	Zn	-0.283141	0.193424	0.000042
Zn122	Zn	-0.206160	0.193421	0.000047
O123	O	-0.299405	0.244499	-0.061467
O124	O	-0.868274	0.368411	-0.558424
O125	O	-0.745257	0.266268	-0.507336
O126	O	-0.817186	0.266266	-0.507334
O127	O	-0.796344	0.368414	-0.558426
O128	O	-0.817185	0.266264	-0.565760
O129	O	-0.745255	0.266267	-0.565762
O130	O	-0.868272	0.368410	-0.616850
Zn131	Zn	-0.806764	0.317338	-0.600583
Zn132	Zn	-0.806765	0.317340	-0.523604
O133	O	-0.796342	0.368413	-0.616852
O134	O	-0.248325	-0.251366	-0.616562
O135	O	-0.299411	-0.179454	-0.565477
O136	O	-0.299410	-0.251368	-0.565474
O137	O	-0.248326	-0.179452	-0.616565
O138	O	-0.240982	-0.309779	-0.507046
O139	O	-0.240984	-0.237866	-0.507050
O140	O	-0.189898	-0.309777	-0.558134
Zn141	Zn	-0.206164	-0.283096	-0.523316
Zn142	Zn	-0.283145	-0.206136	-0.600296
O143	O	-0.189899	-0.237864	-0.558138
C144	C	-0.064616	-0.449882	0.321773
C145	C	-0.085952	-0.428850	0.343012
C146	C	-0.128230	-0.386287	0.258159
C147	C	-0.149469	-0.365351	0.279495
C148	C	-0.128229	-0.386287	0.321772
C149	C	-0.085952	-0.428850	0.279495
C150	C	0.004137	-0.513456	0.321608
C151	C	0.047581	-0.553630	0.341633
C152	C	0.069370	-0.573779	0.383524
C153	C	0.116475	-0.617338	0.405237
C154	C	0.047719	-0.553761	0.405398
C155	C	0.004276	-0.513590	0.385375
C156	C	-0.017513	-0.493437	0.343480
C157	C	-0.128064	-0.381291	0.385528
C158	C	-0.148088	-0.358015	0.405689
C159	C	-0.189980	-0.314501	0.383952
C160	C	-0.211692	-0.289261	0.405809
C161	C	-0.211854	-0.294260	0.342053
C162	C	-0.191832	-0.317536	0.321894
C163	C	-0.149937	-0.361050	0.343631
C164	C	-0.128065	-0.381291	0.189406
C165	C	-0.148087	-0.358011	0.145960
C166	C	-0.189978	-0.314497	0.124170
C167	C	-0.211691	-0.289256	0.077065
C168	C	-0.211851	-0.294255	0.145820
C169	C	-0.191830	-0.317532	0.189264
C170	C	-0.149937	-0.361049	0.211055
C171	C	0.218795	-0.386318	0.321799
C172	C	0.219090	-0.428881	0.343036
C173	C	0.218796	-0.386313	0.258183
C174	C	0.219092	-0.428876	0.279518
C175	C	0.218793	-0.449911	0.321795
C176	C	0.219094	-0.365380	0.279521
C177	C	0.213634	-0.317421	0.321636
C178	C	0.210376	-0.294010	0.341662
C179	C	0.208740	-0.314109	0.383554
C180	C	0.205205	-0.288726	0.405268
C181	C	0.210366	-0.357622	0.405427
C182	C	0.213626	-0.381034	0.385403
C183	C	0.215258	-0.360931	0.343507
C184	C	0.213628	-0.513486	0.385550
C185	C	0.210368	-0.553661	0.405710
C186	C	0.208734	-0.573807	0.383972
C187	C	0.205197	-0.617365	0.405828
C188	C	0.210362	-0.553786	0.342073
C189	C	0.213624	-0.513615	0.321915
C190	C	0.215255	-0.493465	0.343653
C191	C	0.213638	-0.317412	0.189431
C192	C	0.210375	-0.293992	0.145985
C193	C	0.208741	-0.314087	0.124194
C194	C	0.205208	-0.288698	0.077089
C195	C	0.210365	-0.357596	0.145843
C196	C	0.213625	-0.381016	0.189287
C197	C	0.215261	-0.360922	0.211080
C198	C	-0.128228	-0.102999	0.321786
C199	C	-0.085950	-0.123940	0.343026
C200	C	-0.128227	-0.039396	0.258176
C201	C	-0.085949	-0.060433	0.279514
C202	C	-0.064613	-0.103002	0.321790
C203	C	-0.149467	-0.060430	0.279509
C204	C	-0.191985	-0.107991	0.321615
C205	C	-0.212148	-0.131268	0.341636
C206	C	-0.190411	-0.174788	0.383526
C207	C	-0.212269	-0.200030	0.405235
C208	C	-0.148512	-0.195034	0.405402
C209	C	-0.128351	-0.171757	0.385383
C210	C	-0.150088	-0.128237	0.343489
C211	C	0.004140	-0.171911	0.385546
C212	C	0.047584	-0.195328	0.405709
C213	C	0.069374	-0.175229	0.383974
C214	C	0.116479	-0.200619	0.405833
C215	C	0.047722	-0.131710	0.342077
C216	C	0.004280	-0.108293	0.321916
C217	C	-0.017510	-0.128395	0.343651
C218	C	-0.191984	0.024189	0.189422
C219	C	-0.212144	0.064366	0.145977
C220	C	-0.190407	0.084517	0.124191
C221	C	-0.212265	0.128082	0.077087
C222	C	-0.148510	0.064494	0.145842
C223	C	-0.128348	0.024316	0.189286
C224	C	-0.150087	0.004165	0.211074
C225	C	0.161897	0.006009	-0.406354
C226	C	0.161600	-0.015021	-0.427594
C227	C	0.161894	-0.057588	-0.342741
C228	C	0.161597	-0.078522	-0.364078
C229	C	0.161896	-0.057584	-0.406356
C230	C	0.161598	-0.015025	-0.364076
C231	C	0.173418	0.147853	-0.445193
C232	C	0.176676	0.188028	-0.465214
C233	C	0.178312	0.208182	-0.507109
C234	C	0.181853	0.251736	-0.528817
C235	C	0.176687	0.188162	-0.528983
C236	C	0.173424	0.147995	-0.508964
C237	C	0.171789	0.127840	-0.467067
C238	C	0.173414	-0.107925	-0.509401
C239	C	0.176670	-0.131195	-0.529566
C240	C	0.178305	-0.174712	-0.507832
C241	C	0.181842	-0.199951	-0.529689
C242	C	0.176678	-0.194956	-0.465932
C243	C	0.173415	-0.171682	-0.445770
C244	C	0.171785	-0.128164	-0.467510
C245	C	0.173406	-0.107944	-0.189336
C246	C	0.176666	-0.131222	-0.145891
C247	C	0.178299	-0.174739	-0.124100
C248	C	0.181836	-0.199982	-0.076994
C249	C	0.176676	-0.194979	-0.145753
C250	C	0.173417	-0.171701	-0.189195
C251	C	0.171779	-0.128180	-0.210985
C252	C	0.168255	0.084282	-0.445361
C253	C	0.165436	0.049564	-0.428059
C254	C	0.165429	-0.082827	-0.295637
C255	C	0.168246	-0.102944	-0.258091
C256	C	0.165432	-0.082819	-0.428217
C257	C	0.168250	-0.102933	-0.445644
O258	O	0.183071	-0.237904	0.492984
O259	O	0.203929	-0.309818	0.441900
O260	O	0.131993	-0.237903	0.441891
O261	O	0.255007	-0.309819	0.492993
O262	O	0.132000	-0.179493	0.383466
O263	O	0.203936	-0.251408	0.383475
O264	O	0.183078	-0.179494	0.434559
Zn265	Zn	0.193508	-0.206177	0.399741
Zn266	Zn	0.193499	-0.283135	0.476718
O267	O	0.255014	-0.251409	0.434569
C268	C	-0.463698	0.568132	-0.406349
C269	C	-0.442362	0.589070	-0.427585
C270	C	-0.400084	0.504526	-0.342735
C271	C	-0.378845	0.525561	-0.364068
C272	C	-0.400084	0.568130	-0.406344
C273	C	-0.442362	0.525563	-0.364072
C274	C	-0.617102	0.618488	-0.445200
C275	C	-0.660545	0.641764	-0.465223
C276	C	-0.682337	0.685287	-0.507117
C277	C	-0.729443	0.710531	-0.528827
C278	C	-0.660684	0.705530	-0.528986
C279	C	-0.617243	0.682251	-0.508965
C280	C	-0.595452	0.638728	-0.467069
C281	C	-0.361238	0.682666	-0.509374
C282	C	-0.341215	0.706081	-0.529534
C283	C	-0.299321	0.685984	-0.507797
C284	C	-0.277610	0.711371	-0.529649
C285	C	-0.277449	0.642464	-0.465898
C286	C	-0.297468	0.619046	-0.445742
C287	C	-0.339367	0.639154	-0.467484
C288	C	-0.361239	0.362658	-0.189337
C289	C	-0.341219	0.322481	-0.145894
C290	C	-0.299323	0.302324	-0.124100
C291	C	-0.277614	0.258762	-0.076995
C292	C	-0.277452	0.322348	-0.145748
C293	C	-0.297475	0.362526	-0.189190
C294	C	-0.339368	0.382675	-0.210982
C295	C	-0.548348	0.613491	-0.445361
C296	C	-0.510802	0.593373	-0.428057
C297	C	-0.378377	0.460965	-0.295632
C298	C	-0.361074	0.426240	-0.258087
C299	C	-0.378376	0.593521	-0.428200
C300	C	-0.361073	0.613760	-0.445623
H301	H	0.065207	-0.114741	-0.015496
H302	H	0.065470	-0.115347	0.324383
H303	H	-0.395069	-0.072803	-0.526801
C304	C	0.208588	-0.246149	0.317606
C305	C	0.171977	-0.199690	0.274932
C306	C	0.170192	-0.151829	0.250878
C307	C	0.205017	-0.150426	0.269498
C308	C	0.241630	-0.196887	0.312174
C309	C	0.243416	-0.244748	0.336228
H310	H	0.146195	-0.200727	0.261146
H311	H	0.143088	-0.117436	0.219286
H312	H	0.203695	-0.114997	0.251692
H313	H	0.267412	-0.195850	0.325959
H314	H	0.270519	-0.279141	0.367819
H315	H	-0.245962	-0.258818	0.128074
C316	C	0.215414	-0.428896	0.409457
C317	C	0.252021	-0.475351	0.452134
C318	C	0.253808	-0.523214	0.476187
C319	C	0.218989	-0.524621	0.457563
C320	C	0.182379	-0.478163	0.414884
C321	C	0.180592	-0.430301	0.390830
H322	H	0.277799	-0.474312	0.465922
H323	H	0.280909	-0.557605	0.507781
H324	H	0.220312	-0.560051	0.475369
H325	H	0.156601	-0.479203	0.401095
H326	H	0.153490	-0.395910	0.359236
H327	H	-0.359032	0.306183	-0.128269
H328	H	-0.358500	-0.115288	-0.128030
C329	C	-0.273411	0.571179	-0.399656
C330	C	-0.230735	0.524728	-0.389802
C331	C	-0.206679	0.476862	-0.343716
C332	C	-0.225297	0.475447	-0.307484
C333	C	-0.267975	0.521900	-0.317337
C334	C	-0.292032	0.569766	-0.363423
H335	H	-0.216951	0.525773	-0.416624
H336	H	-0.175086	0.442474	-0.336422
H337	H	-0.207489	0.440014	-0.273368
H338	H	-0.281759	0.520855	-0.290515
H339	H	-0.323624	0.604154	-0.370717
H340	H	-0.279619	-0.188213	-0.411105
H341	H	0.065207	-0.230760	0.439822
C342	C	0.219739	-0.452659	0.256380
C343	C	0.257216	-0.471570	0.239906
C344	C	0.257864	-0.495354	0.216771
C345	C	0.221035	-0.500226	0.210111
C346	C	0.183555	-0.481313	0.226585
C347	C	0.182907	-0.457530	0.249720
H348	H	0.284482	-0.467964	0.244836
H349	H	0.285609	-0.509354	0.204576
H350	H	0.221514	-0.517832	0.192985
H351	H	0.156289	-0.484919	0.221655
H352	H	0.155162	-0.443530	0.261915
C353	C	-0.407323	-0.615207	0.021970
C354	C	-0.416234	-0.614807	0.061274
C355	C	-0.462316	-0.592645	0.063075
C356	C	-0.499487	-0.570883	0.025572
C357	C	-0.490577	-0.571282	-0.013734
C358	C	-0.444495	-0.593445	-0.015535
H359	H	-0.388717	-0.630918	0.089037
H360	H	-0.468912	-0.592350	0.092172
H361	H	-0.533600	-0.554477	0.026906
H362	H	-0.518094	-0.555172	-0.041498
H363	H	-0.437899	-0.593740	-0.044632
H364	H	-0.678426	-0.373959	0.015578
C365	C	0.208595	-0.246136	0.122178
C366	C	0.169294	-0.197852	0.082518
C367	C	0.167512	-0.149993	0.058709
C368	C	0.205031	-0.150419	0.074561
C369	C	0.244335	-0.198704	0.114223
C370	C	0.246117	-0.246563	0.138032
H371	H	0.141518	-0.197536	0.070782
H372	H	0.138417	-0.114249	0.029349
H373	H	0.203712	-0.114991	0.056936
H374	H	0.272111	-0.199021	0.125959
H375	H	0.275212	-0.282308	0.167392
C376	C	-0.593414	0.125967	-0.533337
C377	C	-0.553712	0.125570	-0.541849
C378	C	-0.529742	0.103409	-0.565764
C379	C	-0.545474	0.081646	-0.581166
C380	C	-0.585179	0.082043	-0.572655
C381	C	-0.609148	0.104203	-0.548740
H382	H	-0.542064	0.141681	-0.530447
H383	H	-0.500350	0.103116	-0.572065
H384	H	-0.527730	0.065242	-0.598869
H385	H	-0.596826	0.065932	-0.584057
H386	H	-0.638540	0.104497	-0.542440
C387	C	-0.593133	0.570611	-0.399118
C388	C	-0.616947	0.548342	-0.375064
C389	C	-0.592977	0.500467	-0.328982
C390	C	-0.545193	0.474861	-0.306955
C391	C	-0.521377	0.497130	-0.331009
C392	C	-0.545347	0.545005	-0.377091
H393	H	-0.652322	0.567297	-0.391369
H394	H	-0.610607	0.483982	-0.311176
H395	H	-0.527449	0.439421	-0.272843
H396	H	-0.486002	0.478175	-0.314704
H397	H	-0.527716	0.561490	-0.394897
C398	C	-0.231076	-0.243122	-0.441179
C399	C	-0.193974	-0.242715	-0.425741
C400	C	-0.147889	-0.290582	-0.401679
C401	C	-0.138907	-0.338855	-0.393055
C402	C	-0.176010	-0.339263	-0.408494
C403	C	-0.222094	-0.291397	-0.432556
H404	H	-0.200622	-0.206979	-0.432124
H405	H	-0.120423	-0.290279	-0.390251
H406	H	-0.104792	-0.374288	-0.375243
H407	H	-0.169361	-0.374999	-0.402110
H408	H	-0.249560	-0.291700	-0.443984
H409	H	0.172087	0.131448	-0.411080
H410	H	-0.209643	-0.301055	0.287780
H411	H	-0.678172	0.625279	-0.447413
H412	H	-0.599897	0.131968	-0.411676
C413	C	-0.062804	-0.036615	-0.026186
C414	C	-0.056129	-0.031760	0.010651
C415	C	-0.032983	-0.007989	0.010008
C416	C	-0.016511	0.010925	-0.027471
C417	C	-0.023185	0.006071	-0.064311
C418	C	-0.046332	-0.017700	-0.063668
H419	H	-0.068323	-0.045762	0.038397
H420	H	-0.028042	-0.004396	0.037280
H421	H	0.000624	0.028522	-0.027946
H422	H	-0.010991	0.020073	-0.092057
H423	H	-0.051272	-0.021294	-0.090940
C424	C	-0.215888	-0.295269	0.213081
C425	C	-0.224510	-0.325939	0.252748
C426	C	-0.248568	-0.303675	0.276564
C427	C	-0.264004	-0.250740	0.260713
C428	C	-0.255383	-0.220067	0.221044
C429	C	-0.231325	-0.242331	0.197228
H430	H	-0.213082	-0.365127	0.264483
H431	H	-0.254950	-0.326382	0.305930
H432	H	-0.281813	-0.234259	0.278344
H433	H	-0.266810	-0.180879	0.209309
H434	H	-0.224943	-0.219624	0.167862
H435	H	-0.279661	-0.621204	0.021484
H436	H	0.161117	-0.112772	-0.346948
C437	C	-0.465785	0.009027	-0.340960
C438	C	-0.482254	0.062963	-0.359519
C439	C	-0.505394	0.086741	-0.336379
C440	C	-0.512063	0.056584	-0.294681
C441	C	-0.495593	0.002645	-0.276120
C442	C	-0.472454	-0.021133	-0.299259
H443	H	-0.477317	0.085290	-0.390389
H444	H	-0.517586	0.126670	-0.350120
H445	H	-0.529192	0.074186	-0.277552
H446	H	-0.500530	-0.019682	-0.245250
H447	H	-0.460262	-0.061062	-0.285519
H448	H	0.219561	-0.446480	0.377772
H449	H	0.172088	-0.188165	-0.411657
C450	C	-0.684643	0.210320	-0.575670
C451	C	-0.688429	0.177502	-0.585517
C452	C	-0.712247	0.199519	-0.631601
C453	C	-0.732278	0.254354	-0.667839
C454	C	-0.728492	0.287174	-0.657993
C455	C	-0.704674	0.265157	-0.611908
H456	H	-0.673601	0.136908	-0.558691
H457	H	-0.715050	0.175223	-0.638890
H458	H	-0.749909	0.270652	-0.701953
H459	H	-0.743320	0.327769	-0.684819
H460	H	-0.701871	0.289454	-0.604620
H461	H	-0.013602	-0.497051	0.287496
C462	C	-0.019545	-0.060427	0.275830
C463	C	-0.023340	-0.013970	0.265969
C464	C	-0.047168	0.033894	0.219882
C465	C	-0.067200	0.035301	0.183656
C466	C	-0.063405	-0.011158	0.193516
C467	C	-0.039577	-0.059022	0.239603
H468	H	-0.008511	-0.015010	0.292787
H469	H	-0.049977	0.068287	0.212583
H470	H	-0.084839	0.070733	0.149539
H471	H	-0.078234	-0.010118	0.166698
H472	H	-0.036768	-0.093414	0.246902
C473	C	-0.407327	-0.295284	0.021954
C474	C	-0.417259	-0.289256	0.058568
C475	C	-0.463343	-0.267152	0.060365
C476	C	-0.499494	-0.251075	0.025548
C477	C	-0.489562	-0.257102	-0.011068
C478	C	-0.443479	-0.279207	-0.012866
H479	H	-0.390497	-0.301158	0.084343
H480	H	-0.470694	-0.262690	0.087471
H481	H	-0.533607	-0.234711	0.026879
H482	H	-0.516324	-0.245200	-0.036844
H483	H	-0.436127	-0.283668	-0.039972
C484	C	-0.407321	0.704780	-0.533293
C485	C	-0.417246	0.710809	-0.575938
C486	C	-0.463329	0.732922	-0.599856
C487	C	-0.499486	0.749006	-0.581129
C488	C	-0.489562	0.742977	-0.538482
C489	C	-0.443479	0.720864	-0.514564
H490	H	-0.390479	0.698902	-0.589803
H491	H	-0.470675	0.737384	-0.631427
H492	H	-0.533599	0.765375	-0.598835
H493	H	-0.516329	0.754884	-0.524617
H494	H	-0.436133	0.716402	-0.482993
C495	C	-0.332192	-0.124502	-0.340965
C496	C	-0.308721	-0.147628	-0.364429
C497	C	-0.261784	-0.193868	-0.341299
C498	C	-0.238317	-0.216981	-0.294704
C499	C	-0.261788	-0.193854	-0.271237
C500	C	-0.308725	-0.147615	-0.294367
H501	H	-0.326093	-0.130519	-0.398923
H502	H	-0.244410	-0.210988	-0.358671
H503	H	-0.203571	-0.251210	-0.277582
H504	H	-0.244416	-0.210964	-0.236743
H505	H	-0.326100	-0.130495	-0.276995
H506	H	-0.359029	-0.693841	0.015589
H507	H	-0.395074	-0.072810	-0.206845
C508	C	-0.215897	0.002022	0.213388
C509	C	-0.231295	-0.019738	0.197647
C510	C	-0.255207	-0.041907	0.221611
C511	C	-0.263722	-0.042316	0.261317
C512	C	-0.248324	-0.020555	0.277061
C513	C	-0.224412	0.001614	0.253097
H514	H	-0.224992	-0.019436	0.168252
H515	H	-0.266605	-0.058016	0.209957
H516	H	-0.281423	-0.058727	0.279057
H517	H	-0.254627	-0.020857	0.306456
H518	H	-0.213013	0.017723	0.264751
C519	C	-0.684655	0.753401	-0.575068
C520	C	-0.724356	0.801603	-0.583977
C521	C	-0.748327	0.849474	-0.630061
C522	C	-0.732596	0.849145	-0.667234
C523	C	-0.692893	0.800942	-0.658325
C524	C	-0.668922	0.753070	-0.612242
H525	H	-0.736003	0.801848	-0.556459
H526	H	-0.777719	0.885158	-0.636655
H527	H	-0.750341	0.884583	-0.701347
H528	H	-0.681246	0.800697	-0.685844
H529	H	-0.639531	0.717387	-0.605647
H530	H	-0.094231	0.008010	0.206912
H531	H	0.065205	-0.569926	0.323820
C532	C	-0.365280	-0.246113	0.015105
C533	C	-0.380708	-0.246534	0.052623
C534	C	-0.404764	-0.198675	0.050839
C535	C	-0.413393	-0.150395	0.011538
C536	C	-0.397965	-0.149972	-0.025983
C537	C	-0.373909	-0.197831	-0.024200
H538	H	-0.374320	-0.282275	0.081718
H539	H	-0.416184	-0.198989	0.078615
H540	H	-0.431201	-0.114968	0.010218
H541	H	-0.404353	-0.114231	-0.055079
H542	H	-0.362488	-0.197518	-0.051975
C543	C	-0.082265	-0.194025	0.409444
C544	C	-0.073276	-0.163363	0.418076
C545	C	-0.027189	-0.185632	0.442138
C546	C	0.009909	-0.238563	0.457567
C547	C	0.000922	-0.269228	0.448934
C548	C	-0.045165	-0.246959	0.424873
H549	H	-0.100740	-0.124178	0.406655
H550	H	-0.020536	-0.162932	0.448529
H551	H	0.044026	-0.255048	0.475379
H552	H	0.028385	-0.308413	0.460356
H553	H	-0.051818	-0.269659	0.418482
H554	H	-0.243345	-0.373941	0.015546
C555	C	-0.019544	-0.491568	0.409432
C556	C	-0.023333	-0.524382	0.452108
C557	C	-0.047155	-0.502360	0.476164
C558	C	-0.067190	-0.447523	0.457543
C559	C	-0.063402	-0.414706	0.414864
C560	C	-0.039580	-0.436728	0.390809
H561	H	-0.008501	-0.564978	0.465895
H562	H	-0.049959	-0.526654	0.507758
H563	H	-0.084825	-0.431221	0.475351
H564	H	-0.078234	-0.374110	0.401078
H565	H	-0.036776	-0.412434	0.359215
C566	C	-0.231370	-0.699838	0.015103
C567	C	-0.222458	-0.700235	-0.024202
C568	C	-0.176375	-0.722401	-0.026000
C569	C	-0.139204	-0.744170	0.011505
C570	C	-0.148115	-0.743773	0.050812
C571	C	-0.194198	-0.721607	0.052611
H572	H	-0.249976	-0.684120	-0.051968
H573	H	-0.169779	-0.722694	-0.055098
H574	H	-0.105091	-0.760578	0.010174
H575	H	-0.120597	-0.759889	0.078579
H576	H	-0.200794	-0.721314	0.081709
H577	H	0.172095	-0.188183	-0.206823
H578	H	-0.279669	-0.416421	0.021464
H579	H	-0.459769	0.002854	-0.462356
H580	H	-0.243050	-0.230687	-0.128288
C581	C	-0.062815	-0.452622	0.256349
C582	C	-0.021122	-0.457476	0.249672
C583	C	0.002013	-0.481243	0.226524
C584	C	-0.016546	-0.500157	0.210052
C585	C	-0.058242	-0.495304	0.216728
C586	C	-0.081376	-0.471536	0.239877
H587	H	-0.007381	-0.443474	0.261866
H588	H	0.032878	-0.484836	0.221582
H589	H	0.000579	-0.517751	0.192916
H590	H	-0.071982	-0.509305	0.204535
H591	H	-0.112242	-0.467944	0.244819
C592	C	0.208576	-0.575680	0.451796
C593	C	0.246084	-0.597338	0.488898
C594	C	0.244292	-0.619361	0.534985
C595	C	0.204991	-0.619727	0.543968
C596	C	0.167480	-0.598068	0.506865
C597	C	0.169272	-0.576045	0.460778
H598	H	0.275179	-0.597068	0.482249
H599	H	0.272060	-0.635394	0.562451
H600	H	0.203664	-0.636029	0.578084
H601	H	0.138385	-0.598338	0.513514
H602	H	0.141504	-0.560012	0.433312
C603	C	-0.364706	-0.109542	-0.575090
C604	C	-0.373219	-0.140325	-0.584000
C605	C	-0.397130	-0.118218	-0.630084
C606	C	-0.412527	-0.065328	-0.667257
C607	C	-0.404014	-0.034543	-0.658348
C608	C	-0.380103	-0.056649	-0.612265
H609	H	-0.361820	-0.179479	-0.556481
H610	H	-0.403432	-0.141008	-0.636678
H611	H	-0.430228	-0.048963	-0.701371
H612	H	-0.415413	0.004612	-0.685867
H613	H	-0.373802	-0.033859	-0.605670
H614	H	0.161122	0.002585	-0.462332
C615	C	-0.684936	0.210600	-0.442041
C616	C	-0.724637	0.210996	-0.433525
C617	C	-0.748608	0.233162	-0.409614
C618	C	-0.732878	0.254932	-0.394219
C619	C	-0.693175	0.254536	-0.402735
C620	C	-0.669204	0.232370	-0.426645
H621	H	-0.736283	0.194879	-0.444922
H622	H	-0.777998	0.233454	-0.403311
H623	H	-0.750622	0.271340	-0.376519
H624	H	-0.681528	0.270653	-0.391338
H625	H	-0.639813	0.232078	-0.432949
H626	H	-0.068820	-0.042830	0.262384
H627	H	-0.130275	-0.374498	0.128337
C628	C	0.171607	-0.060049	-0.533322
C629	C	0.132299	-0.011850	-0.541835
C630	C	0.130489	0.036027	-0.565756
C631	C	0.167986	0.035705	-0.581165
C632	C	0.207297	-0.012496	-0.572652
C633	C	0.209107	-0.060373	-0.548731
H634	H	0.104539	-0.011610	-0.530428
H635	H	0.101388	0.071709	-0.572057
H636	H	0.166646	0.071147	-0.598873
H637	H	0.235057	-0.012736	-0.584059
H638	H	0.238208	-0.096054	-0.542430
C639	C	-0.258233	0.086394	0.122166
C640	C	-0.268097	0.053587	0.118379
C641	C	-0.314187	0.075616	0.094567
C642	C	-0.350413	0.130451	0.074541
C643	C	-0.340550	0.163261	0.078327
C644	C	-0.294460	0.141232	0.102140
H645	H	-0.241279	0.012992	0.133204
H646	H	-0.321488	0.051328	0.091764
H647	H	-0.384532	0.146758	0.056913
H648	H	-0.367368	0.203857	0.063502
H649	H	-0.287159	0.165521	0.104942
H650	H	-0.184204	-0.331097	0.262361
C651	C	0.215441	-0.295312	0.213406
C652	C	0.180624	-0.279233	0.233475
C653	C	0.182424	-0.257133	0.257451
C654	C	0.219042	-0.251111	0.261357
C655	C	0.253861	-0.267191	0.241287
C656	C	0.252061	-0.289291	0.217312
H657	H	0.153515	-0.283690	0.230584
H658	H	0.156648	-0.245230	0.272307
H659	H	0.220374	-0.234751	0.279105
H660	H	0.280970	-0.262733	0.244178
H661	H	0.277837	-0.301194	0.202455
H662	H	0.161154	0.002555	-0.346935
H663	H	-0.068821	-0.446455	0.377749
H664	H	0.178006	-0.230414	-0.128007
H665	H	0.178001	0.204324	-0.447401
C666	C	0.071690	-0.575925	0.451481
C667	C	0.091761	-0.630796	0.487639
C668	C	0.115729	-0.652958	0.533722
C669	C	0.119627	-0.620249	0.543646
C670	C	0.099555	-0.565374	0.507487
C671	C	0.075587	-0.543212	0.461405
H672	H	0.088876	-0.655013	0.480293
H673	H	0.130587	-0.693580	0.560489
H674	H	0.137370	-0.636654	0.577759
H675	H	0.102440	-0.541157	0.514833
H676	H	0.060729	-0.502590	0.434638
H677	H	0.214945	-0.416443	0.206912
C678	C	-0.124025	-0.380281	0.451774
C679	C	-0.108583	-0.433217	0.488877
C680	C	-0.084524	-0.455478	0.534962
C681	C	-0.075906	-0.424804	0.543945
C682	C	-0.091348	-0.371865	0.506842
C683	C	-0.115408	-0.349603	0.460756
H684	H	-0.114963	-0.455927	0.482228
H685	H	-0.073092	-0.494668	0.562429
H686	H	-0.058095	-0.441284	0.578060
H687	H	-0.084968	-0.349155	0.513490
H688	H	-0.126839	-0.310414	0.433289
C689	C	-0.365275	0.753952	-0.575616
C690	C	-0.407947	0.800400	-0.585461
C691	C	-0.432008	0.848272	-0.631543
C692	C	-0.413397	0.849698	-0.667781
C693	C	-0.370722	0.803249	-0.657938
C694	C	-0.346661	0.755376	-0.611856
H695	H	-0.421727	0.799346	-0.558634
H696	H	-0.463599	0.882657	-0.638829
H697	H	-0.431209	0.885136	-0.701894
H698	H	-0.356943	0.804303	-0.684765
H699	H	-0.315070	0.720992	-0.604569
C700	C	0.208563	-0.379731	0.451510
C701	C	0.243378	-0.395816	0.487668
C702	C	0.241576	-0.417926	0.533751
C703	C	0.204959	-0.423952	0.543675
C704	C	0.170142	-0.407866	0.507516
C705	C	0.171944	-0.385756	0.461433
H706	H	0.270486	-0.391356	0.480322
H707	H	0.267350	-0.429834	0.560518
H708	H	0.203625	-0.440319	0.577789
H709	H	0.143034	-0.412326	0.514862
H710	H	0.146169	-0.373848	0.434666
H711	H	0.178017	0.204576	-0.563095
H712	H	-0.093954	-0.416726	0.207147
H713	H	-0.246258	0.080688	-0.015504
H714	H	-0.130811	0.080929	-0.015481
H715	H	-0.130808	0.080901	0.128099
H716	H	-0.395352	0.379063	-0.207079
H717	H	-0.599361	-0.301028	0.021496
H718	H	-0.245967	-0.258826	0.324356
H719	H	-0.093952	-0.416724	0.403232
C720	C	0.208563	-0.575949	0.318159
C721	C	0.246070	-0.597717	0.302763
C722	C	0.244271	-0.619877	0.278847
C723	C	0.204966	-0.620270	0.270327
C724	C	0.167456	-0.598501	0.285723
C725	C	0.169254	-0.576341	0.309639
H726	H	0.275169	-0.597427	0.309070
H727	H	0.272039	-0.635992	0.267450
H728	H	0.203635	-0.636674	0.252623
H729	H	0.138357	-0.598791	0.279416
H730	H	0.141487	-0.560226	0.321036
H731	H	-0.243335	0.626096	-0.448202
C732	C	0.208566	-0.379705	0.121873
C733	C	0.243386	-0.395788	0.101809
C734	C	0.241590	-0.417896	0.077839
C735	C	0.204974	-0.423919	0.073934
C736	C	0.170151	-0.407835	0.093999
C737	C	0.171948	-0.385728	0.117969
H738	H	0.270494	-0.391330	0.104699
H739	H	0.267368	-0.429802	0.062985
H740	H	0.203644	-0.440284	0.056190
H741	H	0.143043	-0.412294	0.091109
H742	H	0.146169	-0.373821	0.132822
H743	H	0.219572	-0.331129	0.262394
C744	C	-0.124598	-0.242843	-0.015027
C745	C	-0.143326	-0.244176	-0.049848
C746	C	-0.119412	-0.292043	-0.048051
C747	C	-0.076770	-0.338577	-0.011434
C748	C	-0.058040	-0.337246	0.023390
C749	C	-0.081954	-0.289379	0.021593
H750	H	-0.174894	-0.209728	-0.076956
H751	H	-0.133277	-0.293029	-0.073830
H752	H	-0.059067	-0.374011	-0.010104
H753	H	-0.026472	-0.371694	0.050499
H754	H	-0.068088	-0.288393	0.047372
C755	C	-0.258233	-0.109001	0.317575
C756	C	-0.268090	-0.102933	0.274898
C757	C	-0.314177	-0.080665	0.250839
C758	C	-0.350408	-0.064465	0.269457
C759	C	-0.340552	-0.070533	0.312136
C760	C	-0.294464	-0.092801	0.336195
H761	H	-0.241269	-0.114925	0.261114
H762	H	-0.321473	-0.076173	0.219245
H763	H	-0.384525	-0.047981	0.251647
H764	H	-0.367373	-0.058541	0.325920
H765	H	-0.287169	-0.097293	0.367789
H766	H	-0.344108	0.507954	-0.346935
C767	C	-0.684359	-0.246121	0.015117
C768	C	-0.724022	-0.197848	-0.024186
C769	C	-0.747840	-0.149982	-0.025982
C770	C	-0.731994	-0.150388	0.011526
C771	C	-0.692328	-0.198662	0.050832
C772	C	-0.668510	-0.246529	0.052628
H773	H	-0.735755	-0.197546	-0.051955
H774	H	-0.777204	-0.114246	-0.055080
H775	H	-0.749625	-0.114954	0.010196
H776	H	-0.680596	-0.198965	0.078600
H777	H	-0.639147	-0.282265	0.081725
H778	H	0.214967	-0.301052	0.287524
H779	H	0.172074	-0.072508	-0.207074
C780	C	-0.124599	-0.242911	0.451483
C781	C	-0.081957	-0.289439	0.461406
C782	C	-0.058042	-0.337315	0.507487
C783	C	-0.076770	-0.338663	0.543645
C784	C	-0.119415	-0.292133	0.533724
C785	C	-0.143329	-0.244257	0.487643
H786	H	-0.068091	-0.288442	0.434638
H787	H	-0.026473	-0.371759	0.514831
H788	H	-0.059067	-0.374103	0.577757
H789	H	-0.133280	-0.293129	0.560491
H790	H	-0.174898	-0.209813	0.480299
C791	C	0.178451	-0.108959	-0.122073
C792	C	0.215056	-0.102889	-0.118284
C793	C	0.216839	-0.080624	-0.094466
C794	C	0.182016	-0.064430	-0.074439
C795	C	0.145408	-0.070500	-0.078228
C796	C	0.143626	-0.092765	-0.102045
H797	H	0.240836	-0.114877	-0.133110
H798	H	0.243938	-0.076130	-0.091661
H799	H	0.183335	-0.047948	-0.056807
H800	H	0.119628	-0.058512	-0.063401
H801	H	0.116526	-0.097258	-0.104850
C802	C	-0.231365	0.300178	-0.121779
C803	C	-0.195212	0.245310	-0.101721
C804	C	-0.149127	0.223141	-0.077753
C805	C	-0.139195	0.255840	-0.073844
C806	C	-0.175350	0.310711	-0.093902
C807	C	-0.221435	0.332880	-0.117870
H808	H	-0.202563	0.221101	-0.104615
H809	H	-0.122363	0.182521	-0.062905
H810	H	-0.105080	0.239429	-0.056101
H811	H	-0.167999	0.334919	-0.091008
H812	H	-0.248199	0.373499	-0.132718
C813	C	0.178466	-0.108933	-0.575651
C814	C	0.143648	-0.092729	-0.611888
C815	C	0.145445	-0.070467	-0.657973
C816	C	0.182059	-0.064409	-0.667820
C817	C	0.216879	-0.080613	-0.631581
C818	C	0.215082	-0.102875	-0.585497
H819	H	0.116542	-0.097213	-0.604600
H820	H	0.119669	-0.058471	-0.684799
H821	H	0.183389	-0.047929	-0.701934
H822	H	0.243985	-0.076128	-0.638870
H823	H	0.240859	-0.114870	-0.558671
H824	H	-0.279616	-0.188204	-0.207101
H825	H	0.214959	-0.497084	0.403255
H826	H	0.214954	-0.497319	0.287802
C827	C	-0.215898	0.002056	-0.021889
C828	C	-0.231301	-0.019706	0.015614
C829	C	-0.255215	-0.041869	0.013814
C830	C	-0.263724	-0.042271	-0.025488
C831	C	-0.248320	-0.020508	-0.062994
C832	C	-0.224407	0.001656	-0.061194
H833	H	-0.225002	-0.019409	0.044710
H834	H	-0.266618	-0.057980	0.041579
H835	H	-0.281426	-0.058677	-0.026820
H836	H	-0.254619	-0.020804	-0.092090
H837	H	-0.213004	0.017766	-0.088959
C838	C	0.178472	-0.242822	-0.442022
C839	C	0.217775	-0.291025	-0.433507
C840	C	0.219571	-0.338893	-0.409598
C841	C	0.182064	-0.338558	-0.394203
C842	C	0.142758	-0.290352	-0.402717
C843	C	0.140962	-0.242484	-0.426627
H844	H	0.245543	-0.291275	-0.444904
H845	H	0.248668	-0.374578	-0.403295
H846	H	0.183394	-0.373992	-0.376503
H847	H	0.114991	-0.290102	-0.391321
H848	H	0.111865	-0.206800	-0.432930
H849	H	-0.068823	-0.158134	-0.026027
H850	H	-0.068823	-0.158191	0.377764
H851	H	-0.459492	0.623322	-0.462322
H852	H	-0.184205	-0.042780	-0.026030
C853	C	-0.331921	-0.498266	0.032620
C854	C	-0.308457	-0.475130	0.032936
C855	C	-0.261534	-0.498911	0.033579
C856	C	-0.238073	-0.545827	0.033908
C857	C	-0.261536	-0.568965	0.033592
C858	C	-0.308460	-0.545185	0.032949
H859	H	-0.325824	-0.440398	0.032693
H860	H	-0.244165	-0.481782	0.033813
H861	H	-0.203337	-0.563431	0.034384
H862	H	-0.244169	-0.603698	0.033836
H863	H	-0.325829	-0.562313	0.032715
H864	H	-0.246261	-0.114733	-0.015512
H865	H	-0.184204	-0.042827	0.262380
H866	H	-0.599615	0.698734	-0.526774
H867	H	-0.209689	-0.072554	0.287504
H868	H	-0.279663	0.378826	-0.206814
H869	H	-0.013600	-0.188280	0.403247
H870	H	-0.209690	-0.072507	-0.021428
C871	C	0.071691	-0.242848	-0.015020
C872	C	0.091761	-0.244185	-0.049835
C873	C	0.115729	-0.292053	-0.048038
C874	C	0.119626	-0.338584	-0.011424
C875	C	0.099554	-0.337249	0.023395
C876	C	0.075587	-0.289381	0.021597
H877	H	0.088877	-0.209738	-0.076941
H878	H	0.130587	-0.293041	-0.073813
H879	H	0.137368	-0.374019	-0.010093
H880	H	0.102439	-0.371696	0.050501
H881	H	0.060729	-0.288393	0.047372
H882	H	0.172101	0.131697	-0.526776
H883	H	-0.094236	0.008051	-0.021402
H884	H	-0.013600	-0.072517	-0.021412
H885	H	-0.013352	-0.188180	-0.021410
H886	H	-0.094238	-0.188182	-0.021409
H887	H	-0.459493	-0.492089	0.032459
H888	H	-0.599613	-0.416440	0.021492
H889	H	-0.459495	-0.376734	0.032451
H890	H	-0.459498	0.507968	-0.346943
