data_functionalizedCrystal
_audit_creation_method	'MofGen! by Chris Wilmer'
_symmetry_space_group_name_H-M	'P1'
_symmetry_Int_Tables_number	1
_symmetry_cell_setting	triclinic
loop_
_symmetry_equiv_pos_as_xyz
  x,y,z
_cell_length_a	18.215407
_cell_length_b	21.295417
_cell_length_c	18.215399
_cell_angle_alpha	89.968895
_cell_angle_beta	89.982187
_cell_angle_gamma	90.024215
loop_
_atom_site_label
_atom_site_type_symbol
_atom_site_fract_x
_atom_site_fract_y
_atom_site_fract_z
Zn1	Zn	1.125047	-0.250708	-0.416060
Zn2	Zn	1.458381	0.082625	-0.082727
Zn3	Zn	1.791714	0.415959	0.250607
Zn4	Zn	1.124945	-0.355979	-0.292987
Zn5	Zn	1.458279	-0.022646	0.040346
Zn6	Zn	1.791612	0.310688	0.373680
Zn7	Zn	1.001980	-0.250718	-0.293012
Zn8	Zn	1.335313	0.082616	0.040322
Zn9	Zn	1.668646	0.415949	0.373655
Zn10	Zn	1.001935	-0.355933	-0.416016
Zn11	Zn	1.335269	-0.022600	-0.082683
Zn12	Zn	1.668602	0.310734	0.250650
O13	O	1.063477	-0.303334	-0.354519
O14	O	1.396810	0.029999	-0.021185
O15	O	1.730144	0.363332	0.312148
O16	O	1.228018	-0.264687	-0.399742
O17	O	1.561351	0.068646	-0.066409
O18	O	1.894685	0.401979	0.266925
O19	O	1.108610	-0.342039	-0.190006
O20	O	1.441943	-0.008706	0.143327
O21	O	1.775276	0.324628	0.476661
O22	O	1.018366	-0.162627	-0.309363
O23	O	1.351700	0.170706	0.023970
O24	O	1.685033	0.504040	0.357304
O25	O	1.227943	-0.342030	-0.309321
O26	O	1.561276	-0.008696	0.024013
O27	O	1.894610	0.324637	0.357346
O28	O	1.108783	-0.162620	-0.399766
O29	O	1.442117	0.170714	-0.066433
O30	O	1.775450	0.504047	0.266901
O31	O	1.018267	-0.264704	-0.190024
O32	O	1.351601	0.068629	0.143309
O33	O	1.684934	0.401963	0.476643
O34	O	0.898990	-0.264659	-0.309321
O35	O	1.232323	0.068674	0.024013
O36	O	1.565656	0.402007	0.357346
O37	O	1.018290	-0.341951	-0.519006
O38	O	1.351624	-0.008618	-0.185673
O39	O	1.684957	0.324715	0.147660
O40	O	0.898957	-0.341961	-0.399691
O41	O	1.232290	-0.008627	-0.066358
O42	O	1.565624	0.324706	0.266975
O43	O	1.108740	-0.264643	-0.519039
O44	O	1.442074	0.068690	-0.185705
O45	O	1.775407	0.402024	0.147628
O46	O	1.108567	-0.444062	-0.309278
O47	O	1.441900	-0.110729	0.024055
O48	O	1.775233	0.222604	0.357388
O49	O	1.018192	-0.444029	-0.399667
O50	O	1.351525	-0.110695	-0.066334
O51	O	1.684858	0.222638	0.266999
C52	C	0.872271	-0.303307	-0.354504
C53	C	1.205604	0.030027	-0.021171
C54	C	1.538937	0.363360	0.312162
C55	C	0.790472	-0.303310	-0.354516
C56	C	1.123805	0.030023	-0.021182
C57	C	1.457138	0.363357	0.312151
C58	C	0.525448	-0.263140	-0.401676
C59	C	0.858781	0.070194	-0.068343
C60	C	1.192114	0.403527	0.264991
C61	C	0.602306	-0.263130	-0.401674
C62	C	0.935640	0.070204	-0.068340
C63	C	1.268973	0.403537	0.264993
C64	C	0.602248	-0.343549	-0.307377
C65	C	0.935581	-0.010216	0.025956
C66	C	1.268914	0.323117	0.359289
C67	C	0.525390	-0.343562	-0.307384
C68	C	0.858724	-0.010229	0.025949
C69	C	1.192057	0.323105	0.359283
C70	C	0.486992	-0.303354	-0.354532
C71	C	0.820326	0.029979	-0.021199
C72	C	1.153659	0.363313	0.312134
C73	C	0.640708	-0.303331	-0.354523
C74	C	0.974042	0.030003	-0.021190
C75	C	1.307375	0.363336	0.312143
C76	C	0.724042	-0.303320	-0.354520
C77	C	1.057375	0.030013	-0.021187
C78	C	1.390709	0.363347	0.312146
C79	C	0.403653	-0.303365	-0.354536
C80	C	0.736987	0.029968	-0.021203
C81	C	1.070320	0.363301	0.312130
C82	C	1.063383	-0.466886	-0.354481
C83	C	1.396716	-0.133553	-0.021148
C84	C	1.730050	0.199781	0.312185
C85	C	1.063410	-0.536854	-0.354490
C86	C	1.396744	-0.203521	-0.021157
C87	C	1.730077	0.129813	0.312177
C88	C	1.110464	-0.569660	-0.401597
C89	C	1.443797	-0.236326	-0.068263
C90	C	1.777130	0.097007	0.265070
C91	C	1.110490	-0.635402	-0.401615
C92	C	1.443823	-0.302069	-0.068281
C93	C	1.777156	0.031264	0.265052
C94	C	1.063470	-0.668337	-0.354513
C95	C	1.396803	-0.335003	-0.021180
C96	C	1.730137	-0.001670	0.312153
C97	C	1.016408	-0.635523	-0.307404
C98	C	1.349741	-0.302190	0.025930
C99	C	1.683074	0.031144	0.359263
C100	C	1.016378	-0.569782	-0.307392
C101	C	1.349711	-0.236448	0.025941
C102	C	1.683044	0.096885	0.359275
N103	N	1.057911	-0.771599	-0.290107
N104	N	1.391245	-0.438265	0.043226
N105	N	1.724578	-0.104932	0.376559
N106	N	1.057944	-0.834050	-0.290120
N107	N	1.391277	-0.500717	0.043213
N108	N	1.724611	-0.167383	0.376546
C109	C	1.063556	-0.866411	-0.354547
C110	C	1.396889	-0.533078	-0.021213
C111	C	1.730223	-0.199745	0.312120
N112	N	1.069149	-0.833962	-0.418961
N113	N	1.402482	-0.500629	-0.085627
N114	N	1.735815	-0.167295	0.247706
N115	N	1.069120	-0.771505	-0.418947
N116	N	1.402453	-0.438171	-0.085613
N117	N	1.735786	-0.104838	0.247720
C118	C	1.063497	-0.739622	-0.354521
C119	C	1.396830	-0.406289	-0.021188
C120	C	1.730163	-0.072955	0.312146
C121	C	1.110640	-0.970503	-0.401677
C122	C	1.443973	-0.637169	-0.068343
C123	C	1.777307	-0.303836	0.264990
C124	C	1.110661	-1.036246	-0.401696
C125	C	1.443994	-0.702913	-0.068363
C126	C	1.777327	-0.369580	0.264971
C127	C	1.016583	-1.036366	-0.307478
C128	C	1.349916	-0.703032	0.025855
C129	C	1.683249	-0.369699	0.359188
C130	C	1.016558	-0.970623	-0.307465
C131	C	1.349891	-0.637290	0.025868
C132	C	1.683225	-0.303956	0.359201
C133	C	1.063591	-0.937696	-0.354564
C134	C	1.396924	-0.604362	-0.021230
C135	C	1.730257	-0.271029	0.312103
C136	C	1.255430	-0.303363	-0.354534
C137	C	1.588763	0.029971	-0.021200
C138	C	1.922096	0.363304	0.312133
C139	C	1.337229	-0.303375	-0.354540
C140	C	1.670562	0.029959	-0.021207
C141	C	2.003895	0.363292	0.312127
C142	C	1.063522	-0.303291	-0.546472
C143	C	1.396855	0.030042	-0.213138
C144	C	1.730188	0.363376	0.120195
C145	C	1.063541	-0.303272	-0.628271
C146	C	1.396874	0.030061	-0.294937
C147	C	1.730208	0.363394	0.038396
C148	C	1.063591	-0.139144	-0.354572
C149	C	1.396924	0.194189	-0.021239
C150	C	1.730258	0.527523	0.312094
C151	C	1.063640	-0.069176	-0.354595
C152	C	1.396973	0.264157	-0.021262
C153	C	1.730306	0.597491	0.312072
C154	C	1.110655	-0.262980	-0.816483
C155	C	1.443988	0.070353	-0.483149
C156	C	1.777322	0.403686	-0.149816
C157	C	1.110664	-0.262962	-0.893341
C158	C	1.443997	0.070371	-0.560008
C159	C	1.777330	0.403705	-0.226675
C160	C	1.016479	-0.343467	-0.893297
C161	C	1.349812	-0.010134	-0.559963
C162	C	1.683145	0.323199	-0.226630
C163	C	1.016467	-0.343482	-0.816439
C164	C	1.349800	-0.010149	-0.483106
C165	C	1.683134	0.323185	-0.149773
C166	C	1.063559	-0.303239	-0.778034
C167	C	1.396892	0.030094	-0.444701
C168	C	1.730226	0.363427	-0.111368
C169	C	1.063580	-0.303206	-0.931750
C170	C	1.396913	0.030127	-0.598417
C171	C	1.730247	0.363460	-0.265084
C172	C	1.063589	-0.303187	-1.015084
C173	C	1.396922	0.030147	-0.681751
C174	C	1.730256	0.363480	-0.348417
C175	C	1.063549	-0.303258	-0.694695
C176	C	1.396883	0.030075	-0.361362
C177	C	1.730216	0.363409	-0.028029
C178	C	1.063475	-0.303332	-0.163312
C179	C	1.396808	0.030001	0.170021
C180	C	1.730141	0.363335	0.503354
C181	C	1.063598	-0.303173	-0.081514
C182	C	1.396931	0.030160	0.251819
C183	C	1.730265	0.363493	0.585153
H184	H	0.494079	-0.376313	-0.268993
H185	H	0.827412	-0.042979	0.064340
H186	H	1.160746	0.290354	0.397673
H187	H	0.978140	-0.376233	-0.924575
H188	H	1.311473	-0.042899	-0.591242
H189	H	1.644806	0.290434	-0.257909
H190	H	0.978111	-0.376265	-0.785134
H191	H	1.311444	-0.042932	-0.451800
H192	H	1.644777	0.290401	-0.118467
N193	N	0.641474	-0.384603	-0.259202
N194	N	0.974807	-0.051270	0.074131
N195	N	1.308140	0.282064	0.407464
N196	N	0.632863	-0.380353	-0.191305
N197	N	0.966196	-0.047020	0.142029
N198	N	1.299530	0.286314	0.475362
H199	H	0.660566	-0.409346	-0.157277
H200	H	0.993899	-0.076012	0.176057
H201	H	1.327232	0.257321	0.509390
H202	H	0.494186	-0.230399	-0.440067
H203	H	0.827520	0.102934	-0.106734
H204	H	1.160853	0.436267	0.226600
N205	N	1.158740	-0.221861	-0.777252
N206	N	1.492073	0.111473	-0.443919
N207	N	1.825406	0.444806	-0.110586
N208	N	1.132862	-0.181753	-0.734379
N209	N	1.466195	0.151581	-0.401046
N210	N	1.799528	0.484914	-0.067713
H211	H	1.166820	-0.152708	-0.706674
H212	H	1.500154	0.180625	-0.373341
H213	H	1.833487	0.513958	-0.040007
N214	N	0.641575	-0.222041	-0.449828
N215	N	0.974908	0.111292	-0.116495
N216	N	1.308241	0.444626	0.216839
N217	N	0.633002	-0.163952	-0.445063
N218	N	0.966336	0.169381	-0.111730
N219	N	1.299669	0.502715	0.221604
H220	H	0.660734	-0.134931	-0.479075
H221	H	0.994068	0.198402	-0.145742
H222	H	1.327401	0.531736	0.187592
N223	N	1.158509	-0.536036	-0.449710
N224	N	1.491842	-0.202703	-0.116376
N225	N	1.825175	0.130631	0.216957
N226	N	1.200518	-0.565340	-0.491767
N227	N	1.533851	-0.232007	-0.158434
N228	N	1.867184	0.101326	0.174899
H229	H	1.234450	-0.541593	-0.525749
H230	H	1.567783	-0.208260	-0.192415
H231	H	1.901117	0.125074	0.140918
N232	N	1.158560	-0.668912	-0.449740
N233	N	1.491893	-0.335579	-0.116407
N234	N	1.825226	-0.002246	0.216926
N235	N	1.200546	-0.639505	-0.491788
N236	N	1.533880	-0.306172	-0.158455
N237	N	1.867213	0.027161	0.174879
H238	H	1.234497	-0.663169	-0.525777
H239	H	1.567831	-0.329836	-0.192443
H240	H	1.901164	0.003497	0.140890
H241	H	0.978061	-0.543071	-0.269031
H242	H	1.311394	-0.209737	0.064302
H243	H	1.644727	0.123596	0.397635
N244	N	0.968378	-0.669171	-0.259300
N245	N	1.301711	-0.335837	0.074034
N246	N	1.635045	-0.002504	0.407367
N247	N	0.968411	-0.727868	-0.259316
N248	N	1.301744	-0.394534	0.074018
N249	N	1.635078	-0.061201	0.407351
H250	H	0.934486	-0.751632	-0.225343
H251	H	1.267819	-0.418299	0.107990
H252	H	1.601153	-0.084966	0.441323
H253	H	1.149013	-0.230178	-0.924643
H254	H	1.482346	0.103155	-0.591309
H255	H	1.815679	0.436489	-0.257976
H256	H	1.148934	-0.943692	-0.440029
H257	H	1.482268	-0.610359	-0.106696
H258	H	1.815601	-0.277025	0.226637
N259	N	0.968540	-1.069990	-0.259368
N260	N	1.301873	-0.736657	0.073965
N261	N	1.635207	-0.403323	0.407298
N262	N	0.900627	-1.062688	-0.264192
N263	N	1.233960	-0.729354	0.069141
N264	N	1.567294	-0.396021	0.402475
H265	H	0.866692	-1.086437	-0.230216
H266	H	1.200025	-0.753104	0.103117
H267	H	1.533359	-0.419771	0.436451
H268	H	1.148977	-1.062956	-0.440059
H269	H	1.482310	-0.729622	-0.106726
H270	H	1.815644	-0.396289	0.226607
N271	N	0.968490	-0.937119	-0.259341
N272	N	1.301823	-0.603785	0.073993
N273	N	1.635157	-0.270452	0.407326
N274	N	0.926508	-0.966529	-0.217291
N275	N	1.259841	-0.633196	0.116042
N276	N	1.593175	-0.299862	0.449376
H277	H	0.892555	-0.942867	-0.183302
H278	H	1.225889	-0.609534	0.150031
H279	H	1.559222	-0.276201	0.483365
