data_functionalizedCrystal
_audit_creation_method	'MofGen! by Chris Wilmer'
_symmetry_space_group_name_H-M	'P1'
_symmetry_Int_Tables_number	1
_symmetry_cell_setting	triclinic
loop_
_symmetry_equiv_pos_as_xyz
  x,y,z
_cell_length_a	12.759401
_cell_length_b	18.050589
_cell_length_c	12.759393
_cell_angle_alpha	90.030621
_cell_angle_beta	90.018496
_cell_angle_gamma	90.028382
loop_
_atom_site_label
_atom_site_type_symbol
_atom_site_fract_x
_atom_site_fract_y
_atom_site_fract_z
Zn1	Zn	1.606157	-0.295612	0.593988
Zn2	Zn	1.606010	-0.419823	0.418311
Zn3	Zn	1.430459	-0.295651	0.418328
Zn4	Zn	1.430406	-0.419766	0.593953
O5	O	1.518258	-0.357713	0.506145
O6	O	1.753158	-0.312097	0.570692
O7	O	1.582683	-0.403391	0.271292
O8	O	1.453849	-0.191722	0.441651
O9	O	1.753050	-0.403354	0.441623
O10	O	1.582934	-0.191693	0.570708
O11	O	1.453706	-0.312163	0.271304
O12	O	1.283431	-0.312108	0.441617
O13	O	1.453759	-0.403256	0.740979
O14	O	1.283392	-0.403294	0.570648
O15	O	1.582882	-0.312041	0.741005
O16	O	1.582632	-0.523740	0.441589
O17	O	1.453616	-0.523698	0.570632
C18	C	1.245290	-0.357699	0.506131
C19	C	1.128514	-0.357711	0.506149
C20	C	1.073659	-0.405268	0.573225
C21	C	0.963935	-0.405277	0.573236
C22	C	0.963930	-0.310171	0.439088
C23	C	1.073652	-0.310159	0.439083
C24	C	1.128521	-0.452820	0.640292
C25	C	1.073666	-0.500382	0.707372
C26	C	0.963942	-0.500391	0.707383
C27	C	0.909072	-0.452839	0.640314
C28	C	1.518131	-0.550665	0.506127
C29	C	1.518173	-0.633211	0.506155
C30	C	1.448083	-0.832666	0.576304
C31	C	1.422469	-0.882114	0.480436
C32	C	1.518276	-0.784341	0.506169
C33	C	1.543942	-0.881974	0.602048
C34	C	1.518374	-0.930326	0.506191
C35	C	1.492611	-0.832703	0.410250
C36	C	1.614129	-0.832558	0.531927
C37	C	1.588551	-0.881985	0.435992
C38	C	1.518217	-0.700243	0.506158
C39	C	1.518433	-1.014423	0.506191
C40	C	1.792291	-0.357727	0.506160
C41	C	1.909068	-0.357733	0.506166
C42	C	1.518331	-0.357638	0.780178
C43	C	1.518363	-0.357606	0.896955
C44	C	1.518414	-0.164007	0.506185
C45	C	1.518480	-0.081462	0.506203
C46	C	1.518245	-0.357734	0.233178
C47	C	1.518417	-0.357557	0.116401
C48	C	1.585606	-0.310106	0.951832
C49	C	1.585631	-0.310079	1.061557
C50	C	1.451166	-0.405059	1.061516
C51	C	1.451136	-0.405081	0.951794
C52	C	1.652833	-0.262631	0.896993
C53	C	1.720083	-0.215128	0.951871
C54	C	1.720108	-0.215101	1.061595
C55	C	1.652883	-0.262577	1.116442
H56	H	1.217863	-0.452820	0.640288
C57	C	1.314454	-0.911246	0.451558
C58	C	1.275897	-0.954988	0.533535
C59	C	1.176401	-0.981840	0.506973
H60	H	1.268336	-0.870786	0.439890
H61	H	1.319240	-0.940263	0.389603
H62	H	1.271104	-0.925971	0.595472
H63	H	1.321986	-0.995459	0.545215
H64	H	1.181187	-1.010858	0.445017
H65	H	1.130292	-0.941376	0.495304
H66	H	1.150232	-1.011528	0.562585
H67	H	1.774858	-0.176416	1.106273
C68	C	1.463790	-0.804012	0.302037
C69	C	1.537033	-0.829569	0.228782
C70	C	1.510521	-0.803145	0.129093
H71	H	1.395983	-0.821377	0.283491
H72	H	1.463948	-0.751381	0.302648
H73	H	1.536864	-0.882189	0.228168
H74	H	1.604846	-0.812207	0.247294
H75	H	1.510679	-0.750513	0.129704
H76	H	1.442713	-0.820511	0.110557
H77	H	1.560217	-0.820475	0.079379
C78	C	1.378307	-0.456580	1.121251
C79	C	1.392748	-0.446409	1.229086
C80	C	1.325662	-0.493868	1.284144
H81	H	1.307676	-0.445761	1.103400
H82	H	1.393651	-0.506499	1.103311
H83	H	1.377397	-0.396502	1.247019
H84	H	1.463365	-0.457233	1.246968
H85	H	1.341006	-0.543786	1.266205
H86	H	1.255035	-0.483045	1.266285
H87	H	1.335458	-0.486978	1.357316
C88	C	0.904413	-0.258431	0.366397
C89	C	0.931117	-0.184964	0.389463
C90	C	0.876301	-0.137282	0.322527
H91	H	0.922319	-0.269141	0.295742
H92	H	0.831201	-0.265202	0.376016
H93	H	1.004313	-0.178196	0.379835
H94	H	0.913209	-0.174231	0.460106
H95	H	0.803089	-0.144054	0.332146
H96	H	0.894211	-0.148000	0.251876
H97	H	0.894405	-0.087430	0.338175
H98	H	1.118316	-0.271429	0.384472
C99	C	1.378003	-0.456538	0.892162
C100	C	1.310655	-0.414505	0.829199
C101	C	1.243257	-0.461882	0.774268
H102	H	1.418032	-0.488924	0.849267
H103	H	1.337921	-0.484797	0.940512
H104	H	1.350733	-0.386258	0.780855
H105	H	1.270603	-0.382121	0.872068
H106	H	1.203176	-0.490141	0.822618
H107	H	1.283295	-0.494266	0.731379
H108	H	1.197548	-0.433369	0.731549
C109	C	1.667738	-0.910833	0.356924
C110	C	1.667560	-0.988392	0.358397
C111	C	1.740496	-1.014995	0.285581
H112	H	1.649462	-0.893951	0.288832
H113	H	1.735622	-0.893158	0.374637
H114	H	1.599691	-1.006060	0.340678
H115	H	1.685848	-1.005294	0.426471
H116	H	1.808379	-0.997320	0.303293
H117	H	1.722213	-0.998108	0.217494
H118	H	1.740391	-1.067621	0.286578
C119	C	0.904249	-0.552066	0.780042
C120	C	0.841188	-0.599608	0.720444
C121	C	0.786176	-0.647218	0.787340
H122	H	0.952519	-0.580453	0.820006
H123	H	0.861419	-0.523721	0.825878
H124	H	0.884014	-0.627950	0.674626
H125	H	0.792898	-0.571242	0.680482
H126	H	0.743346	-0.618874	0.833176
H127	H	0.834454	-0.675600	0.827300
H128	H	0.743376	-0.679477	0.746913
H129	H	0.819728	-0.452844	0.640338
C130	C	1.653103	-0.262468	1.235572
C131	C	1.726398	-0.210718	1.271897
C132	C	1.726646	-0.210608	1.381631
H133	H	1.585385	-0.249590	1.260528
H134	H	1.671292	-0.310376	1.260414
H135	H	1.708203	-0.162820	1.247066
H136	H	1.794126	-0.223584	1.246970
H137	H	1.744835	-0.258516	1.406472
H138	H	1.658925	-0.197732	1.406576
H139	H	1.776382	-0.175502	1.406291
H140	H	1.388636	-0.811010	0.635531
H141	H	1.118347	-0.539092	0.761983
H142	H	1.695124	-0.810777	0.553739
C143	C	1.572699	-0.910732	0.710243
C144	C	1.498912	-0.885726	0.783333
C145	C	1.525367	-0.912192	0.883016
H146	H	1.573137	-0.963352	0.709463
H147	H	1.640259	-0.893013	0.729070
H148	H	1.431370	-0.903449	0.764511
H149	H	1.498463	-0.833110	0.784146
H150	H	1.592928	-0.894473	0.901843
H151	H	1.525806	-0.964811	0.882225
H152	H	1.475314	-0.895224	0.932621
C153	C	1.652922	-0.262522	0.777865
C154	C	1.726168	-0.210768	0.741581
C155	C	1.726270	-0.210643	0.631848
H156	H	1.671076	-0.310411	0.752901
H157	H	1.585148	-0.249641	0.753003
H158	H	1.793928	-0.223654	0.766433
H159	H	1.708030	-0.162872	0.766516
H160	H	1.658495	-0.197761	0.606986
H161	H	1.744422	-0.258534	0.606894
H162	H	1.775958	-0.175524	0.607215
H163	H	1.774808	-0.176469	0.907207
