data_functionalizedCrystal
_audit_creation_method	'MofGen! by Chris Wilmer'
_symmetry_space_group_name_H-M	'P1'
_symmetry_Int_Tables_number	1
_symmetry_cell_setting	triclinic
loop_
_symmetry_equiv_pos_as_xyz
  x,y,z
_cell_length_a	29.839125
_cell_length_b	19.805407
_cell_length_c	19.805405
_cell_angle_alpha	89.974605
_cell_angle_beta	89.982556
_cell_angle_gamma	90.014690
loop_
_atom_site_label
_atom_site_type_symbol
_atom_site_fract_x
_atom_site_fract_y
_atom_site_fract_z
Zn1	Zn	-0.254039	-1.034693	-0.269576
Zn2	Zn	0.245961	-0.534693	0.230424
Zn3	Zn	-0.178909	-1.034620	-0.382741
Zn4	Zn	0.321091	-0.534620	0.117259
Zn5	Zn	-0.178918	-0.921520	-0.269570
Zn6	Zn	0.321082	-0.421520	0.230430
Zn7	Zn	-0.254007	-0.921471	-0.382727
Zn8	Zn	0.245993	-0.421471	0.117273
O9	O	-0.216468	-0.978076	-0.326154
O10	O	0.283532	-0.478076	0.173846
O11	O	-0.244082	-1.129400	-0.284597
O12	O	0.255918	-0.629400	0.215403
O13	O	-0.116043	-1.019608	-0.367732
O14	O	0.383957	-0.519608	0.132268
O15	O	-0.188900	-0.936584	-0.174854
O16	O	0.311100	-0.436584	0.325146
O17	O	-0.188885	-1.129347	-0.367739
O18	O	0.311115	-0.629347	0.132261
O19	O	-0.244091	-1.019731	-0.174859
O20	O	0.255909	-0.519731	0.325141
O21	O	-0.116049	-0.936513	-0.284585
O22	O	0.383951	-0.436513	0.215415
O23	O	-0.188869	-0.826797	-0.284571
O24	O	0.311131	-0.326797	0.215429
O25	O	-0.316878	-0.936500	-0.367714
O26	O	0.183122	-0.436500	0.132286
O27	O	-0.244036	-0.826761	-0.367707
O28	O	0.255964	-0.326761	0.132293
O29	O	-0.316901	-1.019684	-0.284583
O30	O	0.183099	-0.519684	0.215417
O31	O	-0.188854	-1.019560	-0.477456
O32	O	0.311146	-0.519560	0.022544
O33	O	-0.244028	-0.936430	-0.477445
O34	O	0.255972	-0.436430	0.022555
C35	C	-0.216450	-0.802220	-0.326137
C36	C	0.283550	-0.302220	0.173863
C37	C	-0.216454	-0.726988	-0.326147
C38	C	0.283546	-0.226988	0.173853
C39	C	-0.245132	-0.691643	-0.369500
C40	C	0.254868	-0.191643	0.130500
C41	C	-0.245137	-0.620955	-0.369500
C42	C	0.254863	-0.120955	0.130500
C43	C	-0.216461	-0.585613	-0.326150
C44	C	0.283539	-0.085613	0.173850
C45	C	-0.187781	-0.620963	-0.282791
C46	C	0.312219	-0.120963	0.217209
C47	C	-0.187779	-0.691650	-0.282789
C48	C	0.312221	-0.191650	0.217211
C49	C	-0.187791	-0.335890	-0.282801
C50	C	0.312209	0.164110	0.217199
C51	C	-0.187795	-0.265197	-0.282809
C52	C	0.312205	0.234803	0.217191
C53	C	-0.245150	-0.265194	-0.369513
C54	C	0.254850	0.234806	0.130487
C55	C	-0.245147	-0.335881	-0.369510
C56	C	0.254853	0.164119	0.130490
C57	C	-0.216469	-0.371225	-0.326150
C58	C	0.283531	0.128775	0.173850
C59	C	-0.216465	-0.447874	-0.326149
C60	C	0.283535	0.052126	0.173851
C61	C	-0.216463	-0.508966	-0.326153
C62	C	0.283537	-0.008966	0.173847
C63	C	-0.333646	-0.978095	-0.326147
C64	C	0.166354	-0.478095	0.173853
C65	C	-0.383581	-0.978102	-0.326145
C66	C	0.116419	-0.478102	0.173855
C67	C	-0.693239	-1.021462	-0.282745
C68	C	-0.193239	-0.521462	0.217255
C69	C	-0.880913	-1.021495	-0.282687
C70	C	-0.380913	-0.521495	0.217313
O71	O	-0.905190	-1.058310	-0.245852
O72	O	-0.405190	-0.558310	0.254148
N73	N	-0.904366	-0.978192	-0.325964
N74	N	-0.404366	-0.478192	0.174036
C75	C	-0.880898	-0.934874	-0.369254
C76	C	-0.380898	-0.434874	0.130746
O77	O	-0.905153	-0.898038	-0.406057
O78	O	-0.405153	-0.398038	0.093943
C79	C	-0.693226	-0.934838	-0.369308
C80	C	-0.193226	-0.434838	0.130692
C81	C	-0.669775	-0.978149	-0.326034
C82	C	-0.169775	-0.478149	0.173966
C83	C	-0.669788	-1.064768	-0.239474
C84	C	-0.169788	-0.564768	0.260526
C85	C	-0.622873	-1.064762	-0.239491
C86	C	-0.122873	-0.564762	0.260509
C87	C	-0.599408	-1.021449	-0.282780
C88	C	-0.099408	-0.521449	0.217220
C89	C	-0.622860	-0.978142	-0.326051
C90	C	-0.122860	-0.478142	0.173949
C91	C	-0.669759	-0.891517	-0.412595
C92	C	-0.169759	-0.391517	0.087405
C93	C	-0.622838	-0.891511	-0.412603
C94	C	-0.122838	-0.391511	0.087397
C95	C	-0.599387	-0.934822	-0.369329
C96	C	-0.099387	-0.434822	0.130671
C97	C	-0.552480	-0.934823	-0.369357
C98	C	-0.052480	-0.434823	0.130643
N99	N	-0.529026	-0.978126	-0.326081
N100	N	-0.029026	-0.478126	0.173919
C101	C	-0.552491	-1.021439	-0.282793
C102	C	-0.052491	-0.521439	0.217207
C103	C	-0.979429	-0.934898	-0.369224
C104	C	-0.479429	-0.434898	0.130776
C105	C	-1.026347	-0.934907	-0.369211
C106	C	-0.526347	-0.434907	0.130789
C107	C	-1.026358	-1.021527	-0.282644
C108	C	-0.526358	-0.521527	0.217356
C109	C	-0.979439	-1.021521	-0.282660
C110	C	-0.479439	-0.521521	0.217340
C111	C	-0.955976	-0.978201	-0.325948
C112	C	-0.455976	-0.478201	0.174052
C113	C	-0.453965	-1.021423	-0.282833
C114	C	0.046035	-0.521423	0.217167
C115	C	-0.407045	-1.021415	-0.282856
C116	C	0.092955	-0.521415	0.217144
C117	C	-0.407038	-0.934793	-0.369421
C118	C	0.092962	-0.434793	0.130579
C119	C	-0.453954	-0.934803	-0.369401
C120	C	0.046046	-0.434803	0.130599
C121	C	-0.477416	-0.978121	-0.326101
C122	C	0.022584	-0.478121	0.173899
O123	O	-0.528173	-0.898022	-0.406169
O124	O	-0.028173	-0.398022	0.093831
O125	O	-0.528228	-1.058259	-0.245985
O126	O	-0.028228	-0.558259	0.254015
C127	C	-0.740155	-1.021468	-0.282728
C128	C	-0.240155	-0.521468	0.217272
C129	C	-0.763606	-0.978161	-0.325999
C130	C	-0.263606	-0.478161	0.174001
C131	C	-0.740142	-0.934848	-0.369287
C132	C	-0.240142	-0.434848	0.130713
C133	C	-0.810524	-0.978171	-0.325986
C134	C	-0.310524	-0.478171	0.174014
C135	C	-0.833988	-1.021484	-0.282698
C136	C	-0.333988	-0.521484	0.217302
C137	C	-0.810535	-1.064787	-0.239422
C138	C	-0.310535	-0.564787	0.260578
C139	C	-0.763619	-1.064781	-0.239439
C140	C	-0.263619	-0.564781	0.260561
C141	C	-0.763595	-0.891545	-0.412564
C142	C	-0.263595	-0.391545	0.087436
C143	C	-0.810511	-0.891555	-0.412543
C144	C	-0.310511	-0.391555	0.087457
C145	C	-0.833975	-0.934868	-0.369255
C146	C	-0.333975	-0.434868	0.130745
C147	C	-0.099745	-0.978097	-0.326111
C148	C	0.400255	-0.478097	0.173889
C149	C	-0.049811	-0.978220	-0.325923
C150	C	0.450189	-0.478220	0.174077
C151	C	-0.216446	-0.978000	-0.502010
C152	C	0.283554	-0.478000	-0.002010
C153	C	-0.216452	-0.978029	-0.577242
C154	C	0.283548	-0.478029	-0.077242
C155	C	-0.216481	-0.154619	-0.326166
C156	C	0.283519	0.345381	0.173834
C157	C	-0.216476	-0.229851	-0.326160
C158	C	0.283524	0.270149	0.173840
C159	C	-0.187753	-1.021357	-0.612569
C160	C	0.312247	-0.521357	-0.112569
C161	C	-0.187763	-1.021386	-0.683257
C162	C	0.312237	-0.521386	-0.183257
C163	C	-0.216470	-0.978083	-0.718617
C164	C	0.283530	-0.478083	-0.218617
C165	C	-0.245172	-0.934753	-0.683285
C166	C	0.254828	-0.434753	-0.183285
C167	C	-0.245164	-0.934728	-0.612598
C168	C	0.254836	-0.434728	-0.112598
C169	C	-0.245205	-0.934853	-0.968358
C170	C	0.254795	-0.434853	-0.468358
C171	C	-0.245210	-0.934880	-1.039050
C172	C	0.254790	-0.434880	-0.539050
C173	C	-0.187804	-1.021511	-1.039018
C174	C	0.312196	-0.521511	-0.539018
C175	C	-0.187796	-1.021486	-0.968330
C176	C	0.312204	-0.521486	-0.468330
C177	C	-0.216500	-0.978159	-0.933004
C178	C	0.283500	-0.478159	-0.433004
C179	C	-0.216489	-0.978129	-0.856356
C180	C	0.283511	-0.478129	-0.356356
C181	C	-0.216478	-0.978109	-0.795264
C182	C	0.283522	-0.478109	-0.295264
C183	C	-0.216500	-0.978171	-0.149611
C184	C	0.283500	-0.478171	0.350389
C185	C	-0.216513	-0.978212	-0.074379
C186	C	0.283487	-0.478212	0.425621
H187	H	-0.268482	-0.720413	-0.404804
H188	H	0.231518	-0.220413	0.095196
Br189	Br	-1.058211	-1.080309	-0.223895
Br190	Br	-0.558211	-0.580309	0.276105
Br191	Br	-0.284061	-0.572988	-0.428338
Br192	Br	0.215939	-0.072988	0.071662
H193	H	-0.960329	-0.899622	-0.404478
H194	H	-0.460329	-0.399622	0.095522
Br195	Br	-0.148850	-1.080315	-1.086964
Br196	Br	0.351150	-0.580315	-0.586964
Br197	Br	-0.148874	-0.217233	-0.223972
Br198	Br	0.351126	0.282767	0.276028
H199	H	-0.268548	-0.899498	-0.712081
H200	H	0.231452	-0.399498	-0.212081
H201	H	-0.164374	-1.056617	-0.583783
H202	H	0.335626	-0.556617	-0.083783
Br203	Br	-0.148815	-1.080195	-0.731199
Br204	Br	0.351185	-0.580195	-0.231199
H205	H	-0.164436	-0.364658	-0.247500
H206	H	0.335564	0.135342	0.252500
Br207	Br	-0.284117	-0.875928	-0.564653
Br208	Br	0.215883	-0.375928	-0.064653
Br209	Br	-0.284070	-0.217224	-0.428362
Br210	Br	0.215930	0.282776	0.071638
H211	H	-0.688845	-0.856249	-0.447833
H212	H	-0.188845	-0.356249	0.052167
Br213	Br	-0.842389	-1.123572	-0.180677
Br214	Br	-0.342389	-0.623572	0.319323
H215	H	-1.045437	-0.899647	-0.404457
H216	H	-0.545437	-0.399647	0.095543
H217	H	-0.268497	-0.364653	-0.404813
H218	H	0.231503	0.135347	0.095187
H219	H	-0.164434	-0.592182	-0.247492
H220	H	0.335566	-0.092182	0.252508
Br221	Br	-0.485781	-0.876029	-0.428135
Br222	Br	0.014219	-0.376029	0.071865
H223	H	-0.829601	-0.856288	-0.447789
H224	H	-0.329601	-0.356288	0.052211
H225	H	-0.164428	-0.720427	-0.247482
H226	H	0.335572	-0.220427	0.252518
H227	H	-0.387953	-1.056687	-0.247617
H228	H	0.112047	-0.556687	0.252383
Br229	Br	-0.590998	-0.832714	-0.471352
Br230	Br	-0.090998	-0.332714	0.028648
Br231	Br	-0.284172	-0.876107	-1.087039
Br232	Br	0.215828	-0.376107	-0.587039
H233	H	-0.473062	-1.056694	-0.247572
H234	H	0.026938	-0.556694	0.252428
H235	H	-0.960348	-1.056787	-0.247421
H236	H	-0.460348	-0.556787	0.252579
Br237	Br	-0.148834	-1.080255	-0.920345
Br238	Br	0.351166	-0.580255	-0.420345
H239	H	-0.603783	-1.100029	-0.204252
H240	H	-0.103783	-0.600029	0.295748
H241	H	-0.688888	-1.100039	-0.204219
H242	H	-0.188888	-0.600039	0.295781
H243	H	-0.744495	-0.856275	-0.447816
H244	H	-0.244495	-0.356275	0.052184
H245	H	-0.268576	-0.899573	-0.939601
H246	H	0.231424	-0.399573	-0.439601
H247	H	-0.387925	-0.899531	-0.404668
H248	H	0.112075	-0.399531	0.095332
H249	H	-0.744530	-1.100049	-0.204200
H250	H	-0.244530	-0.600049	0.295800
