data_functionalizedCrystal
_audit_creation_method	'MofGen! by Chris Wilmer'
_symmetry_space_group_name_H-M	'P1'
_symmetry_Int_Tables_number	1
_symmetry_cell_setting	triclinic
loop_
_symmetry_equiv_pos_as_xyz
  x,y,z
_cell_length_a	19.288864
_cell_length_b	9.065218
_cell_length_c	17.766277
_cell_angle_alpha	89.995554
_cell_angle_beta	89.976791
_cell_angle_gamma	84.076066
loop_
_atom_site_label
_atom_site_type_symbol
_atom_site_fract_x
_atom_site_fract_y
_atom_site_fract_z
O1	O	0.922782	0.184032	-0.062833
O2	O	0.720714	0.208857	-0.062781
O3	O	0.825925	-0.018344	-0.062807
O4	O	0.817571	0.411233	-0.062808
O5	O	0.825906	-0.018356	0.062382
O6	O	0.720695	0.208846	0.062407
O7	O	0.922763	0.184020	0.062355
Cu8	Cu	0.821727	0.196432	0.073812
Cu9	Cu	0.821750	0.196445	-0.074238
O10	O	0.817552	0.411222	0.062381
C11	C	0.694822	0.208053	-0.000180
C12	C	0.617700	0.205655	-0.000161
C13	C	0.574039	0.338966	-0.000173
C14	C	0.501574	0.336713	-0.000181
C15	C	0.472774	0.201142	-0.000192
C16	C	0.516445	0.067812	-0.000176
C17	C	0.588908	0.070069	-0.000160
C18	C	0.363691	0.094571	-0.044077
C19	C	0.291229	0.092320	-0.044097
C20	C	0.249274	0.194176	-0.000238
C21	C	0.279789	0.298308	0.043632
C22	C	0.352252	0.300565	0.043648
C23	C	0.394201	0.198680	-0.000209
C24	C	0.127038	0.325054	-0.000258
C25	C	0.054572	0.322796	-0.000262
C26	C	0.069445	0.053891	-0.000264
C27	C	0.141909	0.056153	-0.000253
C28	C	0.170701	0.191739	-0.000253
C29	C	0.825112	-0.073309	-0.000213
C30	C	0.822712	-0.237067	-0.000216
C31	C	0.948655	0.184825	-0.000247
C32	C	1.025777	0.187223	-0.000272
C33	C	0.818365	0.466186	-0.000214
C34	C	0.820765	0.629945	-0.000216
N35	N	0.821717	0.196421	0.177942
N36	N	0.821766	0.196444	-0.178368
C37	C	0.868320	0.095866	0.217318
C38	C	0.868324	0.095859	0.296120
C39	C	0.821732	0.196433	0.335543
C40	C	0.775120	0.296996	0.296158
C41	C	0.775113	0.296991	0.217358
C42	C	0.813476	0.330849	0.460382
C43	C	0.813489	0.330856	0.539181
C44	C	0.821750	0.196451	0.578589
C45	C	0.830014	0.062032	0.539189
C46	C	0.830007	0.062026	0.460389
C47	C	0.821734	0.196450	0.420989
C48	C	0.868360	0.095879	0.703411
C49	C	0.868359	0.095871	0.782214
C50	C	0.775159	0.297021	0.782251
C51	C	0.775156	0.297017	0.703449
C52	C	0.821761	0.196448	0.664034
H53	H	0.466018	0.445275	-0.000189
H54	H	0.836734	-0.047423	0.428313
Br55	Br	0.249822	-0.048981	-0.103644
H56	H	0.906307	0.013978	0.814274
Br57	Br	0.711882	0.433482	0.349658
Br58	Br	0.802333	0.513277	0.406907
Br59	Br	0.802281	0.513279	0.592645
H60	H	0.737162	0.378876	0.185297
H61	H	0.397845	0.011625	-0.079796
Br62	Br	0.613111	0.522974	-0.000172
H63	H	0.906266	0.013973	0.185229
Br64	Br	0.477361	-0.116180	-0.000184
H65	H	0.245630	0.381248	0.079347
Br66	Br	0.841236	-0.120389	0.592661
Br67	Br	0.030367	-0.130103	-0.000267
H68	H	0.906306	0.013985	0.671318
H69	H	0.906275	0.013971	0.328185
Br70	Br	0.711918	0.433500	0.835747
Br71	Br	0.393664	0.441875	0.103184
Br72	Br	0.711909	0.433496	0.650004
H73	H	0.019024	0.431359	-0.000267
Br74	Br	0.166118	0.509058	-0.000253
H75	H	0.177459	-0.052404	-0.000247
H76	H	0.624457	-0.038493	-0.000151
