data_functionalizedCrystal
_audit_creation_method	'MofGen! by Chris Wilmer'
_symmetry_space_group_name_H-M	'P1'
_symmetry_Int_Tables_number	1
_symmetry_cell_setting	triclinic
loop_
_symmetry_equiv_pos_as_xyz
  x,y,z
_cell_length_a	16.109301
_cell_length_b	10.654550
_cell_length_c	15.186229
_cell_angle_alpha	89.997420
_cell_angle_beta	89.999362
_cell_angle_gamma	83.973192
loop_
_atom_site_label
_atom_site_type_symbol
_atom_site_fract_x
_atom_site_fract_y
_atom_site_fract_z
O1	O	1.104090	0.161419	-0.073171
O2	O	0.862148	0.181507	-0.073184
O3	O	0.988682	-0.011352	-0.073174
O4	O	0.977556	0.354278	-0.073181
O5	O	0.988673	-0.011354	0.073283
O6	O	0.862139	0.181505	0.073273
O7	O	1.104082	0.161416	0.073287
Zn8	Zn	0.983109	0.171460	0.096533
Zn9	Zn	0.983120	0.171463	-0.096431
O10	O	0.977548	0.354275	0.073276
C11	C	0.831164	0.180692	0.000043
C12	C	0.738854	0.178253	0.000037
C13	C	0.517228	0.287019	0.000045
C14	C	0.430494	0.284717	0.000051
C15	C	0.449008	0.055896	0.000052
C16	C	0.535741	0.058199	0.000052
C17	C	0.569848	0.173764	0.000045
C18	C	0.396382	0.169159	0.000050
C19	C	0.302341	0.166662	0.000056
C20	C	0.663895	0.176262	0.000040
C21	C	0.987861	-0.058140	0.000054
C22	C	0.985417	-0.197550	0.000050
C23	C	1.059918	-0.278046	0.000057
C24	C	1.057616	-0.409036	0.000051
C25	C	0.906306	-0.379020	0.000035
C26	C	0.908608	-0.248033	0.000035
C27	C	1.136726	-0.227564	0.000073
C28	C	1.211233	-0.308061	0.000081
C29	C	1.208932	-0.439051	0.000075
C30	C	1.132123	-0.489543	0.000061
C31	C	1.135066	0.162231	0.000058
C32	C	1.227376	0.164671	0.000057
C33	C	0.978369	0.401063	0.000047
C34	C	0.980813	0.540473	0.000044
N35	N	0.983108	0.171457	0.228226
N36	N	0.983129	0.171457	-0.228123
C37	C	1.039156	0.086088	0.453953
C38	C	1.039159	0.086085	0.546143
C39	C	0.927074	0.256830	0.546143
C40	C	0.927068	0.256826	0.453955
C41	C	0.983114	0.171456	0.407862
C42	C	0.983122	0.171457	0.592240
C43	C	0.983125	0.171455	0.692196
C44	C	0.983111	0.171457	0.307900
H45	H	0.544995	0.381119	0.000046
C46	C	1.129588	-0.633628	0.000048
H47	H	1.073176	-0.652166	0.000036
H48	H	1.157006	-0.668814	0.051120
H49	H	1.157010	-0.668790	-0.051032
H50	H	0.578586	-0.034032	0.000054
C51	C	0.372612	0.409293	0.000047
H52	H	0.316072	0.391375	0.000057
H53	H	0.383023	0.456680	-0.051027
H54	H	0.383025	0.456675	0.051126
H55	H	0.881444	0.326338	0.583680
C56	C	0.865420	0.350739	0.403251
H57	H	0.832051	0.401595	0.443904
H58	H	0.830552	0.305547	0.367293
H59	H	0.895632	0.403029	0.367284
C60	C	1.100809	-0.007816	0.596839
H61	H	1.134188	-0.058650	0.556182
H62	H	1.070607	-0.060109	0.632807
H63	H	1.135680	0.037386	0.632796
C64	C	0.411486	-0.071215	0.000049
H65	H	0.352295	-0.056368	0.000039
H66	H	0.429502	-0.117854	0.051120
H67	H	0.429506	-0.117835	-0.051032
H68	H	1.273768	-0.266942	0.000070
C69	C	1.139261	-0.083481	0.000075
H70	H	1.195673	-0.064941	0.000079
H71	H	1.111832	-0.048309	0.051143
H72	H	1.111850	-0.048306	-0.051009
C73	C	0.821823	-0.434553	0.000023
H74	H	0.777781	-0.367850	0.000011
H75	H	0.817774	-0.485032	0.051095
H76	H	0.817788	-0.485022	-0.051058
H77	H	1.269599	-0.504589	0.000072
C78	C	1.100796	-0.007826	0.403254
H79	H	1.134167	-0.058676	0.443911
H80	H	1.135663	0.037356	0.367285
H81	H	1.070579	-0.060120	0.367300
C82	C	0.826659	-0.159482	0.000029
H83	H	0.780585	-0.208306	0.000031
H84	H	0.824419	-0.107759	-0.051045
H85	H	0.824410	-0.107764	0.051107
