data_functionalizedCrystal
_audit_creation_method	'MofGen! by Chris Wilmer'
_symmetry_space_group_name_H-M	'P1'
_symmetry_Int_Tables_number	1
_symmetry_cell_setting	triclinic
loop_
_symmetry_equiv_pos_as_xyz
  x,y,z
_cell_length_a	10.686220
_cell_length_b	19.121063
_cell_length_c	10.685880
_cell_angle_alpha	96.950877
_cell_angle_beta	89.641569
_cell_angle_gamma	96.652836
loop_
_atom_site_label
_atom_site_type_symbol
_atom_site_fract_x
_atom_site_fract_y
_atom_site_fract_z
Zn1	Zn	1.956641	-0.220680	-0.580432
Zn2	Zn	1.932645	-0.330611	-0.379675
Zn3	Zn	1.730668	-0.222121	-0.386872
Zn4	Zn	1.737791	-0.348580	-0.606918
O5	O	1.839436	-0.280498	-0.488474
O6	O	2.129575	-0.227140	-0.539705
O7	O	1.892829	-0.309303	-0.204523
O8	O	1.767706	-0.122999	-0.404476
O9	O	2.111945	-0.307906	-0.392210
O10	O	1.933727	-0.121941	-0.546683
O11	O	1.744438	-0.229595	-0.209810
O12	O	1.555496	-0.247019	-0.430158
O13	O	1.779845	-0.338531	-0.779511
O14	O	1.560729	-0.339928	-0.591825
O15	O	1.940633	-0.244563	-0.760052
O16	O	1.899736	-0.431925	-0.417892
O17	O	1.756577	-0.445127	-0.584846
C18	C	1.512447	-0.295580	-0.514647
C19	C	1.372560	-0.302051	-0.525875
C20	C	1.826362	-0.464177	-0.503487
C21	C	1.820886	-0.542752	-0.509942
C22	C	1.892917	-0.572770	-0.426113
C23	C	1.887775	-0.646600	-0.432191
C24	C	1.810596	-0.690411	-0.522093
C25	C	1.738563	-0.660389	-0.605932
C26	C	1.743712	-0.586560	-0.599859
C27	C	1.791323	-0.913671	-0.544781
C28	C	1.786177	-0.987505	-0.550846
C29	C	1.935391	-0.973711	-0.377105
C30	C	1.940528	-0.899881	-0.371035
C31	C	1.868500	-0.869865	-0.454878
C32	C	1.805336	-0.765877	-0.528306
C33	C	1.873768	-0.794400	-0.448670
C34	C	2.167702	-0.265357	-0.462200
C35	C	2.307590	-0.258905	-0.451004
C36	C	1.863710	-0.293391	-0.816721
C37	C	1.874054	-0.298885	-0.956601
C38	C	1.852598	-0.096101	-0.473428
C39	C	1.858207	-0.017522	-0.467016
C40	C	1.815333	-0.267601	-0.161494
C41	C	1.805247	-0.261896	-0.021580
H42	H	1.955758	-0.537103	-0.352899
C43	C	1.443727	-0.235524	-0.269209
C44	C	1.376965	-0.202353	-0.352874
H45	H	1.486567	-0.200609	-0.208633
H46	H	1.386685	-0.266727	-0.227564
H47	H	1.503222	-0.261724	-0.314691
H48	H	1.317463	-0.176157	-0.307392
H49	H	1.434012	-0.171138	-0.394522
H50	H	1.321160	-0.343946	-0.598564
H51	H	1.738414	-0.226027	-0.970201
C52	C	2.025847	-0.380430	-0.938221
C53	C	1.964278	-0.347317	-1.025956
H54	H	2.081540	-0.410332	-0.981042
H55	H	2.072435	-0.345417	-0.880588
H56	H	1.965319	-0.408009	-0.893546
H57	H	2.024807	-0.319734	-1.070625
H58	H	1.917689	-0.382335	-1.083611
H59	H	1.742494	-0.801557	-0.601502
H60	H	1.946429	-0.671036	-0.363927
H61	H	2.003373	-0.864211	-0.297829
H62	H	1.723345	-1.023175	-0.624076
C63	C	2.097646	-1.048153	-0.353043
C64	C	2.014585	-1.006701	-0.284963
H65	H	2.146548	-1.068514	-0.296156
H66	H	2.050941	-1.084810	-0.407433
H67	H	2.151793	-1.019241	-0.401696
H68	H	1.960431	-1.035614	-0.236317
H69	H	2.061293	-0.970039	-0.230551
C70	C	1.643283	-0.934732	-0.717093
C71	C	1.712125	-0.880684	-0.636918
H72	H	1.594377	-0.914364	-0.773966
H73	H	1.699632	-0.962849	-0.763265
H74	H	1.589136	-0.963631	-0.668419
H75	H	1.766279	-0.851788	-0.685591
H76	H	1.655769	-0.852555	-0.590742
H77	H	1.675728	-0.696066	-0.679138
C78	C	1.595704	-0.607605	-0.772202
C79	C	1.664537	-0.553562	-0.692009
H80	H	1.546824	-0.587233	-0.829091
H81	H	1.652058	-0.635728	-0.818354
H82	H	1.541533	-0.636501	-0.723542
H83	H	1.718715	-0.524670	-0.740668
H84	H	1.608177	-0.525428	-0.645852
H85	H	1.936612	-0.758727	-0.375476
