data_functionalizedCrystal
_audit_creation_method	'MofGen! by Chris Wilmer'
_symmetry_space_group_name_H-M	'P1'
_symmetry_Int_Tables_number	1
_symmetry_cell_setting	triclinic
loop_
_symmetry_equiv_pos_as_xyz
  x,y,z
_cell_length_a	18.101395
_cell_length_b	18.101398
_cell_length_c	16.120256
_cell_angle_alpha	87.130576
_cell_angle_beta	92.874436
_cell_angle_gamma	89.973721
loop_
_atom_site_label
_atom_site_type_symbol
_atom_site_fract_x
_atom_site_fract_y
_atom_site_fract_z
Zn1	Zn	-0.316196	-1.110882	-0.471592
Zn2	Zn	-0.066196	-0.860882	-0.221592
Zn3	Zn	0.183804	-0.610882	0.028408
Zn4	Zn	0.433804	-0.360882	0.278408
Zn5	Zn	-0.433757	-1.117056	-0.332184
Zn6	Zn	-0.183757	-0.867056	-0.082184
Zn7	Zn	0.066243	-0.617056	0.167816
Zn8	Zn	0.316243	-0.367056	0.417816
Zn9	Zn	-0.309923	-0.993320	-0.332174
Zn10	Zn	-0.059923	-0.743320	-0.082174
Zn11	Zn	0.190077	-0.493320	0.167826
Zn12	Zn	0.440077	-0.243320	0.417826
Zn13	Zn	-0.439987	-0.986994	-0.471527
Zn14	Zn	-0.189987	-0.736994	-0.221527
Zn15	Zn	0.060013	-0.486994	0.028473
Zn16	Zn	0.310013	-0.236994	0.278473
O17	O	-0.374966	-1.052063	-0.401869
O18	O	-0.124966	-0.802063	-0.151869
O19	O	0.125034	-0.552063	0.098131
O20	O	0.375034	-0.302063	0.348131
O21	O	-0.331809	-1.215332	-0.453131
O22	O	-0.081809	-0.965332	-0.203131
O23	O	0.168191	-0.715332	0.046869
O24	O	0.418191	-0.465332	0.296869
O25	O	-0.412097	-1.105873	-0.215520
O26	O	-0.162097	-0.855873	0.034480
O27	O	0.087903	-0.605873	0.284480
O28	O	0.337903	-0.355873	0.534480
O29	O	-0.207123	-1.008978	-0.350691
O30	O	0.042877	-0.758978	-0.100691
O31	O	0.292877	-0.508978	0.149309
O32	O	0.542877	-0.258978	0.399309
O33	O	-0.418180	-1.219868	-0.350708
O34	O	-0.168180	-0.969868	-0.100708
O35	O	0.081820	-0.719868	0.149292
O36	O	0.331820	-0.469868	0.399292
O37	O	-0.211732	-1.095350	-0.453121
O38	O	0.038268	-0.845350	-0.203121
O39	O	0.288268	-0.595350	0.046879
O40	O	0.538268	-0.345350	0.296879
O41	O	-0.321117	-1.014965	-0.215513
O42	O	-0.071117	-0.764965	0.034487
O43	O	0.178883	-0.514965	0.284487
O44	O	0.428883	-0.264965	0.534487
O45	O	-0.327158	-0.888849	-0.350628
O46	O	-0.077158	-0.638849	-0.100628
O47	O	0.172842	-0.388849	0.149372
O48	O	0.422842	-0.138849	0.399372
O49	O	-0.428799	-0.998197	-0.588198
O50	O	-0.178799	-0.748197	-0.338198
O51	O	0.071201	-0.498197	-0.088198
O52	O	0.321201	-0.248197	0.161802
O53	O	-0.422716	-0.884202	-0.453010
O54	O	-0.172716	-0.634202	-0.203010
O55	O	0.077284	-0.384202	0.046990
O56	O	0.327284	-0.134202	0.296990
O57	O	-0.337850	-1.089216	-0.588246
O58	O	-0.087850	-0.839216	-0.338246
O59	O	0.162150	-0.589216	-0.088246
O60	O	0.412150	-0.339216	0.161754
O61	O	-0.538215	-1.099740	-0.350645
O62	O	-0.288215	-0.849740	-0.100645
O63	O	-0.038215	-0.599740	0.149355
O64	O	0.211785	-0.349740	0.399355
O65	O	-0.542792	-1.004184	-0.453020
O66	O	-0.292792	-0.754184	-0.203020
O67	O	-0.042792	-0.504184	0.046980
O68	O	0.207208	-0.254184	0.296980
C69	C	-0.567375	-1.051965	-0.401845
C70	C	-0.317375	-0.801965	-0.151845
C71	C	-0.067375	-0.551965	0.098155
C72	C	0.182625	-0.301965	0.348155
C73	C	-0.649690	-1.051989	-0.401862
C74	C	-0.399690	-0.801989	-0.151862
C75	C	-0.149690	-0.551989	0.098138
C76	C	0.100310	-0.301989	0.348138
C77	C	-0.374933	-0.859655	-0.401811
C78	C	-0.124933	-0.609655	-0.151811
C79	C	0.125067	-0.359655	0.098189
C80	C	0.375067	-0.109655	0.348189
C81	C	-0.374937	-0.777341	-0.401806
C82	C	-0.124937	-0.527341	-0.151806
C83	C	0.125063	-0.277341	0.098194
C84	C	0.375063	-0.027341	0.348194
C85	C	-0.384719	-1.042312	-0.619317
C86	C	-0.134719	-0.792312	-0.369317
C87	C	0.115281	-0.542312	-0.119317
C88	C	0.365281	-0.292312	0.130683
C89	C	-0.388876	-1.038157	-0.711980
C90	C	-0.138876	-0.788157	-0.461980
C91	C	0.111124	-0.538157	-0.211980
C92	C	0.361124	-0.288157	0.038020
C93	C	-0.948783	-1.052150	-0.401907
C94	C	-0.698783	-0.802150	-0.151907
C95	C	-0.448783	-0.552150	0.098093
C96	C	-0.198783	-0.302150	0.348093
C97	C	-0.920376	-0.992154	-0.466478
C98	C	-0.670376	-0.742154	-0.216478
C99	C	-0.420376	-0.492154	0.033522
C100	C	-0.170376	-0.242154	0.283522
C101	C	-0.834749	-0.991892	-0.466276
C102	C	-0.584749	-0.741892	-0.216276
C103	C	-0.334749	-0.491892	0.033724
C104	C	-0.084749	-0.241892	0.283724
C105	C	-0.800400	-1.052070	-0.401886
C106	C	-0.550400	-0.802070	-0.151886
C107	C	-0.300400	-0.552070	0.098114
C108	C	-0.050400	-0.302070	0.348114
C109	C	-0.827586	-1.034898	-0.314019
C110	C	-0.577586	-0.784898	-0.064019
C111	C	-0.327586	-0.534898	0.185981
C112	C	-0.077586	-0.284898	0.435981
C113	C	-0.913249	-1.034513	-0.314406
C114	C	-0.663249	-0.784513	-0.064406
C115	C	-0.413249	-0.534513	0.185594
C116	C	-0.163249	-0.284513	0.435594
C117	C	-0.918149	-1.129477	-0.424429
C118	C	-0.668149	-0.879477	-0.174429
C119	C	-0.418149	-0.629477	0.075571
C120	C	-0.168149	-0.379477	0.325571
C121	C	-0.832585	-1.128930	-0.426355
C122	C	-0.582585	-0.878930	-0.176355
C123	C	-0.332585	-0.628930	0.073645
C124	C	-0.082585	-0.378930	0.323645
C125	C	-0.716539	-1.052027	-0.401868
C126	C	-0.466539	-0.802027	-0.151868
C127	C	-0.216539	-0.552027	0.098132
C128	C	0.033461	-0.302027	0.348132
C129	C	-1.032643	-1.052192	-0.401919
C130	C	-0.782643	-0.802192	-0.151919
C131	C	-0.532643	-0.552192	0.098081
C132	C	-0.282643	-0.302192	0.348081
C133	C	-0.181806	-1.052181	-0.401912
C134	C	0.068194	-0.802181	-0.151912
C135	C	0.318194	-0.552181	0.098088
C136	C	0.568194	-0.302181	0.348088
C137	C	-0.099492	-1.052231	-0.401930
C138	C	0.150508	-0.802231	-0.151930
C139	C	0.400508	-0.552231	0.098070
C140	C	0.650508	-0.302231	0.348070
C141	C	-0.374947	-0.626631	-0.401834
C142	C	-0.124947	-0.376631	-0.151834
C143	C	0.125053	-0.126631	0.098166
C144	C	0.375053	0.123369	0.348166
C145	C	-0.314746	-0.598172	-0.337523
C146	C	-0.064746	-0.348172	-0.087523
C147	C	0.185254	-0.098172	0.162477
C148	C	0.435254	0.151828	0.412477
C149	C	-0.314536	-0.512545	-0.337729
C150	C	-0.064536	-0.262545	-0.087729
C151	C	0.185464	-0.012545	0.162271
C152	C	0.435464	0.237455	0.412271
C153	C	-0.374956	-0.478248	-0.401860
C154	C	-0.124956	-0.228248	-0.151860
C155	C	0.125044	0.021752	0.098140
C156	C	0.375044	0.271752	0.348140
C157	C	-0.358092	-0.505426	-0.489820
C158	C	-0.108092	-0.255426	-0.239820
C159	C	0.141908	-0.005426	0.010180
C160	C	0.391908	0.244574	0.260180
C161	C	-0.357654	-0.591088	-0.489433
C162	C	-0.107654	-0.341088	-0.239433
C163	C	0.142346	-0.091088	0.010567
C164	C	0.392346	0.158912	0.260567
C165	C	-0.452195	-0.596058	-0.378958
C166	C	-0.202195	-0.346058	-0.128958
C167	C	0.047805	-0.096058	0.121042
C168	C	0.297805	0.153942	0.371042
C169	C	-0.451691	-0.510493	-0.377036
C170	C	-0.201691	-0.260493	-0.127036
C171	C	0.048309	-0.010493	0.122964
C172	C	0.298309	0.239507	0.372964
C173	C	-0.374963	-0.394387	-0.401880
C174	C	-0.124963	-0.144387	-0.151880
C175	C	0.125037	0.105613	0.098120
C176	C	0.375037	0.355613	0.348120
C177	C	-0.374939	-0.710491	-0.401820
C178	C	-0.124939	-0.460491	-0.151820
C179	C	0.125061	-0.210491	0.098180
C180	C	0.375061	0.039509	0.348180
C181	C	-0.374987	-0.245223	-0.401911
C182	C	-0.124987	0.004777	-0.151911
C183	C	0.125013	0.254777	0.098089
C184	C	0.375013	0.504777	0.348089
C185	C	-0.374966	-0.327538	-0.401887
C186	C	-0.124966	-0.077538	-0.151887
C187	C	0.125034	0.172462	0.098113
C188	C	0.375034	0.422462	0.348113
C189	C	-0.353272	-1.073730	-0.922948
C190	C	-0.103272	-0.823730	-0.672948
C191	C	0.146728	-0.573730	-0.422948
C192	C	0.396728	-0.323730	-0.172948
C193	C	-0.396433	-1.030546	-0.881632
C194	C	-0.146433	-0.780546	-0.631632
C195	C	0.103567	-0.530546	-0.381632
C196	C	0.353567	-0.280546	-0.131632
C197	C	-0.392227	-1.034782	-0.787229
C198	C	-0.142227	-0.784782	-0.537229
C199	C	0.107773	-0.534782	-0.287229
C200	C	0.357773	-0.284782	-0.037229
C201	C	-0.357477	-1.069495	-1.017359
C202	C	-0.107477	-0.819495	-0.767359
C203	C	0.142523	-0.569495	-0.517359
C204	C	0.392523	-0.319495	-0.267359
C205	C	-0.365197	-1.061818	-0.185267
C206	C	-0.115197	-0.811818	0.064733
C207	C	0.134803	-0.561818	0.314733
C208	C	0.384803	-0.311818	0.564733
C209	C	-0.360832	-1.066117	-0.092605
C210	C	-0.110832	-0.816117	0.157395
C211	C	0.139168	-0.566117	0.407395
C212	C	0.389168	-0.316117	0.657395
H213	H	-0.816624	-1.002177	-0.531428
H214	H	-0.566624	-0.752177	-0.281428
H215	H	-0.316624	-0.502177	-0.031428
H216	H	-0.066624	-0.252177	0.218572
Cl217	Cl	-0.805652	-1.149037	-0.526193
Cl218	Cl	-0.555652	-0.899037	-0.276193
Cl219	Cl	-0.305652	-0.649037	-0.026193
Cl220	Cl	-0.055652	-0.399037	0.223807
Cl221	Cl	-0.422764	-0.619675	-0.565973
Cl222	Cl	-0.172764	-0.369675	-0.315973
Cl223	Cl	0.077236	-0.119675	-0.065973
Cl224	Cl	0.327236	0.130325	0.184027
Cl225	Cl	-0.477175	-0.633727	-0.281585
Cl226	Cl	-0.227175	-0.383727	-0.031585
Cl227	Cl	0.022825	-0.133727	0.218415
Cl228	Cl	0.272825	0.116273	0.468415
Cl229	Cl	-0.226043	-0.479891	-0.361177
Cl230	Cl	0.023957	-0.229891	-0.111177
Cl231	Cl	0.273957	0.020109	0.138823
Cl232	Cl	0.523957	0.270109	0.388823
Cl233	Cl	-0.458364	-0.968555	-0.936480
Cl234	Cl	-0.208364	-0.718555	-0.686480
Cl235	Cl	0.041636	-0.468555	-0.436480
Cl236	Cl	0.291636	-0.218555	-0.186480
Cl237	Cl	-0.802165	-0.903274	-0.443246
Cl238	Cl	-0.552165	-0.653274	-0.193246
Cl239	Cl	-0.302165	-0.403274	0.056754
Cl240	Cl	-0.052165	-0.153274	0.306754
Cl241	Cl	-0.952686	-0.904071	-0.443753
Cl242	Cl	-0.702686	-0.654071	-0.193753
Cl243	Cl	-0.452686	-0.404071	0.056247
Cl244	Cl	-0.202686	-0.154071	0.306247
H245	H	-0.931725	-1.076530	-0.264654
H246	H	-0.681725	-0.826530	-0.014654
H247	H	-0.431725	-0.576530	0.235346
H248	H	-0.181725	-0.326530	0.485346
H249	H	-0.942539	-1.145905	-0.487410
H250	H	-0.692539	-0.895905	-0.237410
H251	H	-0.442539	-0.645905	0.012590
H252	H	-0.192539	-0.395905	0.262590
H253	H	-0.943873	-1.002299	-0.531841
H254	H	-0.693873	-0.752299	-0.281841
H255	H	-0.443873	-0.502299	-0.031841
H256	H	-0.193873	-0.252299	0.218159
Cl257	Cl	-0.942861	-0.947423	-0.284955
Cl258	Cl	-0.692861	-0.697423	-0.034955
Cl259	Cl	-0.442861	-0.447423	0.215045
Cl260	Cl	-0.192861	-0.197423	0.465045
Cl261	Cl	-0.792702	-1.100509	-0.237710
Cl262	Cl	-0.542702	-0.850509	0.012290
Cl263	Cl	-0.292702	-0.600509	0.262290
Cl264	Cl	-0.042702	-0.350509	0.512290
Cl265	Cl	-0.291338	-1.135709	-0.868099
Cl266	Cl	-0.041338	-0.885709	-0.618099
Cl267	Cl	0.208662	-0.635709	-0.368099
Cl268	Cl	0.458662	-0.385709	-0.118099
Cl269	Cl	-0.423988	-0.470600	-0.565848
Cl270	Cl	-0.173988	-0.220600	-0.315848
Cl271	Cl	0.076012	0.029400	-0.065848
Cl272	Cl	0.326012	0.279400	0.184152
H273	H	-0.936281	-1.174128	-0.377399
H274	H	-0.686281	-0.924128	-0.127399
H275	H	-0.436281	-0.674128	0.122601
H276	H	-0.186281	-0.424128	0.372601
Cl277	Cl	-0.796491	-1.201108	-0.359044
Cl278	Cl	-0.546491	-0.951108	-0.109044
Cl279	Cl	-0.296491	-0.701108	0.140956
Cl280	Cl	-0.046491	-0.451108	0.390956
Cl281	Cl	-0.793217	-0.948766	-0.284038
Cl282	Cl	-0.543217	-0.698766	-0.034038
Cl283	Cl	-0.293217	-0.448766	0.215962
Cl284	Cl	-0.043217	-0.198766	0.465962
Cl285	Cl	-0.330051	-0.484565	-0.237046
Cl286	Cl	-0.080051	-0.234565	0.012954
Cl287	Cl	0.169949	0.015435	0.262954
Cl288	Cl	0.419949	0.265435	0.512954
H289	H	-0.257747	-0.619044	-0.352516
H290	H	-0.007747	-0.369044	-0.102516
H291	H	0.242253	-0.119044	0.147484
H292	H	0.492253	0.130956	0.397484
Cl293	Cl	-0.330006	-0.634463	-0.236515
Cl294	Cl	-0.080006	-0.384463	0.013485
Cl295	Cl	0.169994	-0.134463	0.263485
Cl296	Cl	0.419994	0.115537	0.513485
H297	H	-0.301315	-0.610222	-0.508769
H298	H	-0.051315	-0.360222	-0.258769
H299	H	0.198685	-0.110222	-0.008769
H300	H	0.448685	0.139778	0.241231
H301	H	-0.302400	-0.483120	-0.509494
H302	H	-0.052400	-0.233120	-0.259494
H303	H	0.197600	0.016880	-0.009494
H304	H	0.447600	0.266880	0.240506
Cl305	Cl	-0.471451	-0.483564	-0.277091
Cl306	Cl	-0.221451	-0.233564	-0.027091
Cl307	Cl	0.028549	0.016436	0.222909
Cl308	Cl	0.278549	0.266436	0.472909
H309	H	-0.498602	-0.487151	-0.420428
H310	H	-0.248602	-0.237151	-0.170428
H311	H	0.001398	0.012849	0.079572
H312	H	0.251398	0.262849	0.329572
H313	H	-0.496995	-0.614222	-0.425799
H314	H	-0.246995	-0.364222	-0.175799
H315	H	0.003005	-0.114222	0.074201
H316	H	0.253005	0.135778	0.324201
