data_functionalizedCrystal
_audit_creation_method	'MofGen! by Chris Wilmer'
_symmetry_space_group_name_H-M	'P1'
_symmetry_Int_Tables_number	1
_symmetry_cell_setting	triclinic
loop_
_symmetry_equiv_pos_as_xyz
  x,y,z
_cell_length_a	6.817900
_cell_length_b	15.866870
_cell_length_c	14.858572
_cell_angle_alpha	112.093349
_cell_angle_beta	104.524003
_cell_angle_gamma	102.655915
loop_
_atom_site_label
_atom_site_type_symbol
_atom_site_fract_x
_atom_site_fract_y
_atom_site_fract_z
V1	V	-4.065742	-0.133334	-0.335668
O2	O	-4.024422	0.005786	-0.282457
O3	O	-4.044008	-0.263781	-0.378402
O4	O	-4.022016	-0.131555	-0.461520
O5	O	-4.046567	-0.127355	-0.198764
V6	V	-4.545308	-0.116661	-0.313823
O7	O	-4.335678	-0.169906	-0.383586
O8	O	-4.725569	-0.080089	-0.265904
O9	O	-4.343835	0.013786	-0.271088
O10	O	-4.704024	-0.255781	-0.367033
O11	O	-4.681880	-0.122640	-0.450726
O12	O	-4.365828	-0.118440	-0.187971
C13	C	-3.895345	-0.295573	-0.384726
C14	C	-3.958894	-0.402217	-0.420506
C15	C	-3.935468	-0.683610	-0.088619
C16	C	-3.995192	-0.783823	-0.122270
C17	C	-4.088163	-0.811550	-0.302100
C18	C	-4.028436	-0.711337	-0.268463
C19	C	-3.952093	-0.647375	-0.161721
C20	C	-4.045061	-0.675101	-0.341565
C21	C	-3.985349	-0.574898	-0.307931
C22	C	-3.909012	-0.510929	-0.201194
C23	C	-3.892381	-0.547171	-0.128087
C24	C	-4.121418	-0.739066	-0.448307
C25	C	-4.138044	-0.702830	-0.521409
C26	C	-4.078317	-0.602624	-0.487775
C27	C	-4.001980	-0.538656	-0.381038
C28	C	-4.094948	-0.566383	-0.560882
C29	C	-4.035236	-0.466179	-0.527248
C30	C	-3.942268	-0.438452	-0.347404
C31	C	-3.867290	-0.126905	-0.490749
C32	C	-3.913000	-0.126314	-0.593930
C33	C	-4.080298	-0.124154	-0.971758
C34	C	-4.033742	-0.124755	-0.866634
C35	C	-3.996650	-0.125235	-0.782847
C36	C	-3.950091	-0.125834	-0.677716
C37	C	-4.155841	0.045573	-0.264763
C38	C	-4.071532	0.152216	-0.228990
C39	C	-4.183896	-0.123093	-0.158737
C40	C	-4.117424	-0.123679	-0.055554
H41	H	-4.200216	-0.754922	-0.608319
O42	O	-3.868337	-0.376217	-0.243752
C43	C	-3.921258	-0.251675	-0.107417
C44	C	-4.005182	-0.322095	-0.224820
H45	H	-4.031884	-0.207914	-0.092070
H46	H	-3.750302	-0.200243	-0.082298
H47	H	-3.919532	-0.294793	-0.060951
H48	H	-4.007050	-0.279057	-0.271368
H49	H	-4.176090	-0.373528	-0.249857
H50	H	-4.157133	-0.618476	-0.647792
O51	O	-4.051423	-0.431133	-0.598391
C52	C	-4.150060	-0.469204	-0.780323
C53	C	-4.131774	-0.509022	-0.699862
H54	H	-4.215066	-0.532158	-0.862381
H55	H	-3.983715	-0.419257	-0.764292
H56	H	-4.265088	-0.426709	-0.773858
H57	H	-4.016839	-0.551560	-0.706281
H58	H	-4.298198	-0.558917	-0.715917
H59	H	-3.830183	-0.495087	-0.041166
O60	O	-3.850669	-0.413563	-0.168381
C61	C	-3.565217	-0.257513	-0.064811
C62	C	-3.631014	-0.367757	-0.101872
H63	H	-3.387611	-0.220449	-0.011050
H64	H	-3.668982	-0.227862	-0.020608
H65	H	-3.590327	-0.242622	-0.135411
H66	H	-3.605899	-0.382733	-0.031332
H67	H	-3.527252	-0.397353	-0.146111
H68	H	-3.873270	-0.631527	-0.001698
O69	O	-4.162022	-0.873581	-0.405803
C70	C	-4.085480	-0.923321	-0.563781
C71	C	-4.001590	-0.852999	-0.446350
H72	H	-3.955795	-0.906719	-0.596594
H73	H	-4.237318	-0.914200	-0.606423
H74	H	-4.125394	-1.001159	-0.575246
H75	H	-3.961551	-0.775132	-0.434788
H76	H	-3.849828	-0.862204	-0.403766
O77	O	-3.978810	-0.818857	-0.051110
C78	C	-3.880428	-0.780781	0.130816
C79	C	-3.898814	-0.740973	0.050346
H80	H	-3.815795	-0.717833	0.212859
H81	H	-3.765242	-0.823203	0.124501
H82	H	-4.046806	-0.830795	0.114648
H83	H	-3.732535	-0.690920	0.066462
H84	H	-4.014108	-0.698608	0.056680
O85	O	-4.179812	-0.836422	-0.481043
C86	C	-4.465202	-0.992484	-0.584699
C87	C	-4.399373	-0.882247	-0.547688
H88	H	-4.642707	-1.029568	-0.638605
H89	H	-4.440361	-1.007457	-0.514155
H90	H	-4.361199	-1.022046	-0.628793
H91	H	-4.503327	-0.852610	-0.503613
H92	H	-4.424158	-0.867340	-0.618272
