data_functionalizedCrystal
_audit_creation_method	'MofGen! by Chris Wilmer'
_symmetry_space_group_name_H-M	'P1'
_symmetry_Int_Tables_number	1
_symmetry_cell_setting	triclinic
loop_
_symmetry_equiv_pos_as_xyz
  x,y,z
_cell_length_a	16.109301
_cell_length_b	16.109301
_cell_length_c	14.586319
_cell_angle_alpha	90.005214
_cell_angle_beta	89.996501
_cell_angle_gamma	96.538519
loop_
_atom_site_label
_atom_site_type_symbol
_atom_site_fract_x
_atom_site_fract_y
_atom_site_fract_z
O1	O	1.103131	-0.106866	-0.076243
O2	O	1.603131	0.393134	0.423757
O3	O	0.861069	-0.120165	-0.076245
O4	O	1.361069	0.379835	0.423755
O5	O	0.988749	0.007515	-0.076235
O6	O	1.488749	0.507515	0.423765
O7	O	0.975450	-0.234547	-0.076254
O8	O	1.475450	0.265453	0.423746
O9	O	0.988741	0.007517	0.076246
O10	O	1.488741	0.507517	0.576246
O11	O	0.861060	-0.120164	0.076236
O12	O	1.361060	0.379836	0.576236
O13	O	1.103122	-0.106864	0.076238
O14	O	1.603122	0.393136	0.576238
Cu15	Cu	0.982090	-0.113514	0.090159
Cu16	Cu	1.482090	0.386486	0.590159
Cu17	Cu	0.982101	-0.113516	-0.090167
Cu18	Cu	1.482101	0.386484	0.409833
O19	O	0.975441	-0.234545	0.076227
O20	O	1.475441	0.265455	0.576227
C21	C	0.830090	-0.119626	-0.000005
C22	C	1.330090	0.380374	0.499995
C23	C	0.737794	-0.118011	-0.000006
C24	C	1.237794	0.381989	0.499994
C25	C	1.134101	-0.107404	-0.000004
C26	C	1.634101	0.392596	0.499996
C27	C	1.226397	-0.109019	-0.000010
C28	C	1.726397	0.390981	0.499990
C29	C	1.448669	-0.037011	0.000000
C30	C	1.948669	0.462989	0.500000
C31	C	1.535389	-0.038535	0.000003
C32	C	2.035389	0.461465	0.500003
C33	C	1.515515	-0.190024	-0.000013
C34	C	2.015515	0.309976	0.499987
C35	C	1.428796	-0.188499	-0.000010
C36	C	1.928796	0.311501	0.499990
C37	C	1.395376	-0.111990	-0.000008
C38	C	1.895376	0.388010	0.499992
C39	C	1.568815	-0.115039	-0.000008
C40	C	2.068815	0.384961	0.499992
C41	C	1.662841	-0.116692	-0.000005
C42	C	2.162841	0.383308	0.499995
C43	C	1.301344	-0.110337	-0.000009
C44	C	1.801344	0.389663	0.499991
C45	C	0.988206	0.038491	0.000006
C46	C	1.488206	0.538491	0.500006
C47	C	0.986591	0.130786	0.000007
C48	C	1.486591	0.630786	0.500007
C49	C	0.975984	-0.265521	-0.000016
C50	C	1.475984	0.234479	0.499984
C51	C	0.977600	-0.357816	-0.000023
C52	C	1.477600	0.142184	0.499977
N53	N	0.982089	-0.113512	0.216991
N54	N	1.482089	0.386488	0.716991
C55	C	1.058599	0.353059	-0.000006
C56	C	1.558599	0.853059	0.499994
C57	C	1.057075	0.439779	-0.000014
C58	C	1.557075	0.939779	0.499986
C59	C	0.905586	0.419905	-0.000012
C60	C	1.405586	0.919905	0.499988
C61	C	0.907111	0.333186	-0.000011
C62	C	1.407111	0.833186	0.499989
C63	C	0.983620	0.299766	-0.000003
C64	C	1.483620	0.799766	0.499997
C65	C	0.980571	0.473205	-0.000012
C66	C	1.480571	0.973205	0.499988
C67	C	0.978918	0.567231	-0.000020
C68	C	1.478918	1.067231	0.499980
C69	C	0.985273	0.205734	0.000003
C70	C	1.485273	0.705734	0.500003
N71	N	0.982109	-0.113511	-0.216999
N72	N	1.482109	0.386489	0.283001
C73	C	1.038645	-0.056994	0.452002
C74	C	1.538645	0.443006	0.952002
C75	C	1.038647	-0.056992	0.547983
C76	C	1.538647	0.443008	1.047983
C77	C	0.925547	-0.170032	0.547984
C78	C	1.425547	0.329968	1.047984
C79	C	0.925541	-0.170030	0.452004
C80	C	1.425541	0.329970	0.952004
C81	C	0.982095	-0.113511	0.404016
C82	C	1.482095	0.386489	0.904016
C83	C	0.982103	-0.113512	0.595977
C84	C	1.482103	0.386488	1.095977
C85	C	0.982105	-0.113510	0.700044
C86	C	1.482105	0.386490	1.200044
C87	C	0.982092	-0.113512	0.299942
C88	C	1.482092	0.386488	0.799942
H89	H	1.421461	0.025287	0.000004
H90	H	1.921461	0.525287	0.500004
H91	H	0.846050	0.289792	-0.000011
H92	H	1.346050	0.789792	0.499989
H93	H	1.578778	0.022520	0.000011
H94	H	2.078778	0.522520	0.500011
H95	H	1.118130	0.483168	-0.000018
H96	H	1.618130	0.983168	0.499982
O97	O	1.551560	-0.272543	-0.000025
O98	O	2.051560	0.227457	0.499975
H99	H	1.620815	-0.261008	-0.000036
H100	H	2.120815	0.238992	0.499964
H101	H	1.084693	-0.010972	0.412932
H102	H	1.584693	0.489028	0.912932
O103	O	0.823071	0.455957	-0.000012
O104	O	1.323071	0.955957	0.499988
H105	H	0.771189	0.404327	-0.000019
H106	H	1.271189	0.904327	0.499981
O107	O	1.099650	0.003956	0.599744
O108	O	1.599650	0.503956	1.099744
H109	H	1.138978	0.043247	0.550247
H110	H	1.638978	0.543247	1.050247
H111	H	1.385402	-0.249560	-0.000013
H112	H	1.885402	0.250440	0.499987
H113	H	1.120897	0.325851	-0.000002
H114	H	1.620897	0.825851	0.499998
H115	H	0.879503	-0.216049	0.587065
H116	H	1.379503	0.283951	1.087065
O117	O	0.864548	-0.230993	0.400236
O118	O	1.364548	0.269007	0.900236
H119	H	0.825233	-0.270303	0.449728
H120	H	1.325233	0.229697	0.949728
