data_functionalizedCrystal
_audit_creation_method	'MofGen! by Chris Wilmer'
_symmetry_space_group_name_H-M	'P1'
_symmetry_Int_Tables_number	1
_symmetry_cell_setting	triclinic
loop_
_symmetry_equiv_pos_as_xyz
  x,y,z
_cell_length_a	16.109318
_cell_length_b	10.540510
_cell_length_c	14.586319
_cell_angle_alpha	89.998684
_cell_angle_beta	90.000075
_cell_angle_gamma	83.990937
loop_
_atom_site_label
_atom_site_type_symbol
_atom_site_fract_x
_atom_site_fract_y
_atom_site_fract_z
O1	O	1.104109	0.163266	-0.076159
O2	O	0.862171	0.183548	-0.076177
O3	O	0.988673	-0.011380	-0.076167
O4	O	0.977607	0.358194	-0.076169
O5	O	0.988664	-0.011383	0.076314
O6	O	0.862162	0.183545	0.076304
O7	O	1.104100	0.163263	0.076322
Cu8	Cu	0.983130	0.173404	0.090236
Cu9	Cu	0.983141	0.173407	-0.090091
O10	O	0.977599	0.358191	0.076312
C11	C	0.831187	0.182721	0.000061
C12	C	0.738878	0.180247	0.000054
C13	C	0.439761	0.172255	-0.083047
C14	C	0.526496	0.174572	-0.083053
C15	C	0.526505	0.174552	0.083190
C16	C	0.439772	0.172226	0.083195
C17	C	0.396401	0.171084	0.000074
C18	C	0.569870	0.175727	0.000063
C19	C	0.663912	0.178239	0.000058
C20	C	0.302353	0.168570	0.000079
C21	C	0.987844	-0.058674	0.000071
C22	C	0.985377	-0.199589	0.000066
C23	C	1.073257	-0.418289	0.000421
C24	C	1.075888	-0.271730	0.000073
C25	C	0.939049	-0.243689	-0.087010
C26	C	0.937058	-0.390422	-0.087078
C27	C	0.935163	-0.390207	0.086321
C28	C	0.939456	-0.243927	0.087467
C29	C	1.135084	0.164090	0.000082
C30	C	1.227393	0.166565	0.000083
C31	C	0.978428	0.405485	0.000072
C32	C	0.980895	0.546400	0.000071
N33	N	0.983129	0.173401	0.217067
N34	N	0.983149	0.173400	-0.216922
C35	C	1.039163	0.087115	0.452078
C36	C	1.039165	0.087112	0.548059
C37	C	0.927109	0.259690	0.548060
C38	C	0.927103	0.259686	0.452081
C39	C	0.983135	0.173400	0.404092
C40	C	0.983143	0.173401	0.596053
C41	C	0.983145	0.173398	0.700120
C42	C	0.983132	0.173401	0.300018
H43	H	0.404468	0.171271	0.150886
H44	H	1.112355	-0.243840	-0.062448
H45	H	1.084787	0.016850	0.587127
C46	C	0.979846	-0.445369	-0.174997
C47	C	0.930725	-0.519269	-0.243875
C48	C	0.973516	-0.574209	-0.331794
C49	C	1.065430	-0.555249	-0.350836
C50	C	1.114556	-0.481345	-0.281956
C51	C	1.071765	-0.426405	-0.194037
H52	H	0.862680	-0.533307	-0.229781
H53	H	0.937149	-0.628917	-0.382783
H54	H	1.097106	-0.595919	-0.415919
H55	H	1.182601	-0.467307	-0.296050
H56	H	1.108132	-0.371697	-0.143048
H57	H	0.971229	-0.213287	-0.151807
C58	C	1.124869	-0.232774	0.084386
C59	C	1.161856	-0.335118	0.152506
C60	C	1.210847	-0.296172	0.236817
C61	C	1.222850	-0.154882	0.253008
C62	C	1.185862	-0.052529	0.184886
C63	C	1.136871	-0.091476	0.100575
H64	H	1.152971	-0.439717	0.140522
H65	H	1.238228	-0.371941	0.287246
H66	H	1.259116	-0.126052	0.315421
H67	H	1.194747	0.052070	0.196870
H68	H	1.109491	-0.015706	0.050147
H69	H	0.963923	-0.432798	0.152324
H70	H	0.561795	0.175524	-0.150738
H71	H	1.084786	0.016854	0.413008
C72	C	0.865470	0.354606	0.399287
C73	C	0.803868	0.449566	0.452067
C74	C	0.742235	0.544476	0.399273
C75	C	0.742204	0.544427	0.293699
C76	C	0.803808	0.449464	0.240914
C77	C	0.865441	0.354554	0.293708
H78	H	0.803888	0.449605	0.530224
H79	H	0.696631	0.614774	0.438349
H80	H	0.696580	0.614686	0.254618
H81	H	0.803788	0.449425	0.162756
H82	H	0.911045	0.284256	0.254632
H83	H	0.404451	0.171324	-0.150730
H84	H	0.561827	0.175484	0.150865
C85	C	1.120902	-0.475661	0.084771
C86	C	1.076529	-0.555281	0.154368
C87	C	1.124176	-0.612670	0.238718
C88	C	1.216196	-0.590440	0.253471
C89	C	1.260574	-0.510817	0.183872
C90	C	1.212927	-0.453427	0.099522
H91	H	1.008405	-0.571740	0.143449
H92	H	1.091324	-0.671612	0.290240
H93	H	1.251467	-0.632923	0.315912
H94	H	1.328697	-0.494357	0.194792
H95	H	1.245779	-0.394485	0.048001
H96	H	0.869361	-0.412459	-0.091028
C97	C	1.120628	-0.477711	-0.083460
C98	C	1.075815	-0.558074	-0.152177
C99	C	1.123183	-0.617495	-0.236060
C100	C	1.215363	-0.596553	-0.251226
C101	C	1.260181	-0.516186	-0.182507
C102	C	1.212813	-0.456765	-0.098624
H103	H	1.007574	-0.573580	-0.140952
H104	H	1.090006	-0.676988	-0.286931
H105	H	1.250428	-0.640540	-0.313322
H106	H	1.328422	-0.500680	-0.193732
H107	H	1.245990	-0.397272	-0.047754
H108	H	0.872416	-0.195357	-0.090253
C109	C	0.850183	-0.176383	0.094565
C110	C	0.786693	-0.192054	0.017528
C111	C	0.697416	-0.124509	0.024615
C112	C	0.671628	-0.041293	0.108740
C113	C	0.735119	-0.025620	0.185783
C114	C	0.824396	-0.093165	0.178695
H115	H	0.805782	-0.253658	-0.044752
H116	H	0.650416	-0.136112	-0.032418
H117	H	0.605540	0.008707	0.113986
H118	H	0.716031	0.035984	0.248062
H119	H	0.871396	-0.081561	0.235728
C120	C	0.984992	-0.205890	0.174487
C121	C	0.994383	-0.064450	0.193709
C122	C	1.039923	-0.026392	0.280722
C123	C	1.076072	-0.129775	0.348511
C124	C	1.066682	-0.271225	0.329290
C125	C	1.021142	-0.309282	0.242278
H126	H	0.967622	0.012088	0.143526
H127	H	1.046874	0.078318	0.294950
H128	H	1.109784	-0.101603	0.412923
H129	H	1.093443	-0.347763	0.379474
H130	H	1.014191	-0.413993	0.228049
H131	H	0.867206	-0.411395	0.086902
H132	H	0.881491	0.329944	0.587142
