data_functionalizedCrystal
_audit_creation_method	'MofGen! by Chris Wilmer'
_symmetry_space_group_name_H-M	'P1'
_symmetry_Int_Tables_number	1
_symmetry_cell_setting	triclinic
loop_
_symmetry_equiv_pos_as_xyz
  x,y,z
_cell_length_a	17.077404
_cell_length_b	14.908520
_cell_length_c	17.077396
_cell_angle_alpha	86.731679
_cell_angle_beta	90.018362
_cell_angle_gamma	93.318621
loop_
_atom_site_label
_atom_site_type_symbol
_atom_site_fract_x
_atom_site_fract_y
_atom_site_fract_z
Zn1	Zn	1.182021	-0.359207	0.461847
Zn2	Zn	1.174354	-0.510079	0.338153
Zn3	Zn	1.050752	-0.359233	0.330599
Zn4	Zn	1.043150	-0.510019	0.469376
O5	O	1.112569	-0.434635	0.399993
O6	O	1.290850	-0.379235	0.445449
O7	O	1.157930	-0.490104	0.227305
O8	O	1.074555	-0.232985	0.341697
O9	O	1.285217	-0.490079	0.354571
O10	O	1.170998	-0.232966	0.438124
O11	O	1.067120	-0.379279	0.221755
O12	O	0.939897	-0.379221	0.348997
O13	O	1.061598	-0.489978	0.578222
O14	O	0.934312	-0.490003	0.450956
O15	O	1.163627	-0.379177	0.572691
O16	O	1.150559	-0.636315	0.361872
O17	O	1.054164	-0.636272	0.458281
C18	C	0.908622	-0.434609	0.399974
C19	C	0.821372	-0.434620	0.399986
C20	C	0.783311	-0.377006	0.447388
C21	C	0.701330	-0.377012	0.447392
C22	C	0.657412	-0.434637	0.399998
C23	C	0.695479	-0.492253	0.352590
C24	C	0.777458	-0.492242	0.352583
C25	C	0.524608	-0.492274	0.352611
C26	C	0.442623	-0.492286	0.352619
C27	C	0.448479	-0.377043	0.447420
C28	C	0.530459	-0.377032	0.447412
C29	C	0.568520	-0.434650	0.400006
C30	C	1.100726	-0.669027	0.411730
C31	C	1.095731	-0.769302	0.416778
C32	C	1.186825	-0.957712	0.325952
C33	C	1.182135	-1.051929	0.330692
C34	C	1.081665	-1.051953	0.431001
C35	C	1.086355	-0.957736	0.426261
C36	C	1.138936	-0.910619	0.373734
C37	C	1.143622	-0.816401	0.368991
C38	C	1.043156	-0.816427	0.469303
C39	C	1.038466	-0.910644	0.474043
C40	C	1.317312	-0.434661	0.400013
C41	C	1.404561	-0.434672	0.400021
C42	C	1.112620	-0.434568	0.604734
C43	C	1.112642	-0.434540	0.691983
C44	C	1.124480	-0.199327	0.388228
C45	C	1.129555	-0.099052	0.383214
C46	C	1.112567	-0.434636	0.196046
C47	C	1.112710	-0.434410	0.108785
C48	C	1.165770	-0.376841	0.730094
C49	C	1.165781	-0.376811	0.812073
C50	C	1.112667	-0.434485	0.855940
C51	C	1.059533	-0.492186	0.817823
C52	C	1.059519	-0.492211	0.735845
C53	C	1.059567	-0.492132	0.988691
C54	C	1.059582	-0.492109	1.070674
C55	C	1.165829	-0.376732	1.064918
C56	C	1.165815	-0.376757	0.982940
C57	C	1.112682	-0.434460	0.944829
H58	H	0.566215	-0.330114	0.486010
Cl59	Cl	0.640268	-0.564692	0.293004
Cl60	Cl	1.252913	-0.898476	0.259909
Cl61	Cl	0.387411	-0.564752	0.293057
Cl62	Cl	0.972370	-0.969885	0.540075
Cl63	Cl	0.982939	-0.757220	0.529364
Cl64	Cl	0.653485	-0.304582	0.506988
Cl65	Cl	1.232606	-0.304312	0.859982
H66	H	1.209024	-0.329879	0.694383
Cl67	Cl	1.209720	-0.757169	0.302955
H68	H	0.808447	-0.539157	0.313983
H69	H	0.417486	-0.330127	0.486018
Cl70	Cl	1.232592	-0.304257	0.927794
Cl71	Cl	1.232626	-0.304193	1.112828
H72	H	1.221132	-1.090268	0.291785
H73	H	1.038861	-1.090332	0.473771
H74	H	1.016330	-0.539070	1.106388
H75	H	1.016289	-0.539106	0.957663
H76	H	1.016284	-0.539142	0.853546
H77	H	1.016249	-0.539186	0.704816
Cl78	Cl	0.838514	-0.304562	0.506976
Cl79	Cl	0.572455	-0.564715	0.293019
