data_functionalizedCrystal
_audit_creation_method	'MofGen! by Chris Wilmer'
_symmetry_space_group_name_H-M	'P1'
_symmetry_Int_Tables_number	1
_symmetry_cell_setting	triclinic
loop_
_symmetry_equiv_pos_as_xyz
  x,y,z
_cell_length_a	17.699077
_cell_length_b	15.995292
_cell_length_c	16.176319
_cell_angle_alpha	89.996390
_cell_angle_beta	89.993140
_cell_angle_gamma	83.374596
loop_
_atom_site_label
_atom_site_type_symbol
_atom_site_fract_x
_atom_site_fract_y
_atom_site_fract_z
O1	O	1.004238	0.105864	-0.068730
O2	O	0.783879	0.119646	-0.068733
O3	O	0.900105	-0.009148	-0.068733
O4	O	0.888012	0.234659	-0.068730
O5	O	0.900089	-0.009156	0.068761
O6	O	0.783863	0.119638	0.068760
O7	O	1.004222	0.105856	0.068763
Cu8	Cu	0.894041	0.112746	0.081316
Cu9	Cu	0.894060	0.112756	-0.081286
O10	O	0.887996	0.234650	0.068763
C11	C	0.755673	0.119149	0.000013
C12	C	0.671653	0.117670	0.000012
C13	C	0.632176	0.116969	0.074960
C14	C	0.553231	0.115566	0.074961
C15	C	0.513764	0.114870	0.000012
C16	C	0.553247	0.115569	-0.074942
C17	C	0.632191	0.116966	-0.074942
C18	C	0.234876	0.109934	-0.074943
C19	C	0.155926	0.108540	-0.074938
C20	C	0.155915	0.108534	0.074959
C21	C	0.234859	0.109931	0.074959
C22	C	0.274336	0.110625	0.000006
C23	C	0.359937	0.112145	0.000005
C24	C	0.428164	0.113356	0.000012
C25	C	0.899605	-0.040347	0.000012
C26	C	0.898129	-0.133297	0.000006
C27	C	0.892704	-0.471024	0.000013
C28	C	0.976593	-0.447884	0.000322
C29	C	0.978188	-0.351212	0.000009
C30	C	0.895396	-0.303474	0.000010
C31	C	0.853465	-0.332484	-0.078503
C32	C	0.852455	-0.429272	-0.078566
C33	C	0.850724	-0.429135	0.077789
C34	C	0.853832	-0.332649	0.078824
C35	C	0.896913	-0.208781	0.000005
C36	C	0.891185	-0.565717	0.000012
C37	C	1.032427	0.106353	0.000016
C38	C	1.116448	0.107832	0.000012
C39	C	0.888496	0.265849	0.000017
C40	C	0.889972	0.358799	0.000017
N41	N	0.894033	0.112739	0.195681
N42	N	0.894074	0.112757	-0.195651
C43	C	0.945513	0.055732	0.238946
C44	C	0.945517	0.055731	0.325493
C45	C	0.894044	0.112742	0.368774
C46	C	0.842558	0.169751	0.325503
C47	C	0.842551	0.169748	0.238958
C48	C	0.842584	0.169767	0.674532
C49	C	0.842596	0.169768	0.761083
C50	C	0.945550	0.055751	0.761066
C51	C	0.945543	0.055747	0.674521
C52	C	0.894055	0.112753	0.631258
C53	C	0.894051	0.112752	0.537414
C54	C	0.894051	0.112747	0.462616
H55	H	1.011028	-0.332258	0.056289
H56	H	0.882596	-0.312480	-0.136933
C57	C	0.891665	-0.465574	-0.157871
H58	H	0.908068	-0.421148	-0.189742
H59	H	0.856771	-0.493513	-0.189237
H60	H	0.934350	-0.504445	-0.143565
H61	H	0.800643	0.216168	0.360748
C62	C	0.278289	0.110707	-0.157389
H63	H	0.243474	0.110103	-0.202023
H64	H	0.314869	0.062443	-0.160510
H65	H	0.303299	0.160068	-0.160504
H66	H	0.800677	0.216195	0.796321
H67	H	0.521108	0.114997	-0.135966
H68	H	0.877135	-0.457282	0.137302
H69	H	0.521094	0.114981	0.135991
H70	H	0.664332	0.117539	-0.135973
C71	C	0.895052	-0.307629	0.157295
H72	H	0.869637	-0.325444	0.204762
H73	H	0.894899	-0.248240	0.158725
H74	H	0.946048	-0.333774	0.156815
H75	H	0.790948	-0.443696	-0.082123
H76	H	0.800630	0.216167	0.203733
H77	H	1.008921	-0.475952	0.056627
C78	C	1.020042	-0.487158	-0.075316
H79	H	0.987279	-0.517594	-0.107084
H80	H	1.062626	-0.524262	-0.057263
H81	H	1.037013	-0.443841	-0.108276
H82	H	0.664303	0.117542	0.135992
H83	H	0.793402	-0.299555	0.083566
H84	H	1.011235	-0.332872	-0.056370
H85	H	0.987432	0.009311	0.203712
C86	C	0.771166	-0.289260	-0.082456
H87	H	0.761626	-0.253048	-0.036150
H88	H	0.736864	-0.330761	-0.081727
H89	H	0.764241	-0.257288	-0.131929
H90	H	0.266989	0.110501	0.135990
C91	C	0.767309	-0.447861	0.078509
H92	H	0.758080	-0.481043	0.031669
H93	H	0.734605	-0.396443	0.076784
H94	H	0.757785	-0.477668	0.127510
C95	C	1.002179	-0.006964	0.808658
H96	H	0.994808	0.001193	0.866400
H97	H	1.052686	0.002058	0.794463
H98	H	0.993968	-0.062839	0.794478
H99	H	0.800662	0.216185	0.639314
H100	H	0.123765	0.107965	0.135990
C101	C	0.112511	0.107769	-0.157382
H102	H	0.059840	0.106848	-0.146644
H103	H	0.131231	0.059188	-0.188177
H104	H	0.119667	0.156813	-0.188181
C105	C	1.002153	-0.006968	0.373080
H106	H	1.032815	-0.040913	0.334908
H107	H	0.974947	-0.041791	0.406854
H108	H	1.033651	0.023122	0.406828
H109	H	0.987460	0.009327	0.639284
