data_functionalizedCrystal
_audit_creation_method	'MofGen! by Chris Wilmer'
_symmetry_space_group_name_H-M	'P1'
_symmetry_Int_Tables_number	1
_symmetry_cell_setting	triclinic
loop_
_symmetry_equiv_pos_as_xyz
  x,y,z
_cell_length_a	10.723024
_cell_length_b	11.026607
_cell_length_c	9.198806
_cell_angle_alpha	89.998911
_cell_angle_beta	89.996352
_cell_angle_gamma	96.526943
loop_
_atom_site_label
_atom_site_type_symbol
_atom_site_fract_x
_atom_site_fract_y
_atom_site_fract_z
O1	O	1.693992	0.170518	-0.120878
O2	O	1.334363	0.186840	-0.120883
O3	O	1.484372	0.001778	-0.120876
O4	O	1.543983	0.355580	-0.120886
O5	O	1.484357	0.001777	0.120909
O6	O	1.334348	0.186840	0.120902
O7	O	1.693977	0.170518	0.120907
Cu8	Cu	1.514161	0.178679	0.142981
Cu9	Cu	1.514179	0.178679	-0.142958
O10	O	1.543968	0.355580	0.120899
C11	C	1.287599	0.185652	0.000009
C12	C	1.148278	0.182098	0.000007
C13	C	1.095646	0.285649	0.000003
C14	C	0.951650	0.281979	0.000001
C15	C	1.473367	-0.043525	0.000015
C16	C	1.440584	-0.178512	0.000009
C17	C	1.531104	-0.251564	0.000008
C18	C	1.497223	-0.391080	0.000003
C19	C	1.740741	0.171706	0.000011
C20	C	1.880062	0.175259	0.000004
C21	C	1.554973	0.400883	0.000006
C22	C	1.587756	0.535869	0.000002
N23	N	1.514157	0.178677	0.344095
N24	N	1.514191	0.178671	-0.344072
C25	C	1.577068	0.100633	0.416295
C26	C	1.577086	0.100628	0.583707
H27	H	1.086734	0.090727	-0.000028
H28	H	1.460305	0.245487	0.406221
C29	C	1.178774	0.409089	-0.000002
H30	H	1.264651	0.395362	-0.000010
H31	H	1.161478	0.454031	0.084309
H32	H	1.161489	0.454022	-0.084333
C33	C	0.890466	0.401739	-0.000002
H34	H	0.801712	0.383562	0.000007
H35	H	0.915969	0.447772	-0.084316
H36	H	0.915955	0.447764	0.084326
C37	C	0.941232	0.055490	0.000001
H38	H	0.877638	-0.011939	-0.000010
H39	H	0.991894	0.052252	0.084312
H40	H	0.991894	0.052262	-0.084330
H41	H	1.394636	-0.431820	-0.000008
C42	C	1.669683	-0.196533	0.000015
H43	H	1.674275	-0.109981	0.000029
H44	H	1.710144	-0.222825	-0.084297
H45	H	1.710123	-0.222831	0.084345
C46	C	1.726343	-0.409108	0.000017
H47	H	1.730938	-0.322556	0.000033
H48	H	1.766808	-0.435399	-0.084293
H49	H	1.766777	-0.435410	0.084349
H50	H	1.338003	-0.219257	-0.000002
H51	H	1.630909	0.033813	0.354172
C52	C	1.649851	0.010358	0.667568
H53	H	1.689314	-0.038599	0.600540
H54	H	1.593351	-0.040468	0.726959
H55	H	1.711801	0.054455	0.726928
C56	C	1.441426	0.268947	0.572077
H57	H	1.401976	0.317914	0.639106
H58	H	1.379485	0.224861	0.512708
H59	H	1.497939	0.319779	0.512695
