data_functionalizedCrystal
_audit_creation_method	'MofGen! by Chris Wilmer'
_symmetry_space_group_name_H-M	'P1'
_symmetry_Int_Tables_number	1
_symmetry_cell_setting	triclinic
loop_
_symmetry_equiv_pos_as_xyz
  x,y,z
_cell_length_a	16.974800
_cell_length_b	14.853559
_cell_length_c	15.455313
_cell_angle_alpha	92.670929
_cell_angle_beta	90.973911
_cell_angle_gamma	83.510332
loop_
_atom_site_label
_atom_site_type_symbol
_atom_site_fract_x
_atom_site_fract_y
_atom_site_fract_z
O1	O	1.049197	0.114925	0.001552
O2	O	1.549197	0.614925	0.501552
O3	O	0.819779	0.128693	-0.014560
O4	O	1.319779	0.628693	0.485440
O5	O	0.940620	-0.009414	-0.006073
O6	O	1.440620	0.490586	0.493927
O7	O	0.928357	0.253033	-0.006936
O8	O	1.428357	0.753033	0.493064
O9	O	0.933709	-0.001549	0.137704
O10	O	1.433709	0.498451	0.637704
O11	O	0.812869	0.136558	0.129217
O12	O	1.312869	0.636558	0.629217
O13	O	1.042287	0.122790	0.145328
O14	O	1.542287	0.622790	0.645328
Cu15	Cu	0.926947	0.130392	0.150400
Cu16	Cu	1.426947	0.630392	0.650400
Cu17	Cu	0.935119	0.121091	-0.019632
Cu18	Cu	1.435119	0.621091	0.480368
O19	O	0.921446	0.260898	0.136841
O20	O	1.421446	0.760898	0.636841
C21	C	0.786964	0.131958	0.055266
C22	C	1.286964	0.631958	0.555266
C23	C	0.699480	0.129958	0.049122
C24	C	1.199480	0.629958	0.549122
C25	C	0.654618	0.133303	0.124610
C26	C	1.154618	0.633303	0.624610
C27	C	0.572419	0.131409	0.118840
C28	C	1.072419	0.631409	0.618840
C29	C	0.535083	0.126176	0.037580
C30	C	1.035083	0.626176	0.537580
C31	C	0.579952	0.122828	-0.037913
C32	C	1.079952	0.622828	0.462087
C33	C	0.662150	0.124715	-0.032142
C34	C	1.162150	0.624715	0.467858
C35	C	0.289653	0.120065	0.011916
C36	C	0.789653	0.620065	0.511916
C37	C	0.207448	0.118180	0.006150
C38	C	0.707448	0.618180	0.506150
C39	C	0.199921	0.126760	0.162904
C40	C	0.699921	0.626760	0.662904
C41	C	0.282121	0.128652	0.168668
C42	C	0.782121	0.628652	0.668668
C43	C	0.326982	0.125299	0.093175
C44	C	0.826982	0.625299	0.593175
N45	N	0.451063	0.124243	0.031680
N46	N	0.951063	0.624243	0.531680
N47	N	0.411002	0.127226	0.099076
N48	N	0.911002	0.627226	0.599076
C49	C	0.936610	-0.039071	0.065775
C50	C	1.436610	0.460929	0.565775
C51	C	0.934949	-0.139157	0.065654
C52	C	1.434949	0.360843	0.565654
C53	C	0.931667	-0.566627	-0.013214
C54	C	1.431667	-0.066627	0.486786
C55	C	0.924133	-0.558047	0.143537
C56	C	1.424133	-0.058047	0.643537
C57	C	0.925701	-0.464012	0.143647
C58	C	1.425701	0.035988	0.643647
C59	C	0.930250	-0.421280	0.065326
C60	C	1.430250	0.078720	0.565326
C61	C	0.933232	-0.472583	-0.013106
C62	C	1.433232	0.027417	0.486894
C63	C	0.922711	-0.412701	0.222078
C64	C	1.422711	0.087299	0.722078
C65	C	0.924277	-0.318660	0.222192
C66	C	1.424277	0.181340	0.722192
C67	C	0.928833	-0.275927	0.143870
C68	C	1.428833	0.224073	0.643870
C69	C	0.931816	-0.327236	0.065434
C70	C	1.431816	0.172764	0.565434
C71	C	0.936366	-0.284504	-0.012887
C72	C	1.436366	0.215496	0.487113
C73	C	0.939354	-0.335813	-0.091323
C74	C	1.439354	0.164187	0.408677
C75	C	0.937788	-0.429851	-0.091428
C76	C	1.437788	0.070149	0.408572
C77	C	0.930399	-0.181889	0.143975
C78	C	1.430399	0.318111	0.643975
C79	C	0.937931	-0.190460	-0.012779
C80	C	1.437931	0.309540	0.487221
C81	C	1.075102	0.119526	0.075500
C82	C	1.575102	0.619526	0.575500
C83	C	1.162586	0.121526	0.081638
C84	C	1.662586	0.621526	0.581638
C85	C	0.925456	0.290555	0.064991
C86	C	1.425456	0.790555	0.564991
C87	C	0.927117	0.390641	0.065107
C88	C	1.427117	0.890641	0.565107
N89	N	0.921205	0.136934	0.269993
N90	N	1.421205	0.636934	0.769993
N91	N	0.940867	0.114543	-0.139224
N92	N	1.440867	0.614543	0.360776
C93	C	0.972560	0.078283	0.318994
C94	C	1.472560	0.578283	0.818994
C95	C	0.968225	0.083238	0.409497
C96	C	1.468225	0.583238	0.909497
C97	C	0.912537	0.146850	0.450998
C98	C	1.412537	0.646850	0.950998
C99	C	0.861177	0.205503	0.401990
C100	C	1.361177	0.705503	0.901990
C101	C	0.865509	0.200543	0.311488
C102	C	1.365509	0.700543	0.811488
C103	C	0.893839	0.168236	0.721266
C104	C	1.393839	0.668236	1.221266
C105	C	0.889512	0.173194	0.811775
C106	C	1.389512	0.673194	1.311775
C107	C	0.996560	0.050927	0.819276
C108	C	1.496560	0.550927	1.319276
C109	C	1.000890	0.045976	0.728772
C110	C	1.500890	0.545976	1.228772
C111	C	0.949526	0.104626	0.679772
C112	C	1.449526	0.604626	1.179772
N113	N	0.908106	0.151918	0.543507
N114	N	1.408106	0.651918	1.043507
N115	N	0.953954	0.099553	0.587264
N116	N	1.453954	0.599553	1.087264
H117	H	0.312514	0.132909	0.234839
H118	H	0.812514	0.632909	0.734839
H119	H	0.852018	0.215993	0.681377
H120	H	1.352018	0.715993	1.181377
Br121	Br	0.139034	0.131308	0.265354
Br122	Br	0.639034	0.631308	0.765354
Br123	Br	0.705279	0.140414	0.234897
Br124	Br	1.205279	0.640414	0.734897
Br125	Br	1.037919	0.003636	0.476002
Br126	Br	1.537919	0.503636	0.976002
Br127	Br	0.945529	-0.277808	-0.197612
Br128	Br	1.445529	0.222192	0.302388
H129	H	0.177052	0.113922	-0.060025
H130	H	0.677052	0.613922	0.439975
Br131	Br	0.511536	0.135964	0.221293
Br132	Br	1.011536	0.635964	0.721293
Br133	Br	1.048145	-0.008045	0.262681
Br134	Br	1.548145	0.491955	0.762681
Br135	Br	0.795804	0.280139	0.244986
Br136	Br	1.295804	0.780139	0.744986
Br137	Br	0.785594	0.291829	0.458309
Br138	Br	1.285594	0.791829	0.958309
Br139	Br	0.350526	0.115513	-0.090541
Br140	Br	0.850526	0.615513	0.409459
H141	H	0.549547	0.118561	-0.104077
H142	H	1.049547	0.618561	0.395923
H143	H	1.038376	0.003175	0.859179
H144	H	1.538376	0.503175	1.359179
Br145	Br	0.723037	0.120167	-0.134594
Br146	Br	1.223037	0.620167	0.365406
Br147	Br	0.944115	-0.132476	-0.119077
Br148	Br	1.444115	0.367524	0.380923
H149	H	0.940220	-0.471634	-0.155286
H150	H	1.440220	0.028366	0.344714
H151	H	0.844163	0.224998	0.845560
H152	H	1.344163	0.724998	1.345560
H153	H	0.934103	-0.608407	-0.077075
H154	H	1.434103	-0.108407	0.422925
Br155	Br	1.076469	-0.040351	0.672448
Br156	Br	1.576469	0.459649	1.172448
H157	H	0.920424	-0.592845	0.207302
H158	H	1.420424	-0.092845	0.707302
H159	H	0.921847	-0.276893	0.286059
H160	H	1.421847	0.223107	0.786059
H161	H	0.927948	-0.140116	0.207835
H162	H	1.427948	0.359884	0.707835
H163	H	0.919002	-0.447500	0.285842
H164	H	1.419002	0.052500	0.785842
