data_functionalizedCrystal
_audit_creation_method	'MofGen! by Chris Wilmer'
_symmetry_space_group_name_H-M	'P1'
_symmetry_Int_Tables_number	1
_symmetry_cell_setting	triclinic
loop_
_symmetry_equiv_pos_as_xyz
  x,y,z
_cell_length_a	15.625950
_cell_length_b	14.044190
_cell_length_c	14.185569
_cell_angle_alpha	75.616153
_cell_angle_beta	120.545593
_cell_angle_gamma	88.497992
loop_
_atom_site_label
_atom_site_type_symbol
_atom_site_fract_x
_atom_site_fract_y
_atom_site_fract_z
O1	O	1.292812	0.024344	0.386694
O2	O	1.008335	0.065691	0.283242
O3	O	1.146305	-0.092578	0.333436
O4	O	1.154843	0.182613	0.336501
O5	O	1.187063	-0.139328	0.515098
O6	O	1.049093	0.018941	0.464904
O7	O	1.333570	-0.022405	0.568357
Cu8	Cu	1.195053	-0.006000	0.533218
Cu9	Cu	1.146852	0.049286	0.318381
O10	O	1.195600	0.135864	0.518163
C11	C	0.992087	0.045073	0.360754
C12	C	0.882950	0.053277	0.321066
C13	C	0.634978	-0.047071	0.685526
C14	C	0.532415	-0.039331	0.648183
C15	C	0.488033	0.011630	0.450160
C16	C	0.590594	0.003898	0.487487
C17	C	0.664060	-0.025454	0.605171
C18	C	0.619676	0.025516	0.407132
C19	C	0.722229	0.017780	0.444456
C20	C	0.795700	-0.011574	0.562136
C21	C	0.766612	-0.033190	0.642495
C22	C	0.546209	0.054861	0.289448
C23	C	0.575291	0.076478	0.209094
C24	C	0.677845	0.068749	0.246417
C25	C	0.751316	0.039396	0.364097
C26	C	0.706932	0.090365	0.166057
C27	C	0.809485	0.082629	0.203382
C28	C	0.853869	0.031659	0.401421
C29	C	1.162946	-0.150923	0.422910
C30	C	1.151794	-0.255122	0.418864
C31	C	1.210496	-0.510817	0.440172
C32	C	1.131412	-0.445890	0.411419
C33	C	1.142755	-0.339737	0.415562
C34	C	1.199154	-0.616980	0.436029
C35	C	1.349818	-0.001787	0.490842
C36	C	1.458953	-0.009989	0.530523
C37	C	1.178959	0.194209	0.428686
C38	C	1.190109	0.298410	0.432725
N39	N	1.228962	-0.044887	0.684325
N40	N	1.112950	0.088165	0.167276
C41	C	1.013322	0.202374	0.973525
C42	C	1.039015	0.172923	1.087893
C43	C	1.161218	0.032821	1.132312
C44	C	1.135532	0.062257	1.017944
C45	C	1.061584	0.147035	0.938558
C46	C	1.183794	0.006918	0.982977
C47	C	1.158114	0.036355	0.868620
C48	C	1.084171	0.121131	0.789229
C49	C	1.035903	0.176472	0.824201
C50	C	1.257747	-0.077855	1.062366
C51	C	1.306009	-0.133194	1.027400
C52	C	1.280324	-0.103762	0.913039
C53	C	1.206381	-0.018986	0.833648
C54	C	1.328591	-0.159102	0.878067
C55	C	1.302910	-0.129665	0.763710
C56	C	1.180700	0.010452	0.719291
H57	H	0.694798	-0.070958	0.781356
H58	H	1.063266	0.145100	0.696114
C59	C	1.343517	-0.489545	0.402792
C60	C	1.313393	-0.478236	0.477605
H61	H	1.407037	-0.469416	0.425901
H62	H	1.349303	-0.557638	0.404893
H63	H	1.294645	-0.449235	0.326846
H64	H	1.362261	-0.518553	0.553550
H65	H	1.307614	-0.410132	0.475516
H66	H	0.975680	0.245500	0.759558
C67	C	0.956487	-0.419045	0.262045
C68	C	1.028508	-0.478468	0.373995
H69	H	0.892965	-0.439167	0.238946
H70	H	0.950715	-0.350956	0.259964
H71	H	0.976932	-0.426726	0.211300
H72	H	1.008067	-0.470781	0.424742
H73	H	1.034278	-0.546573	0.376085
C74	C	0.902948	0.021710	0.131884
C75	C	0.841453	0.106395	0.115053
H76	H	0.922676	0.036380	0.077346
H77	H	0.961373	0.003130	0.207301
H78	H	0.866489	-0.031810	0.122401
H79	H	0.877915	0.159912	0.124545
H80	H	0.783019	0.124988	0.039618
C81	C	0.895089	0.337924	0.941087
C82	C	0.932035	0.295564	0.886252
H83	H	0.844914	0.395457	0.887209
H84	H	0.866342	0.290543	0.971602
H85	H	0.948956	0.356517	1.001628
H86	H	0.878169	0.276964	0.825716
H87	H	0.960781	0.342955	0.855720
H88	H	1.278657	-0.101817	1.155483
H89	H	1.120477	0.079480	0.654648
C90	C	1.212381	-0.144301	1.183252
C91	C	1.242491	-0.060372	1.219576
H92	H	1.262556	-0.201836	1.237122
H93	H	1.150184	-0.153313	1.177863
H94	H	1.203999	-0.134680	1.110142
H95	H	1.250865	-0.069991	1.292684
H96	H	1.304705	-0.051360	1.224978
C97	C	0.934413	-0.090590	0.563129
C98	C	0.908431	-0.020090	0.603175
H99	H	1.004007	-0.095845	0.588463
H100	H	0.922038	-0.153724	0.592219
H101	H	0.894822	-0.070003	0.481542
H102	H	0.948017	-0.040681	0.684763
H103	H	0.920816	0.043057	0.574090
H104	H	0.428205	0.035524	0.354341
H105	H	0.999708	0.217995	1.116353
H106	H	1.366221	-0.202219	1.092049
H107	H	1.342212	-0.174728	0.735243
H108	H	0.826433	-0.057077	0.738325
H109	H	0.508743	-0.056914	0.713626
H110	H	1.388807	-0.228124	0.942720
H111	H	0.913689	0.007773	0.497251
H112	H	0.462706	0.061163	0.259063
H113	H	0.515463	0.100372	0.113275
H114	H	0.647103	0.114254	0.070239
