data_functionalizedCrystal
_audit_creation_method	'MofGen! by Chris Wilmer'
_symmetry_space_group_name_H-M	'P1'
_symmetry_Int_Tables_number	1
_symmetry_cell_setting	triclinic
loop_
_symmetry_equiv_pos_as_xyz
  x,y,z
_cell_length_a	16.959455
_cell_length_b	17.637651
_cell_length_c	16.959447
_cell_angle_alpha	78.752498
_cell_angle_beta	89.983277
_cell_angle_gamma	101.217467
loop_
_atom_site_label
_atom_site_type_symbol
_atom_site_fract_x
_atom_site_fract_y
_atom_site_fract_z
Zn1	Zn	1.144788	-0.314770	-0.383257
Zn2	Zn	1.644788	0.185230	0.116743
Zn3	Zn	1.117995	-0.446998	-0.224319
Zn4	Zn	1.617995	0.053002	0.275681
Zn5	Zn	1.012610	-0.314800	-0.251083
Zn6	Zn	1.512610	0.185200	0.248917
Zn7	Zn	0.985877	-0.446943	-0.356463
Zn8	Zn	1.485877	0.053057	0.143537
O9	O	1.065317	-0.380878	-0.303780
O10	O	1.565317	0.119122	0.196220
O11	O	1.251842	-0.332321	-0.362186
O12	O	1.751842	0.167679	0.137814
O13	O	1.103991	-0.429496	-0.117251
O14	O	1.603991	0.070504	0.382749
O15	O	1.052545	-0.204156	-0.291031
O16	O	1.552545	0.295844	0.208969
O17	O	1.232158	-0.429468	-0.245415
O18	O	1.732158	0.070532	0.254585
O19	O	1.149655	-0.204135	-0.388138
O20	O	1.649655	0.295865	0.111862
O21	O	1.026565	-0.332371	-0.136915
O22	O	1.526565	0.167629	0.363085
O23	O	0.898455	-0.332318	-0.265049
O24	O	1.398455	0.167682	0.234951
O25	O	1.006981	-0.429375	-0.470635
O26	O	1.506981	0.070625	0.029365
O27	O	0.878814	-0.429403	-0.342471
O28	O	1.378814	0.070597	0.157529
O29	O	1.123732	-0.332268	-0.490321
O30	O	1.623732	0.167732	0.009679
O31	O	1.078068	-0.557630	-0.219433
O32	O	1.578068	-0.057630	0.280567
O33	O	0.981002	-0.557590	-0.316519
O34	O	1.481002	-0.057590	0.183481
C35	C	0.859955	-0.380859	-0.303757
C36	C	1.359955	0.119141	0.196243
C37	C	0.772096	-0.380870	-0.303762
C38	C	1.272096	0.119130	0.196238
C39	C	1.023748	-0.586298	-0.262182
C40	C	1.523748	-0.086298	0.237818
C41	C	1.006037	-0.674177	-0.244412
C42	C	1.506037	-0.174177	0.255588
C43	C	0.741039	-0.330250	-0.263548
C44	C	1.241039	0.169750	0.236452
C45	C	0.720598	-0.431495	-0.343987
C46	C	1.220598	0.068505	0.156013
C47	C	0.638050	-0.431505	-0.343997
C48	C	1.138050	0.068495	0.156003
C49	C	0.606994	-0.380885	-0.303783
C50	C	1.106994	0.119115	0.196217
C51	C	0.658485	-0.330256	-0.263558
C52	C	1.158485	0.169744	0.236442
C53	C	0.586555	-0.482127	-0.384228
C54	C	1.086555	0.017873	0.115772
C55	C	0.504001	-0.482137	-0.384240
C56	C	1.004001	0.017863	0.115760
C57	C	0.472943	-0.431521	-0.344020
C58	C	0.972943	0.068479	0.155980
C59	C	0.524439	-0.380891	-0.303793
C60	C	1.024439	0.119109	0.196207
C61	C	0.493382	-0.330271	-0.263579
C62	C	0.993382	0.169729	0.236421
C63	C	0.544876	-0.279644	-0.223347
C64	C	1.044876	0.220356	0.276653
C65	C	0.627426	-0.279639	-0.223339
C66	C	1.127426	0.220361	0.276661
C67	C	0.390393	-0.431525	-0.344028
C68	C	0.890393	0.068475	0.155972
C69	C	0.410827	-0.330277	-0.263589
C70	C	0.910827	0.169723	0.236411
C71	C	1.200381	-0.962851	-0.439023
C72	C	1.700381	-0.462851	0.060977
C73	C	1.183713	-1.045428	-0.422312
C74	C	1.683713	-0.545428	0.077688
C75	C	1.082660	-1.045557	-0.321096
C76	C	1.582660	-0.545557	0.178904
C77	C	1.099322	-0.962980	-0.337796
C78	C	1.599322	-0.462980	0.162204
C79	C	1.158182	-0.921633	-0.396761
C80	C	1.658182	-0.421633	0.103239
C81	C	1.057123	-0.921761	-0.295534
C82	C	1.557123	-0.421761	0.204466
C83	C	1.073781	-0.839191	-0.312236
C84	C	1.573781	-0.339191	0.187764
C85	C	1.132637	-0.797838	-0.371200
C86	C	1.632637	-0.297838	0.128800
C87	C	1.174840	-0.839062	-0.413463
C88	C	1.674840	-0.339062	0.086537
C89	C	0.998259	-0.963109	-0.236573
C90	C	1.498259	-0.463109	0.263427
C91	C	0.956060	-0.921891	-0.194311
C92	C	1.456060	-0.421891	0.305689
C93	C	0.972721	-0.839319	-0.211009
C94	C	1.472721	-0.339319	0.288991
C95	C	1.031578	-0.797966	-0.269972
C96	C	1.531578	-0.297966	0.230028
C97	C	0.930518	-0.798095	-0.168745
C98	C	1.430518	-0.298095	0.331255
C99	C	0.947176	-0.715524	-0.185447
C100	C	1.447176	-0.215524	0.314553
C101	C	1.048236	-0.715396	-0.286674
C102	C	1.548236	-0.215396	0.213326
C103	C	1.271482	-0.380897	-0.303804
C104	C	1.771482	0.119103	0.196196
C105	C	1.359336	-0.380906	-0.303814
C106	C	1.859336	0.119094	0.196186
C107	C	1.065363	-0.380812	-0.509962
C108	C	1.565363	0.119188	-0.009962
C109	C	1.065383	-0.380784	-0.597824
C110	C	1.565383	0.119216	-0.097824
C111	C	1.107070	-0.174656	-0.345559
C112	C	1.607070	0.325344	0.154441
C113	C	1.124863	-0.086776	-0.363362
C114	C	1.624863	0.413224	0.136638
C115	C	1.004707	-0.431260	-0.959070
C116	C	1.504707	0.068740	-0.459070
C117	C	1.126281	-0.330142	-0.979564
C118	C	1.626281	0.169858	-0.479564
C119	C	1.126257	-0.330159	-0.897014
C120	C	1.626257	0.169841	-0.397014
C121	C	1.065458	-0.380728	-0.845489
C122	C	1.565458	0.119272	-0.345489
C123	C	1.004682	-0.431280	-0.876512
C124	C	1.504682	0.068720	-0.376512
C125	C	1.187036	-0.279613	-0.865983
C126	C	1.687036	0.220387	-0.365983
C127	C	1.187014	-0.279629	-0.783429
C128	C	1.687014	0.220371	-0.283429
C129	C	1.126211	-0.330194	-0.731903
C130	C	1.626211	0.169806	-0.231903
C131	C	1.065433	-0.380748	-0.762931
C132	C	1.565433	0.119252	-0.262931
C133	C	1.004633	-0.431317	-0.711405
C134	C	1.504633	0.068683	-0.211405
C135	C	0.943851	-0.481867	-0.742433
C136	C	1.443851	0.018133	-0.242433
C137	C	0.943879	-0.481845	-0.824986
C138	C	1.443879	0.018155	-0.324986
C139	C	1.126183	-0.330216	-0.649350
C140	C	1.626183	0.169784	-0.149350
C141	C	1.004608	-0.431337	-0.628848
C142	C	1.504608	0.068663	-0.128848
C143	C	1.065328	-0.380886	-0.098412
C144	C	1.565328	0.119114	0.401588
C145	C	1.065507	-0.380691	-0.010596
C146	C	1.565507	0.119309	0.489404
H147	H	0.385548	-0.289056	-0.230840
H148	H	0.885548	0.210944	0.269160
H149	H	1.236506	-0.238467	-0.758174
H150	H	1.736506	0.261533	-0.258174
H151	H	1.146199	-0.730604	-0.384797
H152	H	1.646199	-0.230604	0.115203
H153	H	0.519580	-0.238425	-0.190609
H154	H	1.019580	0.261575	0.309391
C155	C	0.684077	-0.223941	-0.179104
C156	C	1.184077	0.276059	0.320896
N157	N	0.726751	-0.181985	-0.145793
N158	N	1.226751	0.318015	0.354207
C159	C	1.193039	-0.274615	-0.615223
C160	C	1.693039	0.225385	-0.115223
N161	N	1.243398	-0.232731	-0.589520
N162	N	1.743398	0.267269	-0.089520
C163	C	0.891365	-0.967381	-0.129402
C164	C	1.391365	-0.467381	0.370598
N165	N	0.842655	-1.001644	-0.080492
N166	N	1.342655	-0.501644	0.419508
H167	H	0.782969	-0.289033	-0.230789
H168	H	1.282969	0.210967	0.269211
H169	H	0.745891	-0.472704	-0.376732
H170	H	1.245891	0.027296	0.123268
C171	C	0.620722	-0.537807	-0.428458
C172	C	1.120722	-0.037807	0.071542
N173	N	0.646460	-0.579750	-0.461770
N174	N	1.146460	-0.079750	0.038230
H175	H	0.462081	-0.523362	-0.416998
H176	H	0.962081	-0.023362	0.083002
H177	H	0.894396	-0.523003	-0.850256
H178	H	1.394396	-0.023003	-0.350256
H179	H	1.175785	-0.288976	-1.021520
H180	H	1.675785	0.211024	-0.521520
H181	H	0.912813	-0.681964	-0.151033
H182	H	1.412813	-0.181964	0.348967
C183	C	0.333755	-0.487210	-0.388282
C184	C	0.833755	0.012790	0.111718
N185	N	0.291094	-0.529156	-0.421615
N186	N	0.791094	-0.029156	0.078385
C187	C	0.876974	-0.537491	-0.685744
C188	C	1.376974	-0.037491	-0.185744
N189	N	0.826602	-0.579385	-0.643044
N190	N	1.326602	-0.079385	-0.143044
C191	C	1.112984	-0.669910	-0.351540
C192	C	1.612984	-0.169910	0.148460
N193	N	1.161748	-0.635650	-0.400398
N194	N	1.661748	-0.135650	0.099602
C195	C	0.937721	-0.486966	-0.572175
C196	C	1.437721	0.013034	-0.072175
N197	N	0.887341	-0.528867	-0.529490
N198	N	1.387341	-0.028867	-0.029490
H199	H	1.222776	-0.805396	-0.461472
H200	H	1.722776	-0.305396	0.038528
C201	C	1.265130	-0.917366	-0.503889
C202	C	1.765130	-0.417366	-0.003889
N203	N	1.313894	-0.883106	-0.552747
N204	N	1.813894	-0.383106	-0.052747
H205	H	0.955218	-0.472414	-0.984337
H206	H	1.455218	0.027586	-0.484337
C207	C	0.865814	-0.843587	-0.103846
C208	C	1.365814	-0.343587	0.396154
N209	N	0.817095	-0.877852	-0.054946
N210	N	1.317095	-0.377852	0.445054
C211	C	1.230140	-1.090765	-0.468809
C212	C	1.730140	-0.590765	0.031191
N213	N	1.265107	-1.124913	-0.503832
N214	N	1.765107	-0.624913	-0.003832
H215	H	1.236539	-0.238448	-0.907940
H216	H	1.736539	0.261552	-0.407940
C217	C	1.017964	-1.091048	-0.256187
C218	C	1.517964	-0.591048	0.243813
N219	N	0.969255	-1.125311	-0.207277
N220	N	1.469255	-0.625311	0.292723
H221	H	0.984690	-1.030344	-0.222984
H222	H	1.484690	-0.530344	0.277016
