data_functionalizedCrystal
_audit_creation_method	'MofGen! by Chris Wilmer'
_symmetry_space_group_name_H-M	'P1'
_symmetry_Int_Tables_number	1
_symmetry_cell_setting	triclinic
loop_
_symmetry_equiv_pos_as_xyz
  x,y,z
_cell_length_a	14.908571
_cell_length_b	16.625546
_cell_length_c	14.908308
_cell_angle_alpha	86.735930
_cell_angle_beta	89.824947
_cell_angle_gamma	86.718495
loop_
_atom_site_label
_atom_site_type_symbol
_atom_site_fract_x
_atom_site_fract_y
_atom_site_fract_z
Zn1	Zn	1.345280	-0.420778	0.587557
Zn2	Zn	1.353856	-0.548312	0.437189
Zn3	Zn	1.203596	-0.405291	0.428555
Zn4	Zn	1.194884	-0.547354	0.578841
O5	O	1.274404	-0.480434	0.508036
O6	O	1.472243	-0.444578	0.574871
O7	O	1.341159	-0.523260	0.310220
O8	O	1.222448	-0.294517	0.449681
O9	O	1.478544	-0.538277	0.464397
O10	O	1.326543	-0.305896	0.566499
O11	O	1.230763	-0.418182	0.303876
O12	O	1.076615	-0.417254	0.441230
O13	O	1.207599	-0.536644	0.705821
O14	O	1.070214	-0.521627	0.551644
O15	O	1.318095	-0.443649	0.712225
O16	O	1.332711	-0.661013	0.455945
O17	O	1.215914	-0.660309	0.560016
C18	C	1.040789	-0.467656	0.494555
C19	C	0.940846	-0.462211	0.488810
C20	C	1.274321	-0.689918	0.507993
C21	C	1.274366	-0.779542	0.508010
C22	C	0.746435	-0.560814	0.592833
C23	C	0.652530	-0.555700	0.587437
C24	C	0.659128	-0.446865	0.472629
C25	C	0.753033	-0.451979	0.478024
C26	C	0.796683	-0.508956	0.538127
C27	C	0.890591	-0.514074	0.543517
C28	C	0.897187	-0.405236	0.428714
C29	C	0.803282	-0.400121	0.423318
C30	C	1.274517	-1.107731	0.508112
C31	C	1.274472	-1.016419	0.508086
C32	C	1.274441	-0.943640	0.508060
C33	C	1.274397	-0.852322	0.508035
C34	C	1.508931	-0.493262	0.521569
C35	C	1.608873	-0.498728	0.527336
C36	C	1.260918	-0.491767	0.742560
C37	C	1.255172	-0.496597	0.842501
C38	C	1.274511	-0.270134	0.508099
C39	C	1.274556	-0.180516	0.508127
C40	C	1.287889	-0.469089	0.274426
C41	C	1.293810	-0.464042	0.174497
C42	C	1.359429	-0.408817	1.036969
C43	C	1.354033	-0.413353	1.130872
C44	C	1.238977	-0.510198	1.124211
C45	C	1.244374	-0.505662	1.030308
C46	C	1.304603	-0.454971	0.986690
C47	C	1.310004	-0.450441	0.892786
C48	C	1.194945	-0.547281	0.886127
C49	C	1.189548	-0.551817	0.980030
H50	H	0.926129	-0.560469	0.592455
H51	H	0.781976	-0.607211	0.641766
H52	H	0.611620	-0.597926	0.631986
C53	C	0.518099	-0.390661	0.413442
C54	C	0.611135	-0.384210	0.406604
H55	H	0.488472	-0.351974	0.372686
H56	H	0.499282	-0.381055	0.473003
H57	H	0.503448	-0.443329	0.399260
H58	H	0.625786	-0.331544	0.420793
H59	H	0.629959	-0.393810	0.347029
C60	C	0.783088	-0.351712	0.269479
C61	C	0.755296	-0.337495	0.357255
H62	H	0.753468	-0.313045	0.228694
H63	H	0.768438	-0.404383	0.255339
H64	H	0.846207	-0.347335	0.264872
H65	H	0.692178	-0.341878	0.361864
H66	H	0.769940	-0.284811	0.371399
H67	H	1.189942	-0.551467	1.159741
H68	H	1.359047	-0.409167	0.857274
C69	C	1.044066	-0.364748	0.386000
C70	C	0.952423	-0.348228	0.368576
H71	H	1.078164	-0.329552	0.348875
H72	H	1.060193	-0.419095	0.373618
H73	H	1.055992	-0.356784	0.447322
H74	H	0.940495	-0.356197	0.307255
H75	H	0.936290	-0.293867	0.380951
C76	C	1.360502	-0.310676	1.237213
C77	C	1.414299	-0.362617	1.186136
H78	H	1.397710	-0.279348	1.271325
H79	H	1.323874	-0.341514	1.276630
H80	H	1.323446	-0.275930	1.198318
H81	H	1.451350	-0.397366	1.225031
H82	H	1.450942	-0.331776	1.146715
C83	C	1.472620	-0.313550	1.052980
C84	C	1.425632	-0.353102	0.989018
H85	H	1.513487	-0.279150	1.023376
H86	H	1.504890	-0.352328	1.091577
H87	H	1.431346	-0.282336	1.087357
H88	H	1.466906	-0.384321	0.954645
H89	H	1.393360	-0.314318	0.950405
H90	H	1.140510	-0.593086	1.015557
C91	C	1.152127	-0.583336	0.739224
C92	C	1.134673	-0.598018	0.830858
H93	H	1.114916	-0.614657	0.705106
H94	H	1.213413	-0.597695	0.727324
H95	H	1.139873	-0.527699	0.723096
H96	H	1.146933	-0.653654	0.846988
H97	H	1.073372	-0.583664	0.842764
