data_functionalizedCrystal
_audit_creation_method	'MofGen! by Chris Wilmer'
_symmetry_space_group_name_H-M	'P1'
_symmetry_Int_Tables_number	1
_symmetry_cell_setting	triclinic
loop_
_symmetry_equiv_pos_as_xyz
  x,y,z
_cell_length_a	8.559649
_cell_length_b	10.654551
_cell_length_c	7.088929
_cell_angle_alpha	83.718726
_cell_angle_beta	95.325015
_cell_angle_gamma	77.132013
loop_
_atom_site_label
_atom_site_type_symbol
_atom_site_fract_x
_atom_site_fract_y
_atom_site_fract_z
O1	O	2.103417	-0.028084	-0.158958
O2	O	1.638931	0.036703	-0.158965
O3	O	1.881852	-0.179533	-0.158962
O4	O	1.860495	0.188151	-0.158961
O5	O	1.914316	-0.208489	0.159013
O6	O	1.671394	0.007747	0.159011
O7	O	2.135880	-0.057040	0.159017
Cu8	Cu	1.906601	-0.027291	0.188048
Cu9	Cu	1.868210	0.006953	-0.187995
O10	O	1.892959	0.159195	0.159015
C11	C	1.595687	0.027135	0.000022
C12	C	1.418468	0.041749	0.000019
C13	C	1.896515	-0.240646	0.000021
C14	C	1.891821	-0.379604	0.000008
C15	C	1.871924	-0.429105	-0.173317
C16	C	1.867502	-0.559669	-0.173308
C17	C	1.902882	-0.591222	0.173366
C18	C	1.907292	-0.460658	0.173355
C19	C	1.856452	-0.348050	-0.346664
C20	C	1.836556	-0.397550	-0.520003
C21	C	1.832134	-0.528115	-0.519995
C22	C	1.847608	-0.609179	-0.346647
C23	C	2.179124	-0.047472	0.000026
C24	C	2.356341	-0.062085	0.000016
C25	C	1.878295	0.220309	0.000027
C26	C	1.882988	0.359268	0.000028
N27	N	1.933616	-0.051378	0.452536
N28	N	1.841208	0.031029	-0.452483
H29	H	1.860056	-0.241737	-0.346691
H30	H	1.336071	0.141835	0.000010
F31	F	1.464023	-0.192897	0.000005
H32	H	1.923460	-0.420348	0.314492
H33	H	1.823942	-0.331537	-0.661136
F34	F	2.058819	-0.162997	0.559261
F35	F	1.810942	-0.580790	-0.704473
H36	H	1.843983	-0.715487	-0.346654
H37	H	1.915481	-0.657235	0.314497
H38	H	1.745438	0.116427	0.465869
