data_functionalizedCrystal
_audit_creation_method	'MofGen! by Chris Wilmer'
_symmetry_space_group_name_H-M	'P1'
_symmetry_Int_Tables_number	1
_symmetry_cell_setting	triclinic
loop_
_symmetry_equiv_pos_as_xyz
  x,y,z
_cell_length_a	17.699083
_cell_length_b	17.699092
_cell_length_c	18.366186
_cell_angle_alpha	89.995439
_cell_angle_beta	89.996982
_cell_angle_gamma	83.284691
loop_
_atom_site_label
_atom_site_type_symbol
_atom_site_fract_x
_atom_site_fract_y
_atom_site_fract_z
O1	O	1.004083	0.095712	-0.060445
O2	O	0.783705	0.108164	-0.060468
O3	O	0.900117	-0.008251	-0.060454
O4	O	0.887671	0.212127	-0.060459
O5	O	0.900098	-0.008256	0.060645
O6	O	0.783686	0.108159	0.060631
O7	O	1.004064	0.095706	0.060655
Zn8	Zn	0.893872	0.101931	0.079870
Zn9	Zn	0.893898	0.101939	-0.079684
O10	O	0.887652	0.212121	0.060640
C11	C	0.755499	0.107715	0.000078
C12	C	0.671480	0.106377	0.000069
C13	C	0.899661	-0.036450	0.000094
C14	C	0.898319	-0.120468	0.000091
C15	C	0.622862	0.174710	0.000068
C16	C	0.543918	0.173448	0.000077
C17	C	0.513595	0.103851	0.000083
C18	C	0.562220	0.035513	0.000086
C19	C	0.641162	0.036776	0.000082
C20	C	0.243857	0.030418	0.000104
C21	C	0.164909	0.029160	0.000107
C22	C	0.146613	0.167089	0.000100
C23	C	0.225555	0.168352	0.000096
C24	C	0.274173	0.100014	0.000103
C25	C	0.359772	0.101384	0.000094
C26	C	0.427998	0.102481	0.000087
C27	C	0.897702	-0.159932	-0.065921
C28	C	0.896437	-0.238875	-0.065922
C29	C	0.895795	-0.278353	0.000090
C30	C	0.896410	-0.238883	0.066107
C31	C	0.897670	-0.159941	0.066107
C32	C	0.891330	-0.557248	0.066107
C33	C	0.890073	-0.636196	0.066102
C34	C	0.890097	-0.636183	-0.065922
C35	C	0.891357	-0.557240	-0.065922
C36	C	0.891968	-0.517777	0.000095
C37	C	0.893338	-0.432178	0.000095
C38	C	0.894430	-0.363952	0.000090
C39	C	1.032271	0.096155	0.000106
C40	C	1.116289	0.097494	0.000111
C41	C	0.888109	0.240321	0.000090
C42	C	0.889450	0.324339	0.000089
N43	N	0.893859	0.101926	0.188761
N44	N	0.893916	0.101939	-0.188575
C45	C	0.945423	0.050403	0.226868
C46	C	0.945428	0.050399	0.303095
C47	C	0.893876	0.101932	0.341214
C48	C	0.842302	0.153459	0.303098
C49	C	0.842294	0.153456	0.226872
C50	C	0.883835	0.170881	0.461972
C51	C	0.883849	0.170885	0.538197
C52	C	0.893898	0.101942	0.576321
C53	C	0.903949	0.032991	0.538211
C54	C	0.903940	0.032988	0.461985
C55	C	0.893879	0.101941	0.423868
C56	C	0.945470	0.050410	0.697083
C57	C	0.945469	0.050406	0.773312
C58	C	0.842347	0.153473	0.773313
C59	C	0.842344	0.153471	0.697085
C60	C	0.893909	0.101940	0.658975
H61	H	0.647544	0.231383	0.000063
N62	N	0.898342	-0.117380	0.137310
H63	H	0.945763	-0.090848	0.140258
H64	H	0.851932	-0.078447	0.140207
H65	H	0.504335	0.229091	0.000076
H66	H	0.875639	0.227027	0.430937
N67	N	0.914798	-0.041380	0.579313
H68	H	0.868846	-0.045825	0.610946
H69	H	0.921187	-0.085005	0.543552
H70	H	0.895883	-0.271032	0.119855
N71	N	0.889381	-0.678779	0.137304
H72	H	0.889958	-0.641801	0.179126
H73	H	0.841959	-0.705315	0.140168
N74	N	1.001035	-0.005176	0.185763
H75	H	1.033701	-0.037818	0.221475
H76	H	0.972121	-0.038604	0.154146
N77	N	0.873005	0.245249	0.579296
H78	H	0.826157	0.246954	0.610931
H79	H	0.919002	0.249647	0.610872
H80	H	0.987455	0.008449	0.666052
N81	N	0.094172	0.240798	0.000123
H82	H	0.125362	0.285077	0.000122
H83	H	0.061009	0.243293	-0.044761
H84	H	0.987457	0.008446	0.804339
H85	H	0.800327	0.195417	0.334138
N86	N	0.132201	-0.045908	0.000113
H87	H	0.174979	-0.089009	0.000119
H88	H	0.099844	-0.049430	0.045007
H89	H	0.250239	0.225025	0.000088
N90	N	0.786737	0.209051	0.814415
H91	H	0.794564	0.201234	0.868487
H92	H	0.795376	0.262733	0.801085
N93	N	0.786726	0.209047	0.655986
H94	H	0.795343	0.262755	0.669243
H95	H	0.794567	0.201162	0.601926
N96	N	0.892000	-0.514694	0.137309
H97	H	0.939421	-0.488161	0.140256
H98	H	0.845590	-0.475761	0.140209
N99	N	0.889444	-0.678751	-0.137128
H100	H	0.890053	-0.641763	-0.178944
H101	H	0.935829	-0.717719	-0.139984
H102	H	0.283433	-0.025227	0.000111
N103	N	1.001044	-0.005176	0.344209
H104	H	1.033707	-0.037821	0.308499
H105	H	1.034447	0.023765	0.375826
N106	N	0.529525	-0.039556	0.000089
H107	H	0.547264	-0.069488	0.044981
H108	H	0.472143	-0.029931	0.000061
H109	H	0.680748	-0.018868	0.000083
H110	H	0.898229	-0.127796	-0.119676
N111	N	0.914778	-0.041372	0.420879
H112	H	0.921146	-0.085051	0.456592
H113	H	0.868804	-0.045733	0.389261
H114	H	0.895937	-0.271004	-0.119676
H115	H	0.891883	-0.525102	-0.119676
N116	N	0.786674	0.209027	0.185765
H117	H	0.754012	0.241672	0.221477
H118	H	0.815580	0.242452	0.154131
