data_functionalizedCrystal
_audit_creation_method	'MofGen! by Chris Wilmer'
_symmetry_space_group_name_H-M	'P1'
_symmetry_Int_Tables_number	1
_symmetry_cell_setting	triclinic
loop_
_symmetry_equiv_pos_as_xyz
  x,y,z
_cell_length_a	12.759401
_cell_length_b	21.295417
_cell_length_c	12.759393
_cell_angle_alpha	89.960780
_cell_angle_beta	89.980163
_cell_angle_gamma	90.032032
loop_
_atom_site_label
_atom_site_type_symbol
_atom_site_fract_x
_atom_site_fract_y
_atom_site_fract_z
Zn1	Zn	1.606140	-0.250546	-0.593965
Zn2	Zn	1.605986	-0.355830	-0.418261
Zn3	Zn	1.430442	-0.250582	-0.418300
Zn4	Zn	1.430382	-0.355784	-0.593899
O5	O	1.518237	-0.303186	-0.506106
O6	O	1.753140	-0.264517	-0.570669
O7	O	1.582660	-0.341903	-0.271245
O8	O	1.453838	-0.162488	-0.441646
O9	O	1.753027	-0.341869	-0.441580
O10	O	1.582922	-0.162461	-0.570706
O11	O	1.453689	-0.264577	-0.271274
O12	O	1.283413	-0.264533	-0.441582
O13	O	1.453736	-0.341790	-0.740929
O14	O	1.283369	-0.341825	-0.570594
O15	O	1.582864	-0.264472	-0.740977
O16	O	1.582602	-0.443914	-0.441516
O17	O	1.453586	-0.443880	-0.570556
C18	C	1.245270	-0.303178	-0.506085
C19	C	1.128493	-0.303190	-0.506101
C20	C	1.518099	-0.466737	-0.506048
C21	C	1.518137	-0.536705	-0.506058
C22	C	1.073636	-0.343497	-0.573172
C23	C	0.963912	-0.343499	-0.573193
C24	C	0.963912	-0.262886	-0.439063
C25	C	1.073634	-0.262881	-0.439048
C26	C	1.585375	-0.569569	-0.438936
C27	C	1.585424	-0.635311	-0.438960
C28	C	1.518216	-0.668188	-0.506094
C29	C	1.450974	-0.635317	-0.573230
C30	C	1.450934	-0.569575	-0.573212
N31	N	1.426309	-0.771454	-0.514097
N32	N	1.426350	-0.833906	-0.514108
C33	C	1.518334	-0.866262	-0.506155
N34	N	1.610278	-0.833808	-0.498169
N35	N	1.610236	-0.771351	-0.498153
C36	C	1.518253	-0.739473	-0.506122
C37	C	1.585631	-0.970411	-0.439054
C38	C	1.585682	-1.036155	-0.439085
C39	C	1.451222	-1.036159	-0.573350
C40	C	1.451181	-0.970417	-0.573325
C41	C	1.518384	-0.937547	-0.506171
C42	C	1.792270	-0.303194	-0.506128
C43	C	1.909047	-0.303197	-0.506137
C44	C	1.518311	-0.303122	-0.780140
C45	C	1.518342	-0.303095	-0.896916
C46	C	1.518404	-0.138995	-0.506188
C47	C	1.518475	-0.069027	-0.506222
C48	C	1.451211	-0.262824	-0.951793
C49	C	1.451235	-0.262805	-1.061517
C50	C	1.585531	-0.343329	-1.061479
C51	C	1.585500	-0.343351	-0.951757
C52	C	1.518225	-0.303204	-0.233139
C53	C	1.518397	-0.303053	-0.116363
H54	H	0.919252	-0.376320	-0.627810
O55	O	0.910457	-0.223792	-0.373963
C56	C	0.801850	-0.232427	-0.388376
H57	H	0.786840	-0.281033	-0.422629
H58	H	0.770772	-0.195132	-0.444450
C59	C	0.763905	-0.166881	-0.240030
C60	C	0.745469	-0.226582	-0.282093
H61	H	0.729125	-0.163273	-0.174472
H62	H	0.837075	-0.161061	-0.230322
H63	H	0.738006	-0.135808	-0.286769
H64	H	0.771379	-0.257653	-0.235361
H65	H	0.672301	-0.232407	-0.291790
O66	O	1.126973	-0.382714	-0.638162
C67	C	1.190400	-0.423318	-0.578218
H68	H	1.157294	-0.427152	-0.495463
H69	H	1.273571	-0.403849	-0.574649
C70	C	1.232716	-0.484083	-0.730990
C71	C	1.192049	-0.488797	-0.629351
H72	H	1.233738	-0.524473	-0.762532
H73	H	1.189988	-0.456726	-0.771376
H74	H	1.302021	-0.467857	-0.728002
H75	H	1.122741	-0.505015	-0.632342
H76	H	1.234766	-0.516158	-0.588966
H77	H	1.640355	-0.943648	-0.384377
O78	O	1.126767	-0.223704	-0.373792
C79	C	1.054822	-0.188120	-0.314624
H80	H	0.976584	-0.213904	-0.310911
H81	H	1.043210	-0.140340	-0.353250
C82	C	1.193697	-0.147298	-0.207393
C83	C	1.097607	-0.178968	-0.202825
H84	H	1.220090	-0.141650	-0.138431
H85	H	1.242169	-0.171270	-0.247257
H86	H	1.184008	-0.107484	-0.239585
H87	H	1.107300	-0.218784	-0.170645
H88	H	1.049137	-0.155003	-0.162952
H89	H	1.640098	-0.542808	-0.384258
H90	H	1.640181	-0.662074	-0.384301
H91	H	1.396255	-0.662089	-0.627893
O92	O	1.385974	-1.068185	-0.638471
C93	C	1.400449	-1.133258	-0.624119
H94	H	1.434903	-1.142261	-0.543071
H95	H	1.456380	-1.151848	-0.686491
C96	C	1.251848	-1.156009	-0.733216
C97	C	1.294157	-1.167067	-0.633668
H98	H	1.186284	-1.176865	-0.739111
H99	H	1.242098	-1.112168	-0.742889
H100	H	1.298468	-1.171500	-0.785181
H101	H	1.247544	-1.151568	-0.581706
H102	H	1.303898	-1.210906	-0.623987
H103	H	1.396180	-0.542817	-0.627872
H104	H	1.640210	-0.376103	-1.106143
H105	H	1.640442	-1.062911	-0.384429
O106	O	1.385755	-0.938587	-0.638551
C107	C	1.326463	-0.981699	-0.697831
H108	H	1.322880	-1.028587	-0.654810
H109	H	1.364894	-0.988627	-0.777662
C110	C	1.219020	-0.898509	-0.765700
C111	C	1.214613	-0.956095	-0.712856
H112	H	1.150027	-0.882715	-0.774973
H113	H	1.258969	-0.869463	-0.725765
H114	H	1.251051	-0.904290	-0.832220
H115	H	1.182595	-0.950312	-0.646333
H116	H	1.174656	-0.985140	-0.752780
O117	O	1.650815	-0.382492	-0.898605
C118	C	1.710085	-0.418026	-0.970534
H119	H	1.713779	-0.392228	-1.048764
H120	H	1.671562	-0.465830	-0.982173
C121	C	1.817342	-0.458800	-0.831623
C122	C	1.821885	-0.427111	-0.927704
H123	H	1.886304	-0.464407	-0.805203
H124	H	1.777408	-0.434862	-0.783162
H125	H	1.785235	-0.498633	-0.841336
H126	H	1.853980	-0.387276	-0.917988
H127	H	1.861827	-0.451043	-0.976163
H128	H	1.396569	-0.230013	-1.106192
H129	H	1.396525	-0.230045	-0.907145
