data_functionalizedCrystal
_audit_creation_method	'MofGen! by Chris Wilmer'
_symmetry_space_group_name_H-M	'P1'
_symmetry_Int_Tables_number	1
_symmetry_cell_setting	triclinic
loop_
_symmetry_equiv_pos_as_xyz
  x,y,z
_cell_length_a	16.625546
_cell_length_b	10.686154
_cell_length_c	10.686551
_cell_angle_alpha	89.693980
_cell_angle_beta	85.590142
_cell_angle_gamma	85.598321
loop_
_atom_site_label
_atom_site_type_symbol
_atom_site_fract_x
_atom_site_fract_y
_atom_site_fract_z
Zn1	Zn	-0.196636	-1.972250	-0.562428
Zn2	Zn	0.136697	-1.638917	-0.229094
Zn3	Zn	0.470030	-1.305584	0.104239
Zn4	Zn	-0.342578	-1.955990	-0.352652
Zn5	Zn	-0.009245	-1.622657	-0.019319
Zn6	Zn	0.324089	-1.289323	0.314015
Zn7	Zn	-0.217256	-1.746364	-0.368736
Zn8	Zn	0.116077	-1.413031	-0.035402
Zn9	Zn	0.449410	-1.079697	0.297931
Zn10	Zn	-0.340938	-1.762420	-0.578424
Zn11	Zn	-0.007605	-1.429087	-0.245090
Zn12	Zn	0.325728	-1.095753	0.088243
O13	O	-0.274352	-1.859256	-0.465560
O14	O	0.058981	-1.525923	-0.132226
O15	O	0.392314	-1.192589	0.201107
O16	O	-0.208053	-2.145637	-0.521175
O17	O	0.125281	-1.812304	-0.187842
O18	O	0.458614	-1.478971	0.145491
O19	O	-0.335270	-1.914658	-0.179238
O20	O	-0.001936	-1.581325	0.154095
O21	O	0.331397	-1.247991	0.487428
O22	O	-0.101683	-1.776414	-0.394466
O23	O	0.231651	-1.443081	-0.061133
O24	O	0.564984	-1.109747	0.272201
O25	O	-0.315275	-2.133691	-0.367054
O26	O	0.018058	-1.800358	-0.033721
O27	O	0.351391	-1.467024	0.299613
O28	O	-0.086533	-1.942372	-0.536771
O29	O	0.246800	-1.609038	-0.203437
O30	O	0.580133	-1.275705	0.129896
O31	O	-0.243196	-1.760647	-0.191055
O32	O	0.090137	-1.427313	0.142278
O33	O	0.423470	-1.093980	0.475612
O34	O	-0.241606	-1.572950	-0.409976
O35	O	0.091727	-1.239616	-0.076643
O36	O	0.425060	-0.906283	0.256690
O37	O	-0.312481	-1.803779	-0.751849
O38	O	0.020853	-1.470446	-0.418515
O39	O	0.354186	-1.137112	-0.085182
O40	O	-0.332475	-1.584746	-0.564033
O41	O	0.000858	-1.251413	-0.230700
O42	O	0.334192	-0.918079	0.102633
O43	O	-0.206463	-1.957941	-0.740097
O44	O	0.126871	-1.624607	-0.406763
O45	O	0.460204	-1.291274	-0.073430
O46	O	-0.455199	-1.930227	-0.382564
O47	O	-0.121866	-1.596894	-0.049231
O48	O	0.211468	-1.263560	0.284102
O49	O	-0.453994	-1.788012	-0.548438
O50	O	-0.120661	-1.454679	-0.215104
O51	O	0.212672	-1.121345	0.118229
C52	C	-0.289101	-1.533331	-0.490487
C53	C	0.044233	-1.199998	-0.157153
C54	C	0.377566	-0.866665	0.176180
C55	C	-0.295428	-1.393902	-0.501180
C56	C	0.037905	-1.060568	-0.167847
C57	C	0.371239	-0.727235	0.165486
C58	C	-0.483851	-1.859133	-0.465516
C59	C	-0.150518	-1.525800	-0.132183
C60	C	0.182815	-1.192467	0.201150
C61	C	-0.573468	-1.859199	-0.465531
C62	C	-0.240135	-1.525865	-0.132198
C63	C	0.093198	-1.192532	0.201136
C64	C	-0.901627	-1.859428	-0.465645
C65	C	-0.568294	-1.526094	-0.132311
C66	C	-0.234961	-1.192761	0.201022
C67	C	-0.810323	-1.859360	-0.465617
C68	C	-0.476990	-1.526027	-0.132284
C69	C	-0.143657	-1.192694	0.201050
C70	C	-0.737551	-1.859312	-0.465587
C71	C	-0.404217	-1.525979	-0.132254
C72	C	-0.070884	-1.192646	0.201079
C73	C	-0.646241	-1.859247	-0.465560
C74	C	-0.312908	-1.525914	-0.132227
C75	C	0.020426	-1.192580	0.201106
C76	C	-0.064032	-1.859416	-0.465628
C77	C	0.269301	-1.526082	-0.132295
C78	C	0.602635	-1.192749	0.201039
C79	C	0.025594	-1.859484	-0.465657
C80	C	0.358927	-1.526150	-0.132324
C81	C	0.692260	-1.192817	0.201009
C82	C	-0.256989	-1.884465	-0.792763
C83	C	0.076345	-1.551131	-0.459429
C84	C	0.409678	-1.217798	-0.126096
C85	C	-0.249589	-1.895207	-0.932197
C86	C	0.083744	-1.561874	-0.598864
C87	C	0.417077	-1.228540	-0.265530
C88	C	-0.259539	-1.186453	-0.440528
C89	C	0.073794	-0.853120	-0.107195
C90	C	0.407127	-0.519786	0.226139
C91	C	-0.253208	-1.325883	-0.429840
C92	C	0.080125	-0.992550	-0.096507
C93	C	0.413459	-0.659216	0.236827
C94	C	-0.291587	-1.834218	-0.139624
C95	C	0.041746	-1.500884	0.193709
C96	C	0.375080	-1.167551	0.527043
C97	C	-0.298748	-1.823719	-0.000172
C98	C	0.034585	-1.490385	0.333162
C99	C	0.367919	-1.157052	0.666495
H100	H	-0.212222	-1.374317	-0.360581
H101	H	0.121111	-1.040984	-0.027247
H102	H	0.454444	-0.707651	0.306086
F103	F	-0.187179	-1.985962	-0.995560
F104	F	0.146154	-1.652629	-0.662226
F105	F	0.479487	-1.319296	-0.328893
F106	F	-0.349012	-1.330592	-0.591702
F107	F	-0.015679	-0.997258	-0.258369
F108	F	0.317654	-0.663925	0.074964
F109	F	-0.361162	-1.732981	-0.936813
F110	F	-0.027829	-1.399647	-0.603480
F111	F	0.305504	-1.066314	-0.270147
