data_functionalizedCrystal
_audit_creation_method	'MofGen! by Chris Wilmer'
_symmetry_space_group_name_H-M	'P1'
_symmetry_Int_Tables_number	1
_symmetry_cell_setting	triclinic
loop_
_symmetry_equiv_pos_as_xyz
  x,y,z
_cell_length_a	13.897449
_cell_length_b	16.120444
_cell_length_c	13.897441
_cell_angle_alpha	87.133622
_cell_angle_beta	90.020733
_cell_angle_gamma	92.927816
loop_
_atom_site_label
_atom_site_type_symbol
_atom_site_fract_x
_atom_site_fract_y
_atom_site_fract_z
Zn1	Zn	1.455175	-0.331853	0.564829
Zn2	Zn	1.788508	0.001480	0.898162
Zn3	Zn	2.121842	0.334813	1.231495
Zn4	Zn	1.446864	-0.471285	0.411701
Zn5	Zn	1.780198	-0.137952	0.745034
Zn6	Zn	2.113531	0.195381	1.078368
Zn7	Zn	1.293862	-0.331893	0.403549
Zn8	Zn	1.627195	0.001440	0.736883
Zn9	Zn	1.960529	0.334774	1.070216
Zn10	Zn	1.285645	-0.471230	0.572950
Zn11	Zn	1.618978	-0.137897	0.906284
Zn12	Zn	1.952311	0.195436	1.239617
O13	O	1.370386	-0.401565	0.488257
O14	O	1.703720	-0.068232	0.821591
O15	O	2.037053	0.265101	1.154924
O16	O	1.589054	-0.350355	0.544528
O17	O	1.922387	-0.017022	0.877862
O18	O	2.255721	0.316311	1.211195
O19	O	1.426529	-0.452834	0.275640
O20	O	1.759863	-0.119501	0.608974
O21	O	2.093196	0.213833	0.942307
O22	O	1.322178	-0.215222	0.418133
O23	O	1.655511	0.118112	0.751466
O24	O	1.988844	0.451445	1.084799
O25	O	1.582948	-0.452796	0.432026
O26	O	1.916281	-0.119462	0.765360
O27	O	2.249615	0.213871	1.098693
O28	O	1.440694	-0.215192	0.536624
O29	O	1.774027	0.118141	0.869957
O30	O	2.107360	0.451474	1.203291
O31	O	1.314119	-0.350423	0.269651
O32	O	1.647452	-0.017090	0.602985
O33	O	1.980786	0.316244	0.936318
O34	O	1.157791	-0.350370	0.426008
O35	O	1.491124	-0.017037	0.759342
O36	O	1.824457	0.316297	1.092675
O37	O	1.308172	-0.452702	0.706852
O38	O	1.641505	-0.119369	1.040186
O39	O	1.974839	0.213964	1.373519
O40	O	1.151753	-0.452741	0.550466
O41	O	1.485087	-0.119407	0.883800
O42	O	1.818420	0.213926	1.217133
O43	O	1.432726	-0.350302	0.700885
O44	O	1.766059	-0.016969	1.034219
O45	O	2.099392	0.316364	1.367552
O46	O	1.418561	-0.587944	0.439902
O47	O	1.751895	-0.254611	0.773235
O48	O	2.085228	0.078723	1.106568
O49	O	1.300114	-0.587904	0.558371
O50	O	1.633447	-0.254571	0.891704
O51	O	1.966780	0.078763	1.225038
C52	C	1.119773	-0.401554	0.488235
C53	C	1.453106	-0.068221	0.821568
C54	C	1.786439	0.265112	1.154901
C55	C	1.012558	-0.401570	0.488249
C56	C	1.345891	-0.068236	0.821582
C57	C	1.679225	0.265097	1.154916
C58	C	0.816263	-0.401573	0.488275
C59	C	1.149596	-0.068239	0.821608
C60	C	1.482929	0.265094	1.154941
C61	C	0.925495	-0.401568	0.488258
C62	C	1.258829	-0.068235	0.821591
C63	C	1.592162	0.265098	1.154924
C64	C	1.357570	-0.618174	0.500923
C65	C	1.690903	-0.284841	0.834257
C66	C	2.024237	0.048492	1.167590
C67	C	1.352175	-0.710840	0.506374
C68	C	1.685509	-0.377507	0.839707
C69	C	2.018842	-0.044174	1.173041
C70	C	1.398608	-0.921783	0.460189
C71	C	1.731941	-0.588449	0.793522
C72	C	2.065274	-0.255116	1.126855
C73	C	1.342344	-0.880497	0.516336
C74	C	1.675677	-0.547164	0.849669
C75	C	2.009011	-0.213830	1.183003
C76	C	1.347816	-0.786091	0.510791
C77	C	1.681149	-0.452758	0.844125
C78	C	2.014482	-0.119425	1.177458
C79	C	1.393137	-1.016197	0.465732
C80	C	1.726471	-0.682864	0.799065
C81	C	2.059804	-0.349530	1.132399
C82	C	1.621979	-0.401577	0.488281
C83	C	1.955312	-0.068244	0.821614
C84	C	2.288645	0.265089	1.154947
C85	C	1.729192	-0.401582	0.488291
C86	C	2.062526	-0.068249	0.821624
C87	C	2.395859	0.265084	1.154957
C88	C	1.370459	-0.401492	0.739846
C89	C	1.703793	-0.068158	1.073179
C90	C	2.037126	0.265175	1.406513
C91	C	1.370490	-0.401460	0.847058
C92	C	1.703824	-0.068127	1.180392
C93	C	2.037157	0.265206	1.513725
C94	C	1.383279	-0.184111	0.475563
C95	C	1.716613	0.149222	0.808896
C96	C	2.049946	0.482556	1.142230
C97	C	1.388773	-0.091445	0.470154
C98	C	1.722107	0.241889	0.803487
C99	C	2.055440	0.575222	1.136820
C100	C	1.370373	-0.401579	0.237644
C101	C	1.703706	-0.068245	0.570977
C102	C	2.037040	0.265088	0.904310
C103	C	1.370543	-0.401375	0.130418
C104	C	1.703876	-0.068042	0.463752
C105	C	2.037209	0.265291	0.797085
C106	C	1.370520	-0.401404	1.043350
C107	C	1.703853	-0.068071	1.376684
C108	C	2.037186	0.265263	1.710017
C109	C	1.370500	-0.401438	0.934120
C110	C	1.703834	-0.068104	1.267453
C111	C	2.037167	0.265229	1.600786
H112	H	1.290065	-0.916052	0.568569
H113	H	1.623398	-0.582719	0.901902
H114	H	1.956732	-0.249386	1.235236
O115	O	1.460884	-0.879245	0.397895
O116	O	1.794218	-0.545912	0.731229
O117	O	2.127551	-0.212578	1.064562
C118	C	1.523241	-0.744991	0.335575
C119	C	1.856574	-0.411657	0.668908
C120	C	2.189908	-0.078324	1.002241
C121	C	1.452660	-0.793073	0.406150
C122	C	1.785994	-0.459740	0.739483
C123	C	2.119327	-0.126407	1.072817
H124	H	1.516631	-0.675313	0.342239
H125	H	1.849964	-0.341979	0.675572
H126	H	2.183297	-0.008646	1.008905
H127	H	1.505366	-0.762053	0.258743
H128	H	1.838700	-0.428720	0.592076
H129	H	2.172033	-0.095387	0.925410
H130	H	1.600037	-0.762019	0.353544
H131	H	1.933370	-0.428685	0.686877
H132	H	2.266704	-0.095352	1.020210
H133	H	1.375840	-0.776071	0.388269
H134	H	1.709174	-0.442738	0.721603
H135	H	2.042507	-0.109405	1.054936
H136	H	1.470618	-0.776007	0.482961
H137	H	1.803951	-0.442673	0.816295
H138	H	2.137285	-0.109340	1.149628
