data_functionalizedCrystal
_audit_creation_method	'MofGen! by Chris Wilmer'
_symmetry_space_group_name_H-M	'P1'
_symmetry_Int_Tables_number	1
_symmetry_cell_setting	triclinic
loop_
_symmetry_equiv_pos_as_xyz
  x,y,z
_cell_length_a	14.044220
_cell_length_b	23.532407
_cell_length_c	13.101039
_cell_angle_alpha	93.336507
_cell_angle_beta	86.340132
_cell_angle_gamma	88.018778
loop_
_atom_site_label
_atom_site_type_symbol
_atom_site_fract_x
_atom_site_fract_y
_atom_site_fract_z
O1	O	1.261651	0.134360	-0.085125
O2	O	0.985730	0.129407	-0.085150
O3	O	1.132009	0.049404	-0.085118
O4	O	1.115371	0.214364	-0.085157
O5	O	1.121514	0.055154	0.085309
O6	O	0.975234	0.135158	0.085277
O7	O	1.251155	0.140111	0.085302
Zn8	Zn	1.111528	0.138547	0.112349
Zn9	Zn	1.125356	0.130971	-0.112197
O10	O	1.104875	0.220114	0.085270
C11	C	0.945188	0.130115	0.000061
C12	C	0.840024	0.123648	0.000052
C13	C	0.647472	0.111828	0.000075
C14	C	0.589407	0.157687	0.000068
C15	C	0.482265	0.151110	0.000081
C16	C	0.754624	0.118404	0.000062
C17	C	1.126338	0.031040	0.000098
C18	C	1.125063	-0.032246	0.000106
C19	C	1.203641	-0.427092	0.000057
C20	C	1.202458	-0.486556	0.000049
O21	O	1.275300	-0.519354	0.000018
N22	N	1.115494	-0.513896	0.000042
C23	C	1.029708	-0.481769	0.000032
O24	O	0.955630	-0.510484	0.000024
C25	C	1.030893	-0.422306	0.000033
C26	C	1.117862	-0.394968	0.000050
C27	C	1.290603	-0.399754	0.000073
C28	C	1.291786	-0.340294	0.000083
C29	C	1.206007	-0.308170	0.000077
C30	C	1.119045	-0.335508	0.000060
C31	C	0.945109	-0.390179	0.000016
C32	C	0.946301	-0.330712	0.000015
C33	C	1.033270	-0.303375	0.000033
C34	C	1.034448	-0.243924	0.000063
N35	N	1.121412	-0.216584	0.000070
C36	C	1.207191	-0.248707	0.000077
C37	C	1.027228	-0.606646	0.000029
C38	C	1.026042	-0.666108	0.000036
C39	C	1.198792	-0.670891	0.000051
C40	C	1.199977	-0.611428	0.000052
C41	C	1.114192	-0.579306	0.000036
C42	C	1.209668	-0.123835	0.000099
C43	C	1.210843	-0.064369	0.000113
C44	C	1.038093	-0.059591	0.000092
C45	C	1.036917	-0.119052	0.000084
C46	C	1.122713	-0.151173	0.000083
O47	O	0.961644	-0.211090	0.000090
O48	O	1.281258	-0.219985	0.000071
C49	C	1.291697	0.139403	0.000089
C50	C	1.396862	0.145869	0.000091
C51	C	1.110547	0.238478	0.000052
C52	C	1.111822	0.301763	0.000037
N53	N	1.102098	0.143718	0.265595
N54	N	1.134794	0.125796	-0.265443
C55	C	1.089267	0.150758	0.474635
C56	C	1.147622	0.118757	0.525524
C57	C	1.140483	0.122674	0.641841
C58	C	1.096405	0.146842	0.358308
H59	H	1.279531	-0.149982	0.000094
O60	O	1.023192	0.186964	0.526707
C61	C	0.970350	0.215964	0.456491
H62	H	0.974048	0.190040	0.379981
H63	H	1.001527	0.259413	0.445119
C64	C	0.860975	0.255807	0.592476
C65	C	0.865510	0.223965	0.498507
H66	H	0.796306	0.260745	0.618394
H67	H	0.896577	0.236271	0.639783
H68	H	0.886961	0.292011	0.582986
H69	H	0.839535	0.187760	0.508000
H70	H	0.829900	0.243495	0.451202
O71	O	0.610826	0.059093	0.000264
C72	C	0.636655	0.032316	0.088514
H73	H	0.653222	0.066047	0.150207
H74	H	0.702509	0.003133	0.068554
C75	C	0.533183	-0.044506	0.052768
C76	C	0.553523	-0.003076	0.128543
H77	H	0.481907	-0.066340	0.077458
H78	H	0.515784	-0.026467	-0.006690
H79	H	0.588068	-0.068820	0.036142
H80	H	0.498643	0.021240	0.145159
H81	H	0.570911	-0.021112	0.188006
O82	O	1.295278	-0.037755	-0.000012
C83	C	1.306580	-0.006482	-0.088285
H84	H	1.233577	0.003517	-0.117716
H85	H	1.352550	-0.032661	-0.150093
C86	C	1.445105	0.037251	-0.025314
C87	C	1.355441	0.049537	-0.061457
H88	H	1.475249	0.071805	-0.008768
H89	H	1.437494	0.016180	0.034156
H90	H	1.483402	0.015435	-0.076826
H91	H	1.317143	0.071347	-0.009940
H92	H	1.363047	0.070613	-0.120918
H93	H	0.620163	0.201887	0.000053
H94	H	1.362605	-0.318042	0.000093
H95	H	1.360460	-0.425903	0.000075
O96	O	0.952507	-0.145681	-0.000061
C97	C	0.952082	-0.182887	-0.088351
H98	H	1.028710	-0.194861	-0.117773
H99	H	0.913720	-0.160865	-0.150156
C100	C	0.805811	-0.222398	-0.025427
C101	C	0.899928	-0.237108	-0.061558
H102	H	0.773636	-0.255843	-0.008902
H103	H	0.806095	-0.197330	0.034055
H104	H	0.773856	-0.204045	-0.076937
H105	H	0.931885	-0.255454	-0.010043
H106	H	0.899648	-0.262180	-0.121030
H107	H	1.268639	-0.697057	0.000052
H108	H	1.270794	-0.589174	0.000065
O109	O	0.941479	-0.692570	-0.000015
C110	C	0.866027	-0.651458	0.000009
H111	H	0.894187	-0.610859	-0.032247
H112	H	0.834561	-0.641647	0.081770
C113	C	0.753485	-0.724510	-0.027220
C114	C	0.788071	-0.674647	-0.066846
H115	H	0.705395	-0.738814	-0.068456
H116	H	0.804317	-0.752208	-0.027233
H117	H	0.727270	-0.716327	0.040913
H118	H	0.814295	-0.682832	-0.134973
H119	H	0.737241	-0.646950	-0.066847
H120	H	0.957366	-0.580495	0.000026
H121	H	1.202943	0.088418	0.481734
H122	H	0.876442	-0.304561	0.000002
O123	O	0.860612	-0.416704	-0.000190
C124	C	0.813799	-0.403666	-0.088454
H125	H	0.868477	-0.390802	-0.150131
H126	H	0.759414	-0.366979	-0.068507
C127	C	0.695113	-0.472159	-0.052746
C128	C	0.762271	-0.456364	-0.128503
H129	H	0.663324	-0.504665	-0.077449
H130	H	0.726649	-0.480942	0.006721
H131	H	0.649801	-0.441582	-0.036130
H132	H	0.807588	-0.486939	-0.145108
H133	H	0.730741	-0.447588	-0.187974
O134	O	0.954861	-0.028297	0.000039
C135	C	0.974563	0.030049	0.000071
H136	H	1.050947	0.035021	-0.032178
H137	H	0.965766	0.049789	0.081834
C138	C	0.810971	0.054291	-0.027169
C139	C	0.904785	0.060399	-0.066787
H140	H	0.767927	0.073014	-0.068406
H141	H	0.797696	0.014983	-0.027188
H142	H	0.803654	0.070741	0.040966
H143	H	0.912104	0.043943	-0.134915
H144	H	0.918060	0.099705	-0.066781
