data_functionalizedCrystal
_audit_creation_method	'MofGen! by Chris Wilmer'
_symmetry_space_group_name_H-M	'P1'
_symmetry_Int_Tables_number	1
_symmetry_cell_setting	triclinic
loop_
_symmetry_equiv_pos_as_xyz
  x,y,z
_cell_length_a	11.169417
_cell_length_b	18.050589
_cell_length_c	18.050582
_cell_angle_alpha	89.981795
_cell_angle_beta	89.988436
_cell_angle_gamma	90.029099
loop_
_atom_site_label
_atom_site_type_symbol
_atom_site_fract_x
_atom_site_fract_y
_atom_site_fract_z
Zn1	Zn	1.834715	-0.295689	-0.419869
Zn2	Zn	1.834571	-0.419873	-0.295688
Zn3	Zn	1.634030	-0.295703	-0.295700
Zn4	Zn	1.633946	-0.419844	-0.419844
O5	O	1.734316	-0.357777	-0.357775
O6	O	2.002646	-0.312169	-0.403401
O7	O	1.807944	-0.403419	-0.191765
O8	O	1.660747	-0.191776	-0.312187
O9	O	2.002540	-0.403406	-0.312166
O10	O	1.808190	-0.191766	-0.403413
O11	O	1.660607	-0.312192	-0.191774
O12	O	1.466069	-0.312164	-0.312163
O13	O	1.660604	-0.403357	-0.523772
O14	O	1.466008	-0.403370	-0.403370
O15	O	1.808108	-0.312141	-0.523790
O16	O	1.807862	-0.523793	-0.312142
O17	O	1.660464	-0.523772	-0.403359
C18	C	1.422491	-0.357766	-0.357766
C19	C	1.289091	-0.357779	-0.357779
C20	C	1.734171	-0.550729	-0.357763
C21	C	1.734219	-0.633275	-0.357782
C22	C	1.654142	-0.832741	-0.407369
C23	C	1.624895	-0.882175	-0.339602
C24	C	1.734336	-0.784405	-0.357792
C25	C	1.763643	-0.882053	-0.425566
C26	C	1.734448	-0.930390	-0.357807
C27	C	1.705031	-0.832752	-0.289990
C28	C	1.843831	-0.832625	-0.375999
C29	C	1.814625	-0.882037	-0.308186
C30	C	1.734269	-0.700307	-0.357784
C31	C	1.734516	-1.014487	-0.357808
C32	C	2.047358	-0.357789	-0.357785
C33	C	2.180758	-0.357794	-0.357789
C34	C	1.734363	-0.357744	-0.551481
C35	C	1.734383	-0.357730	-0.634027
C36	C	1.734494	-0.164071	-0.357804
C37	C	1.734570	-0.081526	-0.357816
C38	C	1.654231	-0.407266	-0.833467
C39	C	1.763729	-0.425418	-0.882856
C40	C	1.734442	-0.357673	-0.785157
C41	C	1.625005	-0.339500	-0.882850
C42	C	1.734489	-0.357620	-0.931142
C43	C	1.843997	-0.375861	-0.833459
C44	C	1.705199	-0.289912	-0.833448
C45	C	1.814772	-0.308039	-0.882814
C46	C	1.734413	-0.357706	-0.701059
C47	C	1.734531	-0.357587	-1.015239
C48	C	1.734338	-0.357756	-0.164823
C49	C	1.734550	-0.357561	-0.082278
H50	H	1.532351	-0.903956	-0.324217
O51	O	1.573200	-0.807001	-0.457407
C52	C	1.603104	-0.833184	-0.528626
H53	H	1.659586	-0.885507	-0.523372
H54	H	1.656209	-0.788912	-0.559480
C55	C	1.418367	-0.786644	-0.578295
C56	C	1.487730	-0.850912	-0.571841
H57	H	1.347200	-0.797577	-0.604954
H58	H	1.398221	-0.769001	-0.530314
H59	H	1.462635	-0.749757	-0.604004
H60	H	1.443468	-0.887794	-0.546124
H61	H	1.507866	-0.868561	-0.619819
H62	H	1.680181	-0.811186	-0.232665
H63	H	1.936593	-0.391275	-0.811854
O64	O	1.954171	-0.806671	-0.394520
C65	C	1.984679	-0.831760	-0.466035
H66	H	1.899607	-0.845670	-0.498031
H67	H	2.042949	-0.883387	-0.461384
C68	C	2.158694	-0.753548	-0.467916
C69	C	2.054207	-0.770627	-0.507216
H70	H	2.201587	-0.715841	-0.493318
H71	H	2.138144	-0.736647	-0.419734
H72	H	2.207239	-0.796576	-0.464043
H73	H	2.005658	-0.727602	-0.511080
H74	H	2.074751	-0.787520	-0.555400
O75	O	1.895899	-0.257972	-0.908379
C76	C	1.953161	-0.223439	-0.847945
H77	H	1.946813	-0.260754	-0.797130
H78	H	1.907658	-0.168250	-0.835761
C79	C	2.093549	-0.164033	-0.929444
C80	C	2.085762	-0.209867	-0.867034
H81	H	2.175342	-0.155657	-0.941219
H82	H	2.054968	-0.187296	-0.970161
H83	H	2.055623	-0.118047	-0.919283
H84	H	2.123674	-0.255854	-0.877199
H85	H	2.124352	-0.186611	-0.826320
O86	O	1.895452	-0.907670	-0.258023
C87	C	1.864185	-0.882399	-0.186698
H88	H	1.764602	-0.868671	-0.185232
H89	H	1.918260	-0.830622	-0.172929
C90	C	2.013814	-0.960141	-0.131171
C91	C	1.891502	-0.943286	-0.129367
H92	H	2.030669	-0.997697	-0.095805
H93	H	2.034884	-0.977165	-0.179223
H94	H	2.058863	-0.916989	-0.119698
H95	H	1.846457	-0.986436	-0.140849
H96	H	1.870426	-0.926271	-0.081315
O97	O	1.793239	-0.907764	-0.493969
C98	C	1.812799	-0.847432	-0.542111
H99	H	1.836612	-0.796158	-0.508321
H100	H	1.728055	-0.836303	-0.575492
C101	C	1.887225	-0.928804	-0.636754
C102	C	1.916483	-0.865828	-0.595252
H103	H	1.951178	-0.940151	-0.669537
H104	H	1.874043	-0.969451	-0.604321
H105	H	1.816604	-0.919521	-0.664565
H106	H	1.987094	-0.875115	-0.567435
H107	H	1.929679	-0.825183	-0.627682
H108	H	1.788491	-0.482700	-0.904559
O109	O	1.573519	-0.457460	-0.807647
C110	C	1.604817	-0.528798	-0.832841
H111	H	1.704372	-0.530198	-0.846693
H112	H	1.550645	-0.542701	-0.884526
C113	C	1.455423	-0.584331	-0.754816
C114	C	1.577701	-0.586053	-0.771824
H115	H	1.438693	-0.619649	-0.717180
H116	H	1.434334	-0.536269	-0.737845
H117	H	1.410295	-0.595915	-0.797892
H118	H	1.622827	-0.574460	-0.728751
H119	H	1.598797	-0.634114	-0.788787
H120	H	1.680404	-0.232647	-0.811729
O121	O	1.514483	-0.321272	-0.908646
C122	C	1.430190	-0.373745	-0.883519
H123	H	1.465706	-0.402053	-0.831518
H124	H	1.414473	-0.416981	-0.928508
C125	C	1.267750	-0.299652	-0.929410
C126	C	1.311366	-0.334416	-0.865538
H127	H	1.194452	-0.275394	-0.918322
H128	H	1.324539	-0.264301	-0.946342
H129	H	1.254662	-0.335688	-0.966896
H130	H	1.324468	-0.298379	-0.828058
H131	H	1.254577	-0.369760	-0.848600
