data_functionalizedCrystal
_audit_creation_method	'MofGen! by Chris Wilmer'
_symmetry_space_group_name_H-M	'P1'
_symmetry_Int_Tables_number	1
_symmetry_cell_setting	triclinic
loop_
_symmetry_equiv_pos_as_xyz
  x,y,z
_cell_length_a	13.339070
_cell_length_b	10.654554
_cell_length_c	9.130313
_cell_angle_alpha	90.000900
_cell_angle_beta	90.003695
_cell_angle_gamma	100.058069
loop_
_atom_site_label
_atom_site_type_symbol
_atom_site_fract_x
_atom_site_fract_y
_atom_site_fract_z
O1	O	0.142460	1.715933	0.121800
O2	O	0.156025	1.355035	0.121801
O3	O	0.001687	1.494065	0.121797
O4	O	0.296797	1.576903	0.121805
O5	O	0.001679	1.494059	-0.121802
O6	O	0.156017	1.355030	-0.121797
O7	O	0.142451	1.715927	-0.121798
Cu8	Cu	0.149233	1.535478	-0.144040
Cu9	Cu	0.149243	1.535485	0.144043
O10	O	0.296789	1.576898	-0.121794
C11	C	0.155024	1.307898	0.000002
C12	C	0.152041	1.167448	0.000003
C13	C	-0.036104	1.480069	-0.000001
C14	C	-0.148699	1.438359	0.000005
C15	C	0.055560	0.952309	0.000012
C16	C	0.058362	1.084277	0.000002
C17	C	0.242923	1.118646	-0.000001
C18	C	0.240120	0.986680	-0.000001
C19	C	-0.038124	0.869144	0.000026
C20	C	-0.129007	0.917937	0.000027
C21	C	-0.126205	1.049904	0.000017
C22	C	-0.032520	1.133079	0.000005
C23	C	-0.511212	1.762674	0.000004
C24	C	-0.405424	1.801867	-0.000010
C25	C	-0.341238	1.710993	-0.000006
C26	C	-0.382850	1.580920	0.000012
C27	C	-0.488648	1.541724	0.000014
C28	C	-0.318674	1.490043	0.000004
C29	C	-0.360286	1.359970	0.000022
C30	C	-0.466074	1.320780	0.000025
C31	C	-0.530261	1.411653	0.000021
C32	C	-0.212875	1.529239	0.000002
C33	C	-0.190311	1.308289	0.000012
C34	C	-0.296100	1.269096	0.000026
C35	C	0.334580	1.590894	0.000007
C36	C	0.447175	1.632604	0.000011
C37	C	0.143452	1.763065	0.000004
C38	C	0.146435	1.903515	0.000013
N39	N	0.149242	1.535487	0.346666
N40	N	0.149226	1.535483	-0.346663
C41	C	0.081036	1.597254	0.423316
C42	C	0.081030	1.597256	0.576653
C43	C	0.217439	1.473714	0.576676
C44	C	0.217450	1.473721	0.423342
C45	C	0.012829	1.659020	0.346640
C46	C	-0.055383	1.720791	0.423290
C47	C	-0.055389	1.720793	0.576627
C48	C	0.012817	1.659024	0.653313
H49	H	-0.040416	0.761687	0.000039
N50	N	-0.128958	1.787402	0.659312
H51	H	-0.089704	1.856581	0.722942
H52	H	-0.172149	1.826449	0.587381
H53	H	-0.179005	1.635145	-0.000013
H54	H	-0.255101	1.742912	-0.000017
N55	N	-0.360534	1.942145	-0.000001
H56	H	-0.317147	1.963330	-0.090303
H57	H	-0.417296	1.993682	0.000061
N58	N	-0.224221	1.102536	-0.000008
H59	H	-0.283991	1.029824	-0.000002
H60	H	-0.227077	1.156550	0.090292
H61	H	-0.329996	1.163188	0.000039
H62	H	-0.110909	1.771090	0.360844
H63	H	-0.205282	0.850208	0.000049
N64	N	0.338135	0.934046	0.000006
H65	H	0.378967	0.964522	0.090312
H66	H	0.322057	0.837834	-0.000051
H67	H	0.012813	1.659042	0.778171
N68	N	-0.510946	1.180486	0.000011
H69	H	-0.487598	1.139009	0.090311
H70	H	-0.587697	1.169543	-0.000052
H71	H	0.012826	1.659021	0.221785
N72	N	0.290997	1.407092	0.659381
H73	H	0.280639	1.416458	0.768148
H74	H	0.278475	1.313694	0.632569
N75	N	-0.580447	1.860666	-0.000021
H76	H	-0.624843	1.849334	0.090277
H77	H	-0.537971	1.948971	-0.000085
N78	N	0.343966	1.208341	0.000001
H79	H	0.349242	1.263862	-0.090297
H80	H	0.349183	1.263773	0.090367
N81	N	-0.644364	1.369373	0.000033
H82	H	-0.674268	1.403311	0.090337
H83	H	-0.674201	1.403309	-0.090327
N84	N	-0.029499	1.275416	-0.000026
H85	H	-0.065051	1.300469	0.090271
H86	H	0.043661	1.320600	-0.000083
N87	N	-0.121085	1.210274	0.000021
H88	H	-0.134555	1.155158	0.090323
H89	H	-0.134594	1.155242	-0.090341
N90	N	0.291018	1.407112	0.340657
H91	H	0.334221	1.367975	0.412495
H92	H	0.251691	1.338000	0.277020
