data_functionalizedCrystal
_audit_creation_method	'MofGen! by Chris Wilmer'
_symmetry_space_group_name_H-M	'P1'
_symmetry_Int_Tables_number	1
_symmetry_cell_setting	triclinic
loop_
_symmetry_equiv_pos_as_xyz
  x,y,z
_cell_length_a	11.026660
_cell_length_b	17.038272
_cell_length_c	10.065875
_cell_angle_alpha	99.426590
_cell_angle_beta	79.302288
_cell_angle_gamma	99.848195
loop_
_atom_site_label
_atom_site_type_symbol
_atom_site_fract_x
_atom_site_fract_y
_atom_site_fract_z
O1	O	1.661267	0.323090	-0.113512
O2	O	1.304057	0.285262	-0.113511
O3	O	1.480537	0.190062	-0.113501
O4	O	1.484786	0.418289	-0.113522
O5	O	1.446895	0.208309	0.113486
O6	O	1.270414	0.303508	0.113476
O7	O	1.627624	0.341336	0.113475
Zn8	Zn	1.443678	0.325319	0.149514
Zn9	Zn	1.488003	0.301279	-0.149550
O10	O	1.451144	0.436536	0.113465
C11	C	1.241305	0.287406	-0.000017
C12	C	1.104444	0.266602	-0.000017
C13	C	0.895116	0.302551	-0.000024
C14	C	1.036569	0.324055	-0.000024
C15	C	1.459854	0.169513	-0.000007
C16	C	1.448332	0.081096	-0.000008
C17	C	1.554115	0.045888	-0.000006
C18	C	1.543284	-0.037190	-0.000019
C19	C	1.426667	-0.085057	-0.000024
C20	C	1.320877	-0.049844	-0.000029
C21	C	1.331711	0.033232	-0.000026
C22	C	1.388394	-0.336210	-0.000042
C23	C	1.377567	-0.419291	-0.000041
C24	C	1.599976	-0.406632	-0.000034
C25	C	1.610799	-0.323554	-0.000023
C26	C	1.505009	-0.288348	-0.000035
C27	C	1.415592	-0.169976	-0.000033
C28	C	1.516087	-0.203432	-0.000036
C29	C	1.690377	0.339192	-0.000022
C30	C	1.827239	0.359995	-0.000031
C31	C	1.471827	0.457085	-0.000032
C32	C	1.483350	0.545500	-0.000040
N33	N	1.413435	0.341727	0.353618
N34	N	1.518255	0.284866	-0.353654
C35	C	1.477473	0.306981	0.421401
C36	C	1.454208	0.319617	0.578567
H37	H	0.848504	0.237453	0.000002
F38	F	1.291484	-0.220928	-0.000043
F39	F	1.712557	-0.444107	-0.000023
F40	F	1.219122	0.070703	-0.000031
H41	H	1.083172	0.389159	-0.000021
H42	H	1.057854	0.201490	-0.000101
F43	F	1.253441	-0.470233	-0.000039
F44	F	0.888153	0.445088	-0.000028
F45	F	1.678234	0.096826	0.000011
H46	H	1.382150	0.358717	0.636883
H47	H	1.590304	0.245759	0.588029
F48	F	1.734923	-0.272619	-0.000053
F49	F	1.655874	-0.074658	-0.000016
H50	H	1.225926	-0.088825	-0.000041
H51	H	1.302252	-0.307556	-0.000052
F52	F	1.319254	0.392832	0.429844
F53	F	1.640196	-0.152487	-0.000040
F54	F	1.571414	0.255701	0.345176
