data_functionalizedCrystal
_audit_creation_method	'MofGen! by Chris Wilmer'
_symmetry_space_group_name_H-M	'P1'
_symmetry_Int_Tables_number	1
_symmetry_cell_setting	triclinic
loop_
_symmetry_equiv_pos_as_xyz
  x,y,z
_cell_length_a	15.297979
_cell_length_b	21.295417
_cell_length_c	15.298159
_cell_angle_alpha	80.344254
_cell_angle_beta	91.635470
_cell_angle_gamma	99.689778
loop_
_atom_site_label
_atom_site_type_symbol
_atom_site_fract_x
_atom_site_fract_y
_atom_site_fract_z
Zn1	Zn	1.253182	-0.187439	0.727313
Zn2	Zn	1.278465	-0.271945	0.580835
Zn3	Zn	1.132103	-0.181280	0.555487
Zn4	Zn	1.106658	-0.307266	0.701846
O5	O	1.192602	-0.236983	0.641370
O6	O	1.379110	-0.186445	0.729149
O7	O	1.280279	-0.242558	0.454920
O8	O	1.148233	-0.094005	0.578329
O9	O	1.397685	-0.248531	0.621532
O10	O	1.237189	-0.098531	0.704569
O11	O	1.172748	-0.175947	0.436296
O12	O	1.006154	-0.210197	0.553635
O13	O	1.104865	-0.308731	0.827778
O14	O	0.987459	-0.302759	0.661165
O15	O	1.212516	-0.220694	0.846488
O16	O	1.255606	-0.364722	0.596838
O17	O	1.129380	-0.390673	0.685744
C18	C	0.965024	-0.259643	0.601886
C19	C	0.867662	-0.269355	0.585016
C20	C	0.831607	-0.306166	0.520970
C21	C	0.740129	-0.315293	0.505124
C22	C	0.684699	-0.287606	0.553316
C23	C	0.720755	-0.250790	0.617359
C24	C	0.812241	-0.241666	0.633212
C25	C	0.665333	-0.223106	0.665558
C26	C	0.701390	-0.186290	0.729600
C27	C	0.792866	-0.177167	0.745449
C28	C	0.848296	-0.204855	0.697257
C29	C	0.573848	-0.232230	0.649705
C30	C	0.554482	-0.167730	0.761946
C31	C	0.645960	-0.158603	0.777792
C32	C	1.192496	-0.400539	0.641302
C33	C	1.192525	-0.470505	0.641316
C34	C	1.258291	-0.489842	0.595088
C35	C	1.258328	-0.555583	0.595115
C36	C	1.192586	-0.601985	0.641358
C37	C	1.126815	-0.582643	0.687595
C38	C	1.126784	-0.516903	0.687574
N39	N	1.114803	-0.713832	0.634739
N40	N	1.114836	-0.776281	0.634755
C41	C	1.192676	-0.800057	0.641425
N42	N	1.270487	-0.759022	0.648062
N43	N	1.270454	-0.696567	0.648042
C44	C	1.192612	-0.673271	0.641386
C45	C	1.258487	-0.890677	0.595224
C46	C	1.258525	-0.956420	0.595258
C47	C	1.127005	-0.983479	0.687731
C48	C	1.126974	-0.917737	0.687704
C49	C	1.192715	-0.871339	0.641446
C50	C	1.421068	-0.214235	0.681009
C51	C	1.518427	-0.204541	0.697901
C52	C	1.153032	-0.269340	0.869798
C53	C	1.136169	-0.283128	0.967140
C54	C	1.192729	-0.072788	0.641462
C55	C	1.192784	-0.002818	0.641501
C56	C	1.312836	-0.138657	1.280499
C57	C	1.328685	-0.125702	1.189042
C58	C	1.280557	-0.165057	1.133562
C59	C	1.216578	-0.217370	1.169548
C60	C	1.200733	-0.230329	1.261015
C61	C	1.168454	-0.256729	1.114078
C62	C	1.104475	-0.309042	1.150064
C63	C	1.088632	-0.321998	1.241522
C64	C	1.136760	-0.282643	1.297002
C65	C	1.184299	-0.243770	1.022611
C66	C	1.072196	-0.335442	1.003127
C67	C	1.056347	-0.348397	1.094584
C68	C	1.232009	-0.204765	1.413830
C69	C	1.248863	-0.190971	1.316486
H70	H	0.675330	-0.128627	0.829937
H71	H	1.236391	-0.201177	0.993321
N72	N	1.056035	-0.896876	0.737556
H73	H	1.014391	-0.936245	0.766854
H74	H	1.021699	-0.868620	0.694835
N75	N	1.055907	-0.632691	0.737464
H76	H	0.995694	-0.625593	0.712952
H77	H	1.058691	-0.628715	0.802387
N78	N	0.946966	-0.195006	0.714338
H79	H	0.971782	-0.147339	0.702168
H80	H	0.976528	-0.218164	0.674074
H81	H	1.311822	-0.452066	0.557425
H82	H	1.312020	-0.852898	0.557561
H83	H	0.710779	-0.345269	0.452981
N84	N	0.494699	-0.137860	0.813916
H85	H	0.512980	-0.089368	0.803193
H86	H	0.499805	-0.155025	0.879206
N87	N	1.329264	-0.576449	0.545256
H88	H	1.370906	-0.537081	0.515950
H89	H	1.300673	-0.601566	0.498530
H90	H	1.123859	-0.293188	1.371474
N91	N	1.297647	-0.151088	1.034919
H92	H	1.345479	-0.111976	1.020540
H93	H	1.241344	-0.142406	1.002536
H94	H	1.380779	-0.083110	1.159749
N95	N	0.987350	-0.404818	1.133417
H96	H	1.003669	-0.446190	1.119841
H97	H	0.927556	-0.398958	1.106638
N98	N	1.019632	-0.378424	1.280333
H99	H	0.972489	-0.362259	1.311255
H100	H	1.048704	-0.409407	1.324397
N101	N	1.055847	-0.496043	0.737434
H102	H	1.014205	-0.535412	0.766736
H103	H	1.021509	-0.467788	0.694712
H104	H	0.610215	-0.295039	0.540410
H105	H	1.073480	-1.021260	0.725387
H106	H	0.822219	-0.147196	0.797605
H107	H	1.312085	-0.972161	0.557616
H108	H	1.352020	-0.106622	1.325679
N109	N	0.534958	-0.271931	0.580633
H110	H	0.548520	-0.317248	0.596870
H111	H	0.561722	-0.251583	0.520870
N112	N	1.020285	-0.377897	0.943300
H113	H	1.040028	-0.361749	0.879899
H114	H	0.954965	-0.376594	0.948438
H115	H	0.876744	-0.328709	0.481743
