data_functionalizedCrystal
_audit_creation_method	'MofGen! by Chris Wilmer'
_symmetry_space_group_name_H-M	'P1'
_symmetry_Int_Tables_number	1
_symmetry_cell_setting	triclinic
loop_
_symmetry_equiv_pos_as_xyz
  x,y,z
_cell_length_a	15.995292
_cell_length_b	15.995350
_cell_length_c	15.072220
_cell_angle_alpha	90.001101
_cell_angle_beta	89.986330
_cell_angle_gamma	83.480495
loop_
_atom_site_label
_atom_site_type_symbol
_atom_site_fract_x
_atom_site_fract_y
_atom_site_fract_z
O1	O	1.111026	0.107689	-0.073802
O2	O	0.867244	0.121068	-0.073798
O3	O	0.995799	-0.007511	-0.073799
O4	O	0.982471	0.236267	-0.073801
O5	O	0.995767	-0.007503	0.073766
O6	O	0.867213	0.121075	0.073767
O7	O	1.110994	0.107696	0.073763
Zn8	Zn	0.989098	0.114387	0.097194
Zn9	Zn	0.989140	0.114377	-0.097229
O10	O	0.982440	0.236275	0.073764
C11	C	0.836033	0.120527	-0.000015
C12	C	0.743080	0.118894	-0.000014
C13	C	0.405341	0.112893	-0.000024
C14	C	0.428654	0.205697	-0.000354
C15	C	0.525329	0.207461	-0.000017
C16	C	0.572897	0.115871	-0.000019
C17	C	0.543777	0.069477	0.084245
C18	C	0.446987	0.068360	0.084312
C19	C	0.447168	0.066457	-0.083497
C20	C	0.543660	0.069896	-0.084607
C21	C	0.667593	0.117549	-0.000014
C22	C	0.310646	0.111212	-0.000023
C23	C	0.995232	-0.038702	-0.000018
C24	C	0.993580	-0.131652	-0.000023
C25	C	0.987648	-0.469398	-0.000020
C26	C	0.896094	-0.421945	-0.000350
C27	C	0.897746	-0.325255	-0.000017
C28	C	0.990591	-0.301838	-0.000022
C29	C	1.035730	-0.342921	0.084242
C30	C	1.033430	-0.439556	0.084313
C31	C	1.035358	-0.439923	-0.083496
C32	C	1.035336	-0.342978	-0.084610
C33	C	0.992259	-0.207141	-0.000021
C34	C	0.985983	-0.564095	-0.000016
C35	C	1.142206	0.108237	-0.000022
C36	C	1.235159	0.109870	-0.000029
C37	C	0.983006	0.267466	-0.000018
C38	C	0.984658	0.360416	-0.000019
N39	N	0.989076	0.114393	0.229883
N40	N	0.989169	0.114365	-0.229918
C41	C	0.989139	0.114374	0.589085
C42	C	0.920120	0.182943	0.551478
C43	C	0.920279	0.183193	0.448653
C44	C	0.989107	0.114383	0.410880
C45	C	1.076474	0.133447	0.448170
C46	C	1.076087	0.133934	0.551028
C47	C	0.971569	0.026538	0.551186
C48	C	0.969564	0.027124	0.448322
C49	C	0.989094	0.114387	0.310167
C50	C	0.989157	0.114372	0.689798
H51	H	0.432436	0.000316	0.088138
C52	C	0.588190	-0.020419	-0.091484
H53	H	0.625357	-0.031320	-0.042635
H54	H	0.619266	-0.026448	-0.145265
H55	H	0.547414	-0.059214	-0.090770
C56	C	0.935081	0.270510	0.586345
H57	H	0.893113	0.311568	0.563301
H58	H	0.989030	0.283186	0.567934
H59	H	0.932322	0.270803	0.649308
C60	C	0.935452	0.271240	0.415389
H61	H	0.935597	0.271695	0.352359
H62	H	0.988192	0.284693	0.436689
H63	H	0.891918	0.311653	0.436589
H64	H	0.433174	-0.001853	-0.084068
H65	H	1.016568	-0.026291	0.422614
H66	H	0.575645	0.002079	0.087377
C67	C	1.124227	-0.483147	0.089496
H68	H	1.123438	-0.542447	0.089572
H69	H	1.150010	-0.466551	0.142442
H70	H	1.155246	-0.467343	0.039664
C71	C	0.570845	0.113010	0.168964
H72	H	0.599883	0.159451	0.153163
H73	H	0.606896	0.074113	0.203057
H74	H	0.522444	0.132341	0.202929
C75	C	0.551053	0.256552	-0.081609
H76	H	0.502376	0.275597	-0.115258
H77	H	0.588855	0.220821	-0.117263
H78	H	0.577783	0.303541	-0.062638
C79	C	1.039553	-0.042397	0.584042
H80	H	1.078461	-0.017815	0.620680
H81	H	1.068337	-0.068842	0.534576
H82	H	1.013801	-0.083053	0.617163
H83	H	0.400671	0.241465	-0.060784
H84	H	0.854969	0.171775	0.576241
H85	H	1.000488	-0.457848	0.147305
H86	H	0.862262	-0.296828	-0.060421
H87	H	0.859513	-0.440472	-0.060777
C88	C	0.409022	0.105728	-0.169780
H89	H	0.367226	0.150817	-0.155699
H90	H	0.384266	0.064264	-0.202687
H91	H	0.452043	0.126352	-0.204175
H92	H	0.859650	-0.441528	0.059742
H93	H	0.562243	0.103675	-0.146945
H94	H	1.004352	-0.314530	0.146953
H95	H	0.861997	-0.297380	0.060491
C96	C	0.994938	-0.467658	-0.169777
H97	H	0.948582	-0.497476	-0.155694
H98	H	1.035343	-0.503142	-0.202683
H99	H	0.975930	-0.419457	-0.204174
H100	H	1.103044	-0.327630	-0.089702
C101	C	1.126544	-0.482853	-0.084276
H102	H	1.135530	-0.518571	-0.034006
H103	H	1.164372	-0.441199	-0.082430
H104	H	1.135975	-0.515294	-0.136868
C105	C	0.389442	0.253764	0.080820
H106	H	0.403829	0.309775	0.080107
H107	H	0.410321	0.226426	0.133591
H108	H	0.329975	0.254756	0.078827
C109	C	1.097891	0.218997	0.413367
H110	H	1.053709	0.243207	0.376123
H111	H	1.148852	0.211096	0.380490
H112	H	1.104307	0.255478	0.462026
H113	H	0.543720	0.244020	0.060489
C114	C	1.147520	0.067782	0.415116
H115	H	1.199780	0.080497	0.438451
H116	H	1.149520	0.068965	0.352143
H117	H	1.137093	0.013372	0.434377
H118	H	0.420156	0.100496	0.147302
C119	C	1.096992	0.220471	0.583429
H120	H	1.105636	0.254999	0.533730
H121	H	1.146621	0.213405	0.618512
H122	H	1.051600	0.246406	0.618021
C123	C	1.127873	-0.323855	0.088481
H124	H	1.139660	-0.290587	0.038781
H125	H	1.164180	-0.375149	0.087699
H126	H	1.136621	-0.294047	0.141576
C127	C	0.832546	0.167870	0.414591
H128	H	0.796486	0.161439	0.463618
H129	H	0.837140	0.118256	0.379454
H130	H	0.809877	0.214477	0.379702
C131	C	0.990819	-0.306092	-0.168826
H132	H	0.945156	-0.265784	-0.152515
H133	H	0.970259	-0.349989	-0.201913
H134	H	1.029579	-0.279726	-0.203999
H135	H	1.129050	0.085960	0.575902
H136	H	0.909244	0.008203	0.577177
C137	C	0.882743	0.007577	0.415406
H138	H	0.858502	0.052398	0.378991
H139	H	0.847126	0.001415	0.464857
H140	H	0.889043	-0.043139	0.382041
