data_functionalizedCrystal
_audit_creation_method	'MofGen! by Chris Wilmer'
_symmetry_space_group_name_H-M	'P1'
_symmetry_Int_Tables_number	1
_symmetry_cell_setting	triclinic
loop_
_symmetry_equiv_pos_as_xyz
  x,y,z
_cell_length_a	18.101398
_cell_length_b	21.295417
_cell_length_c	18.101398
_cell_angle_alpha	90.004117
_cell_angle_beta	89.998121
_cell_angle_gamma	90.026064
loop_
_atom_site_label
_atom_site_type_symbol
_atom_site_fract_x
_atom_site_fract_y
_atom_site_fract_z
Zn1	Zn	1.132039	-0.250864	0.418529
Zn2	Zn	1.632039	0.249136	0.918529
Zn3	Zn	1.131961	-0.356084	0.294679
Zn4	Zn	1.631961	0.143916	0.794679
Zn5	Zn	1.008223	-0.250825	0.294722
Zn6	Zn	1.508223	0.249175	0.794722
Zn7	Zn	1.008150	-0.356092	0.418499
Zn8	Zn	1.508150	0.143908	0.918499
O9	O	1.070093	-0.303466	0.356607
O10	O	1.570093	0.196534	0.856607
O11	O	1.235662	-0.264836	0.402095
O12	O	1.735662	0.235164	0.902095
O13	O	1.115545	-0.342101	0.191051
O14	O	1.615545	0.157899	0.691051
O15	O	1.024711	-0.162740	0.311176
O16	O	1.524711	0.337260	0.811176
O17	O	1.235604	-0.342140	0.311102
O18	O	1.735604	0.157860	0.811102
O19	O	1.115678	-0.162770	0.402136
O20	O	1.615678	0.337230	0.902136
O21	O	1.024635	-0.264768	0.191083
O22	O	1.524635	0.235232	0.691083
O23	O	0.904581	-0.264775	0.311146
O24	O	1.404581	0.235225	0.811146
O25	O	1.024586	-0.342153	0.522135
O26	O	1.524586	0.157847	1.022135
O27	O	0.904527	-0.342114	0.402085
O28	O	1.404527	0.157886	0.902085
O29	O	1.115607	-0.264843	0.522158
O30	O	1.615607	0.235157	1.022158
O31	O	1.115474	-0.444174	0.311073
O32	O	1.615474	0.055826	0.811073
O33	O	1.024511	-0.444180	0.402043
O34	O	1.524511	0.055820	0.902043
C35	C	0.877683	-0.303441	0.356617
C36	C	1.377683	0.196559	0.856617
C37	C	0.795369	-0.303446	0.356639
C38	C	1.295369	0.196554	0.856639
C39	C	1.069996	-0.467018	0.356566
C40	C	1.569996	0.032982	0.856566
C41	C	1.070022	-0.536986	0.356573
C42	C	1.570022	-0.036986	0.856573
C43	C	0.496278	-0.303483	0.356608
C44	C	0.996278	0.196517	0.856608
C45	C	0.527594	-0.352378	0.413542
C46	C	1.027594	0.147622	0.913542
C47	C	0.613212	-0.352225	0.413776
C48	C	1.113212	0.147775	0.913776
C49	C	0.644660	-0.303465	0.356624
C50	C	1.144660	0.196535	0.856624
C51	C	0.613601	-0.237171	0.377957
C52	C	1.113601	0.262829	0.877957
C53	C	0.527956	-0.237465	0.378362
C54	C	1.027956	0.262535	0.878362
C55	C	0.527841	-0.320298	0.278204
C56	C	1.027841	0.179702	0.778204
C57	C	0.613491	-0.321753	0.278623
C58	C	1.113491	0.178247	0.778623
C59	C	0.728520	-0.303451	0.356631
C60	C	1.228520	0.196549	0.856631
C61	C	0.412418	-0.303493	0.356603
C62	C	0.912418	0.196507	0.856603
C63	C	1.117429	-0.569829	0.309254
C64	C	1.617429	-0.069829	0.809254
C65	C	1.117464	-0.635571	0.309270
C66	C	1.617464	-0.135571	0.809270
C67	C	1.070079	-0.668468	0.356599
C68	C	1.570079	-0.168468	0.856599
C69	C	1.022669	-0.635618	0.403927
C70	C	1.522669	-0.135618	0.903927
C71	C	1.022640	-0.569876	0.403915
C72	C	1.522640	-0.069876	0.903915
N73	N	1.005293	-0.771732	0.362248
N74	N	1.505293	-0.271732	0.862248
N75	N	1.005322	-0.834184	0.362256
N76	N	1.505322	-0.334184	0.862256
C77	C	1.070162	-0.866543	0.356641
C78	C	1.570162	-0.366543	0.856641
N79	N	1.134973	-0.834092	0.351004
N80	N	1.634973	-0.334092	0.851004
N81	N	1.134943	-0.771635	0.350992
N82	N	1.634943	-0.271635	0.850992
C83	C	1.070104	-0.739754	0.356618
C84	C	1.570104	-0.239754	0.856618
C85	C	1.117610	-0.970672	0.309337
C86	C	1.617610	-0.470672	0.809337
C87	C	1.117646	-1.036415	0.309359
C88	C	1.617646	-0.536415	0.809359
C89	C	1.022844	-1.036460	0.404012
C90	C	1.522844	-0.536460	0.904012
C91	C	1.022815	-0.970718	0.403994
C92	C	1.522815	-0.470718	0.903994
C93	C	1.070197	-0.937827	0.356653
C94	C	1.570197	-0.437827	0.856653
C95	C	1.263255	-0.303491	0.356597
C96	C	1.763255	0.196509	0.856597
C97	C	1.345569	-0.303502	0.356593
C98	C	1.845569	0.196498	0.856593
C99	C	1.070097	-0.303503	0.549769
C100	C	1.570097	0.196497	1.049769
C101	C	1.070098	-0.303519	0.632083
C102	C	1.570098	0.196481	1.132083
C103	C	1.070211	-0.139276	0.356664
C104	C	1.570211	0.360724	0.856664
C105	C	1.070261	-0.069308	0.356689
C106	C	1.570261	0.430692	0.856689
C107	C	1.070081	-0.303483	0.931174
C108	C	1.570081	0.196517	1.431174
C109	C	1.012622	-0.351961	0.899835
C110	C	1.512622	0.148039	1.399835
C111	C	1.012795	-0.352162	0.814216
C112	C	1.512795	0.147838	1.314216
C113	C	1.070089	-0.303501	0.782791
C114	C	1.570089	0.196499	1.282791
C115	C	1.148108	-0.321521	0.813876
C116	C	1.648108	0.178479	1.313876
C117	C	1.147771	-0.321863	0.899521
C118	C	1.647771	0.178137	1.399521
C119	C	1.050205	-0.236868	0.899609
C120	C	1.550205	0.263132	1.399609
C121	C	1.048486	-0.237229	0.813958
C122	C	1.548486	0.262771	1.313958
C123	C	1.070098	-0.303510	0.698932
C124	C	1.570098	0.196490	1.198932
C125	C	1.070077	-0.303475	1.015033
C126	C	1.570077	0.196525	1.515033
C127	C	1.070081	-0.303453	1.164196
C128	C	1.570081	0.196547	1.664196
C129	C	1.070071	-0.303465	1.081882
C130	C	1.570071	0.196535	1.581882
H131	H	0.506982	-0.401700	0.400320
H132	H	1.006982	0.098300	0.900320
H133	H	1.192078	-0.287310	0.793521
H134	H	1.692078	0.212690	1.293521
H135	H	0.954585	-0.340810	0.920436
H136	H	1.454585	0.159190	1.420436
C137	C	0.970924	-0.218866	0.786519
C138	C	1.470924	0.281134	1.286519
H139	H	0.958169	-0.178737	0.805563
H140	H	1.458169	0.321263	1.305563
H141	H	0.970755	-0.217457	0.734067
H142	H	1.470755	0.282543	1.234067
H143	H	0.935990	-0.249076	0.803011
H144	H	1.435990	0.250924	1.303011
C145	C	0.498645	-0.384478	0.252005
C146	C	0.998645	0.115522	0.752005
H147	H	0.518354	-0.393729	0.204595
H148	H	1.018354	0.106271	0.704595
H149	H	0.513306	-0.416078	0.286009
H150	H	1.013306	0.083922	0.786009
H151	H	0.446258	-0.383218	0.249240
H152	H	0.946258	0.116782	0.749240
C153	C	1.171278	-0.386592	0.784908
C154	C	1.671278	0.113408	1.284908
H155	H	1.133515	-0.402864	0.753879
H156	H	1.633515	0.097136	1.253879
H157	H	1.215848	-0.382844	0.757553
H158	H	1.715848	0.117156	1.257553
H159	H	1.178748	-0.414218	0.825428
H160	H	1.678748	0.085782	1.325428
H161	H	0.633703	-0.341102	0.471868
H162	H	1.133703	0.158898	0.971868
C163	C	1.169796	-1.072543	0.257304
C164	C	1.669796	-0.572543	0.757304
H165	H	1.198003	-1.043536	0.229105
H166	H	1.698003	-0.543536	0.729105
H167	H	1.202056	-1.098159	0.285659
H168	H	1.702056	-0.598159	0.785659
H169	H	1.141495	-1.098215	0.225022
H170	H	1.641495	-0.598215	0.725022
C171	C	1.030568	-0.418841	0.786527
C172	C	1.530568	0.081159	1.286527
H173	H	1.030727	-0.419193	0.734045
H174	H	1.530727	0.080807	1.234045
H175	H	1.077760	-0.431186	0.804280
H176	H	1.577760	0.068814	1.304280
H177	H	0.994168	-0.447280	0.804166
H178	H	1.494168	0.052720	1.304166
C179	C	0.640933	-0.387648	0.256878
C180	C	1.140933	0.112352	0.756878
H181	H	0.671260	-0.403952	0.295169
H182	H	1.171260	0.096048	0.795169
H183	H	0.599774	-0.414636	0.249589
H184	H	1.099774	0.085364	0.749589
H185	H	0.668716	-0.385004	0.212460
H186	H	1.168716	0.114996	0.712460
C187	C	1.169531	-0.533650	0.257166
C188	C	1.669531	-0.033650	0.757166
H189	H	1.162716	-0.489792	0.263924
H190	H	1.662716	0.010208	0.763924
H191	H	1.219292	-0.544379	0.268022
H192	H	1.719292	-0.044379	0.768022
H193	H	1.158709	-0.544451	0.207407
H194	H	1.658709	-0.044451	0.707407
H195	H	0.984265	-1.063244	0.442551
H196	H	1.484265	-0.563244	0.942551
H197	H	0.984088	-0.662407	0.442464
H198	H	1.484088	-0.162407	0.942464
H199	H	1.164622	-0.370558	0.919496
H200	H	1.664622	0.129442	1.419496
H201	H	1.192033	-0.288086	0.920253
H202	H	1.692033	0.211914	1.420253
C203	C	0.970657	-0.934589	0.456037
C204	C	1.470657	-0.434589	0.956037
H205	H	0.942435	-0.963595	0.484223
H206	H	1.442435	-0.463595	0.984223
H207	H	0.998946	-0.908915	0.488321
H208	H	1.498946	-0.408915	0.988321
H209	H	0.938399	-0.908974	0.427670
H210	H	1.438399	-0.408974	0.927670
C211	C	0.500969	-0.218202	0.455792
C212	C	1.000969	0.281798	0.955792
H213	H	0.542349	-0.210274	0.486706
H214	H	1.042349	0.289726	0.986706
H215	H	0.471753	-0.181290	0.452121
H216	H	0.971753	0.318710	0.952121
H217	H	0.472169	-0.251169	0.476327
H218	H	0.972169	0.248831	0.976327
C219	C	0.641104	-0.186622	0.323683
C220	C	1.141104	0.313378	0.823683
H221	H	0.621663	-0.146913	0.337597
H222	H	1.121663	0.353087	0.837597
H223	H	0.693538	-0.185050	0.324819
H224	H	1.193538	0.314950	0.824819
H225	H	0.625060	-0.196715	0.275142
H226	H	1.125060	0.303285	0.775142
H227	H	0.507241	-0.199731	0.338796
H228	H	1.007241	0.300269	0.838796
C229	C	1.169608	-0.671706	0.257211
C230	C	1.669608	-0.171706	0.757211
H231	H	1.197818	-0.642702	0.229011
H232	H	1.697818	-0.142702	0.729011
H233	H	1.201865	-0.697327	0.285563
H234	H	1.701865	-0.197327	0.785563
H235	H	1.141302	-0.697374	0.224929
H236	H	1.641302	-0.197374	0.724929
H237	H	0.635054	-0.222647	0.434651
H238	H	1.135054	0.277353	0.934651
H239	H	0.994293	-0.220464	0.921210
H240	H	1.494293	0.279536	1.421210
C241	C	1.100911	-0.185826	0.785070
C242	C	1.600911	0.314174	1.285070
H243	H	1.136823	-0.204192	0.753487
H244	H	1.636823	0.295808	1.253487
H245	H	1.073342	-0.155446	0.758322
H246	H	1.573342	0.344554	1.258322
H247	H	1.124926	-0.166136	0.825587
H248	H	1.624926	0.333864	1.325587
H249	H	0.984035	-0.543135	0.442449
H250	H	1.484035	-0.043135	0.942449
H251	H	0.506072	-0.341397	0.471298
H252	H	1.006072	0.158603	0.971298
H253	H	1.092056	-0.200748	0.919877
H254	H	1.592056	0.299252	1.419877
H255	H	0.954940	-0.340885	0.793199
H256	H	1.454940	0.159115	1.293199
C257	C	1.030162	-0.418256	0.928909
C258	C	1.530162	0.081744	1.428909
H259	H	1.072352	-0.416520	0.960060
H260	H	1.572352	0.083480	1.460060
H261	H	0.989147	-0.433696	0.956158
H262	H	1.489147	0.066304	1.456158
H263	H	1.039821	-0.445451	0.888443
H264	H	1.539821	0.054549	1.388443
C265	C	0.642403	-0.277131	0.218237
C266	C	1.142403	0.222869	0.718237
H267	H	0.673998	-0.246625	0.239903
H268	H	1.173998	0.253375	0.739903
H269	H	0.669145	-0.300528	0.182451
H270	H	1.169145	0.199472	0.682451
H271	H	0.601897	-0.256697	0.195113
H272	H	1.101897	0.243303	0.695113
C273	C	0.500485	-0.272192	0.220892
C274	C	1.000485	0.227808	0.720892
H275	H	0.519744	-0.282596	0.173629
H276	H	1.019744	0.217404	0.673629
H277	H	0.448041	-0.272897	0.219162
H278	H	0.948041	0.227103	0.719162
H279	H	0.516804	-0.231401	0.234529
H280	H	1.016804	0.268599	0.734529
C281	C	0.641583	-0.418638	0.395721
C282	C	1.141583	0.081362	0.895721
H283	H	0.600766	-0.445955	0.388181
H284	H	1.100766	0.054045	0.888181
H285	H	0.670843	-0.417245	0.352186
H286	H	1.170843	0.082755	0.852186
H287	H	0.670634	-0.433693	0.435673
H288	H	1.170634	0.066307	0.935673
C289	C	1.169735	-0.934489	0.257273
C290	C	1.669735	-0.434489	0.757273
H291	H	1.197983	-0.963468	0.229101
H292	H	1.697983	-0.463468	0.729101
H293	H	1.141422	-0.908871	0.224977
H294	H	1.641422	-0.408871	0.724977
H295	H	1.201969	-0.908815	0.285627
H296	H	1.701969	-0.408815	0.785627
