data_functionalizedCrystal
_audit_creation_method	'MofGen! by Chris Wilmer'
_symmetry_space_group_name_H-M	'P1'
_symmetry_Int_Tables_number	1
_symmetry_cell_setting	triclinic
loop_
_symmetry_equiv_pos_as_xyz
  x,y,z
_cell_length_a	10.723024
_cell_length_b	9.130313
_cell_length_c	10.654550
_cell_angle_alpha	90.000110
_cell_angle_beta	95.523614
_cell_angle_gamma	90.000047
loop_
_atom_site_label
_atom_site_type_symbol
_atom_site_fract_x
_atom_site_fract_y
_atom_site_fract_z
O1	O	1.657208	-0.121786	-0.176144
O2	O	1.294058	-0.121790	-0.193005
O3	O	1.483982	-0.121783	-0.001834
O4	O	1.467283	-0.121794	-0.367315
O5	O	1.483980	0.121816	-0.001839
O6	O	1.294055	0.121808	-0.193010
O7	O	1.657205	0.121813	-0.176149
Cu8	Cu	1.475630	0.144053	-0.184580
Cu9	Cu	1.475633	-0.144031	-0.184574
O10	O	1.467281	0.121805	-0.367320
C11	C	1.247557	0.000008	-0.191780
C12	C	1.109002	0.000007	-0.188109
N13	N	1.475637	0.346676	-0.184583
N14	N	1.475635	-0.346653	-0.184560
C15	C	1.034035	0.000002	-0.295078
C16	C	0.890831	0.000001	-0.291287
C17	C	1.703706	0.000011	-0.177373
C18	C	1.842261	0.000003	-0.181045
C19	C	1.482755	0.000015	0.044961
C20	C	1.479086	0.000010	0.184404
C21	C	1.559758	0.423331	-0.099962
C22	C	1.559754	0.576668	-0.099947
C23	C	1.391506	0.576681	-0.269186
C24	C	1.391504	0.423347	-0.269194
C25	C	1.656898	0.423325	-0.002257
C26	C	1.656895	0.576662	-0.002242
C27	C	1.468508	0.000004	-0.414115
C28	C	1.472176	-0.000000	-0.553558
C29	C	1.590911	0.000016	0.263907
C30	C	1.587456	0.000005	0.394927
C31	C	1.360343	-0.000010	0.366929
C32	C	1.363799	-0.000011	0.235912
C33	C	1.722033	0.000031	0.280072
C34	C	1.718579	0.000021	0.411092
H35	H	1.075871	0.000008	-0.389466
C36	C	1.615921	0.640907	0.120980
N37	N	1.585052	0.689298	0.213786
H38	H	1.323007	0.639122	-0.338073
C39	C	1.233534	-0.000016	0.423601
N40	N	1.138018	-0.000013	0.466284
C41	C	1.778440	0.142125	0.231941
N42	N	1.820923	0.249152	0.195688
C43	C	1.628106	0.367095	0.128144
N44	N	1.606416	0.324743	0.226359
C45	C	1.786413	0.632892	-0.031388
N46	N	1.883952	0.675243	-0.053378
H47	H	1.747501	0.375767	-0.032832
C48	C	1.052490	0.000010	-0.060591
N49	N	1.009927	0.000011	0.035459
C50	C	1.240784	-0.000049	0.148462
N51	N	1.148123	-0.000084	0.082595
H52	H	1.758206	-0.105158	0.456743
H53	H	0.826412	-0.000009	-0.382860
H54	H	1.773321	-0.101907	0.250724
H55	H	0.906672	-0.000003	-0.089466
C56	C	1.299062	0.339031	-0.362380
N57	N	1.229469	0.275525	-0.432611
H58	H	1.767983	0.101965	0.452858
