data_functionalizedCrystal
_audit_creation_method	'MofGen! by Chris Wilmer'
_symmetry_space_group_name_H-M	'P1'
_symmetry_Int_Tables_number	1
_symmetry_cell_setting	triclinic
loop_
_symmetry_equiv_pos_as_xyz
  x,y,z
_cell_length_a	18.266242
_cell_length_b	15.995350
_cell_length_c	15.995350
_cell_angle_alpha	83.492375
_cell_angle_beta	89.995886
_cell_angle_gamma	89.994611
loop_
_atom_site_label
_atom_site_type_symbol
_atom_site_fract_x
_atom_site_fract_y
_atom_site_fract_z
O1	O	0.060815	-1.110991	-0.107928
O2	O	0.560815	-0.610991	0.392072
O3	O	0.060830	-0.867216	-0.121255
O4	O	0.560830	-0.367216	0.378745
O5	O	0.060821	-0.995767	0.007296
O6	O	0.560821	-0.495767	0.507296
O7	O	0.060824	-0.982440	-0.236479
O8	O	0.560824	-0.482440	0.263521
O9	O	-0.060940	-0.995745	0.007303
O10	O	0.439060	-0.495745	0.507303
O11	O	-0.060932	-0.867194	-0.121249
O12	O	0.439068	-0.367194	0.378751
O13	O	-0.060947	-1.110969	-0.107921
O14	O	0.439053	-0.610969	0.392079
Zn15	Zn	-0.080272	-0.989078	-0.114584
Zn16	Zn	0.419728	-0.489078	0.385416
Zn17	Zn	0.080155	-0.989107	-0.114593
Zn18	Zn	0.580155	-0.489107	0.385407
O19	O	-0.060938	-0.982418	-0.236473
O20	O	0.439062	-0.482418	0.263527
C21	C	-0.000049	-0.836010	-0.120701
C22	C	0.499951	-0.336010	0.379299
C23	C	-0.000043	-0.743060	-0.119049
C24	C	0.499957	-0.243060	0.380951
C25	C	-0.000058	-0.995205	0.038494
C26	C	0.499942	-0.495205	0.538494
C27	C	-0.000054	-0.993553	0.131444
C28	C	0.499946	-0.493553	0.631444
N29	N	-0.189759	-0.989064	-0.114577
N30	N	0.310241	-0.489064	0.385423
C31	C	-0.228071	-1.046006	-0.057683
C32	C	0.271929	-0.546006	0.442317
C33	C	-0.304716	-1.046011	-0.057679
C34	C	0.195284	-0.546011	0.442321
C35	C	-0.343046	-0.989083	-0.114584
C36	C	0.156954	-0.489083	0.385416
C37	C	-0.304724	-0.932131	-0.171483
C38	C	0.195276	-0.432131	0.328517
C39	C	-0.228080	-0.932122	-0.171480
C40	C	0.271920	-0.432122	0.328520
N41	N	-0.463377	-0.978426	-0.188673
N42	N	0.036623	-0.478426	0.311327
N43	N	-0.536185	-0.978440	-0.188673
N44	N	-0.036185	-0.478440	0.311327
C45	C	-0.573968	-0.989107	-0.114596
C46	C	-0.073968	-0.489107	0.385404
N47	N	-0.536192	-0.999776	-0.040516
N48	N	-0.036192	-0.499776	0.459484
N49	N	-0.463378	-0.999766	-0.040517
N50	N	0.036622	-0.499766	0.459483
C51	C	-0.426153	-0.989087	-0.114594
C52	C	0.073847	-0.489087	0.385406
C53	C	-0.695388	-1.046057	-0.057693
C54	C	-0.195388	-0.546057	0.442307
C55	C	-0.772034	-1.046056	-0.057688
C56	C	-0.272034	-0.546056	0.442312
C57	C	-0.772040	-0.932180	-0.171499
C58	C	-0.272040	-0.432180	0.328501
C59	C	-0.695395	-0.932177	-0.171497
C60	C	-0.195395	-0.432177	0.328503
C61	C	-0.657074	-0.989120	-0.114595
C62	C	-0.157074	-0.489120	0.385405
N63	N	0.189642	-0.989127	-0.114593
N64	N	0.689642	-0.489127	0.385407
C65	C	-0.000066	-1.142175	-0.108476
C66	C	0.499934	-0.642175	0.391524
C67	C	-0.000067	-1.235125	-0.110127
C68	C	0.499933	-0.735125	0.389873
C69	C	-0.000059	-0.405312	-0.113117
C70	C	0.499941	0.094688	0.386883
C71	C	-0.000331	-0.452746	-0.021565
C72	C	0.499669	0.047254	0.478435
C73	C	-0.000052	-0.549436	-0.023217
C74	C	0.499948	-0.049436	0.476783
C75	C	-0.000052	-0.572873	-0.116060
C76	C	0.499948	-0.072873	0.383940
C77	C	0.069478	-0.531798	-0.161220
C78	C	0.569478	-0.031798	0.338780
C79	C	0.069531	-0.435162	-0.158920
C80	C	0.569531	0.064838	0.341080
C81	C	-0.068935	-0.434799	-0.160804
C82	C	0.431065	0.065201	0.339196
C83	C	-0.069849	-0.531744	-0.160782
C84	C	0.430151	-0.031744	0.339218
C85	C	-0.000045	-0.667570	-0.117727
C86	C	0.499955	-0.167570	0.382273
C87	C	-0.000060	-0.310614	-0.111452
C88	C	0.499940	0.189386	0.388548
C89	C	-0.000057	-0.982980	-0.267671
C90	C	0.499943	-0.482980	0.232329
C91	C	-0.000057	-0.984631	-0.360621
C92	C	0.499943	-0.484631	0.139379
C93	C	-0.000056	-0.987621	0.469192
C94	C	0.499944	-0.487621	0.969192
C95	C	0.000223	-0.896069	0.421758
C96	C	0.500223	-0.396069	0.921758
C97	C	-0.000052	-0.897721	0.325068
C98	C	0.499948	-0.397721	0.825068
C99	C	-0.000054	-0.990564	0.301631
C100	C	0.499946	-0.490564	0.801631
C101	C	-0.069588	-1.035708	0.342713
C102	C	0.430412	-0.535708	0.842713
C103	C	-0.069646	-1.033408	0.439348
C104	C	0.430354	-0.533408	0.939348
C105	C	0.068820	-1.035324	0.439699
C106	C	0.568820	-0.535324	0.939699
C107	C	0.069739	-1.035302	0.342754
C108	C	0.569739	-0.535302	0.842754
C109	C	-0.000056	-0.992231	0.206934
C110	C	0.499944	-0.492231	0.706934
C111	C	-0.000059	-0.985956	0.563890
C112	C	0.499941	-0.485956	1.063890
H113	H	-0.335916	-1.092381	-0.011347
H114	H	0.164084	-0.592381	0.488653
N115	N	-0.186742	-1.107415	0.003695
N116	N	0.313258	-0.607415	0.503695
H117	H	-0.132374	-1.098772	-0.004935
H118	H	0.367626	-0.598772	0.495065
H119	H	-0.200129	-1.166809	-0.006020
H120	H	0.299871	-0.666809	0.493980
N121	N	-0.066184	-0.850382	0.288152
N122	N	0.433816	-0.350382	0.788152
H123	H	-0.095274	-0.828362	0.334700
H124	H	0.404726	-0.328362	0.834700
H125	H	-0.097812	-0.889454	0.258305
H126	H	0.402188	-0.389454	0.758305
N127	N	-0.138491	-0.989780	0.463604
N128	N	0.361509	-0.489780	0.963604
H129	H	-0.168514	-0.972219	0.411544
H130	H	0.331486	-0.472219	0.911544
H131	H	-0.124956	-0.938392	0.491555
H132	H	0.375044	-0.438392	0.991555
N133	N	-0.073832	-1.122437	0.482073
N134	N	0.426168	-0.622437	0.982073
H135	H	-0.075636	-1.163001	0.438107
H136	H	0.424364	-0.663001	0.938107
H137	H	-0.119407	-1.129129	0.517961
H138	H	0.380593	-0.629129	1.017961
N139	N	-0.813372	-0.870772	-0.232869
N140	N	-0.313372	-0.370772	0.267131
H141	H	-0.800028	-0.880402	-0.292304
H142	H	-0.300028	-0.380402	0.207696
H143	H	-0.800023	-0.811380	-0.223109
H144	H	-0.300023	-0.311380	0.276891
N145	N	-0.186758	-0.870700	-0.232849
N146	N	0.313242	-0.370700	0.267151
H147	H	-0.200090	-0.880338	-0.292283
H148	H	0.299910	-0.380338	0.207717
H149	H	-0.132402	-0.879362	-0.224143
H150	H	0.367598	-0.379362	0.275857
H151	H	0.121506	-0.416863	-0.125993
H152	H	0.621506	0.083137	0.374007
N153	N	-0.073008	-1.126068	0.324036
N154	N	0.426992	-0.626068	0.824036
H155	H	-0.029414	-1.138637	0.288676
H156	H	0.470586	-0.638637	0.788676
H157	H	-0.119604	-1.135380	0.292390
H158	H	0.380396	-0.635380	0.792390
H159	H	-0.121287	-0.559051	-0.127815
H160	H	0.378713	-0.059051	0.372185
N161	N	-0.654075	-0.870766	-0.232875
N162	N	-0.154075	-0.370766	0.267125
H163	H	-0.622266	-0.902754	-0.269967
H164	H	-0.122266	-0.402754	0.230033
H165	H	-0.622328	-0.833704	-0.200798
H166	H	-0.122328	-0.333704	0.299202
N167	N	0.069434	-1.124740	0.481757
N168	N	0.569434	-0.624740	0.981757
H169	H	0.113797	-1.155080	0.462564
H170	H	0.613797	-0.655080	0.962564
H171	H	0.023547	-1.154525	0.466036
H172	H	0.523547	-0.654525	0.966036
N173	N	-0.138124	-0.994155	0.305113
N174	N	0.361876	-0.494155	0.805113
H175	H	-0.138812	-0.933097	0.315693
H176	H	0.361188	-0.433097	0.815693
H177	H	-0.182536	-1.023708	0.331963
H178	H	0.317464	-0.523708	0.831963
H179	H	0.121522	-1.005401	0.460236
H180	H	0.621522	-0.505401	0.960236
H181	H	-0.074049	-0.547108	-0.228486
H182	H	0.425951	-0.047108	0.271514
N183	N	-0.069563	-0.392733	-0.250217
N184	N	0.430437	0.107267	0.249783
H185	H	-0.025473	-0.354758	-0.259824
H186	H	0.474527	0.145242	0.240176
H187	H	-0.115722	-0.358288	-0.260215
H188	H	0.384278	0.141712	0.239785
N189	N	0.066267	-0.847601	0.446306
N190	N	0.566267	-0.347601	0.946306
H191	H	0.065385	-0.789037	0.415166
H192	H	0.565385	-0.289037	0.915166
H193	H	0.112324	-0.877499	0.431298
H194	H	0.612324	-0.377499	0.931298
H195	H	0.121178	-1.002296	0.315502
H196	H	0.621178	-0.502296	0.815502
N197	N	-0.066383	-0.428196	0.026908
N198	N	0.433617	0.071804	0.526908
H199	H	-0.065428	-0.365596	0.030648
H200	H	0.434572	0.134404	0.530648
H201	H	-0.065465	-0.459389	0.085445
H202	H	0.434535	0.040611	0.585445
H203	H	0.073935	-1.103008	0.327391
H204	H	0.573935	-0.603008	0.827391
N205	N	-0.346059	-0.870725	-0.232856
N206	N	0.153941	-0.370725	0.267144
H207	H	-0.400427	-0.879372	-0.224227
H208	H	0.099573	-0.379372	0.275773
H209	H	-0.332653	-0.880388	-0.292262
H210	H	0.167347	-0.380388	0.207738
N211	N	-0.066074	-0.587079	0.023804
N212	N	0.433926	-0.087079	0.523804
H213	H	-0.064268	-0.573810	0.084017
H214	H	0.435732	-0.073810	0.584017
H215	H	-0.065984	-0.650093	0.022759
H216	H	0.434016	-0.150093	0.522759
N217	N	-0.654048	-1.107467	0.003678
N218	N	-0.154048	-0.607467	0.503678
H219	H	-0.689953	-1.143537	0.039728
H220	H	-0.189953	-0.643537	0.539728
H221	H	-0.622255	-1.075413	0.040713
H222	H	-0.122255	-0.575413	0.540713
H223	H	0.049256	-0.433161	0.014859
H224	H	0.549256	0.066839	0.514859
H225	H	0.049876	-0.577303	0.012515
H226	H	0.549876	-0.077303	0.512515
N227	N	-0.813356	-1.107490	0.003670
N228	N	-0.313356	-0.607490	0.503670
H229	H	-0.800025	-1.097871	0.063109
H230	H	-0.300025	-0.597871	0.563109
H231	H	-0.799981	-1.166874	-0.006105
H232	H	-0.299981	-0.666874	0.493895
N233	N	0.073682	-0.392438	-0.247952
N234	N	0.573682	0.107562	0.252048
H235	H	0.075476	-0.436404	-0.288517
H236	H	0.575476	0.063596	0.211483
H237	H	0.119246	-0.356542	-0.254681
H238	H	0.619246	0.143458	0.245319
N239	N	-0.065453	-0.847794	0.447703
N240	N	0.434547	-0.347794	0.947703
H241	H	-0.063742	-0.844501	0.510357
H242	H	0.436258	-0.344501	1.010357
H243	H	-0.111729	-0.877515	0.433137
H244	H	0.388271	-0.377515	0.933137
N245	N	0.072917	-0.550514	-0.251567
N246	N	0.572917	-0.050514	0.248433
H247	H	0.029332	-0.585884	-0.264122
H248	H	0.529332	-0.085884	0.235878
H249	H	0.119520	-0.582170	-0.260849
H250	H	0.619520	-0.082170	0.239151
N251	N	0.138023	-0.569375	-0.119670
N252	N	0.638023	-0.069375	0.380330
H253	H	0.182465	-0.542536	-0.149171
H254	H	0.682465	-0.042536	0.350829
H255	H	0.138756	-0.631981	-0.123388
H256	H	0.638756	-0.131981	0.376612
H257	H	-0.121637	-0.414254	-0.130871
H258	H	0.378363	0.085746	0.369129
H259	H	0.049793	-0.862234	0.296643
H260	H	0.549793	-0.362234	0.796643
