data_functionalizedCrystal
_audit_creation_method	'MofGen! by Chris Wilmer'
_symmetry_space_group_name_H-M	'P1'
_symmetry_Int_Tables_number	1
_symmetry_cell_setting	triclinic
loop_
_symmetry_equiv_pos_as_xyz
  x,y,z
_cell_length_a	12.645331
_cell_length_b	12.645330
_cell_length_c	13.897441
_cell_angle_alpha	89.970564
_cell_angle_beta	89.984857
_cell_angle_gamma	90.011881
loop_
_atom_site_label
_atom_site_type_symbol
_atom_site_fract_x
_atom_site_fract_y
_atom_site_fract_z
Zn1	Zn	1.620762	-0.422027	-0.545245
Zn2	Zn	1.620661	-0.599323	-0.383950
Zn3	Zn	1.443479	-0.422071	-0.383979
Zn4	Zn	1.443474	-0.599247	-0.545218
O5	O	1.532094	-0.510667	-0.464598
O6	O	1.769096	-0.445559	-0.523848
O7	O	1.597117	-0.575860	-0.248972
O8	O	1.467040	-0.273718	-0.405395
O9	O	1.769022	-0.575817	-0.405345
O10	O	1.597289	-0.273686	-0.523876
O11	O	1.466942	-0.445634	-0.248994
O12	O	1.295131	-0.445561	-0.405369
O13	O	1.467032	-0.575688	-0.680203
O14	O	1.295127	-0.575731	-0.523830
O15	O	1.597285	-0.445486	-0.680223
O16	O	1.597113	-0.747660	-0.405319
O17	O	1.466934	-0.747604	-0.523802
C18	C	1.256664	-0.510643	-0.464600
C19	C	1.138834	-0.510658	-0.464624
C20	C	0.971304	-0.592997	-0.538760
C21	C	1.093864	-0.592731	-0.539070
C22	C	1.094346	-0.399002	-0.492400
C23	C	0.971748	-0.399505	-0.492922
C24	C	0.971592	-0.539076	-0.362478
C25	C	1.094198	-0.541518	-0.363029
C26	C	1.532041	-0.786097	-0.464575
C27	C	1.532115	-0.903927	-0.464598
C28	C	1.613879	-1.071482	-0.389909
C29	C	1.614145	-0.948921	-0.390092
C30	C	1.562414	-0.948305	-0.566271
C31	C	1.563063	-1.070903	-0.565875
C32	C	1.420020	-1.071254	-0.438615
C33	C	1.420557	-0.948650	-0.436335
C34	C	1.808599	-0.510692	-0.464596
C35	C	1.926429	-0.510702	-0.464595
C36	C	1.532169	-0.510573	-0.716191
C37	C	1.532201	-0.510533	-0.823405
C38	C	1.532176	-0.234162	-0.464642
C39	C	1.532211	-0.116332	-0.464661
C40	C	1.532230	-0.510462	-1.019700
C41	C	1.532211	-0.510505	-0.910468
C42	C	1.532080	-0.510684	-0.213984
C43	C	1.532253	-0.510425	-0.106770
H44	H	1.124811	-0.485927	-0.304806
C45	C	0.929822	-0.647186	-0.328363
C46	C	0.854155	-0.711089	-0.392802
C47	C	0.812384	-0.819203	-0.358699
C48	C	0.846280	-0.863415	-0.260158
C49	C	0.921952	-0.799512	-0.195712
C50	C	0.963723	-0.691397	-0.229815
H51	H	0.829059	-0.678361	-0.465754
H52	H	0.756366	-0.866508	-0.406407
H53	H	0.815359	-0.943448	-0.234913
H54	H	0.947048	-0.832239	-0.122760
H55	H	1.019740	-0.644092	-0.182107
H56	H	0.942571	-0.479133	-0.307219
H57	H	1.392468	-1.102266	-0.365767
H58	H	1.123289	-0.623681	-0.342081
C59	C	1.484512	-0.908927	-0.643536
C60	C	1.498864	-0.942632	-0.749198
C61	C	1.420960	-0.903252	-0.826461
C62	C	1.328705	-0.830168	-0.798063
C63	C	1.314349	-0.796459	-0.692397
C64	C	1.392253	-0.835838	-0.615133
H65	H	1.567160	-0.996737	-0.770224
H66	H	1.431588	-0.928206	-0.904682
H67	H	1.271036	-0.801017	-0.855258
H68	H	1.246053	-0.742354	-0.671370
H69	H	1.381625	-0.810884	-0.536912
H70	H	1.397712	-0.919656	-0.361512
H71	H	1.643494	-0.917516	-0.588703
C72	C	1.134503	-0.704590	-0.515562
C73	C	1.204717	-0.722817	-0.426570
C74	C	1.245347	-0.834682	-0.403067
C75	C	1.215765	-0.928320	-0.468555
C76	C	1.145548	-0.910095	-0.557552
C77	C	1.104917	-0.798230	-0.581056
H78	H	1.226619	-0.653499	-0.378087
H79	H	1.297327	-0.848173	-0.337184
H80	H	1.245842	-1.011129	-0.451156
H81	H	1.123646	-0.979413	-0.606036
H82	H	1.052938	-0.784739	-0.646938
C83	C	1.337808	-1.110441	-0.512155
C84	C	1.318259	-1.229827	-0.524829
C85	C	1.236056	-1.269020	-0.598372
C86	C	1.173403	-1.188828	-0.659240
C87	C	1.192951	-1.069435	-0.646568
C88	C	1.275153	-1.030241	-0.573026
H89	H	1.364640	-1.289197	-0.479769
H90	H	1.221586	-1.357404	-0.607752
H91	H	1.112552	-1.217841	-0.713680
H92	H	1.146569	-1.010065	-0.691628
H93	H	1.289623	-0.941858	-0.563645
C94	C	1.588542	-0.908384	-0.288246
C95	C	1.567708	-0.987569	-0.206178
C96	C	1.542111	-0.947038	-0.104327
C97	C	1.537347	-0.827323	-0.084543
C98	C	1.558181	-0.748131	-0.166612
C99	C	1.583779	-0.788662	-0.268464
H100	H	1.571234	-1.076196	-0.220822
H101	H	1.526688	-1.005662	-0.043574
H102	H	1.518398	-0.797320	-0.009146
H103	H	1.554655	-0.659504	-0.151969
H104	H	1.599202	-0.730038	-0.329217
H105	H	1.356426	-0.918032	-0.486789
H106	H	1.595159	-1.101038	-0.314298
C107	C	0.931451	-0.705222	-0.515517
C108	C	0.957216	-0.756017	-0.417561
C109	C	0.917346	-0.868243	-0.394317
C110	C	0.851712	-0.929674	-0.469030
C111	C	0.825944	-0.878879	-0.566992
C112	C	0.865814	-0.766654	-0.590236
H113	H	1.005805	-0.710542	-0.362248
H114	H	0.936422	-0.905844	-0.321798
H115	H	0.822198	-1.012750	-0.451823
H116	H	0.777355	-0.924354	-0.622305
H117	H	0.846738	-0.729053	-0.662755
H118	H	0.940510	-0.574462	-0.613985
H119	H	1.696529	-1.102212	-0.406942
C120	C	1.133520	-0.567349	-0.641283
C121	C	1.053634	-0.547252	-0.722880
C122	C	1.093289	-0.521864	-0.825097
C123	C	1.212831	-0.516572	-0.845717
C124	C	1.292725	-0.536669	-0.764119
C125	C	1.253069	-0.562058	-0.661902
H126	H	0.965135	-0.551169	-0.707617
H127	H	1.034146	-0.506986	-0.885501
H128	H	1.242187	-0.497778	-0.921385
H129	H	1.381224	-0.532753	-0.779382
H130	H	1.312213	-0.576936	-0.601497
H131	H	1.697241	-0.919514	-0.407318
C132	C	1.673849	-1.109430	-0.595670
C133	C	1.739318	-1.178301	-0.526364
C134	C	1.850107	-1.216821	-0.556157
C135	C	1.895428	-1.186471	-0.655255
C136	C	1.829958	-1.117596	-0.724567
C137	C	1.719168	-1.079076	-0.694774
H138	H	1.705769	-1.200771	-0.453000
H139	H	1.898572	-1.267807	-0.504847
H140	H	1.977441	-1.214986	-0.677310
H141	H	1.863506	-1.095126	-0.797931
H142	H	1.670704	-1.028090	-0.746084
H143	H	0.943170	-0.375439	-0.567574
C144	C	1.486217	-1.110987	-0.643696
C145	C	1.471144	-1.230613	-0.659215
C146	C	1.394313	-1.270691	-0.737044
C147	C	1.332555	-1.191143	-0.799354
C148	C	1.347626	-1.071509	-0.783836
C149	C	1.424457	-1.031431	-0.706007
H150	H	1.516863	-1.289506	-0.613088
H151	H	1.383157	-1.359252	-0.748531
H152	H	1.275680	-1.220812	-0.856968
H153	H	1.301908	-1.012617	-0.829963
H154	H	1.435614	-0.942870	-0.694520
C155	C	0.931634	-0.313845	-0.423154
C156	C	1.011158	-0.245198	-0.367146
C157	C	0.971050	-0.159529	-0.297392
C158	C	0.851418	-0.142506	-0.283646
C159	C	0.771886	-0.211155	-0.339656
C160	C	0.811994	-0.296824	-0.409411
H161	H	1.099724	-0.257798	-0.377320
H162	H	1.029925	-0.108711	-0.255929
H163	H	0.821727	-0.079089	-0.232010
H164	H	0.683320	-0.198555	-0.329482
H165	H	0.753119	-0.347642	-0.450873
C166	C	1.133696	-0.313908	-0.421714
C167	C	1.206858	-0.344892	-0.337748
C168	C	1.246211	-0.259800	-0.267061
C169	C	1.212401	-0.143723	-0.280342
C170	C	1.139236	-0.112734	-0.364312
C171	C	1.099883	-0.197826	-0.434999
H172	H	1.231890	-0.430824	-0.327913
H173	H	1.300373	-0.282741	-0.204901
H174	H	1.241533	-0.080733	-0.228016
H175	H	1.114204	-0.026802	-0.374147
H176	H	1.045721	-0.174885	-0.497159
H177	H	1.125068	-0.374498	-0.566243
