data_functionalizedCrystal
_audit_creation_method	'MofGen! by Chris Wilmer'
_symmetry_space_group_name_H-M	'P1'
_symmetry_Int_Tables_number	1
_symmetry_cell_setting	triclinic
loop_
_symmetry_equiv_pos_as_xyz
  x,y,z
_cell_length_a	16.109301
_cell_length_b	10.654550
_cell_length_c	9.730223
_cell_angle_alpha	89.999758
_cell_angle_beta	90.004396
_cell_angle_gamma	96.026794
loop_
_atom_site_label
_atom_site_type_symbol
_atom_site_fract_x
_atom_site_fract_y
_atom_site_fract_z
O1	O	0.116772	-1.666255	0.114192
O2	O	0.127898	-1.300626	0.114218
O3	O	0.001364	-1.493485	0.114190
O4	O	0.243306	-1.473397	0.114220
O5	O	0.001364	-1.493471	-0.114390
O6	O	0.127898	-1.300612	-0.114362
O7	O	0.116772	-1.666242	-0.114388
Zn8	Zn	0.122335	-1.483425	-0.150667
Zn9	Zn	0.122335	-1.483443	0.150497
O10	O	0.243306	-1.473383	-0.114360
C11	C	-0.029616	-1.492664	-0.000100
C12	C	-0.121926	-1.490225	-0.000102
C13	C	0.127081	-1.253832	-0.000069
C14	C	0.124637	-1.114422	-0.000060
C15	C	0.117589	-1.713036	-0.000098
C16	C	0.120033	-1.852446	-0.000098
C17	C	-0.343552	-1.598991	-0.000088
C18	C	-0.430286	-1.596689	-0.000076
C19	C	-0.411772	-1.367868	-0.000066
C20	C	-0.325039	-1.370172	-0.000067
C21	C	-0.290932	-1.485737	-0.000085
C22	C	-0.464398	-1.481131	-0.000072
C23	C	-0.558439	-1.478634	-0.000060
C24	C	-0.196885	-1.488234	-0.000095
C25	C	0.274286	-1.474203	-0.000067
C26	C	0.366596	-1.476643	-0.000056
N27	N	0.122334	-1.483422	-0.356203
C28	C	0.199138	-1.033926	-0.000054
C29	C	0.196836	-0.902936	-0.000079
C30	C	0.045526	-0.932952	-0.000107
C31	C	0.047828	-1.063939	-0.000093
C32	C	0.173229	-1.559563	-0.428123
C33	C	0.173225	-1.559584	-0.572006
C34	C	0.071428	-1.407312	-0.572036
C35	C	0.071429	-1.407299	-0.428156
N36	N	0.122329	-1.483456	0.356033
H37	H	-0.315784	-1.693091	-0.000100
H38	H	-0.012843	-1.129483	-0.000101
C39	C	0.282444	-1.088981	0.000042
C40	C	0.268519	-1.220924	0.000094
C41	C	0.345242	-1.271679	0.000199
H42	H	0.313218	-1.061495	-0.079644
H43	H	0.313157	-1.061409	0.079788
H44	H	0.237818	-1.248485	-0.079644
H45	H	0.237757	-1.248445	0.079774
H46	H	0.375955	-1.244107	0.079945
H47	H	0.376010	-1.244184	-0.079488
H48	H	0.335804	-1.361207	0.000247
C49	C	0.016141	-1.324490	-0.350309
C50	C	-0.028419	-1.257794	-0.444114
C51	C	-0.079349	-1.181494	-0.372451
H52	H	-0.021873	-1.375833	-0.294176
H53	H	0.049840	-1.266609	-0.294211
H54	H	-0.062115	-1.315667	-0.500187
H55	H	0.009574	-1.206426	-0.500250
H56	H	-0.045650	-1.123614	-0.316354
H57	H	-0.117358	-1.232847	-0.316321
H58	H	-0.109583	-1.136223	-0.436086
C59	C	-0.487277	-1.719788	-0.000154
C60	C	-0.438839	-1.821481	-0.000203
C61	C	-0.491310	-1.934904	-0.000291
H62	H	-0.521508	-1.723832	0.079538
H63	H	-0.521489	-1.723711	-0.079894
H64	H	-0.404641	-1.817560	0.079529
H65	H	-0.404609	-1.817478	-0.079889
H66	H	-0.525522	-1.938826	-0.080032
H67	H	-0.525538	-1.938935	0.079402
H68	H	-0.458452	-2.003915	-0.000337
H69	H	0.257503	-0.837401	-0.000077
H70	H	-0.439553	-1.273779	-0.000054
H71	H	-0.017009	-0.891833	-0.000143
H72	H	0.029983	-1.345334	-0.630638
C73	C	-0.268041	-1.247066	-0.000135
C74	C	-0.316473	-1.145366	-0.000167
C75	C	-0.263995	-1.031949	-0.000241
H76	H	-0.233801	-1.243036	0.079555
H77	H	-0.233838	-1.243139	-0.079877
H78	H	-0.350662	-1.149291	0.079567
H79	H	-0.350711	-1.149355	-0.079851
H80	H	-0.229792	-1.028023	-0.079984
H81	H	-0.229758	-1.027932	0.079450
H82	H	-0.296848	-0.962933	-0.000276
C83	C	0.228518	-1.642353	-0.350250
C84	C	0.273071	-1.709064	-0.444038
C85	C	0.324002	-1.785359	-0.372357
H86	H	0.266536	-1.591005	-0.294119
H87	H	0.194820	-1.700224	-0.294149
H88	H	0.306766	-1.651199	-0.500115
H89	H	0.235074	-1.760435	-0.500173
H90	H	0.290303	-1.843231	-0.316256
H91	H	0.362015	-1.734002	-0.316228
H92	H	0.354231	-1.830640	-0.435981
H93	H	0.214668	-1.621587	-0.630557
