data_functionalizedCrystal
_audit_creation_method	'MofGen! by Chris Wilmer'
_symmetry_space_group_name_H-M	'P1'
_symmetry_Int_Tables_number	1
_symmetry_cell_setting	triclinic
loop_
_symmetry_equiv_pos_as_xyz
  x,y,z
_cell_length_a	19.805407
_cell_length_b	18.101395
_cell_length_c	19.805399
_cell_angle_alpha	89.973474
_cell_angle_beta	89.983114
_cell_angle_gamma	90.031104
loop_
_atom_site_label
_atom_site_type_symbol
_atom_site_fract_x
_atom_site_fract_y
_atom_site_fract_z
Zn1	Zn	1.034696	-0.294836	-0.382731
Zn2	Zn	1.284696	-0.044836	-0.132731
Zn3	Zn	1.534696	0.205164	0.117269
Zn4	Zn	1.784696	0.455164	0.367269
Zn5	Zn	1.034607	-0.418683	-0.269548
Zn6	Zn	1.284607	-0.168683	-0.019548
Zn7	Zn	1.534607	0.081317	0.230452
Zn8	Zn	1.784607	0.331317	0.480452
Zn9	Zn	0.921516	-0.294860	-0.269556
Zn10	Zn	1.171516	-0.044860	-0.019556
Zn11	Zn	1.421516	0.205140	0.230444
Zn12	Zn	1.671516	0.455140	0.480444
Zn13	Zn	0.921465	-0.418641	-0.382695
Zn14	Zn	1.171465	-0.168641	-0.132695
Zn15	Zn	1.421465	0.081359	0.117305
Zn16	Zn	1.671465	0.331359	0.367305
O17	O	0.978071	-0.356755	-0.326132
O18	O	1.228071	-0.106755	-0.076132
O19	O	1.478071	0.143245	0.173868
O20	O	1.728071	0.393245	0.423868
O21	O	1.129400	-0.311273	-0.367729
O22	O	1.379400	-0.061273	-0.117729
O23	O	1.629400	0.188727	0.132271
O24	O	1.879400	0.438727	0.382271
O25	O	1.019589	-0.402285	-0.174832
O26	O	1.269589	-0.152285	0.075168
O27	O	1.519589	0.097715	0.325168
O28	O	1.769589	0.347715	0.575168
O29	O	0.936588	-0.191224	-0.284587
O30	O	1.186588	0.058776	-0.034587
O31	O	1.436588	0.308776	0.215413
O32	O	1.686588	0.558776	0.465413
O33	O	1.129335	-0.402263	-0.284574
O34	O	1.379335	-0.152263	-0.034574
O35	O	1.629335	0.097737	0.215426
O36	O	1.879335	0.347737	0.465426
O37	O	1.019741	-0.191207	-0.367737
O38	O	1.269741	0.058793	-0.117737
O39	O	1.519741	0.308793	0.132263
O40	O	1.769741	0.558793	0.382263
O41	O	0.936501	-0.311313	-0.174838
O42	O	1.186501	-0.061313	0.075162
O43	O	1.436501	0.188687	0.325162
O44	O	1.686501	0.438687	0.575162
O45	O	0.826792	-0.311272	-0.284552
O46	O	1.076792	-0.061272	-0.034552
O47	O	1.326792	0.188728	0.215448
O48	O	1.576792	0.438728	0.465448
O49	O	0.936501	-0.402190	-0.477416
O50	O	1.186501	-0.152190	-0.227416
O51	O	1.436501	0.097810	0.022584
O52	O	1.686501	0.347810	0.272584
O53	O	0.826755	-0.402213	-0.367674
O54	O	1.076755	-0.152213	-0.117674
O55	O	1.326755	0.097787	0.132326
O56	O	1.576755	0.347787	0.382326
O57	O	1.019691	-0.311232	-0.477443
O58	O	1.269691	-0.061232	-0.227443
O59	O	1.519691	0.188768	0.022557
O60	O	1.769691	0.438768	0.272557
O61	O	1.019539	-0.522310	-0.284538
O62	O	1.269539	-0.272310	-0.034538
O63	O	1.519539	-0.022310	0.215462
O64	O	1.769539	0.227690	0.465462
O65	O	0.936414	-0.522279	-0.367667
O66	O	1.186414	-0.272279	-0.117667
O67	O	1.436414	-0.022279	0.132333
O68	O	1.686414	0.227721	0.382333
C69	C	0.802215	-0.356741	-0.326110
C70	C	1.052215	-0.106741	-0.076110
C71	C	1.302215	0.143259	0.173890
C72	C	1.552215	0.393259	0.423890
C73	C	0.726983	-0.356753	-0.326117
C74	C	0.976983	-0.106753	-0.076117
C75	C	1.226983	0.143247	0.173883
C76	C	1.476983	0.393247	0.423883
C77	C	0.691637	-0.404177	-0.369329
C78	C	0.941637	-0.154177	-0.119329
C79	C	1.191637	0.095823	0.130671
C80	C	1.441637	0.345823	0.380671
C81	C	0.620948	-0.404178	-0.369339
C82	C	0.870948	-0.154178	-0.119339
C83	C	1.120948	0.095822	0.130661
C84	C	1.370948	0.345822	0.380661
C85	C	0.585607	-0.356758	-0.326132
C86	C	0.835607	-0.106758	-0.076132
C87	C	1.085607	0.143242	0.173868
C88	C	1.335607	0.393242	0.423868
C89	C	0.620958	-0.309329	-0.282919
C90	C	0.870958	-0.059329	-0.032919
C91	C	1.120958	0.190671	0.217081
C92	C	1.370958	0.440671	0.467081
C93	C	0.691645	-0.309324	-0.282913
C94	C	0.941645	-0.059324	-0.032913
C95	C	1.191645	0.190676	0.217087
C96	C	1.441645	0.440676	0.467087
C97	C	0.335885	-0.309345	-0.282941
C98	C	0.585885	-0.059345	-0.032941
C99	C	0.835885	0.190655	0.217059
C100	C	1.085885	0.440655	0.467059
C101	C	0.265193	-0.309355	-0.282948
C102	C	0.515193	-0.059355	-0.032948
C103	C	0.765193	0.190645	0.217052
C104	C	1.015193	0.440645	0.467052
C105	C	0.265188	-0.404199	-0.369367
C106	C	0.515188	-0.154199	-0.119367
C107	C	0.765188	0.095801	0.130633
C108	C	1.015188	0.345801	0.380633
C109	C	0.335875	-0.404195	-0.369361
C110	C	0.585875	-0.154195	-0.119361
C111	C	0.835875	0.095805	0.130639
C112	C	1.085875	0.345805	0.380639
C113	C	0.371220	-0.356763	-0.326150
C114	C	0.621220	-0.106763	-0.076150
C115	C	0.871220	0.143237	0.173850
C116	C	1.121220	0.393237	0.423850
C117	C	0.447868	-0.356761	-0.326141
C118	C	0.697868	-0.106761	-0.076141
C119	C	0.947868	0.143239	0.173859
C120	C	1.197868	0.393239	0.423859
C121	C	0.508960	-0.356763	-0.326137
C122	C	0.758960	-0.106763	-0.076137
C123	C	1.008960	0.143237	0.173863
C124	C	1.258960	0.393237	0.423863
C125	C	0.977980	-0.549166	-0.326112
C126	C	1.227980	-0.299166	-0.076112
C127	C	1.477980	-0.049166	0.173888
C128	C	1.727980	0.200834	0.423888
C129	C	0.978003	-0.631480	-0.326127
C130	C	1.228003	-0.381480	-0.076127
C131	C	1.478003	-0.131480	0.173873
C132	C	1.728003	0.118520	0.423873
C133	C	0.978152	-0.930571	-0.326163
C134	C	1.228152	-0.680571	-0.076163
C135	C	1.478152	-0.430571	0.173837
C136	C	1.728152	-0.180571	0.423837
C137	C	0.925973	-0.899257	-0.378595
C138	C	1.175973	-0.649257	-0.128595
C139	C	1.425973	-0.399257	0.121405
C140	C	1.675973	-0.149257	0.371405
C141	C	0.925725	-0.813639	-0.378431
C142	C	1.175725	-0.563639	-0.128431
C143	C	1.425725	-0.313639	0.121569
C144	C	1.675725	-0.063639	0.371569
C145	C	0.978078	-0.782188	-0.326146
C146	C	1.228078	-0.532188	-0.076146
C147	C	1.478078	-0.282188	0.173854
C148	C	1.728078	-0.032188	0.423854
C149	C	0.958771	-0.813338	-0.254811
C150	C	1.208771	-0.563338	-0.004811
C151	C	1.458771	-0.313338	0.245189
C152	C	1.708771	-0.063338	0.495189
C153	C	0.958434	-0.898984	-0.255125
C154	C	1.208434	-0.648984	-0.005125
C155	C	1.458434	-0.398984	0.244875
C156	C	1.708434	-0.148984	0.494875
C157	C	1.049752	-0.898915	-0.344438
C158	C	1.299752	-0.648915	-0.094438
C159	C	1.549752	-0.398915	0.155562
C160	C	1.799752	-0.148915	0.405562
C161	C	1.049331	-0.813264	-0.346002
C162	C	1.299331	-0.563264	-0.096002
C163	C	1.549331	-0.313264	0.153998
C164	C	1.799331	-0.063264	0.403998
C165	C	0.978038	-0.698329	-0.326131
C166	C	1.228038	-0.448329	-0.076131
C167	C	1.478038	-0.198329	0.173869
C168	C	1.728038	0.051671	0.423869
C169	C	0.978191	-1.014430	-0.326173
C170	C	1.228191	-0.764430	-0.076173
C171	C	1.478191	-0.514430	0.173827
C172	C	1.728191	-0.264430	0.423827
C173	C	1.154613	-0.356770	-0.326155
C174	C	1.404613	-0.106770	-0.076155
C175	C	1.654613	0.143230	0.173845
C176	C	1.904613	0.393230	0.423845
C177	C	1.229845	-0.356776	-0.326164
C178	C	1.479845	-0.106776	-0.076164
C179	C	1.729845	0.143224	0.173836
C180	C	1.979845	0.393224	0.423836
C181	C	0.978100	-0.356704	-0.502675
C182	C	1.228100	-0.106704	-0.252675
C183	C	1.478100	0.143296	-0.002675
C184	C	1.728100	0.393296	0.247325
C185	C	0.978113	-0.356682	-0.577907
C186	C	1.228113	-0.106682	-0.327907
C187	C	1.478113	0.143318	-0.077907
C188	C	1.728113	0.393318	0.172093
C189	C	0.978180	-0.163593	-0.326167
C190	C	1.228180	0.086407	-0.076167
C191	C	1.478180	0.336407	0.173833
C192	C	1.728180	0.586407	0.423833
C193	C	0.978227	-0.081279	-0.326182
C194	C	1.228227	0.168721	-0.076182
C195	C	1.478227	0.418721	0.173818
C196	C	1.728227	0.668721	0.423818
C197	C	0.934862	-0.309308	-0.613254
C198	C	1.184862	-0.059308	-0.363254
C199	C	1.434862	0.190692	-0.113254
C200	C	1.684862	0.440692	0.136746
C201	C	0.934871	-0.309294	-0.683942
C202	C	1.184871	-0.059294	-0.433942
C203	C	1.434871	0.190706	-0.183942
C204	C	1.684871	0.440706	0.066058
C205	C	0.978135	-0.356650	-0.719283
C206	C	1.228135	-0.106650	-0.469283
C207	C	1.478135	0.143350	-0.219283
C208	C	1.728135	0.393350	0.030717
C209	C	1.021389	-0.404029	-0.683931
C210	C	1.271389	-0.154029	-0.433931
C211	C	1.521389	0.095971	-0.183931
C212	C	1.771389	0.345971	0.066069
C213	C	1.021375	-0.404046	-0.613244
C214	C	1.271375	-0.154046	-0.363244
C215	C	1.521375	0.095954	-0.113244
C216	C	1.771375	0.345954	0.136756
C217	C	1.021442	-0.403959	-0.969005
C218	C	1.271442	-0.153959	-0.719005
C219	C	1.521442	0.096041	-0.469005
C220	C	1.771442	0.346041	-0.219005
C221	C	1.021454	-0.403937	-1.039697
C222	C	1.271454	-0.153937	-0.789697
C223	C	1.521454	0.096063	-0.539697
C224	C	1.771454	0.346063	-0.289697
C225	C	0.934938	-0.309207	-1.039703
C226	C	1.184938	-0.059207	-0.789703
C227	C	1.434938	0.190793	-0.539703
C228	C	1.684938	0.440793	-0.289703
C229	C	0.934925	-0.309224	-0.969016
C230	C	1.184925	-0.059224	-0.719016
C231	C	1.434925	0.190776	-0.469016
C232	C	1.684925	0.440776	-0.219016
C233	C	0.978175	-0.356606	-0.933670
C234	C	1.228175	-0.106606	-0.683670
C235	C	1.478175	0.143394	-0.433670
C236	C	1.728175	0.393394	-0.183670
C237	C	0.978163	-0.356622	-0.857022
C238	C	1.228163	-0.106622	-0.607022
C239	C	1.478163	0.143378	-0.357022
C240	C	1.728163	0.393378	-0.107022
C241	C	0.978151	-0.356631	-0.795930
C242	C	1.228151	-0.106631	-0.545930
C243	C	1.478151	0.143369	-0.295930
C244	C	1.728151	0.393369	-0.045930
C245	C	0.978080	-0.356753	-0.150276
C246	C	1.228080	-0.106753	0.099724
C247	C	1.478080	0.143247	0.349724
C248	C	1.728080	0.393247	0.599724
C249	C	0.978198	-0.356566	-0.075045
C250	C	1.228198	-0.106566	0.174955
C251	C	1.478198	0.143434	0.424955
C252	C	1.728198	0.393434	0.674955
H253	H	0.592178	-0.270716	-0.247742
H254	H	0.842178	-0.020716	0.002258
H255	H	1.092178	0.229284	0.252258
H256	H	1.342178	0.479284	0.502258
Br257	Br	0.876133	-0.245038	-0.731911
Br258	Br	1.126133	0.004962	-0.481911
Br259	Br	1.376133	0.254962	-0.231911
Br260	Br	1.626133	0.504962	0.018089
H261	H	0.720423	-0.270703	-0.247729
H262	H	0.970423	-0.020703	0.002271
H263	H	1.220423	0.229297	0.252271
H264	H	1.470423	0.479297	0.502271
Br265	Br	1.080100	-0.468306	-0.731892
Br266	Br	1.330100	-0.218306	-0.481892
Br267	Br	1.580100	0.031694	-0.231892
Br268	Br	1.830100	0.281694	0.018108
Br269	Br	0.217216	-0.468574	-0.428010
Br270	Br	0.467216	-0.218574	-0.178010
Br271	Br	0.717216	0.031426	0.071990
Br272	Br	0.967216	0.281426	0.321990
H273	H	1.088627	-0.919164	-0.306250
H274	H	1.338627	-0.669164	-0.056250
H275	H	1.588627	-0.419164	0.193750
H276	H	1.838627	-0.169164	0.443750
H277	H	1.056600	-0.442617	-0.584466
H278	H	1.306600	-0.192617	-0.334466
H279	H	1.556600	0.057383	-0.084466
H280	H	1.806600	0.307383	0.165534
Br281	Br	0.876238	-0.244903	-1.087675
Br282	Br	1.126238	0.005097	-0.837675
Br283	Br	1.376238	0.255097	-0.587675
Br284	Br	1.626238	0.505097	-0.337675
Br285	Br	0.945856	-0.778527	-0.466591
Br286	Br	1.195856	-0.528527	-0.216591
Br287	Br	1.445856	-0.278527	0.033409
Br288	Br	1.695856	-0.028527	0.283409
Br289	Br	0.383835	-0.468557	-0.427996
Br290	Br	0.633835	-0.218557	-0.177996
Br291	Br	0.883835	0.031443	0.072004
Br292	Br	1.133835	0.281443	0.322004
Br293	Br	1.117559	-0.777568	-0.286998
Br294	Br	1.367559	-0.527568	-0.036998
Br295	Br	1.617559	-0.277568	0.213002
Br296	Br	1.867559	-0.027568	0.463002
Br297	Br	0.945901	-0.933506	-0.467045
Br298	Br	1.195901	-0.683506	-0.217045
Br299	Br	1.445901	-0.433506	0.032955
Br300	Br	1.695901	-0.183506	0.282955
H301	H	0.364654	-0.270729	-0.247751
H302	H	0.614654	-0.020729	0.002249
H303	H	0.864654	0.229271	0.252249
H304	H	1.114654	0.479271	0.502249
Br305	Br	0.739593	-0.468542	-0.427964
Br306	Br	0.989593	-0.218542	-0.177964
Br307	Br	1.239593	0.031458	0.072036
Br308	Br	1.489593	0.281458	0.322036
Br309	Br	0.871199	-0.932394	-0.229322
Br310	Br	1.121199	-0.682394	0.020678
Br311	Br	1.371199	-0.432394	0.270678
Br312	Br	1.621199	-0.182394	0.520678
Br313	Br	0.876147	-0.245030	-0.565299
Br314	Br	1.126147	0.004970	-0.315299
Br315	Br	1.376147	0.254970	-0.065299
Br316	Br	1.626147	0.504970	0.184701
H317	H	1.056652	-0.442548	-0.940235
H318	H	1.306652	-0.192548	-0.690235
H319	H	1.556652	0.057452	-0.440235
H320	H	1.806652	0.307452	-0.190235
H321	H	0.592173	-0.442797	-0.404525
H322	H	0.842173	-0.192797	-0.154525
H323	H	1.092173	0.057203	0.095475
H324	H	1.342173	0.307203	0.345475
H325	H	1.056687	-0.442503	-1.068469
H326	H	1.306687	-0.192503	-0.818469
H327	H	1.556687	0.057497	-0.568469
H328	H	1.806687	0.307497	-0.318469
Br329	Br	0.217229	-0.244995	-0.224307
Br330	Br	0.467229	0.005005	0.025693
Br331	Br	0.717229	0.255005	0.275693
Br332	Br	0.967229	0.505005	0.525693
Br333	Br	0.838056	-0.935254	-0.358692
Br334	Br	1.088056	-0.685254	-0.108692
Br335	Br	1.338056	-0.435254	0.141308
Br336	Br	1.588056	-0.185254	0.391308
Br337	Br	0.876210	-0.244949	-0.921057
Br338	Br	1.126210	0.005051	-0.671057
Br339	Br	1.376210	0.255051	-0.421057
Br340	Br	1.626210	0.505051	-0.171057
H341	H	0.994790	-0.919700	-0.214727
H342	H	1.244790	-0.669700	0.035273
H343	H	1.494790	-0.419700	0.285273
H344	H	1.744790	-0.169700	0.535273
Br345	Br	1.020120	-0.779391	-0.187919
Br346	Br	1.270120	-0.529391	0.062081
Br347	Br	1.520120	-0.279391	0.312081
Br348	Br	1.770120	-0.029391	0.562081
H349	H	1.067356	-0.920463	-0.395569
H350	H	1.317356	-0.670463	-0.145569
H351	H	1.567356	-0.420463	0.104431
H352	H	1.817356	-0.170463	0.354431
Br353	Br	0.872457	-0.777701	-0.228544
Br354	Br	1.122457	-0.527701	0.021456
Br355	Br	1.372457	-0.277701	0.271456
Br356	Br	1.622457	-0.027701	0.521456
Br357	Br	0.837267	-0.779591	-0.358260
Br358	Br	1.087267	-0.529591	-0.108260
Br359	Br	1.337267	-0.279591	0.141740
Br360	Br	1.587267	-0.029591	0.391740
Br361	Br	1.073602	-0.779328	-0.433504
Br362	Br	1.323602	-0.529328	-0.183504
Br363	Br	1.573602	-0.279328	0.066496
Br364	Br	1.823602	-0.029328	0.316496
