data_functionalizedCrystal
_audit_creation_method	'MofGen! by Chris Wilmer'
_symmetry_space_group_name_H-M	'P1'
_symmetry_Int_Tables_number	1
_symmetry_cell_setting	triclinic
loop_
_symmetry_equiv_pos_as_xyz
  x,y,z
_cell_length_a	23.532407
_cell_length_b	11.026607
_cell_length_c	10.065875
_cell_angle_alpha	100.731764
_cell_angle_beta	81.311311
_cell_angle_gamma	95.717381
loop_
_atom_site_label
_atom_site_type_symbol
_atom_site_fract_x
_atom_site_fract_y
_atom_site_fract_z
O1	O	0.777225	0.129228	-0.113402
O2	O	0.613601	0.150512	-0.113423
O3	O	0.681852	-0.036619	-0.113409
O4	O	0.708974	0.316359	-0.113416
O5	O	0.668852	-0.000793	0.113577
O6	O	0.600602	0.186338	0.113563
O7	O	0.764225	0.165053	0.113584
Zn8	Zn	0.680349	0.181384	0.149613
Zn9	Zn	0.697477	0.134182	-0.149451
O10	O	0.695974	0.352185	0.113571
C11	C	0.670349	-0.063857	0.000082
C12	C	0.655433	-0.198392	0.000075
C13	C	0.585829	0.167883	0.000068
C14	C	0.522441	0.166251	0.000060
C15	C	0.696618	-0.272694	0.000078
C16	C	0.681203	-0.411744	0.000071
C17	C	0.243917	0.048794	0.000099
C18	C	0.303476	0.050309	0.000098
O19	O	0.330417	-0.042866	0.000147
N20	N	0.337804	0.161558	0.000087
C21	C	0.312569	0.271302	0.000090
O22	O	0.347236	0.366067	0.000082
C23	C	0.253010	0.269788	0.000100
C24	C	0.218685	0.158530	0.000098
C25	C	0.209592	-0.062455	0.000098
C26	C	0.150037	-0.063969	0.000096
C27	C	0.124806	0.045767	0.000095
C28	C	0.159130	0.157016	0.000096
C29	C	0.227775	0.379533	0.000113
C30	C	0.168211	0.378010	0.000124
C31	C	0.133887	0.266751	0.000122
C32	C	0.074344	0.265238	0.000092
N33	N	0.040016	0.153988	0.000104
C34	C	0.065247	0.044253	0.000105
C35	C	0.437646	0.274473	0.000071
C36	C	0.497205	0.275986	0.000051
C37	C	0.488108	0.054993	0.000062
C38	C	0.428549	0.053479	0.000072
C39	C	0.403318	0.163224	0.000082
C40	C	-0.059823	0.041082	0.000099
C41	C	-0.119383	0.039577	0.000091
C42	C	-0.110281	0.260571	0.000087
C43	C	-0.050726	0.262076	0.000088
C44	C	-0.025499	0.152322	0.000098
O45	O	0.047363	0.358364	0.000049
O46	O	0.030572	-0.050494	0.000131
C47	C	0.791998	0.147683	0.000091
C48	C	0.855386	0.149312	0.000090
C49	C	0.707478	0.379422	0.000077
C50	C	0.722394	0.513956	0.000075
N51	N	0.668664	0.213597	0.353716
N52	N	0.709166	0.101959	-0.353554
C53	C	0.693407	0.145382	0.421500
C54	C	0.684419	0.170184	0.578665
H55	H	0.743289	-0.233363	0.000093
C56	C	0.730442	0.042864	0.343786
C57	C	0.706895	-0.070633	0.378382
C58	C	0.740995	-0.165094	0.306793
H59	H	0.768447	0.058881	0.367050
H60	H	0.731532	0.039744	0.248480
H61	H	0.705812	-0.067512	0.473666
H62	H	0.668894	-0.086690	0.355114
H63	H	0.742085	-0.168214	0.211488
H64	H	0.778998	-0.149064	0.330063
H65	H	0.725021	-0.242113	0.330247
H66	H	0.634529	-0.451069	0.000056
H67	H	0.737003	0.025187	0.588130
C68	C	0.112692	-0.184640	0.000319
C69	C	0.071541	-0.173527	0.117085
C70	C	0.037127	-0.284663	0.117332
H71	H	0.136180	-0.249864	0.000392
H72	H	0.093763	-0.202332	-0.078792
H73	H	0.090469	-0.155850	0.196176
H74	H	0.048040	-0.108325	0.117037
H75	H	0.018198	-0.302355	0.038220
H76	H	0.060620	-0.349878	0.117401
H77	H	0.009199	-0.277134	0.196549
H78	H	-0.039290	-0.048290	0.000107
C79	C	0.631588	0.315938	0.431713
C80	C	0.630060	0.320218	0.572092
C81	C	0.595917	0.414491	0.643982
H82	H	0.593570	0.299862	0.408541
H83	H	0.647491	0.393072	0.408441
H84	H	0.614156	0.243102	0.595355
H85	H	0.668069	0.336311	0.595306
H86	H	0.611819	0.491625	0.620709
H87	H	0.557901	0.398406	0.620798
H88	H	0.594880	0.417415	0.739236
C89	C	0.236876	-0.181751	0.000023
C90	C	0.194059	-0.279491	-0.000010
C91	C	0.219167	-0.389417	-0.000110
H92	H	0.255388	-0.173456	0.079148
H93	H	0.264434	-0.198324	-0.079172
H94	H	0.166511	-0.262922	0.079177
H95	H	0.175543	-0.287825	-0.079130
H96	H	0.246726	-0.405990	-0.079304
H97	H	0.237680	-0.381110	0.079017
H98	H	0.190121	-0.455749	-0.000144
C99	C	0.593163	-0.250620	0.000274
C100	C	0.559484	-0.192415	0.117033
C101	C	0.502116	-0.240479	0.117253
H102	H	0.590989	-0.337093	0.000339
H103	H	0.579264	-0.236212	-0.078842
H104	H	0.573379	-0.206833	0.196129
H105	H	0.561641	-0.105944	0.116993
H106	H	0.488217	-0.226071	0.038137
H107	H	0.499948	-0.326951	0.117314
H108	H	0.479257	-0.200986	0.196465
H109	H	0.400605	-0.037117	0.000071
C110	C	-0.013402	0.382818	0.000306
C111	C	0.014372	0.408558	0.117082
C112	C	0.048758	0.519773	0.117341
H113	H	-0.036899	0.448065	0.000374
H114	H	0.014589	0.375543	-0.078798
H115	H	-0.013615	0.415841	0.196166
H116	H	0.037879	0.343341	0.117039
H117	H	0.076749	0.512498	0.038236
H118	H	0.025257	0.585010	0.117405
H119	H	0.067611	0.537245	0.196564
H120	H	0.769075	-0.446738	-0.000022
H121	H	0.508662	-0.034360	0.000063
C122	C	-0.156555	-0.081338	0.000162
C123	C	-0.121708	-0.177104	0.000204
C124	C	-0.155930	-0.288500	0.000290
H125	H	-0.175457	-0.099191	-0.078971
H126	H	-0.184502	-0.074091	0.079349
H127	H	-0.093772	-0.184352	-0.078975
H128	H	-0.102807	-0.159293	0.079332
H129	H	-0.183877	-0.281253	0.079477
H130	H	-0.174830	-0.306340	-0.078845
H131	H	-0.132292	-0.353488	0.000331
C132	C	0.534367	0.396916	0.000107
C133	C	0.499513	0.492689	0.000138
C134	C	0.533722	0.604114	0.000216
H135	H	0.562330	0.389789	-0.079026
H136	H	0.553246	0.414671	0.079294
H137	H	0.480643	0.474938	-0.079042
H138	H	0.471551	0.499855	0.079265
H139	H	0.552602	0.621870	0.079404
H140	H	0.561684	0.596975	-0.078918
H141	H	0.510079	0.669111	0.000250
C142	C	0.410194	0.393505	-0.000157
C143	C	0.382939	0.380650	-0.116918
C144	C	0.357641	0.490270	-0.117165
H145	H	0.439115	0.460059	-0.000239
H146	H	0.382589	0.410020	0.078958
H147	H	0.410542	0.364151	-0.196012
H148	H	0.354010	0.314118	-0.116861
H149	H	0.330036	0.506784	-0.038050
H150	H	0.386566	0.556815	-0.117243
H151	H	0.339142	0.481558	-0.196378
H152	H	0.255713	0.470131	0.000109
H153	H	0.147672	0.467381	0.000139
H154	H	-0.130834	0.349914	0.000080
H155	H	0.656577	0.246947	0.636981
