data_functionalizedCrystal
_audit_creation_method	'MofGen! by Chris Wilmer'
_symmetry_space_group_name_H-M	'P1'
_symmetry_Int_Tables_number	1
_symmetry_cell_setting	triclinic
loop_
_symmetry_equiv_pos_as_xyz
  x,y,z
_cell_length_a	10.489741
_cell_length_b	11.792241
_cell_length_c	10.268362
_cell_angle_alpha	90.005428
_cell_angle_beta	89.993443
_cell_angle_gamma	95.633705
loop_
_atom_site_label
_atom_site_type_symbol
_atom_site_fract_x
_atom_site_fract_y
_atom_site_fract_z
O1	O	1.693508	-0.160138	-0.108362
O2	O	2.026841	0.173196	0.224972
O3	O	2.360175	0.506529	0.558305
O4	O	1.322261	-0.175169	-0.108351
O5	O	1.655595	0.158164	0.224982
O6	O	1.988928	0.491498	0.558316
O7	O	1.516894	-0.002507	-0.108347
O8	O	1.850227	0.330826	0.224986
O9	O	2.183560	0.664160	0.558319
O10	O	1.498876	-0.332799	-0.108365
O11	O	1.832209	0.000534	0.224968
O12	O	2.165542	0.333867	0.558302
O13	O	1.516877	-0.002500	0.108253
O14	O	1.850210	0.330834	0.441587
O15	O	2.183543	0.664167	0.774920
O16	O	1.322244	-0.175162	0.108250
O17	O	1.655577	0.158172	0.441583
O18	O	1.988911	0.491505	0.774916
O19	O	1.693491	-0.160130	0.108239
O20	O	2.026824	0.173203	0.441572
O21	O	2.360158	0.506536	0.774906
Cu22	Cu	1.507866	-0.167645	0.128022
Cu23	Cu	1.841199	0.165688	0.461355
Cu24	Cu	2.174533	0.499021	0.794688
Cu25	Cu	1.507886	-0.167654	-0.128134
Cu26	Cu	1.841220	0.165679	0.205200
Cu27	Cu	2.174553	0.499013	0.538533
O28	O	1.498858	-0.332792	0.108236
O29	O	1.832192	0.000541	0.441569
O30	O	2.165525	0.333874	0.774902
C31	C	1.274725	-0.174030	-0.000049
C32	C	1.608058	0.159303	0.333284
C33	C	1.941392	0.492637	0.666618
C34	C	1.133107	-0.170633	-0.000045
C35	C	1.466440	0.162700	0.333288
C36	C	1.799774	0.496033	0.666622
C37	C	1.515753	0.039791	-0.000047
C38	C	1.849087	0.373124	0.333286
C39	C	2.182420	0.706457	0.666619
C40	C	1.512366	0.165813	-0.000049
C41	C	1.845699	0.499147	0.333285
C42	C	2.179032	0.832480	0.666618
C43	C	1.741027	-0.161269	-0.000065
C44	C	2.074361	0.172064	0.333268
C45	C	2.407694	0.505397	0.666601
C46	C	1.882645	-0.164666	-0.000078
C47	C	2.215979	0.168668	0.333255
C48	C	2.549312	0.502001	0.666588
C49	C	1.950411	-0.274526	-0.000070
C50	C	2.283744	0.058808	0.333263
C51	C	2.617078	0.392141	0.666596
C52	C	2.042723	-0.222632	-0.106859
C53	C	2.376056	0.110701	0.226475
C54	C	2.709390	0.444034	0.559808
C55	C	2.042672	-0.222599	0.106693
C56	C	2.376006	0.110734	0.440026
C57	C	2.709339	0.444068	0.773359
C58	C	1.973092	-0.112728	-0.106955
C59	C	2.306425	0.220606	0.226379
C60	C	2.639759	0.553939	0.559712
C61	C	1.973032	-0.112709	0.106693
C62	C	2.306365	0.220624	0.440026
C63	C	2.639699	0.553957	0.773359
C64	C	2.065317	-0.060737	-0.000122
C65	C	2.398650	0.272597	0.333212
C66	C	2.731983	0.605930	0.666545
C67	C	1.499999	-0.375090	-0.000067
C68	C	1.833332	-0.041756	0.333266
C69	C	2.166665	0.291577	0.666599
C70	C	1.503387	-0.501113	-0.000075
C71	C	1.836720	-0.167779	0.333259
C72	C	2.170053	0.165554	0.666592
N73	N	1.507861	-0.167639	0.308188
N74	N	1.841195	0.165695	0.641521
N75	N	2.174528	0.499028	0.974854
C76	C	1.506136	0.396542	-0.000070
C77	C	1.839470	0.729876	0.333263
C78	C	2.172803	1.063209	0.666597
C79	C	1.509598	0.268148	-0.000058
C80	C	1.842931	0.601481	0.333275
C81	C	2.176264	0.934815	0.666608
N82	N	1.507901	-0.167652	-0.308299
N83	N	1.841234	0.165682	0.025034
N84	N	2.174568	0.499015	0.358367
C85	C	1.507880	-0.167652	0.573858
C86	C	1.841213	0.165682	0.907192
C87	C	2.174546	0.499015	1.240525
C88	C	1.507865	-0.167648	0.426020
C89	C	1.841199	0.165686	0.759354
C90	C	2.174532	0.499019	1.092687
H91	H	1.900455	-0.364852	-0.000183
H92	H	2.233788	-0.031519	0.333150
H93	H	2.567121	0.301814	0.666483
H94	H	1.942428	-0.066290	-0.197344
H95	H	2.275762	0.267044	0.135989
H96	H	2.609095	0.600377	0.469323
H97	H	2.073592	-0.269122	-0.197143
H98	H	2.406926	0.064212	0.136190
H99	H	2.740259	0.397545	0.469523
H100	H	1.942134	-0.066262	0.196986
H101	H	2.275468	0.267071	0.530319
H102	H	2.608801	0.600405	0.863652
Cl103	Cl	2.142103	0.078843	-0.000195
Cl104	Cl	2.475436	0.412177	0.333138
Cl105	Cl	2.808769	0.745510	0.666471
Cl106	Cl	2.090247	-0.294390	0.246083
Cl107	Cl	2.423580	0.038943	0.579416
Cl108	Cl	2.756914	0.372277	0.912749
