data_functionalizedCrystal
_audit_creation_method	'MofGen! by Chris Wilmer'
_symmetry_space_group_name_H-M	'P1'
_symmetry_Int_Tables_number	1
_symmetry_cell_setting	triclinic
loop_
_symmetry_equiv_pos_as_xyz
  x,y,z
_cell_length_a	27.732011
_cell_length_b	12.837942
_cell_length_c	11.295483
_cell_angle_alpha	85.469583
_cell_angle_beta	85.948896
_cell_angle_gamma	91.271650
loop_
_atom_site_label
_atom_site_type_symbol
_atom_site_fract_x
_atom_site_fract_y
_atom_site_fract_z
O1	O	0.649952	-0.116081	-0.098477
O2	O	1.149952	0.383919	0.401523
O3	O	0.510090	-0.134853	-0.098597
O4	O	1.010090	0.365147	0.401403
O5	O	0.576920	0.025385	-0.098532
O6	O	1.076920	0.525385	0.401468
O7	O	0.583123	-0.276319	-0.098542
O8	O	1.083123	0.223681	0.401458
O9	O	0.571049	0.011332	0.099513
O10	O	1.071049	0.511332	0.599513
O11	O	0.504220	-0.148905	0.099448
O12	O	1.004220	0.351095	0.599448
O13	O	0.644082	-0.130134	0.099568
O14	O	1.144082	0.369866	0.599568
Cu15	Cu	0.573615	-0.140803	0.117591
Cu16	Cu	1.073615	0.359197	0.617591
Cu17	Cu	0.580557	-0.124184	-0.116620
Cu18	Cu	1.080557	0.375816	0.383380
O19	O	0.577252	-0.290372	0.099503
O20	O	1.077252	0.209628	0.599503
C21	C	0.489129	-0.141490	0.000410
C22	C	0.989129	0.358510	0.500410
C23	C	0.435417	-0.140317	0.000364
C24	C	0.935417	0.359683	0.500364
C25	C	0.665043	-0.123497	0.000558
C26	C	1.165043	0.376503	0.500558
C27	C	0.718756	-0.124669	0.000596
C28	C	1.218756	0.375331	0.500596
C29	C	0.571889	0.056945	0.000488
C30	C	1.071889	0.556945	0.500488
C31	C	0.565640	0.171921	0.000480
C32	C	1.065640	0.671921	0.500480
C33	C	1.099146	-0.140688	0.108441
C34	C	1.599146	0.359312	0.608441
C35	C	0.897267	-0.136285	0.108501
C36	C	1.397267	0.363715	0.608501
O37	O	0.868454	-0.142189	0.200317
O38	O	1.368454	0.357811	0.700317
N39	N	0.875210	-0.128075	0.000552
N40	N	1.375210	0.371925	0.500552
C41	C	0.903627	-0.120957	-0.107419
C42	C	1.403627	0.379043	0.392581
O43	O	0.880235	-0.113862	-0.199235
O44	O	1.380235	0.386138	0.300765
C45	C	1.105505	-0.125353	-0.107478
C46	C	1.605505	0.374647	0.392522
C47	C	1.127559	-0.133574	0.000478
C48	C	1.627559	0.366426	0.500478
C49	C	1.121199	-0.148908	0.216387
C50	C	1.621199	0.351092	0.716387
C51	C	1.171666	-0.150014	0.216371
C52	C	1.671666	0.349986	0.716371
C53	C	1.200079	-0.142900	0.108409
C54	C	1.700079	0.357100	0.608409
C55	C	1.178025	-0.134680	0.000462
C56	C	1.678025	0.365320	0.500462
C57	C	1.133921	-0.118228	-0.215448
C58	C	1.633921	0.381772	0.284552
C59	C	1.184394	-0.119325	-0.215453
C60	C	1.684394	0.380675	0.284547
C61	C	1.206447	-0.127546	-0.107497
C62	C	1.706447	0.372454	0.392503
C63	C	1.256905	-0.128673	-0.107517
C64	C	1.756905	0.371327	0.392483
N65	N	1.278961	-0.136884	0.000431
N66	N	1.778961	0.363116	0.500431
C67	C	1.250548	-0.143997	0.108394
C68	C	1.750548	0.356003	0.608394
C69	C	0.797638	-0.118652	-0.107381
C70	C	1.297638	0.381348	0.392619
C71	C	0.747169	-0.117555	-0.107366
C72	C	1.247169	0.382445	0.392634
C73	C	0.740812	-0.132882	0.108554
C74	C	1.240812	0.367118	0.608554
C75	C	0.791282	-0.133986	0.108538
C76	C	1.291282	0.366014	0.608538
C77	C	0.819694	-0.126863	0.000568
C78	C	1.319694	0.373137	0.500568
C79	C	1.356532	-0.146321	0.108352
C80	C	1.856532	0.353679	0.608352
C81	C	1.407004	-0.147431	0.108327
C82	C	1.907004	0.352569	0.608327
C83	C	1.413356	-0.132099	-0.107593
C84	C	1.913356	0.367901	0.392407
C85	C	1.362889	-0.130995	-0.107568
C86	C	1.862889	0.369005	0.392432
C87	C	1.334478	-0.138103	0.000414
C88	C	1.834478	0.361897	0.500414
O89	O	1.285748	-0.122761	-0.199286
O90	O	1.785748	0.377239	0.300714
O91	O	1.273950	-0.151069	0.200196
O92	O	1.773950	0.348931	0.700196
C93	C	1.048679	-0.139582	0.108457
C94	C	1.548679	0.360418	0.608457
C95	C	1.026625	-0.131362	0.000510
C96	C	1.526625	0.368638	0.500510
C97	C	1.055038	-0.124248	-0.107453
C98	C	1.555038	0.375752	0.392547
C99	C	0.976156	-0.130265	0.000524
C100	C	1.476156	0.369735	0.500524
C101	C	0.947743	-0.137379	0.108487
C102	C	1.447743	0.362621	0.608487
C103	C	0.969799	-0.145589	0.216436
C104	C	1.469799	0.354411	0.716436
C105	C	1.020266	-0.146695	0.216420
C106	C	1.520266	0.353305	0.716420
C107	C	1.032982	-0.116037	-0.215401
C108	C	1.532982	0.383963	0.284599
C109	C	0.982515	-0.114933	-0.215376
C110	C	1.482515	0.385067	0.284624
C111	C	0.954102	-0.122047	-0.107414
C112	C	1.454102	0.377953	0.392586
C113	C	0.582283	-0.321932	0.000481
C114	C	1.082283	0.178068	0.500481
C115	C	0.588532	-0.436907	0.000480
C116	C	1.088532	0.063093	0.500480
N117	N	0.568735	-0.152491	0.282323
N118	N	1.068735	0.347509	0.782323
C119	C	0.640768	0.414101	0.000520
C120	C	1.140768	0.914101	0.500520
C121	C	0.634899	0.522132	0.000513
C122	C	1.134899	1.022132	0.500513
C123	C	0.548032	0.496016	0.000451
C124	C	1.048032	0.996016	0.500451
C125	C	0.553902	0.387985	0.000458
C126	C	1.053902	0.887985	0.500458
C127	C	0.600271	0.347032	0.000494
C128	C	1.100271	0.847032	0.500494
C129	C	0.606140	0.238998	0.000510
C130	C	1.106140	0.738998	0.500510
C131	C	0.519274	0.212885	0.000439
C132	C	1.019274	0.712885	0.500439
C133	C	0.513405	0.320916	0.000432
C134	C	1.013405	0.820916	0.500432
N135	N	0.585441	-0.112488	-0.281352
N136	N	1.085441	0.387512	0.218648
C137	C	0.620565	-0.028293	0.531662
C138	C	1.120565	0.471707	1.031662
C139	C	0.616881	-0.037133	0.656322
C140	C	1.116881	0.462867	1.156322
C141	C	0.557681	-0.179005	0.656305
C142	C	1.057681	0.320995	1.156305
C143	C	0.561365	-0.170165	0.531645
C144	C	1.061365	0.329835	1.031645
C145	C	0.592808	-0.094808	0.469328
C146	C	1.092808	0.405192	0.969328
C147	C	0.596495	-0.085973	0.344666
C148	C	1.096495	0.414027	0.844666
C149	C	0.537292	-0.227840	0.344651
C150	C	1.037292	0.272160	0.844651
C151	C	0.533608	-0.236680	0.469311
C152	C	1.033608	0.263320	0.969311
H153	H	1.424957	-0.154129	0.196241
H154	H	1.924957	0.345871	0.696241
Br155	Br	0.464310	0.121855	0.000425
Br156	Br	0.964310	0.621855	0.500425
Br157	Br	1.317982	-0.155964	0.254901
Br158	Br	1.817982	0.344036	0.754901
H159	H	0.646171	0.033059	0.480923
H160	H	1.146171	0.533059	0.980923
H161	H	0.510281	0.529380	0.000408
H162	H	1.010281	1.029380	0.500408
Br163	Br	0.515002	-0.281257	0.740890
Br164	Br	1.015002	0.218743	1.240890
Br165	Br	1.222951	-0.109652	-0.361993
Br166	Br	1.722951	0.390348	0.138007
H167	H	0.622099	-0.024616	0.293928
H168	H	1.122099	0.475384	0.793928
Br169	Br	0.689862	0.613154	0.000540
Br170	Br	1.189862	1.113154	0.500540
Br171	Br	0.450479	0.376506	0.000367
Br172	Br	0.950479	0.876506	0.500367
Br173	Br	0.654550	0.053145	0.740917
Br174	Br	1.154550	0.553145	1.240917
H175	H	0.508006	-0.298032	0.520064
H176	H	1.008006	0.201968	1.020064
Br177	Br	0.499626	-0.318123	0.260043
Br178	Br	0.999626	0.181877	0.760043
Br179	Br	0.931229	-0.155251	0.362955
Br180	Br	1.431229	0.344749	0.862955
H181	H	1.098070	-0.154699	0.304309
H182	H	1.598070	0.345301	0.804309
H183	H	1.189617	-0.156703	0.304280
H184	H	1.689617	0.343297	0.804280
H185	H	0.678523	0.380756	0.000561
H186	H	1.178523	0.880756	0.500561
H187	H	1.436499	-0.126312	-0.195493
H188	H	1.936499	0.373688	0.304507
H189	H	0.809234	-0.140682	0.196445
H190	H	1.309234	0.359318	0.696445
H191	H	0.729217	-0.110877	-0.195275
H192	H	1.229217	0.389123	0.304725
Br193	Br	0.836191	-0.108985	-0.253927
Br194	Br	1.336191	0.391015	0.246073
Br195	Br	1.104005	-0.107068	-0.361968
Br196	Br	1.604005	0.392932	0.138032
Br197	Br	0.702242	-0.142535	0.255074
Br198	Br	1.202242	0.357465	0.755074
H199	H	1.344932	-0.124317	-0.195474
H200	H	1.844932	0.375683	0.304526
H201	H	1.038217	-0.153390	0.304328
H202	H	1.538217	0.346610	0.804328
Br203	Br	0.669068	0.183418	0.000572
Br204	Br	1.169068	0.683418	0.500572
H205	H	0.964564	-0.108246	-0.303294
H206	H	1.464564	0.391754	0.196706
H207	H	1.056111	-0.110241	-0.303320
H208	H	1.556111	0.389759	0.196680
