data_functionalizedCrystal
_audit_creation_method	'MofGen! by Chris Wilmer'
_symmetry_space_group_name_H-M	'P1'
_symmetry_Int_Tables_number	1
_symmetry_cell_setting	triclinic
loop_
_symmetry_equiv_pos_as_xyz
  x,y,z
_cell_length_a	21.395362
_cell_length_b	12.645330
_cell_length_c	21.395356
_cell_angle_alpha	90.020601
_cell_angle_beta	90.042977
_cell_angle_gamma	90.042067
loop_
_atom_site_label
_atom_site_type_symbol
_atom_site_fract_x
_atom_site_fract_y
_atom_site_fract_z
Zn1	Zn	-0.957873	0.421617	-0.354616
Zn2	Zn	-0.957786	0.598894	-0.249852
Zn3	Zn	-0.853090	0.421695	-0.249818
Zn4	Zn	-0.853066	0.598888	-0.354557
O5	O	-0.905454	0.510273	-0.302211
O6	O	-1.045540	0.445103	-0.340759
O7	O	-0.943871	0.575424	-0.162169
O8	O	-0.867036	0.273337	-0.263730
O9	O	-1.045475	0.575348	-0.263788
O10	O	-0.944020	0.273280	-0.340725
O11	O	-0.866952	0.445236	-0.162144
O12	O	-0.765409	0.445229	-0.263672
O13	O	-0.866995	0.575337	-0.442242
O14	O	-0.765391	0.575413	-0.340623
O15	O	-0.943997	0.445097	-0.442286
O16	O	-0.943848	0.747241	-0.263730
O17	O	-0.866910	0.747236	-0.340657
C18	C	-0.742666	0.510330	-0.302138
C19	C	-0.673025	0.510379	-0.302122
C20	C	-0.905384	0.785703	-0.302204
C21	C	-0.905411	0.903533	-0.302223
C22	C	-0.905503	0.510208	-0.465634
C23	C	-0.905524	0.510180	-0.535275
C24	C	-1.068877	0.510218	-0.302284
C25	C	-1.138518	0.510194	-0.302315
C26	C	-0.640319	0.578255	-0.342130
C27	C	-0.574883	0.578229	-0.342158
C28	C	-0.542156	0.510338	-0.302166
C29	C	-0.574870	0.442449	-0.262155
C30	C	-0.640304	0.442469	-0.262133
C31	C	-0.438432	0.501813	-0.245761
C32	C	-0.372999	0.501800	-0.245782
C33	C	-0.340336	0.510269	-0.302236
C34	C	-0.373113	0.518773	-0.358670
C35	C	-0.438547	0.518793	-0.358647
C36	C	-0.471204	0.510308	-0.302186
C37	C	-0.236677	0.578121	-0.342278
C38	C	-0.171241	0.578087	-0.342307
C39	C	-0.171229	0.442312	-0.262298
C40	C	-0.236664	0.442340	-0.262275
C41	C	-0.269384	0.510250	-0.302264
C42	C	-0.857195	1.071138	-0.350768
C43	C	-0.856959	0.948579	-0.350611
C44	C	-0.887530	0.948129	-0.236186
C45	C	-0.887225	1.070728	-0.236482
C46	C	-0.971770	1.070593	-0.319182
C47	C	-0.971374	0.947987	-0.320625
C48	C	-0.905519	1.233768	-0.302233
C49	C	-0.905490	1.115938	-0.302248
C50	C	-0.865483	0.442383	-0.567965
C51	C	-0.865481	0.442364	-0.633401
C52	C	-0.905531	0.510129	-0.666144
C53	C	-0.945575	0.577939	-0.633446
C54	C	-0.945572	0.577964	-0.568011
C55	C	-0.961983	0.518437	-0.769850
C56	C	-0.961988	0.518405	-0.835283
C57	C	-0.905541	0.510058	-0.867965
C58	C	-0.849088	0.501721	-0.835205
C59	C	-0.849085	0.501746	-0.769771
C60	C	-0.905539	0.510110	-0.737096
C61	C	-0.865494	0.442236	-0.971607
C62	C	-0.865491	0.442224	-1.037044
C63	C	-0.945591	0.577794	-1.037087
C64	C	-0.945589	0.577812	-0.971652
C65	C	-0.905541	0.510027	-0.938916
C66	C	-0.905441	0.510262	-0.139423
C67	C	-0.905541	0.509992	-0.069782
H68	H	-0.666955	0.633551	-0.374693
H69	H	-0.263294	0.387073	-0.229692
H70	H	-0.346317	0.494883	-0.199830
O71	O	-0.822299	0.369132	-0.936297
H72	H	-0.829030	0.380526	-0.885303
O73	O	-0.822304	0.369093	-1.072308
H74	H	-0.794463	0.321958	-1.038549
H75	H	-0.465232	0.525714	-0.404598
H76	H	-0.548220	0.387169	-0.229595
H77	H	-0.984859	0.918835	-0.369225
O78	O	-0.337895	0.527899	-0.419567
H79	H	-0.286888	0.526441	-0.410106
H80	H	-0.978181	0.633171	-0.541395
H81	H	-0.144612	0.633358	-0.374890
H82	H	-0.263319	0.633411	-0.374842
O83	O	-0.932652	0.909489	-0.186985
H84	H	-0.906760	0.863875	-0.151016
O85	O	-0.988791	0.650886	-1.072392
H86	H	-0.982070	0.639476	-1.123385
O87	O	-1.019469	1.109199	-0.272479
H88	H	-0.996120	1.160403	-0.237361
O89	O	-0.675580	0.369272	-0.218965
H90	H	-0.663079	0.286088	-0.229789
O91	O	-0.788200	0.492762	-0.734440
H92	H	-0.797684	0.494175	-0.683451
O93	O	-0.871776	0.908632	-0.415470
H94	H	-0.871624	0.820857	-0.415423
O95	O	-0.988790	0.650912	-0.936386
H96	H	-1.016646	0.698021	-0.970146
O97	O	-0.135942	0.369092	-0.219156
H98	H	-0.084946	0.380487	-0.225888
H99	H	-0.978184	0.633115	-0.660109
H100	H	-0.808365	1.102061	-0.339690
O101	O	-0.473661	0.492681	-0.184868
H102	H	-0.439878	0.486783	-0.145630
O103	O	-0.871639	1.110605	-0.415787
H104	H	-0.913423	1.162508	-0.414226
H105	H	-0.920875	1.100365	-0.199097
H106	H	-0.988075	1.101434	-0.366520
O107	O	-0.539595	0.651482	-0.385287
H108	H	-0.573341	0.698723	-0.413079
H109	H	-0.807828	0.919366	-0.339389
H110	H	-1.009258	0.917315	-0.287861
H111	H	-0.838774	1.099440	-0.222139
O112	O	-0.822295	0.369269	-0.532656
H113	H	-0.794451	0.322123	-0.566385
O114	O	-0.824026	0.907624	-0.216838
H115	H	-0.805097	0.855746	-0.254145
H116	H	-0.832875	0.387150	-0.660022
O117	O	-0.788203	0.492721	-0.870450
H118	H	-0.764854	0.417304	-0.857888
H119	H	-1.007955	0.525188	-0.861950
O120	O	-1.022863	0.527473	-0.734594
H121	H	-1.029280	0.456483	-0.704780
