data_functionalizedCrystal
_audit_creation_method	'MofGen! by Chris Wilmer'
_symmetry_space_group_name_H-M	'P1'
_symmetry_Int_Tables_number	1
_symmetry_cell_setting	triclinic
loop_
_symmetry_equiv_pos_as_xyz
  x,y,z
_cell_length_a	15.944545
_cell_length_b	15.944551
_cell_length_c	10.065875
_cell_angle_alpha	98.788968
_cell_angle_beta	81.255204
_cell_angle_gamma	83.497455
loop_
_atom_site_label
_atom_site_type_symbol
_atom_site_fract_x
_atom_site_fract_y
_atom_site_fract_z
O1	O	1.126807	0.095970	-0.113407
O2	O	0.882259	0.109329	-0.113429
O3	O	1.011210	-0.019624	-0.113405
O4	O	0.997856	0.224923	-0.113431
O5	O	0.986621	0.005064	0.113579
O6	O	0.857670	0.134018	0.113555
O7	O	1.102218	0.120658	0.113578
Zn8	Zn	0.976040	0.131258	0.149605
Zn9	Zn	1.008437	0.098730	-0.149456
O10	O	0.973267	0.249612	0.113553
C11	C	0.838671	0.121119	0.000060
C12	C	0.745426	0.119458	0.000052
C13	C	0.474790	0.034567	0.000075
C14	C	0.513248	0.087669	0.111989
C15	C	0.409779	0.113540	0.000076
C16	C	0.537472	0.063349	-0.111799
C17	C	0.574694	0.116443	0.000062
C18	C	0.446999	0.166631	0.112082
C19	C	0.471230	0.142289	-0.111807
C20	C	0.509652	0.195451	0.000135
C21	C	0.314776	0.111866	0.000085
C22	C	0.669693	0.118125	0.000062
C23	C	0.998361	-0.038574	0.000087
C24	C	0.996699	-0.131820	0.000088
C25	C	0.912797	-0.346677	0.000061
C26	C	0.939635	-0.395522	0.111982
C27	C	0.993692	-0.302547	0.000077
C28	C	0.963897	-0.419846	-0.111807
C29	C	0.990783	-0.467461	0.000061
C30	C	1.020543	-0.350153	0.112090
C31	C	1.044804	-0.374482	-0.111799
C32	C	1.071698	-0.423306	0.000149
C33	C	0.995366	-0.207543	0.000088
C34	C	0.989115	-0.562462	0.000060
C35	C	1.145807	0.108868	0.000085
C36	C	1.239053	0.110528	0.000084
N37	N	0.953936	0.153457	0.353706
C38	C	0.986117	0.268561	0.000058
C39	C	0.987780	0.361806	0.000049
N40	N	1.030548	0.076524	-0.353558
C41	C	1.000741	0.106448	0.421494
C42	C	0.983736	0.123540	0.578658
H43	H	0.452534	0.165320	-0.206432
C44	C	0.822035	-0.264441	-0.117073
C45	C	0.822136	-0.301696	0.000187
H46	H	0.766065	-0.236677	-0.116993
H47	H	0.861102	-0.223684	-0.117931
H48	H	0.838858	-0.307701	-0.195821
H49	H	0.805320	-0.258435	0.078936
H50	H	0.783056	-0.342457	0.001058
C51	C	0.833654	0.177956	0.622952
C52	C	0.912637	0.194954	0.657368
H53	H	0.789762	0.222041	0.671554
H54	H	0.835760	0.175846	0.527674
H55	H	0.821871	0.124457	0.646313
H56	H	0.924423	0.248451	0.633998
H57	H	0.910532	0.197073	0.752668
C58	C	1.104466	0.001731	0.427280
C59	C	1.101461	0.004923	0.567738
H60	H	1.148192	-0.042523	0.378695
H61	H	1.050789	-0.009584	0.404121
H62	H	1.116468	0.055134	0.403767
H63	H	1.089452	-0.048478	0.591254
H64	H	1.155150	0.016233	0.590907
C65	C	0.419907	-0.084489	-0.117046
C66	C	0.453644	-0.057231	0.000214
H67	H	0.406859	-0.141162	-0.116960
H68	H	0.369178	-0.047227	-0.117910
H69	H	0.460812	-0.083575	-0.195794
H70	H	0.412736	-0.058139	0.078962
H71	H	0.504380	-0.094502	0.001091
H72	H	0.576638	0.019693	-0.206408
H73	H	1.138898	-0.456459	0.000218
C74	C	0.803858	0.207870	0.398006
C75	C	0.882840	0.224868	0.432421
H76	H	0.759965	0.251955	0.446607
H77	H	0.805963	0.205760	0.302727
H78	H	0.792074	0.154371	0.421367
H79	H	0.894627	0.278364	0.409051
H80	H	0.880736	0.226987	0.527722
C81	C	0.449733	0.263351	0.318615
C82	C	0.394264	0.225528	0.239953
H83	H	0.417174	0.299712	0.397551
H84	H	0.486092	0.219893	0.345359
H85	H	0.483541	0.296111	0.266285
H86	H	0.360460	0.192763	0.292279
H87	H	0.357891	0.268992	0.213210
H88	H	0.525138	0.263522	0.000193
C89	C	0.796436	-0.369737	0.239496
C90	C	0.879612	-0.408783	0.239704
H91	H	0.759378	-0.377927	0.318339
H92	H	0.796657	-0.310145	0.239999
H93	H	0.776859	-0.394670	0.160015
H94	H	0.899191	-0.383845	0.319180
H95	H	0.879393	-0.468387	0.239214
C96	C	1.054059	-0.221703	0.238851
C97	C	1.052837	-0.309266	0.239972
H98	H	1.073989	-0.196460	0.317805
H99	H	1.091201	-0.214446	0.159489
H100	H	0.997811	-0.194816	0.238522
H101	H	1.109087	-0.336154	0.240291
H102	H	1.015695	-0.316528	0.319354
H103	H	1.089241	-0.364644	-0.206418
C104	C	0.521285	-0.027669	0.239533
C105	C	0.538471	0.056542	0.239725
H106	H	0.536859	-0.046888	0.318386
H107	H	0.461895	-0.029433	0.240029
H108	H	0.553458	-0.063798	0.160062
H109	H	0.506293	0.092673	0.319192
H110	H	0.597871	0.058313	0.239242
H111	H	0.939921	-0.450215	-0.206433
H112	H	1.053400	0.053546	0.363180
