data_functionalizedCrystal
_audit_creation_method	'MofGen! by Chris Wilmer'
_symmetry_space_group_name_H-M	'P1'
_symmetry_Int_Tables_number	1
_symmetry_cell_setting	triclinic
loop_
_symmetry_equiv_pos_as_xyz
  x,y,z
_cell_length_a	6.817900
_cell_length_b	13.212833
_cell_length_c	11.102182
_cell_angle_alpha	87.858641
_cell_angle_beta	108.603774
_cell_angle_gamma	106.298119
loop_
_atom_site_label
_atom_site_type_symbol
_atom_site_fract_x
_atom_site_fract_y
_atom_site_fract_z
V1	V	-4.090093	-0.144464	-0.379655
O2	O	-4.071574	0.006931	-0.389511
O3	O	-4.045819	-0.286436	-0.360627
O4	O	-4.067195	-0.142246	-0.552731
O5	O	-4.050049	-0.138257	-0.196078
V6	V	-4.569882	-0.126355	-0.359693
O7	O	-4.359542	-0.184188	-0.423441
O8	O	-4.750629	-0.086631	-0.315907
O9	O	-4.390949	0.015618	-0.378720
O10	O	-4.705797	-0.277749	-0.349837
O11	O	-4.727322	-0.132561	-0.543270
O12	O	-4.369573	-0.128572	-0.186617
C13	C	-3.890998	-0.321046	-0.350399
C14	C	-3.936255	-0.437111	-0.335995
C15	C	-3.942104	-0.585793	-0.201038
C16	C	-3.899570	-0.476738	-0.214560
C17	C	-4.015476	-0.506547	-0.443918
C18	C	-4.058010	-0.615602	-0.430397
C19	C	-4.021323	-0.655220	-0.308953
C20	C	-4.063873	-0.764278	-0.295434
C21	C	-4.179763	-0.794084	-0.524791
C22	C	-4.137229	-0.685030	-0.538312
C23	C	-3.918265	-0.137116	-0.595444
C24	C	-3.980854	-0.136243	-0.736827
C25	C	-4.056253	-0.231438	-0.810422
C26	C	-4.115080	-0.230604	-0.943266
C27	C	-4.023093	-0.039371	-0.928908
C28	C	-3.964282	-0.040206	-0.796067
C29	C	-4.072825	-0.327474	-0.751182
C30	C	-4.148225	-0.422678	-0.824778
C31	C	-4.207052	-0.421844	-0.957622
C32	C	-4.190480	-0.325807	-1.016871
C33	C	-4.209112	0.050222	-0.388945
C34	C	-4.143094	0.166286	-0.403356
C35	C	-4.181844	-0.133705	-0.143896
C36	C	-4.098493	-0.134574	-0.002513
H37	H	-4.167083	-0.652757	-0.637187
H38	H	-4.045313	-0.474269	-0.542791
H39	H	-3.912248	-0.618051	-0.102155
C40	C	-4.266921	-0.870465	-0.643505
N41	N	-4.332575	-0.927996	-0.732919
H42	H	-4.009604	0.038818	-0.977159
C43	C	-4.008098	-0.328400	-0.605051
N44	N	-3.959336	-0.329095	-0.494985
H45	H	-4.238373	-0.325135	-1.125042
H46	H	-4.268462	-0.499363	-1.017541
H47	H	-4.034004	-0.796533	-0.196549
C48	C	-3.812430	-0.400370	-0.095844
N49	N	-3.746794	-0.342849	-0.006423
C50	C	-3.881334	0.064514	-0.715108
N51	N	-3.818862	0.143392	-0.654130
H52	H	-4.161728	-0.500868	-0.776529
