data_functionalizedCrystal
_audit_creation_method	'MofGen! by Chris Wilmer'
_symmetry_space_group_name_H-M	'P1'
_symmetry_Int_Tables_number	1
_symmetry_cell_setting	triclinic
loop_
_symmetry_equiv_pos_as_xyz
  x,y,z
_cell_length_a	14.044220
_cell_length_b	16.992694
_cell_length_c	16.053833
_cell_angle_alpha	92.723321
_cell_angle_beta	87.349981
_cell_angle_gamma	88.071450
loop_
_atom_site_label
_atom_site_type_symbol
_atom_site_fract_x
_atom_site_fract_y
_atom_site_fract_z
O1	O	0.198257	-1.051308	0.069327
O2	O	0.196039	-0.822866	0.069352
O3	O	0.058904	-0.933658	0.069332
O4	O	0.335392	-0.940515	0.069347
O5	O	0.066516	-0.940090	-0.069527
O6	O	0.203651	-0.829298	-0.069507
O7	O	0.205869	-1.057739	-0.069531
Zn8	Zn	0.205968	-0.944539	-0.091566
Zn9	Zn	0.195940	-0.936066	0.091386
O10	O	0.343004	-0.946947	-0.069511
C11	C	0.196993	-0.796670	-0.000074
C12	C	0.188484	-0.709030	-0.000065
C13	C	0.027168	-0.933872	-0.000098
C14	C	-0.078736	-0.924918	-0.000098
N15	N	0.212812	-0.950328	-0.216425
C16	C	-0.272638	-0.908548	-0.000084
C17	C	-0.325460	-0.972054	-0.000088
C18	C	-0.433354	-0.962945	-0.000080
C19	C	-0.164734	-0.917655	-0.000091
C20	C	0.374740	-0.946733	-0.000080
C21	C	0.480643	-0.955687	-0.000074
C22	C	0.204915	-1.083935	-0.000103
C23	C	0.213424	-1.171575	-0.000107
C24	C	0.270580	-0.664531	-0.000061
C25	C	0.262581	-0.582186	-0.000073
C26	C	0.172483	-0.544340	-0.000083
C27	C	0.090381	-0.588845	-0.000090
C28	C	0.098382	-0.671189	-0.000084
C29	C	0.139322	-0.298424	-0.000107
C30	C	0.131327	-0.216073	-0.000111
C31	C	0.303528	-0.209420	-0.000096
C32	C	0.311521	-0.291766	-0.000085
C33	C	0.229419	-0.336264	-0.000096
N34	N	0.164304	-0.460170	-0.000093
N35	N	0.237599	-0.420433	-0.000092
C36	C	0.248143	-0.980108	-0.740056
C37	C	0.243349	-0.976062	-0.652649
C38	C	0.179495	-0.922194	-0.608943
C39	C	0.120438	-0.872364	-0.652647
C40	C	0.125238	-0.876406	-0.740052
C41	C	0.158555	-0.904541	-0.347535
C42	C	0.153758	-0.900503	-0.260124
C43	C	0.276670	-1.004201	-0.260132
C44	C	0.281460	-1.008242	-0.347538
C45	C	0.222407	-0.958409	-0.391235
N46	N	0.174591	-0.918059	-0.519599
N47	N	0.227317	-0.962541	-0.480577
N48	N	0.189089	-0.930283	0.216246
H49	H	-0.289655	-1.033262	-0.000039
H50	H	0.110467	-0.863965	-0.383102
Cl51	Cl	-0.327920	-0.814049	-0.000070
Cl52	Cl	0.350908	-1.066841	-0.205194
Cl53	Cl	0.383851	-0.712100	-0.000043
Cl54	Cl	0.365793	-0.526248	-0.000063
Cl55	Cl	0.424791	-0.339337	-0.000067
H56	H	0.370371	-0.173182	-0.000089
H57	H	0.300137	-1.023975	-0.775635
H58	H	0.057955	-0.185262	-0.000118
Cl59	Cl	0.036106	-0.354353	-0.000120
Cl60	Cl	-0.022885	-0.541267	-0.000107
Cl61	Cl	-0.004830	-0.727131	-0.000092
H62	H	0.291436	-1.016636	-0.617074
Cl63	Cl	0.361740	-1.075962	-0.402477
Cl64	Cl	0.073450	-0.832802	-0.205179
Cl65	Cl	0.040169	-0.804640	-0.597701
H66	H	0.077151	-0.835832	-0.775630
