data_functionalizedCrystal
_audit_creation_method	'MofGen! by Chris Wilmer'
_symmetry_space_group_name_H-M	'P1'
_symmetry_Int_Tables_number	1
_symmetry_cell_setting	triclinic
loop_
_symmetry_equiv_pos_as_xyz
  x,y,z
_cell_length_a	14.971486
_cell_length_b	15.944551
_cell_length_c	14.048226
_cell_angle_alpha	89.992615
_cell_angle_beta	89.998499
_cell_angle_gamma	83.556434
loop_
_atom_site_label
_atom_site_type_symbol
_atom_site_fract_x
_atom_site_fract_y
_atom_site_fract_z
O1	O	1.186829	0.109463	-0.079053
O2	O	0.926415	0.122572	-0.079079
O3	O	1.063733	-0.006251	-0.079057
O4	O	1.049510	0.238286	-0.079076
O5	O	1.063717	-0.006258	0.079264
O6	O	0.926398	0.122564	0.079242
O7	O	1.186812	0.109456	0.079268
Zn8	Zn	1.056603	0.116009	0.104392
Zn9	Zn	1.056624	0.116019	-0.104203
O10	O	1.049494	0.238278	0.079246
C11	C	0.893082	0.121982	0.000078
C12	C	0.793787	0.120225	0.000068
C13	C	0.736480	0.195904	0.000064
C14	C	0.643182	0.194249	0.000078
C15	C	0.607194	0.116913	0.000090
C16	C	0.664508	0.041227	0.000097
C17	C	0.757804	0.042884	0.000090
C18	C	0.470049	0.037780	0.000111
C19	C	0.376747	0.036123	0.000116
C20	C	0.355428	0.189145	0.000099
C21	C	0.448724	0.190801	0.000092
C22	C	0.506032	0.115116	0.000097
C23	C	1.063134	-0.037549	0.000104
C24	C	1.061364	-0.130797	0.000104
C25	C	0.972017	-0.345738	0.000082
C26	C	1.013499	-0.406720	0.078148
C27	C	1.058162	-0.301526	0.000096
C28	C	1.013535	-0.406696	-0.077944
C29	C	1.055062	-0.466441	0.000085
C30	C	1.099667	-0.361279	0.078227
C31	C	1.099692	-0.361248	-0.077935
C32	C	1.141236	-0.422212	0.000150
C33	C	1.059945	-0.206522	0.000104
C34	C	1.053286	-0.561444	0.000084
C35	C	1.220145	0.110046	0.000109
C36	C	1.319440	0.111802	0.000112
C37	C	1.050093	0.269576	0.000083
C38	C	1.051863	0.362824	0.000076
N39	N	1.056594	0.116001	0.246753
N40	N	1.056640	0.116019	-0.246564
C41	C	1.117418	0.058982	0.296581
C42	C	1.117424	0.058982	0.396238
C43	C	1.056610	0.116005	0.446066
C44	C	0.995780	0.173027	0.396231
C45	C	0.995770	0.173022	0.296575
C46	C	0.995806	0.173033	0.603945
C47	C	0.995816	0.173038	0.703608
C48	C	1.117459	0.058992	0.703608
C49	C	1.117450	0.058988	0.603952
C50	C	1.056621	0.116011	0.554124
H51	H	0.308763	0.250771	0.000099
H52	H	0.977056	-0.426866	0.144140
O53	O	1.143141	-0.337040	-0.156591
C54	C	1.144884	-0.248822	-0.155025
H55	H	1.136873	-0.225063	-0.078630
H56	H	1.087472	-0.217310	-0.200349
C57	C	1.245003	-0.256297	-0.289113
C58	C	1.235171	-0.227118	-0.195283
H59	H	1.300694	-0.242908	-0.313950
H60	H	1.243827	-0.315731	-0.290171
H61	H	1.197154	-0.230035	-0.326872
H62	H	1.283013	-0.253388	-0.157524
H63	H	1.236357	-0.167688	-0.194220
H64	H	1.136066	-0.341257	0.144298
H65	H	0.946240	0.219452	0.256006
O66	O	1.226627	-0.461660	0.000375
C67	C	1.271696	-0.438490	0.082778
H68	H	1.220338	-0.416636	0.140037
H69	H	1.313345	-0.384962	0.064903
C70	C	1.397116	-0.541850	0.049261
C71	C	1.334039	-0.515015	0.119591
H72	H	1.435576	-0.589052	0.071968
H73	H	1.366755	-0.557458	-0.006257
H74	H	1.431815	-0.497236	0.034372
H75	H	1.299334	-0.559625	0.134471
H76	H	1.364396	-0.499416	0.175113
O77	O	0.969943	-0.430583	-0.156653
C78	C	0.880757	-0.391273	-0.156350
H79	H	0.876465	-0.331881	-0.110650
H80	H	0.834364	-0.436570	-0.125888
C81	C	0.857074	-0.440319	-0.315029
C82	C	0.851804	-0.367369	-0.258906
H83	H	0.839212	-0.425577	-0.378290
H84	H	0.917160	-0.466806	-0.315233
H85	H	0.818413	-0.478060	-0.289633
H86	H	0.890474	-0.329634	-0.284295
H87	H	0.791725	-0.340875	-0.258709
O88	O	1.176528	0.003508	0.248330
C89	C	1.230227	-0.046804	0.313684
H90	H	1.193562	-0.047806	0.384727
H91	H	1.296671	-0.019427	0.324269
C92	C	1.293690	-0.136163	0.187553
C93	C	1.248654	-0.137399	0.274807
H94	H	1.305061	-0.192045	0.163571
H95	H	1.257515	-0.102265	0.143521
H96	H	1.349055	-0.113344	0.196385
H97	H	1.193286	-0.160207	0.265972
H98	H	1.284821	-0.171303	0.318837
O99	O	0.936579	0.228333	0.444591
C100	C	0.848039	0.214548	0.420239
H101	H	0.847603	0.147295	0.392856
H102	H	0.821759	0.261063	0.362389
C103	C	0.787949	0.310106	0.542406
C104	C	0.787412	0.227502	0.508782
H105	H	0.750549	0.318100	0.597022
H106	H	0.847599	0.319395	0.558811
H107	H	0.766051	0.348859	0.494190
H108	H	0.809320	0.188751	0.556994
H109	H	0.727763	0.218206	0.492388
H110	H	0.347448	-0.026851	0.000127
H111	H	1.166951	0.012552	0.436808
H112	H	0.478022	0.253775	0.000073
O113	O	0.813511	-0.030609	0.000258
C114	C	0.868133	-0.034224	0.082239
H115	H	0.833970	0.008692	0.139548
H116	H	0.935976	-0.012414	0.063695
C117	C	0.924265	-0.178317	0.049041
C118	C	0.882301	-0.125612	0.119431
H119	H	0.933009	-0.234690	0.071981
H120	H	0.887468	-0.175882	-0.006194
H121	H	0.980796	-0.160132	0.033593
H122	H	0.825767	-0.143792	0.134869
H123	H	0.919090	-0.128053	0.174669
H124	H	0.946294	0.219472	0.744173
O125	O	1.176434	0.003397	0.555700
C126	C	1.161795	-0.079711	0.580243
H127	H	1.090152	-0.080117	0.607583
H128	H	1.211295	-0.104251	0.638182
C129	C	1.263707	-0.136295	0.458274
C130	C	1.175711	-0.136795	0.491846
H131	H	1.272295	-0.171509	0.403748
H132	H	1.273573	-0.080304	0.441741
H133	H	1.304947	-0.156743	0.506565
H134	H	1.134473	-0.116337	0.443559
H135	H	1.165838	-0.192784	0.508369
H136	H	1.166988	0.012562	0.744184
H137	H	0.516708	-0.023852	0.000117
H138	H	0.765774	0.258881	0.000053
O139	O	0.587555	0.267789	-0.000099
C140	C	0.603880	0.314744	-0.082093
H141	H	0.635757	0.270429	-0.139400
H142	H	0.651393	0.363407	-0.063570
C143	C	0.475318	0.414590	-0.048886
C144	C	0.514463	0.360160	-0.119274
H145	H	0.420163	0.442608	-0.071819
H146	H	0.464321	0.382957	0.006357
H147	H	0.514921	0.455135	-0.033456
H148	H	0.474865	0.319611	-0.134694
H149	H	0.525452	0.391787	-0.174521
O150	O	0.629656	-0.033949	-0.000019
C151	C	0.658920	-0.080076	-0.082025
H152	H	0.723628	-0.057118	-0.109365
H153	H	0.604933	-0.070397	-0.139441
C154	C	0.596931	-0.202746	-0.023532
C155	C	0.676410	-0.174553	-0.057107
H156	H	0.607715	-0.261025	-0.008164
H157	H	0.577211	-0.171669	0.031715
H158	H	0.551949	-0.194673	-0.071384
H159	H	0.721386	-0.182617	-0.009251
H160	H	0.696137	-0.205634	-0.112346
H161	H	0.900512	-0.312499	0.000153
O162	O	0.936840	0.228460	0.555435
C163	C	0.984737	0.280365	0.497791
H164	H	1.054723	0.247016	0.482861
H165	H	0.990819	0.342456	0.536183
C166	C	0.848346	0.339195	0.421467
C167	C	0.934301	0.298232	0.403123
H168	H	0.817233	0.350220	0.363074
H169	H	0.816075	0.304228	0.460306
H170	H	0.853426	0.390933	0.453463
H171	H	0.929220	0.246491	0.371139
H172	H	0.966570	0.333191	0.364277
