data_functionalizedCrystal
_audit_creation_method	'MofGen! by Chris Wilmer'
_symmetry_space_group_name_H-M	'P1'
_symmetry_Int_Tables_number	1
_symmetry_cell_setting	triclinic
loop_
_symmetry_equiv_pos_as_xyz
  x,y,z
_cell_length_a	19.077269
_cell_length_b	12.759400
_cell_length_c	19.076919
_cell_angle_alpha	92.276034
_cell_angle_beta	94.669058
_cell_angle_gamma	87.716118
loop_
_atom_site_label
_atom_site_type_symbol
_atom_site_fract_x
_atom_site_fract_y
_atom_site_fract_z
Zn1	Zn	1.061721	-0.503246	-0.355291
Zn2	Zn	1.066398	-0.672151	-0.237418
Zn3	Zn	0.948576	-0.489708	-0.242159
Zn4	Zn	0.943828	-0.672098	-0.360001
O5	O	1.005131	-0.584301	-0.298717
O6	O	1.160988	-0.531339	-0.335701
O7	O	1.054712	-0.642306	-0.139399
O8	O	0.963615	-0.344485	-0.257179
O9	O	1.164424	-0.655433	-0.249099
O10	O	1.046742	-0.354431	-0.340297
O11	O	0.968150	-0.508265	-0.142882
O12	O	0.849299	-0.508214	-0.261745
O13	O	0.955523	-0.655343	-0.458024
O14	O	0.845811	-0.642216	-0.348324
O15	O	1.042138	-0.531288	-0.454564
O16	O	1.050109	-0.819162	-0.253666
O17	O	0.960058	-0.819124	-0.343727
C18	C	0.821977	-0.573741	-0.306060
C19	C	0.743623	-0.569250	-0.309218
C20	C	0.708600	-0.631636	-0.265546
C21	C	0.634977	-0.627416	-0.268523
C22	C	0.596378	-0.560805	-0.315169
C23	C	0.631406	-0.498417	-0.358845
C24	C	0.705027	-0.502642	-0.355872
C25	C	0.376002	-0.541257	-0.328908
C26	C	0.302376	-0.537034	-0.331877
C27	C	0.305952	-0.666036	-0.241555
C28	C	0.379575	-0.670250	-0.238582
C29	C	0.414596	-0.607866	-0.282262
N30	N	0.521124	-0.556489	-0.318211
N31	N	0.489849	-0.612189	-0.279223
C32	C	1.005094	-0.857265	-0.298708
C33	C	1.005142	-0.974046	-0.298724
C34	C	1.048402	-1.034008	-0.342042
C35	C	1.048434	-1.143735	-0.342058
C36	C	0.961944	-1.133527	-0.255433
C37	C	0.961909	-1.023802	-0.255421
C38	C	1.091635	-0.984251	-0.385345
C39	C	1.134899	-1.044214	-0.428666
C40	C	1.134932	-1.153941	-0.428682
C41	C	1.091699	-1.203705	-0.385377
C42	C	1.188999	-0.594902	-0.291346
C43	C	1.267353	-0.599420	-0.288205
C44	C	0.997779	-0.594820	-0.482587
C45	C	0.994646	-0.599303	-0.560942
C46	C	1.005186	-0.310272	-0.298742
C47	C	1.005210	-0.193497	-0.298752
C48	C	1.038268	-0.536823	-0.595953
C49	C	1.035316	-0.541030	-0.669576
C50	C	0.988745	-0.607724	-0.708186
C51	C	0.945119	-0.670206	-0.673170
C52	C	0.948068	-0.665992	-0.599549
C53	C	0.975086	-0.627247	-0.928564
C54	C	0.972142	-0.631458	-1.002190
C55	C	1.062339	-0.502280	-0.998591
C56	C	1.065286	-0.498077	-0.924968
C57	C	1.021657	-0.560555	-0.889958
N58	N	0.985728	-0.612029	-0.783440
N59	N	1.024672	-0.556244	-0.814706
C60	C	1.012494	-0.573749	-0.115561
C61	C	1.015764	-0.568978	-0.037201
H62	H	0.606466	-0.678218	-0.232961
H63	H	0.926747	-1.174054	-0.220176
C64	C	1.182450	-0.989479	-0.476301
C65	C	1.182419	-0.868786	-0.476286
C66	C	1.229971	-0.814054	-0.523924
C67	C	1.277553	-0.880015	-0.571576
C68	C	1.277586	-1.000714	-0.571593
C69	C	1.230034	-1.055446	-0.523956
H70	H	1.147194	-0.819952	-0.441010
H71	H	1.229946	-0.724704	-0.523911
H72	H	1.312753	-0.839499	-0.606841
H73	H	1.312811	-1.049548	-0.606870
H74	H	1.230059	-1.144797	-0.523968
H75	H	1.170153	-1.202760	-0.463961
C76	C	1.083305	-0.472303	-0.708084
C77	C	1.136612	-0.523916	-0.756479
C78	C	1.184604	-0.455184	-0.794986
C79	C	1.179290	-0.334840	-0.785097
C80	C	1.125981	-0.283221	-0.736700
C81	C	1.077989	-0.351953	-0.698194
H82	H	1.140548	-0.613008	-0.763802
H83	H	1.224067	-0.493397	-0.830813
H84	H	1.214816	-0.283961	-0.813602
H85	H	1.122045	-0.194129	-0.729378
H86	H	1.038526	-0.313740	-0.662367
H87	H	1.091720	-1.293053	-0.385402
C88	C	0.743553	-0.434010	-0.403909
C89	C	0.795383	-0.352619	-0.371413
C90	C	0.833908	-0.283987	-0.419454
C91	C	0.820602	-0.296747	-0.499991
C92	C	0.768770	-0.378142	-0.532491
C93	C	0.730246	-0.446774	-0.484450
H94	H	0.805235	-0.343170	-0.311791
H95	H	0.872278	-0.223734	-0.395394
H96	H	0.849121	-0.245942	-0.535553
H97	H	0.758918	-0.387591	-0.592113
H98	H	0.691876	-0.507027	-0.508510
C99	C	0.914326	-0.957835	-0.207769
C100	C	0.866779	-1.012560	-0.160130
C101	C	0.819192	-0.946593	-0.112479
C102	C	0.819153	-0.825900	-0.112469
C103	C	0.866702	-0.771168	-0.160111
C104	C	0.914288	-0.837136	-0.207761
H105	H	0.866806	-1.101910	-0.160136
H106	H	0.783993	-0.987109	-0.077212
H107	H	0.783926	-0.777067	-0.077196
H108	H	0.866674	-0.681818	-0.160105
H109	H	0.949487	-0.796619	-0.243028
C110	C	1.089497	-0.463457	-0.553485
C111	C	1.083361	-0.344271	-0.563849
C112	C	1.134589	-0.270901	-0.521383
C113	C	1.191954	-0.316717	-0.468552
C114	C	1.198093	-0.435910	-0.458185
C115	C	1.146865	-0.509280	-0.500652
H116	H	1.040893	-0.310350	-0.602959
H117	H	1.130044	-0.182667	-0.529057
H118	H	1.229877	-0.262404	-0.437116
H119	H	1.240561	-0.469831	-0.419075
H120	H	1.151410	-0.597514	-0.492977
C121	C	0.267429	-0.734663	-0.193515
C122	C	0.277322	-0.855014	-0.198724
C123	C	0.238799	-0.923648	-0.150683
C124	C	0.190384	-0.871932	-0.097433
C125	C	0.180489	-0.751575	-0.092222
C126	C	0.219012	-0.682941	-0.140262
H127	H	0.313163	-0.893302	-0.238145
H128	H	0.246124	-1.012744	-0.154541
H129	H	0.161867	-0.922739	-0.061871
H130	H	0.144647	-0.713286	-0.052801
H131	H	0.211686	-0.593845	-0.136404
H132	H	0.404507	-0.490461	-0.364475
C133	C	1.110322	-0.433548	-1.037102
C134	C	1.107081	-0.438172	-1.118082
C135	C	1.155065	-0.369433	-1.156593
C136	C	1.206289	-0.296070	-1.114124
C137	C	1.209533	-0.291442	-1.033139
C138	C	1.161549	-0.360182	-0.994628
H139	H	1.069160	-0.492483	-1.149525
H140	H	1.152664	-0.372859	-1.216544
H141	H	1.241810	-0.245185	-1.142632
H142	H	1.247454	-0.237132	-1.001696
H143	H	1.163950	-0.356756	-0.934677
C144	C	0.927087	-0.695979	-0.890075
C145	C	0.846549	-0.683351	-0.903434
C146	C	0.798542	-0.752088	-0.864949
C147	C	0.831074	-0.833454	-0.813106
C148	C	0.911617	-0.846086	-0.799745
C149	C	0.959623	-0.777348	-0.838229
H150	H	0.822463	-0.623116	-0.941813
H151	H	0.738919	-0.742737	-0.874840
H152	H	0.795536	-0.884338	-0.784617
H153	H	0.935703	-0.906320	-0.761365
H154	H	1.019247	-0.786699	-0.828338
H155	H	0.599973	-0.444185	-0.396828
C156	C	0.900087	-0.734724	-0.561031
C157	C	0.819545	-0.722111	-0.574359
C158	C	0.771562	-0.790840	-0.535841
C159	C	0.804120	-0.872182	-0.483994
C160	C	0.884666	-0.884798	-0.470663
C161	C	0.932650	-0.816069	-0.509182
H162	H	0.795440	-0.661894	-0.612742
H163	H	0.711936	-0.781501	-0.545710
H164	H	0.768600	-0.923060	-0.455481
H165	H	0.908772	-0.945016	-0.432281
H166	H	0.992276	-0.825409	-0.499313
H167	H	0.740022	-0.685874	-0.227560
H168	H	0.410998	-0.724491	-0.200598
H169	H	0.270950	-0.482782	-0.369859
H170	H	1.091615	-0.894907	-0.385336
H171	H	1.103211	-0.443771	-0.893536
H172	H	0.934216	-0.685770	-1.033625
H173	H	0.907197	-0.724505	-0.704613
