data_functionalizedCrystal
_audit_creation_method	'MofGen! by Chris Wilmer'
_symmetry_space_group_name_H-M	'P1'
_symmetry_Int_Tables_number	1
_symmetry_cell_setting	triclinic
loop_
_symmetry_equiv_pos_as_xyz
  x,y,z
_cell_length_a	21.395362
_cell_length_b	19.121063
_cell_length_c	21.395355
_cell_angle_alpha	87.579260
_cell_angle_beta	90.043940
_cell_angle_gamma	92.485681
loop_
_atom_site_label
_atom_site_type_symbol
_atom_site_fract_x
_atom_site_fract_y
_atom_site_fract_z
Zn1	Zn	0.947241	-0.279403	0.365205
Zn2	Zn	0.942680	-0.396839	0.264891
Zn3	Zn	0.842454	-0.279436	0.260407
Zn4	Zn	0.837961	-0.396853	0.369596
O5	O	0.892584	-0.338133	0.315025
O6	O	1.034314	-0.294962	0.351936
O7	O	0.929357	-0.381273	0.176618
O8	O	0.860144	-0.181145	0.270595
O9	O	1.030964	-0.381241	0.278236
O10	O	0.937130	-0.181121	0.347589
O11	O	0.855721	-0.295017	0.173324
O12	O	0.754180	-0.295031	0.274853
O13	O	0.852486	-0.381266	0.456691
O14	O	0.750879	-0.381297	0.355073
O15	O	0.932773	-0.294976	0.453465
O16	O	0.925000	-0.495127	0.282494
O17	O	0.848063	-0.495138	0.359420
C18	C	0.729795	-0.338170	0.314953
C19	C	0.660152	-0.338203	0.314938
C20	C	0.625735	-0.383181	0.356651
C21	C	0.560300	-0.383164	0.356679
C22	C	0.529285	-0.338176	0.314982
C23	C	0.563711	-0.293189	0.273266
C24	C	0.629145	-0.293202	0.273244
C25	C	0.425776	-0.332517	0.258362
C26	C	0.360343	-0.332509	0.258383
C27	C	0.327466	-0.338130	0.315049
C28	C	0.360030	-0.343774	0.371698
C29	C	0.425463	-0.343788	0.371676
C30	C	0.458334	-0.338156	0.315001
C31	C	0.222096	-0.383092	0.356795
C32	C	0.156661	-0.383070	0.356824
C33	C	0.160073	-0.293098	0.273405
C34	C	0.225508	-0.293117	0.273383
C35	C	0.256516	-0.338117	0.315077
C36	C	0.885566	-0.520617	0.321934
C37	C	0.882621	-0.598685	0.324911
C38	C	0.921325	-0.635332	0.286291
C39	C	0.918559	-0.708685	0.289094
C40	C	0.877085	-0.745389	0.330515
C41	C	0.838379	-0.708736	0.369139
C42	C	0.841149	-0.635385	0.366338
C43	C	0.866720	-0.966864	0.340976
C44	C	0.863952	-1.040221	0.343772
C45	C	0.944133	-1.040164	0.263728
C46	C	0.946896	-0.966812	0.260928
C47	C	0.908193	-0.930165	0.299555
C48	C	0.874256	-0.820367	0.333380
C49	C	0.911026	-0.855188	0.296692
C50	C	1.056009	-0.338096	0.315097
C51	C	1.125651	-0.338080	0.315127
C52	C	0.892637	-0.338119	0.478447
C53	C	0.892659	-0.338112	0.548089
C54	C	0.899647	-0.154936	0.308102
C55	C	0.902656	-0.076868	0.305152
C56	C	0.892570	-0.338096	0.152236
C57	C	0.892676	-0.337904	0.082588
C58	C	0.934463	-0.293179	0.579123
C59	C	0.934463	-0.293149	0.644557
C60	C	0.892666	-0.338065	0.678955
C61	C	0.850854	-0.383001	0.647913
C62	C	0.850851	-0.383025	0.582480
C63	C	0.885286	-0.401308	0.785023
C64	C	0.885294	-0.401285	0.850455
C65	C	0.892672	-0.337990	0.880773
C66	C	0.900056	-0.274717	0.845651
C67	C	0.900053	-0.274741	0.780218
C68	C	0.892664	-0.338043	0.749907
C69	C	0.934479	-0.293021	0.982759
C70	C	0.934475	-0.292989	1.048194
C71	C	0.850869	-0.382847	1.051549
C72	C	0.850870	-0.382872	0.986115
C73	C	0.892678	-0.337960	0.951723
H74	H	0.532271	-0.419790	0.390649
H75	H	0.955095	-0.605453	0.252559
H76	H	0.253531	-0.256494	0.239412
C77	C	0.804896	-0.432258	1.089379
H78	H	0.810888	-0.425813	1.132794
H79	H	0.763192	-0.421999	1.078236
H80	H	0.812255	-0.479452	1.080454
H81	H	0.333263	-0.348350	0.417841
H82	H	0.452538	-0.327937	0.212214
C83	C	0.818328	-1.080597	0.389334
H84	H	0.822218	-1.129531	0.385462
H85	H	0.827931	-1.068547	0.430985
H86	H	0.776685	-1.068631	0.379651
H87	H	0.650977	-0.419823	0.390603
H88	H	0.657168	-0.256574	0.239276
H89	H	0.968504	-0.256556	0.669830
C90	C	0.804889	-0.432305	0.951975
H91	H	0.779998	-0.459055	0.981832
H92	H	0.778625	-0.405453	0.925408
H93	H	0.827680	-0.462914	0.927632
H94	H	0.835205	-0.937033	0.372426
C95	C	0.324529	-0.326299	0.196074
H96	H	0.353480	-0.322940	0.162322
H97	H	0.297432	-0.366536	0.192034
H98	H	0.300589	-0.285578	0.195420
C99	C	0.961131	-0.748994	0.246609
H100	H	0.986222	-0.716629	0.221534
H101	H	0.987343	-0.777561	0.271698
H102	H	0.936089	-0.777653	0.220373
C103	C	0.828634	-0.860741	0.378939
H104	H	0.805979	-0.828412	0.401543
H105	H	0.800268	-0.889406	0.356031
H106	H	0.851517	-0.889307	0.407361
H107	H	0.980668	-0.936929	0.227201
H108	H	0.804613	-0.738626	0.402867
C109	C	0.980459	-0.243617	0.944923
H110	H	0.974477	-0.250073	0.901508
H111	H	0.973110	-0.196423	0.953843
H112	H	1.022163	-0.253886	0.956070
C113	C	0.908173	-0.205087	0.878989
H114	H	0.912574	-0.167411	0.848701
H115	H	0.872503	-0.198910	0.904252
H116	H	0.944461	-0.205983	0.904577
H117	H	0.975644	-1.070010	0.232282
C118	C	0.877180	-0.470880	0.889086
H119	H	0.878249	-0.461803	0.932397
H120	H	0.838170	-0.493353	0.879192
H121	H	0.910128	-0.500419	0.879505
C122	C	0.980445	-0.243772	0.541296
H123	H	1.005339	-0.217003	0.569154
H124	H	1.006708	-0.270642	0.516809
H125	H	0.957653	-0.213180	0.514592
C126	C	0.798576	-0.595069	0.408818
H127	H	0.806169	-0.546128	0.401223
H128	H	0.756026	-0.607145	0.400060
H129	H	0.807278	-0.607057	0.451387
C130	C	0.908165	-0.205146	0.741586
H131	H	0.912555	-0.167443	0.769010
H132	H	0.944445	-0.206056	0.716118
H133	H	0.872486	-0.198996	0.715804
C134	C	0.980462	-0.243561	1.082332
H135	H	1.005363	-0.216823	1.052476
H136	H	0.957679	-0.212950	1.106676
H137	H	1.006726	-0.270421	1.108899
C138	C	0.804881	-0.432410	0.685748
H139	H	0.810875	-0.425966	0.729163
H140	H	0.763178	-0.422146	0.674606
H141	H	0.812236	-0.479604	0.676823
C142	C	0.877033	-0.470922	0.751678
H143	H	0.872604	-0.508597	0.781965
H144	H	0.840719	-0.469927	0.726138
H145	H	0.912654	-0.477190	0.726367
C146	C	0.256208	-0.432581	0.402663
H147	H	0.226336	-0.459360	0.427517
H148	H	0.280517	-0.463152	0.379801
H149	H	0.282808	-0.405759	0.428978
C150	C	0.804873	-0.432463	0.548341
H151	H	0.779982	-0.459214	0.578197
H152	H	0.778608	-0.405618	0.521769
H153	H	0.827670	-0.463072	0.524003
H154	H	0.451974	-0.348381	0.417801
H155	H	0.128639	-0.419695	0.390795
H156	H	0.538455	-0.256558	0.239317
C157	C	0.125966	-0.243604	0.227547
H158	H	0.082066	-0.250037	0.233534
H159	H	0.138539	-0.196433	0.235002
H160	H	0.136241	-0.253813	0.185813
H161	H	0.944797	-0.825302	0.262970
