data_functionalizedCrystal
_audit_creation_method	'MofGen! by Chris Wilmer'
_symmetry_space_group_name_H-M	'P1'
_symmetry_Int_Tables_number	1
_symmetry_cell_setting	triclinic
loop_
_symmetry_equiv_pos_as_xyz
  x,y,z
_cell_length_a	14.519731
_cell_length_b	12.996460
_cell_length_c	10.654541
_cell_angle_alpha	90.005903
_cell_angle_beta	84.086391
_cell_angle_gamma	90.005673
loop_
_atom_site_label
_atom_site_type_symbol
_atom_site_fract_x
_atom_site_fract_y
_atom_site_fract_z
O1	O	1.224710	0.085569	0.164753
O2	O	0.956336	0.085570	0.184112
O3	O	1.096694	0.085563	-0.008366
O4	O	1.084351	0.085576	0.357231
O5	O	1.096680	-0.085571	-0.008376
O6	O	0.956321	-0.085564	0.184101
O7	O	1.224695	-0.085565	0.164742
Cu8	Cu	1.090507	-0.101190	0.174421
Cu9	Cu	1.090524	0.101195	0.174433
O10	O	1.084336	-0.085558	0.357220
C11	C	0.921964	0.000003	0.183199
C12	C	0.819570	0.000004	0.180481
C13	C	0.736414	0.000008	0.178273
C14	C	0.632091	0.000008	0.175513
C15	C	0.548941	0.000008	0.173323
C16	C	0.444611	0.000010	0.170563
N17	N	1.090501	-0.243537	0.174411
C18	C	1.090523	-0.663352	0.174435
C19	C	1.090514	-0.546547	0.174432
C20	C	1.090512	-0.453448	0.174424
C21	C	1.090503	-0.336636	0.174420
C22	C	1.259067	0.000004	0.165655
C23	C	1.361461	0.000010	0.168373
C24	C	1.095781	-0.000003	-0.055161
C25	C	1.093071	-0.000002	-0.194578
N26	N	1.090537	0.243542	0.174433
C27	C	1.260908	-0.000016	-0.224145
C28	C	1.343549	-0.000025	-0.304426
C29	C	1.340997	-0.000021	-0.435419
C30	C	1.255795	-0.000006	-0.486134
C31	C	1.173153	0.000003	-0.405854
C32	C	1.175714	-0.000003	-0.274859
C33	C	1.005318	0.000024	-0.376287
C34	C	1.007868	0.000014	-0.245293
C35	C	0.920116	0.000040	-0.427002
C36	C	0.837472	0.000042	-0.346721
C37	C	0.840028	0.000037	-0.215720
C38	C	0.925227	0.000023	-0.165013
C39	C	1.085250	0.000010	0.404015
C40	C	1.087960	0.000015	0.543433
H41	H	1.262994	-0.000032	-0.117485
H42	H	0.768107	0.000061	-0.388025
H43	H	0.772731	0.000049	-0.150362
H44	H	1.412920	-0.000046	-0.263119
O45	O	1.430127	-0.000038	-0.522020
H46	H	1.489803	-0.000057	-0.464754
H47	H	0.918044	0.000049	-0.533665
O48	O	0.927982	0.000008	-0.023727
H49	H	0.892439	0.069758	0.017210
H50	H	1.253724	0.000009	-0.592798
