data_functionalizedCrystal
_audit_creation_method	'MofGen! by Chris Wilmer'
_symmetry_space_group_name_H-M	'P1'
_symmetry_Int_Tables_number	1
_symmetry_cell_setting	triclinic
loop_
_symmetry_equiv_pos_as_xyz
  x,y,z
_cell_length_a	17.699083
_cell_length_b	15.944551
_cell_length_c	16.176319
_cell_angle_alpha	89.992246
_cell_angle_beta	89.998611
_cell_angle_gamma	83.390877
loop_
_atom_site_label
_atom_site_type_symbol
_atom_site_fract_x
_atom_site_fract_y
_atom_site_fract_z
O1	O	1.004260	0.106222	-0.068632
O2	O	1.504260	0.606222	0.431368
O3	O	0.783905	0.120042	-0.068660
O4	O	1.283905	0.620042	0.431340
O5	O	0.900100	-0.009156	-0.068638
O6	O	1.400100	0.490844	0.431362
O7	O	0.888065	0.235419	-0.068654
O8	O	1.388065	0.735419	0.431346
O9	O	0.900084	-0.009164	0.068855
O10	O	1.400084	0.490836	0.568855
O11	O	0.783889	0.120033	0.068833
O12	O	1.283889	0.620033	0.568833
O13	O	1.004244	0.106214	0.068861
O14	O	1.504244	0.606214	0.568861
Cu15	Cu	0.894065	0.113123	0.081401
Cu16	Cu	1.394065	0.613123	0.581401
Cu17	Cu	0.894084	0.113133	-0.081200
Cu18	Cu	1.394084	0.613133	0.418800
O19	O	0.888049	0.235411	0.068839
O20	O	1.388049	0.735411	0.568839
C21	C	0.755700	0.119542	0.000083
C22	C	1.255700	0.619542	0.500083
C23	C	0.671679	0.118057	0.000073
C24	C	1.171679	0.618057	0.500073
C25	C	0.899593	-0.040453	0.000109
C26	C	1.399593	0.459547	0.500109
C27	C	0.898095	-0.133696	0.000109
C28	C	1.398095	0.366304	0.500109
C29	C	0.623187	0.193893	0.000068
C30	C	1.123187	0.693893	0.500068
C31	C	0.544242	0.192492	0.000079
C32	C	1.044242	0.692492	0.500079
C33	C	0.513789	0.115254	0.000089
C34	C	1.013789	0.615254	0.500089
C35	C	0.562287	0.039412	0.000096
C36	C	1.062287	0.539412	0.500096
C37	C	0.641231	0.040814	0.000091
C38	C	1.141231	0.540814	0.500091
C39	C	0.243914	0.033758	0.000117
C40	C	0.743914	0.533758	0.500117
C41	C	0.164964	0.032362	0.000119
C42	C	0.664964	0.532362	0.500119
C43	C	0.146925	0.185436	0.000105
C44	C	0.646925	0.685436	0.500105
C45	C	0.225869	0.186837	0.000100
C46	C	0.725869	0.686837	0.500100
C47	C	0.274360	0.110996	0.000112
C48	C	0.774360	0.610996	0.500112
C49	C	0.359962	0.112516	0.000102
C50	C	0.859962	0.612516	0.500102
C51	C	0.428189	0.113733	0.000093
C52	C	0.928189	0.613733	0.500093
C53	C	0.822492	-0.348393	0.000088
C54	C	1.322492	0.151607	0.500088
C55	C	0.857591	-0.409488	0.067885
C56	C	1.357591	0.090512	0.567885
C57	C	0.895385	-0.304416	0.000102
C58	C	1.395385	0.195584	0.500102
C59	C	0.857624	-0.409464	-0.067672
C60	C	1.357624	0.090536	0.432328
C61	C	0.892762	-0.469323	0.000092
C62	C	1.392762	0.030677	0.500092
C63	C	0.930505	-0.364283	0.067955
C64	C	1.430505	0.135717	0.567955
C65	C	0.930527	-0.364252	-0.067663
C66	C	1.430527	0.135748	0.432337
C67	C	0.965680	-0.425329	0.000150
C68	C	1.465680	0.074671	0.500150
C69	C	0.896894	-0.209417	0.000109
C70	C	1.396894	0.290583	0.500109
C71	C	0.891259	-0.564321	0.000092
C72	C	1.391259	-0.064321	0.500092
C73	C	1.032450	0.106713	0.000116
C74	C	1.532450	0.606713	0.500116
C75	C	1.116471	0.108199	0.000121
C76	C	1.616471	0.608199	0.500121
C77	C	0.888557	0.266708	0.000090
C78	C	1.388557	0.766708	0.500090
C79	C	0.890055	0.359951	0.000085
C80	C	1.390055	0.859951	0.500085
N81	N	0.894058	0.113116	0.195767
N82	N	1.394058	0.613116	0.695767
N83	N	0.894098	0.113133	-0.195565
N84	N	1.394098	0.613133	0.304435
C85	C	0.945524	0.055930	0.239040
C86	C	1.445524	0.555930	0.739040
C87	C	0.945528	0.055929	0.325588
C88	C	1.445528	0.555929	0.825588
C89	C	0.894068	0.113118	0.368859
C90	C	1.394068	0.613118	0.868859
C91	C	0.842596	0.170306	0.325579
C92	C	1.342596	0.670306	0.825579
C93	C	0.842589	0.170303	0.239034
C94	C	1.342589	0.670303	0.739034
C95	C	0.842622	0.170322	0.674608
C96	C	1.342622	0.670322	1.174608
C97	C	0.842634	0.170323	0.761159
C98	C	1.342634	0.670323	1.261159
C99	C	0.945561	0.055949	0.761161
C100	C	1.445561	0.555949	1.261161
C101	C	0.945554	0.055945	0.674616
C102	C	1.445554	0.555945	1.174616
C103	C	0.894080	0.113130	0.631343
C104	C	1.394080	0.613130	1.131343
C105	C	0.894075	0.113129	0.537499
C106	C	1.394075	0.613129	1.037499
C107	C	0.894076	0.113124	0.462702
C108	C	1.394076	0.613124	0.962702
H109	H	0.647975	0.256789	0.000060
H110	H	1.147975	0.756789	0.500060
H111	H	0.961303	-0.344360	0.125335
H112	H	1.461303	0.155640	0.625335
H113	H	0.140173	-0.030538	0.000128
H114	H	0.640173	0.469462	0.500128
H115	H	0.826754	-0.429535	0.125194
H116	H	1.326754	0.070465	0.625194
O117	O	0.532745	-0.035639	0.000251
O118	O	1.032745	0.464361	0.500251
C119	C	0.557540	-0.081874	0.071451
C120	C	1.057540	0.418126	0.571451
H121	H	0.573961	-0.036709	0.121220
H122	H	1.073961	0.463291	0.621220
H123	H	0.509717	-0.117518	0.095355
H124	H	1.009717	0.382482	0.595355
H125	H	0.608991	-0.128781	0.055354
H126	H	1.108991	0.371219	0.555354
O127	O	0.995424	0.000298	0.367656
O128	O	1.495424	0.500298	0.867656
C129	C	0.954906	-0.051461	0.417746
C130	C	1.454906	0.448539	0.917746
H131	H	0.895218	-0.052803	0.391677
H132	H	1.395218	0.447197	0.891677
H133	H	0.985791	-0.118266	0.418728
H134	H	1.485791	0.381734	0.918728
H135	H	0.950947	-0.025171	0.483336
H136	H	1.450947	0.474829	0.983336
H137	H	1.026238	-0.458615	0.000196
H138	H	1.526238	0.041385	0.500196
O139	O	0.995570	0.000310	0.632711
O140	O	1.495570	0.500310	1.132711
C141	C	1.041010	-0.050152	0.689465
C142	C	1.541010	0.449848	1.189465
H143	H	1.009987	-0.051055	0.751163
H144	H	1.509987	0.448945	1.251163
H145	H	1.052551	-0.117250	0.664469
H146	H	1.552551	0.382750	1.164469
H147	H	1.097233	-0.022957	0.698655
H148	H	1.597233	0.477043	1.198655
O149	O	0.290903	-0.039989	0.000088
O150	O	0.790903	0.460011	0.500088
C151	C	0.247093	-0.108458	0.000116
C152	C	0.747093	0.391542	0.500116
H153	H	0.188175	-0.087014	-0.025917
H154	H	0.688175	0.412986	0.474083
H155	H	0.276210	-0.161585	-0.039795
H156	H	0.776210	0.338415	0.460205
H157	H	0.241467	-0.132141	0.066081
H158	H	0.741467	0.367859	0.566081
O159	O	0.497104	0.266135	0.000213
O160	O	0.997104	0.766135	0.500213
C161	C	0.450887	0.269900	0.071412
C162	C	0.950887	0.769900	0.571412
H163	H	0.479799	0.226896	0.121192
H164	H	0.979799	0.726896	0.621192
H165	H	0.442009	0.337581	0.095299
H166	H	0.942009	0.837581	0.595299
H167	H	0.393481	0.248271	0.055321
H168	H	0.893481	0.748271	0.555321
H169	H	0.800693	0.216868	0.360816
H170	H	1.300693	0.716868	0.860816
O171	O	0.967175	-0.340324	-0.136118
O172	O	1.467175	0.159676	0.363882
C173	C	0.928564	-0.363094	-0.207460
C174	C	1.428564	0.136906	0.292540
H175	H	0.866857	-0.369730	-0.191226
H176	H	1.366857	0.130270	0.308774
H177	H	0.930420	-0.312168	-0.256654
H178	H	1.430420	0.187832	0.243346
H179	H	0.957194	-0.425792	-0.232191
H180	H	1.457194	0.074208	0.267809
H181	H	0.826790	-0.429472	-0.124993
H182	H	1.326790	0.070528	0.375007
O183	O	0.255324	0.261940	0.000128
O184	O	0.755324	0.761940	0.500128
C185	C	0.195595	0.328576	0.000107
C186	C	0.695595	0.828576	0.500107
H187	H	0.141965	0.305139	0.026140
H188	H	0.641965	0.805139	0.526140
H189	H	0.212096	0.382508	0.040021
H190	H	0.712096	0.882508	0.540021
H191	H	0.184424	0.351967	-0.065857
H192	H	0.684424	0.851967	0.434143
H193	H	0.987432	0.009364	0.203814
H194	H	1.487432	0.509364	0.703814
H195	H	0.680713	-0.020940	0.000095
H196	H	1.180713	0.479060	0.500095
H197	H	0.761987	-0.314958	0.000149
H198	H	1.261987	0.185042	0.500149
H199	H	0.107434	0.247189	0.000100
H200	H	0.607434	0.747189	0.500100
O201	O	0.792565	0.225906	0.803067
O202	O	1.292565	0.725906	1.303067
C203	C	0.747141	0.276391	0.746316
C204	C	1.247141	0.776391	1.246316
H205	H	0.746281	0.241954	0.684628
H206	H	1.246281	0.741954	1.184628
H207	H	0.686704	0.289280	0.771333
H208	H	1.186704	0.789280	1.271333
H209	H	0.771706	0.338761	0.737098
H210	H	1.271706	0.838761	1.237098
H211	H	0.987472	0.009383	0.796403
H212	H	1.487472	0.509383	1.296403
H213	H	0.800711	0.216885	0.639382
H214	H	1.300711	0.716885	1.139382
O215	O	0.792568	0.225936	0.197123
O216	O	1.292568	0.725936	0.697123
C217	C	0.747137	0.276401	0.253871
C218	C	1.247137	0.776401	0.753871
H219	H	0.778172	0.277311	0.315560
H220	H	1.278172	0.777311	0.815560
H221	H	0.735588	0.343496	0.228854
H222	H	1.235588	0.843496	0.728854
H223	H	0.690917	0.249203	0.263089
H224	H	1.190917	0.749203	0.763089
