data_functionalizedCrystal
_audit_creation_method	'MofGen! by Chris Wilmer'
_symmetry_space_group_name_H-M	'P1'
_symmetry_Int_Tables_number	1
_symmetry_cell_setting	triclinic
loop_
_symmetry_equiv_pos_as_xyz
  x,y,z
_cell_length_a	7.681481
_cell_length_b	10.654550
_cell_length_c	10.654550
_cell_angle_alpha	84.484931
_cell_angle_beta	84.202374
_cell_angle_gamma	95.782450
loop_
_atom_site_label
_atom_site_type_symbol
_atom_site_fract_x
_atom_site_fract_y
_atom_site_fract_z
O1	O	0.146299	-1.656080	-0.188176
O2	O	0.646299	-1.156080	0.311824
O3	O	0.146331	-1.290599	-0.204984
O4	O	0.646331	-0.790599	0.295016
O5	O	0.146303	-1.481744	-0.013840
O6	O	0.646303	-0.981744	0.486160
O7	O	0.146327	-1.464936	-0.379320
O8	O	0.646327	-0.964936	0.120680
O9	O	-0.146558	-1.505270	0.009741
O10	O	0.353442	-1.005270	0.509741
O11	O	-0.146530	-1.314126	-0.181404
O12	O	0.353470	-0.814126	0.318596
O13	O	-0.146563	-1.679607	-0.164595
O14	O	0.353437	-1.179607	0.335405
Zn15	Zn	-0.193044	-1.500601	-0.169256
Zn16	Zn	0.306956	-1.000601	0.330744
Zn17	Zn	0.192813	-1.469604	-0.200324
Zn18	Zn	0.692813	-0.969604	0.299676
O19	O	-0.146535	-1.488462	-0.355740
O20	O	0.353465	-0.988462	0.144260
C21	C	-0.000096	-1.255564	-0.191960
C22	C	0.499904	-0.755564	0.308040
C23	C	-0.000084	-1.116120	-0.188269
C24	C	0.499916	-0.616120	0.311731
N25	N	-0.456382	-1.521765	-0.148052
N26	N	0.043618	-1.021765	0.351948
C27	C	-0.000127	-1.492273	0.044748
C28	C	0.499873	-0.992273	0.544748
C29	C	-0.000124	-1.488581	0.184191
C30	C	0.499876	-0.988581	0.684191
N31	N	0.456150	-1.448451	-0.221518
N32	N	0.956150	-0.948451	0.278482
C33	C	-0.000132	-1.714641	-0.177619
C34	C	0.499868	-1.214641	0.322381
C35	C	-0.000133	-1.854085	-0.181311
C36	C	0.499867	-1.354085	0.318689
C37	C	-0.000081	-1.036634	-0.300811
C38	C	0.499919	-0.536634	0.199189
C39	C	-0.000112	-0.905616	-0.297332
C40	C	0.499888	-0.405616	0.202668
C41	C	-0.000140	-0.933581	-0.068760
C42	C	0.499860	-0.433581	0.431240
C43	C	-0.000122	-1.064598	-0.072240
C44	C	0.499878	-0.564598	0.427760
C45	C	-0.000101	-1.477933	-0.414328
C46	C	0.499899	-0.977933	0.085672
C47	C	-0.000093	-1.481624	-0.553772
C48	C	0.499907	-0.981624	-0.053772
C49	C	-0.000133	-1.601123	0.263678
C50	C	0.499867	-1.101123	0.763678
C51	C	-0.000111	-1.597645	0.394697
C52	C	0.499889	-1.097645	0.894697
C53	C	-0.000078	-1.369073	0.366731
C54	C	0.499922	-0.869073	0.866731
C55	C	-0.000087	-1.372551	0.235713
C56	C	0.499913	-0.872551	0.735713
H57	H	-0.468642	-1.373611	-0.296505
H58	H	0.031358	-0.873611	0.203495
H59	H	-0.531599	-1.596618	-0.073069
H60	H	-0.031599	-1.096618	0.426931
H61	H	-0.000063	-1.078580	-0.395289
H62	H	0.499937	-0.578580	0.104711
H63	H	-0.000182	-0.891616	0.025708
H64	H	0.499818	-0.391616	0.525708
H65	H	-0.000114	-0.840903	-0.388975
H66	H	0.499886	-0.340903	0.111025
H67	H	-0.000052	-1.274605	0.408697
H68	H	0.499948	-0.774605	0.908697
H69	H	-0.000129	-1.129320	0.019412
H70	H	0.499871	-0.629320	0.519412
H71	H	-0.000159	-1.695601	0.221733
H72	H	0.499841	-1.195601	0.721733
H73	H	-0.000115	-1.689288	0.459410
H74	H	0.499885	-1.189288	0.959410
H75	H	-0.000075	-1.280899	0.170991
H76	H	0.499925	-0.780899	0.670991
