data_functionalizedCrystal
_audit_creation_method	'MofGen! by Chris Wilmer'
_symmetry_space_group_name_H-M	'P1'
_symmetry_Int_Tables_number	1
_symmetry_cell_setting	triclinic
loop_
_symmetry_equiv_pos_as_xyz
  x,y,z
_cell_length_a	12.759401
_cell_length_b	19.120786
_cell_length_c	12.759393
_cell_angle_alpha	87.524000
_cell_angle_beta	89.980324
_cell_angle_gamma	92.465677
loop_
_atom_site_label
_atom_site_type_symbol
_atom_site_fract_x
_atom_site_fract_y
_atom_site_fract_z
Zn1	Zn	1.588346	-0.279590	-0.576101
Zn2	Zn	1.580707	-0.397064	-0.392907
Zn3	Zn	1.412642	-0.279625	-0.400437
Zn4	Zn	1.405110	-0.397013	-0.568551
O5	O	1.496701	-0.338323	-0.484499
O6	O	1.734353	-0.295180	-0.551807
O7	O	1.558368	-0.381522	-0.246882
O8	O	1.442299	-0.181329	-0.430051
O9	O	1.728741	-0.381488	-0.417216
O10	O	1.571387	-0.181303	-0.559110
O11	O	1.434892	-0.295240	-0.252415
O12	O	1.264622	-0.295190	-0.422730
O13	O	1.429461	-0.381400	-0.716576
O14	O	1.259088	-0.381434	-0.546242
O15	O	1.564083	-0.295130	-0.722123
O16	O	1.551065	-0.495348	-0.409895
O17	O	1.422054	-0.495310	-0.538940
C18	C	1.223735	-0.338311	-0.484485
C19	C	1.106957	-0.338322	-0.484503
C20	C	1.055013	-0.293463	-0.554683
C21	C	0.945288	-0.293470	-0.554690
C22	C	0.939462	-0.383202	-0.414332
C23	C	1.049184	-0.383191	-0.414321
C24	C	0.800675	-0.210679	-0.597754
C25	C	0.748727	-0.165826	-0.667950
C26	C	0.785072	-0.155120	-0.771174
C27	C	0.873362	-0.189279	-0.804221
C28	C	0.925305	-0.234137	-0.734029
C29	C	0.888963	-0.244829	-0.630792
C30	C	1.193799	-0.465983	-0.371268
C31	C	1.245743	-0.510846	-0.301081
C32	C	1.209400	-0.521558	-0.197855
C33	C	1.121105	-0.487412	-0.164811
C34	C	1.069161	-0.442550	-0.234998
C35	C	1.105512	-0.431836	-0.338223
C36	C	1.484942	-0.520815	-0.472804
C37	C	1.480007	-0.598886	-0.467836
C38	C	1.544848	-0.635490	-0.532750
C39	C	1.540207	-0.708846	-0.528084
C40	C	1.470730	-0.745596	-0.458497
C41	C	1.405881	-0.708987	-0.393580
C42	C	1.410518	-0.635633	-0.398252
C43	C	1.453366	-0.967083	-0.441031
C44	C	1.448737	-1.040443	-0.436361
C45	C	1.583062	-1.040297	-0.570867
C46	C	1.587697	-0.966941	-0.575529
C47	C	1.522844	-0.930338	-0.510615
C48	C	1.465987	-0.820578	-0.453724
C49	C	1.527583	-0.855358	-0.515395
C50	C	1.770734	-0.338335	-0.484514
C51	C	1.887510	-0.338341	-0.484520
C52	C	1.496784	-0.338255	-0.758537
C53	C	1.496819	-0.338227	-0.875315
C54	C	1.508535	-0.155118	-0.496263
C55	C	1.513578	-0.077047	-0.501276
C56	C	1.566923	-0.293299	-0.933068
C57	C	1.566943	-0.293268	-1.042794
C58	C	1.426752	-0.383100	-1.037005
C59	C	1.426728	-0.383126	-0.927281
C60	C	1.609866	-0.210398	-1.198072
C61	C	1.679986	-0.165476	-1.255827
C62	C	1.783189	-0.154706	-1.220923
C63	C	1.816293	-0.188869	-1.128263
C64	C	1.746178	-0.233796	-1.070513
C65	C	1.642962	-0.244552	-1.105417
C66	C	1.383815	-0.465998	-0.772001
C67	C	1.313705	-0.510929	-0.714248
C68	C	1.210500	-0.521706	-0.749151
C69	C	1.177399	-0.487555	-0.841813
C70	C	1.247509	-0.442624	-0.899565
C71	C	1.350713	-0.431846	-0.864656
C72	C	1.496682	-0.338339	-0.211530
C73	C	1.496863	-0.338170	-0.094765
H74	H	0.771083	-0.219383	-0.513698
H75	H	0.892410	-0.419733	-0.357194
H76	H	1.653023	-0.137660	-1.331271
F77	F	1.652074	-1.079257	-0.639951
H78	H	0.676840	-0.138014	-0.641034
H79	H	1.593016	-0.738646	-0.580937
H80	H	1.840280	-0.118129	-1.267955
F81	F	0.975206	-0.406193	-0.199818
H82	H	1.153420	-0.558299	-0.702123
F83	F	1.082416	-0.498819	-0.054949
F84	F	0.729777	-0.107387	-0.845881
F85	F	1.348941	-0.547281	-0.615634
F86	F	1.116495	-0.245708	-0.629373
F87	F	1.264681	-0.569314	-0.123162
F88	F	1.601518	-0.816244	-0.589458
F89	F	1.618802	-0.596384	-0.606810
F90	F	1.331928	-0.748102	-0.319529
F91	F	1.493650	-0.454513	-0.734830
F92	F	1.339712	-0.547191	-0.336254
F93	F	1.926142	-0.177413	-1.091130
H94	H	0.997193	-0.261945	-0.760934
F95	F	1.500021	-0.221847	-1.235220
F96	F	0.912027	-0.177892	-0.914092
H97	H	1.093362	-0.496332	-0.870234
F98	F	1.392041	-0.859697	-0.379671
H99	H	1.223405	-0.457259	-0.455320
H100	H	1.369688	-0.419658	-1.079329
H101	H	1.623993	-0.256736	-0.890760
H102	H	1.773132	-0.261614	-0.995074
H103	H	1.220550	-0.414817	-0.975016
H104	H	1.644271	-0.937020	-0.632192
H105	H	1.392155	-1.070363	-0.379694
F106	F	1.384336	-0.928137	-0.371951
H107	H	1.357716	-0.605830	-0.345393
