data_functionalizedCrystal
_audit_creation_method	'MofGen! by Chris Wilmer'
_symmetry_space_group_name_H-M	'P1'
_symmetry_Int_Tables_number	1
_symmetry_cell_setting	triclinic
loop_
_symmetry_equiv_pos_as_xyz
  x,y,z
_cell_length_a	25.639242
_cell_length_b	25.639240
_cell_length_c	12.759393
_cell_angle_alpha	90.043160
_cell_angle_beta	90.023696
_cell_angle_gamma	90.025061
loop_
_atom_site_label
_atom_site_type_symbol
_atom_site_fract_x
_atom_site_fract_y
_atom_site_fract_z
Zn1	Zn	0.799295	-0.208233	0.594005
Zn2	Zn	0.799213	-0.295678	0.418286
Zn3	Zn	0.711857	-0.208247	0.418331
Zn4	Zn	0.711825	-0.295627	0.593915
O5	O	0.755547	-0.251946	0.506134
O6	O	0.872449	-0.219848	0.570714
O7	O	0.787604	-0.284107	0.271271
O8	O	0.723503	-0.135080	0.441692
O9	O	0.872389	-0.284094	0.441614
O10	O	0.787743	-0.135069	0.570758
O11	O	0.723424	-0.219871	0.271304
O12	O	0.638687	-0.219822	0.441604
O13	O	0.723449	-0.284007	0.740948
O14	O	0.638664	-0.284021	0.570605
O15	O	0.787713	-0.219799	0.741014
O16	O	0.787573	-0.368836	0.441527
O17	O	0.723370	-0.368799	0.570561
C18	C	0.619705	-0.251918	0.506100
C19	C	0.561591	-0.251918	0.506111
C20	C	0.310437	-0.218553	0.573479
C21	C	0.365041	-0.218548	0.573473
O22	O	0.393311	-0.190156	0.630745
N23	N	0.392317	-0.251940	0.506146
C24	C	0.364986	-0.285344	0.438829
O25	O	0.393200	-0.313746	0.381562
C26	C	0.310382	-0.285351	0.438841
C27	C	0.283109	-0.251953	0.506164
C28	C	0.283164	-0.185158	0.640798
C29	C	0.228563	-0.185162	0.640803
C30	C	0.201236	-0.218562	0.573488
C31	C	0.228509	-0.251957	0.506169
C32	C	0.283052	-0.318757	0.371529
C33	C	0.228445	-0.318761	0.371547
C34	C	0.201172	-0.285363	0.438871
C35	C	0.146581	-0.285362	0.438858
N36	N	0.119305	-0.251969	0.506185
C37	C	0.146632	-0.218570	0.573500
C38	C	0.479656	-0.285326	0.438810
C39	C	0.534259	-0.285316	0.438792
C40	C	0.534310	-0.218521	0.573438
C41	C	0.479707	-0.218529	0.573450
C42	C	0.452380	-0.251934	0.506137
C43	C	0.031967	-0.218581	0.573503
C44	C	-0.022638	-0.218587	0.573499
C45	C	-0.022685	-0.285384	0.438857
C46	C	0.031916	-0.285377	0.438857
C47	C	0.059240	-0.251973	0.506189
O48	O	0.118276	-0.313740	0.381619
O49	O	0.118411	-0.190176	0.630767
C50	C	0.755474	-0.387789	0.506052
C51	C	0.755490	-0.445903	0.506052
C52	C	0.789014	-0.806222	0.573460
C53	C	0.789029	-0.860826	0.573482
O54	O	0.817445	-0.889026	0.630710
N55	N	0.755620	-0.888185	0.506236
C56	C	0.722189	-0.860937	0.438972
O57	O	0.693773	-0.889222	0.381776
C58	C	0.722172	-0.806334	0.438956
C59	C	0.755587	-0.778978	0.506199
C60	C	0.822426	-0.778866	0.640699
C61	C	0.822411	-0.724265	0.640676
C62	C	0.788984	-0.697021	0.573414
C63	C	0.755572	-0.724377	0.506176
C64	C	0.688739	-0.779086	0.371698
C65	C	0.688724	-0.724479	0.371689
C66	C	0.722139	-0.697123	0.438932
C67	C	0.722130	-0.642532	0.438892
N68	N	0.755540	-0.615173	0.506138
C69	C	0.788967	-0.642418	0.573399
C70	C	0.722228	-0.975608	0.439010
C71	C	0.722248	-1.030210	0.439019
C72	C	0.789088	-1.030096	0.573531
C73	C	0.789070	-0.975492	0.573516
C74	C	0.755638	-0.948249	0.506256
C75	C	0.788933	-0.527753	0.573345
C76	C	0.788917	-0.473147	0.573313
C77	C	0.722076	-0.473266	0.438806
C78	C	0.722094	-0.527867	0.438833
C79	C	0.755524	-0.555109	0.506112
O80	O	0.693728	-0.614298	0.381696
O81	O	0.817373	-0.614126	0.630594
C82	C	0.891920	-0.251975	0.506169
C83	C	0.950034	-0.251987	0.506184
C84	C	0.755587	-0.251896	0.780168
C85	C	0.755603	-0.251875	0.896945
C86	C	0.755636	-0.115573	0.506240
C87	C	0.755674	-0.057459	0.506285
C88	C	0.755539	-0.251958	0.233167
C89	C	0.755623	-0.251833	0.116391
C90	C	0.789068	-0.218436	0.951843
C91	C	0.789077	-0.218413	1.061567
C92	C	0.722155	-0.285273	1.061485
C93	C	0.722144	-0.285292	0.951763
C94	C	0.807814	-0.156729	1.211574
C95	C	0.841286	-0.123295	1.266476
C96	C	0.892305	-0.115286	1.230893
C97	C	0.909860	-0.140718	1.140410
C98	C	0.876391	-0.174156	1.085514
C99	C	0.825365	-0.182156	1.121095
C100	C	0.703412	-0.346977	0.801754
C101	C	0.669945	-0.380418	0.746855
C102	C	0.618926	-0.388433	0.782436
C103	C	0.601372	-0.363009	0.872923
C104	C	0.634839	-0.329568	0.927821
C105	C	0.685858	-0.321553	0.892232
H106	H	0.305408	-0.157959	0.695619
F107	F	0.061041	-0.183030	0.645165
H108	H	0.816311	-0.191224	0.907213
F109	F	-0.051778	-0.320928	0.367217
F110	F	0.653171	-0.808189	0.300131
F111	F	0.822601	-0.096230	1.362772
F112	F	0.450686	-0.182983	0.645105
H113	H	0.694915	-0.312481	1.106132
H114	H	0.694861	-0.451075	0.384039
H115	H	0.816279	-0.953222	0.628271
H116	H	0.744955	-0.340450	0.772769
F117	F	0.653139	-0.695488	0.300101
H118	H	0.816305	-1.052288	0.628301
F119	F	0.686646	-0.946618	0.367412
F120	F	0.199544	-0.149619	0.712466
F121	F	0.563404	-0.182974	0.645081
H122	H	0.684244	-0.401124	0.673183
H123	H	-0.044841	-0.191388	0.628321
F124	F	0.563279	-0.320855	0.367119
F125	F	0.686536	-0.556982	0.367254
H126	H	0.695044	-1.052478	0.384252
F127	F	0.450578	-0.320878	0.367151
F128	F	0.312067	-0.354298	0.299859
F129	F	0.895072	-0.201223	0.989222
H130	H	0.054123	-0.312568	0.384027
F131	F	0.753511	-0.165245	1.249443
H132	H	0.620542	-0.308868	1.001500
F133	F	0.583311	-0.424033	0.724016
F134	F	0.199366	-0.354320	0.299907
H135	H	0.816129	-0.450876	0.628070
H136	H	0.816152	-0.549926	0.628137
F137	F	0.857974	-0.695158	0.712252
H138	H	0.849646	-0.801043	0.695477
F139	F	0.964165	-0.132199	1.102555
H140	H	0.919558	-0.088063	1.275602
F141	F	0.547072	-0.371540	0.910796
