data_functionalizedCrystal
_audit_creation_method	'MofGen! by Chris Wilmer'
_symmetry_space_group_name_H-M	'P1'
_symmetry_Int_Tables_number	1
_symmetry_cell_setting	triclinic
loop_
_symmetry_equiv_pos_as_xyz
  x,y,z
_cell_length_a	11.792254
_cell_length_b	19.188930
_cell_length_c	10.868271
_cell_angle_alpha	89.989749
_cell_angle_beta	89.995741
_cell_angle_gamma	83.671689
loop_
_atom_site_label
_atom_site_type_symbol
_atom_site_fract_x
_atom_site_fract_y
_atom_site_fract_z
O1	O	1.505467	0.095737	-0.102336
O2	O	2.005467	0.595737	0.397664
O3	O	1.174980	0.105590	-0.102341
O4	O	1.674980	0.605590	0.397659
O5	O	1.349761	-0.000938	-0.102314
O6	O	1.849761	0.499062	0.397686
O7	O	1.330686	0.202265	-0.102363
O8	O	1.830686	0.702265	0.397637
O9	O	1.349746	-0.000942	0.102330
O10	O	1.849746	0.499058	0.602330
O11	O	1.174966	0.105586	0.102304
O12	O	1.674966	0.605586	0.602304
O13	O	1.505453	0.095733	0.102308
O14	O	2.005453	0.595733	0.602308
Zn15	Zn	1.340207	0.100659	0.134798
Zn16	Zn	1.840207	0.600659	0.634798
Zn17	Zn	1.340226	0.100664	-0.134830
Zn18	Zn	1.840226	0.600664	0.365170
O19	O	1.330672	0.202261	0.102282
O20	O	1.830672	0.702261	0.602282
C21	C	1.132692	0.104968	-0.000018
C22	C	1.632692	0.604968	0.499982
C23	C	1.006706	0.103110	-0.000019
C24	C	1.506706	0.603110	0.499981
C25	C	0.904392	0.101600	-0.000024
C26	C	1.404392	0.601600	0.499976
C27	C	0.776034	0.099713	-0.000024
C28	C	1.276034	0.599713	0.499976
C29	C	1.349136	-0.026954	0.000012
C30	C	1.849136	0.473046	0.500012
C31	C	1.347282	-0.104469	0.000022
C32	C	1.847282	0.395531	0.500022
C33	C	1.449837	-0.148809	0.000029
C34	C	1.949837	0.351191	0.500029
C35	C	1.448095	-0.221643	0.000010
C36	C	1.948095	0.278357	0.500010
C37	C	1.343792	-0.250134	0.000007
C38	C	1.843792	0.249866	0.500007
C39	C	1.241223	-0.205784	-0.000007
C40	C	1.741223	0.294216	0.499993
C41	C	1.242968	-0.132951	0.000001
C42	C	1.742968	0.367049	0.500001
N43	N	1.264059	-0.358594	0.069651
N44	N	1.764059	0.141406	0.569651
N45	N	1.262409	-0.427782	0.069646
N46	N	1.762409	0.072218	0.569646
C47	C	1.338528	-0.469572	-0.000018
C48	C	1.838528	0.030428	0.499982
N49	N	1.416378	-0.439562	-0.069662
N50	N	1.916378	0.060438	0.430338
N51	N	1.418032	-0.370368	-0.069652
N52	N	1.918032	0.129632	0.430348
C53	C	1.341888	-0.329107	-0.000001
C54	C	1.841888	0.170893	0.499999
C55	C	1.439202	-0.592887	-0.000034
C56	C	1.939202	-0.092887	0.499966
C57	C	1.437455	-0.665722	-0.000061
C58	C	1.937455	-0.165722	0.499939
C59	C	1.230580	-0.649861	-0.000065
C60	C	1.730580	-0.149861	0.499935
C61	C	1.232330	-0.577028	-0.000050
C62	C	1.732330	-0.077028	0.499950
C63	C	1.336643	-0.548546	-0.000028
C64	C	1.836643	-0.048546	0.499972
C65	C	1.547741	0.096356	-0.000016
C66	C	2.047741	0.596356	0.499984
C67	C	1.673726	0.098214	-0.000024
C68	C	2.173726	0.598214	0.499976
C69	C	1.331297	0.228278	-0.000047
C70	C	1.831297	0.728278	0.499953
C71	C	1.333151	0.305793	-0.000065
C72	C	1.833151	0.805793	0.499935
N73	N	1.340202	0.100655	0.318812
N74	N	1.840202	0.600655	0.818812
N75	N	1.340239	0.100663	-0.318844
N76	N	1.840239	0.600663	0.181156
C77	C	1.340220	0.100663	0.569818
C78	C	1.840220	0.600663	1.069818
C79	C	1.340207	0.100660	0.430141
C80	C	1.840207	0.600660	0.930141
H81	H	1.534777	-0.125624	0.000043
H82	H	2.034777	0.374376	0.500043
O83	O	1.132630	-0.534024	-0.000205
O84	O	1.632630	-0.034024	0.499795
C85	C	1.069298	-0.546970	-0.106210
C86	C	1.569298	-0.046970	0.393790
H87	H	1.097445	-0.602101	-0.141553
H88	H	1.597445	-0.102101	0.358447
H89	H	0.974614	-0.542213	-0.082373
H90	H	1.474614	-0.042213	0.417627
H91	H	1.084622	-0.507068	-0.180421
H92	H	1.584622	-0.007068	0.319579
H93	H	1.520972	-0.701824	-0.000062
H94	H	2.020972	-0.201824	0.499938
H95	H	1.531611	-0.257752	0.000011
H96	H	2.031611	0.242248	0.500011
H97	H	1.156298	-0.228985	-0.000011
H98	H	1.656298	0.271015	0.499989
O99	O	1.143266	-0.089947	-0.000163
O100	O	1.643266	0.410053	0.499837
C101	C	1.079936	-0.102890	-0.106172
C102	C	1.579936	0.397110	0.393828
H103	H	1.108081	-0.158020	-0.141517
H104	H	1.608081	0.341980	0.358483
H105	H	0.985251	-0.098130	-0.082339
H106	H	1.485251	0.401870	0.417661
H107	H	1.095265	-0.062986	-0.180379
H108	H	1.595265	0.437014	0.319621
H109	H	1.524140	-0.569696	-0.000022
H110	H	2.024140	-0.069696	0.499978
H111	H	1.145654	-0.673057	-0.000073
H112	H	1.645654	-0.173057	0.499927
