data_functionalizedCrystal
_audit_creation_method	'MofGen! by Chris Wilmer'
_symmetry_space_group_name_H-M	'P1'
_symmetry_Int_Tables_number	1
_symmetry_cell_setting	triclinic
loop_
_symmetry_equiv_pos_as_xyz
  x,y,z
_cell_length_a	12.827893
_cell_length_b	25.639239
_cell_length_c	12.827885
_cell_angle_alpha	89.964018
_cell_angle_beta	89.980538
_cell_angle_gamma	90.038657
loop_
_atom_site_label
_atom_site_type_symbol
_atom_site_fract_x
_atom_site_fract_y
_atom_site_fract_z
Zn1	Zn	1.597502	-0.208126	-0.590804
Zn2	Zn	1.597325	-0.295571	-0.416045
Zn3	Zn	1.422743	-0.208151	-0.416077
Zn4	Zn	1.422658	-0.295532	-0.590745
O5	O	1.510057	-0.251845	-0.503418
O6	O	1.743715	-0.219731	-0.567633
O7	O	1.574128	-0.284002	-0.269813
O8	O	1.446035	-0.134983	-0.439293
O9	O	1.743584	-0.283977	-0.439238
O10	O	1.574430	-0.134964	-0.567664
O11	O	1.445863	-0.219775	-0.269837
O12	O	1.276496	-0.219737	-0.439236
O13	O	1.445890	-0.283911	-0.736989
O14	O	1.276433	-0.283935	-0.567564
O15	O	1.574348	-0.219694	-0.737032
O16	O	1.574045	-0.368731	-0.439181
O17	O	1.445718	-0.368702	-0.567533
C18	C	1.238547	-0.251835	-0.503398
C19	C	1.122394	-0.251843	-0.503414
C20	C	1.070606	-0.283660	-0.566817
C21	C	0.950556	-0.283670	-0.566835
C22	C	1.509881	-0.387688	-0.503370
C23	C	1.509902	-0.445802	-0.503384
C24	C	1.577051	-0.806167	-0.436699
C25	C	1.577092	-0.860771	-0.436713
O26	O	1.634003	-0.889010	-0.379962
N27	N	1.510241	-0.888084	-0.503487
C28	C	1.443352	-0.860790	-0.570259
O29	O	1.386495	-0.889035	-0.627057
C30	C	1.443318	-0.806186	-0.570249
C31	C	1.510166	-0.778876	-0.503463
C32	C	1.643895	-0.778857	-0.369920
C33	C	1.643853	-0.724256	-0.369904
C34	C	1.576967	-0.696966	-0.436669
C35	C	1.510124	-0.724276	-0.503448
C36	C	1.376436	-0.778893	-0.637026
C37	C	1.376407	-0.724286	-0.637011
C38	C	1.443255	-0.696976	-0.570225
C39	C	1.443196	-0.642385	-0.570198
N40	N	1.510047	-0.615072	-0.503424
C41	C	1.576933	-0.642363	-0.436659
C42	C	1.443431	-0.975460	-0.570275
C43	C	1.443460	-1.030063	-0.570280
C44	C	1.577201	-1.030040	-0.436735
C45	C	1.577166	-0.975437	-0.436726
C46	C	1.510282	-0.948148	-0.503501
C47	C	1.576838	-0.527698	-0.436632
C48	C	1.576787	-0.473092	-0.436620
C49	C	1.443051	-0.473119	-0.570168
C50	C	1.443097	-0.527720	-0.570177
C51	C	1.510000	-0.555008	-0.503405
O52	O	1.386317	-0.614112	-0.626923
O53	O	1.633790	-0.614110	-0.379880
C54	C	1.782627	-0.251856	-0.503438
C55	C	1.898780	-0.251860	-0.503447
C56	C	1.510129	-0.251795	-0.775988
C57	C	1.510160	-0.251773	-0.892141
C58	C	1.510262	-0.115472	-0.503489
C59	C	1.510349	-0.057358	-0.503519
C60	C	1.446711	-0.219986	-0.943938
C61	C	1.446741	-0.219963	-1.063988
C62	C	1.510046	-0.251857	-0.231908
C63	C	1.510217	-0.251731	-0.115755
H64	H	1.631223	-0.450858	-0.382231
H65	H	1.389015	-1.052294	-0.624654
F66	F	1.648043	-0.556732	-0.365566
F67	F	1.648315	-0.946377	-0.365645
H68	H	1.564545	-0.278945	-1.071218
H69	H	1.321943	-0.702069	-0.691391
F70	F	1.375688	-0.184430	-0.885737
H71	H	1.698289	-0.702024	-0.315525
H72	H	1.115145	-0.310891	-0.621088
H73	H	1.392425	-0.192746	-1.108532
F74	F	1.581188	-0.287327	-0.950342
F75	F	1.648385	-1.059095	-0.365676
H76	H	0.943310	-0.224621	-0.449159
F77	F	1.064184	-0.216244	-0.432485
F78	F	1.715092	-0.807893	-0.298855
F79	F	0.892347	-0.319278	-0.637782
H80	H	1.321996	-0.801120	-0.691405
H81	H	1.388957	-0.953244	-0.624648
H82	H	1.388668	-0.549957	-0.624562
F83	F	1.371873	-0.444065	-0.641223
