data_functionalizedCrystal
_audit_creation_method	'MofGen! by Chris Wilmer'
_symmetry_space_group_name_H-M	'P1'
_symmetry_Int_Tables_number	1
_symmetry_cell_setting	triclinic
loop_
_symmetry_equiv_pos_as_xyz
  x,y,z
_cell_length_a	8.634740
_cell_length_b	8.559649
_cell_length_c	14.048226
_cell_angle_alpha	89.995035
_cell_angle_beta	89.994492
_cell_angle_gamma	85.174486
loop_
_atom_site_label
_atom_site_type_symbol
_atom_site_fract_x
_atom_site_fract_y
_atom_site_fract_z
O1	O	1.985475	0.511634	-0.079148
O2	O	1.541603	0.468732	-0.079151
O3	O	1.802644	0.263602	-0.079149
O4	O	1.724434	0.716765	-0.079151
O5	O	1.802618	0.263583	0.079173
O6	O	1.541577	0.468714	0.079170
O7	O	1.985448	0.511616	0.079173
Zn8	Zn	1.763508	0.490162	0.104308
Zn9	Zn	1.763543	0.490186	-0.104287
O10	O	1.724407	0.716746	0.079170
C11	C	1.485291	0.459004	0.000009
C12	C	1.317539	0.430026	0.000007
C13	C	1.808558	0.204975	0.000010
C14	C	1.826201	0.030311	0.000005
C15	C	2.041761	0.521344	0.000011
C16	C	2.209512	0.550322	0.000006
C17	C	1.718493	0.775373	0.000009
C18	C	1.700851	0.950037	0.000008
N19	N	1.763496	0.490146	0.246669
N20	N	1.763569	0.490191	-0.246648
C21	C	1.879112	0.399363	0.296488
C22	C	1.879122	0.399364	0.396146
C23	C	1.763522	0.490157	0.445983
C24	C	1.647894	0.580943	0.396156
C25	C	1.647879	0.580933	0.296500
C26	C	1.647936	0.580961	0.603871
C27	C	1.647953	0.580974	0.703533
C28	C	1.879180	0.399392	0.703516
C29	C	1.879165	0.399382	0.603860
C30	C	1.763538	0.490171	0.554041
H31	H	1.245366	0.675491	0.000011
H32	H	1.553777	0.654885	0.563311
H33	H	1.580036	0.014934	0.000010
H34	H	1.947023	-0.034594	0.000014
N35	N	2.003857	0.301470	0.449865
H36	H	1.954273	0.223022	0.491227
H37	H	2.077040	0.244083	0.403097
H38	H	1.553818	0.654905	0.744105
H39	H	1.553763	0.654862	0.436739
N40	N	2.003805	0.301446	0.242739
H41	H	2.077046	0.243934	0.289426
H42	H	1.954050	0.223105	0.201404
N43	N	1.523169	0.678845	0.242769
H44	H	1.527409	0.792920	0.260097
H45	H	1.540764	0.664931	0.172092
N46	N	1.270072	0.264229	0.000019
H47	H	1.152946	0.266333	0.000020
H48	H	1.312839	0.207727	-0.058670
H49	H	1.973301	0.325460	0.563283
N50	N	2.003898	0.301472	0.757242
H51	H	1.986367	0.315246	0.827936
H52	H	1.999603	0.187442	0.739831
