data_functionalizedCrystal
_audit_creation_method	'MofGen! by Chris Wilmer'
_symmetry_space_group_name_H-M	'P1'
_symmetry_Int_Tables_number	1
_symmetry_cell_setting	triclinic
loop_
_symmetry_equiv_pos_as_xyz
  x,y,z
_cell_length_a	12.811445
_cell_length_b	12.837942
_cell_length_c	11.892314
_cell_angle_alpha	86.043680
_cell_angle_beta	91.080655
_cell_angle_gamma	89.412982
loop_
_atom_site_label
_atom_site_type_symbol
_atom_site_fract_x
_atom_site_fract_y
_atom_site_fract_z
O1	O	1.390106	0.124756	0.236490
O2	O	1.088205	0.141896	0.205546
O3	O	1.232461	-0.017562	0.220325
O4	O	1.245849	0.284214	0.221711
O5	O	1.245504	-0.005758	0.033661
O6	O	1.101247	0.153700	0.018883
O7	O	1.403149	0.136561	0.049826
Zn8	Zn	1.254269	0.147005	0.004718
Zn9	Zn	1.237085	0.131452	0.250655
O10	O	1.258892	0.296019	0.035048
C11	C	1.055816	0.147198	0.108226
C12	C	0.939874	0.145398	0.096343
C13	C	0.707784	0.129166	0.277534
C14	C	0.598846	0.127475	0.266373
C15	C	0.613058	0.140334	0.062861
C16	C	0.721996	0.142024	0.074022
C17	C	0.769355	0.136439	0.181362
C18	C	0.878295	0.138122	0.192522
C19	C	0.892505	0.150988	-0.010989
C20	C	0.783567	0.149297	-0.022150
C21	C	1.234460	-0.050271	0.126530
C22	C	1.220970	-0.165320	0.125150
C23	C	1.383136	-0.406623	0.141794
C24	C	1.370466	-0.514722	0.140498
C25	C	1.182961	-0.489620	0.121268
C26	C	1.195631	-0.381521	0.122564
C27	C	1.295722	-0.340026	0.132826
C28	C	1.308391	-0.231925	0.134115
C29	C	1.120887	-0.206825	0.114893
C30	C	1.108217	-0.314924	0.113596
C31	C	1.435537	0.131258	0.147149
C32	C	1.551479	0.133057	0.159040
C33	C	1.256893	0.328727	0.128845
C34	C	1.270382	0.443775	0.130233
N35	N	1.266004	0.157618	-0.163127
C36	C	1.347832	0.231516	-0.332233
C37	C	1.339596	0.224092	-0.214740
C38	C	1.200642	0.098566	-0.229017
C39	C	1.208879	0.105989	-0.346511
C40	C	1.282477	0.172465	-0.398114
C41	C	1.290719	0.179882	-0.515609
C42	C	1.151761	0.054362	-0.529885
C43	C	1.143524	0.046939	-0.412392
N44	N	1.225357	0.120830	0.418501
H45	H	0.942648	0.156908	-0.089300
Br46	Br	1.518971	-0.350301	0.155687
H47	H	1.098543	0.006279	-0.583538
H48	H	1.049708	-0.152589	0.107581
Br49	Br	1.489104	-0.605102	0.152677
H50	H	1.140716	0.044450	-0.186982
H51	H	1.101471	-0.523425	0.112925
Br52	Br	0.942568	0.130535	0.338195
Br53	Br	1.444227	-0.175610	0.148030
H54	H	1.392813	0.272180	-0.161103
Br55	Br	1.447728	0.321713	-0.402271
H56	H	1.083599	-0.007182	-0.370360
H57	H	1.026725	-0.348724	0.105245
Br58	Br	0.772063	0.121567	0.423204
H59	H	0.548718	0.121556	0.344686
H60	H	0.574478	0.144891	-0.024530
Br61	Br	0.719284	0.156885	-0.167818
H62	H	1.350648	0.234008	-0.557622
