data_functionalizedCrystal
_audit_creation_method	'MofGen! by Chris Wilmer'
_symmetry_space_group_name_H-M	'P1'
_symmetry_Int_Tables_number	1
_symmetry_cell_setting	triclinic
loop_
_symmetry_equiv_pos_as_xyz
  x,y,z
_cell_length_a	16.625547
_cell_length_b	25.639240
_cell_length_c	16.625539
_cell_angle_alpha	89.961562
_cell_angle_beta	89.975178
_cell_angle_gamma	90.032694
loop_
_atom_site_label
_atom_site_type_symbol
_atom_site_fract_x
_atom_site_fract_y
_atom_site_fract_z
Zn1	Zn	1.232623	-0.208151	-0.455944
Zn2	Zn	1.232502	-0.295589	-0.321087
Zn3	Zn	1.097785	-0.208169	-0.321115
Zn4	Zn	1.097731	-0.295557	-0.455867
O5	O	1.165160	-0.251866	-0.388503
O6	O	1.345439	-0.219755	-0.438076
O7	O	1.214603	-0.284013	-0.208259
O8	O	1.115744	-0.135001	-0.339043
O9	O	1.345350	-0.283995	-0.338997
O10	O	1.214809	-0.134988	-0.438102
O11	O	1.115627	-0.219786	-0.208279
O12	O	0.984945	-0.219755	-0.338969
O13	O	1.115653	-0.283941	-0.568710
O14	O	0.984906	-0.283959	-0.437971
O15	O	1.214757	-0.219724	-0.568766
O16	O	1.214551	-0.368750	-0.338923
O17	O	1.115535	-0.368726	-0.437945
C18	C	0.955669	-0.251856	-0.388465
C19	C	0.866048	-0.251864	-0.388468
C20	C	0.793266	-0.251865	-0.388478
C21	C	0.701957	-0.251868	-0.388498
C22	C	0.629181	-0.251873	-0.388519
C23	C	0.537866	-0.251877	-0.388538
C24	C	1.165046	-0.387709	-0.388440
C25	C	1.165071	-0.445823	-0.388440
C26	C	1.216769	-0.806140	-0.440176
C27	C	1.216793	-0.860745	-0.440193
O28	O	1.260612	-0.888943	-0.484116
N29	N	1.165272	-0.888105	-0.388581
C30	C	1.113718	-0.860859	-0.336956
O31	O	1.069898	-0.889145	-0.293059
C32	C	1.113691	-0.806255	-0.336944
C33	C	1.165221	-0.778898	-0.388553
C34	C	1.268294	-0.778783	-0.491782
C35	C	1.268271	-0.724182	-0.491764
C36	C	1.216723	-0.696939	-0.440141
C37	C	1.165198	-0.724297	-0.388536
C38	C	1.062134	-0.779010	-0.285324
C39	C	1.062111	-0.724403	-0.285317
C40	C	1.113641	-0.697045	-0.336926
C41	C	1.113627	-0.642454	-0.336895
N42	N	1.165148	-0.615093	-0.388506
C43	C	1.216696	-0.642336	-0.440129
C44	C	1.113778	-0.975529	-0.336986
C45	C	1.113809	-1.030132	-0.336993
C46	C	1.216883	-1.030014	-0.440230
C47	C	1.216855	-0.975411	-0.440219
C48	C	1.165299	-0.948169	-0.388597
C49	C	1.216644	-0.527671	-0.440088
C50	C	1.216619	-0.473066	-0.440063
C51	C	1.113543	-0.473188	-0.336829
C52	C	1.113571	-0.527789	-0.336850
C53	C	1.165124	-0.555029	-0.388486
O54	O	1.069827	-0.614221	-0.292997
O55	O	1.260502	-0.614043	-0.484027
C56	C	1.375469	-0.251877	-0.388542
C57	C	1.465090	-0.251881	-0.388559
C58	C	1.165212	-0.251827	-0.598812
C59	C	1.165235	-0.251811	-0.688434
C60	C	1.165296	-0.115493	-0.388584
C61	C	1.165354	-0.057379	-0.388619
C62	C	1.165272	-0.251752	-1.016609
C63	C	1.165259	-0.251770	-0.925301
C64	C	1.165254	-0.251782	-0.852524
C65	C	1.165240	-0.251799	-0.761210
C66	C	1.165154	-0.251867	-0.179013
C67	C	1.165288	-0.251737	-0.089392
H68	H	1.258584	-0.450793	-0.482089
Cl69	Cl	1.048743	-0.438930	-0.271935
H70	H	1.258854	-1.052205	-0.482266
H71	H	1.258618	-0.549843	-0.482140
Cl72	Cl	1.333048	-0.689798	-0.556654
H73	H	1.310270	-0.800958	-0.533824
H74	H	1.258815	-0.953139	-0.482244
H75	H	1.020173	-0.801275	-0.243298
H76	H	1.071857	-1.052402	-0.294959
Cl77	Cl	1.048964	-0.941288	-0.272077
Cl78	Cl	0.997293	-0.690159	-0.220416
Cl79	Cl	1.048800	-0.562182	-0.271959
