data_functionalizedCrystal
_audit_creation_method	'MofGen! by Chris Wilmer'
_symmetry_space_group_name_H-M	'P1'
_symmetry_Int_Tables_number	1
_symmetry_cell_setting	triclinic
loop_
_symmetry_equiv_pos_as_xyz
  x,y,z
_cell_length_a	12.996460
_cell_length_b	14.519709
_cell_length_c	14.519731
_cell_angle_alpha	96.315501
_cell_angle_beta	89.992872
_cell_angle_gamma	89.999966
loop_
_atom_site_label
_atom_site_type_symbol
_atom_site_fract_x
_atom_site_fract_y
_atom_site_fract_z
O1	O	-0.085435	-1.223878	0.120892
O2	O	0.164565	-0.973878	0.370892
O3	O	0.414565	-0.723878	0.620892
O4	O	0.664565	-0.473878	0.870892
O5	O	-0.085467	-0.955402	0.135128
O6	O	0.164533	-0.705402	0.385128
O7	O	0.414533	-0.455402	0.635128
O8	O	0.664533	-0.205402	0.885128
O9	O	-0.085441	-1.096748	-0.006227
O10	O	0.164559	-0.846748	0.243773
O11	O	0.414559	-0.596748	0.493773
O12	O	0.664559	-0.346748	0.743773
O13	O	-0.085461	-1.082532	0.262247
O14	O	0.164539	-0.832532	0.512247
O15	O	0.414539	-0.582532	0.762247
O16	O	0.664539	-0.332532	1.012247
O17	O	0.085693	-1.096733	-0.006235
O18	O	0.335693	-0.846733	0.243765
O19	O	0.585693	-0.596733	0.493765
O20	O	0.835693	-0.346733	0.743765
O21	O	0.085667	-0.955387	0.135120
O22	O	0.335667	-0.705387	0.385120
O23	O	0.585667	-0.455387	0.635120
O24	O	0.835667	-0.205387	0.885120
O25	O	0.085699	-1.223863	0.120884
O26	O	0.335699	-0.973863	0.370884
O27	O	0.585699	-0.723863	0.620884
O28	O	0.835699	-0.473863	0.870884
Cu29	Cu	0.101309	-1.089624	0.128001
Cu30	Cu	0.351309	-0.839624	0.378001
Cu31	Cu	0.601309	-0.589624	0.628001
Cu32	Cu	0.851309	-0.339624	0.878001
Cu33	Cu	-0.101077	-1.089641	0.128011
Cu34	Cu	0.148923	-0.839641	0.378011
Cu35	Cu	0.398923	-0.589641	0.628011
Cu36	Cu	0.648923	-0.339641	0.878011
O37	O	0.085673	-1.082517	0.262239
O38	O	0.335673	-0.832517	0.512239
O39	O	0.585673	-0.582517	0.762239
O40	O	0.835673	-0.332517	1.012239
C41	C	0.000096	-0.921035	0.134461
C42	C	0.250096	-0.671035	0.384461
C43	C	0.500096	-0.421035	0.634461
C44	C	0.750096	-0.171035	0.884461
C45	C	0.000084	-0.818654	0.132473
C46	C	0.250084	-0.568654	0.382473
C47	C	0.500084	-0.318654	0.632473
C48	C	0.750084	-0.068654	0.882473
C49	C	0.000126	-1.096075	-0.040591
C50	C	0.250126	-0.846075	0.209409
C51	C	0.500126	-0.596075	0.459409
C52	C	0.750126	-0.346075	0.709409
C53	C	0.000127	-1.094079	-0.142971
C54	C	0.250127	-0.844079	0.107029
C55	C	0.500127	-0.594079	0.357029
C56	C	0.750127	-0.344079	0.607029
N57	N	0.243656	-1.089618	0.127994
N58	N	0.493656	-0.839618	0.377994
N59	N	0.743656	-0.589618	0.627994
N60	N	0.993656	-0.339618	0.877994
N61	N	-0.243424	-1.089654	0.128010
N62	N	0.006576	-0.839654	0.378010
N63	N	0.256576	-0.589654	0.628010
N64	N	0.506576	-0.339654	0.878010
C65	C	0.663470	-1.089640	0.128012
C66	C	0.913470	-0.839640	0.378012
C67	C	1.163470	-0.589640	0.628012
C68	C	1.413470	-0.339640	0.878012
C69	C	0.546665	-1.089631	0.128010
C70	C	0.796665	-0.839631	0.378010
C71	C	1.046665	-0.589631	0.628010
C72	C	1.296665	-0.339631	0.878010
C73	C	0.453567	-1.089630	0.128004
C74	C	0.703567	-0.839630	0.378004
C75	C	0.953567	-0.589630	0.628004
C76	C	1.203567	-0.339630	0.878004
C77	C	0.336754	-1.089620	0.128001
C78	C	0.586754	-0.839620	0.378001
C79	C	0.836754	-0.589620	0.628001
C80	C	1.086754	-0.339620	0.878001
C81	C	0.000133	-1.258230	0.121551
C82	C	0.250133	-1.008230	0.371551
C83	C	0.500133	-0.758230	0.621551
C84	C	0.750133	-0.508230	0.871551
C85	C	0.000138	-1.360612	0.123539
C86	C	0.250138	-1.110612	0.373539
C87	C	0.500138	-0.860612	0.623539
C88	C	0.750138	-0.610612	0.873539
C89	C	0.000132	-0.443757	0.125153
C90	C	0.250132	-0.193757	0.375153
C91	C	0.500132	0.056243	0.625153
C92	C	0.750132	0.306243	0.875153
C93	C	0.000118	-0.548065	0.127186
C94	C	0.250118	-0.298065	0.377186
C95	C	0.500118	-0.048065	0.627186
C96	C	0.750118	0.201935	0.877186
C97	C	0.000107	-0.631202	0.128813
C98	C	0.250107	-0.381202	0.378813
C99	C	0.500107	-0.131202	0.628813
C100	C	0.750107	0.118798	0.878813
C101	C	0.000095	-0.735517	0.130846
C102	C	0.250095	-0.485517	0.380846
C103	C	0.500095	-0.235517	0.630846
C104	C	0.750095	0.014483	0.880846
C105	C	0.000124	-1.092457	-0.226115
C106	C	0.250124	-0.842457	0.023885
C107	C	0.500124	-0.592457	0.273885
C108	C	0.750124	-0.342457	0.523885
C109	C	0.000116	-1.090430	-0.330424
C110	C	0.250116	-0.840430	-0.080424
C111	C	0.500116	-0.590430	0.169576
C112	C	0.750116	-0.340430	0.419576
C113	C	0.000109	-1.088822	-0.413563
C114	C	0.250109	-0.838822	-0.163563
C115	C	0.500109	-0.588822	0.086437
C116	C	0.750109	-0.338822	0.336437
C117	C	0.000103	-1.086795	-0.517878
C118	C	0.250103	-0.836795	-0.267878
C119	C	0.500103	-0.586795	-0.017878
C120	C	0.750103	-0.336795	0.232122
C121	C	0.000103	-1.083191	0.296603
C122	C	0.250103	-0.833191	0.546603
C123	C	0.500103	-0.583191	0.796603
C124	C	0.750103	-0.333191	1.046603
C125	C	0.000096	-1.085187	0.398983
C126	C	0.250096	-0.835187	0.648983
C127	C	0.500096	-0.585187	0.898983
C128	C	0.750096	-0.335187	1.148983
