data_functionalizedCrystal
_audit_creation_method	'MofGen! by Chris Wilmer'
_symmetry_space_group_name_H-M	'P1'
_symmetry_Int_Tables_number	1
_symmetry_cell_setting	triclinic
loop_
_symmetry_equiv_pos_as_xyz
  x,y,z
_cell_length_a	20.875641
_cell_length_b	21.606444
_cell_length_c	21.606444
_cell_angle_alpha	60.001331
_cell_angle_beta	90.000582
_cell_angle_gamma	57.588303
loop_
_atom_site_label
_atom_site_type_symbol
_atom_site_fract_x
_atom_site_fract_y
_atom_site_fract_z
Zr1	Zr	0.641466	0.632027	-0.058501
O2	O	0.535135	0.768679	-0.161086
O3	O	0.674063	0.500599	-0.027056
O4	O	0.674054	0.629723	-0.156174
O5	O	0.535149	0.639550	0.069887
O6	O	0.783635	0.621963	-0.152296
O7	O	0.535144	0.639554	-0.031967
O8	O	0.783650	0.390983	0.078673
O9	O	0.535134	0.870530	-0.161083
O10	O	0.769743	0.546931	-0.010747
O11	O	0.687968	0.552718	0.062372
O12	O	0.687958	0.704746	-0.089649
O13	O	0.606183	0.710533	-0.016530
Zr14	Zr	0.816243	0.619643	0.110130
Zr15	Zr	0.816234	0.619651	-0.052316
Zr16	Zr	0.641475	0.632019	0.103945
Zr17	Zr	0.641464	0.794467	-0.058495
Zr18	Zr	0.816245	0.457203	0.110125
O19	O	0.783646	0.751071	0.078685
O20	O	0.783634	0.751082	-0.152292
O21	O	0.535148	0.768668	0.069891
O22	O	0.922574	0.482991	0.212715
O23	O	0.922561	0.483001	-0.018262
O24	O	0.674075	0.500588	0.203922
O25	O	0.922560	0.612120	-0.018258
O26	O	0.783655	0.621946	0.207804
O27	O	0.674074	0.629706	0.203926
O28	O	0.922565	0.612115	0.083597
O29	O	0.674052	0.860692	-0.156167
O30	O	0.783657	0.390977	0.207796
O31	O	0.922575	0.381140	0.212712
O32	O	0.922568	0.381146	0.083589
O33	O	0.535141	0.870524	-0.031960
O34	O	0.674059	0.860686	-0.027044
O35	O	0.769751	0.546924	0.141278
O36	O	0.851526	0.541136	0.068160
O37	O	0.769741	0.698951	-0.010742
O38	O	0.687966	0.704739	0.062376
C39	C	0.728857	0.422647	0.025808
C40	C	0.728858	0.353686	0.025806
C41	C	0.771541	0.318268	-0.012362
C42	C	0.771544	0.253468	-0.012357
C43	C	0.728858	0.224092	0.025812
C44	C	0.686173	0.259513	0.063986
C45	C	0.686175	0.324307	0.063984
C46	C	0.686163	-0.001795	0.063991
C47	C	0.686162	-0.066592	0.063988
C48	C	0.771532	-0.072635	-0.012350
C49	C	0.771535	-0.007841	-0.012351
C50	C	0.728853	0.027571	0.025825
C51	C	0.728852	0.097834	0.025820
C52	C	0.728854	0.153835	0.025813
C53	C	0.510246	0.641315	0.018079
C54	C	0.436052	0.646569	0.015453
C55	C	0.443884	0.566662	0.055401
C56	C	0.374168	0.571604	0.052933
C57	C	0.296621	0.656454	0.010511
C58	C	0.288790	0.736367	-0.029439
C59	C	0.358505	0.731425	-0.026965
C60	C	0.083542	0.680071	-0.001300
C61	C	0.013825	0.685008	-0.003772
C62	C	0.099208	0.520243	0.078601
C63	C	0.168920	0.515308	0.081067
C64	C	0.161084	0.595221	0.041121
N65	N	0.225359	0.661508	0.007984
N66	N	0.232345	0.590167	0.043652
C67	C	0.947463	0.610354	0.033551
C68	C	1.021657	0.605100	0.036176
C69	C	0.728843	0.625844	-0.177380
C70	C	0.728840	0.625847	-0.246343
C71	C	0.728852	0.829023	0.025821
C72	C	0.728851	0.897983	0.025823
C73	C	0.686148	0.708225	-0.319927
C74	C	0.686155	0.708222	-0.384722
C75	C	0.728849	0.625841	-0.375931
C76	C	0.771546	0.543457	-0.302338
C77	C	0.771543	0.543461	-0.237545
C78	C	0.771559	0.543441	-0.563641
C79	C	0.771556	0.543444	-0.628442
C80	C	0.686171	0.708202	-0.710818
C81	C	0.686168	0.708206	-0.646025
C82	C	0.728868	0.625822	-0.572438
C83	C	0.728861	0.625826	-0.502181
C84	C	0.728852	0.625836	-0.446186
C85	C	0.728866	0.625825	0.229010
C86	C	0.728869	0.625822	0.297972
C87	C	0.947466	0.407166	0.033544
C88	C	1.021660	0.332952	0.036168
C89	C	0.728868	0.422637	0.229003
C90	C	0.728872	0.353674	0.297963
C91	C	0.947477	0.407157	0.236739
C92	C	1.021675	0.332939	0.308325
C93	C	0.510232	0.844513	-0.185110
C94	C	0.436034	0.918730	-0.256696
C95	C	0.510243	0.844503	0.018085
C96	C	0.436049	0.918718	0.015462
C97	C	0.728841	0.829032	-0.177374
C98	C	0.728837	0.897996	-0.246334
C99	C	1.013813	0.301125	-0.003796
C100	C	1.083520	0.231402	-0.001346
C101	C	1.161074	0.193503	0.041072
C102	C	1.168919	0.225337	0.081036
C103	C	1.099213	0.295063	0.078582
C104	C	0.771564	0.318263	0.371543
C105	C	0.771566	0.253474	0.436345
C106	C	0.728879	0.224092	0.427565
C107	C	0.686182	0.259509	0.353978
C108	C	0.686176	0.324302	0.289178
C109	C	1.099212	0.295064	0.303776
C110	C	1.168936	0.225338	0.371032
C111	C	1.161121	0.193483	0.442838
C112	C	1.083576	0.231365	0.447385
C113	C	1.013854	0.301094	0.380129
C114	C	0.358497	0.956613	-0.252146
C115	C	0.288773	1.026360	-0.319403
C116	C	0.296588	1.058218	-0.391208
C117	C	0.374133	1.020332	-0.395756
C118	C	0.443855	0.950591	-0.328500
C119	C	0.443896	0.950551	0.055418
C120	C	0.374189	1.020292	0.052951
C121	C	0.296635	1.058193	0.010531
C122	C	0.288790	1.026356	-0.029431
C123	C	0.358496	0.956621	-0.026967
C124	C	0.771531	0.927357	-0.237530
C125	C	0.771543	0.992146	-0.302319
C126	C	0.728855	1.027577	-0.375911
C127	C	0.686158	0.998210	-0.384714
C128	C	0.686152	0.933417	-0.319926
H129	H	0.806289	-0.101478	-0.043433
H130	H	0.651403	1.027068	-0.444642
C131	C	1.074871	0.196391	-0.045305
N132	N	1.068355	0.170020	-0.078412
C133	C	1.107859	0.330056	0.122556
N134	N	1.114377	0.356408	0.155681
H135	H	0.651381	0.909520	-0.327105
C136	C	1.254228	0.183672	0.366013
N137	N	1.318468	0.152290	0.362229
H138	H	0.806301	0.224629	-0.043436
H139	H	0.239883	1.114975	0.008531
H140	H	0.806290	0.016078	-0.043435
H141	H	0.506988	0.919747	-0.332213
C142	C	0.818522	0.452817	-0.482703
N143	N	0.853895	0.384555	-0.421736
H144	H	1.077225	0.205418	0.505858
H145	H	1.232073	0.194470	0.115571
H146	H	0.806325	0.342178	0.378707
H147	H	0.651414	0.353125	0.229268
H148	H	0.507038	0.919697	0.089966
H149	H	0.225639	1.057195	-0.315685
C150	C	0.818547	0.214517	0.517284
N151	N	0.853936	0.185175	0.578246
C152	C	0.818509	1.024442	-0.292618
N153	N	0.853884	1.048766	-0.285310
H154	H	0.225636	1.057226	-0.063968
H155	H	0.239809	1.115006	-0.445966
H156	H	0.651422	0.235586	0.095068
H157	H	0.728890	0.171333	0.480336
H158	H	0.232059	0.446214	0.115597
H159	H	0.651401	-0.090508	0.095072
H160	H	0.352095	0.930705	-0.059503
C161	C	0.639242	0.037120	0.106015
N162	N	0.603910	0.066422	0.137681
C163	C	0.639220	0.363268	0.105972
N164	N	0.603853	0.392610	0.137601
H165	H	0.651427	0.235577	0.346840
C166	C	0.818501	0.888389	-0.156583
N167	N	0.853885	0.859037	-0.095616
C168	C	0.349886	0.819329	-0.070914
N169	N	0.343392	0.885542	-0.104017
C170	C	0.382790	0.483699	0.096866
N171	N	0.389287	0.417485	0.129954
C172	C	0.818529	0.452814	-0.618764
N173	N	0.853907	0.384555	-0.611477
C174	C	0.382716	1.055379	-0.474750
N175	N	0.389178	1.081772	-0.534250
C176	C	0.074911	0.767978	-0.045256
N177	N	0.068411	0.834195	-0.078370
H178	H	1.105591	0.320990	0.245315
H179	H	0.728866	1.080335	-0.428659
C180	C	0.382838	1.055292	0.096921
N181	N	0.389354	1.081650	0.130041
H182	H	1.217900	0.136704	0.497596
H183	H	0.806297	0.342185	-0.043448
C184	C	0.818508	0.452838	-0.292669
N185	N	0.853877	0.384581	-0.285385
H186	H	0.507023	0.497567	0.089949
H187	H	0.105579	0.455183	0.111124
H188	H	-0.049319	0.754107	-0.038321
H189	H	0.225645	0.805454	-0.063976
H190	H	0.651377	0.775309	-0.327095
H191	H	0.651394	0.775301	-0.444636
C192	C	0.639208	0.798826	-0.791770
N193	N	0.603836	0.867082	-0.852741
H194	H	0.651399	0.775289	-0.653190
H195	H	0.950671	0.331981	-0.038346
C196	C	0.818505	0.452840	-0.156599
N197	N	0.853879	0.384581	-0.095630
H198	H	1.217826	0.136728	0.043064
H199	H	0.950722	0.331924	0.383844
H200	H	0.352118	0.930679	-0.193685
