data_functionalizedCrystal
_audit_creation_method	'MofGen! by Chris Wilmer'
_symmetry_space_group_name_H-M	'P1'
_symmetry_Int_Tables_number	1
_symmetry_cell_setting	triclinic
loop_
_symmetry_equiv_pos_as_xyz
  x,y,z
_cell_length_a	23.532355
_cell_length_b	23.532407
_cell_length_c	13.596369
_cell_angle_alpha	89.985528
_cell_angle_beta	90.000488
_cell_angle_gamma	82.838123
loop_
_atom_site_label
_atom_site_type_symbol
_atom_site_fract_x
_atom_site_fract_y
_atom_site_fract_z
O1	O	0.755279	0.068995	-0.081676
O2	O	1.255279	0.568995	0.418324
O3	O	0.589412	0.079029	-0.081709
O4	O	1.089412	0.579029	0.418291
O5	O	0.677347	-0.008921	-0.081664
O6	O	1.177347	0.491079	0.418336
O7	O	0.667344	0.156945	-0.081721
O8	O	1.167344	0.656945	0.418279
O9	O	0.677339	-0.008925	0.081919
O10	O	1.177339	0.491075	0.581919
O11	O	0.589403	0.079025	0.081874
O12	O	1.089403	0.579025	0.581874
O13	O	0.755271	0.068990	0.081907
O14	O	1.255271	0.568990	0.581907
Zn15	Zn	0.672335	0.074007	0.107863
Zn16	Zn	1.172335	0.574007	0.607863
Zn17	Zn	0.672347	0.074013	-0.107665
Zn18	Zn	1.172347	0.574013	0.392335
O19	O	0.667335	0.156940	0.081862
O20	O	1.167335	0.656940	0.581862
C21	C	0.568191	0.078776	0.000078
C22	C	1.068191	0.578776	0.500078
C23	C	0.504972	0.078022	0.000067
C24	C	1.004972	0.578022	0.500067
C25	C	0.112954	0.073281	0.089278
C26	C	0.612954	0.573281	0.589278
C27	C	0.053554	0.072564	0.089282
C28	C	0.553554	0.572564	0.589282
O29	O	0.022832	0.072171	0.165116
O30	O	0.522832	0.572171	0.665116
N31	N	0.023850	0.072211	0.000114
N32	N	0.523850	0.572211	0.500114
C33	C	0.053550	0.072569	-0.089065
C34	C	0.553550	0.572569	0.410935
O35	O	0.022830	0.072202	-0.164909
O36	O	0.522830	0.572202	0.335091
C37	C	0.112949	0.073282	-0.089068
C38	C	0.612949	0.573282	0.410932
C39	C	0.142649	0.073641	0.000107
C40	C	0.642649	0.573641	0.500107
C41	C	0.142654	0.073640	0.178446
C42	C	0.642654	0.573640	0.678446
C43	C	0.202049	0.074358	0.178441
C44	C	0.702049	0.574358	0.678441
C45	C	0.231744	0.074718	0.089270
C46	C	0.731744	0.574718	0.589270
C47	C	0.202044	0.074360	0.000102
C48	C	0.702044	0.574360	0.500102
C49	C	0.142648	0.073637	-0.178245
C50	C	0.642648	0.573637	0.321755
C51	C	0.202051	0.074350	-0.178240
C52	C	0.702051	0.574350	0.321760
C53	C	0.231751	0.074709	-0.089066
C54	C	0.731751	0.574709	0.410934
C55	C	0.291134	0.075439	-0.089074
C56	C	0.791134	0.575439	0.410926
N57	N	0.320838	0.075792	0.000095
N58	N	0.820838	0.575792	0.500095
C59	C	0.291143	0.075432	0.089267
C60	C	0.791143	0.575432	0.589267
C61	C	-0.071192	0.071070	-0.089051
C62	C	0.428808	0.571070	0.410949
C63	C	-0.130590	0.070361	-0.089049
C64	C	0.369410	0.570361	0.410951
C65	C	-0.130581	0.070355	0.089298
C66	C	0.369419	0.570355	0.589298
C67	C	-0.071183	0.071068	0.089295
C68	C	0.428817	0.571068	0.589295
C69	C	-0.041488	0.071423	0.000117
C70	C	0.458512	0.571423	0.500117
C71	C	0.415877	0.076941	0.089251
C72	C	0.915877	0.576941	0.589251
C73	C	0.475277	0.077662	0.089238
C74	C	0.975277	0.577662	0.589238
C75	C	0.475264	0.077665	-0.089109
C76	C	0.975264	0.577665	0.410891
C77	C	0.415868	0.076947	-0.089097
C78	C	0.915868	0.576947	0.410903
C79	C	0.386177	0.076583	0.000091
C80	C	0.886177	0.576583	0.500091
O81	O	0.321895	0.075829	-0.164869
O82	O	0.821895	0.575829	0.335131
O83	O	0.321871	0.075791	0.165098
O84	O	0.821871	0.575791	0.665098
C85	C	0.677088	-0.030139	0.000133
C86	C	1.177088	0.469861	0.500133
C87	C	0.676322	-0.093356	0.000147
C88	C	1.176322	0.406644	0.500147
C89	C	0.621125	-0.359513	0.000075
C90	C	1.121125	0.140487	0.500075
C91	C	0.621837	-0.300113	0.000082
C92	C	1.121837	0.199887	0.500082
O93	O	0.578050	-0.263360	0.000042
O94	O	1.078050	0.236640	0.500042
N95	N	0.674114	-0.277496	0.000104
N96	N	1.174114	0.222504	0.500104
C97	C	0.725684	-0.314283	0.000109
C98	C	1.225684	0.185717	0.500109
O99	O	0.770216	-0.289592	0.000127
O100	O	1.270216	0.210408	0.500127
C101	C	0.724972	-0.373682	0.000094
C102	C	1.224972	0.126318	0.500094
C103	C	0.672691	-0.396295	0.000082
C104	C	1.172691	0.103705	0.500082
C105	C	0.568849	-0.382126	0.000062
C106	C	1.068849	0.117874	0.500062
C107	C	0.568137	-0.441522	0.000056
C108	C	1.068137	0.058478	0.500056
C109	C	0.619703	-0.478305	0.000063
C110	C	1.119703	0.021695	0.500063
C111	C	0.671980	-0.455691	0.000076
C112	C	1.171980	0.044309	0.500076
C113	C	0.776541	-0.410468	0.000091
C114	C	1.276541	0.089532	0.500091
C115	C	0.775824	-0.469871	0.000076
C116	C	1.275824	0.030129	0.500076
C117	C	0.723543	-0.492484	0.000064
C118	C	1.223543	0.007516	0.500064
C119	C	0.722834	-0.551870	0.000077
C120	C	1.222834	-0.051870	0.500077
N121	N	0.670556	-0.574486	0.000055
N122	N	1.170556	-0.074486	0.500055
C123	C	0.618991	-0.537704	0.000048
C124	C	1.118991	-0.037704	0.500048
C125	C	0.727175	-0.189541	0.000138
C126	C	1.227175	0.310459	0.500138
C127	C	0.727888	-0.130143	0.000160
C128	C	1.227888	0.369857	0.500160
C129	C	0.624041	-0.115977	0.000132
C130	C	1.124041	0.384023	0.500132
C131	C	0.623329	-0.175376	0.000117
C132	C	1.123329	0.324624	0.500117
C133	C	0.674898	-0.212158	0.000116
C134	C	1.174898	0.287842	0.500116
C135	C	0.617501	-0.662440	0.000037
C136	C	1.117501	-0.162440	0.500037
C137	C	0.616795	-0.721842	0.000035
C138	C	1.116795	-0.221842	0.500035
C139	C	0.720642	-0.736004	0.000058
C140	C	1.220642	-0.236004	0.500058
C141	C	0.721349	-0.676607	0.000065
C142	C	1.221349	-0.176607	0.500065
C143	C	0.669774	-0.639826	0.000051
C144	C	1.169774	-0.139826	0.500051
O145	O	0.766598	-0.588657	0.000113
O146	O	1.266598	-0.088657	0.500113
O147	O	0.574467	-0.562403	0.000017
O148	O	1.074467	-0.062403	0.500017
C149	C	0.776492	0.069244	0.000118
C150	C	1.276492	0.569244	0.500118
C151	C	0.839710	0.069998	0.000123
C152	C	1.339710	0.569998	0.500123
C153	C	0.667594	0.178158	0.000063
C154	C	1.167594	0.678158	0.500063
C155	C	0.668360	0.241375	0.000042
C156	C	1.168360	0.741375	0.500042
N157	N	0.672332	0.074002	0.254955
N158	N	1.172332	0.574002	0.754955
N159	N	0.672355	0.074013	-0.254757
N160	N	1.172355	0.574013	0.245243
C161	C	0.672346	0.074013	0.656246
C162	C	1.172346	0.574013	1.156246
C163	C	0.672340	0.074012	0.544594
C164	C	1.172340	0.574012	1.044594
C165	C	0.672339	0.074008	0.455604
C166	C	1.172339	0.574008	0.955604
C167	C	0.672333	0.074006	0.343945
C168	C	1.172333	0.574006	0.843945
H169	H	-0.047018	0.071365	-0.161675
H170	H	0.452982	0.571365	0.338325
N171	N	0.828498	-0.507450	0.000070
N172	N	1.328498	-0.007450	0.500070
N173	N	0.839690	-0.542164	-0.068887
N174	N	1.339690	-0.042164	0.431113
H175	H	0.876889	-0.568704	-0.068889
H176	H	1.376889	-0.068704	0.431111
N177	N	0.232390	0.074720	-0.269328
N178	N	0.732390	0.574720	0.230672
N179	N	0.285423	0.075362	-0.269328
N180	N	0.785423	0.575362	0.230672
H181	H	0.306850	0.075626	-0.333657
H182	H	0.806850	0.575626	0.166343
N183	N	0.112328	0.073274	-0.269345
N184	N	0.612328	0.573274	0.230655
N185	N	0.138861	0.073593	-0.348947
N186	N	0.638861	0.573593	0.151053
H187	H	0.117449	0.073337	-0.413293
H188	H	0.617449	0.573337	0.086707
H189	H	0.526855	-0.352183	0.000052
H190	H	1.026855	0.147817	0.500052
N191	N	0.514734	-0.464617	0.000010
N192	N	1.014734	0.035383	0.500010
N193	N	0.502755	-0.496162	-0.068961
N194	N	1.002755	0.003838	0.431039
H195	H	0.465036	-0.512470	-0.068999
H196	H	0.965036	-0.012470	0.431001
N197	N	0.505615	0.078015	0.180333
N198	N	1.005615	0.578015	0.680333
N199	N	0.544240	0.038263	0.200246
N200	N	1.044240	0.538263	0.700246
H201	H	0.565665	0.038510	0.264580
H202	H	1.065665	0.538510	0.764580
N203	N	0.774756	-0.653514	0.000102
N204	N	1.274756	-0.153514	0.500102
N205	N	0.820792	-0.686365	0.000119
N206	N	1.320792	-0.186365	0.500119
H207	H	0.858513	-0.670060	0.000141
H208	H	1.358513	-0.170060	0.500141
H209	H	0.580757	-0.193783	0.000111
H210	H	1.080757	0.306217	0.500111
H211	H	0.391708	0.076650	0.161876
H212	H	0.891708	0.576650	0.661876
H213	H	0.499452	0.077961	-0.161710
H214	H	0.999452	0.577961	0.338290
N215	N	0.385535	0.076588	-0.180193
N216	N	0.885535	0.576588	0.319807
N217	N	0.412058	0.076911	-0.259803
N218	N	0.912058	0.576911	0.240197
H219	H	0.390640	0.076652	-0.324142
H220	H	0.890640	0.576652	0.175858
N221	N	0.571371	-0.078390	0.000105
N222	N	1.071371	0.421610	0.500105
N223	N	0.560197	-0.043651	-0.068851
N224	N	1.060197	0.456349	0.431149
H225	H	0.523002	-0.017103	-0.068871
H226	H	1.023002	0.482897	0.431129
N227	N	0.564826	-0.624866	0.000018
N228	N	1.064826	-0.124866	0.500018
N229	N	0.553635	-0.590127	-0.068933
N230	N	1.053635	-0.090127	0.431067
H231	H	0.516434	-0.563589	-0.068941
H232	H	1.016434	-0.063589	0.431059
H233	H	0.226226	0.074647	0.251056
H234	H	0.726226	0.574647	0.751056
N235	N	0.829951	-0.387389	0.000104
N236	N	1.329951	0.112611	0.500104
N237	N	0.875982	-0.420248	0.000101
N238	N	1.375982	0.079752	0.500101
H239	H	0.913706	-0.403951	0.000108
H240	H	1.413706	0.096049	0.500108
H241	H	0.574219	-0.740250	0.000030
H242	H	1.074219	-0.240250	0.500030
N243	N	0.781297	-0.107058	0.000195
N244	N	1.281297	0.392942	0.500195
N245	N	0.827331	-0.139913	0.000207
N246	N	1.327331	0.360087	0.500207
H247	H	0.865053	-0.123612	0.000228
H248	H	1.365053	0.376388	0.500228
N249	N	0.112336	0.073268	0.269549
N250	N	0.612336	0.573268	0.769549
N251	N	0.138873	0.073586	0.349148
N252	N	0.638873	0.573586	0.849148
H253	H	0.117465	0.073327	0.413497
H254	H	0.617465	0.573327	0.913497
N255	N	0.779861	-0.227103	0.000142
N256	N	1.279861	0.272897	0.500142
N257	N	0.826530	-0.206896	0.000162
N258	N	1.326530	0.293104	0.500162
H259	H	0.863740	-0.233421	0.000163
H260	H	1.363740	0.266579	0.500163
N261	N	-0.160922	0.069988	-0.180140
N262	N	0.339078	0.569988	0.319860
N263	N	-0.188580	0.029434	-0.200026
N264	N	0.311420	0.529434	0.299974
H265	H	-0.210000	0.029167	-0.264362
H266	H	0.290000	0.529167	0.235638
N267	N	0.773312	-0.773582	0.000082
N268	N	1.273312	-0.273582	0.500082
N269	N	0.784495	-0.808323	0.069033
N270	N	1.284495	-0.308323	0.569033
H271	H	0.821694	-0.834865	0.069046
H272	H	1.321694	-0.334865	0.569046
N273	N	-0.040857	0.071442	0.180392
N274	N	0.459143	0.571442	0.680392
N275	N	-0.067386	0.071128	0.259999
N276	N	0.432614	0.571128	0.759999
H277	H	-0.045972	0.071394	0.324341
H278	H	0.454028	0.571394	0.824341
H279	H	-0.154770	0.070060	0.161907
H280	H	0.345230	0.570060	0.661907
