data_functionalizedCrystal
_audit_creation_method	'MofGen! by Chris Wilmer'
_symmetry_space_group_name_H-M	'P1'
_symmetry_Int_Tables_number	1
_symmetry_cell_setting	triclinic
loop_
_symmetry_equiv_pos_as_xyz
  x,y,z
_cell_length_a	19.805407
_cell_length_b	25.639239
_cell_length_c	19.805399
_cell_angle_alpha	90.029281
_cell_angle_beta	90.019573
_cell_angle_gamma	90.039284
loop_
_atom_site_label
_atom_site_type_symbol
_atom_site_fract_x
_atom_site_fract_y
_atom_site_fract_z
Zn1	Zn	1.034675	-0.208163	0.382712
Zn2	Zn	1.534675	0.291837	0.882712
Zn3	Zn	1.034565	-0.295597	0.269520
Zn4	Zn	1.534565	0.204403	0.769520
Zn5	Zn	0.921490	-0.208177	0.269536
Zn6	Zn	1.421490	0.291823	0.769536
Zn7	Zn	0.921428	-0.295569	0.382667
Zn8	Zn	1.421428	0.204431	0.882667
O9	O	0.978039	-0.251877	0.326109
O10	O	1.478039	0.248123	0.826109
O11	O	1.129377	-0.219767	0.367709
O12	O	1.629377	0.280233	0.867709
O13	O	1.019545	-0.284018	0.174806
O14	O	1.519545	0.215982	0.674806
O15	O	0.936576	-0.135010	0.284575
O16	O	1.436576	0.364990	0.784575
O17	O	1.129296	-0.284004	0.284547
O18	O	1.629296	0.215996	0.784547
O19	O	1.019733	-0.135000	0.367724
O20	O	1.519733	0.365000	0.867724
O21	O	0.936469	-0.219791	0.174817
O22	O	1.436469	0.280209	0.674817
O23	O	0.826765	-0.219764	0.284531
O24	O	1.326765	0.280236	0.784531
O25	O	0.936471	-0.283957	0.477389
O26	O	1.436471	0.216043	0.977389
O27	O	0.826720	-0.283971	0.367648
O28	O	1.326720	0.216029	0.867648
O29	O	1.019673	-0.219740	0.477422
O30	O	1.519673	0.280260	0.977422
O31	O	1.019485	-0.368758	0.284504
O32	O	1.519485	0.131242	0.784504
O33	O	0.936363	-0.368738	0.367632
O34	O	1.436363	0.131262	0.867632
C35	C	0.802183	-0.251867	0.326087
C36	C	1.302183	0.248133	0.826087
C37	C	0.726951	-0.251875	0.326093
C38	C	1.226951	0.248125	0.826093
C39	C	0.691601	-0.285357	0.369302
C40	C	1.191601	0.214643	0.869302
C41	C	0.620913	-0.285358	0.369312
C42	C	1.120913	0.214642	0.869312
C43	C	0.585576	-0.251879	0.326109
C44	C	1.085576	0.248121	0.826109
C45	C	0.620931	-0.218393	0.282898
C46	C	1.120931	0.281607	0.782898
C47	C	0.691618	-0.218390	0.282892
C48	C	1.191618	0.281610	0.782892
C49	C	0.335858	-0.218404	0.282920
C50	C	0.835858	0.281596	0.782920
C51	C	0.265165	-0.218411	0.282928
C52	C	0.765165	0.281589	0.782928
C53	C	0.265152	-0.285373	0.369340
C54	C	0.765152	0.214627	0.869340
C55	C	0.335839	-0.285370	0.369334
C56	C	0.835839	0.214630	0.869334
C57	C	0.371188	-0.251882	0.326126
C58	C	0.871188	0.248118	0.826126
C59	C	0.447837	-0.251881	0.326117
C60	C	0.947837	0.248119	0.826117
C61	C	0.508929	-0.251883	0.326114
C62	C	1.008929	0.248117	0.826114
C63	C	0.977924	-0.387719	0.326076
C64	C	1.477924	0.112281	0.826076
C65	C	0.977936	-0.445833	0.326085
C66	C	1.477936	0.054167	0.826085
C67	C	0.934750	-0.697028	0.369380
C68	C	1.434750	-0.197028	0.869380
C69	C	0.934725	-0.642424	0.369372
C70	C	1.434725	-0.142424	0.869372
O71	O	0.897895	-0.614189	0.406161
O72	O	1.397895	-0.114189	0.906161
N73	N	0.978021	-0.615107	0.326120
N74	N	1.478021	-0.115107	0.826120
C75	C	1.021350	-0.642397	0.282878
C76	C	1.521350	-0.142397	0.782878
O77	O	1.058175	-0.614148	0.246088
O78	O	1.558175	-0.114148	0.746088
C79	C	1.021378	-0.697000	0.282890
C80	C	1.521378	-0.197000	0.782890
C81	C	0.978074	-0.724315	0.326140
C82	C	1.478074	-0.224315	0.826140
C83	C	0.891450	-0.724343	0.412627
C84	C	1.391450	-0.224343	0.912627
C85	C	0.891474	-0.778943	0.412634
C86	C	1.391474	-0.278943	0.912634
C87	C	0.934799	-0.806230	0.369393
C88	C	1.434799	-0.306230	0.869393
C89	C	0.978099	-0.778915	0.326146
C90	C	1.478099	-0.278915	0.826146
C91	C	1.064710	-0.724289	0.239652
C92	C	1.564710	-0.224289	0.739652
C93	C	1.064735	-0.778896	0.239667
C94	C	1.564735	-0.278896	0.739667
C95	C	1.021431	-0.806211	0.282917
C96	C	1.521431	-0.306211	0.782917
C97	C	1.021447	-0.860802	0.282913
C98	C	1.521447	-0.360802	0.782913
N99	N	0.978151	-0.888119	0.326165
N100	N	1.478151	-0.388119	0.826165
C101	C	0.934827	-0.860833	0.369405
C102	C	1.434827	-0.360833	0.869405
C103	C	1.021289	-0.527727	0.282857
C104	C	1.521289	-0.027727	0.782857
C105	C	1.021258	-0.473124	0.282842
C106	C	1.521258	0.026876	0.782842
C107	C	0.934634	-0.473155	0.369337
C108	C	1.434634	0.026845	0.869337
C109	C	0.934661	-0.527758	0.369349
C110	C	1.434661	-0.027758	0.869349
C111	C	0.977993	-0.555044	0.326109
C112	C	1.477993	-0.055044	0.826109
C113	C	0.934881	-0.975498	0.369416
C114	C	1.434881	-0.475498	0.869416
C115	C	0.934907	-1.030103	0.369417
C116	C	1.434907	-0.530103	0.869417
C117	C	1.021534	-1.030068	0.282924
C118	C	1.521534	-0.530068	0.782924
C119	C	1.021505	-0.975467	0.282921
C120	C	1.521505	-0.475467	0.782921
C121	C	0.978177	-0.948184	0.326172
C122	C	1.478177	-0.448184	0.826172
O123	O	1.058260	-0.889072	0.246145
O124	O	1.558260	-0.389072	0.746145
O125	O	0.898014	-0.889089	0.406195
O126	O	1.398014	-0.389089	0.906195
C127	C	1.154582	-0.251887	0.326131
C128	C	1.654582	0.248113	0.826131
C129	C	1.229814	-0.251891	0.326141
C130	C	1.729814	0.248109	0.826141
C131	C	0.978077	-0.251844	0.502651
C132	C	1.478077	0.248156	1.002651
C133	C	0.978093	-0.251830	0.577883
C134	C	1.478093	0.248170	1.077883
C135	C	0.978174	-0.115504	0.326156
C136	C	1.478174	0.384496	0.826156
C137	C	0.978231	-0.057389	0.326177
C138	C	1.478231	0.442611	0.826177
C139	C	0.978040	-0.251872	0.150253
C140	C	1.478040	0.248128	0.650253
C141	C	0.978155	-0.251738	0.075021
C142	C	1.478155	0.248262	0.575021
C143	C	1.021418	-0.218390	0.613246
C144	C	1.521418	0.281610	1.113246
C145	C	1.021425	-0.218375	0.683934
C146	C	1.521425	0.281625	1.183934
C147	C	0.978110	-0.251802	0.719259
C148	C	1.478110	0.248198	1.219259
C149	C	0.934781	-0.285243	0.683892
C150	C	1.434781	0.214757	1.183892
C151	C	0.934771	-0.285255	0.613205
C152	C	1.434771	0.214745	1.113205
C153	C	0.934819	-0.285194	0.968965
C154	C	1.434819	0.214806	1.468965
C155	C	0.934834	-0.285181	1.039657
C156	C	1.434834	0.214819	1.539657
C157	C	1.021473	-0.218314	1.039695
C158	C	1.521473	0.281686	1.539695
C159	C	1.021463	-0.218326	0.969008
C160	C	1.521463	0.281674	1.469008
C161	C	0.978132	-0.251765	0.933647
C162	C	1.478132	0.248235	1.433647
C163	C	0.978124	-0.251780	0.856998
C164	C	1.478124	0.248220	1.356998
C165	C	0.978121	-0.251790	0.795906
C166	C	1.478121	0.248210	1.295906
H167	H	0.364607	-0.312634	0.404512
H168	H	0.864607	0.187366	0.904512
C169	C	0.582031	-0.322202	0.416832
C170	C	1.082031	0.177798	0.916832
N171	N	0.552745	-0.349958	0.452622
N172	N	1.052745	0.150042	0.952622
H173	H	0.899403	-0.549994	0.404570
H174	H	1.399403	-0.049994	0.904570
C175	C	1.069185	-1.060093	0.235360
C176	C	1.569185	-0.560093	0.735360
N177	N	1.105079	-1.082710	0.199536
N178	N	1.605079	-0.582710	0.699536
C179	C	0.730503	-0.181557	0.235358
C180	C	1.230503	0.318443	0.735358
N181	N	0.759790	-0.153813	0.199555
N182	N	1.259790	0.346187	0.699555
H183	H	1.056513	-0.450889	0.247616
H184	H	1.556513	0.049111	0.747616
C185	C	1.112340	-0.694256	0.192063
C186	C	1.612340	-0.194256	0.692063
N187	N	1.148215	-0.671636	0.156214
N188	N	1.648215	-0.171636	0.656214
H189	H	0.236396	-0.191145	0.247747
H190	H	0.736396	0.308855	0.747747
C191	C	1.069131	-0.181524	1.078599
C192	C	1.569131	0.318476	1.578599
N193	N	1.105025	-0.153814	1.107900
N194	N	1.605025	0.346186	1.607900
H195	H	0.899511	-0.312458	0.712659
H196	H	1.399511	0.187542	1.212659
H197	H	0.899559	-0.312402	1.068417
H198	H	1.399559	0.187598	1.568417
H199	H	0.899357	-0.450929	0.404546
H200	H	1.399357	0.049071	0.904546
C201	C	0.843841	-0.808982	0.460217
C202	C	1.343841	-0.308982	0.960217
N203	N	0.807962	-0.831603	0.496062
N204	N	1.307962	-0.331603	0.996062
C205	C	1.069086	-0.181590	0.722830
C206	C	1.569086	0.318410	1.222830
N207	N	1.104987	-0.153881	0.752125
N208	N	1.604987	0.346119	1.252125
H209	H	1.056692	-0.191171	0.584490
H210	H	1.556692	0.308829	1.084490
H211	H	0.720367	-0.312622	0.404481
H212	H	1.220367	0.187378	0.904481
H213	H	1.056736	-0.191108	0.940250
H214	H	1.556736	0.308892	1.440250
H215	H	1.100023	-0.801109	0.204458
H216	H	1.600023	-0.301109	0.704458
C217	C	0.226262	-0.322207	0.416875
C218	C	0.726262	0.177793	0.916875
N219	N	0.196971	-0.349949	0.452677
N220	N	0.696971	0.150051	0.952677
C221	C	0.374732	-0.181570	0.235386
C222	C	0.874732	0.318430	0.735386
N223	N	0.404015	-0.153825	0.199580
N224	N	0.904015	0.346175	0.699580
H225	H	1.056760	-0.953227	0.247696
H226	H	1.556760	-0.453227	0.747696
C227	C	0.887151	-0.321977	0.930077
C228	C	1.387151	0.178023	1.430077
N229	N	0.851244	-0.349682	0.900784
N230	N	1.351244	0.150318	1.400784
C231	C	0.887112	-0.322042	0.574306
C232	C	1.387112	0.177958	1.074306
N233	N	0.851213	-0.349750	0.545009
N234	N	1.351213	0.150250	1.045009
H235	H	0.899642	-1.052340	0.404638
H236	H	1.399642	-0.552340	0.904638
C237	C	0.582058	-0.181564	0.235376
C238	C	1.082058	0.318436	0.735376
N239	N	0.552779	-0.153824	0.199579
N240	N	1.052779	0.346176	0.699579
H241	H	0.899599	-0.953290	0.404636
H242	H	1.399599	-0.453290	0.904636
H243	H	1.056573	-0.549939	0.247641
H244	H	1.556573	-0.049939	0.747641
C245	C	0.843799	-0.694336	0.460212
C246	C	1.343799	-0.194336	0.960212
N247	N	0.807906	-0.671739	0.496058
N248	N	1.307906	-0.171739	0.996058
