data_functionalizedCrystal
_audit_creation_method	'MofGen! by Chris Wilmer'
_symmetry_space_group_name_H-M	'P1'
_symmetry_Int_Tables_number	1
_symmetry_cell_setting	triclinic
loop_
_symmetry_equiv_pos_as_xyz
  x,y,z
_cell_length_a	18.215407
_cell_length_b	18.215405
_cell_length_c	18.215399
_cell_angle_alpha	90.027541
_cell_angle_beta	90.017368
_cell_angle_gamma	90.020175
loop_
_atom_site_label
_atom_site_type_symbol
_atom_site_fract_x
_atom_site_fract_y
_atom_site_fract_z
Zn1	Zn	1.125083	-0.293042	0.416070
Zn2	Zn	1.124996	-0.416113	0.293004
Zn3	Zn	1.002015	-0.293060	0.293022
Zn4	Zn	1.001986	-0.416066	0.416034
O5	O	1.063520	-0.354570	0.354533
O6	O	1.228056	-0.309380	0.399752
O7	O	1.108658	-0.399817	0.190022
O8	O	1.018389	-0.190073	0.309367
O9	O	1.227992	-0.399800	0.309336
O10	O	1.108807	-0.190060	0.399769
O11	O	1.018305	-0.309410	0.190035
O12	O	0.899027	-0.309364	0.309333
O13	O	1.018339	-0.399719	0.519023
O14	O	0.899006	-0.399736	0.399709
O15	O	1.108778	-0.309334	0.519049
O16	O	1.108630	-0.519091	0.309302
O17	O	1.018255	-0.519056	0.399692
C18	C	0.872314	-0.354548	0.354520
C19	C	0.790515	-0.354556	0.354532
C20	C	0.602353	-0.307571	0.401685
C21	C	0.525495	-0.307577	0.401688
C22	C	0.525439	-0.401590	0.307393
C23	C	0.602296	-0.401580	0.307387
C24	C	0.640751	-0.354571	0.354538
C25	C	0.487035	-0.354588	0.354546
C26	C	0.403702	-0.354595	0.354548
C27	C	0.724090	-0.354563	0.354534
C28	C	1.063450	-0.545777	0.354507
C29	C	1.063487	-0.627575	0.354521
C30	C	1.110589	-0.815702	0.401657
C31	C	1.110616	-0.892560	0.401671
C32	C	1.016542	-0.892687	0.307454
C33	C	1.016512	-0.815830	0.307444
C34	C	1.063540	-0.777339	0.354545
C35	C	1.063596	-0.931055	0.354568
C36	C	1.063625	-1.014389	0.354583
C37	C	1.063511	-0.694000	0.354531
C38	C	1.255473	-0.354593	0.354546
C39	C	1.337272	-0.354603	0.354552
C40	C	1.063565	-0.354519	0.546486
C41	C	1.063584	-0.354498	0.628284
C42	C	1.063611	-0.162617	0.354574
C43	C	1.063650	-0.080818	0.354592
C44	C	1.063518	-0.354568	0.163326
C45	C	1.063641	-0.354382	0.081528
C46	C	1.110692	-0.307390	0.816493
C47	C	1.110701	-0.307369	0.893352
C48	C	1.016528	-0.401492	0.893314
C49	C	1.016516	-0.401509	0.816456
C50	C	1.063602	-0.354459	0.778048
C51	C	1.063623	-0.354421	0.931764
C52	C	1.063632	-0.354398	1.015098
C53	C	1.063592	-0.354481	0.694709
H54	H	0.494119	-0.439864	0.269005
C55	C	1.161547	-0.773948	0.452923
C56	C	1.145465	-0.792598	0.525724
C57	C	1.192384	-0.754144	0.572975
H58	H	1.211033	-0.786481	0.442302
H59	H	1.154785	-0.722673	0.446220
H60	H	1.152233	-0.843862	0.532424
H61	H	1.095988	-0.780064	0.536368
H62	H	1.185623	-0.702869	0.566272
H63	H	1.241867	-0.766680	0.562347
H64	H	1.181475	-0.766788	0.622375
C65	C	0.644031	-0.452490	0.256105
C66	C	0.688131	-0.410753	0.208994
C67	C	0.726580	-0.457621	0.161738
H68	H	0.674078	-0.484599	0.284115
H69	H	0.610145	-0.480479	0.227985
H70	H	0.722012	-0.382776	0.237111
H71	H	0.658102	-0.378646	0.180968
H72	H	0.692695	-0.485610	0.133618
H73	H	0.756622	-0.489728	0.189753
H74	H	0.756501	-0.429309	0.129763
C75	C	0.644238	-0.256609	0.452842
C76	C	0.719766	-0.266671	0.442763
C77	C	0.758370	-0.219743	0.489882
H78	H	0.631737	-0.207121	0.442203
H79	H	0.631700	-0.267449	0.502287
H80	H	0.732299	-0.255827	0.393329
H81	H	0.732288	-0.316150	0.453407
H82	H	0.745832	-0.230583	0.539327
H83	H	0.745864	-0.170258	0.479239
H84	H	0.809620	-0.226568	0.483054
H85	H	1.149031	-0.269078	0.785223
H86	H	1.148927	-0.923792	0.440036
H87	H	1.149046	-0.269039	0.924651
C88	C	0.965535	-0.452667	0.935056
C89	C	1.007193	-0.499843	0.979158
C90	C	0.960245	-0.547005	1.017612
H91	H	0.933473	-0.424592	0.965102
H92	H	0.937499	-0.480745	0.901174
H93	H	1.035216	-0.471768	1.013036
H94	H	1.039253	-0.527934	0.949130
H95	H	0.932209	-0.575082	0.983730
H96	H	0.928185	-0.518924	1.047654
H97	H	0.988503	-0.579023	1.047535
C98	C	0.483938	-0.256522	0.452960
C99	C	0.534069	-0.215367	0.494261
C100	C	0.495814	-0.168332	0.541509
H101	H	0.453951	-0.224358	0.424950
H102	H	0.453976	-0.284702	0.485017
H103	H	0.564018	-0.187189	0.462208
H104	H	0.564057	-0.247512	0.522287
H105	H	0.465852	-0.196512	0.573566
H106	H	0.465829	-0.136173	0.513493
H107	H	0.529822	-0.140408	0.569542
C108	C	0.965572	-0.934611	0.256339
C109	C	0.975683	-1.010131	0.266414
C110	C	0.928751	-1.048773	0.219330
H111	H	0.916083	-0.922137	0.267013
H112	H	0.976378	-0.922077	0.206886
H113	H	0.964872	-1.022660	0.315856
H114	H	1.025162	-1.022628	0.255734
H115	H	0.939557	-1.036239	0.169876
H116	H	0.879264	-1.036292	0.230008
H117	H	0.935609	-1.100017	0.226154
C118	C	0.965546	-0.774078	0.256248
C119	C	1.007226	-0.729936	0.209126
C120	C	0.960301	-0.691457	0.161966
H121	H	0.937528	-0.807924	0.228124
H122	H	0.933464	-0.744062	0.284349
H123	H	1.039294	-0.759950	0.181026
H124	H	1.035242	-0.696077	0.237229
H125	H	0.928219	-0.661440	0.190067
H126	H	0.932285	-0.725307	0.133847
H127	H	0.988573	-0.661496	0.129992
C128	C	0.965359	-0.452698	0.774843
C129	C	0.924144	-0.493916	0.824927
C130	C	0.877020	-0.541081	0.786620
H131	H	0.933237	-0.424631	0.744860
H132	H	0.993478	-0.484810	0.744872
H133	H	0.896028	-0.461808	0.854885
H134	H	0.956247	-0.521998	0.854911
H135	H	0.905138	-0.573194	0.756649
H136	H	0.844903	-0.513009	0.756639
H137	H	0.849054	-0.569059	0.820596
