data_functionalizedCrystal
_audit_creation_method	'MofGen! by Chris Wilmer'
_symmetry_space_group_name_H-M	'P1'
_symmetry_Int_Tables_number	1
_symmetry_cell_setting	triclinic
loop_
_symmetry_equiv_pos_as_xyz
  x,y,z
_cell_length_a	12.759401
_cell_length_b	12.759399
_cell_length_c	12.759393
_cell_angle_alpha	90.030906
_cell_angle_beta	90.020616
_cell_angle_gamma	90.013265
loop_
_atom_site_label
_atom_site_type_symbol
_atom_site_fract_x
_atom_site_fract_y
_atom_site_fract_z
Zn1	Zn	-1.606263	0.418267	-0.594008
Zn2	Zn	-1.606153	0.593983	-0.418327
Zn3	Zn	-1.430562	0.418313	-0.418344
Zn4	Zn	-1.430553	0.593899	-0.593965
O5	O	-1.518383	0.506116	-0.506161
O6	O	-1.753270	0.441592	-0.570714
O7	O	-1.582818	0.570734	-0.271308
O8	O	-1.453919	0.271286	-0.441672
O9	O	-1.753189	0.570690	-0.441642
O10	O	-1.583006	0.271252	-0.570731
O11	O	-1.453812	0.441670	-0.271321
O12	O	-1.283540	0.441589	-0.441630
O13	O	-1.453903	0.570547	-0.740992
O14	O	-1.283533	0.570591	-0.570658
O15	O	-1.582997	0.441511	-0.741023
O16	O	-1.582809	0.740993	-0.441600
O17	O	-1.453796	0.740931	-0.570641
C18	C	-1.245415	0.506087	-0.506142
C19	C	-1.128639	0.506100	-0.506158
C20	C	-1.518318	0.779083	-0.506137
C21	C	-1.518387	0.895860	-0.506162
C22	C	-1.518461	0.506015	-0.780195
C23	C	-1.518495	0.505972	-0.896971
C24	C	-1.073801	0.573377	-0.573231
C25	C	-0.964077	0.573386	-0.573240
C26	C	-0.964038	0.438838	-0.439095
C27	C	-1.073761	0.438824	-0.439092
C28	C	-1.073822	0.651060	-0.650676
C29	C	-0.964098	0.651070	-0.650685
C30	C	-0.792416	0.506137	-0.506176
C31	C	-0.909193	0.506123	-0.506171
C32	C	-1.518476	0.232082	-0.506208
C33	C	-1.518516	0.115306	-0.506228
C34	C	-1.585641	0.950719	-0.439047
C35	C	-1.585708	1.060443	-0.439082
C36	C	-1.451259	1.060439	-0.573351
C37	C	-1.451198	0.950717	-0.573320
C38	C	-1.585719	0.438772	-0.951851
C39	C	-1.585737	0.438727	-1.061576
C40	C	-1.451303	0.573090	-1.061530
C41	C	-1.451281	0.573129	-0.951808
C42	C	-1.518365	0.506140	-0.233194
C43	C	-1.518535	0.505887	-0.116418
H44	H	-0.919343	0.384064	-0.384493
H45	H	-1.640474	1.105104	-0.384432
H46	H	-1.640352	0.906056	-0.384365
H47	H	-1.396555	1.105117	-0.628026
H48	H	-1.396432	0.906048	-0.627978
C49	C	-1.119327	0.754071	-0.611812
C50	C	-1.181075	0.798733	-0.690756
C51	C	-1.223022	0.893619	-0.654986
H52	H	-1.063972	0.800668	-0.594215
H53	H	-1.161269	0.741537	-0.551599
H54	H	-1.139136	0.811272	-0.750950
H55	H	-1.236446	0.752166	-0.708362
H56	H	-1.264964	0.881085	-0.594773
H57	H	-1.167661	0.940207	-0.637389
H58	H	-1.264931	0.923930	-0.708539
C59	C	-1.133490	0.365814	-0.366390
C60	C	-1.241326	0.380178	-0.380758
C61	C	-1.296381	0.312926	-0.313811
H62	H	-1.115605	0.381033	-0.295729
H63	H	-1.115581	0.295223	-0.381908
H64	H	-1.259227	0.450753	-0.365233
H65	H	-1.259242	0.364951	-0.451405
H66	H	-1.278472	0.242335	-0.329329
H67	H	-1.278488	0.328150	-0.243154
H68	H	-1.369553	0.322656	-0.323557
C69	C	-1.658723	0.365737	-0.892503
C70	C	-1.717577	0.306857	-0.964055
C71	C	-1.784829	0.239552	-0.909426
H72	H	-1.704573	0.405828	-0.849696
H73	H	-1.618563	0.319915	-0.849725
H74	H	-1.757735	0.352674	-1.006815
H75	H	-1.671756	0.266745	-1.006865
H76	H	-1.744668	0.193730	-0.866648
H77	H	-1.830671	0.279651	-0.866621
H78	H	-1.824762	0.199587	-0.957965
C79	C	-1.378401	0.646179	-1.120936
C80	C	-1.401217	0.750139	-1.094209
C81	C	-1.334073	0.817500	-1.148900
H82	H	-1.387977	0.636677	-1.194159
H83	H	-1.307793	0.630863	-1.102926
H84	H	-1.471808	0.765449	-1.112226
H85	H	-1.391635	0.759674	-1.020995
H86	H	-1.263466	0.802185	-1.130890
H87	H	-1.343655	0.807988	-1.222120
H88	H	-1.349539	0.888044	-1.130766
H89	H	-1.640476	0.384004	-1.106254
C90	C	-1.378462	0.646156	-0.892080
C91	C	-1.437912	0.713504	-0.829063
C92	C	-1.370868	0.780774	-0.774017
H93	H	-1.338415	0.686252	-0.940330
H94	H	-1.332710	0.606000	-0.849218
H95	H	-1.483646	0.753656	-0.871922
H96	H	-1.477956	0.673436	-0.780794
H97	H	-1.325116	0.740618	-0.731155
H98	H	-1.330825	0.820863	-0.822274
H99	H	-1.411194	0.826471	-0.731246
H100	H	-1.103632	0.629364	-0.732083
H101	H	-0.930102	0.622026	-0.728036
C102	C	-0.924499	0.759622	-0.621577
C103	C	-0.961258	0.832654	-0.694729
C104	C	-0.924812	0.932659	-0.667943
H105	H	-0.850053	0.759779	-0.621603
H106	H	-0.949307	0.777770	-0.553759
H107	H	-0.936445	0.814512	-0.762530
H108	H	-1.035700	0.832530	-0.694715
H109	H	-0.949619	0.950807	-0.600124
H110	H	-0.850367	0.932805	-0.667969
H111	H	-0.949755	0.982225	-0.717566
