data_functionalizedCrystal
_audit_creation_method	'MofGen! by Chris Wilmer'
_symmetry_space_group_name_H-M	'P1'
_symmetry_Int_Tables_number	1
_symmetry_cell_setting	triclinic
loop_
_symmetry_equiv_pos_as_xyz
  x,y,z
_cell_length_a	17.699083
_cell_length_b	12.376457
_cell_length_c	13.339070
_cell_angle_alpha	75.601917
_cell_angle_beta	99.456154
_cell_angle_gamma	101.263926
loop_
_atom_site_label
_atom_site_type_symbol
_atom_site_fract_x
_atom_site_fract_y
_atom_site_fract_z
O1	O	1.041521	0.093837	0.108480
O2	O	0.824663	0.093873	0.125108
O3	O	0.908204	0.093856	-0.030409
O4	O	0.957981	0.093855	0.263996
O5	O	0.887318	-0.094152	0.008418
O6	O	0.803777	-0.094134	0.163934
O7	O	1.020636	-0.094170	0.147306
Zn8	Zn	0.908890	-0.124003	0.161785
Zn9	Zn	0.936408	0.123706	0.110629
O10	O	0.937095	-0.094153	0.302823
C11	C	0.785898	-0.000126	0.143924
C12	C	0.701503	-0.000112	0.142133
N13	N	0.890116	-0.293057	0.196696
C14	C	0.672178	-0.000113	0.233420
C15	C	0.592877	-0.000127	0.231737
C16	C	0.542903	-0.000133	0.138764
C17	C	0.572233	-0.000135	0.047470
C18	C	0.651532	-0.000129	0.049156
C19	C	0.252428	-0.000163	0.040669
C20	C	0.173124	-0.000167	0.038989
C21	C	0.193773	-0.000162	0.223250
C22	C	0.273072	-0.000155	0.224936
C23	C	0.302394	-0.000164	0.133644
C24	C	0.388381	-0.000150	0.135471
C25	C	0.456918	-0.000139	0.136934
C26	C	0.998766	-0.648065	-0.005351
C27	C	1.011902	-0.529727	-0.029785
C28	C	0.981457	-0.470554	0.026833
C29	C	0.937873	-0.529729	0.107890
C30	C	0.924740	-0.648078	0.132333
C31	C	0.907431	-0.470568	0.164516
C32	C	0.863847	-0.529743	0.245573
C33	C	0.850716	-0.648080	0.270011
C34	C	0.881162	-0.707253	0.213393
C35	C	0.920563	-0.352219	0.140073
C36	C	0.846537	-0.352232	0.277757
C37	C	0.833401	-0.470570	0.302191
C38	C	1.059401	-0.000169	0.128490
C39	C	1.143797	-0.000175	0.130279
C40	C	0.889353	-0.000145	-0.048665
C41	C	0.864290	-0.000136	-0.160907
N42	N	0.955188	0.292760	0.075710
C43	C	1.059167	-0.000169	-0.526172
C44	C	1.082716	-0.000184	-0.420714
C45	C	1.028111	-0.000171	-0.355757
C46	C	0.949954	-0.000145	-0.396268
C47	C	0.926401	-0.000140	-0.501734
C48	C	0.895346	-0.000142	-0.331320
C49	C	0.817189	-0.000116	-0.371831
C50	C	0.793640	-0.000109	-0.477287
C51	C	0.848245	-0.000122	-0.542244
C52	C	0.918899	-0.000148	-0.225853
C53	C	0.786133	-0.000118	-0.201416
C54	C	0.762584	-0.000104	-0.306874
C55	C	0.955947	-0.000150	0.321078
C56	C	0.981010	-0.000151	0.433319
H57	H	0.712863	-0.000107	0.309129
H58	H	0.675406	-0.000128	-0.025180
Cl59	Cl	0.795936	-0.722474	0.371923
H60	H	0.531535	-0.000156	-0.028227
Cl61	Cl	0.110299	-0.000175	-0.077900
Cl62	Cl	0.664332	-0.000069	-0.357815
H63	H	0.829075	-0.000106	-0.628118
Cl64	Cl	0.156906	-0.000156	0.338020
H65	H	0.741669	-0.000114	-0.148527
H66	H	0.956050	-0.304049	0.074077
Cl67	Cl	0.335893	-0.000142	0.341819
Cl68	Cl	0.997969	-0.321785	-0.003889
H69	H	1.103616	-0.000188	-0.579066
Cl70	Cl	1.057718	-0.000183	-0.223181
H71	H	0.729999	-0.000097	-0.510266
H72	H	1.047389	-0.481551	-0.095780
H73	H	1.023556	-0.696251	-0.051437
Cl74	Cl	0.808264	-0.277850	0.348942
Cl75	Cl	0.556016	-0.000121	0.346502
H76	H	0.276291	-0.000171	-0.033666
H77	H	0.870464	-0.803613	0.233285
Cl78	Cl	0.778612	-0.544973	0.404090
Cl79	Cl	1.017150	-0.000180	-0.174938
H80	H	1.146351	-0.000206	-0.387737
