data_functionalizedCrystal
_audit_creation_method	'MofGen! by Chris Wilmer'
_symmetry_space_group_name_H-M	'P1'
_symmetry_Int_Tables_number	1
_symmetry_cell_setting	triclinic
loop_
_symmetry_equiv_pos_as_xyz
  x,y,z
_cell_length_a	13.034296
_cell_length_b	12.827893
_cell_length_c	12.827892
_cell_angle_alpha	90.015362
_cell_angle_beta	97.208963
_cell_angle_gamma	97.201581
loop_
_atom_site_label
_atom_site_type_symbol
_atom_site_fract_x
_atom_site_fract_y
_atom_site_fract_z
Zn1	Zn	-0.590864	-1.672754	0.340931
Zn2	Zn	-0.090864	-1.172754	0.840931
Zn3	Zn	-0.416120	-1.650442	0.537904
Zn4	Zn	0.083880	-1.150442	1.037904
Zn5	Zn	-0.416133	-1.475791	0.363176
Zn6	Zn	0.083867	-0.975791	0.863176
Zn7	Zn	-0.590824	-1.497975	0.515635
Zn8	Zn	-0.090824	-0.997975	1.015635
O9	O	-0.503485	-1.574241	0.439412
O10	O	-0.003485	-1.074241	0.939412
O11	O	-0.567695	-1.816032	0.367070
O12	O	-0.067695	-1.316032	0.867070
O13	O	-0.269882	-1.608653	0.533356
O14	O	0.230118	-1.108653	1.033356
O15	O	-0.439334	-1.501972	0.213986
O16	O	0.060666	-1.001972	0.713986
O17	O	-0.439311	-1.799639	0.511785
O18	O	0.060689	-1.299639	1.011785
O19	O	-0.567708	-1.646680	0.197643
O20	O	-0.067708	-1.146680	0.697643
O21	O	-0.269891	-1.480337	0.404984
O22	O	0.230109	-0.980337	0.904984
O23	O	-0.439295	-1.332497	0.383390
O24	O	0.060705	-0.832497	0.883390
O25	O	-0.737069	-1.539782	0.473831
O26	O	-0.237069	-1.039782	0.973831
O27	O	-0.567640	-1.348795	0.495401
O28	O	-0.067640	-0.848795	0.995401
O29	O	-0.737098	-1.668191	0.345476
O30	O	-0.237098	-1.168191	0.845476
O31	O	-0.439272	-1.630164	0.681189
O32	O	0.060728	-1.130164	1.181189
O33	O	-0.567627	-1.518147	0.664828
O34	O	-0.067627	-1.018147	1.164828
C35	C	-0.503465	-1.302728	0.439394
C36	C	-0.003465	-0.802728	0.939394
C37	C	-0.503481	-1.186577	0.439409
C38	C	-0.003481	-0.686577	0.939409
C39	C	-0.503467	-1.574173	0.710924
C40	C	-0.003467	-1.074173	1.210924
C41	C	-0.503494	-1.574244	0.827074
C42	C	-0.003494	-1.074244	1.327074
C43	C	-0.776062	-1.608950	0.404688
C44	C	-0.276062	-1.108950	0.904688
C45	C	-0.892219	-1.623741	0.389891
C46	C	-0.392219	-1.123741	0.889891
C47	C	-0.943990	-1.566801	0.446801
C48	C	-0.443990	-1.066801	0.946801
C49	C	-1.064044	-1.582086	0.431509
C50	C	-0.564044	-1.082086	0.931509
C51	C	-0.231968	-1.539727	0.473925
C52	C	0.268032	-1.039727	0.973925
C53	C	-0.115813	-1.525139	0.488427
C54	C	0.384187	-1.025139	0.988427
C55	C	-0.503506	-1.846813	0.439430
C56	C	-0.003506	-1.346813	0.939430
C57	C	-0.503514	-1.962968	0.439438
C58	C	-0.003514	-1.462968	0.939438
C59	C	-0.566893	-1.142873	0.494947
C60	C	-0.066893	-0.642873	0.994947
C61	C	-0.566911	-1.022825	0.494963
C62	C	-0.066911	-0.522825	0.994963
C63	C	-0.503526	-1.574340	0.166836
C64	C	-0.003526	-1.074340	0.666836
C65	C	-0.503544	-1.574382	0.050681
C66	C	-0.003544	-1.074382	0.550681
C67	C	-0.440050	-1.629758	0.886911
C68	C	0.059950	-1.129758	1.386911
C69	C	-0.440077	-1.629833	1.006958
C70	C	0.059923	-1.129833	1.506958
H71	H	-0.899435	-1.506740	0.506849
H72	H	-0.399435	-1.006740	1.006849
H73	H	-1.108595	-1.642159	0.371464
H74	H	-0.608595	-1.142159	0.871464
H75	H	-0.621171	-1.194331	0.542479
H76	H	-0.121171	-0.694331	1.042479
H77	H	-0.621196	-0.985208	0.542515
H78	H	-0.121196	-0.485208	1.042515
Cl79	Cl	-1.047038	-1.432404	0.581149
Cl80	Cl	-0.547038	-0.932404	1.081149
Cl81	Cl	-0.961000	-1.716485	0.297190
Cl82	Cl	-0.461000	-1.216485	0.797190
H83	H	-0.557834	-1.526777	0.864719
H84	H	-0.057834	-1.026777	1.364719
Cl85	Cl	-0.419684	-1.021029	0.366027
Cl86	Cl	0.080316	-0.521029	0.866027
H87	H	-0.449211	-1.135120	0.391867
H88	H	0.050789	-0.635120	0.891867
H89	H	-0.385718	-1.677235	0.849267
H90	H	0.114282	-1.177235	1.349267
Cl91	Cl	-0.587406	-1.500990	0.971293
Cl92	Cl	-0.087406	-1.000990	1.471293
Cl93	Cl	-0.356206	-1.703209	1.086353
Cl94	Cl	0.143794	-1.203209	1.586353
