data_functionalizedCrystal
_audit_creation_method	'MofGen! by Chris Wilmer'
_symmetry_space_group_name_H-M	'P1'
_symmetry_Int_Tables_number	1
_symmetry_cell_setting	triclinic
loop_
_symmetry_equiv_pos_as_xyz
  x,y,z
_cell_length_a	15.298708
_cell_length_b	16.625545
_cell_length_c	15.296720
_cell_angle_alpha	99.644199
_cell_angle_beta	107.326883
_cell_angle_gamma	99.719649
loop_
_atom_site_label
_atom_site_type_symbol
_atom_site_fract_x
_atom_site_fract_y
_atom_site_fract_z
Zn1	Zn	1.330609	-0.158244	-0.280173
Zn2	Zn	1.830609	0.341756	0.219827
Zn3	Zn	1.357421	-0.264890	-0.124691
Zn4	Zn	1.857421	0.235110	0.375309
Zn5	Zn	1.202025	-0.158297	-0.151554
Zn6	Zn	1.702025	0.341703	0.348446
Zn7	Zn	1.175061	-0.321279	-0.307001
Zn8	Zn	1.675061	0.178721	0.192999
O9	O	1.266279	-0.225677	-0.215855
O10	O	1.766279	0.274323	0.284145
O11	O	1.464297	-0.148770	-0.237079
O12	O	1.964297	0.351230	0.262921
O13	O	1.359313	-0.227173	0.001870
O14	O	1.859313	0.272827	0.501870
O15	O	1.219145	-0.045450	-0.168631
O16	O	1.719145	0.454550	0.331369
O17	O	1.483995	-0.227122	-0.122847
O18	O	1.983995	0.272878	0.377153
O19	O	1.313615	-0.045411	-0.263127
O20	O	1.813615	0.454589	0.236873
O21	O	1.245144	-0.148860	-0.017866
O22	O	1.745144	0.351140	0.482134
O23	O	1.068317	-0.203538	-0.194644
O24	O	1.568317	0.296462	0.305356
O25	O	1.173190	-0.323228	-0.433567
O26	O	1.673190	0.176772	0.066433
O27	O	1.048507	-0.323280	-0.308850
O28	O	1.548507	0.176720	0.191150
O29	O	1.287470	-0.203448	-0.413857
O30	O	1.787470	0.296552	0.086143
O31	O	1.333167	-0.385210	-0.148860
O32	O	1.833167	0.114790	0.351140
O33	O	1.199188	-0.426638	-0.282802
O34	O	1.699188	0.073362	0.217198
C35	C	1.024670	-0.269534	-0.257574
C36	C	1.524670	0.230466	0.242426
C37	C	0.921305	-0.288319	-0.275443
C38	C	1.421305	0.211681	0.224557
C39	C	1.266183	-0.435181	-0.215843
C40	C	1.766183	0.064819	0.284157
C41	C	1.266222	-0.524798	-0.215854
C42	C	1.766222	-0.024798	0.284146
C43	C	0.671023	-0.091659	-0.088367
C44	C	1.171023	0.408341	0.411633
C45	C	0.768140	-0.074005	-0.071579
C46	C	1.268140	0.425995	0.428421
C47	C	0.806436	-0.127582	-0.122543
C48	C	1.306436	0.372418	0.377457
C49	C	0.747606	-0.198816	-0.190299
C50	C	1.247606	0.301184	0.309701
C51	C	0.650479	-0.216469	-0.207094
C52	C	1.150479	0.283531	0.292906
C53	C	0.785892	-0.252392	-0.241271
C54	C	1.285892	0.247608	0.258729
C55	C	0.727062	-0.323626	-0.309027
C56	C	1.227062	0.176374	0.190973
C57	C	0.629944	-0.341275	-0.325818
C58	C	1.129944	0.158725	0.174182
C59	C	0.591648	-0.287698	-0.274854
C60	C	1.091648	0.212302	0.225146
C61	C	0.883019	-0.234739	-0.224475
C62	C	1.383019	0.265261	0.275525
C63	C	0.862474	-0.359549	-0.343203
C64	C	1.362474	0.140451	0.156797
C65	C	0.765358	-0.377203	-0.359991
C66	C	1.265358	0.122797	0.140009
C67	C	1.266255	-0.597577	-0.215867
C68	C	1.766255	-0.097577	0.284133
C69	C	1.266305	-0.688880	-0.215878
C70	C	1.766305	-0.188880	0.284122
C71	C	1.266351	-0.761650	-0.215881
C72	C	1.766351	-0.261650	0.284119
C73	C	1.266401	-0.852958	-0.215891
C74	C	1.766401	-0.352958	0.284109
C75	C	1.508831	-0.181650	-0.173974
C76	C	2.008831	0.318350	0.326026
C77	C	1.612192	-0.162889	-0.156126
C78	C	2.112192	0.337111	0.343874
C79	C	1.224331	-0.269622	-0.458395
C80	C	1.724331	0.230378	0.041605
C81	C	1.206456	-0.288349	-0.561751
C82	C	1.706456	0.211651	-0.061751
C83	C	1.266397	-0.015355	-0.215883
C84	C	1.766397	0.484645	0.284117
C85	C	1.266447	0.074273	-0.215895
C86	C	1.766447	0.574273	0.284105
C87	C	1.394073	-0.091688	-0.812046
C88	C	1.894073	0.408312	-0.312046
C89	C	1.410874	-0.074093	-0.714937
C90	C	1.910874	0.425907	-0.214937
C91	C	1.359771	-0.127655	-0.676635
C92	C	1.859771	0.372345	-0.176635
C93	C	1.291864	-0.198815	-0.735453
C94	C	1.791864	0.301185	-0.235453
C95	C	1.275067	-0.216415	-0.832571
C96	C	1.775067	0.283585	-0.332571
C97	C	1.240764	-0.252383	-0.697160
C98	C	1.740764	0.247617	-0.197160
C99	C	1.172857	-0.323543	-0.755978
C100	C	1.672857	0.176457	-0.255978
C101	C	1.156063	-0.341139	-0.853086
C102	C	1.656063	0.158861	-0.353086
C103	C	1.207166	-0.287577	-0.891388
C104	C	1.707166	0.212423	-0.391388
C105	C	1.257562	-0.234783	-0.600043
C106	C	1.757562	0.265217	-0.100043
C107	C	1.138555	-0.359511	-0.620568
C108	C	1.638555	0.140489	-0.120568
C109	C	1.121754	-0.377105	-0.717677
C110	C	1.621754	0.122895	-0.217677
C111	C	1.308117	-0.181836	0.025751
C112	C	1.808117	0.318164	0.525751
C113	C	1.326173	-0.162849	0.129137
C114	C	1.826173	0.337151	0.629137
H115	H	0.885513	-0.113203	-0.108870
H116	H	1.385513	0.386797	0.391130
O117	O	1.449189	-0.033930	-0.853360
O118	O	1.949189	0.466070	-0.353360
H119	H	1.499234	0.018507	-0.796149
H120	H	1.999234	0.518507	-0.296149
H121	H	0.639832	-0.048041	-0.046884
H122	H	1.139832	0.451959	0.453116
H123	H	1.066463	-0.435044	-0.765580
H124	H	1.566463	0.064956	-0.265580
O125	O	0.831596	0.002804	0.001518
O126	O	1.331596	0.502804	0.501518
H127	H	0.788655	0.037085	0.034150
H128	H	1.288655	0.537085	0.534150
O129	O	0.701933	-0.454065	-0.433039
O130	O	1.201933	0.045935	0.066961
H131	H	0.707964	-0.450213	-0.502832
H132	H	1.207964	0.049787	-0.002832
H133	H	1.312851	-0.176844	-0.552162
H134	H	1.812851	0.323156	-0.052162
O135	O	0.903772	-0.417338	-0.398178
O136	O	1.403772	0.082662	0.101822
H137	H	0.846547	-0.469828	-0.448125
H138	H	1.346547	0.030172	0.051875
H139	H	1.373455	-0.113326	-0.597564
H140	H	1.873455	0.386674	-0.097564
O141	O	1.484112	0.002650	-0.651498
O142	O	1.984112	0.502650	-0.151498
H143	H	1.516821	0.036942	-0.694444
H144	H	2.016821	0.536942	-0.194444
O145	O	1.189040	-0.306557	-0.996132
O146	O	1.689040	0.193443	-0.496132
H147	H	1.235984	-0.257355	-1.012878
H148	H	1.735984	0.242645	-0.512878
O149	O	1.083423	-0.417286	-0.579274
O150	O	1.583423	0.082714	-0.079274
H151	H	1.106502	-0.393088	-0.501866
H152	H	1.606502	0.106912	-0.001866
H153	H	1.100776	-0.399087	-0.900972
H154	H	1.600776	0.100913	-0.400972
O155	O	0.486896	-0.306741	-0.292969
O156	O	0.986896	0.193259	0.207031
H157	H	0.470155	-0.257516	-0.246147
H158	H	0.970155	0.242484	0.253853
H159	H	0.930908	-0.176738	-0.169310
H160	H	1.430908	0.323262	0.330690
O161	O	0.566510	-0.418195	-0.398763
O162	O	1.066510	0.081805	0.101237
H163	H	0.609462	-0.452525	-0.431325
H164	H	1.109462	0.047475	0.068675
