data_functionalizedCrystal
_audit_creation_method	'MofGen! by Chris Wilmer'
_symmetry_space_group_name_H-M	'P1'
_symmetry_Int_Tables_number	1
_symmetry_cell_setting	triclinic
loop_
_symmetry_equiv_pos_as_xyz
  x,y,z
_cell_length_a	14.519709
_cell_length_b	12.996460
_cell_length_c	14.519709
_cell_angle_alpha	90.007090
_cell_angle_beta	96.319855
_cell_angle_gamma	90.000034
loop_
_atom_site_label
_atom_site_type_symbol
_atom_site_fract_x
_atom_site_fract_y
_atom_site_fract_z
O1	O	1.223869	-0.085435	-0.120893
O2	O	1.473869	0.164565	0.129107
O3	O	1.723869	0.414565	0.379107
O4	O	1.973869	0.664565	0.629107
O5	O	0.955392	-0.085467	-0.135129
O6	O	1.205392	0.164533	0.114871
O7	O	1.455392	0.414533	0.364871
O8	O	1.705392	0.664533	0.614871
O9	O	1.096749	-0.085441	0.006227
O10	O	1.346749	0.164559	0.256227
O11	O	1.596749	0.414559	0.506227
O12	O	1.846749	0.664559	0.756227
O13	O	1.082512	-0.085461	-0.262250
O14	O	1.332512	0.164539	-0.012250
O15	O	1.582512	0.414539	0.237750
O16	O	1.832512	0.664539	0.487750
O17	O	1.096734	0.085693	0.006235
O18	O	1.346734	0.335693	0.256235
O19	O	1.596734	0.585693	0.506235
O20	O	1.846734	0.835693	0.756235
O21	O	0.955377	0.085667	-0.135122
O22	O	1.205377	0.335667	0.114878
O23	O	1.455377	0.585667	0.364878
O24	O	1.705377	0.835667	0.614878
O25	O	1.223854	0.085699	-0.120885
O26	O	1.473854	0.335699	0.129115
O27	O	1.723854	0.585699	0.379115
O28	O	1.973854	0.835699	0.629115
Cu29	Cu	1.089614	0.101309	-0.128003
Cu30	Cu	1.339614	0.351309	0.121997
Cu31	Cu	1.589614	0.601309	0.371997
Cu32	Cu	1.839614	0.851309	0.621997
Cu33	Cu	1.089632	-0.101077	-0.128012
Cu34	Cu	1.339632	0.148923	0.121988
Cu35	Cu	1.589632	0.398923	0.371988
Cu36	Cu	1.839632	0.648923	0.621988
O37	O	1.082497	0.085673	-0.262242
O38	O	1.332497	0.335673	-0.012242
O39	O	1.582497	0.585673	0.237758
O40	O	1.832497	0.835673	0.487758
C41	C	0.921025	0.000096	-0.134462
C42	C	1.171025	0.250096	0.115538
C43	C	1.421025	0.500096	0.365538
C44	C	1.671025	0.750096	0.615538
C45	C	0.818643	0.000084	-0.132474
C46	C	1.068643	0.250084	0.117526
C47	C	1.318643	0.500084	0.367526
C48	C	1.568643	0.750084	0.617526
N49	N	1.089609	0.243656	-0.127996
N50	N	1.339609	0.493656	0.122004
N51	N	1.589609	0.743656	0.372004
N52	N	1.839609	0.993656	0.622004
N53	N	1.089644	-0.243424	-0.128012
N54	N	1.339644	0.006576	0.121988
N55	N	1.589644	0.256576	0.371988
N56	N	1.839644	0.506576	0.621988
C57	C	0.443748	0.000132	-0.125154
C58	C	0.693748	0.250132	0.124846
C59	C	0.943748	0.500132	0.374846
C60	C	1.193748	0.750132	0.624846
C61	C	0.548056	0.000118	-0.127187
C62	C	0.798056	0.250118	0.122813
C63	C	1.048056	0.500118	0.372813
C64	C	1.298056	0.750118	0.622813
C65	C	0.631192	0.000107	-0.128814
C66	C	0.881192	0.250107	0.121186
C67	C	1.131192	0.500107	0.371186
C68	C	1.381192	0.750107	0.621186
C69	C	0.735507	0.000095	-0.130847
C70	C	0.985507	0.250095	0.119153
C71	C	1.235507	0.500095	0.369153
C72	C	1.485507	0.750095	0.619153
C73	C	1.258221	0.000134	-0.121553
C74	C	1.508221	0.250134	0.128447
C75	C	1.758221	0.500134	0.378447
C76	C	2.008221	0.750134	0.628447
C77	C	1.360602	0.000139	-0.123541
C78	C	1.610602	0.250139	0.126459
C79	C	1.860602	0.500139	0.376459
C80	C	2.110602	0.750139	0.626459
C81	C	1.096078	0.000126	0.040591
C82	C	1.346078	0.250126	0.290591
C83	C	1.596078	0.500126	0.540591
C84	C	1.846078	0.750126	0.790591
C85	C	1.094090	0.000126	0.142972
C86	C	1.344090	0.250126	0.392972
C87	C	1.594090	0.500126	0.642972
C88	C	1.844090	0.750126	0.892972
C89	C	1.089630	0.663470	-0.128013
C90	C	1.339630	0.913470	0.121987
C91	C	1.589630	1.163470	0.371987
C92	C	1.839630	1.413470	0.621987
C93	C	1.089622	0.546665	-0.128011
C94	C	1.339622	0.796665	0.121989
C95	C	1.589622	1.046665	0.371989
C96	C	1.839622	1.296665	0.621989
C97	C	1.089620	0.453567	-0.128005
C98	C	1.339620	0.703567	0.121995
C99	C	1.589620	0.953567	0.371995
C100	C	1.839620	1.203567	0.621995
C101	C	1.089610	0.336754	-0.128002
C102	C	1.339610	0.586754	0.121998
C103	C	1.589610	0.836754	0.371998
C104	C	1.839610	1.086754	0.621998
C105	C	1.083168	0.000103	-0.296605
C106	C	1.333168	0.250103	-0.046605
C107	C	1.583168	0.500103	0.203395
C108	C	1.833168	0.750103	0.453395
C109	C	1.085156	0.000096	-0.398987
C110	C	1.335156	0.250096	-0.148987
C111	C	1.585156	0.500096	0.101013
C112	C	1.835156	0.750096	0.351013
C113	C	1.086770	0.000099	0.517868
C114	C	1.336770	0.250099	0.767868
C115	C	1.586770	0.500099	1.017868
C116	C	1.836770	0.750099	1.267868
C117	C	1.088803	0.000107	0.413560
C118	C	1.338803	0.250107	0.663560
C119	C	1.588803	0.500107	0.913560
C120	C	1.838803	0.750107	1.163560
C121	C	1.090430	0.000114	0.330423
C122	C	1.340430	0.250114	0.580423
C123	C	1.590430	0.500114	0.830423
C124	C	1.840430	0.750114	1.080423
C125	C	1.092463	0.000120	0.226109
C126	C	1.342463	0.250120	0.476109
C127	C	1.592463	0.500120	0.726109
C128	C	1.842463	0.750120	0.976109
