data_functionalizedCrystal
_audit_creation_method	'MofGen! by Chris Wilmer'
_symmetry_space_group_name_H-M	'P1'
_symmetry_Int_Tables_number	1
_symmetry_cell_setting	triclinic
loop_
_symmetry_equiv_pos_as_xyz
  x,y,z
_cell_length_a	17.699092
_cell_length_b	19.288862
_cell_length_c	17.766277
_cell_angle_alpha	89.973950
_cell_angle_beta	90.003535
_cell_angle_gamma	96.789174
loop_
_atom_site_label
_atom_site_type_symbol
_atom_site_fract_x
_atom_site_fract_y
_atom_site_fract_z
O1	O	0.094407	-0.921469	0.062882
O2	O	0.427740	-0.588135	0.396215
O3	O	0.761074	-0.254802	0.729548
O4	O	0.107146	-0.719223	0.062819
O5	O	0.440479	-0.385890	0.396153
O6	O	0.773812	-0.052556	0.729486
O7	O	-0.009420	-0.826057	0.062851
O8	O	0.323913	-0.492724	0.396184
O9	O	0.657246	-0.159390	0.729517
O10	O	0.210973	-0.814635	0.062850
O11	O	0.544307	-0.481302	0.396184
O12	O	0.877640	-0.147968	0.729517
O13	O	-0.009424	-0.826038	-0.062338
O14	O	0.323910	-0.492704	0.270995
O15	O	0.657243	-0.159371	0.604329
O16	O	0.107142	-0.719204	-0.062369
O17	O	0.440476	-0.385871	0.270964
O18	O	0.773809	-0.052537	0.604297
O19	O	0.094404	-0.921450	-0.062307
O20	O	0.427737	-0.588116	0.271027
O21	O	0.761070	-0.254783	0.604360
Cu22	Cu	0.100773	-0.820325	-0.073769
Cu23	Cu	0.434106	-0.486992	0.259565
Cu24	Cu	0.767439	-0.153658	0.592898
Cu25	Cu	0.100777	-0.820348	0.074281
Cu26	Cu	0.434110	-0.487014	0.407615
Cu27	Cu	0.767443	-0.153681	0.740948
O28	O	0.210970	-0.814616	-0.062338
O29	O	0.544303	-0.481283	0.270995
O30	O	0.877637	-0.147949	0.604329
C31	C	0.106734	-0.693337	0.000217
C32	C	0.440068	-0.360003	0.333550
C33	C	0.773401	-0.026670	0.666884
C34	C	0.105505	-0.616231	0.000193
C35	C	0.438838	-0.282898	0.333527
C36	C	0.772172	0.050435	0.666860
C37	C	0.173900	-0.571618	0.000203
C38	C	0.507234	-0.238285	0.333536
C39	C	0.840567	0.095049	0.666869
C40	C	0.172745	-0.499169	0.000207
C41	C	0.506079	-0.165836	0.333541
C42	C	0.839412	0.167497	0.666874
C43	C	0.103191	-0.471338	0.000217
C44	C	0.436524	-0.138004	0.333551
C45	C	0.769857	0.195329	0.666884
C46	C	0.034786	-0.515961	0.000203
C47	C	0.368120	-0.182628	0.333537
C48	C	0.701453	0.150706	0.666870
C49	C	0.035943	-0.588408	0.000191
C50	C	0.369277	-0.255075	0.333525
C51	C	0.702610	0.078259	0.666858
C52	C	0.048515	-0.363016	0.044096
C53	C	0.381848	-0.029683	0.377429
C54	C	0.715182	0.303651	0.710762
C55	C	0.047361	-0.290570	0.044112
C56	C	0.380694	0.042763	0.377446
C57	C	0.714028	0.376097	0.710779
C58	C	0.099619	-0.247887	0.000251
C59	C	0.432953	0.085446	0.333584
C60	C	0.766286	0.418779	0.666918
C61	C	0.153044	-0.277658	-0.043618
C62	C	0.486378	0.055675	0.289716
C63	C	0.819711	0.389008	0.623049
C64	C	0.154202	-0.350105	-0.043630
C65	C	0.487535	-0.016772	0.289704
C66	C	0.820868	0.316562	0.623037
C67	C	0.101928	-0.392782	0.000230
C68	C	0.435262	-0.059449	0.333563
C69	C	0.768595	0.273885	0.666896
C70	C	0.166767	-0.124716	0.000264
C71	C	0.500100	0.208617	0.333598
C72	C	0.833434	0.541950	0.666931
C73	C	0.165609	-0.052267	0.000264
C74	C	0.498942	0.281067	0.333597
C75	C	0.832276	0.614400	0.666931
C76	C	0.027648	-0.069060	0.000268
C77	C	0.360981	0.264273	0.333601
C78	C	0.694315	0.597607	0.666934
C79	C	0.028808	-0.141508	0.000260
C80	C	0.362141	0.191825	0.333594
C81	C	0.695475	0.525159	0.666927
C82	C	0.098369	-0.169331	0.000262
C83	C	0.431703	0.164002	0.333596
C84	C	0.765036	0.497335	0.666929
C85	C	-0.037618	-0.825637	0.000257
C86	C	0.295715	-0.492304	0.333591
C87	C	0.629048	-0.158970	0.666924
C88	C	-0.121634	-0.824406	0.000260
C89	C	0.211699	-0.491073	0.333594
C90	C	0.545032	-0.157740	0.666927
C91	C	-0.161099	-0.823840	0.068501
C92	C	0.172234	-0.490507	0.401835
C93	C	0.505567	-0.157173	0.735168
C94	C	-0.240041	-0.822679	0.068502
C95	C	0.093293	-0.489346	0.401835
C96	C	0.426626	-0.156013	0.735169
C97	C	-0.279516	-0.822090	0.000261
C98	C	0.053817	-0.488756	0.333594
C99	C	0.387150	-0.155423	0.666927
C100	C	-0.240046	-0.822654	-0.067985
C101	C	0.093288	-0.489320	0.265348
C102	C	0.426621	-0.155987	0.598681
C103	C	-0.161105	-0.823810	-0.067985
C104	C	0.172228	-0.490476	0.265348
C105	C	0.505562	-0.157143	0.598681
C106	C	-0.558404	-0.817991	-0.067988
C107	C	-0.225071	-0.484658	0.265345
C108	C	0.108263	-0.151325	0.598679
C109	C	-0.637351	-0.816838	-0.067983
C110	C	-0.304017	-0.483504	0.265350
C111	C	0.029316	-0.150171	0.598684
C112	C	-0.637340	-0.816861	0.068499
C113	C	-0.304006	-0.483528	0.401832
C114	C	0.029327	-0.150194	0.735166
C115	C	-0.558399	-0.818017	0.068499
C116	C	-0.225066	-0.484684	0.401833
C117	C	0.108268	-0.151350	0.735166
C118	C	-0.518935	-0.818577	0.000254
C119	C	-0.185601	-0.485244	0.333587
C120	C	0.147732	-0.151911	0.666920
C121	C	-0.433337	-0.819835	0.000254
C122	C	-0.100004	-0.486501	0.333587
C123	C	0.233329	-0.153168	0.666921
C124	C	-0.365113	-0.820837	0.000260
C125	C	-0.031780	-0.487504	0.333593
C126	C	0.301554	-0.154171	0.666926
C127	C	0.239168	-0.815036	0.000257
C128	C	0.572501	-0.481702	0.333590
C129	C	0.905835	-0.148369	0.666924
C130	C	0.323184	-0.816266	0.000259
C131	C	0.656517	-0.482933	0.333592
C132	C	0.989851	-0.149600	0.666925
N133	N	0.100770	-0.820314	-0.177899
N134	N	0.434103	-0.486981	0.155434
N135	N	0.767436	-0.153648	0.488768
C136	C	0.094817	0.052664	0.000284
C137	C	0.428151	0.385998	0.333617
C138	C	0.761484	0.719331	0.666951
C139	C	0.096054	-0.024440	0.000273
C140	C	0.429387	0.308893	0.333606
C141	C	0.762720	0.642227	0.666939
C142	C	0.146560	-0.862357	-0.217266
C143	C	0.479894	-0.529024	0.116067
C144	C	0.813227	-0.195690	0.449401
C145	C	0.146558	-0.862368	-0.296068
C146	C	0.479892	-0.529035	0.037266
C147	C	0.813225	-0.195701	0.370599
C148	C	0.100774	-0.820323	-0.335500
C149	C	0.434107	-0.486990	-0.002166
C150	C	0.767441	-0.153657	0.331167
C151	C	0.054974	-0.778278	-0.296123
C152	C	0.388307	-0.444944	0.037210
C153	C	0.721640	-0.111611	0.370543
C154	C	0.054972	-0.778273	-0.217323
C155	C	0.388305	-0.444940	0.116010
C156	C	0.721638	-0.111607	0.449344
C157	C	0.098860	-0.757708	-0.460378
C158	C	0.432193	-0.424375	-0.127045
C159	C	0.765527	-0.091042	0.206288
C160	C	0.098868	-0.757711	-0.539177
C161	C	0.432201	-0.424378	-0.205844
C162	C	0.765534	-0.091045	0.127490
C163	C	0.100776	-0.820338	-0.578546
C164	C	0.434110	-0.487004	-0.245213
C165	C	0.767443	-0.153671	0.088121
C166	C	0.102693	-0.882962	-0.539106
C167	C	0.436026	-0.549629	-0.205773
C168	C	0.769360	-0.216295	0.127560
C169	C	0.102691	-0.882957	-0.460306
C170	C	0.436024	-0.549624	-0.126973
C171	C	0.769358	-0.216291	0.206361
C172	C	0.100771	-0.820324	-0.420945
C173	C	0.434104	-0.486990	-0.087612
C174	C	0.767438	-0.153657	0.245721
C175	C	0.146567	-0.862396	-0.703359
C176	C	0.479901	-0.529063	-0.370025
C177	C	0.813234	-0.195729	-0.036692
C178	C	0.146560	-0.862408	-0.782162
C179	C	0.479893	-0.529075	-0.448829
C180	C	0.813226	-0.195742	-0.115495
C181	C	0.054980	-0.778312	-0.782216
C182	C	0.388313	-0.444978	-0.448883
C183	C	0.721646	-0.111645	-0.115549
C184	C	0.054983	-0.778306	-0.703414
C185	C	0.388316	-0.444972	-0.370081
C186	C	0.721649	-0.111639	-0.036748
C187	C	0.100781	-0.820347	-0.663990
C188	C	0.434114	-0.487013	-0.330657
C189	C	0.767447	-0.153680	0.002676
N190	N	0.100774	-0.820364	0.178412
N191	N	0.434107	-0.487031	0.511745
N192	N	0.767441	-0.153697	0.845078
H193	H	0.221307	-0.015942	0.000268
H194	H	0.554641	0.317391	0.333601
H195	H	0.887974	0.650724	0.666934
H196	H	0.104250	-0.933948	-0.428197
H197	H	0.437583	-0.600615	-0.094864
H198	H	0.770916	-0.267282	0.238469
O199	O	-0.118534	-0.824428	-0.141587
O200	O	0.214799	-0.491095	0.191746
O201	O	0.548132	-0.157761	0.525080
H202	H	-0.159246	-0.823832	-0.189040
H203	H	0.174087	-0.490499	0.144293
H204	H	0.507421	-0.157165	0.477626
H205	H	-0.669489	-0.816356	-0.123557
H206	H	-0.336156	-0.483022	0.209777
H207	H	-0.002823	-0.149689	0.543110
O208	O	0.211815	-0.382203	-0.090960
O209	O	0.545148	-0.048869	0.242373
O210	O	0.878481	0.284464	0.575706
H211	H	0.248035	-0.410885	-0.053989
H212	H	0.581369	-0.077552	0.279344
H213	H	0.914702	0.255782	0.612677
H214	H	0.195598	-0.242907	-0.079334
H215	H	0.528931	0.090426	0.253999
H216	H	0.862264	0.423760	0.587332
O217	O	0.005558	-0.732942	-0.174861
O218	O	0.338891	-0.399609	0.158472
O219	O	0.672225	-0.066275	0.491805
H220	H	0.013238	-0.740012	-0.113443
H221	H	0.346572	-0.406679	0.219890
H222	H	0.679905	-0.073346	0.553224
H223	H	-0.526262	-0.818500	0.124068
H224	H	-0.192929	-0.485167	0.457402
H225	H	0.140405	-0.151834	0.790735
H226	H	-0.526284	-0.818462	-0.123558
H227	H	-0.192951	-0.485128	0.209775
H228	H	0.140383	-0.151795	0.543109
O229	O	0.248924	-0.601630	0.000183
O230	O	0.582257	-0.268297	0.333516
O231	O	0.915590	0.065037	0.666850
H232	H	0.296290	-0.558431	0.000179
H233	H	0.629623	-0.225097	0.333513
H234	H	0.962957	0.108236	0.666846
O235	O	0.195945	-0.907763	-0.824626
O236	O	0.529279	-0.574430	-0.491293
O237	O	0.862612	-0.241096	-0.157959
H238	H	0.236708	-0.874399	-0.860552
H239	H	0.570042	-0.541065	-0.527219
H240	H	0.903375	-0.207732	-0.193885
H241	H	0.017700	-0.744079	-0.814321
H242	H	0.351033	-0.410745	-0.480987
H243	H	0.684367	-0.077412	-0.147654
O244	O	-0.282589	-0.822040	0.142113
O245	O	0.050744	-0.488707	0.475446
O246	O	0.384077	-0.155373	0.808780
H247	H	-0.274353	-0.869585	0.174865
H248	H	0.058980	-0.536251	0.508198
H249	H	0.392313	-0.202918	0.841531
O250	O	0.195960	-0.907741	-0.660834
O251	O	0.529294	-0.574408	-0.327501
O252	O	0.862627	-0.241074	0.005832
H253	H	0.188276	-0.900666	-0.599425
H254	H	0.521610	-0.567333	-0.266092
H255	H	0.854943	-0.233999	0.067242
O256	O	-0.047371	-0.039046	0.000275
O257	O	0.285963	0.294288	0.333608
O258	O	0.619296	0.627621	0.666942
H259	H	-0.080220	-0.056945	-0.050756
H260	H	0.253113	0.276389	0.282577
H261	H	0.586446	0.609722	0.615910
O262	O	-0.282615	-0.822016	-0.141593
O263	O	0.050718	-0.488683	0.191740
O264	O	0.384051	-0.155349	0.525074
H265	H	-0.274361	-0.869553	-0.174302
H266	H	0.058972	-0.536220	0.159031
H267	H	0.392306	-0.202887	0.492365
H268	H	-0.026887	-0.177834	0.000257
H269	H	0.306446	0.155500	0.333590
H270	H	0.639779	0.488833	0.666923
O271	O	0.246517	-0.451036	0.000226
O272	O	0.579850	-0.117703	0.333559
O273	O	0.913183	0.215630	0.666892
H274	H	0.295080	-0.482555	0.000230
H275	H	0.628414	-0.149222	0.333564
H276	H	0.961747	0.184111	0.666897
H277	H	-0.669480	-0.816401	0.124068
H278	H	-0.336147	-0.483068	0.457401
H279	H	-0.002814	-0.149735	0.790735
O280	O	0.096756	-0.690161	-0.417924
O281	O	0.430089	-0.356827	-0.084590
O282	O	0.763422	-0.023494	0.248743
H283	H	0.097051	-0.700680	-0.356504
H284	H	0.430385	-0.367347	-0.023170
H285	H	0.763718	-0.034014	0.310163
H286	H	0.003862	-0.266336	0.079836
H287	H	0.337195	0.066997	0.413169
H288	H	0.670529	0.400330	0.746502
O289	O	-0.007848	-0.409051	0.091411
O290	O	0.325485	-0.075718	0.424744
O291	O	0.658818	0.257616	0.758077
H292	H	-0.045182	-0.376179	0.121926
H293	H	0.288152	-0.042846	0.455260
H294	H	0.621485	0.290487	0.788593
H295	H	0.183850	-0.896593	-0.185172
H296	H	0.517183	-0.563260	0.148162
H297	H	0.850516	-0.229926	0.481495
O298	O	0.195955	-0.907710	-0.338543
O299	O	0.529288	-0.574376	-0.005210
O300	O	0.862622	-0.241043	0.328124
H301	H	0.227804	-0.936938	-0.297890
H302	H	0.561138	-0.603605	0.035443
H303	H	0.894471	-0.270271	0.368777
H304	H	0.104251	-0.933958	-0.571158
H305	H	0.437584	-0.600624	-0.237825
H306	H	0.770918	-0.267291	0.095508
O307	O	-0.040232	-0.485943	0.000210
O308	O	0.293101	-0.152610	0.333543
O309	O	0.626434	0.180724	0.666877
H310	H	-0.087600	-0.529141	0.000194
H311	H	0.245733	-0.195807	0.333527
H312	H	0.579066	0.137526	0.666861
O313	O	-0.037828	-0.636534	0.000185
O314	O	0.295505	-0.303201	0.333518
O315	O	0.628838	0.030132	0.666851
H316	H	-0.086391	-0.605013	0.000194
H317	H	0.246943	-0.271680	0.333528
H318	H	0.580276	0.061653	0.666861
O319	O	0.005600	-0.732958	-0.660939
O320	O	0.338934	-0.399625	-0.327606
O321	O	0.672267	-0.066292	0.005728
H322	H	0.022225	-0.677416	-0.676082
H323	H	0.355559	-0.344082	-0.342748
H324	H	0.688892	-0.010749	-0.009415
O325	O	0.241789	-0.154735	0.000251
O326	O	0.575122	0.178598	0.333584
O327	O	0.908455	0.511931	0.666918
H328	H	0.289156	-0.111537	0.000244
H329	H	0.622490	0.221796	0.333577
H330	H	0.955823	0.555129	0.666911
O331	O	0.096662	-0.690190	-0.581715
O332	O	0.429995	-0.356857	-0.248381
O333	O	0.763328	-0.023524	0.084952
H334	H	0.095267	-0.646651	-0.541103
H335	H	0.428601	-0.313317	-0.207769
H336	H	0.761934	0.020016	0.125564
O337	O	0.005594	-0.732924	-0.338646
O338	O	0.338927	-0.399591	-0.005313
O339	O	0.672261	-0.066258	0.328020
H340	H	0.013295	-0.739984	-0.400056
H341	H	0.346628	-0.406651	-0.066722
H342	H	0.679961	-0.073317	0.266611
O343	O	-0.118521	-0.824470	0.142105
O344	O	0.214812	-0.491137	0.475438
O345	O	0.548145	-0.157804	0.808771
H346	H	-0.159228	-0.823873	0.189556
H347	H	0.174105	-0.490539	0.522890
H348	H	0.507438	-0.157206	0.856223
