data_functionalizedCrystal
_audit_creation_method	'MofGen! by Chris Wilmer'
_symmetry_space_group_name_H-M	'P1'
_symmetry_Int_Tables_number	1
_symmetry_cell_setting	triclinic
loop_
_symmetry_equiv_pos_as_xyz
  x,y,z
_cell_length_a	17.077404
_cell_length_b	25.639240
_cell_length_c	17.077396
_cell_angle_alpha	90.034713
_cell_angle_beta	89.983895
_cell_angle_gamma	89.958077
loop_
_atom_site_label
_atom_site_type_symbol
_atom_site_fract_x
_atom_site_fract_y
_atom_site_fract_z
Zn1	Zn	1.199922	0.208175	-0.443789
Zn2	Zn	1.533256	0.541508	-0.110456
Zn3	Zn	1.866589	0.874841	0.222877
Zn4	Zn	1.199786	0.295614	-0.312511
Zn5	Zn	1.533120	0.628947	0.020822
Zn6	Zn	1.866453	0.962280	0.354156
Zn7	Zn	1.068659	0.208191	-0.312540
Zn8	Zn	1.401993	0.541524	0.020793
Zn9	Zn	1.735326	0.874858	0.354127
Zn10	Zn	1.068574	0.295578	-0.443737
Zn11	Zn	1.401907	0.628911	-0.110404
Zn12	Zn	1.735240	0.962245	0.222929
O13	O	1.134235	0.251889	-0.378144
O14	O	1.467569	0.585223	-0.044811
O15	O	1.800902	0.918556	0.288522
O16	O	1.309751	0.219782	-0.426385
O17	O	1.643084	0.553115	-0.093051
O18	O	1.976418	0.886449	0.240282
O19	O	1.182371	0.284039	-0.202668
O20	O	1.515704	0.617372	0.130665
O21	O	1.849037	0.950705	0.463999
O22	O	1.086164	0.135024	-0.329984
O23	O	1.419498	0.468357	0.003349
O24	O	1.752831	0.801690	0.336682
O25	O	1.309651	0.284023	-0.329935
O26	O	1.642984	0.617356	0.003398
O27	O	1.976318	0.950690	0.336732
O28	O	1.182603	0.135012	-0.426413
O29	O	1.515936	0.468345	-0.093079
O30	O	1.849269	0.801678	0.240254
O31	O	1.086032	0.219810	-0.202689
O32	O	1.419366	0.553143	0.130644
O33	O	1.752699	0.886476	0.463978
O34	O	0.958801	0.219775	-0.329934
O35	O	1.292134	0.553108	0.003400
O36	O	1.625468	0.886442	0.336733
O37	O	1.086019	0.283962	-0.553591
O38	O	1.419352	0.617295	-0.220258
O39	O	1.752685	0.950629	0.113076
O40	O	0.958738	0.283978	-0.426324
O41	O	1.292072	0.617311	-0.092991
O42	O	1.625405	0.950644	0.240343
O43	O	1.182520	0.219747	-0.553629
O44	O	1.515853	0.553081	-0.220296
O45	O	1.849186	0.886414	0.113037
O46	O	1.182288	0.368774	-0.329884
O47	O	1.515621	0.702108	0.003449
O48	O	1.848955	1.035441	0.336782
O49	O	1.085887	0.368748	-0.426296
O50	O	1.419220	0.702081	-0.092962
O51	O	1.752553	1.035415	0.240371
C52	C	0.930287	0.251875	-0.378127
C53	C	1.263621	0.585208	-0.044793
C54	C	1.596954	0.918541	0.288540
C55	C	0.843038	0.251881	-0.378138
C56	C	1.176371	0.585214	-0.044805
C57	C	1.509704	0.918547	0.288529
C58	C	0.802100	0.218490	-0.428436
C59	C	1.135434	0.551823	-0.095102
C60	C	1.468767	0.885157	0.238231
C61	C	0.720120	0.218493	-0.428439
C62	C	1.053453	0.551827	-0.095106
C63	C	1.386786	0.885160	0.238227
C64	C	0.679078	0.251891	-0.378148
C65	C	1.012412	0.585224	-0.044815
C66	C	1.345745	0.918557	0.288518
C67	C	0.720021	0.285283	-0.327845
C68	C	1.053355	0.618616	0.005488
C69	C	1.386688	0.951950	0.338822
C70	C	0.802000	0.285276	-0.327838
C71	C	1.135334	0.618610	0.005495
C72	C	1.468667	0.951943	0.338829
C73	C	0.549151	0.285295	-0.327864
C74	C	0.882485	0.618628	0.005469
C75	C	1.215818	0.951961	0.338802
C76	C	0.467167	0.285302	-0.327872
C77	C	0.800500	0.618635	0.005461
C78	C	1.133833	0.951969	0.338794
C79	C	0.467271	0.218512	-0.428466
C80	C	0.800604	0.551845	-0.095133
C81	C	1.133937	0.885178	0.238201
C82	C	0.549250	0.218505	-0.428459
C83	C	0.882583	0.551839	-0.095126
C84	C	1.215916	0.885172	0.238208
C85	C	0.590187	0.251898	-0.378156
C86	C	0.923521	0.585232	-0.044823
C87	C	1.256854	0.918565	0.288510
C88	C	1.134085	0.387732	-0.378098
C89	C	1.467418	0.721065	-0.044765
C90	C	1.800751	1.054399	0.288568
C91	C	1.134092	0.445846	-0.378105
C92	C	1.467425	0.779179	-0.044772
C93	C	1.800759	1.112513	0.288562
C94	C	1.083975	0.697038	-0.428304
C95	C	1.417309	1.030372	-0.094970
C96	C	1.750642	1.363705	0.238363
C97	C	1.083953	0.642434	-0.428298
C98	C	1.417286	0.975767	-0.094964
C99	C	1.750619	1.309101	0.238369
O100	O	1.041243	0.614196	-0.470966
O101	O	1.374576	0.947530	-0.137633
O102	O	1.707909	1.280863	0.195700
N103	N	1.134170	0.615120	-0.378136
N104	N	1.467503	0.948453	-0.044803
N105	N	1.800837	1.281787	0.288531
C106	C	1.184418	0.642413	-0.327983
C107	C	1.517752	0.975746	0.005351
C108	C	1.851085	1.309080	0.338684
O109	O	1.227130	0.614166	-0.285317
O110	O	1.560464	0.947500	0.048017
O111	O	1.893797	1.280833	0.381350
C112	C	1.184444	0.697016	-0.327993
C113	C	1.517777	1.030350	0.005340
C114	C	1.851111	1.363683	0.338673
C115	C	1.134218	0.724327	-0.378152
C116	C	1.467551	1.057661	-0.044819
C117	C	1.800885	1.390994	0.288514
C118	C	1.033754	0.724349	-0.478459
C119	C	1.367087	1.057683	-0.145126
C120	C	1.700421	1.391016	0.188207
C121	C	1.033776	0.778950	-0.478464
C122	C	1.367109	1.112283	-0.145131
C123	C	1.700442	1.445617	0.188203
C124	C	1.084018	0.806239	-0.428313
C125	C	1.417352	1.139573	-0.094980
C126	C	1.750685	1.472906	0.238354
C127	C	1.134240	0.778928	-0.378157
C128	C	1.467573	1.112261	-0.044824
C129	C	1.800906	1.445595	0.288510
C130	C	1.234696	0.724308	-0.277845
C131	C	1.568029	1.057642	0.055489
C132	C	1.901363	1.390975	0.388822
C133	C	1.234718	0.778915	-0.277860
C134	C	1.568051	1.112249	0.055474
C135	C	1.901384	1.445582	0.388807
C136	C	1.184492	0.806227	-0.328019
C137	C	1.517825	1.139560	0.005314
C138	C	1.851158	1.472893	0.338648
C139	C	1.184504	0.860818	-0.328011
C140	C	1.517837	1.194151	0.005323
C141	C	1.851171	1.527485	0.338656
N142	N	1.134287	0.888132	-0.378172
N143	N	1.467620	1.221465	-0.044839
N144	N	1.800954	1.554799	0.288494
C145	C	1.084044	0.860843	-0.428323
C146	C	1.417377	1.194176	-0.094990
C147	C	1.750711	1.527509	0.238343
C148	C	1.184361	0.527742	-0.327966
C149	C	1.517695	0.861076	0.005368
C150	C	1.851028	1.194409	0.338701
C151	C	1.184332	0.473140	-0.327951
C152	C	1.517666	0.806473	0.005383
C153	C	1.850999	1.139807	0.338716
C154	C	1.083868	0.473165	-0.428267
C155	C	1.417201	0.806498	-0.094933
C156	C	1.750534	1.139831	0.238400
C157	C	1.083893	0.527768	-0.428277
C158	C	1.417227	0.861101	-0.094944
C159	C	1.750560	1.194435	0.238389
C160	C	1.134144	0.555056	-0.378127
C161	C	1.467478	0.888390	-0.044794
C162	C	1.800811	1.221723	0.288539
C163	C	1.084093	0.975508	-0.428329
C164	C	1.417426	1.308841	-0.094995
C165	C	1.750759	1.642174	0.238338
C166	C	1.084116	1.030113	-0.428327
C167	C	1.417450	1.363446	-0.094993
C168	C	1.750783	1.696780	0.238340
C169	C	1.184584	1.030084	-0.328014
C170	C	1.517917	1.363417	0.005319
C171	C	1.851250	1.696750	0.338653
C172	C	1.184557	0.975483	-0.328013
C173	C	1.517891	1.308816	0.005321
C174	C	1.851224	1.642150	0.338654
C175	C	1.134309	0.948196	-0.378177
C176	C	1.467643	1.281530	-0.044843
C177	C	1.800976	1.614863	0.288490
O178	O	1.227195	0.889090	-0.285366
O179	O	1.560528	1.222424	0.047967
O180	O	1.893861	1.555757	0.381301
O181	O	1.041347	0.889096	-0.470990
O182	O	1.374680	1.222429	-0.137656
O183	O	1.708013	1.555763	0.195677
C184	C	1.338980	0.251905	-0.378162
C185	C	1.672313	0.585238	-0.044829
C186	C	2.005646	0.918571	0.288504
C187	C	1.426229	0.251911	-0.378170
C188	C	1.759563	0.585244	-0.044837
C189	C	2.092896	0.918578	0.288496
C190	C	1.134275	0.251849	-0.582889
C191	C	1.467608	0.585182	-0.249555
C192	C	1.800941	0.918516	0.083778
C193	C	1.134292	0.251832	-0.670139
C194	C	1.467625	0.585165	-0.336805
C195	C	1.800958	0.918498	-0.003472
C196	C	1.134377	1.115516	-0.378193
C197	C	1.467711	1.448850	-0.044859
C198	C	1.801044	1.782183	0.288474
C199	C	1.134359	1.057402	-0.378176
C200	C	1.467693	1.390736	-0.044842
C201	C	1.801026	1.724069	0.288491
C202	C	1.084143	0.218384	-0.711139
C203	C	1.417477	0.551717	-0.377806
C204	C	1.750810	0.885050	-0.044473
C205	C	1.084156	0.218372	-0.793120
C206	C	1.417490	0.551705	-0.459786
C207	C	1.750823	0.885038	-0.126453
C208	C	1.134322	0.251806	-0.834098
C209	C	1.467655	0.585139	-0.500765
C210	C	1.800988	0.918472	-0.167431
C211	C	1.184472	0.285257	-0.793092
C212	C	1.517805	0.618591	-0.459758
C213	C	1.851139	0.951924	-0.126425
C214	C	1.184455	0.285272	-0.711113
C215	C	1.517788	0.618605	-0.377779
C216	C	1.851121	0.951938	-0.044446
C217	C	1.184506	0.285225	-0.963962
C218	C	1.517839	0.618558	-0.630629
C219	C	1.851173	0.951891	-0.297295
C220	C	1.184525	0.285210	-1.045947
C221	C	1.517858	0.618543	-0.712613
C222	C	1.851191	0.951877	-0.379280
C223	C	1.084208	0.218325	-1.045969
C224	C	1.417541	0.551658	-0.712636
C225	C	1.750874	0.884992	-0.379302
C226	C	1.084190	0.218339	-0.963990
C227	C	1.417524	0.551672	-0.630657
C228	C	1.750857	0.885006	-0.297323
C229	C	1.134342	0.251790	-0.922989
C230	C	1.467675	0.585124	-0.589656
C231	C	1.801009	0.918457	-0.256322
C232	C	1.134241	0.251892	-0.174197
C233	C	1.467575	0.585225	0.159137
C234	C	1.800908	0.918559	0.492470
C235	C	1.134377	0.251762	-0.086947
C236	C	1.467710	0.585095	0.246386
C237	C	1.801043	0.918429	0.579719
H238	H	0.835331	0.312466	-0.286880
H239	H	1.168664	0.645800	0.046454
H240	H	1.501997	0.979133	0.379787
F241	F	1.030753	0.182791	-0.836752
F242	F	1.364086	0.516124	-0.503419
F243	F	1.697419	0.849458	-0.170085
F244	F	1.288161	0.695253	-0.224464
F245	F	1.621494	1.028587	0.108869
F246	F	1.954828	1.361920	0.442203
H247	H	1.043297	0.191155	-0.677780
H248	H	1.376631	0.524488	-0.344447
H249	H	1.709964	0.857821	-0.011114
H250	H	1.043345	0.191112	-0.930627
H251	H	1.376678	0.524445	-0.597294
H252	H	1.710011	0.857778	-0.263961
F253	F	0.592718	0.320838	-0.274329
F254	F	0.926052	0.654171	0.059004
F255	F	1.259385	0.987505	0.392337
F256	F	1.237880	0.320830	-0.920328
F257	F	1.571213	0.654163	-0.586994
F258	F	1.904547	0.987496	-0.253661
H259	H	1.042958	0.450936	-0.469104
H260	H	1.376291	0.784269	-0.135770
H261	H	1.709625	1.117603	0.197563
H262	H	1.225280	0.549957	-0.287121
H263	H	1.558613	0.883291	0.046212
H264	H	1.891947	1.216624	0.379546
F265	F	0.980275	0.695314	-0.531843
F266	F	1.313608	1.028648	-0.198510
F267	F	1.646942	1.361981	0.134824
H268	H	1.225296	0.312504	-0.677731
H269	H	1.558630	0.645838	-0.344398
H270	H	1.891963	0.979171	-0.011064
F271	F	1.237999	0.946415	-0.274614
F272	F	1.571332	1.279749	0.058720
F273	F	1.904665	1.613082	0.392053
H274	H	0.835510	0.191295	-0.469391
H275	H	1.168844	0.524629	-0.136057
H276	H	1.502177	0.857962	0.197276
H277	H	0.686599	0.312473	-0.286893
H278	H	1.019932	0.645806	0.046440
H279	H	1.353266	0.979140	0.379773
F280	F	0.676555	0.182955	-0.481975
F281	F	1.009888	0.516289	-0.148642
F282	F	1.343221	0.849622	0.184692
F283	F	1.288205	0.807954	-0.224483
F284	F	1.621538	1.141288	0.108850
F285	F	1.954871	1.474621	0.442184
F286	F	1.237857	0.320844	-0.836706
F287	F	1.571191	0.654177	-0.503373
F288	F	1.904524	0.987510	-0.170039
H289	H	1.043215	1.052347	-0.469174
H290	H	1.376548	1.385681	-0.135841
H291	H	1.709881	1.719014	0.197492
H292	H	1.225487	1.052312	-0.287179
H293	H	1.558821	1.385646	0.046154
H294	H	1.892154	1.718979	0.379487
F295	F	0.423702	0.182971	-0.482000
F296	F	0.757035	0.516304	-0.148667
F297	F	1.090368	0.849637	0.184666
F298	F	0.423489	0.320857	-0.274362
F299	F	0.756822	0.654190	0.058971
F300	F	1.090155	0.987524	0.392305
F301	F	1.030613	0.946475	-0.481719
F302	F	1.363946	1.279808	-0.148385
F303	F	1.697280	1.613142	0.184948
H304	H	1.042999	0.550001	-0.469126
H305	H	1.376332	0.883335	-0.135792
H306	H	1.709666	1.216668	0.197541
H307	H	0.992875	0.801182	-0.519307
H308	H	1.326208	1.134515	-0.185974
H309	H	1.659542	1.467849	0.147359
H310	H	1.225374	0.312435	-1.079309
H311	H	1.558707	0.645768	-0.745976
H312	H	1.892041	0.979102	-0.412642
H313	H	1.225222	0.450907	-0.287098
H314	H	1.558555	0.784240	0.046235
H315	H	1.891889	1.117574	0.379569
H316	H	1.043373	0.191087	-1.079356
H317	H	1.376707	0.524420	-0.746022
H318	H	1.710040	0.857754	-0.412689
H319	H	0.582664	0.191313	-0.469415
H320	H	0.915997	0.524647	-0.136082
H321	H	1.249330	0.857980	0.197252
