data_functionalizedCrystal
_audit_creation_method	'MofGen! by Chris Wilmer'
_symmetry_space_group_name_H-M	'P1'
_symmetry_Int_Tables_number	1
_symmetry_cell_setting	triclinic
loop_
_symmetry_equiv_pos_as_xyz
  x,y,z
_cell_length_a	14.519709
_cell_length_b	8.559649
_cell_length_c	12.996460
_cell_angle_alpha	90.005498
_cell_angle_beta	89.992910
_cell_angle_gamma	103.270595
loop_
_atom_site_label
_atom_site_type_symbol
_atom_site_fract_x
_atom_site_fract_y
_atom_site_fract_z
O1	O	-0.031278	-2.120041	-0.085549
O2	O	0.218722	-1.870041	0.164451
O3	O	0.468722	-1.620041	0.414451
O4	O	0.718722	-1.370041	0.664451
O5	O	0.016340	-1.654973	-0.085556
O6	O	0.266340	-1.404973	0.164444
O7	O	0.516340	-1.154973	0.414444
O8	O	0.766340	-0.904973	0.664444
O9	O	-0.142593	-1.899837	-0.085543
O10	O	0.107407	-1.649837	0.164457
O11	O	0.357407	-1.399837	0.414457
O12	O	0.607407	-1.149837	0.664457
O13	O	0.127654	-1.875176	-0.085562
O14	O	0.377654	-1.625176	0.164438
O15	O	0.627654	-1.375176	0.414438
O16	O	0.877654	-1.125176	0.664438
O17	O	-0.142599	-1.899812	0.085591
O18	O	0.107401	-1.649812	0.335591
O19	O	0.357401	-1.399812	0.585591
O20	O	0.607401	-1.149812	0.835591
O21	O	0.016334	-1.654947	0.085578
O22	O	0.266334	-1.404947	0.335578
O23	O	0.516334	-1.154947	0.585578
O24	O	0.766334	-0.904947	0.835578
O25	O	-0.031284	-2.120015	0.085585
O26	O	0.218716	-1.870015	0.335585
O27	O	0.468716	-1.620015	0.585585
O28	O	0.718716	-1.370015	0.835585
Cu29	Cu	-0.007476	-1.887479	0.101207
Cu30	Cu	0.242524	-1.637479	0.351207
Cu31	Cu	0.492524	-1.387479	0.601207
Cu32	Cu	0.742524	-1.137479	0.851207
Cu33	Cu	-0.007469	-1.887509	-0.101178
Cu34	Cu	0.242531	-1.637509	0.148822
Cu35	Cu	0.492531	-1.387509	0.398822
Cu36	Cu	0.742531	-1.137509	0.648822
O37	O	0.127648	-1.875151	0.085572
O38	O	0.377648	-1.625151	0.335572
O39	O	0.627648	-1.375151	0.585572
O40	O	0.877648	-1.125151	0.835572
C41	C	0.019945	-1.595441	0.000010
C42	C	0.269945	-1.345441	0.250010
C43	C	0.519945	-1.095441	0.500010
C44	C	0.769945	-0.845441	0.750010
C45	C	0.030687	-1.418091	0.000008
C46	C	0.280687	-1.168091	0.250008
C47	C	0.530687	-0.918091	0.500008
C48	C	0.780687	-0.668091	0.750008
C49	C	-0.176873	-1.898675	0.000024
C50	C	0.073127	-1.648675	0.250024
C51	C	0.323127	-1.398675	0.500024
C52	C	0.573127	-1.148675	0.750024
C53	C	-0.279007	-1.895231	0.000025
C54	C	-0.029007	-1.645231	0.250025
C55	C	0.220993	-1.395231	0.500025
C56	C	0.470993	-1.145231	0.750025
C57	C	-0.034890	-2.179548	0.000017
C58	C	0.215110	-1.929548	0.250017
C59	C	0.465110	-1.679548	0.500017
C60	C	0.715110	-1.429548	0.750017
C61	C	-0.045631	-2.356897	0.000012
C62	C	0.204369	-2.106897	0.250012
C63	C	0.454369	-1.856897	0.500012
C64	C	0.704369	-1.606897	0.750012
C65	C	-0.652993	-1.882552	-0.000002
C66	C	-0.402993	-1.632552	0.249998
C67	C	-0.152993	-1.382552	0.499998
C68	C	0.097007	-1.132552	0.749998
C69	C	-0.548938	-1.886073	0.000006
C70	C	-0.298938	-1.636073	0.250006
C71	C	-0.048938	-1.386073	0.500006
C72	C	0.201062	-1.136073	0.750006
C73	C	-0.466003	-1.888891	0.000012
C74	C	-0.216003	-1.638891	0.250012
C75	C	0.033997	-1.388891	0.500012
C76	C	0.283997	-1.138891	0.750012
C77	C	-0.361941	-1.892413	0.000018
C78	C	-0.111941	-1.642413	0.250018
C79	C	0.138059	-1.392413	0.500018
C80	C	0.388059	-1.142413	0.750018
C81	C	0.161929	-1.876313	0.000003
C82	C	0.411929	-1.626313	0.250003
C83	C	0.661929	-1.376313	0.500003
C84	C	0.911929	-1.126313	0.750003
C85	C	0.264063	-1.879757	-0.000004
C86	C	0.514063	-1.629757	0.249996
C87	C	0.764063	-1.379757	0.499996
C88	C	1.014063	-1.129757	0.749996
N89	N	-0.007482	-1.887469	0.243555
N90	N	0.242518	-1.637469	0.493555
N91	N	0.492518	-1.387469	0.743555
N92	N	0.742518	-1.137469	0.993555
N93	N	-0.007470	-1.887531	-0.243525
N94	N	0.242530	-1.637531	0.006475
N95	N	0.492530	-1.387531	0.256475
N96	N	0.742530	-1.137531	0.506475
C97	C	-0.007468	-1.887507	0.663369
C98	C	0.242532	-1.637507	0.913369
C99	C	0.492532	-1.387507	1.163369
C100	C	0.742532	-1.137507	1.413369
C101	C	-0.007468	-1.887492	0.546564
C102	C	0.242532	-1.637492	0.796564
C103	C	0.492532	-1.387492	1.046564
C104	C	0.742532	-1.137492	1.296564
C105	C	-0.007474	-1.887489	0.453465
C106	C	0.242526	-1.637489	0.703465
C107	C	0.492526	-1.387489	0.953465
C108	C	0.742526	-1.137489	1.203465
C109	C	-0.007476	-1.887472	0.336653
C110	C	0.242524	-1.637472	0.586653
C111	C	0.492524	-1.387472	0.836653
C112	C	0.742524	-1.137472	1.086653
H113	H	-0.119188	-1.440184	0.000012
H114	H	0.130812	-1.190184	0.250012
H115	H	0.380812	-0.940184	0.500012
H116	H	0.630812	-0.690184	0.750012
H117	H	0.104249	-1.334796	-0.000002
H118	H	0.354249	-1.084796	0.249998
H119	H	0.604249	-0.834796	0.499998
H120	H	0.854249	-0.584796	0.749998
