data_functionalizedCrystal
_audit_creation_method	'MofGen! by Chris Wilmer'
_symmetry_space_group_name_H-M	'P1'
_symmetry_Int_Tables_number	1
_symmetry_cell_setting	triclinic
loop_
_symmetry_equiv_pos_as_xyz
  x,y,z
_cell_length_a	27.731993
_cell_length_b	19.288865
_cell_length_c	17.766277
_cell_angle_alpha	90.011603
_cell_angle_beta	90.002172
_cell_angle_gamma	97.121679
loop_
_atom_site_label
_atom_site_type_symbol
_atom_site_fract_x
_atom_site_fract_y
_atom_site_fract_z
O1	O	0.641197	-0.082469	-0.062400
O2	O	0.974530	0.250864	0.270933
O3	O	1.307864	0.584198	0.604267
O4	O	0.500438	-0.095075	-0.062447
O5	O	0.833771	0.238258	0.270886
O6	O	1.167104	0.571591	0.604219
O7	O	0.574885	0.012385	-0.062407
O8	O	0.908218	0.345718	0.270926
O9	O	1.241551	0.679051	0.604259
O10	O	0.566750	-0.189929	-0.062440
O11	O	0.900083	0.143404	0.270893
O12	O	1.233417	0.476738	0.604227
O13	O	0.574872	0.012390	0.062781
O14	O	0.908205	0.345723	0.396114
O15	O	1.241538	0.679057	0.729448
O16	O	0.500425	-0.095070	0.062741
O17	O	0.833758	0.238263	0.396075
O18	O	1.167091	0.571597	0.729408
O19	O	0.641184	-0.082464	0.062788
O20	O	0.974517	0.250870	0.396122
O21	O	1.307851	0.584203	0.729455
Cu22	Cu	0.570803	-0.088766	0.074196
Cu23	Cu	0.904136	0.244567	0.407529
Cu24	Cu	1.237470	0.577900	0.740862
Cu25	Cu	0.570819	-0.088772	-0.073854
Cu26	Cu	0.904152	0.244561	0.259479
Cu27	Cu	1.237485	0.577894	0.592812
O28	O	0.566737	-0.189924	0.062749
O29	O	0.900070	0.143410	0.396082
O30	O	1.233404	0.476743	0.729415
C31	C	0.482423	-0.094814	0.000141
C32	C	0.815756	0.238520	0.333475
C33	C	1.149090	0.571853	0.666808
C34	C	0.428764	-0.094035	0.000124
C35	C	0.762098	0.239299	0.333457
C36	C	1.095431	0.572632	0.666791
C37	C	0.045594	-0.088389	-0.068079
C38	C	0.378928	0.244944	0.265254
C39	C	0.712261	0.578277	0.598588
C40	C	0.247261	-0.091360	-0.068100
C41	C	0.580594	0.241974	0.265233
C42	C	0.913927	0.575307	0.598567
O43	O	0.273341	-0.091718	-0.126137
O44	O	0.606674	0.241615	0.207196
O45	O	0.940008	0.574949	0.540530
N46	N	0.272475	-0.091728	0.000139
N47	N	0.605808	0.241605	0.333472
N48	N	0.939142	0.574938	0.666805
C49	C	0.247270	-0.091350	0.068388
C50	C	0.580603	0.241983	0.401721
C51	C	0.913937	0.575317	0.735054
O52	O	0.273344	-0.091724	0.126428
O53	O	0.606678	0.241609	0.459762
O54	O	0.940011	0.574942	0.793095
C55	C	0.045605	-0.088375	0.068408
C56	C	0.378938	0.244959	0.401741
C57	C	0.712272	0.578292	0.735074
C58	C	0.020393	-0.088013	0.000164
C59	C	0.353726	0.245320	0.333498
C60	C	0.687059	0.578654	0.666831
C61	C	0.020382	-0.088027	-0.136317
C62	C	0.353715	0.245306	0.197017
C63	C	0.687049	0.578640	0.530350
C64	C	-0.030032	-0.087288	-0.136311
C65	C	0.303301	0.246045	0.197023
C66	C	0.636635	0.579378	0.530356
C67	C	-0.055234	-0.086912	-0.068067
C68	C	0.278100	0.246421	0.265266
C69	C	0.611433	0.579755	0.598600
C70	C	-0.030021	-0.087274	0.000170
C71	C	0.303312	0.246059	0.333504
C72	C	0.636645	0.579392	0.666837
C73	C	0.020401	-0.087991	0.136656
C74	C	0.353735	0.245342	0.469989
C75	C	0.687068	0.578675	0.803322
C76	C	-0.030018	-0.087246	0.136655
C77	C	0.303315	0.246088	0.469988
C78	C	0.636649	0.579421	0.803321
C79	C	-0.055230	-0.086884	0.068411
C80	C	0.278103	0.246449	0.401745
C81	C	0.611436	0.579783	0.735078
C82	C	-0.105637	-0.086159	0.068420
C83	C	0.227696	0.247174	0.401753
C84	C	0.561030	0.580507	0.735086
N85	N	-0.130851	-0.085791	0.000181
N86	N	0.202482	0.247543	0.333514
N87	N	0.535816	0.580876	0.666848
C88	C	-0.105650	-0.086167	-0.068062
C89	C	0.227684	0.247166	0.265271
C90	C	0.561017	0.580500	0.598604
C91	C	0.353147	-0.092913	0.068372
C92	C	0.686480	0.240420	0.401705
C93	C	1.019814	0.573753	0.735039
C94	C	0.403563	-0.093658	0.068367
C95	C	0.736896	0.239675	0.401701
C96	C	1.070229	0.573008	0.735034
C97	C	0.403550	-0.093667	-0.068120
C98	C	0.736883	0.239667	0.265213
C99	C	1.070217	0.573000	0.598546
C100	C	0.353133	-0.092927	-0.068115
C101	C	0.686466	0.240407	0.265219
C102	C	1.019799	0.573740	0.598552
C103	C	0.327933	-0.092545	0.000133
C104	C	0.661266	0.240789	0.333467
C105	C	0.994599	0.574122	0.666800
C106	C	-0.211522	-0.084616	-0.068045
C107	C	0.121811	0.248717	0.265289
C108	C	0.455144	0.582050	0.598622
C109	C	-0.261941	-0.083880	-0.068033
C110	C	0.071392	0.249453	0.265301
C111	C	0.404726	0.582786	0.598634
C112	C	-0.261924	-0.083868	0.068454
C113	C	0.071410	0.249465	0.401788
C114	C	0.404743	0.582798	0.735121
C115	C	-0.211510	-0.084608	0.068443
C116	C	0.121824	0.248725	0.401776
C117	C	0.455157	0.582059	0.735110
C118	C	-0.186310	-0.084979	0.000187
C119	C	0.147023	0.248354	0.333521
C120	C	0.480356	0.581687	0.666854
O121	O	-0.131747	-0.085793	0.126427
O122	O	0.201586	0.247541	0.459760
O123	O	0.534919	0.580874	0.793093
O124	O	-0.131731	-0.085777	-0.126094
O125	O	0.201602	0.247557	0.207239
O126	O	0.534936	0.580890	0.540572
C127	C	0.096008	-0.089128	-0.068085
C128	C	0.429342	0.244205	0.265248
C129	C	0.762675	0.577539	0.598582
C130	C	0.121220	-0.089490	0.000153
C131	C	0.454554	0.243843	0.333486
C132	C	0.787887	0.577176	0.666819
C133	C	0.096019	-0.089114	0.068396
C134	C	0.429352	0.244219	0.401729
C135	C	0.762686	0.577552	0.735063
C136	C	0.171636	-0.090236	0.000148
C137	C	0.504970	0.243098	0.333481
C138	C	0.838303	0.576431	0.666815
C139	C	0.196838	-0.090612	-0.068096
C140	C	0.530171	0.242722	0.265238
C141	C	0.863505	0.576055	0.598571
C142	C	0.171624	-0.090243	-0.136334
C143	C	0.504957	0.243090	0.196999
C144	C	0.838290	0.576424	0.530332
C145	C	0.121210	-0.089504	-0.136328
C146	C	0.454543	0.243829	0.197005
C147	C	0.787876	0.577162	0.530338
C148	C	0.121233	-0.089483	0.136635
C149	C	0.454566	0.243850	0.469968
C150	C	0.787900	0.577184	0.803301
C151	C	0.171647	-0.090222	0.136623
C152	C	0.504980	0.243111	0.469957
C153	C	0.838314	0.576444	0.803290
C154	C	0.196849	-0.090599	0.068380
C155	C	0.530182	0.242735	0.401713
C156	C	0.863515	0.576068	0.735047
C157	C	0.574616	0.038262	0.000189
C158	C	0.907950	0.371596	0.333522
C159	C	1.241283	0.704929	0.666856
C160	C	0.573831	0.115361	0.000195
C161	C	0.907164	0.448694	0.333529
C162	C	1.240497	0.782027	0.666862
C163	C	0.659199	-0.082725	0.000198
C164	C	0.992532	0.250608	0.333532
C165	C	1.325865	0.583942	0.666865
C166	C	0.712857	-0.083504	0.000211
C167	C	1.046191	0.249829	0.333544
C168	C	1.379524	0.583163	0.666877
C169	C	0.567005	-0.215801	0.000150
C170	C	0.900339	0.117532	0.333484
C171	C	1.233672	0.450866	0.666817
C172	C	0.567791	-0.292899	0.000139
C173	C	0.901124	0.040434	0.333473
C174	C	1.234458	0.373767	0.666806
N175	N	0.570796	-0.088761	0.178326
N176	N	0.904129	0.244572	0.511659
N177	N	1.237462	0.577905	0.844993
C178	C	0.617513	0.160342	0.000214
C179	C	0.950846	0.493675	0.333547
C180	C	1.284179	0.827008	0.666880
C181	C	0.616775	0.232784	0.000202
C182	C	0.950108	0.566117	0.333535
C183	C	1.283441	0.899451	0.666868
C184	C	0.572352	0.260242	0.000186
C185	C	0.905685	0.593575	0.333519
C186	C	1.239018	0.926909	0.666853
C187	C	0.528664	0.215251	0.000164
C188	C	0.861997	0.548584	0.333497
C189	C	1.195331	0.881918	0.666830
C190	C	0.529403	0.142810	0.000168
C191	C	0.862737	0.476144	0.333502
C192	C	1.196070	0.809477	0.666835
C193	C	0.537426	0.368304	0.044025
C194	C	0.870759	0.701637	0.377359
C195	C	1.204092	1.034970	0.710692
C196	C	0.536688	0.440743	0.044025
C197	C	0.870022	0.774077	0.377359
C198	C	1.203355	1.107410	0.710692
C199	C	0.570069	0.483673	0.000169
C200	C	0.903403	0.817006	0.333502
C201	C	1.236736	1.150339	0.666835
C202	C	0.604196	0.454155	-0.043679
C203	C	0.937530	0.787488	0.289655
C204	C	1.270863	1.120822	0.622988
C205	C	0.604936	0.381714	-0.043674
C206	C	0.938269	0.715048	0.289659
C207	C	1.271602	1.048381	0.622993
C208	C	0.571545	0.338791	0.000181
C209	C	0.904878	0.672124	0.333514
C210	C	1.238212	1.005457	0.666847
C211	C	0.612954	0.607204	0.000173
C212	C	0.946287	0.940538	0.333506
C213	C	1.279621	1.273871	0.666839
C214	C	0.612214	0.679648	0.000156
C215	C	0.945547	1.012981	0.333489
C216	C	1.278881	1.346314	0.666822
C217	C	0.524102	0.662113	0.000125
C218	C	0.857436	0.995446	0.333459
C219	C	1.190769	1.328780	0.666792
C220	C	0.524844	0.589672	0.000135
C221	C	0.858177	0.923005	0.333468
C222	C	1.191510	1.256338	0.666801
C223	C	0.569271	0.562222	0.000162
C224	C	0.902604	0.895555	0.333495
C225	C	1.235937	1.228888	0.666829
N226	N	0.570830	-0.088772	-0.177985
N227	N	0.904163	0.244561	0.155349
N228	N	1.237496	0.577895	0.488682
C229	C	0.603771	-0.041201	0.217730
C230	C	0.937105	0.292132	0.551064
C231	C	1.270438	0.625466	0.884397
C232	C	0.603774	-0.041198	0.296532
C233	C	0.937108	0.292135	0.629866
C234	C	1.270441	0.625469	0.963199
C235	C	0.570806	-0.088767	0.335926
C236	C	0.904139	0.244567	0.669260
C237	C	1.237473	0.577900	1.002593
C238	C	0.537824	-0.136331	0.296512
C239	C	0.871157	0.197003	0.629846
C240	C	1.204491	0.530336	0.963179
C241	C	0.537819	-0.136328	0.217712
C242	C	0.871152	0.197005	0.551045
C243	C	1.204486	0.530339	0.884379
C244	C	0.564335	-0.152097	0.460753
C245	C	0.897668	0.181237	0.794086
C246	C	1.231001	0.514570	1.127420
C247	C	0.564343	-0.152100	0.539552
C248	C	0.897676	0.181233	0.872885
C249	C	1.231010	0.514566	1.206218
C250	C	0.570819	-0.088775	0.578973
C251	C	0.904152	0.244558	0.912306
C252	C	1.237486	0.577892	1.245639
C253	C	0.577296	-0.025443	0.539585
C254	C	0.910630	0.307890	0.872919
C255	C	1.243963	0.641223	1.206252
C256	C	0.577291	-0.025441	0.460785
C257	C	0.910625	0.307893	0.794118
C258	C	1.243958	0.641226	1.127452
C259	C	0.570808	-0.088775	0.421372
C260	C	0.904141	0.244559	0.754705
C261	C	1.237474	0.577892	1.088039
C262	C	0.603799	-0.041207	0.703823
C263	C	0.937133	0.292126	1.037157
C264	C	1.270466	0.625459	1.370490
C265	C	0.603799	-0.041203	0.782627
C266	C	0.937132	0.292130	1.115960
C267	C	1.270466	0.625463	1.449293
C268	C	0.537851	-0.136342	0.782605
C269	C	0.871184	0.196991	1.115938
C270	C	1.204518	0.530325	1.449272
C271	C	0.537849	-0.136340	0.703803
C272	C	0.871183	0.196993	1.037137
C273	C	1.204516	0.530327	1.370470
C274	C	0.570826	-0.088774	0.664417
C275	C	0.904159	0.244560	0.997751
C276	C	1.237493	0.577893	1.331084
H277	H	-0.191011	-0.084920	-0.123625
H278	H	0.142322	0.248414	0.209708
H279	H	0.475656	0.581747	0.543042
Cl280	Cl	-0.179814	-0.085071	0.154235
Cl281	Cl	0.153519	0.248262	0.487568
Cl282	Cl	0.486852	0.581595	0.820902
Cl283	Cl	-0.293615	-0.083397	0.154242
Cl284	Cl	0.039718	0.249936	0.487575
Cl285	Cl	0.373051	0.583270	0.820908
H286	H	0.653689	0.137997	0.000233
H287	H	0.987022	0.471331	0.333567
H288	H	1.320355	0.804664	0.666900
H289	H	0.424085	-0.093964	0.123938
H290	H	0.757419	0.239369	0.457271
H291	H	1.090752	0.572703	0.790604
Cl292	Cl	0.671693	0.289342	0.000224
Cl293	Cl	1.005027	0.622675	0.333557
Cl294	Cl	1.338360	0.956009	0.666891
H295	H	-0.050555	-0.086991	-0.191881
H296	H	0.282778	0.246343	0.141452
H297	H	0.616112	0.579676	0.474785
H298	H	0.631378	0.489107	-0.079391
H299	H	0.964712	0.822441	0.253942
H300	H	1.298045	1.155774	0.587275
Cl301	Cl	0.435241	-0.094141	-0.153912
Cl302	Cl	0.768575	0.239193	0.179422
Cl303	Cl	1.101908	0.572526	0.512755
H304	H	0.040896	-0.088331	-0.191892
H305	H	0.374229	0.245002	0.141442
H306	H	0.707563	0.578336	0.474775
H307	H	0.493831	0.106186	0.000154
H308	H	0.827164	0.439519	0.333487
H309	H	1.160498	0.772853	0.666820
Cl310	Cl	0.089558	-0.089018	0.222436
Cl311	Cl	0.422891	0.244316	0.555769
Cl312	Cl	0.756225	0.577649	0.889102
H313	H	0.508898	0.464770	0.079724
H314	H	0.842231	0.798103	0.413057
H315	H	1.175565	1.131437	0.746391
Cl316	Cl	0.089522	-0.089048	-0.222125
Cl317	Cl	0.422855	0.244285	0.111209
Cl318	Cl	0.756189	0.577618	0.444542
H319	H	0.630622	-0.002468	0.185664
H320	H	0.963955	0.330865	0.518998
H321	H	1.297289	0.664199	0.852331
H322	H	-0.050534	-0.086941	0.192232
H323	H	0.282799	0.246393	0.525565
H324	H	0.616133	0.579726	0.858898
H325	H	0.192151	-0.090554	-0.191901
H326	H	0.525485	0.242780	0.141433
H327	H	0.858818	0.576113	0.474766
H328	H	0.511006	-0.175071	0.814679
H329	H	0.844339	0.158262	1.148013
H330	H	1.177672	0.491596	1.481346
H331	H	0.630628	-0.002467	0.328621
H332	H	0.963961	0.330866	0.661955
H333	H	1.297295	0.664200	0.995288
H334	H	0.332608	-0.092632	-0.123684
H335	H	0.665942	0.240701	0.209649
H336	H	0.999275	0.574035	0.542982
H337	H	0.649129	0.584854	0.000191
H338	H	0.982463	0.918187	0.333525
H339	H	1.315796	1.251521	0.666858
H340	H	0.647787	0.716271	0.000167
H341	H	0.981120	1.049605	0.333500
H342	H	1.314453	1.382938	0.666833
H343	H	0.630650	-0.002474	0.671754
H344	H	0.963983	0.330860	1.005087
H345	H	1.297316	0.664193	1.338420
Cl346	Cl	0.585429	0.054172	0.411272
Cl347	Cl	0.918762	0.387505	0.744605
Cl348	Cl	1.252095	0.720839	1.077938
Cl349	Cl	0.585442	0.054171	0.589134
Cl350	Cl	0.918775	0.387504	0.922467
Cl351	Cl	1.252108	0.720838	1.255801
H352	H	0.040921	-0.088284	0.192227
H353	H	0.374254	0.245050	0.525560
H354	H	0.707588	0.578383	0.858893
H355	H	0.630650	-0.002470	0.814710
H356	H	0.963983	0.330863	1.148044
H357	H	1.297317	0.664196	1.481377
Cl358	Cl	0.496361	-0.196124	0.168172
Cl359	Cl	0.829694	0.137210	0.501505
Cl360	Cl	1.163028	0.470543	0.834838
H361	H	0.332634	-0.092600	0.123951
H362	H	0.665967	0.240733	0.457285
H363	H	0.999300	0.574067	0.790618
Cl364	Cl	0.468256	0.696625	0.000102
Cl365	Cl	0.801589	1.029958	0.333435
Cl366	Cl	1.134923	1.363291	0.666768
H367	H	0.192170	-0.090523	0.192199
H368	H	0.525503	0.242811	0.525533
H369	H	0.858837	0.576144	0.858866
Cl370	Cl	0.647833	0.344608	-0.098798
Cl371	Cl	0.981166	0.677941	0.234535
Cl372	Cl	1.314500	1.011275	0.567868
H373	H	0.492495	0.237612	0.000149
H374	H	0.825828	0.570945	0.333483
H375	H	1.159161	0.904279	0.666816
H376	H	0.489273	0.553047	0.000124
H377	H	0.822606	0.886380	0.333457
H378	H	1.155940	1.219713	0.666791
Cl379	Cl	0.495458	0.314342	0.099167
Cl380	Cl	0.828791	0.647676	0.432501
Cl381	Cl	1.162124	0.981009	0.765834
H382	H	0.510999	-0.175071	0.671718
H383	H	0.844333	0.158262	1.005051
H384	H	1.177666	0.491596	1.338385
Cl385	Cl	0.556204	-0.231716	0.589059
Cl386	Cl	0.889537	0.101617	0.922393
Cl387	Cl	1.222870	0.434951	1.255726
H388	H	0.559053	-0.203667	0.428663
H389	H	0.892386	0.129666	0.761996
H390	H	1.225720	0.463000	1.095330
Cl391	Cl	0.496376	-0.196129	0.346035
Cl392	Cl	0.829709	0.137204	0.679368
Cl393	Cl	1.163043	0.470538	1.012701
H394	H	-0.282467	-0.083588	-0.123607
H395	H	0.050866	0.249745	0.209726
H396	H	0.384200	0.583079	0.543060
