data_functionalizedCrystal
_audit_creation_method	'MofGen! by Chris Wilmer'
_symmetry_space_group_name_H-M	'P1'
_symmetry_Int_Tables_number	1
_symmetry_cell_setting	triclinic
loop_
_symmetry_equiv_pos_as_xyz
  x,y,z
_cell_length_a	18.215407
_cell_length_b	11.169416
_cell_length_c	18.215399
_cell_angle_alpha	89.979313
_cell_angle_beta	90.017331
_cell_angle_gamma	90.001249
loop_
_atom_site_label
_atom_site_type_symbol
_atom_site_fract_x
_atom_site_fract_y
_atom_site_fract_z
Zn1	Zn	1.125174	0.477990	0.416115
Zn2	Zn	1.125128	0.678700	0.293066
Zn3	Zn	1.002108	0.478010	0.293067
Zn4	Zn	1.002117	0.678611	0.416095
O5	O	1.063632	0.578328	0.354586
O6	O	1.228152	0.504644	0.399801
O7	O	1.108786	0.652123	0.190082
O8	O	1.018448	0.310058	0.309399
O9	O	1.228118	0.652104	0.309396
O10	O	1.108865	0.310043	0.399802
O11	O	1.018403	0.504678	0.190083
O12	O	0.899125	0.504591	0.309379
O13	O	1.018464	0.651952	0.519082
O14	O	0.899131	0.651972	0.399767
O15	O	1.108873	0.504557	0.519097
O16	O	1.108795	0.846638	0.309377
O17	O	1.018419	0.846572	0.399766
C18	C	0.872425	0.578275	0.354571
C19	C	0.790626	0.578281	0.354583
C20	C	0.525581	0.501693	0.401734
C21	C	0.602440	0.501673	0.401732
C22	C	0.602423	0.655001	0.307453
C23	C	0.525566	0.655026	0.307460
C24	C	0.487147	0.578365	0.354599
C25	C	0.640863	0.578321	0.354590
C26	C	0.724197	0.578300	0.354588
C27	C	0.403808	0.578387	0.354603
C28	C	1.063660	0.265285	0.354603
C29	C	1.063673	0.131885	0.354610
C30	C	1.255584	0.578382	0.354601
C31	C	1.337383	0.578405	0.354607
C32	C	1.063623	0.890152	0.354585
C33	C	1.063686	1.023552	0.354609
C34	C	1.063631	0.578326	0.163380
C35	C	1.063755	0.578024	0.081581
C36	C	1.063675	0.578243	0.546539
C37	C	1.063693	0.578206	0.628338
C38	C	1.110797	0.501354	0.893405
C39	C	1.110788	0.501387	0.816546
C40	C	1.016649	0.654885	0.816520
C41	C	1.016662	0.654857	0.893377
C42	C	1.063735	0.578085	0.931818
C43	C	1.063713	0.578145	0.778101
C44	C	1.063703	0.578181	0.694768
C45	C	1.063746	0.578051	1.015157
H46	H	0.633714	0.717414	0.269073
H47	H	1.149126	0.438841	0.924700
O48	O	0.970874	0.729436	0.930583
C49	C	0.929332	0.797217	0.880175
H50	H	0.926773	0.748080	0.825392
H51	H	0.956277	0.888375	0.871997
C52	C	0.854157	0.874844	0.977450
C53	C	0.851008	0.814488	0.910166
H54	H	0.805844	0.885503	0.995950
H55	H	0.882145	0.829183	1.011411
H56	H	0.876614	0.950803	0.970625
H57	H	0.828560	0.738525	0.916993
H58	H	0.823014	0.860137	0.876206
O59	O	0.488374	0.427199	0.447599
C60	C	0.538782	0.359504	0.489188
H61	H	0.593576	0.408652	0.491681
H62	H	0.546933	0.268294	0.462329
C63	C	0.441517	0.282015	0.564473
C64	C	0.508815	0.342384	0.567539
H65	H	0.423032	0.271448	0.612802
H66	H	0.407556	0.327618	0.536451
H67	H	0.448319	0.206013	0.542087
H68	H	0.502010	0.418389	0.589916
H69	H	0.542775	0.296792	0.595567
O70	O	0.639807	0.427363	0.447596
C71	C	0.684302	0.495770	0.495050
H72	H	0.661154	0.590311	0.499508
H73	H	0.742544	0.499842	0.472291
C74	C	0.713931	0.321164	0.566136
C75	C	0.685497	0.437279	0.571615
H76	H	0.714672	0.285083	0.613364
H77	H	0.683956	0.275076	0.534164
H78	H	0.762464	0.324574	0.547167
H79	H	0.636963	0.433867	0.590575
H80	H	0.715464	0.483366	0.603593
O81	O	1.156571	0.427010	0.779194
C82	C	1.204085	0.495346	0.734718
H83	H	1.208646	0.589862	0.757873
H84	H	1.181315	0.499507	0.676469
C85	C	1.274982	0.320610	0.705105
C86	C	1.280589	0.436694	0.733548
H87	H	1.322173	0.284429	0.704379
H88	H	1.242970	0.274569	0.735067
H89	H	1.256004	0.324094	0.656566
H90	H	1.299558	0.433208	0.782088
H91	H	1.312606	0.482733	0.703594
H92	H	0.494272	0.717468	0.269077
H93	H	0.978324	0.717388	0.785212
