data_functionalizedCrystal
_audit_creation_method	'MofGen! by Chris Wilmer'
_symmetry_space_group_name_H-M	'P1'
_symmetry_Int_Tables_number	1
_symmetry_cell_setting	triclinic
loop_
_symmetry_equiv_pos_as_xyz
  x,y,z
_cell_length_a	12.759401
_cell_length_b	19.121063
_cell_length_c	12.759393
_cell_angle_alpha	92.404024
_cell_angle_beta	89.981708
_cell_angle_gamma	92.469017
loop_
_atom_site_label
_atom_site_type_symbol
_atom_site_fract_x
_atom_site_fract_y
_atom_site_fract_z
Zn1	Zn	1.588319	-0.279576	-0.611772
Zn2	Zn	2.088319	0.220424	-0.111772
Zn3	Zn	1.580678	-0.397043	-0.443567
Zn4	Zn	2.080678	0.102957	0.056433
Zn5	Zn	1.412619	-0.279611	-0.436113
Zn6	Zn	1.912619	0.220389	0.063887
Zn7	Zn	1.405077	-0.396991	-0.619205
Zn8	Zn	1.905077	0.103009	-0.119205
O9	O	1.496673	-0.338305	-0.527664
O10	O	1.996673	0.161695	-0.027664
O11	O	1.734326	-0.295166	-0.589468
O12	O	2.234326	0.204834	-0.089468
O13	O	1.558343	-0.381501	-0.295559
O14	O	2.058343	0.118499	0.204441
O15	O	1.442280	-0.181322	-0.453185
O16	O	1.942280	0.318678	0.046815
O17	O	1.728712	-0.381468	-0.465888
O18	O	2.228712	0.118532	0.034112
O19	O	1.571366	-0.181297	-0.582240
O20	O	2.071366	0.318703	-0.082240
O21	O	1.434871	-0.295224	-0.290083
O22	O	1.934871	0.204776	0.209917
O23	O	1.264598	-0.295174	-0.460392
O24	O	1.764598	0.204826	0.039608
O25	O	1.429426	-0.381380	-0.765238
O26	O	1.929426	0.118620	-0.265238
O27	O	1.259057	-0.381413	-0.594909
O28	O	1.759057	0.118587	-0.094909
O29	O	1.564052	-0.295115	-0.759777
O30	O	2.064052	0.204885	-0.259777
O31	O	1.551030	-0.495320	-0.473096
O32	O	2.051030	0.004680	0.026904
O33	O	1.422017	-0.495282	-0.602136
O34	O	1.922017	0.004718	-0.102136
C35	C	1.223707	-0.338292	-0.527649
C36	C	1.723707	0.161708	-0.027649
C37	C	1.106929	-0.338304	-0.527669
C38	C	1.606929	0.161696	-0.027669
C39	C	1.049205	-0.383280	-0.597605
C40	C	1.549205	0.116720	-0.097605
C41	C	0.939480	-0.383289	-0.597617
C42	C	1.439480	0.116711	-0.097617
C43	C	0.945214	-0.293343	-0.457747
C44	C	1.445214	0.206657	0.042253
C45	C	1.054937	-0.293331	-0.457741
C46	C	1.554937	0.206669	0.042259
C47	C	1.045894	-0.435212	-0.678355
C48	C	1.545894	0.064788	-0.178355
C49	C	0.936169	-0.435221	-0.678367
C50	C	1.436169	0.064779	-0.178367
C51	C	1.484905	-0.520785	-0.539254
C52	C	1.984905	-0.020785	-0.039254
C53	C	1.479966	-0.598851	-0.544248
C54	C	1.979966	-0.098851	-0.044248
C55	C	1.544869	-0.635523	-0.479465
C56	C	2.044869	-0.135523	0.020535
C57	C	1.540230	-0.708874	-0.484167
C58	C	2.040230	-0.208874	0.015833
C59	C	1.470684	-0.745551	-0.553648
C60	C	1.970684	-0.245551	-0.053648
C61	C	1.405778	-0.708874	-0.618438
C62	C	1.905778	-0.208874	-0.118438
C63	C	1.410423	-0.635525	-0.613740
C64	C	1.910423	-0.135525	-0.113740
C65	C	1.453302	-0.967020	-0.571196
C66	C	1.953302	-0.467020	-0.071196
C67	C	1.448660	-1.040375	-0.575887
C68	C	1.948660	-0.540375	-0.075887
C69	C	1.583114	-1.040369	-0.441616
C70	C	2.083114	-0.540369	0.058384
C71	C	1.587748	-0.967018	-0.436920
C72	C	2.087748	-0.467018	0.063080
C73	C	1.522847	-0.930348	-0.501714
C74	C	2.022847	-0.430348	-0.001714
C75	C	1.465938	-0.820528	-0.558454
C76	C	1.965938	-0.320528	-0.058454
C77	C	1.527598	-0.855372	-0.496913
C78	C	2.027598	-0.355372	0.003087
C79	C	1.770706	-0.338319	-0.527680
C80	C	2.270706	0.161681	-0.027680
C81	C	1.887482	-0.338324	-0.527687
C82	C	2.387482	0.161676	-0.027687
C83	C	1.496750	-0.338238	-0.801693
C84	C	1.996750	0.161762	-0.301693
C85	C	1.496783	-0.338209	-0.918468
C86	C	1.996783	0.161791	-0.418468
C87	C	1.508516	-0.155113	-0.516052
C88	C	2.008516	0.344887	-0.016052
C89	C	1.513563	-0.077047	-0.511104
C90	C	2.013563	0.422953	-0.011104
C91	C	1.561079	-0.383116	-0.976178
C92	C	2.061079	0.116884	-0.476178
C93	C	1.561113	-0.383087	-1.085900
C94	C	2.061113	0.116913	-0.585900
C95	C	1.432545	-0.293240	-1.080193
C96	C	1.932545	0.206760	-0.580193
C97	C	1.432517	-0.293267	-0.970473
C98	C	1.932517	0.206733	-0.470473
C99	C	1.635304	-0.434991	-0.979474
C100	C	2.135304	0.065009	-0.479474
C101	C	1.635337	-0.434961	-1.089196
C102	C	2.135337	0.065039	-0.589196
C103	C	1.496660	-0.338322	-0.254698
C104	C	1.996660	0.161678	0.245302
C105	C	1.496844	-0.338152	-0.137911
C106	C	1.996844	0.161848	0.362089
H107	H	0.902885	-0.489603	-0.659895
H108	H	1.402885	0.010397	-0.159895
F109	F	1.364153	-0.245412	-1.135550
F110	F	1.864153	0.254588	-0.635550
F111	F	0.893353	-0.409844	-0.777853
F112	F	1.393353	0.090156	-0.277853
H113	H	1.357574	-0.605667	-0.666495
H114	H	1.857574	-0.105667	-0.166495
H115	H	1.593080	-0.738729	-0.431413
H116	H	2.093080	-0.238729	0.068587
F117	F	1.602259	-0.506047	-1.132629
F118	F	2.102259	-0.006047	-0.632629
F119	F	1.742880	-0.415968	-0.939353
F120	F	2.242880	0.084032	-0.439353
F121	F	1.331767	-0.747912	-0.692391
F122	F	1.831767	-0.247912	-0.192391
H123	H	1.584227	-0.825507	-0.440345
H124	H	2.084227	-0.325507	0.059655
F125	F	1.391923	-0.859569	-0.632398
F126	F	1.891923	-0.359569	-0.132398
H127	H	0.902869	-0.256727	-0.400816
H128	H	1.402869	0.243273	0.099184
F129	F	1.116369	-0.245450	-0.383321
F130	F	1.616369	0.254550	0.116679
F131	F	1.592822	-0.502534	-0.939264
F132	F	2.092822	-0.002534	-0.439264
H133	H	1.380170	-0.256694	-0.923489
H134	H	1.880170	0.243306	-0.423489
F135	F	1.618884	-0.596494	-0.405507
F136	F	2.118884	-0.096494	0.094493
F137	F	1.738038	-0.409513	-1.132076
F138	F	2.238038	0.090487	-0.632076
F139	F	1.086076	-0.416254	-0.783551
F140	F	1.586076	0.083746	-0.283551
H141	H	1.076595	-0.486855	-0.652356
H142	H	1.576595	0.013145	-0.152356
H143	H	1.644379	-0.937157	-0.380344
H144	H	2.144379	-0.437157	0.119656
H145	H	1.635955	-1.070234	-0.388867
H146	H	2.135955	-0.570234	0.111133
H147	H	1.392040	-1.070236	-0.632485
H148	H	1.892040	-0.570236	-0.132485
H149	H	1.400455	-0.937169	-0.623952
H150	H	1.900455	-0.437169	-0.123952
