data_functionalizedCrystal
_audit_creation_method	'MofGen! by Chris Wilmer'
_symmetry_space_group_name_H-M	'P1'
_symmetry_Int_Tables_number	1
_symmetry_cell_setting	triclinic
loop_
_symmetry_equiv_pos_as_xyz
  x,y,z
_cell_length_a	12.759401
_cell_length_b	12.759394
_cell_length_c	12.759393
_cell_angle_alpha	90.030331
_cell_angle_beta	90.018496
_cell_angle_gamma	90.014802
loop_
_atom_site_label
_atom_site_type_symbol
_atom_site_fract_x
_atom_site_fract_y
_atom_site_fract_z
Zn1	Zn	1.606256	-0.418200	0.593990
Zn2	Zn	2.106256	0.081800	1.093990
Zn3	Zn	1.606150	-0.593919	0.418314
Zn4	Zn	2.106150	-0.093919	0.918314
Zn5	Zn	1.430558	-0.418255	0.418330
Zn6	Zn	1.930558	0.081745	0.918330
Zn7	Zn	1.430547	-0.593838	0.593956
Zn8	Zn	1.930547	-0.093838	1.093956
O9	O	1.518378	-0.506053	0.506148
O10	O	2.018378	-0.006053	1.006148
O11	O	1.753263	-0.441520	0.570695
O12	O	2.253263	0.058480	1.070695
O13	O	1.582818	-0.570674	0.271295
O14	O	2.082818	-0.070674	0.771295
O15	O	1.453913	-0.271227	0.441652
O16	O	1.953913	0.228773	0.941652
O17	O	1.753185	-0.570620	0.441626
O18	O	2.253185	-0.070620	0.941626
O19	O	1.582998	-0.271186	0.570710
O20	O	2.082998	0.228814	1.070710
O21	O	1.453811	-0.441614	0.271307
O22	O	1.953811	0.058386	0.771307
O23	O	1.283535	-0.441536	0.441619
O24	O	1.783535	0.058464	0.941619
O25	O	1.453894	-0.570482	0.740981
O26	O	1.953894	-0.070482	1.240981
O27	O	1.283527	-0.570536	0.570651
O28	O	1.783527	-0.070536	1.070651
O29	O	1.582987	-0.441442	0.741007
O30	O	2.082987	0.058558	1.241007
O31	O	1.582807	-0.740929	0.441593
O32	O	2.082807	-0.240929	0.941593
O33	O	1.453792	-0.740870	0.570636
O34	O	1.953792	-0.240870	1.070636
C35	C	1.245410	-0.506034	0.506133
C36	C	1.745410	-0.006034	1.006133
C37	C	1.128634	-0.506051	0.506152
C38	C	1.628634	-0.006051	1.006152
C39	C	1.073795	-0.573329	0.573228
C40	C	1.573795	-0.073329	1.073228
C41	C	0.964071	-0.573342	0.573239
C42	C	1.464071	-0.073342	1.073239
C43	C	0.964034	-0.438796	0.439090
C44	C	1.464034	0.061204	0.939090
C45	C	1.073756	-0.438779	0.439085
C46	C	1.573756	0.061221	0.939085
C47	C	1.128672	-0.640601	0.640295
C48	C	1.628672	-0.140601	1.140295
C49	C	1.073834	-0.707885	0.707375
C50	C	1.573834	-0.207885	1.207375
C51	C	0.964109	-0.707898	0.707387
C52	C	1.464109	-0.207898	1.207387
C53	C	0.909224	-0.640627	0.640318
C54	C	1.409224	-0.140627	1.140318
C55	C	1.518316	-0.779021	0.506131
C56	C	2.018316	-0.279021	1.006131
C57	C	1.518385	-0.895797	0.506160
C58	C	2.018385	-0.395797	1.006160
C59	C	1.652952	-1.115229	0.371931
C60	C	2.152952	-0.615229	0.871931
C61	C	1.720148	-1.060362	0.304788
C62	C	2.220148	-0.560362	0.804788
C63	C	1.720094	-0.950640	0.304767
C64	C	2.220094	-0.450640	0.804767
C65	C	1.652833	-0.895784	0.371895
C66	C	2.152833	-0.395784	0.871895
C67	C	1.585636	-0.950651	0.439038
C68	C	2.085636	-0.450651	0.939038
C69	C	1.585700	-1.060375	0.439053
C70	C	2.085700	-0.560375	0.939053
C71	C	1.451188	-0.950665	0.573303
C72	C	1.951188	-0.450665	1.073303
C73	C	1.451247	-1.060386	0.573330
C74	C	1.951247	-0.560386	1.073330
C75	C	1.383927	-0.895808	0.640430
C76	C	1.883927	-0.395808	1.140430
C77	C	1.316734	-0.950676	0.707580
C78	C	1.816734	-0.450676	1.207580
C79	C	1.316793	-1.060404	0.707599
C80	C	1.816793	-0.560404	1.207599
C81	C	1.384050	-1.115254	0.640473
C82	C	1.884050	-0.615254	1.140473
C83	C	1.792411	-0.506073	0.506162
C84	C	2.292411	-0.006073	1.006162
C85	C	1.909188	-0.506082	0.506169
C86	C	2.409188	-0.006082	1.006169
C87	C	1.518451	-0.505947	0.780181
C88	C	2.018451	-0.005947	1.280181
C89	C	1.518483	-0.505902	0.896958
C90	C	2.018483	-0.005902	1.396958
C91	C	1.518469	-0.232020	0.506187
C92	C	2.018469	0.267980	1.006187
C93	C	1.518507	-0.115243	0.506203
C94	C	2.018507	0.384757	1.006203
C95	C	1.518365	-0.506083	0.233180
C96	C	2.018365	-0.006083	0.733180
C97	C	1.518537	-0.505832	0.116404
C98	C	2.018537	-0.005832	0.616404
C99	C	1.585710	-0.438704	0.951835
C100	C	2.085710	0.061296	1.451835
C101	C	1.585735	-0.438666	1.061559
C102	C	2.085735	0.061334	1.561559
C103	C	1.451302	-0.573033	1.061519
C104	C	1.951302	-0.073033	1.561519
C105	C	1.451272	-0.573065	0.951797
C106	C	1.951272	-0.073065	1.451797
C107	C	1.652921	-0.371541	0.896995
C108	C	2.152921	0.128459	1.396995
C109	C	1.720155	-0.304339	0.951872
C110	C	2.220155	0.195661	1.451872
C111	C	1.720180	-0.304301	1.061596
C112	C	2.220180	0.195699	1.561596
C113	C	1.652971	-0.371465	1.116444
C114	C	2.152971	0.128535	1.616444
H115	H	1.118528	-0.762648	0.761987
H116	H	1.618528	-0.262648	1.261987
Cl117	Cl	1.804704	-0.219823	1.130582
Cl118	Cl	2.304704	0.280177	1.630582
H119	H	0.919463	-0.762677	0.762014
H120	H	1.419463	-0.262677	1.262014
Cl121	Cl	0.771284	-0.640638	0.640343
Cl122	Cl	1.271284	-0.140638	1.140343
Cl123	Cl	1.652897	-0.371588	0.759057
Cl124	Cl	2.152897	0.128412	1.259057
H125	H	1.774807	-0.905967	0.250090
H126	H	2.274807	-0.405967	0.750090
H127	H	1.118407	-0.383987	0.384474
H128	H	1.618407	0.116013	0.884474
Cl129	Cl	1.366754	-0.657542	0.882804
Cl130	Cl	1.866754	-0.157542	1.382804
Cl131	Cl	1.652618	-1.253165	0.371544
Cl132	Cl	2.152618	-0.753165	0.871544
H133	H	0.919338	-0.384029	0.384485
H134	H	1.419338	0.115971	0.884485
H135	H	1.774908	-1.105038	0.250132
H136	H	2.274908	-0.605038	0.750132
Cl137	Cl	1.383738	-1.253190	0.640100
Cl138	Cl	1.883738	-0.753190	1.140100
H139	H	1.262074	-1.105071	0.762276
H140	H	1.762074	-0.605071	1.262276
Cl141	Cl	1.804625	-0.219892	0.882924
Cl142	Cl	2.304625	0.280108	1.382924
H143	H	1.652984	-0.371417	1.205788
H144	H	2.152984	0.128583	1.705788
H145	H	1.396583	-0.627714	1.106185
H146	H	1.896583	-0.127714	1.606185
Cl147	Cl	1.653038	-0.757847	0.372138
Cl148	Cl	2.153038	-0.257847	0.872138
H149	H	1.383884	-0.806467	0.640404
H150	H	1.883884	-0.306467	1.140404
H151	H	1.261971	-0.906005	0.762225
H152	H	1.761971	-0.406005	1.262225
H153	H	1.218015	-0.640599	0.640291
H154	H	1.718015	-0.140599	1.140291
