data_functionalizedCrystal
_audit_creation_method	'MofGen! by Chris Wilmer'
_symmetry_space_group_name_H-M	'P1'
_symmetry_Int_Tables_number	1
_symmetry_cell_setting	triclinic
loop_
_symmetry_equiv_pos_as_xyz
  x,y,z
_cell_length_a	31.640172
_cell_length_b	21.606444
_cell_length_c	21.606444
_cell_angle_alpha	59.990220
_cell_angle_beta	90.002990
_cell_angle_gamma	60.001198
loop_
_atom_site_label
_atom_site_type_symbol
_atom_site_fract_x
_atom_site_fract_y
_atom_site_fract_z
Zr1	Zr	0.407185	0.677437	-0.081256
O2	O	0.339696	0.806582	-0.180117
O3	O	0.427873	0.548302	-0.050935
O4	O	0.427874	0.677435	-0.180078
O5	O	0.339695	0.677446	0.050880
O6	O	0.497432	0.677422	-0.180064
O7	O	0.339695	0.677448	-0.050974
O8	O	0.497430	0.446426	0.050949
O9	O	0.339696	0.908442	-0.180134
O10	O	0.488607	0.601403	-0.038011
O11	O	0.436697	0.601411	0.037991
O12	O	0.436698	0.753449	-0.114059
O13	O	0.384788	0.753457	-0.038057
Zr14	Zr	0.518120	0.677412	0.081210
Zr15	Zr	0.518120	0.677416	-0.081234
Zr16	Zr	0.407184	0.677433	0.081188
Zr17	Zr	0.407185	0.839892	-0.081283
Zr18	Zr	0.518119	0.514957	0.081237
O19	O	0.497431	0.806547	0.050889
O20	O	0.497432	0.806552	-0.180086
O21	O	0.339695	0.806576	0.050858
O22	O	0.585608	0.548267	0.180070
O23	O	0.585609	0.548273	-0.050904
O24	O	0.427873	0.548296	0.180040
O25	O	0.585610	0.677403	-0.050926
O26	O	0.497430	0.677414	0.180032
O27	O	0.427873	0.677427	0.180018
O28	O	0.585609	0.677400	0.050927
O29	O	0.427875	0.908425	-0.180116
O30	O	0.497429	0.446423	0.180070
O31	O	0.585608	0.446407	0.180087
O32	O	0.585609	0.446410	0.050966
O33	O	0.339696	0.908439	-0.051012
O34	O	0.427875	0.908422	-0.050995
O35	O	0.488606	0.601400	0.114012
O36	O	0.540516	0.601392	0.038011
O37	O	0.488608	0.753438	-0.038037
O38	O	0.436698	0.753445	0.037965
C39	C	0.462651	0.474218	0.000011
C40	C	0.462651	0.405251	0.000022
C41	C	0.424330	0.428994	-0.056113
C42	C	0.424332	0.364205	-0.056128
C43	C	0.462652	0.275673	-0.000005
C44	C	0.500977	0.251930	0.056133
C45	C	0.500977	0.316719	0.056145
C46	C	0.500977	-0.009356	0.056085
C47	C	0.500972	-0.074145	0.056070
C48	C	0.424331	0.038130	-0.056188
C49	C	0.424332	0.102919	-0.056176
C50	C	0.462657	0.079170	-0.000041
C51	C	0.462656	0.149423	-0.000025
C52	C	0.462652	0.205421	-0.000017
C53	C	0.323889	0.677450	-0.000050
C54	C	0.276794	0.677459	-0.000059
C55	C	0.011884	0.598050	0.039688
C56	C	-0.165101	0.598035	0.039703
O57	O	-0.164943	0.530536	0.073491
N58	N	-0.214327	0.677400	0.000006
C59	C	-0.219305	0.756775	-0.039693
O60	O	-0.265236	0.824280	-0.073451
C61	C	-0.042321	0.756790	-0.039703
C62	C	0.006904	0.677419	-0.000010
C63	C	0.061107	0.518686	0.079379
C64	C	0.105350	0.518690	0.079371
C65	C	0.100370	0.598059	0.039673
C66	C	0.051148	0.677423	-0.000018
C67	C	-0.047300	0.836164	-0.079398
C68	C	-0.003048	0.836160	-0.079395
C69	C	0.046177	0.756790	-0.039702
C70	C	0.090411	0.756797	-0.039723
N71	N	0.139637	0.677431	-0.000026
C72	C	0.144616	0.598062	0.039672
C73	C	-0.312223	0.756762	-0.039686
C74	C	-0.356469	0.756759	-0.039685
C75	C	-0.302262	0.598018	0.039713
C76	C	-0.258015	0.598022	0.039707
C77	C	-0.262997	0.677397	0.000011
C78	C	0.237529	0.598078	0.039653
C79	C	0.281773	0.598090	0.039639
C80	C	0.227563	0.756830	-0.039755
C81	C	0.183321	0.756819	-0.039745
C82	C	0.188308	0.677436	-0.000036
O83	O	0.090293	0.824260	-0.073486
O84	O	0.190551	0.530568	0.073439
C85	C	-0.032360	0.598045	0.039696
C86	C	-0.081582	0.677410	0.000005
C87	C	-0.086562	0.756779	-0.039693
C88	C	-0.125828	0.677406	0.000006
C89	C	-0.120849	0.598037	0.039705
C90	C	-0.071623	0.518672	0.079402
C91	C	-0.027380	0.518676	0.079394
C92	C	-0.135788	0.836144	-0.079390
C93	C	-0.180029	0.836133	-0.079380
C94	C	-0.175049	0.756764	-0.039682
C95	C	0.601416	0.677399	0.000004
C96	C	0.648511	0.677390	0.000013
C97	C	0.462653	0.677429	-0.203216
C98	C	0.462653	0.677431	-0.272177
C99	C	0.462653	0.880631	-0.000057
C100	C	0.462653	0.949598	-0.000069
C101	C	0.500973	0.677425	-0.304568
C102	C	0.500974	0.677419	-0.369361
C103	C	0.462654	0.677425	-0.401765
C104	C	0.424333	0.677428	-0.369369
C105	C	0.424333	0.677428	-0.304574
C106	C	0.424328	0.677427	-0.630679
C107	C	0.424329	0.677430	-0.695480
C108	C	0.500969	0.677419	-0.695466
C109	C	0.500970	0.677419	-0.630671
C110	C	0.462650	0.677417	-0.598278
C111	C	0.462650	0.677422	-0.528021
C112	C	0.462652	0.677426	-0.472024
C113	C	0.462651	0.677420	0.203170
C114	C	0.462651	0.677418	0.272131
C115	C	0.601415	0.474192	0.000038
C116	C	0.648510	0.405217	0.000059
C117	C	0.462651	0.474213	0.203204
C118	C	0.462650	0.405245	0.272177
C119	C	0.601414	0.474187	0.203231
C120	C	0.648508	0.405210	0.272213
C121	C	0.323891	0.880662	-0.203277
C122	C	0.276796	0.949638	-0.272259
C123	C	0.323890	0.880657	-0.000084
C124	C	0.276795	0.949632	-0.000105
C125	C	0.462654	0.880636	-0.203250
C126	C	0.462654	0.949604	-0.272223
C127	C	0.643530	0.372831	-0.039621
C128	C	0.687776	0.308031	-0.039617
C129	C	0.737002	0.275613	0.000072
C130	C	0.741981	0.308005	0.039753
C131	C	0.697735	0.372808	0.039744
C132	C	0.489746	0.372851	0.344257
C133	C	0.489743	0.308057	0.409071
C134	C	0.462648	0.275654	0.401803
C135	C	0.435549	0.308054	0.329715
C136	C	0.435548	0.372851	0.264903
C137	C	0.697726	0.372814	0.264936
C138	C	0.741980	0.308012	0.329746
C139	C	0.737016	0.275603	0.401833
C140	C	0.687794	0.308006	0.409108
C141	C	0.643541	0.372811	0.344299
C142	C	0.227579	0.982043	-0.264982
C143	C	0.183324	1.046865	-0.329792
C144	C	0.188288	1.079277	-0.401879
C145	C	0.237511	1.046870	-0.409155
C146	C	0.281764	0.982054	-0.344345
C147	C	0.281775	0.982024	0.039568
C148	C	0.237529	1.046843	0.039546
C149	C	0.188303	1.079263	-0.000145
C150	C	0.183324	1.046868	-0.039823
C151	C	0.227570	0.982055	-0.039805
C152	C	0.489755	0.981986	-0.264931
C153	C	0.489766	1.046781	-0.329732
C154	C	0.462672	1.079196	-0.401825
C155	C	0.435571	1.046807	-0.409116
C156	C	0.435563	0.982010	-0.344315
H157	H	0.393127	0.383545	-0.101839
N158	N	0.242613	1.079921	0.080087
N159	N	0.203108	1.137789	0.080072
H160	H	0.206699	1.161149	0.108705
H161	H	0.532184	-0.028703	0.101794
H162	H	0.223527	0.955656	-0.206291
H163	H	0.773054	0.222834	0.454599
N164	N	0.682737	0.274883	0.482751
N165	N	0.722257	0.217015	0.540604
H166	H	0.718688	0.193615	0.592617
H167	H	0.321853	0.955632	0.071895
N168	N	0.143115	1.145471	-0.000155
N169	N	0.147574	1.174379	0.035275
H170	H	0.115662	1.221137	0.035272
H171	H	0.393133	0.677427	-0.395753
N172	N	0.385189	0.677428	-0.271492
N173	N	0.350977	0.677432	-0.300429
H174	H	0.323331	0.677428	-0.277065
H175	H	0.603467	0.399180	0.350235
H176	H	0.143239	1.073275	-0.072139
N177	N	0.407875	0.274941	0.322312
N178	N	0.407887	0.217083	0.380192
H179	H	0.388345	0.193691	0.374966
N180	N	0.133054	1.079950	-0.322336
N181	N	0.128634	1.050991	-0.257966
H182	H	0.093131	1.074355	-0.252697
N183	N	0.222469	0.948980	-0.080335
N184	N	0.178513	0.977939	-0.115767
H185	H	0.174906	0.954583	-0.144395
N186	N	0.540128	-0.164578	0.113400
N187	N	0.586739	-0.194917	0.120297
H188	H	0.614392	-0.258783	0.160784
H189	H	-0.007111	0.900798	-0.111711
H190	H	0.462682	1.131958	-0.454584
N191	N	0.782200	0.209405	0.000098
N192	N	0.826151	0.180456	0.035540
H193	H	0.858072	0.133694	0.035559
H194	H	0.782055	0.281636	0.323809
H195	H	0.462652	0.222892	0.454584
H196	H	0.683712	0.281665	-0.071930
H197	H	0.393120	0.501079	-0.101807
H198	H	0.511818	0.955604	-0.206235
N199	N	0.792269	0.274875	0.080290
N200	N	0.831765	0.217009	0.080291
H201	H	0.867283	0.193605	0.108924
N202	N	0.143076	1.145488	-0.468069
N203	N	0.099137	1.174406	-0.461552
H204	H	0.067204	1.221166	-0.508296
N205	N	0.517454	1.079846	-0.322261
N206	N	0.541636	1.050899	-0.257886
H207	H	0.561191	1.074249	-0.252606
H208	H	0.393126	0.057461	-0.101899
H209	H	0.413485	0.399218	0.206215
N210	N	0.385193	0.677408	-0.728568
N211	N	0.397603	0.616032	-0.734026
H212	H	0.369965	0.616015	-0.757394
H213	H	0.511811	0.399226	0.350189
N214	N	-0.066542	0.437598	0.119966
N215	N	-0.043456	0.384458	0.189939
H216	H	-0.039871	0.327203	0.218590
H217	H	0.701777	0.399192	0.206245
N218	N	0.133037	0.837890	-0.080309
N219	N	0.119825	0.891032	-0.150283
H220	H	0.084313	0.948289	-0.178928
N221	N	0.242567	1.079996	-0.482797
N222	N	0.203047	1.137865	-0.540650
H223	H	0.206616	1.161261	-0.592663
N224	N	0.407919	1.079922	-0.482773
N225	N	0.431532	1.072676	-0.527751
H226	H	0.412008	1.096071	-0.579778
N227	N	0.407875	0.948946	-0.351784
N228	N	0.383687	0.977903	-0.416160
H229	H	0.364131	0.954555	-0.421441
N230	N	0.332033	0.948953	-0.351800
N231	N	0.345216	0.912811	-0.385611
H232	H	0.380718	0.889437	-0.390882
H233	H	0.701797	0.399168	0.072060
N234	N	0.540120	0.161495	0.113453
N235	N	0.540114	0.103655	0.113436
H236	H	0.567759	0.039783	0.153921
N237	N	0.540128	0.292453	0.113486
N238	N	0.574342	0.213405	0.163591
H239	H	0.601996	0.196263	0.204088
H240	H	0.393125	0.175004	-0.101875
H241	H	-0.217937	0.533391	0.072035
N242	N	0.332052	0.517003	0.080186
N243	N	0.336487	0.446145	0.115627
H244	H	0.371995	0.388878	0.144262
H245	H	0.241596	0.533437	0.071989
H246	H	0.145428	0.454058	0.111691
H247	H	0.065170	0.454050	0.111710
H248	H	-0.396547	0.821391	-0.072017
N249	N	-0.297188	0.516951	0.080253
N250	N	-0.336701	0.516970	0.080242
H251	H	-0.333121	0.459720	0.108873
H252	H	-0.087374	0.900796	-0.111720
N253	N	-0.317327	0.837855	-0.080239
N254	N	-0.361284	0.908705	-0.115676
H255	H	-0.364891	0.965978	-0.144319
N256	N	0.517429	0.274979	0.482694
N257	N	0.541623	0.303915	0.489166
H258	H	0.561176	0.280556	0.541160
N259	N	0.222474	0.837907	-0.080313
N260	N	0.199383	0.891058	-0.150285
H261	H	0.195789	0.948320	-0.178927
N262	N	0.022895	0.437592	0.119942
N263	N	0.027324	0.366739	0.155380
H264	H	0.062830	0.309469	0.184019
N265	N	0.593247	0.405958	-0.080173
N266	N	0.553740	0.463822	-0.080187
H267	H	0.518228	0.487219	-0.108833
H268	H	-0.220109	0.900771	-0.111711
H269	H	0.532176	0.677426	-0.278192
N270	N	-0.140889	0.917230	-0.119943
N271	N	-0.184846	0.988080	-0.155379
H272	H	-0.188452	1.045353	-0.184025
H273	H	0.532172	0.677418	-0.604292
N274	N	0.540122	0.677409	-0.402435
N275	N	0.574333	0.677407	-0.373498
H276	H	0.601984	0.677398	-0.396855
H277	H	0.393126	0.677428	-0.604311
N278	N	0.540111	0.677415	-0.728563
N279	N	0.540109	0.677410	-0.786413
H280	H	0.567752	0.677409	-0.809788
