data_functionalizedCrystal
_audit_creation_method	'MofGen! by Chris Wilmer'
_symmetry_space_group_name_H-M	'P1'
_symmetry_Int_Tables_number	1
_symmetry_cell_setting	triclinic
loop_
_symmetry_equiv_pos_as_xyz
  x,y,z
_cell_length_a	12.759399
_cell_length_b	16.120530
_cell_length_c	12.759393
_cell_angle_alpha	92.920001
_cell_angle_beta	90.030906
_cell_angle_gamma	87.110771
loop_
_atom_site_label
_atom_site_type_symbol
_atom_site_fract_x
_atom_site_fract_y
_atom_site_fract_z
Zn1	Zn	-0.499768	1.274633	0.675423
Zn2	Zn	-0.166435	1.607966	1.008756
Zn3	Zn	0.166899	1.941300	1.342089
Zn4	Zn	-0.675478	1.274545	0.499736
Zn5	Zn	-0.342145	1.607879	0.833069
Zn6	Zn	-0.008811	1.941212	1.166403
Zn7	Zn	-0.490899	1.135207	0.490853
Zn8	Zn	-0.157565	1.468540	0.824187
Zn9	Zn	0.175768	1.801874	1.157520
Zn10	Zn	-0.666484	1.135200	0.666474
Zn11	Zn	-0.333151	1.468533	0.999807
Zn12	Zn	0.000182	1.801866	1.333140
O13	O	-0.583157	1.204896	0.583121
O14	O	-0.249824	1.538230	0.916455
O15	O	0.083510	1.871563	1.249788
O16	O	-0.530552	1.391288	0.659580
O17	O	-0.197219	1.724622	0.992913
O18	O	0.136115	2.057955	1.326247
O19	O	-0.651045	1.256028	0.351534
O20	O	-0.317712	1.589362	0.684868
O21	O	0.015622	1.922695	1.018201
O22	O	-0.345057	1.153742	0.515364
O23	O	-0.011723	1.487075	0.848698
O24	O	0.321610	1.820409	1.182031
O25	O	-0.659645	1.391224	0.530504
O26	O	-0.326312	1.724557	0.863837
O27	O	0.007021	2.057891	1.197170
O28	O	-0.351573	1.256177	0.650967
O29	O	-0.018240	1.589511	0.984300
O30	O	0.315094	1.922844	1.317633
O31	O	-0.515435	1.153657	0.345008
O32	O	-0.182102	1.486990	0.678342
O33	O	0.151231	1.820324	1.011675
O34	O	-0.506715	1.018539	0.506687
O35	O	-0.173381	1.351872	0.840020
O36	O	0.159952	1.685206	1.173354
O37	O	-0.644317	1.153729	0.814684
O38	O	-0.310984	1.487063	1.148017
O39	O	0.022350	1.820396	1.481351
O40	O	-0.635717	1.018534	0.635715
O41	O	-0.302383	1.351867	0.969048
O42	O	0.030950	1.685200	1.302381
O43	O	-0.521831	1.256170	0.821259
O44	O	-0.188498	1.589504	1.154592
O45	O	0.144835	1.922837	1.487925
O46	O	-0.821303	1.256021	0.521826
O47	O	-0.487970	1.589355	0.855160
O48	O	-0.154637	1.922688	1.188493
O49	O	-0.814696	1.153644	0.644328
O50	O	-0.481362	1.486978	0.977661
O51	O	-0.148029	1.820311	1.310994
C52	C	-0.856121	1.204845	0.583094
C53	C	-0.522788	1.538179	0.916427
C54	C	-0.189455	1.871512	1.249761
C55	C	-0.972901	1.204900	0.583123
C56	C	-0.639568	1.538233	0.916456
C57	C	-0.306235	1.871566	1.249789
C58	C	-0.569278	0.988286	0.569266
C59	C	-0.235945	1.321619	0.902600
C60	C	0.097389	1.654953	1.235933
C61	C	-0.563366	0.895619	0.563364
C62	C	-0.230033	1.228952	0.896698
C63	C	0.103301	1.562286	1.230031
C64	C	-1.031173	1.258268	0.519416
C65	C	-0.697839	1.591601	0.852750
C66	C	-0.364506	1.924935	1.186083
C67	C	-1.140900	1.258322	0.519455
C68	C	-0.807567	1.591655	0.852788
C69	C	-0.474234	1.924988	1.186122
C70	C	-1.134075	1.151631	0.646909
C71	C	-0.800741	1.484964	0.980242
C72	C	-0.467408	1.818298	1.313575
C73	C	-1.024349	1.151582	0.646875
C74	C	-0.691016	1.484916	0.980208
C75	C	-0.357683	1.818249	1.313541
C76	C	-0.552547	0.725956	0.552597
C77	C	-0.219214	1.059289	0.885931
C78	C	0.114120	1.392622	1.219264
C79	C	-0.613845	0.684677	0.613722
C80	C	-0.280511	1.018011	0.947055
C81	C	0.052822	1.351344	1.280389
C82	C	-0.607825	0.590271	0.607731
C83	C	-0.274492	0.923604	0.941065
C84	C	0.058842	1.256937	1.274398
C85	C	-0.558565	0.820371	0.558587
C86	C	-0.225232	1.153704	0.891920
C87	C	0.108101	1.487037	1.225253
C88	C	-0.309129	1.204970	0.583173
C89	C	0.024205	1.538304	0.916506
C90	C	0.357538	1.871637	1.249840
C91	C	-0.192354	1.205002	0.583195
C92	C	0.140979	1.538335	0.916528
C93	C	0.474313	1.871668	1.249862
C94	C	-0.583060	1.204959	0.857159
C95	C	-0.249727	1.538292	1.190492
C96	C	0.083606	1.871625	1.523825
C97	C	-0.583019	1.204985	0.973937
C98	C	-0.249686	1.538319	1.307271
C99	C	0.083648	1.871652	1.640604
C100	C	-0.597091	1.422352	0.597031
C101	C	-0.263758	1.755686	0.930364
C102	C	0.069575	2.089019	1.263698
C103	C	-0.603029	1.515019	0.602958
C104	C	-0.269696	1.848353	0.936292
C105	C	0.063638	2.181686	1.269625
C106	C	-0.583181	1.204882	0.310153
C107	C	-0.249848	1.538215	0.643486
C108	C	0.083486	1.871549	0.976820
C109	C	-0.582937	1.205017	0.193386
C110	C	-0.249603	1.538350	0.526719
C111	C	0.083730	1.871684	0.860052
C112	C	-0.519230	1.258330	1.032225
C113	C	-0.185897	1.591664	1.365558
C114	C	0.147437	1.924997	1.698891
C115	C	-0.519186	1.258344	1.141950
C116	C	-0.185852	1.591678	1.475283
C117	C	0.147481	1.925011	1.808616
C118	C	-0.646728	1.151666	1.135090
C119	C	-0.313395	1.484999	1.468423
C120	C	0.019939	1.818333	1.801757
C121	C	-0.646766	1.151648	1.025367
C122	C	-0.313433	1.484982	1.358700
C123	C	0.019901	1.818315	1.692033
H124	H	-0.989287	1.301683	0.467507
H125	H	-0.655953	1.635017	0.800840
H126	H	-0.322620	1.968350	1.134174
H127	H	-1.188340	1.301781	0.467580
H128	H	-0.855007	1.635114	0.800914
H129	H	-0.521674	1.968447	1.134247
Br130	Br	-1.203904	1.079275	0.733424
Br131	Br	-0.870570	1.412608	1.066757
Br132	Br	-0.537237	1.745941	1.400091
H133	H	-0.976901	1.108123	0.698757
H134	H	-0.643568	1.441457	1.032090
H135	H	-0.310235	1.774790	1.365424
Br136	Br	-0.457549	0.666687	0.457882
Br137	Br	-0.124216	1.000020	0.791216
Br138	Br	0.209117	1.333353	1.124549
Br139	Br	-0.733333	1.079239	0.946254
Br140	Br	-0.400000	1.412572	1.279588
Br141	Br	-0.066667	1.745905	1.612921
H142	H	-0.670842	0.720239	0.670553
H143	H	-0.337509	1.053573	1.003886
H144	H	-0.004176	1.386906	1.337220
H145	H	-0.467320	1.301758	0.990354
H146	H	-0.133987	1.635092	1.323687
H147	H	0.199347	1.968425	1.657021
Br148	Br	-0.432619	1.330750	1.221051
Br149	Br	-0.099286	1.664084	1.554384
Br150	Br	0.234047	1.997417	1.887718
Br151	Br	-0.733242	1.079287	1.204894
Br152	Br	-0.399908	1.412620	1.538228
Br153	Br	-0.066575	1.745954	1.871561
