data_functionalizedCrystal
_audit_creation_method	'MofGen! by Chris Wilmer'
_symmetry_space_group_name_H-M	'P1'
_symmetry_Int_Tables_number	1
_symmetry_cell_setting	triclinic
loop_
_symmetry_equiv_pos_as_xyz
  x,y,z
_cell_length_a	12.759401
_cell_length_b	15.299816
_cell_length_c	12.759393
_cell_angle_alpha	99.651896
_cell_angle_beta	89.980883
_cell_angle_gamma	80.351000
loop_
_atom_site_label
_atom_site_type_symbol
_atom_site_fract_x
_atom_site_fract_y
_atom_site_fract_z
Zn1	Zn	1.678538	-0.359006	-0.666434
Zn2	Zn	1.708808	-0.509846	-0.521181
Zn3	Zn	1.502851	-0.359050	-0.490778
Zn4	Zn	1.533189	-0.509781	-0.696806
O5	O	1.605847	-0.434421	-0.593800
O6	O	1.829576	-0.379024	-0.647179
O7	O	1.681458	-0.489887	-0.370136
O8	O	1.500792	-0.232835	-0.488645
O9	O	1.851815	-0.489845	-0.540462
O10	O	1.629869	-0.232803	-0.617698
O11	O	1.530143	-0.379098	-0.347799
O12	O	1.359853	-0.379036	-0.518095
O13	O	1.552499	-0.489736	-0.839789
O14	O	1.382142	-0.489778	-0.669463
O15	O	1.659286	-0.378962	-0.817475
O16	O	1.710876	-0.636046	-0.569913
O17	O	1.581850	-0.635999	-0.698943
C18	C	1.332876	-0.434405	-0.593777
C19	C	1.216103	-0.434421	-0.593796
C20	C	1.063075	-0.492047	-0.538142
C21	C	1.172797	-0.492033	-0.538120
C22	C	1.149679	-0.376811	-0.649490
C23	C	1.039959	-0.376821	-0.649505
C24	C	1.329144	-0.524116	-0.420602
C25	C	1.395565	-0.581733	-0.364922
C26	C	1.377647	-0.669722	-0.366368
C27	C	1.293314	-0.700111	-0.423513
C28	C	1.226900	-0.642499	-0.479201
C29	C	1.244813	-0.554497	-0.477733
C30	C	0.883612	-0.344747	-0.767026
C31	C	0.817196	-0.287139	-0.822722
C32	C	0.835112	-0.199149	-0.821287
C33	C	0.919449	-0.168763	-0.764161
C34	C	0.985864	-0.226371	-0.708465
C35	C	0.967941	-0.314360	-0.709899
C36	C	1.652968	-0.668747	-0.641046
C37	C	1.673223	-0.768992	-0.661293
C38	C	1.461771	-1.051933	-0.449448
C39	C	1.442735	-0.957747	-0.430427
C40	C	1.500356	-0.910554	-0.488141
C41	C	1.577015	-0.957555	-0.564880
C42	C	1.596047	-1.051750	-0.583909
C43	C	1.634631	-0.910371	-0.622603
C44	C	1.711290	-0.957373	-0.699342
C45	C	1.730319	-1.051558	-0.718366
C46	C	1.672699	-1.098752	-0.660652
C47	C	1.615599	-0.816176	-0.603574
C48	C	1.749875	-0.815994	-0.738035
C49	C	1.768911	-0.910179	-0.757056
C50	C	1.879883	-0.434437	-0.593824
C51	C	1.996661	-0.434444	-0.593834
C52	C	1.605900	-0.434337	-0.867816
C53	C	1.605923	-0.434301	-0.984586
C54	C	1.558570	-0.199180	-0.546393
C55	C	1.538423	-0.098934	-0.526190
C56	C	1.550361	-0.491915	-1.160786
C57	C	1.550334	-0.491953	-1.051070
C58	C	1.661534	-0.376601	-1.027822
C59	C	1.661554	-0.376559	-1.137536
C60	C	1.432875	-0.524225	-0.907617
C61	C	1.377278	-0.581933	-0.864387
C62	C	1.378838	-0.669921	-0.917737
C63	C	1.436015	-0.700218	-1.014320
C64	C	1.491620	-0.642515	-1.057546
C65	C	1.490038	-0.554515	-1.004195
C66	C	1.779016	-0.344296	-1.280992
C67	C	1.834629	-0.286597	-1.324221
C68	C	1.833079	-0.198608	-1.270872
C69	C	1.775922	-0.168313	-1.174287
C70	C	1.720309	-0.226012	-1.131058
C71	C	1.721857	-0.314000	-1.184414
C72	C	1.605840	-0.434439	-0.320836
C73	C	1.605970	-0.434221	-0.204016
H74	H	1.158239	-0.667242	-0.525730
H75	H	1.484853	-0.833864	-0.472649
H76	H	1.054687	-0.201691	-0.662155
F77	F	1.016998	-0.553374	-0.478891
H78	H	1.831327	-0.948461	-0.819538
F79	F	1.431186	-0.430571	-0.850843
F80	F	1.274283	-0.793776	-0.425091
F81	F	1.195771	-0.315493	-0.708741
F82	F	1.400443	-1.102165	-0.388047
H83	H	1.330723	-0.557256	-0.785747
F84	F	1.780659	-0.437942	-1.337785
H85	H	1.380319	-0.919482	-0.367948
H86	H	0.781031	-0.152247	-0.866649
F87	F	1.693128	-1.198996	-0.680718
F88	F	1.437687	-0.793873	-1.071086
F89	F	1.552470	-0.674755	-1.160328
F90	F	1.348213	-0.430464	-0.419048
F91	F	1.811201	-0.765772	-0.799465
F92	F	1.720672	-0.315225	-0.957058
F93	F	1.774276	-0.074667	-1.117501
F94	F	1.491199	-0.553281	-1.231536
H95	H	0.869019	-0.416398	-0.768203
H96	H	1.792736	-1.089824	-0.780856
H97	H	1.333569	-0.716907	-0.882531
F98	F	1.892280	-0.137204	-1.316879
F99	F	1.534016	-0.766164	-0.521905
F100	F	1.448342	-0.731041	-0.307110
F101	F	1.895470	-0.318845	-1.427013
F102	F	0.938522	-0.075115	-0.762636
H103	H	1.673765	-0.201338	-1.052412
H104	H	1.464245	-0.556989	-0.318416
H105	H	0.748529	-0.311889	-0.869243
