data_functionalizedCrystal
_audit_creation_method	'MofGen! by Chris Wilmer'
_symmetry_space_group_name_H-M	'P1'
_symmetry_Int_Tables_number	1
_symmetry_cell_setting	triclinic
loop_
_symmetry_equiv_pos_as_xyz
  x,y,z
_cell_length_a	23.532361
_cell_length_b	23.532357
_cell_length_c	18.366186
_cell_angle_alpha	89.988209
_cell_angle_beta	89.995229
_cell_angle_gamma	82.828980
loop_
_atom_site_label
_atom_site_type_symbol
_atom_site_fract_x
_atom_site_fract_y
_atom_site_fract_z
O1	O	0.755268	0.069011	-0.060485
O2	O	1.255268	0.569011	0.439515
O3	O	0.589399	0.079042	-0.060504
O4	O	1.089399	0.579042	0.439496
O5	O	0.677350	-0.008908	-0.060479
O6	O	1.177350	0.491092	0.439521
O7	O	0.667317	0.156961	-0.060510
O8	O	1.167317	0.656961	0.439490
O9	O	0.677335	-0.008912	0.060620
O10	O	1.177335	0.491088	0.560620
O11	O	0.589384	0.079038	0.060595
O12	O	1.089384	0.579038	0.560595
O13	O	0.755253	0.069007	0.060614
O14	O	1.255253	0.569007	0.560614
Zn15	Zn	0.672316	0.074022	0.079832
Zn16	Zn	1.172316	0.574022	0.579832
Zn17	Zn	0.672336	0.074027	-0.079722
Zn18	Zn	1.172336	0.574027	0.420278
O19	O	0.667302	0.156957	0.060589
O20	O	1.167302	0.656957	0.560589
C21	C	0.568175	0.078789	0.000044
C22	C	1.068175	0.578789	0.500044
C23	C	0.504957	0.078034	0.000037
C24	C	1.004957	0.578034	0.500037
C25	C	0.231722	0.074732	-0.065969
C26	C	0.731722	0.574732	0.434031
C27	C	0.291121	0.075447	-0.065971
C28	C	0.791121	0.575447	0.434029
O29	O	0.321854	0.075799	-0.122110
O30	O	0.821854	0.575799	0.377890
N31	N	0.320819	0.075806	0.000040
N32	N	0.820819	0.575806	0.500040
C33	C	0.291114	0.075444	0.066058
C34	C	0.791114	0.575444	0.566058
O35	O	0.321829	0.075815	0.122206
O36	O	0.821829	0.575815	0.622206
C37	C	0.231716	0.074725	0.066059
C38	C	0.731716	0.574725	0.566059
C39	C	0.202021	0.074372	0.000043
C40	C	0.702021	0.574372	0.500043
C41	C	0.202027	0.074379	-0.131980
C42	C	0.702027	0.574379	0.368020
C43	C	0.142631	0.073665	-0.131977
C44	C	0.642631	0.573665	0.368023
C45	C	0.112930	0.073305	-0.065965
C46	C	0.612930	0.573305	0.434035
C47	C	0.142626	0.073658	0.000046
C48	C	0.642626	0.573658	0.500046
C49	C	0.202014	0.074359	0.132076
C50	C	0.702014	0.574359	0.632076
C51	C	0.142612	0.073640	0.132072
C52	C	0.642612	0.573640	0.632072
C53	C	0.112917	0.073287	0.066056
C54	C	0.612917	0.573287	0.566056
C55	C	0.053529	0.072584	0.066060
C56	C	0.553529	0.572584	0.566060
N57	N	0.023832	0.072225	0.000049
N58	N	0.523832	0.572225	0.500049
C59	C	0.053532	0.072586	-0.065964
C60	C	0.553532	0.572586	0.434036
C61	C	0.415854	0.076953	0.066051
C62	C	0.915854	0.576953	0.566051
C63	C	0.475251	0.077676	0.066050
C64	C	0.975251	0.577676	0.566050
C65	C	0.475254	0.077678	-0.065979
C66	C	0.975254	0.577678	0.434021
C67	C	0.415856	0.076959	-0.065978
C68	C	0.915856	0.576959	0.434022
C69	C	0.386157	0.076594	0.000039
C70	C	0.886157	0.576594	0.500039
C71	C	-0.071203	0.071087	-0.065954
C72	C	0.428797	0.571087	0.434046
C73	C	-0.130604	0.070376	-0.065946
C74	C	0.369396	0.570376	0.434054
C75	C	-0.130601	0.070371	0.066083
C76	C	0.369399	0.570371	0.566083
C77	C	-0.071206	0.071085	0.066075
C78	C	0.428794	0.571085	0.566075
C79	C	-0.041508	0.071441	0.000051
C80	C	0.458492	0.571441	0.500051
O81	O	0.022759	0.072230	0.122171
O82	O	0.522759	0.572230	0.622171
O83	O	0.022812	0.072208	-0.122102
O84	O	0.522812	0.572208	0.377898
C85	C	0.677092	-0.030127	0.000073
C86	C	1.177092	0.469873	0.500073
C87	C	0.676337	-0.093345	0.000080
C88	C	1.176337	0.406655	0.500080
C89	C	0.671608	-0.485353	-0.065972
C90	C	1.171608	0.014647	0.434028
C91	C	0.670891	-0.544753	-0.065976
C92	C	1.170891	-0.044753	0.434024
O93	O	0.670508	-0.575467	-0.122116
O94	O	1.170508	-0.075467	0.377884
N95	N	0.670527	-0.574466	0.000035
N96	N	1.170527	-0.074466	0.500035
C97	C	0.670875	-0.544776	0.066053
C98	C	1.170875	-0.044776	0.566053
O99	O	0.670499	-0.575504	0.122200
O100	O	1.170499	-0.075504	0.622200
C101	C	0.671588	-0.485377	0.066057
C102	C	1.171588	0.014623	0.566057
C103	C	0.671958	-0.455668	0.000042
C104	C	1.171958	0.044332	0.500042
C105	C	0.671977	-0.455644	-0.131981
C106	C	1.171977	0.044356	0.368019
C107	C	0.672696	-0.396248	-0.131976
C108	C	1.172696	0.103752	0.368024
C109	C	0.673045	-0.366563	-0.065963
C110	C	1.173045	0.133437	0.434037
C111	C	0.672676	-0.396273	0.000047
C112	C	1.172676	0.103727	0.500047
C113	C	0.671932	-0.455688	0.132075
C114	C	1.171932	0.044312	0.632075
C115	C	0.672645	-0.396285	0.132073
C116	C	1.172645	0.103715	0.632073
C117	C	0.673014	-0.366576	0.066058
C118	C	1.173014	0.133424	0.566058
C119	C	0.673744	-0.307192	0.066065
C120	C	1.173744	0.192808	0.566065
N121	N	0.674108	-0.277479	0.000055
N122	N	1.174108	0.222521	0.500055
C123	C	0.673758	-0.307164	-0.065959
C124	C	1.173758	0.192836	0.434041
C125	C	0.669376	-0.669518	0.066041
C126	C	1.169376	-0.169518	0.566041
C127	C	0.668667	-0.728916	0.066038
C128	C	1.168667	-0.228916	0.566038
C129	C	0.668682	-0.728888	-0.065991
C130	C	1.168682	-0.228888	0.434009
C131	C	0.669396	-0.669489	-0.065988
C132	C	1.169396	-0.169489	0.434012
C133	C	0.669740	-0.639804	0.000031
C134	C	1.169740	-0.139804	0.500031
C135	C	0.675267	-0.182430	-0.065945
C136	C	1.175267	0.317570	0.434055
C137	C	0.675988	-0.123030	-0.065934
C138	C	1.175988	0.376970	0.434066
C139	C	0.675970	-0.123063	0.066095
C140	C	1.175970	0.376937	0.566095
C141	C	0.675252	-0.182458	0.066085
C142	C	1.175252	0.317542	0.566085
C143	C	0.674899	-0.212140	0.000059
C144	C	1.174899	0.287860	0.500059
O145	O	0.674125	-0.276440	0.122176
O146	O	1.174125	0.223560	0.622176
O147	O	0.674127	-0.276428	-0.122096
O148	O	1.174127	0.223572	0.377904
C149	C	0.776477	0.069260	0.000065
C150	C	1.276477	0.569260	0.500065
C151	C	0.839695	0.070015	0.000067
C152	C	1.339695	0.570015	0.500067
C153	C	0.667560	0.178176	0.000036
C154	C	1.167560	0.678176	0.500036
C155	C	0.668315	0.241394	0.000024
C156	C	1.168315	0.741394	0.500024
N157	N	0.672307	0.074017	0.188723
N158	N	1.172307	0.574017	0.688723
N159	N	0.672350	0.074027	-0.188613
N160	N	1.172350	0.574027	0.311387
C161	C	0.711264	0.035092	0.226834
C162	C	1.211264	0.535092	0.726834
C163	C	0.711268	0.035090	0.303062
C164	C	1.211268	0.535090	0.803062
C165	C	0.672320	0.074022	0.341176
C166	C	1.172320	0.574022	0.841176
C167	C	0.633355	0.112950	0.303055
C168	C	1.133355	0.612950	0.803055
C169	C	0.633349	0.112948	0.226829
C170	C	1.133349	0.612948	0.726829
C171	C	0.664555	0.125935	0.461926
C172	C	1.164555	0.625935	0.961926
C173	C	0.664565	0.125939	0.538151
C174	C	1.164565	0.625939	1.038151
C175	C	0.672336	0.074029	0.576283
C176	C	1.172336	0.574029	1.076283
C177	C	0.680108	0.022115	0.538181
C178	C	1.180108	0.522115	1.038181
C179	C	0.680102	0.022112	0.461955
C180	C	1.180102	0.522112	0.961955
C181	C	0.672322	0.074029	0.423830
C182	C	1.172322	0.574029	0.923830
C183	C	0.711299	0.035098	0.697050
C184	C	1.211299	0.535098	1.197050
C185	C	0.711299	0.035095	0.773279
C186	C	1.211299	0.535095	1.273279
C187	C	0.633389	0.112960	0.773270
C188	C	1.133389	0.612960	1.273270
C189	C	0.633386	0.112959	0.697042
C190	C	1.133386	0.612959	1.197042
C191	C	0.672345	0.074028	0.658937
C192	C	1.172345	0.574028	1.158937
H193	H	0.499422	0.077973	0.119807
H194	H	0.999422	0.577973	0.619807
H195	H	-0.047030	0.071378	-0.119717
H196	H	0.452970	0.571378	0.380283
H197	H	0.742985	0.003391	0.195811
H198	H	1.242985	0.503391	0.695811
Br199	Br	0.764143	-0.017743	0.354794
Br200	Br	1.264143	0.482257	0.854794
H201	H	-0.154780	0.070090	-0.119706
H202	H	0.345220	0.570090	0.380294
Br203	Br	0.673193	-0.355937	-0.221573
Br204	Br	1.173193	0.144063	0.278427
Br205	Br	0.668180	-0.769230	0.155633
Br206	Br	1.168180	-0.269230	0.655633
Br207	Br	0.668205	-0.769186	-0.155582
Br208	Br	1.168205	-0.269186	0.344418
H209	H	0.118459	0.073375	-0.185734
H210	H	0.618459	0.573375	0.314266
H211	H	0.686429	-0.020158	0.430936
H212	H	1.186429	0.479842	0.930936
H213	H	0.601674	0.144658	0.804302
H214	H	1.101674	0.644658	1.304302
Br215	Br	0.580515	0.165790	0.645314
Br216	Br	1.080515	0.665790	1.145314
Br217	Br	0.580474	0.165779	0.175101
Br218	Br	1.080474	0.665779	0.675101
Br219	Br	0.676445	-0.082765	0.155681
Br220	Br	1.176445	0.417235	0.655681
H221	H	0.669696	-0.645303	-0.119743
H222	H	1.169696	-0.145303	0.380257
H223	H	0.669659	-0.645352	0.119804
H224	H	1.169659	-0.145352	0.619804
Br225	Br	0.242299	0.074840	0.221675
Br226	Br	0.742299	0.574840	0.721675
H227	H	0.658218	0.168209	0.430885
H228	H	1.158218	0.668209	0.930885
H229	H	0.674977	-0.206590	-0.119709
H230	H	1.174977	0.293410	0.380291
Br231	Br	0.671428	-0.495993	0.221672
Br232	Br	1.171428	0.004007	0.721672
H233	H	0.674956	-0.206650	0.119839
H234	H	1.174956	0.293350	0.619839
Br235	Br	0.671503	-0.495919	-0.221583
Br236	Br	1.171503	0.004081	0.278417
H237	H	0.686435	-0.020155	0.569227
H238	H	1.186435	0.479845	1.069227
H239	H	0.226203	0.074670	-0.185738
H240	H	0.726203	0.574670	0.314262
H241	H	-0.154795	0.070080	0.119829
H242	H	0.345205	0.570080	0.619829
H243	H	0.672917	-0.372118	0.185834
H244	H	1.172917	0.127882	0.685834
H245	H	0.743021	0.003394	0.804310
H246	H	1.243021	0.503394	1.304310
Br247	Br	-0.030905	0.071574	0.155669
Br248	Br	0.469095	0.571574	0.655669
Br249	Br	0.375561	0.076480	-0.155574
Br250	Br	0.875561	0.576480	0.344426
Br251	Br	0.515572	0.078170	-0.155569
Br252	Br	1.015572	0.578170	0.344431
H253	H	0.658241	0.168210	0.569167
H254	H	1.158241	0.668210	1.069167
Br255	Br	0.764169	-0.017738	0.645333
Br256	Br	1.264169	0.482262	1.145333
Br257	Br	0.580492	0.165784	0.354778
Br258	Br	1.080492	0.665784	0.854778
H259	H	0.391676	0.076663	0.119813
H260	H	0.891676	0.576663	0.619813
Br261	Br	0.676493	-0.082714	-0.155532
Br262	Br	1.176493	0.417286	0.344468
Br263	Br	0.102310	0.073139	0.221672
Br264	Br	0.602310	0.573139	0.721672
