data_functionalizedCrystal
_audit_creation_method	'MofGen! by Chris Wilmer'
_symmetry_space_group_name_H-M	'P1'
_symmetry_Int_Tables_number	1
_symmetry_cell_setting	triclinic
loop_
_symmetry_equiv_pos_as_xyz
  x,y,z
_cell_length_a	11.026607
_cell_length_b	10.540539
_cell_length_c	10.065875
_cell_angle_alpha	98.880198
_cell_angle_beta	79.302338
_cell_angle_gamma	96.555754
loop_
_atom_site_label
_atom_site_type_symbol
_atom_site_fract_x
_atom_site_fract_y
_atom_site_fract_z
O1	O	1.632406	0.517971	-0.113482
O2	O	1.278575	0.457324	-0.113485
O3	O	1.463562	0.304709	-0.113482
O4	O	1.447418	0.670585	-0.113485
O5	O	1.428289	0.333960	0.113506
O6	O	1.243301	0.486575	0.113503
O7	O	1.597132	0.547222	0.113506
Zn8	Zn	1.414616	0.521543	0.149544
Zn9	Zn	1.461091	0.483003	-0.149523
O10	O	1.412145	0.699836	0.113503
C11	C	1.215630	0.460761	0.000009
C12	C	1.080627	0.427408	0.000007
C13	C	1.444715	0.271766	0.000010
C14	C	1.441094	0.130024	0.000002
C15	C	1.007620	0.519500	0.000005
C16	C	0.868087	0.485031	0.000004
C17	C	1.302369	-0.083873	-0.000508
C18	C	1.305961	0.063616	0.000003
C19	C	1.485983	0.099314	0.129624
C20	C	1.481354	-0.048226	0.129734
C21	C	1.524215	-0.081406	-0.128394
C22	C	1.525726	0.065627	-0.130108
C23	C	1.660077	0.543784	0.000010
C24	C	1.795082	0.577136	0.000002
C25	C	1.430992	0.732779	0.000008
C26	C	1.434615	0.874520	0.000007
N27	N	1.382908	0.547846	0.353649
N28	N	1.492809	0.456692	-0.353628
C29	C	1.450050	0.492145	0.421429
C30	C	1.425656	0.512401	0.578596
H31	H	1.048415	0.623863	0.000012
H32	H	1.307360	0.610524	0.411974
H33	H	0.827302	0.380657	-0.000030
O34	O	1.031991	0.302913	0.000247
C35	C	1.052871	0.257169	0.117787
H36	H	1.067170	0.342202	0.199957
H37	H	0.969361	0.190684	0.157246
H38	H	1.138965	0.201633	0.091207
H39	H	1.577626	-0.074149	0.135615
H40	H	0.835869	0.681507	0.000010
O41	O	1.582951	0.381820	0.577022
C42	C	1.640664	0.333992	0.670562
H43	H	1.575053	0.334341	0.772468
H44	H	1.664464	0.231280	0.629169
H45	H	1.729143	0.397679	0.685688
H46	H	1.263433	-0.136144	-0.093462
O47	O	1.262265	0.086622	-0.110991
C48	C	1.336850	0.031906	-0.230757
H49	H	1.386048	-0.048868	-0.206297
H50	H	1.276237	-0.008791	-0.310338
H51	H	1.408575	0.109130	-0.272483
H52	H	1.584472	0.144027	0.134445
H53	H	1.350104	0.575083	0.636915
H54	H	1.234841	-0.113813	0.091924
H55	H	1.239969	0.106079	0.093075
O56	O	1.414037	0.152980	0.244667
C57	C	1.289866	0.102324	0.246147
H58	H	1.287134	0.004843	0.179001
H59	H	1.244167	0.089814	0.355160
H60	H	1.237889	0.171352	0.205480
O61	O	1.490458	-0.145498	-0.245735
C62	C	1.572535	-0.103740	-0.358730
H63	H	1.664120	-0.061806	-0.326091
H64	H	1.589636	-0.188974	-0.442510
H65	H	1.530222	-0.026678	-0.398959
O66	O	1.405939	-0.079723	0.245180
C67	C	1.306719	-0.167257	0.209784
H68	H	1.334539	-0.219349	0.102217
H69	H	1.282947	-0.240649	0.284903
H70	H	1.222442	-0.112557	0.213613
O71	O	1.644671	0.119158	-0.139214
C72	C	1.654002	0.216523	-0.027649
H73	H	1.575142	0.198222	0.059894
H74	H	1.746533	0.215723	0.007174
H75	H	1.647879	0.314354	-0.059799
O76	O	1.640737	-0.112521	-0.129273
C77	C	1.641392	-0.173760	-0.014416
H78	H	1.543931	-0.217546	0.022933
H79	H	1.707352	-0.253166	-0.043612
H80	H	1.673422	-0.100091	0.070304
H81	H	1.493044	0.083706	-0.225999
H82	H	1.525590	0.429456	0.363106
