data_functionalizedCrystal
_audit_creation_method	'MofGen! by Chris Wilmer'
_symmetry_space_group_name_H-M	'P1'
_symmetry_Int_Tables_number	1
_symmetry_cell_setting	triclinic
loop_
_symmetry_equiv_pos_as_xyz
  x,y,z
_cell_length_a	19.805407
_cell_length_b	19.805404
_cell_length_c	19.805399
_cell_angle_alpha	90.027110
_cell_angle_beta	90.017803
_cell_angle_gamma	90.026910
loop_
_atom_site_label
_atom_site_type_symbol
_atom_site_fract_x
_atom_site_fract_y
_atom_site_fract_z
Zn1	Zn	1.034721	-0.269527	0.382690
Zn2	Zn	1.534721	0.230473	0.882690
Zn3	Zn	1.034629	-0.382716	0.269503
Zn4	Zn	1.534629	0.117284	0.769503
Zn5	Zn	0.921535	-0.269541	0.269518
Zn6	Zn	1.421535	0.230459	0.769518
Zn7	Zn	0.921493	-0.382674	0.382653
Zn8	Zn	1.421493	0.117326	0.882653
O9	O	0.978094	-0.326115	0.326091
O10	O	1.478094	0.173885	0.826091
O11	O	1.129425	-0.284554	0.367684
O12	O	1.629425	0.215446	0.867684
O13	O	1.019607	-0.367726	0.174788
O14	O	1.519607	0.132274	0.674788
O15	O	0.936606	-0.174822	0.284552
O16	O	1.436606	0.325178	0.784552
O17	O	1.129358	-0.367713	0.284526
O18	O	1.629358	0.132287	0.784526
O19	O	1.019763	-0.174813	0.367699
O20	O	1.519763	0.325187	0.867699
O21	O	0.936517	-0.284576	0.174799
O22	O	1.436517	0.215424	0.674799
O23	O	0.826813	-0.284536	0.284516
O24	O	1.326813	0.215464	0.784516
O25	O	0.936533	-0.367642	0.477374
O26	O	1.436533	0.132358	0.977374
O27	O	0.826782	-0.367655	0.367636
O28	O	1.326782	0.132345	0.867636
O29	O	1.019721	-0.284514	0.477402
O30	O	1.519721	0.215486	0.977402
O31	O	1.019565	-0.477427	0.284490
O32	O	1.519565	0.022573	0.784490
O33	O	0.936444	-0.477397	0.367621
O34	O	1.436444	0.022603	0.867621
C35	C	0.802238	-0.326093	0.326074
C36	C	1.302238	0.173907	0.826074
C37	C	0.727006	-0.326101	0.326083
C38	C	1.227006	0.173899	0.826083
C39	C	0.691698	-0.282876	0.369450
C40	C	1.191698	0.217124	0.869450
C41	C	0.621009	-0.282880	0.369452
C42	C	1.121009	0.217120	0.869452
C43	C	0.585631	-0.326112	0.326092
C44	C	1.085631	0.173888	0.826092
C45	C	0.620944	-0.369338	0.282720
C46	C	1.120944	0.130662	0.782720
C47	C	0.691631	-0.369330	0.282715
C48	C	1.191631	0.130670	0.782715
C49	C	0.335871	-0.369368	0.282741
C50	C	0.835871	0.130632	0.782741
C51	C	0.265179	-0.369374	0.282751
C52	C	0.765179	0.130626	0.782751
C53	C	0.265249	-0.282918	0.369479
C54	C	0.765249	0.217082	0.869479
C55	C	0.335936	-0.282910	0.369473
C56	C	0.835936	0.217090	0.869473
C57	C	0.371243	-0.326134	0.326100
C58	C	0.871243	0.173866	0.826100
C59	C	0.447892	-0.326128	0.326097
C60	C	0.947892	0.173872	0.826097
C61	C	0.508984	-0.326121	0.326098
C62	C	1.008984	0.173879	0.826098
C63	C	0.978009	-0.501971	0.326065
C64	C	1.478009	-0.001971	0.826065
C65	C	0.978034	-0.577203	0.326076
C66	C	1.478034	-0.077203	0.826076
C67	C	1.021542	-1.038987	0.282899
C68	C	1.521542	-0.538987	0.782899
C69	C	1.021510	-0.968298	0.282886
C70	C	1.521510	-0.468298	0.782886
C71	C	0.978183	-0.932964	0.326127
C72	C	1.478183	-0.432964	0.826127
C73	C	0.934880	-0.968322	0.369378
C74	C	1.434880	-0.468322	0.869378
C75	C	0.934909	-1.039009	0.369388
C76	C	1.434909	-0.539009	0.869388
C77	C	0.934763	-0.683249	0.369341
C78	C	1.434763	-0.183249	0.869341
C79	C	0.934739	-0.612557	0.369330
C80	C	1.434739	-0.112557	0.869330
C81	C	1.021363	-0.612538	0.282840
C82	C	1.521363	-0.112538	0.782840
C83	C	1.021392	-0.683225	0.282849
C84	C	1.521392	-0.183225	0.782849
C85	C	0.978087	-0.718577	0.326098
C86	C	1.478087	-0.218577	0.826098
C87	C	0.978121	-0.795225	0.326111
C88	C	1.478121	-0.295225	0.826111
C89	C	0.978152	-0.856317	0.326118
C90	C	1.478152	-0.356317	0.826118
C91	C	1.154637	-0.326136	0.326108
C92	C	1.654637	0.173864	0.826108
C93	C	1.229869	-0.326146	0.326115
C94	C	1.729869	0.173854	0.826115
C95	C	0.978132	-0.326072	0.502634
C96	C	1.478132	0.173928	1.002634
C97	C	0.978149	-0.326054	0.577866
C98	C	1.478149	0.173946	1.077866
C99	C	0.978199	-0.149572	0.326132
C100	C	1.478199	0.350428	0.826132
C101	C	0.978244	-0.074340	0.326149
C102	C	1.478244	0.425660	0.826149
C103	C	0.978096	-0.326108	0.150235
C104	C	1.478096	0.173892	0.650235
C105	C	0.978211	-0.325936	0.075003
C106	C	1.478211	0.174064	0.575003
C107	C	1.021466	-0.282767	0.613225
C108	C	1.521466	0.217233	1.113225
C109	C	1.021473	-0.282747	0.683914
C110	C	1.521473	0.217253	1.183914
C111	C	0.978165	-0.326018	0.719241
C112	C	1.478165	0.173982	1.219241
C113	C	0.934844	-0.369308	0.683877
C114	C	1.434844	0.130692	1.183877
C115	C	0.934834	-0.369323	0.613190
C116	C	1.434834	0.130677	1.113190
C117	C	0.934882	-0.369244	0.968950
C118	C	1.434882	0.130756	1.468950
C119	C	0.934896	-0.369227	1.039642
C120	C	1.434896	0.130773	1.539642
C121	C	1.021521	-0.282668	1.039674
C122	C	1.521521	0.217332	1.539674
C123	C	1.021511	-0.282684	0.968987
C124	C	1.521511	0.217316	1.468987
C125	C	0.978187	-0.325970	0.933629
C126	C	1.478187	0.174030	1.433629
C127	C	0.978179	-0.325990	0.856980
C128	C	1.478179	0.174010	1.356980
C129	C	0.978176	-0.326002	0.795888
C130	C	1.478176	0.173998	1.295888
H131	H	0.236493	-0.247721	0.404793
H132	H	0.736493	0.252279	0.904793
H133	H	0.899655	-1.067793	0.404610
H134	H	1.399655	-0.567793	0.904610
C135	C	0.800085	-0.244477	0.407957
C136	C	1.300085	0.255523	0.907957
C137	C	0.730584	-0.235355	0.417115
C138	C	1.230584	0.264645	0.917115
H139	H	0.824089	-0.215140	0.437388
H140	H	1.324089	0.284860	0.937388
H141	H	0.811653	-0.234509	0.362503
H142	H	1.311653	0.265491	0.862503
H143	H	0.811650	-0.289968	0.417783
H144	H	1.311650	0.210032	0.917783
H145	H	0.719018	-0.189866	0.407285
H146	H	1.219018	0.310134	0.907285
H147	H	0.719011	-0.245319	0.462580
H148	H	1.219011	0.254681	0.962580
C149	C	0.901843	-0.483830	1.061370
C150	C	1.401843	0.016170	1.561370
C151	C	0.887285	-0.416792	1.078474
C152	C	1.387285	0.083208	1.578474
H153	H	0.872449	-0.513192	1.085340
H154	H	1.372449	-0.013192	1.585340
H155	H	0.947310	-0.493738	1.072961
H156	H	1.447310	0.006262	1.572961
H157	H	0.895633	-0.490024	1.014210
H158	H	1.395633	0.009976	1.514210
H159	H	0.893500	-0.410596	1.125633
H160	H	1.393500	0.089404	1.625633
H161	H	0.841807	-0.406881	1.066887
H162	H	1.341807	0.093119	1.566887
C163	C	0.896351	-0.407779	0.504815
C164	C	1.396351	0.092221	1.004815
C165	C	0.887219	-0.416906	0.574319
C166	C	1.387219	0.083094	1.074319
H167	H	0.866950	-0.437151	0.480820
H168	H	1.366950	0.062849	0.980820
H169	H	0.941815	-0.417697	0.493238
H170	H	1.441815	0.082303	0.993238
H171	H	0.886472	-0.362300	0.493249
H172	H	1.386472	0.137700	0.993249
H173	H	0.897103	-0.462384	0.585886
H174	H	1.397103	0.037616	1.085886
H175	H	0.841745	-0.406993	0.585900
H176	H	1.341745	0.093007	1.085900
H177	H	0.236376	-0.404580	0.247439
H178	H	0.736376	0.095420	0.747439
C179	C	1.030794	-0.533099	0.191781
C180	C	1.530794	-0.033099	0.691781
C181	C	1.068960	-0.573678	0.235290
C182	C	1.568960	-0.073678	0.735290
H183	H	1.060179	-0.509114	0.162426
H184	H	1.560179	-0.009114	0.662426
H185	H	1.004992	-0.501941	0.217530
H186	H	1.504992	-0.001941	0.717530
H187	H	1.001334	-0.560726	0.165871
H188	H	1.501334	-0.060726	0.665871
H189	H	1.098416	-0.546051	0.261204
H190	H	1.598416	-0.046051	0.761204
H191	H	1.094772	-0.604839	0.209538
H192	H	1.594772	-0.104839	0.709538
C193	C	0.328692	-0.454831	0.197017
C194	C	0.828692	0.045169	0.697017
C195	C	0.374675	-0.416882	0.235069
C196	C	0.874675	0.083118	0.735069
H197	H	0.352651	-0.484168	0.167588
H198	H	0.852651	0.015832	0.667588
H199	H	0.301122	-0.425309	0.171186
H200	H	0.801122	0.074691	0.671186
H201	H	0.301124	-0.480761	0.226472
H202	H	0.801124	0.019239	0.726472
H203	H	0.402239	-0.390948	0.205614
H204	H	0.902239	0.109052	0.705614
H205	H	0.402256	-0.446408	0.260903
H206	H	0.902256	0.053592	0.760903
C207	C	0.820213	-0.402255	0.705617
C208	C	1.320213	0.097745	1.205617
C209	C	0.887238	-0.416872	0.722707
C210	C	1.387238	0.083128	1.222707
H211	H	0.790825	-0.431620	0.729592
H212	H	1.290825	0.068380	1.229592
H213	H	0.814012	-0.408461	0.658463
H214	H	1.314012	0.091539	1.158463
H215	H	0.810346	-0.356773	0.717217
H216	H	1.310346	0.143227	1.217217
H217	H	0.897107	-0.462353	0.711103
H218	H	1.397107	0.037647	1.211103
H219	H	0.893442	-0.410672	0.769872
H220	H	1.393442	0.089328	1.269872
C221	C	0.628179	-0.197426	0.455186
C222	C	1.128179	0.302574	0.955186
C223	C	0.582198	-0.235368	0.417124
C224	C	1.082198	0.264632	0.917124
H225	H	0.604217	-0.168095	0.484619
H226	H	1.104217	0.331905	0.984619
H227	H	0.655747	-0.171495	0.425742
H228	H	1.155747	0.328505	0.925742
H229	H	0.655748	-0.226957	0.481019
H230	H	1.155748	0.273043	0.981019
H231	H	0.554632	-0.205837	0.391287
H232	H	1.054632	0.294163	0.891287
H233	H	0.554618	-0.261301	0.446572
H234	H	1.054618	0.238699	0.946572
C235	C	0.849099	-0.619672	0.454821
C236	C	1.349099	-0.119672	0.954821
C237	C	0.887106	-0.573716	0.416860
C238	C	1.387106	-0.073716	0.916860
H239	H	0.819693	-0.595691	0.484160
H240	H	1.319693	-0.095691	0.984160
H241	H	0.878580	-0.647201	0.480744
H242	H	1.378580	-0.147201	0.980744
H243	H	0.823239	-0.647283	0.425302
H244	H	1.323239	-0.147283	0.925302
H245	H	0.912970	-0.546108	0.446379
H246	H	1.412970	-0.046108	0.946379
H247	H	0.857622	-0.546175	0.390935
H248	H	1.357622	-0.046175	0.890935
H249	H	0.364738	-0.247709	0.404784
H250	H	0.864738	0.252291	0.904784
H251	H	0.592133	-0.404535	0.247412
H252	H	1.092133	0.095465	0.747412
C253	C	0.896339	-0.791609	0.407768
C254	C	1.396339	-0.291609	0.907768
C255	C	0.887171	-0.722103	0.416888
C256	C	1.387171	-0.222103	0.916888
H257	H	0.866955	-0.815596	0.437122
H258	H	1.366955	-0.315596	0.937122
H259	H	0.941810	-0.803145	0.417714
H260	H	1.441810	-0.303145	0.917714
H261	H	0.886459	-0.803226	0.362283
H262	H	1.386459	-0.303226	0.862283
H263	H	0.897057	-0.710485	0.462372
H264	H	1.397057	-0.210485	0.962372
H265	H	0.841689	-0.710562	0.406947
H266	H	1.341689	-0.210562	0.906947
C267	C	0.684467	-0.454800	0.196995
C268	C	1.184467	0.045200	0.696995
C269	C	0.730445	-0.416849	0.235050
C270	C	1.230445	0.083151	0.735050
H271	H	0.708430	-0.484138	0.167570
H272	H	1.208430	0.015862	0.667570
H273	H	0.656899	-0.425280	0.171159
H274	H	1.156899	0.074720	0.671159
H275	H	0.656896	-0.480729	0.226448
H276	H	1.156896	0.019271	0.726448
H277	H	0.758013	-0.390915	0.205596
H278	H	1.258013	0.109085	0.705596
H279	H	0.758025	-0.446372	0.260887
H280	H	1.258025	0.053628	0.760887
H281	H	1.056827	-1.067751	0.247691
H282	H	1.556827	-0.567751	0.747691
H283	H	1.056734	-0.247532	0.584466
H284	H	1.556734	0.252468	1.084466
H285	H	0.899615	-0.404501	0.940170
H286	H	1.399615	0.095499	1.440170
C287	C	0.925396	-0.888785	0.460406
C288	C	1.425396	-0.388785	0.960406
C289	C	0.887257	-0.929483	0.416912
C290	C	1.387257	-0.429483	0.916912
H291	H	0.895995	-0.864811	0.489755
H292	H	1.395995	-0.364811	0.989755
H293	H	0.951172	-0.857616	0.434645
H294	H	1.451172	-0.357616	0.934645
H295	H	0.954878	-0.916329	0.486323
H296	H	1.454878	-0.416329	0.986323
H297	H	0.857778	-0.901938	0.390991
H298	H	1.357778	-0.401938	0.890991
H299	H	0.861469	-0.960655	0.442676
H300	H	1.361469	-0.460655	0.942676
H301	H	1.056778	-0.247450	0.940227
H302	H	1.556778	0.252550	1.440227
C303	C	1.054558	-0.946588	0.168305
C304	C	1.554558	-0.446588	0.668305
C305	C	1.069111	-0.929443	0.235347
C306	C	1.569111	-0.429443	0.735347
H307	H	1.083950	-0.922603	0.138957
H308	H	1.583950	-0.422603	0.638957
H309	H	1.009090	-0.935043	0.158355
H310	H	1.509090	-0.435043	0.658355
H311	H	1.060775	-0.993745	0.162136
H312	H	1.560775	-0.493745	0.662136
H313	H	1.062889	-0.882286	0.241518
H314	H	1.562889	-0.382286	0.741518
H315	H	1.114590	-0.940983	0.245301
H316	H	1.614590	-0.440983	0.745301
C317	C	1.107012	-0.676105	0.197346
C318	C	1.607012	-0.176105	0.697346
C319	C	1.069016	-0.722064	0.235315
C320	C	1.569016	-0.222064	0.735315
H321	H	1.136408	-0.700083	0.167997
H322	H	1.636408	-0.200083	0.667997
H323	H	1.132875	-0.648496	0.226855
H324	H	1.632875	-0.148496	0.726855
H325	H	1.077519	-0.648573	0.171429
H326	H	1.577519	-0.148573	0.671429
H327	H	1.098509	-0.749592	0.261237
H328	H	1.598509	-0.249592	0.761237
H329	H	1.043151	-0.749683	0.205803
H330	H	1.543151	-0.249683	0.705803
C331	C	1.107108	-0.197198	0.676845
C332	C	1.607108	0.302802	1.176845
C333	C	1.069093	-0.235169	0.722781
C334	C	1.569093	0.264831	1.222781
H335	H	1.136511	-0.167827	0.700841
H336	H	1.636511	0.332173	1.200841
H337	H	1.077633	-0.171308	0.649277
H338	H	1.577633	0.328692	1.149277
H339	H	1.132972	-0.226708	0.649270
H340	H	1.632972	0.273292	1.149270
H341	H	1.043225	-0.205658	0.750352
H342	H	1.543225	0.294342	1.250352
H343	H	1.098572	-0.261060	0.750360
H344	H	1.598572	0.238940	1.250360
C345	C	1.059999	-0.244193	1.148047
C346	C	1.559999	0.255807	1.648047
C347	C	1.069137	-0.235077	1.078542
C348	C	1.569137	0.264923	1.578542
H349	H	1.089392	-0.214810	1.172040
H350	H	1.589392	0.285190	1.672040
H351	H	1.069881	-0.289662	1.159622
H352	H	1.569881	0.210338	1.659622
H353	H	1.014527	-0.234276	1.159618
H354	H	1.514527	0.265724	1.659618
H355	H	1.114607	-0.244998	1.066970
H356	H	1.614607	0.255002	1.566970
H357	H	1.059259	-0.189597	1.066963
H358	H	1.559259	0.310403	1.566963
