data_functionalizedCrystal
_audit_creation_method	'MofGen! by Chris Wilmer'
_symmetry_space_group_name_H-M	'P1'
_symmetry_Int_Tables_number	1
_symmetry_cell_setting	triclinic
loop_
_symmetry_equiv_pos_as_xyz
  x,y,z
_cell_length_a	19.077212
_cell_length_b	25.639240
_cell_length_c	19.076919
_cell_angle_alpha	87.738531
_cell_angle_beta	90.114942
_cell_angle_gamma	92.324469
loop_
_atom_site_label
_atom_site_type_symbol
_atom_site_fract_x
_atom_site_fract_y
_atom_site_fract_z
Zn1	Zn	1.058257	-0.189803	0.440539
Zn2	Zn	1.558257	0.310197	0.940539
Zn3	Zn	1.062881	-0.273592	0.323013
Zn4	Zn	1.562881	0.226408	0.823013
Zn5	Zn	0.945473	-0.189528	0.318315
Zn6	Zn	1.445473	0.310472	0.818315
Zn7	Zn	0.940699	-0.280566	0.435744
Zn8	Zn	1.440699	0.219434	0.935744
O9	O	1.001828	-0.233372	0.379403
O10	O	1.501828	0.266628	0.879403
O11	O	1.157205	-0.198115	0.428922
O12	O	1.657205	0.301885	0.928922
O13	O	1.051240	-0.259407	0.224060
O14	O	1.551240	0.240593	0.724060
O15	O	0.960496	-0.116399	0.334568
O16	O	1.460496	0.383601	0.834568
O17	O	1.160602	-0.259674	0.342576
O18	O	1.660602	0.240326	0.842576
O19	O	1.043358	-0.116601	0.424366
O20	O	1.543358	0.383399	0.924366
O21	O	0.964980	-0.197645	0.220608
O22	O	1.464980	0.302355	0.720608
O23	O	0.846505	-0.204408	0.329919
O24	O	1.346505	0.295592	0.829919
O25	O	0.952361	-0.271560	0.534710
O26	O	1.452361	0.228440	1.034710
O27	O	0.842998	-0.271293	0.416194
O28	O	1.342998	0.228707	0.916194
O29	O	1.038730	-0.204877	0.538233
O30	O	1.538730	0.295123	1.038233
O31	O	1.046612	-0.347683	0.337926
O32	O	1.546612	0.152317	0.837926
O33	O	0.956845	-0.352807	0.420750
O34	O	1.456845	0.147193	0.920750
C35	C	0.819255	-0.238578	0.372027
C36	C	1.319255	0.261422	0.872027
C37	C	0.741148	-0.240818	0.368888
C38	C	1.241148	0.259182	0.868888
C39	C	1.001730	-0.369216	0.379344
C40	C	1.501730	0.130784	0.879344
C41	C	1.001752	-0.427330	0.379344
C42	C	1.501752	0.072670	0.879344
C43	C	0.301682	-0.256863	0.346410
C44	C	0.801682	0.243137	0.846410
C45	C	0.375071	-0.254755	0.349354
C46	C	0.875071	0.245245	0.849354
C47	C	0.409996	-0.221707	0.395855
C48	C	0.909996	0.278293	0.895855
C49	C	0.371528	-0.190762	0.439410
C50	C	0.871528	0.309238	0.939410
C51	C	0.298140	-0.192867	0.436462
C52	C	0.798140	0.307133	0.936462
C53	C	0.629292	-0.211977	0.409496
C54	C	1.129292	0.288023	0.909496
C55	C	0.702685	-0.209876	0.412442
C56	C	1.202685	0.290124	0.912442
C57	C	0.706224	-0.273869	0.322384
C58	C	1.206224	0.226131	0.822384
C59	C	0.632834	-0.275973	0.319444
C60	C	1.132834	0.224027	0.819444
C61	C	0.594373	-0.245026	0.362996
C62	C	1.094373	0.254974	0.862996
N63	N	0.485012	-0.219553	0.398866
N64	N	0.985012	0.280447	0.898866
N65	N	0.519359	-0.247177	0.359980
N66	N	1.019359	0.252823	0.859980
C67	C	1.044993	-0.787761	0.426242
C68	C	1.544993	-0.287761	0.926242
C69	C	1.045013	-0.842365	0.426257
C70	C	1.545013	-0.342365	0.926257
O71	O	1.081662	-0.870661	0.466070
O72	O	1.581662	-0.370661	0.966070
N73	N	1.001922	-0.869611	0.379475
N74	N	1.501922	-0.369611	0.879475
C75	C	0.958803	-0.842250	0.332678
C76	C	1.458803	-0.342250	0.832678
O77	O	0.922153	-0.870439	0.292888
O78	O	1.422153	-0.370439	0.792888
C79	C	0.958780	-0.787647	0.332667
C80	C	1.458780	-0.287647	0.832667
C81	C	1.001879	-0.760404	0.379448
C82	C	1.501879	-0.260404	0.879448
C83	C	1.088088	-0.760517	0.473020
C84	C	1.588088	-0.260517	0.973020
C85	C	1.088068	-0.705917	0.473004
C86	C	1.588068	-0.205917	0.973004
C87	C	1.044954	-0.678560	0.426210
C88	C	1.544954	-0.178560	0.926210
C89	C	1.001860	-0.705803	0.379432
C90	C	1.501860	-0.205803	0.879432
C91	C	0.915658	-0.760287	0.285875
C92	C	1.415658	-0.260287	0.785875
C93	C	0.915638	-0.705681	0.285868
C94	C	1.415638	-0.205681	0.785868
C95	C	0.958737	-0.678437	0.332649
C96	C	1.458737	-0.178437	0.832649
C97	C	0.958726	-0.623846	0.332622
C98	C	1.458726	-0.123846	0.832622
N99	N	1.001817	-0.596600	0.379405
N100	N	1.501817	-0.096600	0.879405
C101	C	1.044931	-0.623957	0.426199
C102	C	1.544931	-0.123957	0.926199
C103	C	0.958855	-0.956920	0.332706
C104	C	1.458855	-0.456920	0.832706
C105	C	0.958881	-1.011522	0.332713
C106	C	1.458881	-0.511522	0.832713
C107	C	1.045090	-1.011633	0.426294
C108	C	1.545090	-0.511633	0.926294
C109	C	1.045067	-0.957030	0.426283
C110	C	1.545067	-0.457030	0.926283
C111	C	1.001946	-0.929674	0.379489
C112	C	1.501946	-0.429674	0.879489
C113	C	1.044887	-0.509292	0.426161
C114	C	1.544887	-0.009292	0.926161
C115	C	1.044866	-0.454687	0.426139
C116	C	1.544866	0.045313	0.926139
C117	C	0.958655	-0.454580	0.332561
C118	C	1.458655	0.045420	0.832561
C119	C	0.958678	-0.509181	0.332581
C120	C	1.458678	-0.009181	0.832581
C121	C	1.001797	-0.536535	0.379386
C122	C	1.501797	-0.036535	0.879386
O123	O	0.922094	-0.595515	0.292831
O124	O	1.422094	-0.095515	0.792831
O125	O	1.081569	-0.595762	0.465989
O126	O	1.581569	-0.095762	0.965989
C127	C	1.185113	-0.228147	0.386808
C128	C	1.685113	0.271853	0.886808
C129	C	1.263219	-0.225920	0.389963
C130	C	1.763219	0.274080	0.889963
C131	C	0.994497	-0.239027	0.562680
C132	C	1.494497	0.260973	1.062680
C133	C	0.991373	-0.241437	0.640782
C134	C	1.491373	0.258563	1.140782
C135	C	1.001944	-0.096998	0.379478
C136	C	1.501944	0.403002	0.879478
C137	C	1.001993	-0.038884	0.379510
C138	C	1.501993	0.461116	0.879510
C139	C	1.009170	-0.227701	0.196840
C140	C	1.509170	0.272299	0.696840
C141	C	1.012430	-0.225140	0.118744
C142	C	1.512430	0.274860	0.618744
C143	C	1.034871	-0.207852	0.679310
C144	C	1.534871	0.292148	1.179310
C145	C	1.031927	-0.210115	0.752695
C146	C	1.531927	0.289885	1.252695
C147	C	0.985489	-0.245965	0.787551
C148	C	1.485489	0.254035	1.287551
C149	C	0.941986	-0.279551	0.749018
C150	C	1.441986	0.220449	1.249018
C151	C	0.944927	-0.277286	0.675634
C152	C	1.444927	0.222714	1.175634
C153	C	0.971868	-0.256461	1.006827
C154	C	1.471868	0.243539	1.506827
C155	C	0.968932	-0.258725	1.080216
C156	C	1.468932	0.241275	1.580216
C157	C	1.058873	-0.189287	1.083888
C158	C	1.558873	0.310713	1.583888
C159	C	1.061813	-0.187027	1.010503
C160	C	1.561813	0.312973	1.510503
C161	C	1.018307	-0.220611	0.971976
C162	C	1.518307	0.279389	1.471976
N163	N	0.982480	-0.248280	0.862562
N164	N	1.482480	0.251720	1.362562
N165	N	1.021313	-0.218294	0.896966
N166	N	1.521313	0.281706	1.396966
H167	H	0.273251	-0.283776	0.308547
H168	H	0.773251	0.216224	0.808547
H169	H	1.067349	-0.182768	0.784061
H170	H	1.567349	0.317232	1.284061
F171	F	1.090937	-0.928040	0.476074
F172	F	1.590937	-0.428040	0.976074
H173	H	0.936454	-0.283815	0.975468
H174	H	1.436454	0.216185	1.475468
F175	F	0.747163	-0.306802	0.276034
F176	F	1.247163	0.193198	0.776034
H177	H	0.597986	-0.186780	0.444962
H178	H	1.097986	0.313220	0.944962
H179	H	0.923590	-0.531363	0.294482
H180	H	1.423590	-0.031363	0.794482
H181	H	0.399970	-0.163851	0.477269
H182	H	0.899970	0.336149	0.977269
H183	H	1.072688	-0.178661	0.650936
H184	H	1.572688	0.321339	1.150936
F185	F	0.912773	-0.425455	0.282761
F186	F	1.412773	0.074545	0.782761
F187	F	0.257205	-0.159932	0.482815
F188	F	0.757205	0.340068	0.982815
H189	H	0.904172	-0.308739	0.777403
H190	H	1.404172	0.191261	1.277403
H191	H	0.909499	-0.304629	0.644266
H192	H	1.409499	0.195371	1.144266
F193	F	1.090741	-0.425695	0.475930
F194	F	1.590741	0.074305	0.975930
F195	F	1.090976	-1.040758	0.476097
F196	F	1.590976	-0.540758	0.976097
H197	H	0.880562	-0.782460	0.247780
H198	H	1.380562	-0.282460	0.747780
H199	H	0.923794	-1.033698	0.294612
H200	H	1.423794	-0.533698	0.794612
H201	H	0.406385	-0.279951	0.313887
H202	H	0.906385	0.220049	0.813887
F203	F	0.595671	-0.311135	0.269935
F204	F	1.095671	0.188865	0.769935
F205	F	0.739853	-0.174699	0.461936
F206	F	1.239853	0.325301	0.961936
H207	H	1.079994	-0.531558	0.464279
H208	H	1.579994	-0.031558	0.964279
H209	H	1.123161	-0.683739	0.511099
H210	H	1.623161	-0.183739	1.011099
F211	F	0.912960	-0.927810	0.282895
F212	F	1.412960	-0.427810	0.782895
H213	H	1.099630	-0.157836	0.982128
H214	H	1.599630	0.342164	1.482128
F215	F	1.105169	-0.153546	1.124896
F216	F	1.605169	0.346454	1.624896
H217	H	1.123196	-0.782786	0.511130
H218	H	1.623196	-0.282786	1.011130
H219	H	0.880521	-0.683410	0.247764
H220	H	1.380521	-0.183410	0.747764
F221	F	0.919501	-0.296881	1.117311
F222	F	1.419501	0.203119	1.617311
