data_functionalizedCrystal
_audit_creation_method	'MofGen! by Chris Wilmer'
_symmetry_space_group_name_H-M	'P1'
_symmetry_Int_Tables_number	1
_symmetry_cell_setting	triclinic
loop_
_symmetry_equiv_pos_as_xyz
  x,y,z
_cell_length_a	19.288840
_cell_length_b	11.792241
_cell_length_c	18.366186
_cell_angle_alpha	89.993644
_cell_angle_beta	89.983729
_cell_angle_gamma	83.659716
loop_
_atom_site_label
_atom_site_type_symbol
_atom_site_fract_x
_atom_site_fract_y
_atom_site_fract_z
O1	O	0.922167	0.141447	-0.060672
O2	O	1.422167	0.641447	0.439328
O3	O	0.720013	0.160576	-0.060646
O4	O	1.220013	0.660576	0.439354
O5	O	0.825996	-0.014235	-0.060655
O6	O	1.325996	0.485765	0.439345
O7	O	0.816184	0.316257	-0.060664
O8	O	1.316184	0.816257	0.439336
O9	O	0.825978	-0.014243	0.060445
O10	O	1.325978	0.485757	0.560445
O11	O	0.719995	0.160567	0.060453
O12	O	1.219995	0.660567	0.560453
O13	O	0.922149	0.141438	0.060428
O14	O	1.422149	0.641438	0.560428
Zn15	Zn	0.821069	0.151001	0.079667
Zn16	Zn	1.321069	0.651001	0.579667
Zn17	Zn	0.821093	0.151012	-0.079886
Zn18	Zn	1.321093	0.651012	0.420114
O19	O	0.816166	0.316248	0.060436
O20	O	1.316166	0.816248	0.560436
C21	C	0.694124	0.159961	-0.000094
C22	C	1.194124	0.659961	0.499906
C23	C	0.617009	0.158127	-0.000084
C24	C	1.117009	0.658127	0.499916
C25	C	0.580810	0.157251	-0.066097
C26	C	1.080810	0.657251	0.433903
C27	C	0.508353	0.155516	-0.066106
C28	C	1.008353	0.655516	0.433894
C29	C	0.472100	0.154634	-0.000098
C30	C	0.972100	0.654634	0.499902
C31	C	0.508307	0.155516	0.065924
C32	C	1.008307	0.655516	0.565924
C33	C	0.580761	0.157263	0.065931
C34	C	1.080761	0.657263	0.565931
C35	C	0.362371	0.085386	0.050465
C36	C	0.862371	0.585386	0.550465
C37	C	0.289918	0.083632	0.050456
C38	C	0.789918	0.583632	0.550456
C39	C	0.248625	0.149251	-0.000117
C40	C	0.748625	0.649251	0.499883
C41	C	0.279795	0.216610	-0.050691
C42	C	0.779795	0.716610	0.449309
C43	C	0.352250	0.218356	-0.050684
C44	C	0.852250	0.718356	0.449316
C45	C	0.393535	0.152740	-0.000098
C46	C	0.893535	0.652740	0.499902
C47	C	0.133861	0.146495	-0.066144
C48	C	0.633861	0.646495	0.433856
C49	C	0.061402	0.144767	-0.066150
C50	C	0.561402	0.644767	0.433850
C51	C	0.061358	0.144756	0.065882
C52	C	0.561358	0.644756	0.565882
C53	C	0.133814	0.146496	0.065886
C54	C	0.633814	0.646496	0.565886
C55	C	0.170062	0.147360	-0.000129
C56	C	0.670062	0.647360	0.499871
C57	C	0.825370	-0.056520	-0.000105
C58	C	1.325370	0.443480	0.499895
C59	C	0.823526	-0.182506	-0.000106
C60	C	1.323526	0.317494	0.499894
C61	C	0.820134	-0.413166	-0.000117
C62	C	1.320134	0.086834	0.499883
C63	C	0.822018	-0.284810	-0.000111
C64	C	1.322018	0.215190	0.499889
C65	C	0.948038	0.142053	-0.000127
C66	C	1.448038	0.642053	0.499873
C67	C	1.025153	0.143887	-0.000141
C68	C	1.525153	0.643887	0.499859
C69	C	0.816792	0.358534	-0.000115
C70	C	1.316792	0.858534	0.499885
C71	C	0.818636	0.484519	-0.000120
C72	C	1.318636	0.984519	0.499880
N73	N	0.821058	0.150993	0.188559
N74	N	1.321058	0.650993	0.688559
N75	N	0.821110	0.151012	-0.188777
N76	N	1.321110	0.651012	0.311223
C77	C	0.868003	0.073625	0.226655
C78	C	1.368003	0.573625	0.726655
C79	C	0.868007	0.073620	0.302883
C80	C	1.368007	0.573620	0.802883
C81	C	0.821073	0.151002	0.341011
C82	C	1.321073	0.651002	0.841011
C83	C	0.774120	0.228376	0.302905
C84	C	1.274120	0.728376	0.802905
C85	C	0.774112	0.228371	0.226679
C86	C	1.274112	0.728371	0.726679
C87	C	0.812362	0.254415	0.461770
C88	C	1.312362	0.754415	0.961770
C89	C	0.812375	0.254421	0.537994
C90	C	1.312375	0.754421	1.037994
C91	C	0.821093	0.151016	0.576119
C92	C	1.321093	0.651016	1.076119
C93	C	0.829813	0.047601	0.538009
C94	C	1.329813	0.547601	1.038009
C95	C	0.829806	0.047597	0.461783
C96	C	1.329806	0.547597	0.961783
C97	C	0.821076	0.151015	0.423666
C98	C	1.321076	0.651015	0.923666
C99	C	0.868045	0.073636	0.696871
C100	C	1.368045	0.573636	1.196871
C101	C	0.868045	0.073630	0.773100
C102	C	1.368045	0.573630	1.273100
C103	C	0.774161	0.228396	0.773120
C104	C	1.274161	0.728396	1.273120
C105	C	0.774158	0.228393	0.696893
C106	C	1.274158	0.728393	1.196893
C107	C	0.821104	0.151014	0.658772
C108	C	1.321104	0.651014	1.158772
H109	H	0.610318	0.157955	-0.119851
H110	H	1.110318	0.657955	0.380149
O111	O	0.172963	0.147447	-0.137340
O112	O	0.672963	0.647447	0.362660
H113	H	0.135614	0.146567	-0.183247
H114	H	0.635614	0.646567	0.316753
H115	H	0.906270	0.010626	0.665832
H116	H	1.406270	0.510626	1.165832
H117	H	0.377625	0.273205	-0.091862
H118	H	0.877625	0.773205	0.408138
H119	H	0.906271	0.010621	0.804119
H120	H	1.406271	0.510621	1.304119
O121	O	0.469306	0.154557	-0.137313
O122	O	0.969306	0.654557	0.362687
H123	H	0.430390	0.231101	-0.140487
H124	H	0.930390	0.731101	0.359513
O125	O	0.256307	0.010977	0.105000
O126	O	0.756307	0.510977	0.605000
H127	H	0.198989	0.020771	0.096492
H128	H	0.698989	0.520771	0.596492
H129	H	0.805251	0.338624	0.430735
H130	H	1.305251	0.838624	0.930735
O131	O	0.918634	-0.009839	0.185544
O132	O	1.418634	0.490161	0.685544
H133	H	0.910747	0.003158	0.126137
H134	H	1.410747	0.503158	0.626137
H135	H	0.031930	0.144060	-0.119908
H136	H	0.531930	0.644060	0.380092
O137	O	0.918649	-0.009818	0.343988
O138	O	1.418649	0.490182	0.843988
H139	H	0.951295	-0.063617	0.304674
H140	H	1.451295	0.436383	0.804674
O141	O	0.723538	0.311865	0.814232
O142	O	1.223538	0.811865	1.314232
H143	H	0.731432	0.298877	0.873638
H144	H	1.231432	0.798877	1.373638
O145	O	0.723500	0.311848	0.344022
O146	O	1.223500	0.811848	0.844022
H147	H	0.731397	0.298863	0.403429
H148	H	1.231397	0.798863	0.903429
O149	O	0.723482	0.311830	0.185581
O150	O	1.223482	0.811830	0.685581
H151	H	0.690847	0.365644	0.224897
H152	H	1.190847	0.865644	0.724897
O153	O	0.235270	0.287401	-0.105240
O154	O	0.735270	0.787401	0.394760
H155	H	0.179650	0.274887	-0.096744
H156	H	0.679650	0.774887	0.403256
O157	O	0.723532	0.311853	0.655795
O158	O	1.223532	0.811853	1.155795
H159	H	0.690900	0.365670	0.695111
H160	H	1.190900	0.865670	1.195111
H161	H	0.031840	0.144045	0.119627
H162	H	0.531840	0.644045	0.619627
O163	O	0.172863	0.147457	0.137086
O164	O	0.672863	0.647457	0.637086
H165	H	0.135483	0.146555	0.182986
H166	H	0.635483	0.646555	0.682986
H167	H	0.395987	0.031947	0.091651
H168	H	0.895987	0.531947	0.591651
H169	H	0.805279	0.338627	0.569018
H170	H	1.305279	0.838627	1.069018
O171	O	0.469072	0.154706	0.137043
O172	O	0.969072	0.654706	0.637043
H173	H	0.488755	0.077756	0.168815
H174	H	0.988755	0.577756	0.668815
H175	H	0.836904	-0.036607	0.430756
H176	H	1.336904	0.463393	0.930756
O177	O	0.619810	0.158223	0.137133
O178	O	1.119810	0.658223	0.637133
H179	H	0.582431	0.157323	0.183034
H180	H	1.082431	0.657323	0.683034
H181	H	0.836912	-0.036600	0.569048
H182	H	1.336912	0.463400	1.069048
