data_functionalizedCrystal
_audit_creation_method	'MofGen! by Chris Wilmer'
_symmetry_space_group_name_H-M	'P1'
_symmetry_Int_Tables_number	1
_symmetry_cell_setting	triclinic
loop_
_symmetry_equiv_pos_as_xyz
  x,y,z
_cell_length_a	16.109301
_cell_length_b	15.944493
_cell_length_c	14.421503
_cell_angle_alpha	89.997074
_cell_angle_beta	89.997488
_cell_angle_gamma	83.468262
loop_
_atom_site_label
_atom_site_type_symbol
_atom_site_fract_x
_atom_site_fract_y
_atom_site_fract_z
O1	O	1.103145	0.107975	-0.077041
O2	O	1.603145	0.607975	0.422959
O3	O	0.861085	0.121412	-0.077054
O4	O	1.361085	0.621412	0.422946
O5	O	0.988750	-0.007587	-0.077055
O6	O	1.488750	0.492413	0.422945
O7	O	0.975479	0.236974	-0.077040
O8	O	1.475479	0.736974	0.422960
O9	O	0.988738	-0.007601	0.077169
O10	O	1.488738	0.492399	0.577169
O11	O	0.861073	0.121398	0.077169
O12	O	1.361073	0.621398	0.577169
O13	O	1.103133	0.107961	0.077183
O14	O	1.603133	0.607961	0.577183
Cu15	Cu	0.982102	0.114678	0.091258
Cu16	Cu	1.482102	0.614678	0.591258
Cu17	Cu	0.982116	0.114695	-0.091129
Cu18	Cu	1.482116	0.614695	0.408871
O19	O	0.975468	0.236960	0.077183
O20	O	1.475468	0.736960	0.577183
C21	C	0.830104	0.120861	0.000056
C22	C	1.330104	0.620861	0.500056
C23	C	0.737808	0.119229	0.000050
C24	C	1.237808	0.619229	0.500050
C25	C	0.515544	0.191980	0.000065
C26	C	1.015544	0.691980	0.500065
C27	C	0.428824	0.190440	0.000071
C28	C	0.928824	0.690440	0.500071
C29	C	0.448680	0.037388	0.000058
C30	C	0.948680	0.537388	0.500058
C31	C	0.535399	0.038928	0.000059
C32	C	1.035399	0.538928	0.500059
C33	C	0.568829	0.116227	0.000058
C34	C	1.068829	0.616227	0.500058
C35	C	0.395389	0.113146	0.000063
C36	C	0.895389	0.613146	0.500063
C37	C	0.301363	0.111476	0.000069
C38	C	0.801363	0.611476	0.500069
C39	C	0.662861	0.117897	0.000053
C40	C	1.162861	0.617897	0.500053
C41	C	0.988202	-0.038888	0.000053
C42	C	1.488202	0.461112	0.500053
C43	C	0.986576	-0.132136	0.000041
C44	C	1.486576	0.367864	0.500041
C45	C	1.061722	-0.367921	0.000063
C46	C	1.561722	0.132079	0.500063
C47	C	1.021204	-0.418469	-0.075979
C48	C	1.521204	0.081531	0.424021
C49	C	0.983563	-0.302856	0.000052
C50	C	1.483563	0.197144	0.500052
C51	C	1.021175	-0.418459	0.076073
C52	C	1.521175	0.081541	0.576073
C53	C	0.980658	-0.467765	0.000067
C54	C	1.480658	0.032235	0.500067
C55	C	0.943066	-0.352176	-0.076052
C56	C	1.443066	0.147824	0.423948
C57	C	0.943047	-0.352162	0.076068
C58	C	1.443047	0.147838	0.576068
C59	C	0.902472	-0.402677	0.000008
C60	C	1.402472	0.097323	0.500008
C61	C	0.985238	-0.207857	0.000043
C62	C	1.485238	0.292143	0.500043
C63	C	0.978976	-0.562762	0.000070
C64	C	1.478976	-0.062762	0.500070
C65	C	1.134114	0.108513	0.000071
C66	C	1.634114	0.608513	0.500071
C67	C	1.226410	0.110144	0.000070
C68	C	1.726410	0.610144	0.500070
C69	C	0.976016	0.268262	0.000074
C70	C	1.476016	0.768262	0.500074
C71	C	0.977642	0.361510	0.000079
C72	C	1.477642	0.861510	0.500079
N73	N	0.982098	0.114666	0.219539
N74	N	1.482098	0.614666	0.719539
N75	N	0.982126	0.114700	-0.219410
N76	N	1.482126	0.614700	0.280590
C77	C	1.040688	0.054543	0.530967
C78	C	1.540688	0.554543	1.030967
C79	C	1.057487	0.130210	0.469137
C80	C	1.557487	0.630210	0.969137
C81	C	0.982117	0.114691	0.591428
C82	C	1.482117	0.614691	1.091428
C83	C	0.965348	0.039014	0.469165
C84	C	1.465348	0.539014	0.969165
C85	C	0.982110	0.114675	0.408707
C86	C	1.482110	0.614675	0.908707
C87	C	0.998953	0.190396	0.530958
C88	C	1.498953	0.690396	1.030958
C89	C	0.906782	0.099150	0.530992
C90	C	1.406782	0.599150	1.030992
C91	C	0.923549	0.174872	0.469189
C92	C	1.423549	0.674872	0.969189
C93	C	0.982123	0.114699	0.696689
C94	C	1.482123	0.614699	1.196689
C95	C	0.982103	0.114675	0.303448
C96	C	1.482103	0.614675	0.803448
H97	H	0.542760	0.254921	0.000071
H98	H	1.042760	0.754921	0.500071
H99	H	0.910081	-0.323340	-0.140409
H100	H	1.410081	0.176660	0.359591
Br101	Br	0.403306	-0.067513	0.000056
Br102	Br	0.903306	0.432487	0.500056
H103	H	1.129047	-0.352315	-0.000010
H104	H	1.629047	0.147685	0.499990
H105	H	0.835095	-0.418121	-0.000038
H106	H	1.335095	0.081879	0.499962
H107	H	0.385443	0.252126	0.000079
H108	H	0.885443	0.752126	0.500079
H109	H	0.874012	0.225785	0.442235
H110	H	1.374012	0.725785	0.942235
H111	H	0.578786	-0.022763	0.000055
H112	H	1.078786	0.477237	0.500055
Br113	Br	1.022715	0.297077	0.576002
Br114	Br	1.522715	0.797077	1.076002
H115	H	1.054217	-0.447420	-0.140264
H116	H	1.554217	0.052580	0.359736
Br117	Br	0.888088	-0.303859	0.183220
Br118	Br	1.388088	0.196141	0.683220
Br119	Br	1.163661	0.152105	0.423825
Br120	Br	1.663661	0.652105	0.923825
H121	H	0.843096	0.085982	0.558182
H122	H	1.343096	0.585982	1.058182
Br123	Br	1.123299	-0.030130	0.576183
Br124	Br	1.623299	0.469870	1.076183
H125	H	1.054194	-0.447406	0.140356
H126	H	1.554194	0.052594	0.640356
Br127	Br	0.941707	-0.067643	0.423927
Br128	Br	1.441707	0.432357	0.923927
