data_functionalizedCrystal
_audit_creation_method	'MofGen! by Chris Wilmer'
_symmetry_space_group_name_H-M	'P1'
_symmetry_Int_Tables_number	1
_symmetry_cell_setting	triclinic
loop_
_symmetry_equiv_pos_as_xyz
  x,y,z
_cell_length_a	14.560438
_cell_length_b	23.196402
_cell_length_c	23.196401
_cell_angle_alpha	60.008822
_cell_angle_beta	90.014674
_cell_angle_gamma	60.002032
loop_
_atom_site_label
_atom_site_type_symbol
_atom_site_fract_x
_atom_site_fract_y
_atom_site_fract_z
Zr1	Zr	0.884751	0.631008	-0.075618
O2	O	0.738075	0.751274	-0.167666
O3	O	0.929712	0.510743	-0.047404
O4	O	0.929671	0.631010	-0.167670
O5	O	0.738152	0.631005	0.047470
O6	O	1.080809	0.631012	-0.167668
O7	O	0.738116	0.631006	-0.047401
O8	O	1.080882	0.415876	0.047464
O9	O	0.738080	0.846141	-0.167662
O10	O	1.061684	0.560211	-0.035366
O11	O	0.948918	0.560209	0.035434
O12	O	0.948870	0.701808	-0.106162
O13	O	0.836105	0.701806	-0.035362
Zr14	Zr	1.125857	0.631009	0.075693
Zr15	Zr	1.125799	0.631011	-0.075616
Zr16	Zr	0.884809	0.631006	0.075690
Zr17	Zr	0.884758	0.782311	-0.075612
Zr18	Zr	1.125850	0.479706	0.075686
O19	O	1.080897	0.751274	0.047479
O20	O	1.080815	0.751277	-0.167663
O21	O	0.738157	0.751270	0.047475
O22	O	1.272533	0.510744	0.167741
O23	O	1.272451	0.510747	-0.047401
O24	O	0.929794	0.510740	0.167737
O25	O	1.272456	0.631012	-0.047396
O26	O	1.080937	0.631007	0.167744
O27	O	0.929799	0.631005	0.167743
O28	O	1.272492	0.631011	0.047476
O29	O	0.929681	0.846143	-0.167660
O30	O	1.080928	0.415874	0.167735
O31	O	1.272529	0.415876	0.167737
O32	O	1.272483	0.415878	0.047466
O33	O	0.738125	0.846139	-0.047392
O34	O	0.929726	0.846141	-0.047390
O35	O	1.061738	0.560209	0.106237
O36	O	1.174504	0.560211	0.035437
O37	O	1.061690	0.701808	-0.035360
O38	O	0.948924	0.701806	0.035440
C39	C	1.005296	0.441752	0.000029
C40	C	1.005293	0.377520	0.000026
C41	C	0.703790	0.631005	0.000034
C42	C	0.601459	0.631004	0.000033
C43	C	1.064148	0.347351	-0.036933
C44	C	1.064159	0.286990	-0.036928
C45	C	1.005293	0.256812	0.000028
C46	C	0.946435	0.286985	0.036996
C47	C	0.946436	0.347340	0.036995
C48	C	0.906671	0.194782	-0.005247
C49	C	0.906668	0.134433	-0.005251
C50	C	1.005294	0.070657	0.000035
C51	C	1.103923	0.067247	0.005312
C52	C	1.103923	0.127601	0.005311
C53	C	1.005287	0.191368	0.000034
C54	C	1.064166	-0.024963	-0.036920
C55	C	1.064180	-0.085329	-0.036909
C56	C	0.946446	-0.085326	0.037010
C57	C	0.946443	-0.024968	0.037004
C58	C	1.005300	0.005213	0.000035
C59	C	0.612268	0.557094	0.036988
C60	C	0.516113	0.557097	0.036994
C61	C	0.398343	0.704929	-0.036915
C62	C	0.494497	0.704924	-0.036916
C63	C	0.719229	0.483173	0.073938
C64	C	0.730043	0.409257	0.110895
C65	C	0.633888	0.409261	0.110901
C66	C	0.526920	0.483181	0.073950
C67	C	1.306819	0.631012	0.000040
C68	C	1.409150	0.631013	0.000041
C69	C	1.005232	0.631011	-0.189227
C70	C	1.005208	0.631012	-0.253462
C71	C	1.005313	0.820265	0.000045
C72	C	1.005315	0.884497	0.000048
C73	C	0.946326	0.704922	-0.320590
C74	C	0.946354	0.704923	-0.380945
C75	C	1.005249	0.631010	-0.374168
C76	C	1.064144	0.557091	-0.307028
C77	C	1.064123	0.557092	-0.246675
C78	C	0.996884	0.574382	-0.441488
C79	C	0.996896	0.574384	-0.501841
C80	C	1.005321	0.631004	-0.560316
C81	C	1.013709	0.687636	-0.558436
C82	C	1.013688	0.687637	-0.498083
C83	C	1.005279	0.631001	-0.439607
C84	C	0.946467	0.704920	-0.692890
C85	C	0.946503	0.704918	-0.753245
C86	C	1.064286	0.557084	-0.679326
C87	C	1.064257	0.557088	-0.618973
C88	C	1.005341	0.631008	-0.625760
C89	C	1.005376	0.631006	0.189302
C90	C	1.005401	0.631005	0.253536
C91	C	1.306810	0.441756	0.000032
C92	C	1.409139	0.377525	0.000030
C93	C	1.005368	0.441749	0.189294
C94	C	1.005390	0.377517	0.253525
C95	C	1.306882	0.441753	0.189297
C96	C	1.409235	0.377521	0.253529
C97	C	0.703726	0.820265	-0.189222
C98	C	0.601373	0.884496	-0.253455
C99	C	0.703798	0.820262	0.000042
C100	C	0.601470	0.884492	0.000044
C101	C	1.005240	0.820268	-0.189219
C102	C	1.005219	0.884501	-0.253451
C103	C	1.398302	0.347361	-0.036935
C104	C	1.494442	0.287018	-0.036951
C105	C	1.601416	0.256835	0.000003
C106	C	1.612250	0.287005	0.036970
C107	C	1.516112	0.347351	0.036981
C108	C	1.064291	0.347352	0.320654
C109	C	1.064307	0.287007	0.381012
C110	C	1.005428	0.256823	0.374241
C111	C	0.946520	0.286994	0.307105
C112	C	0.946498	0.347342	0.246748
C113	C	1.516174	0.347358	0.246737
C114	C	1.612355	0.287014	0.307085
C115	C	1.601594	0.256830	0.374224
C116	C	1.494644	0.286998	0.381016
C117	C	1.398466	0.347345	0.320668
C118	C	0.494434	0.914666	-0.246662
C119	C	0.398254	0.975029	-0.307010
C120	C	0.409014	1.005217	-0.374150
C121	C	0.515964	0.975044	-0.380941
C122	C	0.612142	0.914687	-0.320594
C123	C	0.612306	0.914662	0.037003
C124	C	0.516167	0.975022	0.037002
C125	C	0.409192	1.005207	0.000046
C126	C	0.398358	0.975035	-0.036918
C127	C	0.494497	0.914680	-0.036921
C128	C	1.064109	0.914665	-0.246657
C129	C	1.064111	0.975011	-0.307003
C130	C	1.005215	1.005195	-0.374144
C131	C	0.946323	0.975024	-0.380937
C132	C	0.946328	0.914676	-0.320591
H133	H	1.112076	0.371921	-0.067033
H134	H	1.112087	0.262422	-0.067025
Br135	Br	0.253170	1.016007	-0.087067
Br136	Br	1.530839	0.388276	0.087158
H137	H	0.898371	0.999609	-0.435611
H138	H	1.679918	0.207691	0.423357
H139	H	1.112066	0.999569	-0.301459
H140	H	0.826346	0.246718	-0.009567
H141	H	1.524957	0.371926	0.192074
Br142	Br	1.757486	0.246082	0.297851
Br143	Br	1.144035	0.456778	-0.155565
H144	H	1.485899	0.262413	0.435689
H145	H	0.699401	0.890090	0.067102
H146	H	0.525010	0.999578	0.067105
Br147	Br	0.396424	0.483185	0.073968
Br148	Br	0.772814	0.139071	-0.012419
Br149	Br	1.253338	0.388270	0.329900
H150	H	0.485658	0.890117	-0.067015
H151	H	0.311180	0.999585	-0.301467
H152	H	0.485692	0.765109	-0.066995
H153	H	1.112069	0.890099	-0.191993
H154	H	0.898507	0.262410	0.067086
H155	H	0.898582	0.262409	0.301602
H156	H	1.485598	0.262461	-0.067053
Br157	Br	1.005469	0.174921	0.456162
H158	H	0.990015	0.528276	-0.393880
Br159	Br	1.757439	0.246031	0.087121
H160	H	0.898403	0.765111	-0.435611
Br161	Br	0.866387	0.873752	-0.329824
H162	H	0.898506	0.371904	0.067092
Br163	Br	1.253135	0.388312	-0.087095
Br164	Br	0.278729	1.087118	0.000057
Br165	Br	1.005217	1.087099	-0.456036
H166	H	0.485651	0.890091	-0.191999
Br167	Br	0.866557	0.388268	0.155647
Br168	Br	1.237781	-0.019296	0.012481
Br169	Br	0.849728	0.483164	0.073925
H170	H	0.898516	-0.109897	0.067100
Br171	Br	0.278474	1.087132	-0.456044
Br172	Br	0.530549	1.016020	-0.472065
H173	H	1.184231	0.124819	0.009609
H174	H	0.699214	0.890123	-0.326133
H175	H	1.112237	0.371921	0.326181
H176	H	1.112096	-0.000391	-0.067020
Br177	Br	0.866595	0.805234	-0.844354
Br178	Br	0.866564	0.015979	0.087166
Br179	Br	1.144059	-0.126272	-0.087075
H180	H	0.642698	0.349074	0.140999
Br181	Br	0.875207	0.308941	0.161054
Br182	Br	0.866340	0.805242	-0.329803
Br183	Br	0.253177	0.805243	-0.087060
H184	H	1.020564	0.733744	-0.606049
Br185	Br	0.866539	0.805238	-0.702096
Br186	Br	1.025071	0.764489	-0.495531
H187	H	1.112281	0.262450	0.435671
H188	H	1.112241	0.496902	-0.673807
Br189	Br	0.985496	0.497537	-0.504391
Br190	Br	1.144149	0.456776	-0.527865
H191	H	1.112099	0.496911	-0.301514
H192	H	1.679689	0.207697	-0.000011
