data_functionalizedCrystal
_audit_creation_method	'MofGen! by Chris Wilmer'
_symmetry_space_group_name_H-M	'P1'
_symmetry_Int_Tables_number	1
_symmetry_cell_setting	triclinic
loop_
_symmetry_equiv_pos_as_xyz
  x,y,z
_cell_length_a	9.798715
_cell_length_b	10.723023
_cell_length_c	10.723024
_cell_angle_alpha	95.532291
_cell_angle_beta	90.005403
_cell_angle_gamma	89.999247
loop_
_atom_site_label
_atom_site_type_symbol
_atom_site_fract_x
_atom_site_fract_y
_atom_site_fract_z
O1	O	0.113503	-1.657181	0.175027
O2	O	0.113502	-1.294029	0.191781
O3	O	0.113498	-1.483981	0.001828
O4	O	0.113508	-1.467228	0.364980
O5	O	-0.113484	-1.483981	0.001813
O6	O	-0.113480	-1.294028	0.191767
O7	O	-0.113479	-1.657181	0.175012
Zn8	Zn	-0.149518	-1.475604	0.183387
Zn9	Zn	0.149541	-1.475605	0.183406
O10	O	-0.113474	-1.467228	0.364966
C11	C	0.000011	-1.247529	0.190555
C12	C	0.000011	-1.108974	0.186908
N13	N	-0.353617	-1.475613	0.183374
C14	C	0.117594	-1.047203	0.185289
C15	C	0.117596	-0.904000	0.181519
N16	N	0.353641	-1.475606	0.183410
C17	C	0.421416	-1.555536	0.103475
C18	C	0.578578	-1.555540	0.103455
C19	C	0.000008	-1.482762	-0.044679
C20	C	0.000013	-1.479114	-0.183233
C21	C	0.000012	-0.703680	0.176239
C22	C	0.000013	-0.842235	0.179886
C23	C	0.000015	-1.585402	-0.258216
C24	C	0.000020	-1.581634	-0.401420
C25	C	0.000018	-1.468447	0.411473
C26	C	0.000022	-1.472095	0.550027
H27	H	0.218259	-1.100335	0.186700
H28	H	0.411967	-1.407183	0.251835
C29	C	0.000006	-1.712108	-0.201723
N30	N	-0.000007	-1.807546	-0.159175
H31	H	0.588108	-1.407173	0.251808
C32	C	-0.135990	-1.037201	0.185010
N33	N	-0.238429	-0.983142	0.183579
C34	C	0.253599	-0.832238	0.179637
N35	N	0.356040	-0.778184	0.178222
C36	C	0.342625	-1.647981	0.011039
N37	N	0.283281	-1.717612	-0.058589
C38	C	0.000021	-1.349160	-0.362938
N39	N	0.000023	-1.256566	-0.297374
H40	H	0.000016	-1.672625	-0.465852
H41	H	0.000022	-1.385328	-0.225055
C42	C	0.657315	-1.647983	0.010992
N43	N	0.716622	-1.717612	-0.058656
H44	H	-0.100660	-0.895349	0.181272
