data_functionalizedCrystal
_audit_creation_method	'MofGen! by Chris Wilmer'
_symmetry_space_group_name_H-M	'P1'
_symmetry_Int_Tables_number	1
_symmetry_cell_setting	triclinic
loop_
_symmetry_equiv_pos_as_xyz
  x,y,z
_cell_length_a	14.519709
_cell_length_b	14.048226
_cell_length_c	14.971494
_cell_angle_alpha	89.995286
_cell_angle_beta	83.648851
_cell_angle_gamma	89.999158
loop_
_atom_site_label
_atom_site_type_symbol
_atom_site_fract_x
_atom_site_fract_y
_atom_site_fract_z
O1	O	1.223803	-0.079033	0.117252
O2	O	0.955319	-0.079062	0.131060
O3	O	1.096753	-0.079044	-0.006039
O4	O	1.082369	-0.079050	0.254352
O5	O	1.096736	0.079277	-0.006048
O6	O	0.955302	0.079260	0.131052
O7	O	1.223786	0.079288	0.117244
Zn8	Zn	1.089541	0.104411	0.124147
Zn9	Zn	1.089564	-0.104184	0.124157
O10	O	1.082352	0.079271	0.254343
C11	C	0.920951	0.000095	0.130412
C12	C	0.818571	0.000084	0.128484
N13	N	1.089533	0.246772	0.124139
N14	N	1.089580	-0.246545	0.124158
C15	C	0.443679	0.000128	0.121385
C16	C	0.547986	0.000115	0.123356
C17	C	0.631121	0.000105	0.124934
C18	C	0.735435	0.000095	0.126906
C19	C	1.258154	0.000129	0.117892
C20	C	1.360535	0.000134	0.119820
C21	C	1.096100	0.000115	-0.039368
C22	C	1.094168	0.000110	-0.138666
C23	C	1.152180	0.296597	0.063456
C24	C	1.152186	0.396255	0.063456
C25	C	1.089549	0.446085	0.124143
C26	C	1.026895	0.396252	0.184828
C27	C	1.026885	0.296597	0.184824
C28	C	1.026922	0.603967	0.184835
C29	C	1.026933	0.703629	0.184841
C30	C	1.152222	0.703625	0.063467
C31	C	1.152212	0.603969	0.063462
C32	C	1.089560	0.554143	0.124149
C33	C	1.093272	-0.086192	-0.185307
C34	C	1.091451	-0.086193	-0.278607
C35	C	1.090532	0.000108	-0.325265
C36	C	1.091426	0.086417	-0.278618
C37	C	1.093240	0.086418	-0.185319
C38	C	1.087646	0.086410	-0.473083
C39	C	1.085833	0.086410	-0.566389
C40	C	1.085856	-0.086201	-0.566372
C41	C	1.087671	-0.086200	-0.473072
C42	C	1.088566	0.000109	-0.426431
C43	C	1.083005	0.000110	0.287672
C44	C	1.084937	0.000108	0.386970
H45	H	1.203190	0.256032	0.014042
C46	C	1.094282	-0.181132	-0.133991
N47	N	1.095038	-0.252645	-0.095342
H48	H	1.090725	-0.156469	-0.316578
C49	C	1.088685	-0.181136	-0.421750
N50	N	1.089446	-0.252644	-0.383094
H51	H	1.203197	0.436823	0.014043
C52	C	0.957976	0.241789	0.251586
N53	N	0.906072	0.200509	0.301875
C54	C	1.221138	0.758435	-0.003293
N55	N	1.273044	0.799723	-0.053572
C56	C	0.958024	0.758441	0.251594
N57	N	0.906119	0.799725	0.301873
C58	C	1.084866	-0.181142	-0.617678
N59	N	1.084122	-0.252649	-0.656326
C60	C	1.221116	0.549158	-0.003296
N61	N	1.273013	0.507874	-0.053583
H62	H	1.085078	0.156685	-0.604375
C63	C	0.957985	0.451069	0.251576
N64	N	0.906080	0.492356	0.301852
C65	C	1.088634	0.181356	-0.421781
N66	N	1.089385	0.252867	-0.383140
C67	C	1.094229	0.181357	-0.134015
N68	N	1.094971	0.252868	-0.095373
H69	H	1.090673	0.156686	-0.316614
H70	H	0.975900	0.563402	0.234250
