data_functionalizedCrystal
_audit_creation_method	'MofGen! by Chris Wilmer'
_symmetry_space_group_name_H-M	'P1'
_symmetry_Int_Tables_number	1
_symmetry_cell_setting	triclinic
loop_
_symmetry_equiv_pos_as_xyz
  x,y,z
_cell_length_a	23.532407
_cell_length_b	26.809956
_cell_length_c	23.532407
_cell_angle_alpha	89.999665
_cell_angle_beta	82.848674
_cell_angle_gamma	89.997642
loop_
_atom_site_label
_atom_site_type_symbol
_atom_site_fract_x
_atom_site_fract_y
_atom_site_fract_z
O1	O	-0.755264	0.041410	-0.069127
O2	O	-0.255264	0.541410	0.430873
O3	O	-0.589401	0.041428	-0.079130
O4	O	-0.089401	0.541428	0.420870
O5	O	-0.677334	0.041409	0.008803
O6	O	-0.177334	0.541409	0.508803
O7	O	-0.667331	0.041429	-0.157060
O8	O	-0.167331	0.541429	0.342940
O9	O	-0.677317	-0.041550	0.008790
O10	O	-0.177317	0.458450	0.508790
O11	O	-0.589384	-0.041531	-0.079143
O12	O	-0.089384	0.458469	0.420857
O13	O	-0.755247	-0.041549	-0.069140
O14	O	-0.255247	0.458451	0.430860
Zn15	Zn	-0.672313	-0.054712	-0.074144
Zn16	Zn	-0.172313	0.445288	0.425856
Zn17	Zn	-0.672335	0.054591	-0.074126
Zn18	Zn	-0.172335	0.554591	0.425874
O19	O	-0.667314	-0.041531	-0.157073
O20	O	-0.167314	0.458469	0.342927
C21	C	-0.568176	-0.000049	-0.078882
C22	C	-0.068176	0.499951	0.421118
C23	C	-0.504959	-0.000043	-0.078116
C24	C	-0.004959	0.499957	0.421884
C25	C	-0.105856	-0.000053	-0.125350
C26	C	0.394144	0.499947	0.374650
C27	C	-0.046456	-0.000056	-0.124638
C28	C	0.453544	0.499944	0.375362
O29	O	-0.009711	-0.000068	-0.168424
O30	O	0.490289	0.499932	0.331576
N31	N	-0.023830	-0.000060	-0.072362
N32	N	0.476170	0.499940	0.427638
C33	C	-0.060607	-0.000068	-0.020794
C34	C	0.439393	0.499932	0.479206
O35	O	-0.035908	-0.000073	0.023737
O36	O	0.464092	0.499927	0.523737
C37	C	-0.120006	-0.000070	-0.021506
C38	C	0.379994	0.499930	0.478494
C39	C	-0.142629	-0.000060	-0.073785
C40	C	0.357371	0.499940	0.426215
C41	C	-0.128479	-0.000044	-0.177625
C42	C	0.371521	0.499956	0.322375
C43	C	-0.187876	-0.000041	-0.178336
C44	C	0.312124	0.499959	0.321664
C45	C	-0.224649	-0.000047	-0.126772
C46	C	0.275351	0.499953	0.373228
C47	C	-0.202025	-0.000057	-0.074496
C48	C	0.297975	0.499943	0.425504
C49	C	-0.156783	-0.000081	0.030062
C50	C	0.343217	0.499919	0.530062
C51	C	-0.216185	-0.000083	0.029345
C52	C	0.283815	0.499917	0.529345
C53	C	-0.238808	-0.000073	-0.022934
C54	C	0.261192	0.499927	0.477066
C55	C	-0.298194	-0.000060	-0.023643
C56	C	0.201806	0.499940	0.476357
N57	N	-0.320820	-0.000055	-0.075920
N58	N	0.179180	0.499945	0.424080
C59	C	-0.284048	-0.000049	-0.127484
C60	C	0.215952	0.499951	0.372516
C61	C	0.064135	-0.000066	-0.019302
C62	C	0.564135	0.499934	0.480698
C63	C	0.123533	-0.000061	-0.018589
C64	C	0.623533	0.499939	0.481411
C65	C	0.137680	-0.000049	-0.122434
C66	C	0.637680	0.499951	0.377566
C67	C	0.078281	-0.000051	-0.123146
C68	C	0.578281	0.499949	0.376854
C69	C	0.041509	-0.000061	-0.071578
C70	C	0.541509	0.499939	0.428422
C71	C	-0.408784	-0.000042	-0.128974
C72	C	0.091216	0.499958	0.371026
C73	C	-0.468186	-0.000037	-0.129680
C74	C	0.031814	0.499963	0.370320
C75	C	-0.482329	-0.000051	-0.025836
C76	C	0.017671	0.499949	0.474164
C77	C	-0.422932	-0.000054	-0.025129
C78	C	0.077068	0.499946	0.474871
C79	C	-0.386160	-0.000051	-0.076702
C80	C	0.113840	0.499949	0.423298
O81	O	-0.334974	-0.000049	0.020119
O82	O	0.165026	0.499951	0.520119
O83	O	-0.308755	-0.000051	-0.172007
O84	O	0.191245	0.499949	0.327993
N85	N	-0.672302	-0.129308	-0.074156
N86	N	-0.172302	0.370692	0.425844
C87	C	-0.711267	-0.473942	-0.035199
C88	C	-0.211267	0.026058	0.464801
C89	C	-0.711280	-0.682820	-0.035190
C90	C	-0.211280	-0.182820	0.464810
O91	O	-0.744386	-0.709831	-0.002071
O92	O	-0.244386	-0.209831	0.497929
N93	N	-0.672338	-0.708935	-0.074114
N94	N	-0.172338	-0.208935	0.425886
C95	C	-0.633387	-0.682827	-0.113040
C96	C	-0.133387	-0.182827	0.386960
O97	O	-0.600261	-0.709833	-0.146142
O98	O	-0.100261	-0.209833	0.353858
C99	C	-0.633371	-0.473951	-0.113045
C100	C	-0.133371	0.026049	0.386955
C101	C	-0.672320	-0.447838	-0.074123
C102	C	-0.172320	0.052162	0.425877
C103	C	-0.750212	-0.447830	0.003721
C104	C	-0.250212	0.052170	0.503721
C105	C	-0.750210	-0.395613	0.003716
C106	C	-0.250210	0.104387	0.503716
C107	C	-0.711263	-0.369510	-0.035208
C108	C	-0.211263	0.130490	0.464792
C109	C	-0.672318	-0.395622	-0.074128
C110	C	-0.172318	0.104378	0.425872
C111	C	-0.594418	-0.447844	-0.151968
C112	C	-0.094418	0.052156	0.348032
C113	C	-0.594417	-0.395622	-0.151965
C114	C	-0.094417	0.104378	0.348035
C115	C	-0.633365	-0.369509	-0.113043
C116	C	-0.133365	0.130491	0.386957
C117	C	-0.633370	-0.317302	-0.113056
C118	C	-0.133370	0.182698	0.386944
N119	N	-0.672312	-0.291187	-0.074133
N120	N	-0.172312	0.208813	0.425867
C121	C	-0.711259	-0.317291	-0.035209
C122	C	-0.211259	0.182709	0.464791
C123	C	-0.633399	-0.792491	-0.113035
C124	C	-0.133399	-0.292491	0.386965
C125	C	-0.633404	-0.844710	-0.113034
C126	C	-0.133404	-0.344710	0.386966
C127	C	-0.711296	-0.844699	-0.035184
C128	C	-0.211296	-0.344699	0.464816
C129	C	-0.711294	-0.792479	-0.035188
C130	C	-0.211294	-0.292479	0.464812
C131	C	-0.672341	-0.766376	-0.074111
C132	C	-0.172341	-0.266376	0.425889
C133	C	-0.711253	-0.207633	-0.035222
C134	C	-0.211253	0.292367	0.464778
C135	C	-0.711249	-0.155412	-0.035231
C136	C	-0.211249	0.344588	0.464769
C137	C	-0.633355	-0.155427	-0.113079
C138	C	-0.133355	0.344573	0.386921
C139	C	-0.633360	-0.207644	-0.113072
C140	C	-0.133360	0.292356	0.386928
C141	C	-0.672311	-0.233745	-0.074138
C142	C	-0.172311	0.266255	0.425862
O143	O	-0.600277	-0.290259	-0.146153
O144	O	-0.100277	0.209741	0.353847
O145	O	-0.744372	-0.290276	-0.002103
O146	O	-0.244372	0.209724	0.497897
C147	C	-0.711269	-0.526158	-0.035194
C148	C	-0.211269	-0.026158	0.464806
C149	C	-0.672324	-0.552271	-0.074114
C150	C	-0.172324	-0.052271	0.425886
C151	C	-0.633377	-0.526167	-0.113038
C152	C	-0.133377	-0.026167	0.386962
C153	C	-0.672328	-0.604490	-0.074113
C154	C	-0.172328	-0.104490	0.425887
C155	C	-0.711275	-0.630594	-0.035189
C156	C	-0.211275	-0.130594	0.464811
C157	C	-0.750217	-0.604479	0.003734
C158	C	-0.250217	-0.104479	0.503734
C159	C	-0.750215	-0.552262	0.003730
C160	C	-0.250215	-0.052262	0.503730
C161	C	-0.594435	-0.552282	-0.151961
C162	C	-0.094435	-0.052282	0.348039
C163	C	-0.594440	-0.604498	-0.151954
C164	C	-0.094440	-0.104498	0.348046
C165	C	-0.633387	-0.630602	-0.113030
C166	C	-0.133387	-0.130602	0.386970
C167	C	0.223528	-0.000067	-0.069388
C168	C	0.723528	0.499933	0.430612
C169	C	0.160311	-0.000058	-0.070154
C170	C	0.660311	0.499942	0.429846
C171	C	-0.677071	-0.000072	0.030013
C172	C	-0.177071	0.499928	0.530013
C173	C	-0.676305	-0.000075	0.093230
C174	C	-0.176305	0.499925	0.593230
N175	N	-0.672350	0.129186	-0.074110
N176	N	-0.172350	0.629186	0.425890
C177	C	-0.667577	-0.000049	-0.178283
C178	C	-0.167577	0.499951	0.321717
C179	C	-0.668343	-0.000042	-0.241500
C180	C	-0.168343	0.499958	0.258500
C181	C	-0.723539	-0.000053	0.492333
C182	C	-0.223539	0.499947	0.992333
C183	C	-0.722827	-0.000049	0.551733
C184	C	-0.222827	0.499951	1.051733
O185	O	-0.766613	-0.000036	0.588478
O186	O	-0.266613	0.499964	1.088478
N187	N	-0.670551	-0.000044	0.574359
N188	N	-0.170551	0.499956	1.074359
C189	C	-0.618983	-0.000037	0.537582
C190	C	-0.118983	0.499963	1.037582
O191	O	-0.574452	-0.000032	0.562281
O192	O	-0.074452	0.499968	1.062281
C193	C	-0.619695	-0.000038	0.478183
C194	C	-0.119695	0.499962	0.978183
C195	C	-0.671974	-0.000048	0.455560
C196	C	-0.171974	0.499952	0.955560
C197	C	-0.775814	-0.000063	0.469710
C198	C	-0.275814	0.499937	0.969710
C199	C	-0.776525	-0.000068	0.410313
C200	C	-0.276525	0.499932	0.910313
C201	C	-0.724961	-0.000063	0.373541
C202	C	-0.224961	0.499937	0.873541
C203	C	-0.672685	-0.000053	0.396164
C204	C	-0.172685	0.499947	0.896164
C205	C	-0.568127	-0.000028	0.441406
C206	C	-0.068127	0.499972	0.941406
C207	C	-0.568844	-0.000028	0.382004
C208	C	-0.068844	0.499972	0.882004
C209	C	-0.621123	-0.000038	0.359381
C210	C	-0.121123	0.499962	0.859381
C211	C	-0.621832	-0.000053	0.299995
C212	C	-0.121832	0.499947	0.799995
N213	N	-0.674109	-0.000058	0.277369
N214	N	-0.174109	0.499942	0.777369
C215	C	-0.725673	-0.000063	0.314141
C216	C	-0.225673	0.499937	0.814141
C217	C	-0.617491	-0.000036	0.662324
C218	C	-0.117491	0.499964	1.162324
C219	C	-0.616778	-0.000039	0.721722
C220	C	-0.116778	0.499961	1.221722
C221	C	-0.720623	-0.000050	0.735869
C222	C	-0.220623	0.499950	1.235869
C223	C	-0.721335	-0.000050	0.676470
C224	C	-0.221335	0.499950	1.176470
C225	C	-0.669767	-0.000041	0.639698
C226	C	-0.169767	0.499959	1.139698
C227	C	-0.727163	-0.000074	0.189405
C228	C	-0.227163	0.499926	0.689405
C229	C	-0.727869	-0.000080	0.130003
C230	C	-0.227869	0.499920	0.630003
C231	C	-0.624025	-0.000067	0.115860
C232	C	-0.124025	0.499933	0.615860
C233	C	-0.623318	-0.000063	0.175257
C234	C	-0.123318	0.499937	0.675257
C235	C	-0.674891	-0.000064	0.212029
C236	C	-0.174891	0.499936	0.712029
O237	O	-0.578070	-0.000064	0.263215
O238	O	-0.078070	0.499936	0.763215
O239	O	-0.770196	-0.000062	0.289434
O240	O	-0.270196	0.499938	0.789434
H241	H	0.141947	-0.000061	0.023982
H242	H	0.641947	0.499939	0.523982
H243	H	0.167632	-0.000047	-0.164421
H244	H	0.667632	0.499953	0.335579
H245	H	-0.098544	-0.000041	-0.219617
H246	H	0.401456	0.499959	0.280383
H247	H	0.059867	-0.000046	-0.165717
H248	H	0.559867	0.499954	0.334283
H249	H	-0.580748	-0.000068	0.193677
H250	H	-0.080748	0.499932	0.693677
C251	C	-0.176758	-0.000112	0.132632
C252	C	0.323242	0.499888	0.632632
C253	C	-0.131927	-0.000099	0.087531
C254	C	0.368073	0.499901	0.587531
H255	H	-0.161413	-0.000127	0.168112
H256	H	0.338587	0.499873	0.668112
H257	H	-0.199629	0.028819	0.130202
H258	H	0.300371	0.528819	0.630202
H259	H	-0.199631	-0.029041	0.130173
H260	H	0.300369	0.470959	0.630173
H261	H	-0.109056	0.028832	0.089987
H262	H	0.390944	0.528832	0.589987
H263	H	-0.109047	-0.029033	0.089962
H264	H	0.390953	0.470967	0.589962
C265	C	-0.763010	-0.663202	0.081306
C266	C	-0.263010	-0.163202	0.581306
C267	C	-0.793026	-0.633179	0.046523
C268	C	-0.293026	-0.133179	0.546523
H269	H	-0.789436	-0.680920	0.107724
H270	H	-0.289436	-0.180920	0.607724
H271	H	-0.739820	-0.686220	0.058121
H272	H	-0.239820	-0.186220	0.558121
H273	H	-0.739425	-0.642824	0.101670
H274	H	-0.239425	-0.142824	0.601670
H275	H	-0.816608	-0.653557	0.026156
H276	H	-0.316608	-0.153557	0.526156
H277	H	-0.816226	-0.610158	0.069711
H278	H	-0.316226	-0.110158	0.569711
H279	H	-0.742968	-0.134153	-0.003536
H280	H	-0.242968	0.365847	0.496464
H281	H	-0.770443	-0.000090	0.111587
H282	H	-0.270443	0.499910	0.611587
H283	H	-0.512280	-0.000054	0.016146
H284	H	-0.012280	0.499946	0.516146
C285	C	-0.829881	-0.000092	0.197406
C286	C	-0.329881	0.499908	0.697406
C287	C	-0.783853	-0.000080	0.229818
C288	C	-0.283853	0.499920	0.729818
H289	H	-0.864878	-0.000101	0.222356
H290	H	-0.364878	0.499899	0.722356
H291	H	-0.828003	0.028836	0.173945
H292	H	-0.328003	0.528836	0.673945
H293	H	-0.827981	-0.029024	0.173943
H294	H	-0.327981	0.470976	0.673943
H295	H	-0.785750	0.028855	0.253278
H296	H	-0.285750	0.528855	0.753278
H297	H	-0.785731	-0.029010	0.253289
H298	H	-0.285731	0.470990	0.753289
C299	C	-0.620599	-0.903429	-0.190615
C300	C	-0.120599	-0.403429	0.309385
C301	C	-0.590594	-0.873408	-0.155823
C302	C	-0.090594	-0.373408	0.344177
H303	H	-0.594167	-0.921143	-0.217032
H304	H	-0.094167	-0.421143	0.282968
H305	H	-0.643787	-0.926452	-0.167436
H306	H	-0.143787	-0.426452	0.332564
H307	H	-0.644185	-0.883051	-0.210979
H308	H	-0.144185	-0.383051	0.289021
H309	H	-0.567011	-0.893787	-0.135456
H310	H	-0.067011	-0.393787	0.364544
H311	H	-0.567396	-0.850383	-0.179005
H312	H	-0.067396	-0.350383	0.320995
C313	C	-0.556411	-0.797758	-0.189990
C314	C	-0.056411	-0.297758	0.310010
C315	C	-0.590583	-0.763803	-0.155828
C316	C	-0.090583	-0.263803	0.344172
H317	H	-0.529982	-0.780048	-0.216413
H318	H	-0.029982	-0.280048	0.283587
H319	H	-0.536064	-0.818125	-0.166385
H320	H	-0.036064	-0.318125	0.333615
H321	H	-0.580012	-0.818125	-0.210349
H322	H	-0.080012	-0.318125	0.289651
H323	H	-0.566982	-0.743438	-0.135467
H324	H	-0.066982	-0.243438	0.364533
H325	H	-0.610931	-0.743427	-0.179437
H326	H	-0.110931	-0.243427	0.320563
C327	C	-0.782381	-0.042703	0.617887
C328	C	-0.282381	0.457297	1.117887
C329	C	-0.778803	-0.000058	0.651608
C330	C	-0.278803	0.499942	1.151608
H331	H	-0.817863	-0.042707	0.602544
H332	H	-0.317863	0.457293	1.102544
H333	H	-0.751781	-0.042695	0.587483
H334	H	-0.251781	0.457305	1.087483
H335	H	-0.779935	-0.071630	0.640768
H336	H	-0.279935	0.428370	1.140768
H337	H	-0.781244	0.028869	0.628725
H338	H	-0.281244	0.528869	1.128725
H339	H	-0.809411	-0.000061	0.682016
H340	H	-0.309411	0.499939	1.182016
H341	H	-0.817806	-0.000065	0.499645
H342	H	-0.317806	0.499935	0.999645
H343	H	0.034198	-0.000070	0.022693
H344	H	0.534198	0.499930	0.522693
H345	H	-0.582043	-0.000064	0.085909
H346	H	-0.082043	0.499936	0.585909
C347	C	-0.291187	-0.042738	0.088790
C348	C	0.208813	0.457262	0.588790
C349	C	-0.256604	-0.000093	0.086033
C350	C	0.243396	0.499907	0.586033
H351	H	-0.316136	-0.042744	0.123789
H352	H	0.183864	0.457256	0.623789
H353	H	-0.313164	-0.042728	0.057562
H354	H	0.186836	0.457272	0.557562
H355	H	-0.267714	-0.071665	0.086901
H356	H	0.232286	0.428335	0.586901
H357	H	-0.280077	0.028835	0.087918
H358	H	0.219923	0.528835	0.587918
H359	H	-0.234625	-0.000098	0.117270
H360	H	0.265375	0.499902	0.617270
C361	C	-0.780069	0.042602	0.810875
C362	C	-0.280069	0.542602	1.310875
C363	C	-0.777307	-0.000048	0.776296
C364	C	-0.277307	0.499952	1.276296
H365	H	-0.815062	0.042604	0.835830
H366	H	-0.315062	0.542604	1.335830
H367	H	-0.748834	0.042601	0.832845
H368	H	-0.248834	0.542601	1.332845
H369	H	-0.778192	0.071526	0.787399
H370	H	-0.278192	0.571526	1.287399
H371	H	-0.779179	-0.028972	0.799772
H372	H	-0.279179	0.471028	1.299772
H373	H	-0.808549	-0.000052	0.754325
H374	H	-0.308549	0.499948	1.254325
H375	H	-0.574207	-0.000039	0.740136
H376	H	-0.074207	0.499961	1.240136
C377	C	-0.788248	-0.202362	0.041728
C378	C	-0.288248	0.297638	0.541728
C379	C	-0.754069	-0.236318	0.007573
C380	C	-0.254069	0.263682	0.507573
H381	H	-0.814683	-0.220072	0.068144
H382	H	-0.314683	0.279928	0.568144
H383	H	-0.764656	-0.181997	0.062089
H384	H	-0.264656	0.318003	0.562089
H385	H	-0.808592	-0.181994	0.018113
H386	H	-0.308592	0.318006	0.518113
H387	H	-0.733722	-0.256683	0.031188
H388	H	-0.233722	0.243317	0.531188
H389	H	-0.777663	-0.256692	-0.012789
H390	H	-0.277663	0.243308	0.487211
C391	C	-0.517417	-0.442587	-0.228906
C392	C	-0.017417	0.057413	0.271094
C393	C	-0.551601	-0.476537	-0.194751
C394	C	-0.051601	0.023463	0.305249
H395	H	-0.490980	-0.460302	-0.255317
H396	H	0.009020	0.039698	0.244683
H397	H	-0.541006	-0.422222	-0.249273
H398	H	-0.041006	0.077778	0.250727
H399	H	-0.497076	-0.422219	-0.205291
H400	H	0.002924	0.077781	0.294709
H401	H	-0.571946	-0.496903	-0.218365
H402	H	-0.071946	0.003097	0.281635
H403	H	-0.528010	-0.496912	-0.174383
H404	H	-0.028010	0.003088	0.325617
H405	H	-0.404512	-0.000054	0.017441
H406	H	0.095488	0.499946	0.517441
H407	H	-0.781924	-0.374356	0.035411
H408	H	-0.281924	0.125644	0.535411
C409	C	-0.507054	-0.042653	0.499985
C410	C	-0.007054	0.457347	0.999985
C411	C	-0.510659	-0.000011	0.466263
C412	C	-0.010659	0.499989	0.966263
H413	H	-0.471572	-0.042642	0.515327
H414	H	0.028428	0.457358	1.015327
H415	H	-0.537653	-0.042656	0.530389
H416	H	-0.037653	0.457344	1.030389
H417	H	-0.509482	-0.071582	0.477104
H418	H	-0.009482	0.428418	0.977104
H419	H	-0.508235	0.028919	0.489145
H420	H	-0.008235	0.528919	0.989145
H421	H	-0.480051	-0.000004	0.435855
H422	H	0.019949	0.499996	0.935855
C423	C	-0.827208	-0.442560	0.080662
C424	C	-0.327208	0.057440	0.580662
C425	C	-0.793031	-0.476517	0.046508
C426	C	-0.293031	0.023483	0.546508
H427	H	-0.853649	-0.460269	0.107073
H428	H	-0.353649	0.039731	0.607073
H429	H	-0.803616	-0.422199	0.101027
H430	H	-0.303616	0.077801	0.601027
H431	H	-0.847546	-0.422188	0.057046
H432	H	-0.347546	0.077812	0.557046
H433	H	-0.772689	-0.496887	0.070123
H434	H	-0.272689	0.003113	0.570123
H435	H	-0.816626	-0.496887	0.026141
H436	H	-0.316626	0.003113	0.526141
C437	C	-0.466125	-0.000011	0.373990
C438	C	0.033875	0.499989	0.873990
C439	C	-0.512157	-0.000019	0.341584
C440	C	-0.012157	0.499981	0.841584
H441	H	-0.431130	-0.000010	0.349037
H442	H	0.068870	0.499990	0.849037
H443	H	-0.468016	0.028918	0.397449
H444	H	0.031984	0.528918	0.897449
H445	H	-0.468005	-0.028942	0.397456
H446	H	0.031995	0.471058	0.897456
H447	H	-0.510278	0.028913	0.318121
H448	H	-0.010278	0.528913	0.818121
H449	H	-0.510264	-0.028952	0.318115
H450	H	-0.010264	0.471048	0.818115
C451	C	-0.788837	-0.733712	-0.022383
C452	C	-0.288837	-0.233712	0.477617
C453	C	-0.754069	-0.763761	0.007618
C454	C	-0.254069	-0.263761	0.507618
H455	H	-0.815236	-0.715982	0.004051
H456	H	-0.315236	-0.215982	0.504051
H457	H	-0.765641	-0.710704	-0.045574
H458	H	-0.265641	-0.210704	0.454426
H459	H	-0.809222	-0.754073	-0.045967
H460	H	-0.309222	-0.254073	0.454033
H461	H	-0.733680	-0.743400	0.031198
H462	H	-0.233680	-0.243400	0.531198
H463	H	-0.777268	-0.786772	0.030818
H464	H	-0.277268	-0.286772	0.530818
C465	C	-0.448226	-0.000028	-0.232257
C466	C	0.051774	0.499972	0.267743
C467	C	-0.493052	-0.000029	-0.187150
C468	C	0.006948	0.499971	0.312850
H469	H	-0.463577	-0.000028	-0.267735
H470	H	0.036423	0.499972	0.232265
H471	H	-0.425355	0.028899	-0.229815
H472	H	0.074645	0.528899	0.270185
H473	H	-0.425352	-0.028961	-0.229818
H474	H	0.074648	0.471039	0.270182
H475	H	-0.515924	0.028906	-0.189588
H476	H	-0.015924	0.528906	0.310412
H477	H	-0.515933	-0.028959	-0.189594
H478	H	-0.015933	0.471041	0.310406
H479	H	-0.378851	-0.000041	-0.170970
H480	H	0.121149	0.499959	0.329030
C481	C	-0.558040	0.042614	0.587322
C482	C	-0.058040	0.542614	1.087322
C483	C	-0.560802	-0.000033	0.621907
C484	C	-0.060802	0.499967	1.121907
H485	H	-0.523041	0.042617	0.562375
H486	H	-0.023041	0.542617	1.062375
H487	H	-0.589267	0.042607	0.565343
H488	H	-0.089267	0.542607	1.065343
H489	H	-0.559929	0.071540	0.610794
H490	H	-0.059929	0.571540	1.110794
H491	H	-0.558916	-0.028959	0.598434
H492	H	-0.058916	0.471041	1.098434
H493	H	-0.529566	-0.000030	0.643888
H494	H	-0.029566	0.499970	1.143888
C495	C	-0.167907	-0.000038	-0.280907
C496	C	0.332093	0.499962	0.219093
C497	C	-0.212737	-0.000039	-0.235804
C498	C	0.287263	0.499961	0.264196
H499	H	-0.183254	-0.000042	-0.316387
H500	H	0.316746	0.499958	0.183613
H501	H	-0.145039	0.028891	-0.278465
H502	H	0.354961	0.528891	0.221535
H503	H	-0.145031	-0.028969	-0.278462
H504	H	0.354969	0.471031	0.221538
H505	H	-0.235611	0.028894	-0.238247
H506	H	0.264389	0.528894	0.261753
H507	H	-0.235614	-0.028971	-0.238247
H508	H	0.264386	0.471029	0.261753
H509	H	-0.562695	-0.374371	-0.183661
H510	H	-0.062695	0.125629	0.316339
C511	C	-0.724088	-0.903422	0.042387
C512	C	-0.224088	-0.403422	0.542387
C513	C	-0.754104	-0.873397	0.007607
C514	C	-0.254104	-0.373397	0.507607
H515	H	-0.750513	-0.921138	0.068807
H516	H	-0.250513	-0.421138	0.568807
H517	H	-0.700901	-0.926441	0.019201
H518	H	-0.200901	-0.426441	0.519201
H519	H	-0.700499	-0.883046	0.062749
H520	H	-0.200499	-0.383046	0.562749
H521	H	-0.777690	-0.893774	-0.012757
H522	H	-0.277690	-0.393774	0.487243
H523	H	-0.777301	-0.850375	0.030796
H524	H	-0.277301	-0.350375	0.530796
H525	H	-0.601650	-0.228905	-0.144771
H526	H	-0.101650	0.271095	0.355229
C527	C	-0.599344	-0.139341	-0.211844
C528	C	-0.099344	0.360659	0.288156
C529	C	-0.590546	-0.126726	-0.155862
C530	C	-0.090546	0.373274	0.344138
H531	H	-0.572915	-0.121618	-0.238253
H532	H	-0.072915	0.378382	0.261747
H533	H	-0.593765	-0.174172	-0.217414
H534	H	-0.093765	0.325828	0.282586
H535	H	-0.637317	-0.130780	-0.217832
H536	H	-0.137317	0.369220	0.282168
H537	H	-0.552574	-0.135290	-0.149873
H538	H	-0.052574	0.364710	0.350127
H539	H	-0.596120	-0.091886	-0.150290
H540	H	-0.096120	0.408114	0.349710
C541	C	-0.517437	-0.599251	-0.228900
C542	C	-0.017437	-0.099251	0.271100
C543	C	-0.551622	-0.633197	-0.194740
C544	C	-0.051622	-0.133197	0.305260
H545	H	-0.491000	-0.616968	-0.255308
H546	H	0.009000	-0.116968	0.244692
H547	H	-0.541025	-0.578888	-0.249270
H548	H	-0.041025	-0.078888	0.250730
H549	H	-0.497096	-0.578880	-0.205288
H550	H	0.002904	-0.078880	0.294712
H551	H	-0.571967	-0.653566	-0.218352
H552	H	-0.071967	-0.153566	0.281648
H553	H	-0.528031	-0.653570	-0.174369
H554	H	-0.028031	-0.153570	0.325631
H555	H	-0.562719	-0.531032	-0.183657
H556	H	-0.062719	-0.031032	0.316343
C557	C	-0.879096	-0.000073	0.430282
C558	C	-0.379096	0.499927	0.930282
C559	C	-0.833993	-0.000073	0.385452
C560	C	-0.333993	0.499927	0.885452
H561	H	-0.914576	-0.000072	0.414935
H562	H	-0.414576	0.499928	0.914935
H563	H	-0.876651	-0.029001	0.453153
H564	H	-0.376651	0.470999	0.953153
H565	H	-0.876653	0.028859	0.453155
H566	H	-0.376653	0.528859	0.953155
H567	H	-0.836433	-0.029007	0.362581
H568	H	-0.336433	0.470993	0.862581
H569	H	-0.836439	0.028858	0.362572
H570	H	-0.336439	0.528858	0.862572
H571	H	-0.781931	-0.531005	0.035424
H572	H	-0.281931	-0.031005	0.535424
