data_functionalizedCrystal
_audit_creation_method	'MofGen! by Chris Wilmer'
_symmetry_space_group_name_H-M	'P1'
_symmetry_Int_Tables_number	1
_symmetry_cell_setting	triclinic
loop_
_symmetry_equiv_pos_as_xyz
  x,y,z
_cell_length_a	12.759400
_cell_length_b	12.759401
_cell_length_c	13.033109
_cell_angle_alpha	97.200491
_cell_angle_beta	97.154529
_cell_angle_gamma	89.987402
loop_
_atom_site_label
_atom_site_type_symbol
_atom_site_fract_x
_atom_site_fract_y
_atom_site_fract_z
Zn1	Zn	-0.493737	-1.681682	-0.590824
Zn2	Zn	-0.647134	-1.659269	-0.416085
Zn3	Zn	-0.471465	-1.483678	-0.416101
Zn4	Zn	-0.669363	-1.505968	-0.590783
O5	O	-0.570424	-1.582649	-0.503448
O6	O	-0.514103	-1.825731	-0.567654
O7	O	-0.605207	-1.617268	-0.269853
O8	O	-0.327401	-1.509996	-0.439303
O9	O	-0.626803	-1.809264	-0.439274
O10	O	-0.343764	-1.655468	-0.567670
O11	O	-0.476144	-1.488263	-0.269865
O12	O	-0.497699	-1.339613	-0.439263
O13	O	-0.664689	-1.547985	-0.737022
O14	O	-0.643093	-1.355989	-0.567601
O15	O	-0.535657	-1.677081	-0.737052
O16	O	-0.797100	-1.638881	-0.439235
O17	O	-0.813432	-1.526251	-0.567585
C18	C	-0.570392	-1.309679	-0.503430
C19	C	-0.570407	-1.192905	-0.503447
C20	C	-0.646205	-1.146583	-0.570161
C21	C	-0.646215	-1.036860	-0.570171
C22	C	-0.494625	-1.019790	-0.436743
C23	C	-0.494611	-1.129511	-0.436740
C24	C	-0.722000	-1.209977	-0.636869
C25	C	-0.797805	-1.163655	-0.703588
C26	C	-0.797816	-1.053933	-0.703597
C27	C	-0.722021	-0.990531	-0.636888
C28	C	-0.843389	-1.582584	-0.503426
C29	C	-0.960169	-1.582657	-0.503452
C30	C	-1.006502	-1.641387	-0.436694
C31	C	-1.116230	-1.641456	-0.436726
C32	C	-1.133283	-1.524055	-0.570277
C33	C	-1.023558	-1.523993	-0.570250
C34	C	-0.943113	-1.700051	-0.369896
C35	C	-0.989445	-1.758785	-0.303132
C36	C	-1.099173	-1.758853	-0.303164
C37	C	-1.162569	-1.700188	-0.369961
C38	C	-0.296397	-1.582746	-0.503493
C39	C	-0.179623	-1.582787	-0.503512
C40	C	-0.605137	-1.617519	-0.776014
C41	C	-0.619929	-1.632379	-0.892166
C42	C	-0.570448	-0.856684	-0.503463
C43	C	-0.570431	-0.973461	-0.503461
C44	C	-0.562667	-1.575175	-0.943956
C45	C	-0.577954	-1.590531	-1.064004
C46	C	-0.535771	-1.547975	-0.231942
C47	C	-0.520683	-1.533319	-0.115792
H48	H	-0.859509	-1.215284	-0.757906
H49	H	-0.853766	-1.699998	-0.369860
C50	C	-1.283274	-1.700271	-0.369996
N51	N	-1.374187	-1.700330	-0.370017
H52	H	-1.184908	-1.476292	-0.624659
C53	C	-0.439158	-1.451788	-1.055637
N54	N	-0.377753	-1.390381	-1.010327
C55	C	-0.701542	-1.713812	-0.952327
N56	N	-0.763047	-1.775118	-0.997639
H57	H	-0.432918	-0.968160	-0.382431
H58	H	-0.937824	-1.806555	-0.248754
H59	H	-1.136895	-1.806686	-0.248809
C60	C	-0.881204	-1.002982	-0.776985
N61	N	-0.944022	-0.964607	-0.832256
C62	C	-0.972587	-1.459369	-0.643672
N63	N	-0.934195	-1.410689	-0.698972
H64	H	-0.502328	-1.514827	-0.899420
H65	H	-0.638302	-1.650878	-1.108536
H66	H	-0.722028	-0.901189	-0.636911
C67	C	-0.411232	-1.180468	-0.363347
N68	N	-0.348428	-1.218849	-0.308067
H69	H	-0.722002	-1.299319	-0.636866
