data_functionalizedCrystal
_audit_creation_method	'MofGen! by Chris Wilmer'
_symmetry_space_group_name_H-M	'P1'
_symmetry_Int_Tables_number	1
_symmetry_cell_setting	triclinic
loop_
_symmetry_equiv_pos_as_xyz
  x,y,z
_cell_length_a	18.101398
_cell_length_b	19.805405
_cell_length_c	19.805398
_cell_angle_alpha	90.030326
_cell_angle_beta	89.982499
_cell_angle_gamma	89.978323
loop_
_atom_site_label
_atom_site_type_symbol
_atom_site_fract_x
_atom_site_fract_y
_atom_site_fract_z
Zn1	Zn	1.132095	0.269557	-0.382791
Zn2	Zn	1.132016	0.382748	-0.269599
Zn3	Zn	1.008269	0.269569	-0.269607
Zn4	Zn	1.008215	0.382701	-0.382737
O5	O	1.070149	0.326144	-0.326183
O6	O	1.235718	0.284587	-0.367795
O7	O	1.115590	0.367759	-0.174883
O8	O	1.024750	0.174851	-0.284646
O9	O	1.235659	0.367748	-0.284633
O10	O	1.115725	0.174842	-0.367802
O11	O	1.024674	0.284607	-0.174889
O12	O	0.904629	0.284561	-0.284594
O13	O	1.024659	0.367667	-0.477461
O14	O	0.904589	0.367678	-0.367711
O15	O	1.115673	0.284542	-0.477500
O16	O	1.115538	0.477458	-0.284581
O17	O	1.024582	0.477423	-0.367703
C18	C	1.070066	0.502000	-0.326151
C19	C	1.070098	0.577232	-0.326159
C20	C	0.877738	0.326116	-0.326148
C21	C	0.795424	0.326121	-0.326149
C22	C	1.070169	0.326098	-0.502726
C23	C	1.070177	0.326078	-0.577958
C24	C	0.496333	0.326163	-0.326206
C25	C	0.527659	0.273606	-0.274166
C26	C	0.613277	0.273747	-0.273944
C27	C	0.644716	0.326141	-0.326178
C28	C	0.613607	0.397441	-0.306685
C29	C	0.527961	0.397149	-0.306323
C30	C	0.527937	0.308040	-0.397861
C31	C	0.613588	0.306452	-0.397470
C32	C	0.728575	0.326134	-0.326163
C33	C	0.412474	0.326176	-0.326219
C34	C	1.263311	0.326172	-0.326219
C35	C	1.345625	0.326184	-0.326234
C36	C	1.070253	0.149601	-0.326231
C37	C	1.070297	0.074369	-0.326251
C38	C	1.117504	0.612571	-0.282923
C39	C	1.117536	0.683260	-0.282938
C40	C	1.070156	0.718607	-0.326186
C41	C	1.022747	0.683263	-0.369427
C42	C	1.022720	0.612575	-0.369415
C43	C	1.022857	0.968336	-0.369477
C44	C	1.022886	1.039028	-0.369485
C45	C	1.117672	1.039020	-0.283000
C46	C	1.117645	0.968333	-0.282988
C47	C	1.070239	0.932995	-0.326231
C48	C	1.070207	0.856346	-0.326215
C49	C	1.070185	0.795254	-0.326199
C50	C	1.117634	0.369268	-1.039744
C51	C	1.117614	0.369286	-0.969056
C52	C	1.070269	0.326002	-0.933720
C53	C	1.022937	0.282701	-0.969077
C54	C	1.022954	0.282687	-1.039764
C55	C	1.022865	0.282759	-0.684003
C56	C	1.022853	0.282776	-0.613311
C57	C	1.117525	0.369359	-0.613295
C58	C	1.117542	0.369344	-0.683982
C59	C	1.070207	0.326047	-0.719333
C60	C	1.070229	0.326028	-0.795981
C61	C	1.070250	0.326017	-0.857073
C62	C	1.070172	0.326140	-0.150327
C63	C	1.070307	0.325969	-0.075096
H64	H	0.634311	0.220876	-0.286163
Cl65	Cl	0.495890	0.191724	-0.292821
H66	H	0.984297	0.247526	-0.584543
H67	H	0.984321	0.247504	-0.712777
Cl68	Cl	0.963427	0.228277	-0.924655
H69	H	1.156275	1.067801	-0.247792
Cl70	Cl	0.495963	0.459656	-0.362284
H71	H	0.635029	0.413077	-0.254867
Cl72	Cl	0.494625	0.229164	-0.425222
Cl73	Cl	0.645000	0.225451	-0.420173
H74	H	0.984256	0.939569	-0.404686
H75	H	0.633738	0.285728	-0.220849
H76	H	0.506117	0.285452	-0.221380
Cl77	Cl	0.963123	0.568148	-0.423774
H78	H	0.984305	1.067806	-0.404708
Cl79	Cl	1.177064	0.423761	-0.728400
Cl80	Cl	0.645035	0.459520	-0.363376
Cl81	Cl	0.963188	0.727699	-0.423801
Cl82	Cl	0.963458	0.228248	-1.084206
H83	H	1.156191	0.404512	-1.068509
Cl84	Cl	1.177115	0.423720	-0.924616
H85	H	0.507958	0.412518	-0.253939
Cl86	Cl	1.177138	0.727684	-0.228583
H87	H	1.156065	0.404616	-0.584504
H88	H	0.634991	0.341942	-0.438321
H89	H	0.507679	0.346320	-0.436635
Cl90	Cl	1.177066	0.568142	-0.228546
H91	H	1.156223	0.939556	-0.247769
