data_functionalizedCrystal
_audit_creation_method	'MofGen! by Chris Wilmer'
_symmetry_space_group_name_H-M	'P1'
_symmetry_Int_Tables_number	1
_symmetry_cell_setting	triclinic
loop_
_symmetry_equiv_pos_as_xyz
  x,y,z
_cell_length_a	15.944551
_cell_length_b	14.853567
_cell_length_c	13.930277
_cell_angle_alpha	90.000757
_cell_angle_beta	89.997274
_cell_angle_gamma	96.433166
loop_
_atom_site_label
_atom_site_type_symbol
_atom_site_fract_x
_atom_site_fract_y
_atom_site_fract_z
O1	O	1.114657	-0.116273	-0.079723
O2	O	1.614657	0.383727	0.420277
O3	O	0.870123	-0.130608	-0.079745
O4	O	1.370123	0.369392	0.420255
O5	O	0.998922	0.007798	-0.079736
O6	O	1.498922	0.507798	0.420264
O7	O	0.985858	-0.254678	-0.079732
O8	O	1.485858	0.245322	0.420268
O9	O	0.998904	0.007801	0.079926
O10	O	1.498904	0.507801	0.579926
O11	O	0.870106	-0.130605	0.079916
O12	O	1.370106	0.369395	0.579916
O13	O	1.114639	-0.116270	0.079939
O14	O	1.614639	0.383730	0.579939
Zn15	Zn	0.992370	-0.123437	0.105278
Zn16	Zn	1.492370	0.376563	0.605278
Zn17	Zn	0.992393	-0.123441	-0.105084
Zn18	Zn	1.492393	0.376559	0.394916
O19	O	0.985841	-0.254675	0.079930
O20	O	1.485841	0.245325	0.579930
C21	C	0.838820	-0.130011	0.000082
C22	C	1.338820	0.369989	0.500082
C23	C	0.745572	-0.128227	0.000073
C24	C	1.245572	0.371773	0.500073
C25	C	0.998321	0.041387	0.000092
C26	C	1.498321	0.541387	0.500092
C27	C	0.996547	0.141469	0.000083
C28	C	1.496547	0.641469	0.500083
N29	N	0.992360	-0.123434	0.248844
N30	N	1.492360	0.376566	0.748844
C31	C	0.530615	-0.038172	0.000090
C32	C	1.030615	0.461828	0.500090
C33	C	0.469650	-0.079992	-0.078631
C34	C	0.969650	0.420008	0.421369
C35	C	0.574842	-0.124999	0.000085
C36	C	1.074842	0.375001	0.500085
C37	C	0.469655	-0.080010	0.078783
C38	C	0.969655	0.419990	0.578783
C39	C	0.409926	-0.121875	0.000100
C40	C	0.909926	0.378125	0.500100
C41	C	0.515106	-0.166843	-0.078701
C42	C	1.015106	0.333157	0.421299
C43	C	0.515117	-0.166849	0.078783
C44	C	1.015117	0.333151	0.578783
C45	C	0.454170	-0.208732	0.000043
C46	C	0.954170	0.291268	0.500043
C47	C	0.669847	-0.126797	0.000075
C48	C	1.169847	0.373203	0.500075
C49	C	0.314923	-0.120085	0.000102
C50	C	0.814923	0.379915	0.500102
C51	C	1.145943	-0.116866	0.000109
C52	C	1.645943	0.383134	0.500109
C53	C	1.239191	-0.118650	0.000112
C54	C	1.739191	0.381350	0.500112
C55	C	0.986441	-0.288265	0.000100
C56	C	1.486441	0.211735	0.500100
C57	C	0.988215	-0.388346	0.000102
C58	C	1.488215	0.111654	0.500102
C59	C	0.912540	0.553895	0.000094
C60	C	1.412540	1.053895	0.500094
C61	C	1.065556	0.575372	0.000108
C62	C	1.565556	1.075372	0.500108
C63	C	1.067224	0.481341	0.000102
C64	C	1.567224	0.981341	0.500102
C65	C	0.991549	0.423582	0.000094
C66	C	1.491549	0.923582	0.500094
C67	C	0.914206	0.459854	0.000091
C68	C	1.414206	0.959854	0.500091
C69	C	1.144565	0.445061	0.000115
C70	C	1.644565	0.945061	0.500115
C71	C	1.146236	0.351024	0.000111
C72	C	1.646236	0.851024	0.500111
C73	C	1.070560	0.293263	0.000095
C74	C	1.570560	0.793263	0.500095
C75	C	0.993214	0.329541	0.000091
C76	C	1.493214	0.829541	0.500091
C77	C	0.917539	0.271782	0.000083
C78	C	1.417539	0.771782	0.500083
C79	C	0.840192	0.308058	0.000072
C80	C	1.340192	0.808058	0.500072
C81	C	0.838530	0.402093	0.000076
C82	C	1.338530	0.902093	0.500076
C83	C	1.072223	0.199228	0.000092
C84	C	1.572223	0.699228	0.500092
C85	C	0.919205	0.177741	0.000080
C86	C	1.419205	0.677741	0.500080
N87	N	0.992410	-0.123437	-0.248650
N88	N	1.492410	0.376563	0.251350
C89	C	0.935359	-0.184703	0.701109
C90	C	1.435359	0.315297	1.201109
C91	C	1.049451	-0.062172	0.701086
C92	C	1.549451	0.437828	1.201086
C93	C	1.049441	-0.062169	0.600591
C94	C	1.549441	0.437831	1.100591
C95	C	0.992390	-0.123435	0.550349
C96	C	1.492390	0.376565	1.050349
C97	C	0.935349	-0.184704	0.600604
C98	C	1.435349	0.315296	1.100604
C99	C	1.106486	-0.000907	0.550329
C100	C	1.606486	0.499093	1.050329
C101	C	1.106479	-0.000903	0.449827
C102	C	1.606479	0.499097	0.949827
C103	C	1.049423	-0.062165	0.399584
C104	C	1.549423	0.437835	0.899584
C105	C	0.992380	-0.123436	0.449844
C106	C	1.492380	0.376564	0.949844
C107	C	0.935329	-0.184702	0.399603
C108	C	1.435329	0.315298	0.899603
C109	C	0.878280	-0.245969	0.449862
C110	C	1.378280	0.254031	0.949862
C111	C	0.878293	-0.245966	0.550361
C112	C	1.378293	0.254034	1.050361
C113	C	1.049410	-0.062168	0.299085
C114	C	1.549410	0.437832	0.799085
C115	C	0.935319	-0.184702	0.299098
C116	C	1.435319	0.315298	0.799098
H117	H	0.563867	0.033887	-0.000008
H118	H	1.063867	0.533887	0.499992
Cl119	Cl	0.806567	-0.322992	0.386691
Cl120	Cl	1.306567	0.177008	0.886691
H121	H	1.095862	-0.012289	0.258169
H122	H	1.595862	0.487711	0.758169
H123	H	0.888908	-0.234583	0.742032
H124	H	1.388908	0.265417	1.242032
H125	H	0.449506	-0.043269	-0.145185
H126	H	0.949506	0.456731	0.354815
Cl127	Cl	1.121174	0.014840	0.764244
Cl128	Cl	1.621174	0.514840	1.264244
H129	H	0.535142	-0.203541	-0.145326
H130	H	1.035142	0.296459	0.354674
Cl131	Cl	0.546254	-0.223500	0.181544
Cl132	Cl	1.046254	0.276500	0.681544
H133	H	0.421092	-0.280866	0.000001
H134	H	0.921092	0.219134	0.500001
H135	H	1.209217	0.321496	0.000118
H136	H	1.709217	0.821496	0.500118
Cl137	Cl	0.438570	-0.023287	0.181534
Cl138	Cl	0.938570	0.476713	0.681534
H139	H	0.775558	0.431638	0.000068
H140	H	1.275558	0.931638	0.500068
Cl141	Cl	0.824064	0.105137	0.000062
Cl142	Cl	1.324064	0.605137	0.500062
Cl143	Cl	1.160685	0.647983	0.000134
Cl144	Cl	1.660685	1.147983	0.500134
Cl145	Cl	0.745062	0.235436	0.000070
Cl146	Cl	1.245062	0.735436	0.500070
Cl147	Cl	0.815309	0.599496	0.000071
Cl148	Cl	1.315309	1.099496	0.500071
Cl149	Cl	1.178192	0.076119	0.386651
Cl150	Cl	1.678192	0.576119	0.886651
Cl151	Cl	1.169450	0.153626	0.000123
Cl152	Cl	1.669450	0.653626	0.500123
Cl153	Cl	1.239693	0.517674	0.000146
Cl154	Cl	1.739693	1.017674	0.500146
H155	H	0.888858	-0.234590	0.258198
H156	H	1.388858	0.265410	0.758198
Cl157	Cl	0.806584	-0.322984	0.613545
Cl158	Cl	1.306584	0.177016	1.113545
H159	H	1.152939	0.048969	0.591238
H160	H	1.652939	0.548969	1.091238
