data_functionalizedCrystal
_audit_creation_method	'MofGen! by Chris Wilmer'
_symmetry_space_group_name_H-M	'P1'
_symmetry_Int_Tables_number	1
_symmetry_cell_setting	triclinic
loop_
_symmetry_equiv_pos_as_xyz
  x,y,z
_cell_length_a	10.686220
_cell_length_b	12.759400
_cell_length_c	10.686551
_cell_angle_alpha	94.405838
_cell_angle_beta	89.691918
_cell_angle_gamma	94.396325
loop_
_atom_site_label
_atom_site_type_symbol
_atom_site_fract_x
_atom_site_fract_y
_atom_site_fract_z
Zn1	Zn	1.972289	-0.256138	0.562385
Zn2	Zn	1.956061	-0.446298	0.352626
Zn3	Zn	1.746408	-0.283014	0.368703
Zn4	Zn	1.762491	-0.444169	0.578404
O5	O	1.859312	-0.357405	0.465529
O6	O	2.145678	-0.271007	0.521128
O7	O	1.914727	-0.436777	0.179213
O8	O	1.776432	-0.132422	0.394419
O9	O	2.133755	-0.410716	0.367019
O10	O	1.942386	-0.112677	0.536717
O11	O	1.760696	-0.316813	0.191024
O12	O	1.572999	-0.314748	0.409952
O13	O	1.803844	-0.407088	0.751824
O14	O	1.584816	-0.433148	0.564018
O15	O	1.957981	-0.268942	0.740056
O16	O	1.930323	-0.593042	0.382552
O17	O	1.788108	-0.591478	0.548429
C18	C	1.533391	-0.376634	0.490468
C19	C	1.393964	-0.384884	0.501167
C20	C	1.859236	-0.630378	0.465509
C21	C	1.859321	-0.747148	0.465533
C22	C	1.933468	-0.802778	0.379243
C23	C	1.933548	-0.912495	0.379275
C24	C	1.785323	-0.910942	0.551894
C25	C	1.785251	-0.801226	0.551866
C26	C	2.007538	-0.748700	0.292910
C27	C	2.081690	-0.804330	0.206611
C28	C	2.081770	-0.914047	0.206644
C29	C	2.007698	-0.968133	0.292976
C30	C	2.186505	-0.338101	0.440494
C31	C	2.325936	-0.329875	0.429825
C32	C	1.884517	-0.334779	0.792730
C33	C	1.895257	-0.325138	0.932163
C34	C	1.859425	-0.083361	0.465575
C35	C	1.859473	0.033420	0.465594
C36	C	1.834278	-0.379862	0.139596
C37	C	1.823780	-0.389193	0.000145
H38	H	1.374361	-0.276469	0.360559
C39	C	1.731200	-0.472265	0.935758
C40	C	1.667438	-0.529446	1.026410
C41	C	1.582160	-0.605994	0.967133
H42	H	1.672553	-0.438924	0.888828
H43	H	1.775260	-0.518759	0.880996
H44	H	1.623380	-0.482959	1.081149
H45	H	1.726052	-0.562810	1.073345
H46	H	1.626220	-0.652488	0.912372
H47	H	1.523522	-0.572644	0.920205
H48	H	1.538895	-0.644807	1.028630
H49	H	2.007780	-1.057471	0.293004
H50	H	1.964679	-0.262921	0.980637
H51	H	1.345532	-0.438301	0.570429
C52	C	2.007673	-0.629575	0.292717
C53	C	2.088430	-0.594116	0.198665
C54	C	2.088595	-0.484385	0.198462
H55	H	1.925115	-0.610973	0.277102
H56	H	2.035587	-0.597792	0.371997
H57	H	2.060511	-0.625887	0.119404
H58	H	2.170999	-0.612690	0.214260
H59	H	2.116509	-0.452602	0.277741
H60	H	2.006033	-0.465793	0.182849
H61	H	2.143397	-0.460311	0.134657
H62	H	2.142005	-0.760287	0.136329
C63	C	2.162315	-0.974265	0.112816
C64	C	2.227139	-0.903420	0.037190
C65	C	2.301333	-0.958853	-0.049276
H66	H	2.220767	-1.010469	0.156527
H67	H	2.110209	-1.023712	0.061733
H68	H	2.279241	-0.853992	0.088266
H69	H	2.168717	-0.867213	-0.006549
H70	H	2.249227	-1.008301	-0.100359
H71	H	2.359778	-0.995056	-0.005555
H72	H	2.345316	-0.910795	-0.100606
H73	H	1.725016	-0.954988	0.622180
C74	C	1.704878	-0.740626	0.645491
C75	C	1.720699	-0.632964	0.627009
C76	C	1.646695	-0.577105	0.713249
H77	H	1.619154	-0.764787	0.633603
H78	H	1.729691	-0.751590	0.728424
H79	H	1.695879	-0.622006	0.544096
H80	H	1.806407	-0.608772	0.638907
H81	H	1.671508	-0.588069	0.796182
H82	H	1.560976	-0.601275	0.701354
H83	H	1.657428	-0.504050	0.700729
