data_functionalizedCrystal
_audit_creation_method	'MofGen! by Chris Wilmer'
_symmetry_space_group_name_H-M	'P1'
_symmetry_Int_Tables_number	1
_symmetry_cell_setting	triclinic
loop_
_symmetry_equiv_pos_as_xyz
  x,y,z
_cell_length_a	14.971482
_cell_length_b	17.019294
_cell_length_c	14.048226
_cell_angle_alpha	86.114596
_cell_angle_beta	89.994098
_cell_angle_gamma	83.503209
loop_
_atom_site_label
_atom_site_type_symbol
_atom_site_fract_x
_atom_site_fract_y
_atom_site_fract_z
O1	O	1.186694	0.102787	-0.087572
O2	O	0.926262	0.115100	-0.088586
O3	O	1.063743	-0.005883	-0.078662
O4	O	1.049213	0.223770	-0.097496
O5	O	1.063726	-0.005890	0.079660
O6	O	0.926246	0.115093	0.069736
O7	O	1.186677	0.102780	0.070750
Zn8	Zn	1.056459	0.108935	0.095380
Zn9	Zn	1.056481	0.108945	-0.113216
O10	O	1.049197	0.223763	0.060826
C11	C	0.892931	0.114547	-0.009381
C12	C	0.793638	0.112898	-0.009247
C13	C	0.746986	0.112118	0.077119
C14	C	0.653691	0.110556	0.077248
C15	C	0.607049	0.109780	-0.008990
C16	C	0.653708	0.110558	-0.095363
C17	C	0.747002	0.112114	-0.095490
C18	C	0.459254	0.107317	-0.095091
C19	C	0.365954	0.105762	-0.094964
C20	C	0.365944	0.105759	0.077648
C21	C	0.459237	0.107315	0.077520
C22	C	0.505889	0.108094	-0.008853
C23	C	1.063183	-0.035276	0.002907
C24	C	1.061530	-0.122848	0.010083
C25	C	1.060765	-0.163981	-0.072847
C26	C	1.059206	-0.246264	-0.066101
C27	C	1.058419	-0.287413	0.023575
C28	C	1.059182	-0.246273	0.106510
C29	C	1.060734	-0.163992	0.099764
C30	C	1.053725	-0.535851	0.048262
C31	C	1.052175	-0.618139	0.055002
C32	C	1.052197	-0.618123	-0.117611
C33	C	1.053755	-0.535840	-0.124349
C34	C	1.054513	-0.494708	-0.041413
C35	C	1.056828	-0.371519	0.030472
C36	C	1.056097	-0.410602	-0.048311
C37	C	1.220009	0.103333	-0.008458
C38	C	1.319302	0.104982	-0.008598
C39	C	1.049756	0.253156	-0.020746
C40	C	1.051409	0.340728	-0.027928
N41	N	1.056451	0.108928	0.237741
N42	N	1.056496	0.108945	-0.255577
C43	C	1.117346	0.055379	0.291952
C44	C	1.117352	0.055379	0.391609
C45	C	1.056466	0.108932	0.437054
C46	C	0.995564	0.162484	0.382836
C47	C	0.995555	0.162480	0.283181
C48	C	0.995590	0.162489	0.590550
C49	C	0.995601	0.162495	0.690212
C50	C	1.117387	0.055389	0.698979
C51	C	1.117378	0.055385	0.599323
C52	C	1.056477	0.108937	0.545112
H53	H	0.327980	0.105131	-0.165187
H54	H	1.166937	0.011775	0.435747
H55	H	1.061410	-0.130485	-0.145870
H56	H	1.051578	-0.651622	-0.185132
H57	H	1.058586	-0.279751	-0.133631
O58	O	0.504429	0.108113	-0.179081
C59	C	0.443260	0.107081	-0.255170
H60	H	0.373017	0.130919	-0.231821
H61	H	0.442815	0.043682	-0.276517
C62	C	0.558207	0.130116	-0.369669
C63	C	0.471934	0.159401	-0.340993
H64	H	0.575895	0.162386	-0.422610
H65	H	0.599418	0.130809	-0.318407
H66	H	0.557824	0.077285	-0.387451
H67	H	0.472320	0.212227	-0.323200
H68	H	0.430723	0.158718	-0.392254
O69	O	1.058539	-0.286168	0.193678
C70	C	1.136352	-0.274938	0.245250
H71	H	1.163293	-0.218148	0.216051
H72	H	1.189700	-0.327450	0.237594
C73	C	1.079803	-0.338198	0.387231
C74	C	1.112888	-0.268444	0.351374
H75	H	1.065332	-0.334196	0.452694
H76	H	1.027381	-0.345768	0.352485
H77	H	1.124265	-0.381951	0.380842
H78	H	1.068423	-0.224695	0.357752
H79	H	1.165303	-0.260868	0.386123
O80	O	0.792178	0.112911	-0.179475
C81	C	0.731010	0.111875	-0.255563
H82	H	0.660768	0.135719	-0.232218
H83	H	0.730561	0.048475	-0.276902
C84	C	0.845960	0.134895	-0.370063
C85	C	0.759688	0.164186	-0.341392
H86	H	0.863651	0.167159	-0.423009
H87	H	0.887171	0.135589	-0.318802
H88	H	0.845574	0.082061	-0.387839
H89	H	0.760078	0.217015	-0.323606
H90	H	0.718477	0.163502	-0.392653
O91	O	1.054596	-0.495823	0.128750
C92	C	1.132934	-0.457106	0.130740
H93	H	1.158982	-0.447733	0.055036
H94	H	1.186553	-0.495023	0.176437
C95	C	1.078897	-0.387767	0.266428
C96	C	1.110885	-0.376249	0.173447
H97	H	1.065299	-0.337892	0.292776
H98	H	1.026120	-0.413853	0.265091
H99	H	1.123585	-0.419366	0.304497
H100	H	1.066193	-0.344658	0.135377
H101	H	1.163654	-0.350155	0.174779
O102	O	1.054473	-0.495988	-0.211536
C103	C	1.053486	-0.549941	-0.283288
H104	H	1.024072	-0.605357	-0.253446
H105	H	1.125047	-0.566898	-0.308432
C106	C	1.031599	-0.443048	-0.404662
C107	C	0.995465	-0.511109	-0.368012
H108	H	0.995813	-0.419095	-0.456927
H109	H	1.032268	-0.406699	-0.356323
H110	H	1.091233	-0.457189	-0.425608
H111	H	0.935837	-0.496966	-0.347056
H112	H	0.994785	-0.547455	-0.416351
H113	H	0.945995	0.206095	0.546415
H114	H	1.051529	-0.651639	0.128030
H115	H	1.061345	-0.130500	0.167294
O116	O	0.320751	0.104891	0.161624
C117	C	0.353761	0.036995	0.219686
H118	H	0.424907	0.015370	0.196912
H119	H	0.308416	-0.011686	0.211722
C120	C	0.267583	0.084364	0.352600
C121	C	0.354969	0.057807	0.324634
H122	H	0.268325	0.097199	0.417338
H123	H	0.245340	0.130105	0.313483
H124	H	0.229805	0.043791	0.345956
H125	H	0.392742	0.098382	0.331267
H126	H	0.377218	0.012072	0.363755
O127	O	0.936417	0.214400	0.734479
C128	C	0.881302	0.172060	0.795599
H129	H	0.917021	0.110386	0.815574
H130	H	0.815199	0.166598	0.757665
C131	C	0.818271	0.292249	0.862091
C132	C	0.862145	0.216502	0.886631
H133	H	0.806449	0.319664	0.918242
H134	H	0.855400	0.320775	0.820911
H135	H	0.763190	0.287687	0.830477
H136	H	0.917229	0.221066	0.918233
H137	H	0.825024	0.187978	0.927819
H138	H	1.056732	-0.377095	-0.121325
O139	O	1.055959	-0.411572	0.117524
C140	C	0.977625	-0.450295	0.125878
H141	H	0.951573	-0.459650	0.051715
H142	H	0.924007	-0.412393	0.165379
C143	C	1.031679	-0.519670	0.272912
C144	C	0.999685	-0.531165	0.181824
H145	H	1.045284	-0.569552	0.307426
H146	H	1.084453	-0.493579	0.267287
H147	H	0.986991	-0.488082	0.305818
H148	H	1.044376	-0.562743	0.148916
H149	H	0.946918	-0.557263	0.187445
H150	H	0.615725	0.109921	-0.165579
H151	H	1.166960	0.011782	0.562322
O152	O	1.176526	0.003281	0.247964
C153	C	1.230288	-0.043970	0.317186
H154	H	1.193625	-0.044910	0.388309
H155	H	1.296697	-0.018260	0.325659
C156	C	1.293863	-0.127890	0.197926
C157	C	1.248829	-0.129051	0.285279
H158	H	1.305304	-0.180371	0.178244
H159	H	1.257645	-0.096055	0.151289
H160	H	1.349199	-0.106461	0.204998
H161	H	1.193490	-0.150470	0.278203
H162	H	1.285038	-0.160892	0.331915
H163	H	0.945985	0.206085	0.419844
H164	H	0.945966	0.206084	0.239043
O165	O	0.792157	0.112833	0.160981
C166	C	0.730968	0.111827	0.237235
H167	H	0.668204	0.085765	0.214068
H168	H	0.711574	0.174896	0.258601
C169	C	0.852197	0.092745	0.351415
C170	C	0.775113	0.060729	0.322964
H171	H	0.879428	0.061229	0.404299
H172	H	0.893422	0.093425	0.300042
H173	H	0.836025	0.145302	0.369214
H174	H	0.791288	0.008178	0.305154
H175	H	0.733891	0.060039	0.374337
O176	O	1.176458	0.003392	0.751779
C177	C	1.163425	0.014886	0.849482
H178	H	1.092276	0.044263	0.860695
H179	H	1.213996	0.054527	0.874497
C180	C	1.264370	-0.101873	0.893494
C181	C	1.176981	-0.065797	0.907268
H182	H	1.272736	-0.151641	0.929140
H183	H	1.273154	-0.109615	0.827670
H184	H	1.306503	-0.068831	0.914340
H185	H	1.134851	-0.098834	0.886411
H186	H	1.168191	-0.058062	0.973090
H187	H	0.615714	0.109907	0.147577
H188	H	0.497210	0.107951	0.147742
