data_functionalizedCrystal
_audit_creation_method	'MofGen! by Chris Wilmer'
_symmetry_space_group_name_H-M	'P1'
_symmetry_Int_Tables_number	1
_symmetry_cell_setting	triclinic
loop_
_symmetry_equiv_pos_as_xyz
  x,y,z
_cell_length_a	14.519709
_cell_length_b	14.971486
_cell_length_c	13.596369
_cell_angle_alpha	89.999401
_cell_angle_beta	89.999684
_cell_angle_gamma	83.647137
loop_
_atom_site_label
_atom_site_type_symbol
_atom_site_fract_x
_atom_site_fract_y
_atom_site_fract_z
O1	O	-1.223800	-0.117245	0.081664
O2	O	-0.890467	0.216089	0.414997
O3	O	-0.557133	0.549422	0.748330
O4	O	-0.955315	-0.131053	0.081694
O5	O	-0.621982	0.202281	0.415027
O6	O	-0.288648	0.535614	0.748361
O7	O	-1.096754	0.006047	0.081671
O8	O	-0.763420	0.339381	0.415004
O9	O	-0.430087	0.672714	0.748338
O10	O	-1.082361	-0.254345	0.081687
O11	O	-0.749028	0.078989	0.415020
O12	O	-0.415695	0.412322	0.748353
O13	O	-1.096736	0.006040	-0.081912
O14	O	-0.763403	0.339373	0.251421
O15	O	-0.430069	0.672706	0.584755
O16	O	-0.955297	-0.131060	-0.081889
O17	O	-0.621964	0.202273	0.251444
O18	O	-0.288631	0.535606	0.584778
O19	O	-1.223783	-0.117252	-0.081919
O20	O	-0.890449	0.216081	0.251414
O21	O	-0.557116	0.549414	0.584748
Zn22	Zn	-1.089537	-0.124158	-0.107876
Zn23	Zn	-0.756204	0.209176	0.225457
Zn24	Zn	-0.422871	0.542509	0.558790
Zn25	Zn	-1.089560	-0.124147	0.107651
Zn26	Zn	-0.756227	0.209186	0.440985
Zn27	Zn	-0.422894	0.542519	0.774318
O28	O	-1.082344	-0.254352	-0.081896
O29	O	-0.749011	0.078981	0.251437
O30	O	-0.415677	0.412314	0.584770
C31	C	-0.920947	-0.130413	-0.000094
C32	C	-0.587613	0.202920	0.333240
C33	C	-0.254280	0.536254	0.666573
C34	C	-0.818567	-0.128485	-0.000082
C35	C	-0.485233	0.204849	0.333251
C36	C	-0.151900	0.538182	0.666584
C37	C	-1.096101	0.039369	-0.000120
C38	C	-0.762768	0.372702	0.333213
C39	C	-0.429435	0.706035	0.666547
C40	C	-1.094172	0.138667	-0.000119
C41	C	-0.760839	0.472000	0.333214
C42	C	-0.427506	0.805333	0.666548
C43	C	-1.258151	-0.117892	-0.000129
C44	C	-0.924817	0.215441	0.333204
C45	C	-0.591484	0.548775	0.666537
C46	C	-1.360531	-0.119820	-0.000134
C47	C	-1.027197	0.213513	0.333199
C48	C	-0.693864	0.546846	0.666533
C49	C	-0.443675	-0.121386	-0.000128
C50	C	-0.110342	0.211948	0.333206
C51	C	0.222992	0.545281	0.666539
C52	C	-0.547982	-0.123357	-0.000115
C53	C	-0.214649	0.209976	0.333219
C54	C	0.118685	0.543310	0.666552
C55	C	-0.631118	-0.124935	-0.000104
C56	C	-0.297784	0.208399	0.333229
C57	C	0.035549	0.541732	0.666563
C58	C	-0.735431	-0.126907	-0.000093
C59	C	-0.402098	0.206427	0.333240
C60	C	-0.068764	0.539760	0.666574
C61	C	-1.082996	-0.287674	-0.000103
C62	C	-0.749663	0.045660	0.333230
C63	C	-0.416330	0.378993	0.666564
C64	C	-1.084925	-0.386972	-0.000098
C65	C	-0.751592	-0.053638	0.333236
C66	C	-0.418258	0.279695	0.666569
N67	N	-1.089528	-0.124164	-0.254968
N68	N	-0.756195	0.209170	0.078365
N69	N	-0.422862	0.542503	0.411698
C70	C	-1.177264	0.195845	-0.000129
C71	C	-0.843930	0.529179	0.333204
C72	C	-0.510597	0.862512	0.666538
C73	C	-1.175446	0.289146	-0.000119
C74	C	-0.842113	0.622479	0.333214
C75	C	-0.508779	0.955813	0.666548
C76	C	-1.090536	0.325266	-0.000106
C77	C	-0.757202	0.658599	0.333228
C78	C	-0.423869	0.991933	0.666561
C79	C	-1.007438	0.268080	-0.000093
C80	C	-0.674105	0.601413	0.333241
C81	C	-0.340771	0.934747	0.666574
C82	C	-1.009257	0.174781	-0.000096
C83	C	-0.675923	0.508115	0.333237
C84	C	-0.342590	0.841448	0.666571
C85	C	-1.003653	0.462545	-0.000089
C86	C	-0.670320	0.795878	0.333245
C87	C	-0.336986	1.129211	0.666578
C88	C	-1.001834	0.555850	-0.000088
C89	C	-0.668500	0.889183	0.333246
C90	C	-0.335167	1.222516	0.666579
C91	C	-1.169842	0.576909	-0.000112
C92	C	-0.836509	0.910242	0.333222
C93	C	-0.503175	1.243576	0.666555
C94	C	-1.171661	0.483610	-0.000115
C95	C	-0.838328	0.816944	0.333218
C96	C	-0.504994	1.150277	0.666552
C97	C	-1.088563	0.426431	-0.000104
C98	C	-0.755229	0.759764	0.333230
C99	C	-0.421896	1.093098	0.666563
C100	C	-1.089533	-0.124166	-0.343966
C101	C	-0.756200	0.209168	-0.010633
C102	C	-0.422866	0.542501	0.322701
C103	C	-1.089542	-0.124160	-0.455617
C104	C	-0.756209	0.209174	-0.122284
C105	C	-0.422875	0.542507	0.211049
C106	C	-1.089554	-0.124150	-0.544608
C107	C	-0.756221	0.209184	-0.211275
C108	C	-0.422887	0.542517	0.122059
C109	C	-1.089564	-0.124144	-0.656266
C110	C	-0.756231	0.209189	-0.322933
C111	C	-0.422898	0.542522	0.010400
N112	N	-1.089576	-0.124134	0.254743
N113	N	-0.756243	0.209199	0.588076
N114	N	-0.422910	0.542533	0.921410
H115	H	-1.246407	0.166444	-0.000146
H116	H	-0.913074	0.499778	0.333188
H117	H	-0.579741	0.833111	0.666521
H118	H	-1.237504	0.623470	-0.000118
H119	H	-0.904170	0.956803	0.333216
H120	H	-0.570837	1.290136	0.666549
H121	H	-0.932692	0.585255	-0.000093
H122	H	-0.599359	0.918589	0.333241
H123	H	-0.266026	1.251922	0.666574
H124	H	-1.243107	0.335698	-0.000129
H125	H	-0.909774	0.669031	0.333204
H126	H	-0.576441	1.002364	0.666537
H127	H	-0.938303	0.297496	-0.000076
H128	H	-0.604969	0.630829	0.333257
H129	H	-0.271636	0.964163	0.666591
H130	H	-0.935985	0.415991	-0.000077
H131	H	-0.602652	0.749324	0.333256
H132	H	-0.269319	1.082657	0.666590
H133	H	-0.941595	0.128227	-0.000087
H134	H	-0.608262	0.461560	0.333246
H135	H	-0.274928	0.794893	0.666579
H136	H	-1.240802	0.454205	-0.000133
H137	H	-0.907469	0.787538	0.333201
H138	H	-0.574135	1.120872	0.666534
