data_functionalizedCrystal
_audit_creation_method	'MofGen! by Chris Wilmer'
_symmetry_space_group_name_H-M	'P1'
_symmetry_Int_Tables_number	1
_symmetry_cell_setting	triclinic
loop_
_symmetry_equiv_pos_as_xyz
  x,y,z
_cell_length_a	10.686220
_cell_length_b	12.759387
_cell_length_c	10.686285
_cell_angle_alpha	94.397464
_cell_angle_beta	89.654569
_cell_angle_gamma	94.348402
loop_
_atom_site_label
_atom_site_type_symbol
_atom_site_fract_x
_atom_site_fract_y
_atom_site_fract_z
Zn1	Zn	1.956182	-0.446828	0.352032
Zn2	Zn	1.972174	-0.256754	0.561845
Zn3	Zn	1.746407	-0.283510	0.368208
Zn4	Zn	1.762508	-0.444742	0.577854
O5	O	1.859318	-0.357958	0.464985
O6	O	2.133841	-0.411290	0.366395
O7	O	1.942180	-0.113280	0.536229
O8	O	1.760804	-0.317245	0.190517
O9	O	2.145590	-0.271643	0.520544
O10	O	1.914925	-0.437234	0.178633
O11	O	1.776310	-0.132938	0.393964
O12	O	1.573005	-0.315222	0.409487
O13	O	1.788245	-0.592041	0.547829
O14	O	1.584834	-0.433678	0.563513
O15	O	1.930537	-0.593574	0.381918
O16	O	1.957791	-0.269620	0.739514
O17	O	1.803751	-0.407734	0.751276
C18	C	1.533405	-0.377128	0.489994
C19	C	1.393981	-0.385352	0.500723
C20	C	1.859403	-0.631995	0.464855
C21	C	1.859439	-0.748773	0.464799
C22	C	2.007620	-0.750387	0.292047
C23	C	2.081726	-0.806055	0.205650
C24	C	2.081753	-0.915778	0.205602
C25	C	2.007663	-0.969836	0.291957
C26	C	1.933557	-0.914168	0.378354
C27	C	1.933541	-0.804442	0.378395
C28	C	1.785371	-0.912554	0.551099
C29	C	1.785349	-0.802830	0.551155
C30	C	1.711281	-0.966612	0.637454
C31	C	1.637180	-0.910943	0.723858
C32	C	1.637157	-0.801213	0.723903
C33	C	1.711243	-0.747162	0.637551
C34	C	2.186503	-0.338714	0.439880
C35	C	2.325930	-0.330514	0.429181
C36	C	1.884288	-0.335568	0.790909
C37	C	1.895085	-0.326018	0.930332
C38	C	1.859298	-0.084990	0.465019
C39	C	1.859478	0.031778	0.464702
C40	C	1.834285	-0.380457	0.137786
C41	C	1.823617	-0.390044	-0.001647
H42	H	1.345572	-0.438589	0.570192
O43	O	1.711329	-1.073180	0.637640
C44	C	1.752852	-1.220463	0.755355
C45	C	1.752827	-1.099762	0.755318
H46	H	1.786424	-1.241991	0.850479
H47	H	1.653731	-1.257806	0.736837
H48	H	1.818506	-1.250945	0.678729
H49	H	1.687234	-1.069186	0.831941
H50	H	1.851989	-1.062491	0.773777
H51	H	2.142088	-0.961104	0.135243
O52	O	1.383620	-0.266841	0.346451
C53	C	1.419095	-0.090077	0.282207
C54	C	1.353703	-0.162064	0.375998
H55	H	1.394911	-0.005354	0.306046
H56	H	1.525040	-0.094447	0.288029
H57	H	1.385675	-0.117161	0.183041
H58	H	1.387021	-0.135030	0.475206
H59	H	1.247768	-0.157687	0.370066
H60	H	2.007618	-0.661043	0.292088
O61	O	1.740672	-0.464194	0.940792
C62	C	1.582549	-0.605871	0.966574
C63	C	1.676409	-0.521925	1.031934
H64	H	1.530585	-0.652584	1.040231
H65	H	1.512219	-0.565653	0.910399
H66	H	1.635430	-0.661575	0.900684
H67	H	1.623634	-0.466196	1.097884
H68	H	1.746736	-0.562213	1.088029
O69	O	2.153670	-0.753375	0.121896
C70	C	2.219271	-0.585060	0.045366
C71	C	2.137759	-0.644581	0.140303
H72	H	2.206415	-0.497093	0.060198
H73	H	2.322133	-0.599100	0.059645
H74	H	2.189542	-0.614944	-0.054099
H75	H	2.167377	-0.614734	0.239806
H76	H	2.034915	-0.630542	0.125914
O77	O	2.007867	-1.076418	0.291769
C78	C	2.089133	-1.234770	0.196851
C79	C	2.089046	-1.114065	0.196945
H80	H	2.154739	-1.265247	0.120176
H81	H	2.122663	-1.256411	0.291944
H82	H	1.989977	-1.272022	0.178311
H83	H	2.188168	-1.076730	0.215433
H84	H	2.055445	-1.092501	0.101846
H85	H	1.576855	-0.954966	0.794155
H86	H	1.576796	-0.755896	0.794246
H87	H	1.711237	-0.657819	0.637584
H88	H	1.964526	-0.263885	0.978766
