data_functionalizedCrystal
_audit_creation_method	'MofGen! by Chris Wilmer'
_symmetry_space_group_name_H-M	'P1'
_symmetry_Int_Tables_number	1
_symmetry_cell_setting	triclinic
loop_
_symmetry_equiv_pos_as_xyz
  x,y,z
_cell_length_a	19.188930
_cell_length_b	16.992695
_cell_length_c	16.053802
_cell_angle_alpha	87.258926
_cell_angle_beta	92.586369
_cell_angle_gamma	86.906501
loop_
_atom_site_label
_atom_site_type_symbol
_atom_site_fract_x
_atom_site_fract_y
_atom_site_fract_z
O1	O	-0.934644	-0.094549	-0.069701
O2	O	-0.732101	-0.107727	-0.069644
O3	O	-0.832560	0.013002	-0.069666
O4	O	-0.834185	-0.215277	-0.069679
O5	O	-0.827029	0.006384	0.069194
O6	O	-0.726570	-0.114345	0.069216
O7	O	-0.929113	-0.101167	0.069159
Zn8	Zn	-0.826963	-0.108807	0.091235
Zn9	Zn	-0.834250	-0.100087	-0.091720
O10	O	-0.828653	-0.221895	0.069181
C11	C	-0.703299	-0.110610	-0.000207
C12	C	-0.625719	-0.109330	-0.000185
C13	C	-0.827705	0.038898	-0.000235
C14	C	-0.821472	0.125921	-0.000234
C15	C	-0.957914	-0.098284	-0.000280
C16	C	-1.035495	-0.099564	-0.000308
C17	C	-0.584941	-0.180168	-0.000202
C18	C	-0.512047	-0.178964	-0.000211
C19	C	-0.479935	-0.106918	-0.000220
C20	C	-0.520722	-0.036070	-0.000198
C21	C	-0.593614	-0.037276	-0.000180
N22	N	-0.370616	-0.049593	-0.047510
N23	N	-0.301371	-0.048452	-0.047528
C24	C	-0.260316	-0.103279	-0.000271
N25	N	-0.291120	-0.159302	0.046996
N26	N	-0.360371	-0.160445	0.047011
C27	C	-0.400896	-0.105602	-0.000238
C28	C	-0.140497	-0.172817	-0.000297
C29	C	-0.067602	-0.171611	-0.000300
C30	C	-0.076279	-0.028714	-0.000295
C31	C	-0.149172	-0.029923	-0.000283
C32	C	-0.181277	-0.101977	-0.000288
C33	C	-0.833508	-0.247792	-0.000252
C34	C	-0.839741	-0.334814	-0.000259
N35	N	-0.821995	-0.114757	0.216096
C36	C	-0.881613	0.176368	-0.000250
C37	C	-0.875752	0.258135	-0.000256
C38	C	-0.809751	0.289453	-0.000240
C39	C	-0.749606	0.238999	-0.000227
C40	C	-0.755467	0.157234	-0.000226
C41	C	-0.785458	0.532967	-0.000245
C42	C	-0.779601	0.614738	-0.000243
C43	C	-0.905748	0.633869	-0.000273
C44	C	-0.911603	0.552102	-0.000268
C45	C	-0.851459	0.501655	-0.000259
N46	N	-0.803759	0.373031	-0.000244
N47	N	-0.857452	0.418079	-0.000261
N48	N	-0.839224	-0.094131	-0.216581
C49	C	-0.864758	-0.063405	0.259781
C50	C	-0.861289	-0.067575	0.347188
C51	C	-0.815061	-0.123101	0.390909
C52	C	-0.772293	-0.174455	0.347219
C53	C	-0.775758	-0.170281	0.259813
C54	C	-0.799922	-0.141311	0.652322
C55	C	-0.796461	-0.145483	0.739734
C56	C	-0.885457	-0.038601	0.739698
C57	C	-0.888921	-0.034435	0.652290
C58	C	-0.846151	-0.085786	0.608607
N59	N	-0.811516	-0.127366	0.480254
N60	N	-0.849693	-0.081517	0.519264
H61	H	-0.611076	-0.238839	-0.000207
H62	H	-0.924725	0.299207	-0.000267
C63	C	-0.932494	0.017889	0.787747
H64	H	-0.960524	0.051553	0.749189
H65	H	-0.904211	0.048824	0.821864
H66	H	-0.961778	-0.011860	0.821822
C67	C	-0.954213	0.141922	-0.000264
H68	H	-0.949092	0.086000	-0.000253
H69	H	-0.981098	0.161558	-0.048694
H70	H	-0.977235	0.156950	0.048159
H71	H	-0.758814	-0.190702	0.775328
C72	C	-0.040965	0.050536	-0.000310
H73	H	0.008288	0.041110	-0.000329
H74	H	-0.052746	0.077391	0.048115
H75	H	-0.056640	0.081996	-0.048738
H76	H	-0.896110	-0.025759	0.382756
H77	H	-0.034401	-0.229298	-0.000310
H78	H	-0.706495	0.116159	-0.000213
H79	H	-0.182375	0.027761	-0.000273
H80	H	-0.965348	0.526610	-0.000281
H81	H	-0.954714	0.674951	-0.000282
C82	C	-0.706997	0.649187	-0.000240
H83	H	-0.672016	0.607433	-0.000245
H84	H	-0.700153	0.678382	0.048183
H85	H	-0.704030	0.682990	-0.048671
C86	C	-0.721419	-0.235510	0.395306
H87	H	-0.696436	-0.265484	0.356768
H88	H	-0.746976	-0.269713	0.429395
H89	H	-0.689442	-0.208990	0.429411
C90	C	-0.638472	0.040649	-0.000171
H91	H	-0.608910	0.083732	-0.000182
H92	H	-0.665146	0.040843	0.048256
H93	H	-0.669029	0.045453	-0.048598
C94	C	-0.752882	-0.197802	0.604282
H95	H	-0.724862	-0.231474	0.642841
H96	H	-0.723601	-0.168058	0.570206
H97	H	-0.781169	-0.228741	0.570165
H98	H	-0.736484	0.491903	-0.000237
H99	H	-0.478839	-0.236651	-0.000223
C100	C	-0.939768	0.026648	0.604203
H101	H	-0.964736	0.056640	0.642739
H102	H	-0.971751	0.000159	0.570082
H103	H	-0.914183	0.060842	0.570129
C104	C	-0.915609	-0.002324	0.211695
H105	H	-0.940575	0.027666	0.250234
H106	H	-0.947593	-0.028813	0.177574
H107	H	-0.890024	0.031870	0.177621
H108	H	-0.695866	0.264504	-0.000219
H109	H	-0.740935	-0.212096	0.224245
C110	C	-0.485402	0.043179	-0.000212
H111	H	-0.436150	0.033753	-0.000234
H112	H	-0.497181	0.070032	0.048215
H113	H	-0.501079	0.074642	-0.048638
H114	H	-0.166638	-0.231488	-0.000288
