data_functionalizedCrystal
_audit_creation_method	'MofGen! by Chris Wilmer'
_symmetry_space_group_name_H-M	'P1'
_symmetry_Int_Tables_number	1
_symmetry_cell_setting	triclinic
loop_
_symmetry_equiv_pos_as_xyz
  x,y,z
_cell_length_a	10.654550
_cell_length_b	14.971486
_cell_length_c	9.130313
_cell_angle_alpha	90.003208
_cell_angle_beta	90.000488
_cell_angle_gamma	84.049530
loop_
_atom_site_label
_atom_site_type_symbol
_atom_site_fract_x
_atom_site_fract_y
_atom_site_fract_z
O1	O	1.666492	0.125629	0.121691
O2	O	1.300886	0.137598	0.121718
O3	O	1.493488	0.001467	0.121693
O4	O	1.473890	0.261760	0.121716
O5	O	1.493474	0.001467	-0.121906
O6	O	1.300871	0.137598	-0.121881
O7	O	1.666478	0.125629	-0.121908
Cu8	Cu	1.483673	0.131614	-0.144137
Cu9	Cu	1.483690	0.131614	0.143947
O10	O	1.473875	0.261760	-0.121883
C11	C	1.254090	0.136720	-0.000078
C12	C	1.114675	0.134090	-0.000068
C13	C	1.034329	0.214242	-0.000065
C14	C	0.903335	0.211766	-0.000091
C15	C	0.933044	0.048979	-0.000116
C16	C	1.064036	0.051456	-0.000101
C17	C	1.492604	-0.031863	-0.000106
C18	C	1.489978	-0.131174	-0.000104
C19	C	1.603127	-0.187783	-0.000114
C20	C	1.600651	-0.281096	-0.000099
C21	C	1.485026	-0.317798	-0.000085
C22	C	1.371868	-0.261181	-0.000071
C23	C	1.374345	-0.167870	-0.000075
C24	C	1.366714	-0.455672	-0.000065
C25	C	1.364237	-0.548989	-0.000064
C26	C	1.593020	-0.568898	-0.000089
C27	C	1.595497	-0.475587	-0.000093
C28	C	1.482339	-0.418976	-0.000082
C29	C	1.713274	0.126508	-0.000109
C30	C	1.852689	0.129137	-0.000109
C31	C	1.474759	0.295090	-0.000081
C32	C	1.477385	0.394401	-0.000073
N33	N	1.483670	0.131613	-0.346760
C34	C	1.559914	0.186369	-0.423407
C35	C	1.559934	0.186364	-0.576744
C36	C	1.407456	0.076846	-0.576772
C37	C	1.407444	0.076847	-0.423438
N38	N	1.483703	0.131607	0.346570
H39	H	0.891798	-0.018299	-0.000152
C40	C	1.152422	-0.036715	-0.000097
H41	H	1.103505	-0.086284	-0.000097
H42	H	1.204147	-0.039131	-0.085039
H43	H	1.204130	-0.039130	0.084868
H44	H	1.075554	0.281528	-0.000050
C45	C	0.814960	0.299933	-0.000078
H46	H	0.863884	0.349498	-0.000045
H47	H	0.763248	0.302358	-0.085031
H48	H	0.763238	0.302345	0.084876
C49	C	1.323582	0.016627	-0.661116
H50	H	1.278174	-0.015985	-0.593503
H51	H	1.265850	0.052910	-0.720923
H52	H	1.374979	-0.024206	-0.720940
H53	H	1.622021	0.230950	-0.639144
C54	C	1.323545	0.016635	-0.339113
H55	H	1.334458	0.024479	-0.236812
H56	H	1.237655	0.032697	-0.364262
H57	H	1.346780	-0.044422	-0.364228
H58	H	1.697282	-0.157909	-0.000134
H59	H	1.692789	-0.327185	-0.000110
C60	C	1.242243	-0.393402	-0.000055
H61	H	1.173025	-0.428623	-0.000062
H62	H	1.238455	-0.356581	0.084889
H63	H	1.238452	-0.356594	-0.085018
C64	C	1.717492	-0.631165	-0.000074
H65	H	1.699461	-0.691994	-0.000047
H66	H	1.764900	-0.619975	-0.085025
H67	H	1.764895	-0.619952	0.084883
C68	C	1.722682	-0.435216	-0.000105
H69	H	1.789720	-0.482294	-0.000096
H70	H	1.728397	-0.399231	-0.085053
H71	H	1.728400	-0.399228	0.084855
H72	H	1.270084	-0.578868	-0.000076
C73	C	1.249885	-0.105596	-0.000065
H74	H	1.267919	-0.044767	-0.000053
H75	H	1.202467	-0.116797	-0.085005
H76	H	1.202492	-0.116796	0.084903
H77	H	1.277724	-0.291071	-0.000051
C78	C	1.643776	0.246597	-0.339065
H79	H	1.689197	0.279199	-0.406681
H80	H	1.592379	0.287425	-0.279247
H81	H	1.701516	0.210315	-0.279253
