data_functionalizedCrystal
_audit_creation_method	'MofGen! by Chris Wilmer'
_symmetry_space_group_name_H-M	'P1'
_symmetry_Int_Tables_number	1
_symmetry_cell_setting	triclinic
loop_
_symmetry_equiv_pos_as_xyz
  x,y,z
_cell_length_a	10.723023
_cell_length_b	12.811415
_cell_length_c	9.798715
_cell_angle_alpha	84.565994
_cell_angle_beta	89.996449
_cell_angle_gamma	84.254503
loop_
_atom_site_label
_atom_site_type_symbol
_atom_site_fract_x
_atom_site_fract_y
_atom_site_fract_z
O1	O	1.656454	0.147212	-0.131704
O2	O	1.293232	0.161304	-0.133451
O3	O	1.483981	0.001531	-0.113670
O4	O	1.465706	0.306985	-0.151486
O5	O	1.483966	0.001531	0.113313
O6	O	1.293218	0.161304	0.093531
O7	O	1.656440	0.147211	0.095278
Zn8	Zn	1.474827	0.154257	0.130443
Zn9	Zn	1.474845	0.154258	-0.168616
O10	O	1.465691	0.306984	0.075497
C11	C	1.246730	0.160279	-0.019834
C12	C	1.108191	0.157211	-0.019455
C13	C	0.903238	0.152672	0.098685
C14	C	1.046426	0.155843	0.098297
C15	C	1.482949	-0.037580	0.004661
C16	C	1.479882	-0.154120	0.019080
C17	C	1.474112	-0.373100	-0.201309
C18	C	1.471230	-0.482600	-0.187767
C19	C	1.471228	-0.482621	0.059704
C20	C	1.474110	-0.373121	0.046162
C21	C	1.475553	-0.318365	-0.084348
C22	C	1.478444	-0.208864	-0.097889
C23	C	1.478433	-0.208886	0.149581
C24	C	1.475551	-0.318386	0.163123
C25	C	1.702942	0.148237	-0.018342
C26	C	1.841481	0.151305	-0.018730
C27	C	1.466723	0.346096	-0.042837
C28	C	1.469790	0.462636	-0.057265
N29	N	1.474823	0.154257	0.334543
N30	N	1.474859	0.154251	-0.372715
C31	C	1.554915	0.086877	0.410662
C32	C	1.554935	0.086873	0.567825
H33	H	1.055090	0.156032	-0.119983
O34	O	1.480046	-0.155636	-0.224623
C35	C	1.589631	-0.103371	-0.238504
H36	H	1.664232	-0.144141	-0.163279
H37	H	1.567406	-0.017879	-0.215814
C38	C	1.546958	-0.056616	-0.478328
C39	C	1.638588	-0.106697	-0.385943
H40	H	1.577156	-0.058663	-0.569277
H41	H	1.473126	-0.091824	-0.468976
H42	H	1.528446	0.014622	-0.459403
H43	H	1.657088	-0.177937	-0.404859
H44	H	1.712425	-0.071501	-0.395302
O45	O	1.393173	0.223223	0.549293
C46	C	1.414295	0.327232	0.571259
H47	H	1.514204	0.328305	0.610474
H48	H	1.345310	0.357741	0.650331
C49	C	1.272889	0.396864	0.387301
C50	C	1.395601	0.398184	0.435455
H51	H	1.261352	0.440633	0.303533
H52	H	1.258653	0.326792	0.372504
H53	H	1.215415	0.422286	0.453207
H54	H	1.453071	0.372750	0.369557
H55	H	1.409845	0.468253	0.450237
O56	O	1.392980	0.222931	0.395760
C57	C	1.315561	0.166259	0.485418
H58	H	1.364599	0.084395	0.516805
H59	H	1.223196	0.158681	0.431390
C60	C	1.229290	0.325720	0.575389
C61	C	1.289524	0.225177	0.613948
H62	H	1.213223	0.362065	0.654670
H63	H	1.281444	0.363903	0.514981
H64	H	1.152326	0.319391	0.530364
H65	H	1.366493	0.231508	0.658956
H66	H	1.237382	0.186997	0.674366
H67	H	0.850105	0.151501	0.199495
H68	H	1.470042	-0.527221	0.165959
H69	H	0.894613	0.152488	-0.119541
H70	H	1.475298	-0.328517	-0.307576
H71	H	1.099536	0.157014	0.198820
O72	O	1.473932	-0.371513	0.289919
C73	C	1.366714	-0.333636	0.360538
H74	H	1.292055	-0.295761	0.283469
H75	H	1.392798	-0.272597	0.430139
C76	C	1.406911	-0.472398	0.542425
C77	C	1.315209	-0.425887	0.447767
H78	H	1.375142	-0.529301	0.596237
H79	H	1.479149	-0.497915	0.494851
H80	H	1.428639	-0.421522	0.600413
H81	H	1.293494	-0.476759	0.389771
H82	H	1.242966	-0.400381	0.495334
H83	H	1.623509	0.029190	0.633252
H84	H	1.623466	0.029188	0.359482
H85	H	1.470051	-0.527160	-0.283009
H86	H	1.479612	-0.164309	0.244819
