data_functionalizedCrystal
_audit_creation_method	'MofGen! by Chris Wilmer'
_symmetry_space_group_name_H-M	'P1'
_symmetry_Int_Tables_number	1
_symmetry_cell_setting	triclinic
loop_
_symmetry_equiv_pos_as_xyz
  x,y,z
_cell_length_a	18.101398
_cell_length_b	18.101397
_cell_length_c	19.805399
_cell_angle_alpha	89.969268
_cell_angle_beta	89.978734
_cell_angle_gamma	90.015732
loop_
_atom_site_label
_atom_site_type_symbol
_atom_site_fract_x
_atom_site_fract_y
_atom_site_fract_z
Zn1	Zn	1.132153	-0.294930	-0.382791
Zn2	Zn	1.132079	-0.418777	-0.269599
Zn3	Zn	1.008319	-0.294943	-0.269606
Zn4	Zn	1.008286	-0.418724	-0.382737
O5	O	1.070209	-0.356843	-0.326183
O6	O	1.235776	-0.311375	-0.367795
O7	O	1.115644	-0.402377	-0.174883
O8	O	1.024791	-0.191309	-0.284646
O9	O	1.235722	-0.402365	-0.284633
O10	O	1.115771	-0.191299	-0.367802
O11	O	1.024719	-0.311398	-0.174889
O12	O	0.904682	-0.311346	-0.284594
O13	O	1.024735	-0.402275	-0.477461
O14	O	0.904658	-0.402288	-0.367711
O15	O	1.115740	-0.311324	-0.477500
O16	O	1.115613	-0.522402	-0.284581
O17	O	1.024662	-0.522364	-0.367703
C18	C	0.877799	-0.356813	-0.326148
C19	C	0.795485	-0.356818	-0.326149
C20	C	0.496394	-0.356865	-0.326206
C21	C	0.527709	-0.299361	-0.274166
C22	C	0.613328	-0.299515	-0.273944
C23	C	0.644776	-0.356841	-0.326177
C24	C	0.613674	-0.434853	-0.306684
C25	C	0.528029	-0.434533	-0.306323
C26	C	0.528001	-0.337035	-0.397861
C27	C	0.613651	-0.335298	-0.397470
C28	C	0.728636	-0.356832	-0.326163
C29	C	0.412534	-0.356878	-0.326219
C30	C	1.070146	-0.549254	-0.326150
C31	C	1.070187	-0.631568	-0.326159
C32	C	1.070281	-0.930659	-0.326221
C33	C	1.127345	-0.899327	-0.273782
C34	C	1.127543	-0.813709	-0.273918
C35	C	1.070234	-0.782276	-0.326189
C36	C	1.091386	-0.813285	-0.397536
C37	C	1.091828	-0.898930	-0.397250
C38	C	0.991913	-0.899162	-0.307930
C39	C	0.992301	-0.813512	-0.306338
C40	C	1.070207	-0.698417	-0.326176
C41	C	1.070311	-1.014518	-0.326239
C42	C	1.263371	-0.356874	-0.326219
C43	C	1.345685	-0.356887	-0.326234
C44	C	1.070242	-0.356792	-0.502726
C45	C	1.070256	-0.356770	-0.577958
C46	C	1.070293	-0.163681	-0.326231
C47	C	1.070329	-0.081367	-0.326251
C48	C	1.022924	-0.309392	-0.613305
C49	C	1.022934	-0.309378	-0.683993
C50	C	1.070280	-0.356738	-0.719334
C51	C	1.117614	-0.404121	-0.683982
C52	C	1.117600	-0.404139	-0.613295
C53	C	1.117673	-0.404052	-0.969056
C54	C	1.117685	-0.404029	-1.039748
C55	C	1.023007	-0.309291	-1.039754
C56	C	1.022993	-0.309309	-0.969067
C57	C	1.070324	-0.356694	-0.933721
C58	C	1.070311	-0.356710	-0.857073
C59	C	1.070297	-0.356719	-0.795981
C60	C	1.070220	-0.356841	-0.150327
C61	C	1.070349	-0.356654	-0.075096
H62	H	0.634357	-0.241666	-0.286163
H63	H	1.156147	-0.442713	-0.584517
C64	C	0.640970	-0.317229	-0.202215
N65	N	0.661790	-0.330574	-0.148185
C66	C	1.205968	-0.785959	-0.290263
N67	N	1.265042	-0.765058	-0.302575
C68	C	1.169779	-0.456136	-0.930185
N69	N	1.209043	-0.495353	-0.900905
C70	C	1.169217	-0.925848	-0.418172
N71	N	1.227510	-0.946119	-0.433927
C72	C	0.499901	-0.220969	-0.290488
N73	N	0.478951	-0.161922	-0.302782
H74	H	0.508023	-0.451350	-0.253939
H75	H	0.947497	-0.792123	-0.341734
H76	H	0.984466	-0.270710	-1.068540
C77	C	0.498593	-0.316859	-0.202855
N78	N	0.476661	-0.330040	-0.149144
C79	C	0.965920	-0.928415	-0.238860
N80	N	0.946350	-0.950449	-0.186834
C81	C	0.970873	-0.257251	-0.722871
N82	N	0.931661	-0.217985	-0.752154
H83	H	1.185078	-0.920800	-0.285746
H84	H	0.507313	-0.478828	-0.342573
H85	H	0.949397	-0.919424	-0.346123
C86	C	0.498850	-0.261518	-0.421799
N87	N	0.476895	-0.204634	-0.439822
H88	H	0.634044	-0.478845	-0.343401
H89	H	1.114310	-0.792746	-0.221016
C90	C	0.970908	-0.257210	-0.930196
N91	N	0.931673	-0.217971	-0.900919
C92	C	1.169767	-0.456136	-1.078621
N93	N	1.208993	-0.495382	-1.107900
C94	C	0.642605	-0.457963	-0.236677
N95	N	0.664393	-0.475366	-0.183946
H96	H	1.052085	-0.919654	-0.437668
C97	C	0.641110	-0.257737	-0.417324
N98	N	0.661793	-0.199317	-0.432275
H99	H	0.984373	-0.270822	-0.584535
H100	H	0.635061	-0.374128	-0.438321
H101	H	1.051094	-0.792923	-0.437657
C102	C	0.500638	-0.393614	-0.450244
N103	N	0.480024	-0.436231	-0.489694
C104	C	1.109692	-0.927221	-0.202099
N105	N	1.096393	-0.948235	-0.148105
H106	H	1.156160	-0.442686	-0.712762
H107	H	1.148028	-0.791782	-0.413290
C108	C	0.970747	-0.786133	-0.235410
N109	N	0.954513	-0.765503	-0.181988
