data_functionalizedCrystal
_audit_creation_method	'MofGen! by Chris Wilmer'
_symmetry_space_group_name_H-M	'P1'
_symmetry_Int_Tables_number	1
_symmetry_cell_setting	triclinic
loop_
_symmetry_equiv_pos_as_xyz
  x,y,z
_cell_length_a	10.540535
_cell_length_b	10.540510
_cell_length_c	12.503572
_cell_angle_alpha	93.560801
_cell_angle_beta	86.448584
_cell_angle_gamma	84.518476
loop_
_atom_site_label
_atom_site_type_symbol
_atom_site_fract_x
_atom_site_fract_y
_atom_site_fract_z
O1	O	1.693121	0.171603	-0.089255
O2	O	1.323706	0.188464	-0.089270
O3	O	1.516861	-0.004676	-0.089262
O4	O	1.499966	0.364742	-0.089263
O5	O	1.502335	0.009874	0.089379
O6	O	1.309180	0.203013	0.089371
O7	O	1.678595	0.186152	0.089386
Cu8	Cu	1.492561	0.195911	0.105690
Cu9	Cu	1.509740	0.178705	-0.105574
O10	O	1.485440	0.379292	0.089378
C11	C	1.269141	0.194475	0.000049
C12	C	1.128193	0.190695	0.000043
C13	C	1.091537	0.049680	0.000048
C14	C	0.944903	0.045736	0.000464
C15	C	0.910570	0.263360	0.101870
C16	C	1.057329	0.266366	0.101945
C17	C	1.073733	0.251872	-0.101211
C18	C	0.927495	0.245242	-0.102538
C19	C	1.508339	-0.044705	0.000057
C20	C	1.504573	-0.185655	0.000050
C21	C	1.638724	-0.403079	0.000464
C22	C	1.642775	-0.256517	0.000056
C23	C	1.442122	-0.238721	-0.101964
C24	C	1.439089	-0.385488	-0.102044
C25	C	1.419692	-0.368751	0.101105
C26	C	1.426138	-0.222301	0.102448
C27	C	1.733161	0.180141	0.000065
C28	C	1.874109	0.183921	0.000063
C29	C	1.493962	0.419321	0.000057
C30	C	1.497729	0.560270	0.000057
N31	N	1.480488	0.208013	0.254282
N32	N	1.521823	0.166594	-0.254166
C33	C	1.462727	0.225825	0.473396
C34	C	1.539580	0.148785	0.526727
C35	C	1.529698	0.158696	0.648649
C36	C	1.472608	0.215916	0.351463
H37	H	1.139448	-0.010417	-0.072949
H38	H	0.921505	-0.015848	-0.072500
Br39	Br	1.530014	-0.462877	-0.229132
H40	H	1.389515	0.299220	0.519301
H41	H	0.878961	0.345590	-0.109003
H42	H	1.122473	0.201582	-0.178404
Br43	Br	1.154094	-0.029177	0.121553
H44	H	0.905023	0.187331	-0.177856
Br45	Br	1.257127	-0.139686	0.112713
Br46	Br	1.246655	-0.405572	0.102246
H47	H	0.910487	-0.003654	0.073875
H48	H	1.612798	0.075387	0.480817
H49	H	1.079995	0.370096	0.106295
Br50	Br	1.113946	0.196655	0.229274
H51	H	0.862918	0.365411	0.105369
H52	H	0.873489	0.220741	0.177927
H53	H	1.095986	0.355544	-0.102196
Br54	Br	1.725086	-0.197669	0.121958
H55	H	1.336098	-0.408859	-0.106669
H56	H	1.686617	-0.439076	0.073624
Br57	Br	1.737815	-0.485465	-0.120773
H58	H	1.340688	-0.191640	-0.105761
Br59	Br	1.745497	-0.219105	-0.122033
H60	H	1.497426	-0.214048	-0.177878
Br61	Br	1.481916	-0.429103	0.229980
Br62	Br	1.501697	-0.164360	0.228240
