data_functionalizedCrystal
_audit_creation_method	'MofGen! by Chris Wilmer'
_symmetry_space_group_name_H-M	'P1'
_symmetry_Int_Tables_number	1
_symmetry_cell_setting	triclinic
loop_
_symmetry_equiv_pos_as_xyz
  x,y,z
_cell_length_a	9.065215
_cell_length_b	10.268362
_cell_length_c	9.065215
_cell_angle_alpha	90.004315
_cell_angle_beta	94.985269
_cell_angle_gamma	89.996177
loop_
_atom_site_label
_atom_site_type_symbol
_atom_site_fract_x
_atom_site_fract_y
_atom_site_fract_z
O1	O	-1.960402	0.108276	0.216339
O2	O	-1.627068	0.441609	0.549672
O3	O	-1.293735	0.774943	0.883006
O4	O	-1.531116	0.108283	0.234090
O5	O	-1.197783	0.441616	0.567423
O6	O	-0.864449	0.774950	0.900756
O7	O	-1.754634	0.108274	0.010572
O8	O	-1.421301	0.441607	0.343905
O9	O	-1.087968	0.774940	0.677238
O10	O	-1.736883	0.108285	0.439857
O11	O	-1.403550	0.441619	0.773190
O12	O	-1.070217	0.774952	1.106524
O13	O	-1.754615	-0.108327	0.010562
O14	O	-1.421281	0.225006	0.343895
O15	O	-1.087948	0.558340	0.677229
O16	O	-1.531096	-0.108318	0.234080
O17	O	-1.197763	0.225016	0.567413
O18	O	-0.864430	0.558349	0.900747
O19	O	-1.960382	-0.108325	0.216329
O20	O	-1.627048	0.225009	0.549663
O21	O	-1.293715	0.558342	0.882996
Cu22	Cu	-1.745737	-0.128099	0.225204
Cu23	Cu	-1.412404	0.205235	0.558537
Cu24	Cu	-1.079071	0.538568	0.891871
Cu25	Cu	-1.745761	0.128057	0.225215
Cu26	Cu	-1.412427	0.461390	0.558549
Cu27	Cu	-1.079094	0.794723	0.891882
O28	O	-1.736864	-0.108315	0.439848
O29	O	-1.403530	0.225018	0.773181
O30	O	-1.070197	0.558351	1.106514
C31	C	-1.476120	-0.000016	0.232380
C32	C	-1.142786	0.333317	0.565713
C33	C	-0.809453	0.666650	0.899047
C34	C	-1.312277	-0.000014	0.227282
C35	C	-0.978943	0.333320	0.560615
C36	C	-0.645610	0.666653	0.893949
N37	N	-1.745732	-0.308264	0.225195
N38	N	-1.412398	0.025069	0.558529
N39	N	-1.079065	0.358402	0.891862
C40	C	-1.745753	-0.573935	0.225212
C41	C	-1.412420	-0.240602	0.558545
C42	C	-1.079087	0.092732	0.891879
C43	C	-1.745736	-0.426097	0.225207
C44	C	-1.412403	-0.092764	0.558540
C45	C	-1.079070	0.240570	0.891874
C46	C	-1.015378	-0.000022	0.218039
C47	C	-0.682045	0.333312	0.551372
C48	C	-0.348712	0.666645	0.884706
C49	C	-1.179221	-0.000013	0.223137
C50	C	-0.845888	0.333320	0.556470
C51	C	-0.512555	0.666653	0.889803
C52	C	-1.752919	-0.000025	-0.044420
C53	C	-1.419586	0.333308	0.288913
C54	C	-1.086253	0.666641	0.622247
C55	C	-1.747821	-0.000021	-0.208263
C56	C	-1.414488	0.333312	0.125070
C57	C	-1.081155	0.666646	0.458404
N58	N	-1.745778	0.308223	0.225212
N59	N	-1.412445	0.641556	0.558546
N60	N	-1.079111	0.974889	0.891879
C61	C	-1.738578	-0.000014	0.494839
C62	C	-1.405245	0.333320	0.828172
C63	C	-1.071912	0.666653	1.161506
C64	C	-1.743676	-0.000009	0.658682
C65	C	-1.410343	0.333324	0.992015
C66	C	-1.077010	0.666657	1.325349
