data_functionalizedCrystal
_audit_creation_method	'MofGen! by Chris Wilmer'
_symmetry_space_group_name_H-M	'P1'
_symmetry_Int_Tables_number	1
_symmetry_cell_setting	triclinic
loop_
_symmetry_equiv_pos_as_xyz
  x,y,z
_cell_length_a	6.817900
_cell_length_b	16.255699
_cell_length_c	19.453114
_cell_angle_alpha	95.850056
_cell_angle_beta	101.709288
_cell_angle_gamma	103.489404
loop_
_atom_site_label
_atom_site_type_symbol
_atom_site_fract_x
_atom_site_fract_y
_atom_site_fract_z
V1	V	-4.006858	-0.117972	-0.219234
O2	O	-3.994740	0.004762	-0.214821
O3	O	-3.958520	-0.233046	-0.217965
O4	O	-3.949772	-0.116555	-0.314744
O5	O	-4.003549	-0.112535	-0.117372
V6	V	-4.491603	-0.103244	-0.207022
O7	O	-4.265435	-0.150277	-0.246021
O8	O	-4.683223	-0.070938	-0.180235
O9	O	-4.316734	0.011830	-0.208291
O10	O	-4.621117	-0.225978	-0.211435
O11	O	-4.612309	-0.108681	-0.308884
O12	O	-4.325482	-0.104661	-0.111512
C13	C	-3.803817	-0.261086	-0.214566
C14	C	-3.845525	-0.355163	-0.214165
C15	C	-3.792657	-0.112489	-0.338016
C16	C	-3.827267	-0.112092	-0.416098
C17	C	-3.756521	-0.577971	-0.209573
C18	C	-3.845302	-0.625362	-0.152973
C19	C	-3.921988	-0.527414	-0.213465
C20	C	-3.907546	-0.647653	-0.269359
C21	C	-3.995836	-0.693801	-0.212792
C22	C	-4.010195	-0.573557	-0.156822
C23	C	-4.072438	-0.595852	-0.273260
C24	C	-4.161339	-0.643219	-0.216648
C25	C	-3.879440	-0.431563	-0.213852
C26	C	-4.038396	-0.789650	-0.212400
C27	C	-4.025311	-0.116153	-0.456363
C28	C	-4.057832	-0.115781	-0.529729
C29	C	-3.892305	-0.111363	-0.562829
C30	C	-3.694230	-0.107296	-0.522554
C31	C	-3.661712	-0.107661	-0.449188
N32	N	-3.832586	-0.156056	-0.681707
N33	N	-3.863491	-0.155712	-0.751402
C34	C	-3.990271	-0.110263	-0.783875
N35	N	-4.085014	-0.065183	-0.744023
N36	N	-4.054114	-0.065531	-0.674322
C37	C	-3.927546	-0.110967	-0.642381
C38	C	-4.223589	-0.113919	-0.903692
C39	C	-4.256100	-0.113541	-0.977059
C40	C	-3.892497	-0.105065	-0.969883
C41	C	-3.859987	-0.105435	-0.896517
C42	C	-4.025543	-0.109866	-0.863427
C43	C	-4.134779	0.039866	-0.211688
C44	C	-4.072310	0.133942	-0.212093
C45	C	-4.145939	-0.108729	-0.088236
C46	C	-4.090568	-0.109122	-0.010154
H47	H	-3.584971	-0.549455	-0.206513
N48	N	-3.718688	-0.643124	-0.085607
H49	H	-3.749048	-0.706984	-0.085634
H50	H	-3.756044	-0.614959	-0.043129
N51	N	-4.198923	-0.578054	-0.340629
H52	H	-4.294742	-0.542952	-0.328252
H53	H	-4.283647	-0.634038	-0.371165
H54	H	-4.053142	-0.541399	-0.109213
N55	N	-4.388596	-0.680769	-0.220595
H56	H	-4.427411	-0.653448	-0.178080
H57	H	-4.415820	-0.744589	-0.220753
H58	H	-3.757717	-0.101461	-0.996832
N59	N	-3.850573	-0.690377	-0.332346
H60	H	-3.698026	-0.666505	-0.329602
H61	H	-3.934980	-0.679093	-0.377720
H62	H	-4.160122	-0.119758	-0.429425
N63	N	-4.271448	-0.120160	-0.573170
H64	H	-4.371389	-0.123021	-0.541074
H65	H	-4.319562	-0.172929	-0.610688
H66	H	-3.559458	-0.103697	-0.549508
H67	H	-3.500434	-0.104347	-0.416403
H68	H	-4.417371	-0.116842	-1.009841
N69	N	-4.402134	-0.118695	-0.867995
H70	H	-4.532532	-0.121205	-0.904637
H71	H	-4.369838	-0.066299	-0.830785
N72	N	-3.646376	-0.101068	-0.853092
H73	H	-3.651503	-0.153763	-0.829416
H74	H	-3.598168	-0.048265	-0.815607
