data_functionalizedCrystal
_audit_creation_method	'MofGen! by Chris Wilmer'
_symmetry_space_group_name_H-M	'P1'
_symmetry_Int_Tables_number	1
_symmetry_cell_setting	triclinic
loop_
_symmetry_equiv_pos_as_xyz
  x,y,z
_cell_length_a	16.625546
_cell_length_b	16.625548
_cell_length_c	16.625539
_cell_angle_alpha	90.022345
_cell_angle_beta	89.969603
_cell_angle_gamma	89.977673
loop_
_atom_site_label
_atom_site_type_symbol
_atom_site_fract_x
_atom_site_fract_y
_atom_site_fract_z
Zn1	Zn	-0.321003	-1.232680	-0.455936
Zn2	Zn	0.178997	-0.732680	0.044064
Zn3	Zn	-0.455846	-1.232584	-0.321098
Zn4	Zn	0.044154	-0.732584	0.178902
Zn5	Zn	-0.321031	-1.097842	-0.321112
Zn6	Zn	0.178969	-0.597842	0.178888
Zn7	Zn	-0.455797	-1.097813	-0.455884
Zn8	Zn	0.044203	-0.597813	0.044116
O9	O	-0.388419	-1.165230	-0.388507
O10	O	0.111581	-0.665230	0.111493
O11	O	-0.338899	-1.345500	-0.438065
O12	O	0.161101	-0.845500	0.061935
O13	O	-0.437995	-1.214682	-0.208268
O14	O	0.062005	-0.714682	0.291732
O15	O	-0.208195	-1.115782	-0.339024
O16	O	0.291805	-0.615782	0.160976
O17	O	-0.437968	-1.345429	-0.339001
O18	O	0.062032	-0.845429	0.160999
O19	O	-0.208174	-1.214847	-0.438079
O20	O	0.291826	-0.714847	0.061921
O21	O	-0.338947	-1.115688	-0.208278
O22	O	0.161053	-0.615688	0.291722
O23	O	-0.338899	-0.985006	-0.338974
O24	O	0.161101	-0.485006	0.161026
O25	O	-0.437884	-1.115731	-0.568723
O26	O	0.062116	-0.615731	-0.068723
O27	O	-0.437911	-0.984984	-0.437990
O28	O	0.062089	-0.484984	0.062010
O29	O	-0.338852	-1.214818	-0.568761
O30	O	0.161148	-0.714818	-0.068761
O31	O	-0.568672	-1.214653	-0.338950
O32	O	-0.068672	-0.714653	0.161050
O33	O	-0.568636	-1.115637	-0.437977
O34	O	-0.068636	-0.615637	0.062023
C35	C	-0.388404	-0.955739	-0.388478
C36	C	0.111596	-0.455739	0.111522
C37	C	-0.388416	-0.866118	-0.388485
C38	C	0.111584	-0.366118	0.111515
C39	C	-0.388414	-0.537942	-0.388509
C40	C	0.111586	-0.037942	0.111491
C41	C	-0.388413	-0.629251	-0.388500
C42	C	0.111587	-0.129251	0.111500
C43	C	-0.388416	-0.702027	-0.388497
C44	C	0.111584	-0.202027	0.111503
C45	C	-0.388413	-0.793341	-0.388489
C46	C	0.111587	-0.293341	0.111511
C47	C	-0.597910	-1.165153	-0.388474
C48	C	-0.097910	-0.665153	0.111526
C49	C	-0.687531	-1.165195	-0.388486
C50	C	-0.187531	-0.665195	0.111514
C51	C	-1.015707	-1.165335	-0.388570
C52	C	-0.515707	-0.665335	0.111430
C53	C	-0.924399	-1.165294	-0.388549
C54	C	-0.424399	-0.665294	0.111451
C55	C	-0.851622	-1.165264	-0.388528
C56	C	-0.351622	-0.665264	0.111472
C57	C	-0.760308	-1.165224	-0.388508
C58	C	-0.260308	-0.665224	0.111492
C59	C	-0.178111	-1.165328	-0.388559
C60	C	0.321889	-0.665328	0.111441
C61	C	-0.088489	-1.165370	-0.388581
C62	C	0.411511	-0.665370	0.111419
C63	C	-0.388359	-1.165282	-0.598816
C64	C	0.111641	-0.665282	-0.098816
C65	C	-0.388334	-1.165305	-0.688438
C66	C	0.111666	-0.665305	-0.188438
C67	C	-0.388431	-0.375539	-0.388529
C68	C	0.111569	0.124461	0.111471
C69	C	-0.388422	-0.465160	-0.388519
C70	C	0.111578	0.034840	0.111481
C71	C	-0.388243	-1.165342	-1.016614
C72	C	0.111757	-0.665342	-0.516614
C73	C	-0.388271	-1.165329	-0.925305
C74	C	0.111729	-0.665329	-0.425305
C75	C	-0.388289	-1.165324	-0.852529
C76	C	0.111711	-0.665324	-0.352529
C77	C	-0.388316	-1.165310	-0.761214
C78	C	0.111684	-0.665310	-0.261214
C79	C	-0.388421	-1.165224	-0.179017
C80	C	0.111579	-0.665224	0.320983
C81	C	-0.388220	-1.165358	-0.089396
C82	C	0.111780	-0.665358	0.410604
