data_functionalizedCrystal
_audit_creation_method	'MofGen! by Chris Wilmer'
_symmetry_space_group_name_H-M	'P1'
_symmetry_Int_Tables_number	1
_symmetry_cell_setting	triclinic
loop_
_symmetry_equiv_pos_as_xyz
  x,y,z
_cell_length_a	10.723024
_cell_length_b	23.532357
_cell_length_c	9.798715
_cell_angle_alpha	89.991329
_cell_angle_beta	89.996609
_cell_angle_gamma	83.648080
loop_
_atom_site_label
_atom_site_type_symbol
_atom_site_fract_x
_atom_site_fract_y
_atom_site_fract_z
O1	O	1.654668	0.079873	-0.113501
O2	O	1.291274	0.087518	-0.113507
O3	O	1.483962	0.000833	-0.113476
O4	O	1.461980	0.166558	-0.113532
O5	O	1.483947	0.000833	0.113507
O6	O	1.291260	0.087518	0.113475
O7	O	1.654653	0.079872	0.113482
Zn8	Zn	1.472954	0.083695	0.149517
Zn9	Zn	1.472973	0.083695	-0.149542
O10	O	1.461966	0.166557	0.113450
C11	C	1.244785	0.086961	-0.000016
C12	C	1.106283	0.085297	-0.000018
C13	C	1.029770	0.133801	-0.000035
C14	C	0.886621	0.132082	-0.000036
C15	C	1.483405	-0.020387	0.000020
C16	C	1.481752	-0.083617	0.000032
C17	C	1.471382	-0.475695	-0.123769
C18	C	1.469810	-0.535105	-0.123777
O19	O	1.468962	-0.565827	-0.229003
N20	N	1.469023	-0.564821	-0.000051
C21	C	1.469795	-0.535124	0.123691
O22	O	1.468980	-0.565855	0.228929
C23	C	1.471357	-0.475715	0.123698
C24	C	1.472157	-0.446003	-0.000037
C25	C	1.472180	-0.445983	-0.247494
C26	C	1.473753	-0.386577	-0.247485
C27	C	1.474529	-0.356884	-0.123753
C28	C	1.473731	-0.386597	-0.000028
C29	C	1.472120	-0.446019	0.247438
C30	C	1.473682	-0.386606	0.247434
C31	C	1.474481	-0.356893	0.123700
C32	C	1.476080	-0.297499	0.123713
N33	N	1.476867	-0.267783	-0.000014
C34	C	1.476091	-0.297475	-0.123746
C35	C	1.466512	-0.659887	0.123668
C36	C	1.464958	-0.719296	0.123663
C37	C	1.464971	-0.719272	-0.123805
C38	C	1.466534	-0.659863	-0.123799
C39	C	1.467299	-0.630171	-0.000058
C40	C	1.479397	-0.172720	-0.123719
C41	C	1.480976	-0.113309	-0.123700
C42	C	1.480956	-0.113338	0.123768
C43	C	1.479384	-0.172743	0.123750
C44	C	1.478600	-0.202433	-0.000005
O45	O	1.476924	-0.266739	0.228885
O46	O	1.476890	-0.266736	-0.228967
C47	C	1.701143	0.080429	-0.000012
C48	C	1.839644	0.082093	-0.000020
C49	C	1.462523	0.187778	-0.000048
C50	C	1.464176	0.251007	-0.000070
N51	N	1.472951	0.083694	0.353616
N52	N	1.472987	0.083691	-0.353642
C53	C	1.553860	0.047137	0.421406
C54	C	1.553880	0.047135	0.578569
H55	H	0.905379	0.040568	-0.000014
H56	H	1.065811	0.042498	-0.000038
C57	C	1.647465	0.004851	0.657313
C58	C	1.789600	0.006192	0.637721
C59	C	1.883188	-0.036094	0.716467
C60	C	1.834642	-0.079721	0.814807
C61	C	1.692500	-0.081063	0.834404
C62	C	1.598911	-0.038777	0.755657
H63	H	1.825544	0.038488	0.564920
H64	H	1.988412	-0.035100	0.701960
H65	H	1.903922	-0.111023	0.873100
H66	H	1.656556	-0.113359	0.907205
H67	H	1.493688	-0.039771	0.770165
C68	C	1.481849	-0.080626	-0.259816
C69	C	1.589998	-0.094841	-0.361896
C70	C	1.590867	-0.062160	-0.498008
C71	C	1.483587	-0.015265	-0.532039
C72	C	1.375430	-0.001049	-0.429957
C73	C	1.374561	-0.033729	-0.293846
H74	H	1.669420	-0.129557	-0.336706
H75	H	1.670933	-0.072685	-0.573575
H76	H	1.484230	0.008927	-0.632797
H77	H	1.296007	0.033668	-0.455147
H78	H	1.294495	-0.023205	-0.218278
C79	C	1.379398	0.125977	0.567623
C80	C	1.284836	0.103425	0.468561
C81	C	1.191248	0.145711	0.389814
C82	C	1.192221	0.210549	0.410129
C83	C	1.286787	0.233104	0.509196
C84	C	1.380375	0.190819	0.587943
H85	H	1.284113	0.055425	0.453518
H86	H	1.121244	0.129014	0.316478
H87	H	1.122942	0.241851	0.351836
H88	H	1.287511	0.281104	0.524238
H89	H	1.450379	0.207516	0.661278
C90	C	1.478544	-0.205373	-0.259848
C91	C	1.587140	-0.203240	-0.361907
C92	C	1.586297	-0.235894	-0.498034
C93	C	1.476859	-0.270681	-0.532101
C94	C	1.368256	-0.272816	-0.430039
C95	C	1.369098	-0.240162	-0.293912
H96	H	1.668159	-0.177487	-0.336691
H97	H	1.666693	-0.234313	-0.573586
H98	H	1.476235	-0.294853	-0.632870
H99	H	1.287236	-0.298569	-0.455255
H100	H	1.288703	-0.241742	-0.218360
C101	C	1.467402	-0.627181	-0.259907
C102	C	1.575557	-0.641392	-0.361982
C103	C	1.576422	-0.608713	-0.498097
C104	C	1.469133	-0.561824	-0.532136
C105	C	1.360970	-0.547611	-0.430059
C106	C	1.360105	-0.580290	-0.293945
H107	H	1.654986	-0.676104	-0.336786
H108	H	1.656492	-0.619235	-0.573661
H109	H	1.469773	-0.537633	-0.632896
H110	H	1.281541	-0.512899	-0.455255
H111	H	1.280035	-0.569768	-0.218380
H112	H	1.403691	0.114989	0.411929
C113	C	1.464097	-0.751974	0.259777
C114	C	1.354654	-0.786767	0.293821
C115	C	1.353785	-0.819442	0.429940
C116	C	1.462360	-0.817323	0.532017
C117	C	1.571811	-0.782528	0.497976
C118	C	1.572679	-0.749854	0.361856
H119	H	1.274273	-0.788337	0.218255
H120	H	1.272762	-0.845199	0.455139
H121	H	1.461717	-0.841510	0.632781
H122	H	1.652192	-0.780958	0.573541
H123	H	1.653703	-0.724096	0.336657
C124	C	1.647426	0.004855	0.342646
C125	C	1.647159	0.004862	0.185489
C126	C	1.740728	-0.037423	0.106734
C127	C	1.834566	-0.079715	0.185135
C128	C	1.834836	-0.079723	0.342300
C129	C	1.741267	-0.037439	0.421055
H130	H	1.577691	0.036170	0.127444
H131	H	1.740527	-0.037416	-0.009610
H132	H	1.903832	-0.111016	0.126835
H133	H	1.904304	-0.111031	0.400345
H134	H	1.741468	-0.037445	0.537399
H135	H	0.820879	0.173605	-0.000057
C136	C	1.084436	0.191623	-0.000063
C137	C	1.169682	0.206899	0.117791
C138	C	1.224345	0.264722	0.117758
C139	C	1.193762	0.307269	-0.000130
C140	C	1.108512	0.291993	-0.117993
C141	C	1.053848	0.234170	-0.117960
H142	H	1.192325	0.175403	0.205066
H143	H	1.287454	0.276030	0.205009
H144	H	1.234228	0.350073	-0.000154
H145	H	1.085868	0.323490	-0.205268
H146	H	0.990740	0.222863	-0.205211
H147	H	1.464336	-0.743458	-0.224556
H148	H	1.471544	-0.470152	-0.348257
H149	H	1.474400	-0.362390	-0.348243
H150	H	1.467138	-0.635716	0.224440
H151	H	1.471471	-0.470201	0.348196
H152	H	1.474286	-0.362432	0.348202
H153	H	1.478745	-0.196937	0.224504
H154	H	1.481594	-0.089152	0.224508
