data_functionalizedCrystal
_audit_creation_method	'MofGen! by Chris Wilmer'
_symmetry_space_group_name_H-M	'P1'
_symmetry_Int_Tables_number	1
_symmetry_cell_setting	triclinic
loop_
_symmetry_equiv_pos_as_xyz
  x,y,z
_cell_length_a	19.805407
_cell_length_b	19.120786
_cell_length_c	19.805399
_cell_angle_alpha	92.468930
_cell_angle_beta	90.019573
_cell_angle_gamma	92.465080
loop_
_atom_site_label
_atom_site_type_symbol
_atom_site_fract_x
_atom_site_fract_y
_atom_site_fract_z
Zn1	Zn	1.023244	-0.279646	0.371215
Zn2	Zn	1.356577	0.053687	0.704549
Zn3	Zn	1.689911	0.387020	1.037882
Zn4	Zn	1.018332	-0.397105	0.253195
Zn5	Zn	1.351665	-0.063772	0.586528
Zn6	Zn	1.684999	0.269561	0.919862
Zn7	Zn	0.910058	-0.279666	0.258039
Zn8	Zn	1.243391	0.053668	0.591372
Zn9	Zn	1.576725	0.387001	0.924706
Zn10	Zn	0.905197	-0.397068	0.366343
Zn11	Zn	1.238530	-0.063735	0.699677
Zn12	Zn	1.571864	0.269599	1.033010
O13	O	0.964208	-0.338371	0.312198
O14	O	1.297541	-0.005038	0.645532
O15	O	1.630874	0.328295	0.978865
O16	O	1.117309	-0.295235	0.355571
O17	O	1.450642	0.038098	0.688905
O18	O	1.783975	0.371432	1.022238
O19	O	1.003948	-0.381550	0.159120
O20	O	1.337281	-0.048217	0.492453
O21	O	1.670615	0.285116	0.825787
O22	O	0.929162	-0.181373	0.277118
O23	O	1.262496	0.151961	0.610452
O24	O	1.595829	0.485294	0.943785
O25	O	1.113700	-0.381532	0.268862
O26	O	1.447033	-0.048198	0.602196
O27	O	1.780367	0.285135	0.935529
O28	O	1.012320	-0.181359	0.360269
O29	O	1.345653	0.151975	0.693602
O30	O	1.678986	0.485308	1.026935
O31	O	0.924399	-0.295268	0.162679
O32	O	1.257733	0.038065	0.496012
O33	O	1.591066	0.371399	0.829346
O34	O	0.814697	-0.295232	0.272394
O35	O	1.148030	0.038102	0.605728
O36	O	1.481363	0.371435	0.939061
O37	O	0.920877	-0.381468	0.461707
O38	O	1.254211	-0.048135	0.795040
O39	O	1.587544	0.285199	1.128374
O40	O	0.811125	-0.381487	0.351965
O41	O	1.144459	-0.048153	0.685298
O42	O	1.477792	0.285180	1.018631
O43	O	1.007606	-0.295199	0.465287
O44	O	1.340939	0.038135	0.798620
O45	O	1.674273	0.371468	1.131953
O46	O	0.999234	-0.495390	0.264138
O47	O	1.332568	-0.162057	0.597471
O48	O	1.665901	0.171276	0.930805
O49	O	0.916114	-0.495363	0.347268
O50	O	1.249448	-0.162030	0.680601
O51	O	1.582781	0.171304	1.013934
C52	C	0.788352	-0.338358	0.312177
C53	C	1.121686	-0.005024	0.645510
C54	C	1.455019	0.328309	0.978844
C55	C	0.713120	-0.338369	0.312183
C56	C	1.046453	-0.005036	0.645516
C57	C	1.379786	0.328298	0.978850
C58	C	0.675931	-0.383350	0.353543
C59	C	1.009264	-0.050016	0.686876
C60	C	1.342598	0.283317	1.020209
C61	C	0.605242	-0.383351	0.353552
C62	C	0.938576	-0.050017	0.686885
C63	C	1.271909	0.283316	1.020219
C64	C	0.571744	-0.338374	0.312198
C65	C	0.905077	-0.005041	0.645531
C66	C	1.238411	0.328292	0.978865
C67	C	0.608938	-0.293389	0.270837
C68	C	0.942271	0.039944	0.604170
C69	C	1.275605	0.373278	0.937503
C70	C	0.679625	-0.293385	0.270831
C71	C	1.012959	0.039949	0.604165
C72	C	1.346292	0.373282	0.937498
C73	C	0.323864	-0.293404	0.270859
C74	C	0.657197	0.039929	0.604192
C75	C	0.990531	0.373262	0.937525
C76	C	0.253172	-0.293414	0.270866
C77	C	0.586505	0.039920	0.604199
C78	C	0.919838	0.373253	0.937532
C79	C	0.249481	-0.383371	0.353579
C80	C	0.582815	-0.050037	0.686913
C81	C	0.916148	0.283296	1.020246
C82	C	0.320169	-0.383366	0.353574
C83	C	0.653502	-0.050033	0.686907
C84	C	0.986835	0.283300	1.020241
C85	C	0.357356	-0.338378	0.312216
C86	C	0.690690	-0.005045	0.645549
C87	C	1.024023	0.328288	0.978882
C88	C	0.434005	-0.338377	0.312207
C89	C	0.767338	-0.005043	0.645540
C90	C	1.100672	0.328290	0.978873
C91	C	0.495097	-0.338379	0.312203
C92	C	0.828430	-0.005046	0.645536
C93	C	1.161763	0.328287	0.978870
C94	C	0.956632	-0.520862	0.304663
C95	C	1.289966	-0.187529	0.637997
C96	C	1.623299	0.145804	0.971330
C97	C	0.953453	-0.598933	0.301462
C98	C	1.286787	-0.265599	0.634796
C99	C	1.620120	0.067734	0.968129
C100	C	0.995223	-0.635543	0.343286
C101	C	1.328557	-0.302209	0.676619
C102	C	1.661890	0.031124	1.009952
C103	C	0.992234	-0.708898	0.340279
C104	C	1.325567	-0.375565	0.673613
C105	C	1.658900	-0.042231	1.006946
C106	C	0.947477	-0.745642	0.295446
C107	C	1.280811	-0.412309	0.628779
C108	C	1.614144	-0.078976	0.962113
C109	C	0.905703	-0.709027	0.253621
C110	C	1.239036	-0.375694	0.586954
C111	C	1.572369	-0.042361	0.920288
C112	C	0.908689	-0.635673	0.256631
C113	C	1.242023	-0.302340	0.589965
C114	C	1.575356	0.030993	0.923298
C115	C	0.936292	-0.967128	0.284192
C116	C	1.269625	-0.633795	0.617526
C117	C	1.602959	-0.300461	0.950859
C118	C	0.933310	-1.040487	0.281184
C119	C	1.266643	-0.707154	0.614517
C120	C	1.599976	-0.373821	0.947851
C121	C	1.019840	-1.040353	0.367844
C122	C	1.353174	-0.707019	0.701177
C123	C	1.686507	-0.373686	1.034510
C124	C	1.022826	-0.966997	0.370847
C125	C	1.356159	-0.633664	0.704180
C126	C	1.689493	-0.300331	1.037514
C127	C	0.981049	-0.930389	0.329025
C128	C	1.314382	-0.597055	0.662358
C129	C	1.647716	-0.263722	0.995691
C130	C	0.944422	-0.820624	0.292370
C131	C	1.277755	-0.487290	0.625704
C132	C	1.611088	-0.153957	0.959037
C133	C	0.984101	-0.855409	0.332104
C134	C	1.317435	-0.522076	0.665437
C135	C	1.650768	-0.188742	0.998771
C136	C	1.140750	-0.338385	0.312220
C137	C	1.474083	-0.005052	0.645553
C138	C	1.807416	0.328281	0.978887
C139	C	1.215982	-0.338391	0.312229
C140	C	1.549315	-0.005058	0.645563
C141	C	1.882648	0.328275	0.978896
C142	C	0.964247	-0.338327	0.488743
C143	C	1.297581	-0.004994	0.822076
C144	C	1.630914	0.328340	1.155409
C145	C	0.964264	-0.338308	0.563976
C146	C	1.297598	-0.004975	0.897309
C147	C	1.630931	0.328359	1.230642
C148	C	0.971831	-0.155168	0.319777
C149	C	1.305164	0.178166	0.653111
C150	C	1.638498	0.511499	0.986444
C151	C	0.975080	-0.077097	0.323007
C152	C	1.308413	0.256236	0.656340
C153	C	1.641746	0.589570	0.989674
C154	C	0.964209	-0.338365	0.136342
C155	C	1.297542	-0.005031	0.469676
C156	C	1.630876	0.328302	0.803009
C157	C	0.964331	-0.338186	0.061118
C158	C	1.297665	-0.004852	0.394452
C159	C	1.630998	0.328481	0.727785
C160	C	1.009425	-0.293386	0.601185
C161	C	1.342758	0.039948	0.934518
C162	C	1.676092	0.373281	1.267851
C163	C	1.009433	-0.293365	0.671874
C164	C	1.342766	0.039968	1.005207
C165	C	1.676100	0.373301	1.338541
C166	C	0.964283	-0.338271	0.705353
C167	C	1.297616	-0.004938	1.038686
C168	C	1.630949	0.328395	1.372019
C169	C	0.919117	-0.383196	0.668139
C170	C	1.252451	-0.049863	1.001472
C171	C	1.585784	0.283471	1.334805
C172	C	0.919107	-0.383212	0.597451
C173	C	1.252440	-0.049879	0.930784
C174	C	1.585773	0.283454	1.264117
C175	C	0.919158	-0.383131	0.953215
C176	C	1.252491	-0.049797	1.286548
C177	C	1.585825	0.283536	1.619881
C178	C	0.919173	-0.383112	1.023908
C179	C	1.252507	-0.049779	1.357241
C180	C	1.585840	0.283554	1.690574
C181	C	1.009484	-0.293283	1.027638
C182	C	1.342818	0.040050	1.360971
C183	C	1.676151	0.373383	1.694305
C184	C	1.009474	-0.293300	0.956950
C185	C	1.342807	0.040034	1.290284
C186	C	1.676140	0.373367	1.623617
C187	C	0.964306	-0.338221	0.919742
C188	C	1.297640	-0.004888	1.253076
C189	C	1.630973	0.328445	1.586409
C190	C	0.964297	-0.338242	0.843093
C191	C	1.297631	-0.004909	1.176426
C192	C	1.630964	0.328425	1.509760
C193	C	0.964294	-0.338255	0.782001
C194	C	1.297628	-0.004922	1.115334
C195	C	1.630961	0.328412	1.448667
H196	H	0.354134	-0.256778	0.237177
H197	H	0.687467	0.076555	0.570510
H198	H	1.020800	0.409889	0.903843
H199	H	0.907983	-0.850549	0.255865
H200	H	1.241316	-0.517216	0.589198
H201	H	1.574649	-0.183882	0.922532
O202	O	0.217042	-0.244907	0.226251
O203	O	0.550375	0.088427	0.559584
O204	O	0.883709	0.421760	0.892918
H205	H	0.161641	-0.252480	0.233195
H206	H	0.494974	0.080854	0.566528
H207	H	0.828307	0.414187	0.899862
H208	H	0.219194	-0.419999	0.387258
H209	H	0.552528	-0.086666	0.720591
H210	H	0.885861	0.246667	1.053925
H211	H	0.882389	-0.419719	0.922928
H212	H	1.215723	-0.086385	1.256261
H213	H	1.549056	0.246948	1.589595
O214	O	0.891244	-0.927654	0.239070
O215	O	1.224578	-0.594321	0.572404
O216	O	1.557911	-0.260987	0.905737
H217	H	0.837540	-0.941781	0.250039
H218	H	1.170873	-0.608448	0.583372
H219	H	1.504207	-0.275114	0.916706
H220	H	0.703200	-0.419977	0.387216
H221	H	1.036533	-0.086644	0.720549
H222	H	1.369867	0.246690	1.053882
H223	H	0.882353	-0.419757	0.695403
H224	H	1.215686	-0.086424	1.028736
H225	H	1.549019	0.246910	1.362069
O226	O	1.058149	-0.244917	0.712005
O227	O	1.391482	0.088416	1.045338
O228	O	1.724815	0.421749	1.378672
H229	H	1.029351	-0.209163	0.745678
H230	H	1.362684	0.124170	1.079012
H231	H	1.696018	0.457504	1.412345
O232	O	0.565135	-0.431868	0.398163
O233	O	0.898468	-0.098534	0.731496
O234	O	1.231801	0.234799	1.064830
H235	H	0.510354	-0.424310	0.391228
H236	H	0.843687	-0.090976	0.724561
H237	H	1.177020	0.242357	1.057895
O238	O	0.719733	-0.244871	0.226215
O239	O	1.053066	0.088462	0.559549
O240	O	1.386400	0.421796	0.892882
H241	H	0.753427	-0.209169	0.258036
H242	H	1.086760	0.124165	0.591369
H243	H	1.420093	0.457498	0.924703
O244	O	0.870390	-0.431655	0.557313
O245	O	1.203723	-0.098321	0.890646
O246	O	1.537056	0.235012	1.223979
H247	H	0.838995	-0.462879	0.592467
H248	H	1.172329	-0.129546	0.925800
H249	H	1.505662	0.203788	1.259133
O250	O	1.058183	-0.244815	1.067778
O251	O	1.391517	0.088518	1.401112
O252	O	1.724850	0.421852	1.734445
H253	H	1.091312	-0.276239	1.098702
H254	H	1.424645	0.057094	1.432036
H255	H	1.757979	0.390428	1.765369
H256	H	0.347439	-0.419993	0.387246
H257	H	0.680773	-0.086660	0.720580
H258	H	1.014106	0.246674	1.053913
O259	O	1.043503	-0.595912	0.391636
O260	O	1.376836	-0.262578	0.724969
O261	O	1.710169	0.070755	1.058303
H262	H	1.072043	-0.633696	0.420215
H263	H	1.405376	-0.300363	0.753548
H264	H	1.738709	0.032971	1.086882
O265	O	1.037286	-0.748387	0.385387
O266	O	1.370619	-0.415054	0.718721
O267	O	1.703952	-0.081721	1.052054
H268	H	1.068915	-0.710513	0.417062
H269	H	1.402249	-0.377180	0.750395
H270	H	1.735582	-0.043846	1.083729
H271	H	0.581658	-0.256765	0.237169
H272	H	0.914991	0.076568	0.570502
H273	H	1.248325	0.409901	0.903835
O274	O	1.064895	-1.079836	0.412954
O275	O	1.398228	-0.746503	0.746287
O276	O	1.731561	-0.413170	1.079621
H277	H	1.053829	-1.065727	0.466642
H278	H	1.387162	-0.732394	0.799975
H279	H	1.720495	-0.399060	1.133309
O280	O	1.032381	-0.815784	0.380454
O281	O	1.365714	-0.482450	0.713787
O282	O	1.699048	-0.149117	1.047120
H283	H	1.003433	-0.782363	0.416232
H284	H	1.336766	-0.449029	0.749565
H285	H	1.670100	-0.115696	1.082899
O286	O	1.071121	-0.927365	0.419181
O287	O	1.404454	-0.594032	0.752514
O288	O	1.737787	-0.260698	1.085848
H289	H	1.099670	-0.965147	0.447754
H290	H	1.433003	-0.631813	0.781087
H291	H	1.766336	-0.298480	1.114421
O292	O	0.885038	-1.080130	0.232828
O293	O	1.218371	-0.746796	0.566161
O294	O	1.551704	-0.413463	0.899494
H295	H	0.832477	-1.066107	0.244966
H296	H	1.165810	-0.732773	0.578299
H297	H	1.499143	-0.399440	0.911633
O298	O	0.857437	-0.748653	0.205254
O299	O	1.190770	-0.415320	0.538587
O300	O	1.524103	-0.081987	0.871921
H301	H	0.862384	-0.805812	0.210178
H302	H	1.195718	-0.472479	0.543511
H303	H	1.529051	-0.139146	0.876845
H304	H	0.874675	-0.605866	0.222575
H305	H	1.208008	-0.272533	0.555909
H306	H	1.541342	0.060800	0.889242
O307	O	1.058123	-0.244951	0.565076
O308	O	1.391456	0.088383	0.898409
O309	O	1.724790	0.421716	1.231743
H310	H	1.089523	-0.213705	0.602829
H311	H	1.422856	0.119628	0.936163
H312	H	1.756189	0.452961	1.269496
O313	O	1.058171	-0.244867	0.920839
O314	O	1.391505	0.088467	1.254172
O315	O	1.724838	0.421800	1.587506
H316	H	1.089573	-0.213621	0.958590
H317	H	1.422907	0.119713	1.291923
H318	H	1.756240	0.453046	1.625256
O319	O	0.870467	-0.431541	1.060022
O320	O	1.203800	-0.098208	1.393355
O321	O	1.537133	0.235126	1.726688
H322	H	0.839051	-0.462775	1.022274
H323	H	1.172384	-0.129441	1.355607
H324	H	1.505717	0.203892	1.688940
