data_functionalizedCrystal
_audit_creation_method	'MofGen! by Chris Wilmer'
_symmetry_space_group_name_H-M	'P1'
_symmetry_Int_Tables_number	1
_symmetry_cell_setting	triclinic
loop_
_symmetry_equiv_pos_as_xyz
  x,y,z
_cell_length_a	15.944499
_cell_length_b	15.995350
_cell_length_c	14.472310
_cell_angle_alpha	89.998838
_cell_angle_beta	89.991446
_cell_angle_gamma	96.515008
loop_
_atom_site_label
_atom_site_type_symbol
_atom_site_fract_x
_atom_site_fract_y
_atom_site_fract_z
O1	O	1.114556	-0.107777	-0.076740
O2	O	1.447890	0.225557	0.256593
O3	O	1.781223	0.558890	0.589926
O4	O	0.870000	-0.121136	-0.076763
O5	O	1.203333	0.212197	0.256571
O6	O	1.536667	0.545531	0.589904
O7	O	0.998963	0.007432	-0.076750
O8	O	1.332296	0.340765	0.256583
O9	O	1.665630	0.674099	0.589917
O10	O	0.985593	-0.236345	-0.076753
O11	O	1.318926	0.096988	0.256580
O12	O	1.652260	0.430322	0.589914
O13	O	0.998930	0.007425	0.076932
O14	O	1.332263	0.340758	0.410265
O15	O	1.665597	0.674091	0.743599
O16	O	0.869967	-0.121143	0.076919
O17	O	1.203300	0.212190	0.410253
O18	O	1.536633	0.545523	0.743586
O19	O	1.114523	-0.107784	0.076942
O20	O	1.447856	0.225549	0.410275
O21	O	1.781190	0.558882	0.743608
Cu22	Cu	0.992242	-0.114464	0.090963
Cu23	Cu	1.325575	0.218869	0.424296
Cu24	Cu	1.658908	0.552202	0.757630
Cu25	Cu	0.992281	-0.114456	-0.090784
Cu26	Cu	1.325614	0.218878	0.242549
Cu27	Cu	1.658948	0.552211	0.575883
O28	O	0.985560	-0.236352	0.076929
O29	O	1.318893	0.096981	0.410262
O30	O	1.652226	0.430314	0.743596
C31	C	0.838689	-0.120593	0.000075
C32	C	1.172022	0.212741	0.333409
C33	C	1.505355	0.546074	0.666742
C34	C	0.745440	-0.118953	0.000067
C35	C	1.078774	0.214380	0.333400
C36	C	1.412107	0.547714	0.666733
C37	C	0.998394	0.038623	0.000089
C38	C	1.331727	0.371956	0.333422
C39	C	1.665060	0.705290	0.666756
C40	C	0.996737	0.131573	0.000084
C41	C	1.330070	0.464907	0.333417
C42	C	1.663403	0.798240	0.666750
C43	C	1.145834	-0.108327	0.000102
C44	C	1.479168	0.225006	0.333435
C45	C	1.812501	0.558339	0.666768
C46	C	1.239082	-0.109967	0.000104
C47	C	1.572416	0.223366	0.333437
C48	C	1.905749	0.556699	0.666771
C49	C	1.530623	-0.035272	0.000087
C50	C	1.863956	0.298061	0.333421
C51	C	2.197289	0.631394	0.666754
C52	C	1.469604	-0.074097	-0.075687
C53	C	1.802937	0.259236	0.257646
C54	C	2.136271	0.592570	0.590979
C55	C	1.574719	-0.115924	0.000078
C56	C	1.908052	0.217409	0.333411
C57	C	2.241385	0.550742	0.666744
C58	C	1.469593	-0.074126	0.075831
C59	C	1.802926	0.259207	0.409164
C60	C	2.136260	0.592541	0.742498
C61	C	1.409810	-0.112993	0.000092
C62	C	1.743143	0.220340	0.333426
C63	C	2.076477	0.553674	0.666759
C64	C	1.514928	-0.154771	-0.075760
C65	C	1.848261	0.178562	0.257574
C66	C	2.181595	0.511895	0.590907
C67	C	1.514923	-0.154789	0.075827
C68	C	1.848257	0.178544	0.409160
C69	C	2.181590	0.511878	0.742494
C70	C	1.453922	-0.193672	0.000034
C71	C	1.787255	0.139661	0.333367
C72	C	2.120589	0.472994	0.666700
C73	C	1.669719	-0.117611	0.000068
C74	C	2.003052	0.215723	0.333402
C75	C	2.336385	0.549056	0.666735
C76	C	1.314811	-0.111313	0.000095
C77	C	1.648145	0.222020	0.333428
C78	C	1.981478	0.555354	0.666761
C79	C	0.986129	-0.267543	0.000088
C80	C	1.319462	0.065790	0.333421
C81	C	1.652796	0.399123	0.666754
C82	C	0.987786	-0.360493	0.000087
C83	C	1.321120	-0.027160	0.333420
C84	C	1.654453	0.306173	0.666754
N85	N	0.992220	-0.114470	0.218794
N86	N	1.325554	0.218863	0.552127
N87	N	1.658887	0.552196	0.885460
C88	C	0.990785	0.469320	0.000086
C89	C	1.324119	0.802653	0.333420
C90	C	1.657452	1.135987	0.666753
C91	C	0.898940	0.421874	-0.000267
C92	C	1.232274	0.755207	0.333067
C93	C	1.565607	1.088541	0.666400
C94	C	0.900598	0.325184	0.000080
C95	C	1.233931	0.658517	0.333413
C96	C	1.567264	0.991851	0.666746
C97	C	0.993737	0.301760	0.000085
C98	C	1.327071	0.635093	0.333418
C99	C	1.660404	0.968426	0.666751
C100	C	1.039020	0.342839	0.087847
C101	C	1.372353	0.676172	0.421180
C102	C	1.705686	1.009506	0.754514
C103	C	1.036713	0.439474	0.087920
C104	C	1.370046	0.772808	0.421254
C105	C	1.703379	1.106141	0.754587
C106	C	1.038648	0.439841	-0.086845
C107	C	1.371981	0.773174	0.246489
C108	C	1.705314	1.106508	0.579822
C109	C	1.038626	0.342896	-0.088005
C110	C	1.371959	0.676229	0.245329
C111	C	1.705293	1.009563	0.578662
C112	C	0.995411	0.207063	0.000087
C113	C	1.328744	0.540396	0.333420
C114	C	1.662077	0.873729	0.666753
C115	C	0.989115	0.564018	0.000090
C116	C	1.322448	0.897351	0.333424
C117	C	1.655782	1.230684	0.666757
N118	N	0.992309	-0.114443	-0.218615
N119	N	1.325643	0.218890	0.114719
N120	N	1.658976	0.552223	0.448052
C121	C	0.992280	-0.114452	0.592885
C122	C	1.325613	0.218881	0.926218
C123	C	1.658947	0.552214	1.259552
C124	C	0.923043	-0.183016	0.553712
C125	C	1.256376	0.150318	0.887046
C126	C	1.589709	0.483651	1.220379
C127	C	0.923202	-0.183266	0.446624
C128	C	1.256536	0.150067	0.779958
C129	C	1.589869	0.483401	1.113291
C130	C	0.992250	-0.114461	0.407294
C131	C	1.325583	0.218872	0.740627
C132	C	1.658916	0.552205	1.073961
C133	C	1.079894	-0.133532	0.446139
C134	C	1.413227	0.199802	0.779472
C135	C	1.746561	0.533135	1.112806
C136	C	1.079505	-0.134019	0.553260
C137	C	1.412838	0.199314	0.886594
C138	C	1.746172	0.532648	1.219927
C139	C	0.974654	-0.026615	0.553413
C140	C	1.307988	0.306718	0.886747
C141	C	1.641321	0.640052	1.220080
C142	C	0.972644	-0.027201	0.446286
C143	C	1.305978	0.306132	0.779619
C144	C	1.639311	0.639466	1.112952
C145	C	0.992238	-0.114465	0.302406
C146	C	1.325571	0.218869	0.635739
C147	C	1.658905	0.552202	0.969072
C148	C	0.992297	-0.114451	0.697773
C149	C	1.325631	0.218883	1.031106
C150	C	1.658964	0.552216	1.364440
H151	H	1.563983	0.031650	-0.000004
H152	H	1.897316	0.364983	0.333329
H153	H	2.230650	0.698316	0.666663
H154	H	0.857684	-0.171842	0.579494
H155	H	1.191017	0.161491	0.912828
H156	H	1.524351	0.494824	1.246161
H157	H	1.132647	-0.084921	0.420661
H158	H	1.465980	0.248412	0.753994
H159	H	1.799313	0.581745	1.087327
H160	H	1.019798	0.026210	0.419516
H161	H	1.353131	0.359544	0.752850
H162	H	1.686465	0.692877	1.086183
F163	F	1.099805	-0.217748	0.585909
F164	F	1.433139	0.115585	0.919243
F165	F	1.766472	0.448918	1.252576
H166	H	0.934143	-0.247832	0.580622
H167	H	1.267476	0.085502	0.913956
H168	H	1.600809	0.418835	1.247289
H169	H	1.005519	0.315646	-0.152929
H170	H	1.338852	0.648979	0.180405
H171	H	1.672186	0.982313	0.513738
F172	F	1.443357	-0.029506	-0.159420
F173	F	1.776690	0.303827	0.173913
F174	F	2.110024	0.637160	0.507246
H175	H	1.534915	-0.188854	-0.139891
H176	H	1.868248	0.144479	0.193442
H177	H	2.201582	0.477813	0.526776
H178	H	1.132636	-0.086049	0.579172
H179	H	1.465969	0.247284	0.912505
H180	H	1.799302	0.580618	1.245838
H181	H	1.095797	-0.196860	0.419303
H182	H	1.429131	0.136473	0.752636
H183	H	1.762464	0.469807	1.085969
H184	H	1.106549	0.327543	-0.093300
H185	H	1.439882	0.660876	0.240033
H186	H	1.773215	0.994210	0.573367
H187	H	1.106365	0.471611	-0.087431
H188	H	1.439698	0.804944	0.245902
H189	H	1.773031	1.138277	0.579236
H190	H	1.420736	-0.260663	-0.000011
H191	H	1.754069	0.072670	0.333322
H192	H	2.087402	0.406003	0.666656
H193	H	1.535026	-0.188878	0.139890
H194	H	1.868359	0.144455	0.473223
H195	H	2.201693	0.477789	0.806556
H196	H	0.864735	0.297312	0.063092
H197	H	1.198068	0.630645	0.396426
H198	H	1.531401	0.963978	0.729759
F199	F	1.443341	-0.029527	0.159563
F200	F	1.776674	0.303807	0.492896
F201	F	2.110008	0.637140	0.826229
F202	F	0.854071	0.288030	-0.082150
F203	F	1.187404	0.621363	0.251183
F204	F	1.520737	0.954696	0.584516
F205	F	0.892918	-0.002655	0.588759
F206	F	1.226252	0.330678	0.922092
F207	F	1.559585	0.664011	1.255425
F208	F	0.851030	0.447756	0.081304
F209	F	1.184363	0.781089	0.414638
F210	F	1.517696	1.114423	0.747971
H211	H	0.862244	0.440404	-0.063203
H212	H	1.195577	0.773737	0.270130
H213	H	1.528911	1.107071	0.603464
F214	F	0.888374	-0.008282	0.413104
F215	F	1.221707	0.325052	0.746437
F216	F	1.555041	0.658385	1.079770
H217	H	1.003665	0.457768	0.153521
H218	H	1.336998	0.791102	0.486854
H219	H	1.670331	1.124435	0.820187
H220	H	1.107446	0.328722	0.091114
H221	H	1.440780	0.662055	0.424448
H222	H	1.774113	0.995389	0.757781
H223	H	1.025146	0.024408	0.578745
H224	H	1.358479	0.357741	0.912078
H225	H	1.691813	0.691074	1.245411
F226	F	1.124847	0.481639	0.093139
F227	F	1.458180	0.814972	0.426472
F228	F	1.791513	1.148305	0.759806
H229	H	1.007542	0.314450	0.153153
H230	H	1.340875	0.647784	0.486487
H231	H	1.674208	0.981117	0.819820
H232	H	0.858055	-0.171905	0.420362
H233	H	1.191388	0.161428	0.753696
H234	H	1.524721	0.494761	1.087029
H235	H	1.008633	0.460380	-0.153363
H236	H	1.341967	0.793714	0.179970
H237	H	1.675300	1.127047	0.513304
H238	H	0.934458	-0.248449	0.420991
H239	H	1.267791	0.084885	0.754324
H240	H	1.601125	0.418218	1.087657
