data_functionalizedCrystal
_audit_creation_method	'MofGen! by Chris Wilmer'
_symmetry_space_group_name_H-M	'P1'
_symmetry_Int_Tables_number	1
_symmetry_cell_setting	triclinic
loop_
_symmetry_equiv_pos_as_xyz
  x,y,z
_cell_length_a	13.033291
_cell_length_b	13.032721
_cell_length_c	21.395355
_cell_angle_alpha	97.165964
_cell_angle_beta	82.784784
_cell_angle_gamma	105.184202
loop_
_atom_site_label
_atom_site_type_symbol
_atom_site_fract_x
_atom_site_fract_y
_atom_site_fract_z
Zn1	Zn	1.570253	-0.216985	-0.490558
Zn2	Zn	1.547563	-0.394598	-0.397575
Zn3	Zn	1.392606	-0.239520	-0.373960
Zn4	Zn	1.370032	-0.417091	-0.490486
O5	O	1.470114	-0.317048	-0.438145
O6	O	1.715886	-0.221701	-0.488136
O7	O	1.526959	-0.374044	-0.306762
O8	O	1.435115	-0.087885	-0.379575
O9	O	1.699216	-0.352193	-0.419822
O10	O	1.565632	-0.071328	-0.465239
O11	O	1.413113	-0.260109	-0.289413
O12	O	1.240969	-0.281919	-0.379505
O13	O	1.396641	-0.390529	-0.578176
O14	O	1.224384	-0.412380	-0.465116
O15	O	1.543742	-0.243512	-0.578229
O16	O	1.505069	-0.546227	-0.419752
O17	O	1.374638	-0.562753	-0.488014
C18	C	1.194135	-0.352036	-0.419741
C19	C	1.076067	-0.367030	-0.411884
C20	C	0.909638	-0.324736	-0.434131
C21	C	1.031667	-0.309242	-0.442251
C22	C	1.434971	-0.593029	-0.456453
C23	C	1.420034	-0.711082	-0.464313
C24	C	1.477966	-0.755495	-0.434075
C25	C	1.462529	-0.877509	-0.442197
C26	C	1.747170	-0.281924	-0.456621
C27	C	1.865235	-0.266956	-0.464495
C28	C	1.470205	-0.317016	-0.601573
C29	C	1.470243	-0.317002	-0.671216
C30	C	1.505423	-0.039986	-0.419781
C31	C	1.520469	0.078081	-0.411955
C32	C	1.546837	-0.240447	-0.703957
C33	C	1.546841	-0.240402	-0.769389
C34	C	1.470261	-0.316928	-0.802080
C35	C	1.393654	-0.393489	-0.769330
C36	C	1.393645	-0.393526	-0.703898
C37	C	1.449694	-0.413635	-0.911541
C38	C	1.449710	-0.413599	-0.976972
C39	C	1.470282	-0.316815	-1.003894
C40	C	1.490860	-0.220061	-0.965377
C41	C	1.490851	-0.220098	-0.899945
C42	C	1.470261	-0.316896	-0.873030
C43	C	1.546884	-0.240205	-1.107584
C44	C	1.546881	-0.240159	-1.173017
C45	C	1.393698	-0.393255	-1.172957
C46	C	1.393697	-0.393292	-1.107525
C47	C	1.470295	-0.316768	-1.074842
C48	C	1.470094	-0.316996	-0.275352
C49	C	1.470299	-0.316685	-0.205703
H50	H	1.023744	-0.427974	-0.379875
H51	H	1.507603	-0.141317	-0.868587
H52	H	1.581504	-0.869617	-0.380054
H53	H	1.609252	-0.177813	-1.199673
H54	H	1.538997	-0.703191	-0.402176
H55	H	0.917563	-0.206013	-0.496498
H56	H	1.609208	-0.178134	-0.677351
H57	H	1.083991	-0.248294	-0.474257
H58	H	1.507612	-0.141250	-0.987295
H59	H	0.857312	-0.385670	-0.402122
H60	H	1.401503	-0.929812	-0.474104
H61	H	1.432661	-0.492465	-0.889607
H62	H	1.359012	-0.763388	-0.496217
H63	H	1.609211	-0.178057	-0.796052
H64	H	1.609250	-0.177890	-1.080972
H65	H	1.331336	-0.455555	-1.199572
H66	H	1.331332	-0.455637	-1.080867
H67	H	1.432961	-0.492382	-1.008328
H68	H	1.331299	-0.455794	-0.795950
H69	H	1.331269	-0.455865	-0.677240
