data_functionalizedCrystal
_audit_creation_method	'MofGen! by Chris Wilmer'
_symmetry_space_group_name_H-M	'P1'
_symmetry_Int_Tables_number	1
_symmetry_cell_setting	triclinic
loop_
_symmetry_equiv_pos_as_xyz
  x,y,z
_cell_length_a	14.971482
_cell_length_b	11.792254
_cell_length_c	13.448316
_cell_angle_alpha	89.993237
_cell_angle_beta	89.993798
_cell_angle_gamma	83.905603
loop_
_atom_site_label
_atom_site_type_symbol
_atom_site_fract_x
_atom_site_fract_y
_atom_site_fract_z
O1	O	1.187547	0.147888	-0.082679
O2	O	1.520881	0.481222	0.250654
O3	O	1.854214	0.814555	0.583987
O4	O	0.927218	0.165605	-0.082684
O5	O	1.260552	0.498938	0.250649
O6	O	1.593885	0.832272	0.583982
O7	O	1.063694	-0.008464	-0.082675
O8	O	1.397028	0.324870	0.250659
O9	O	1.730361	0.658203	0.583992
O10	O	1.051071	0.321957	-0.082689
O11	O	1.384405	0.655291	0.250644
O12	O	1.717738	0.988624	0.583978
O13	O	1.063677	-0.008474	0.082709
O14	O	1.397010	0.324859	0.416042
O15	O	1.730344	0.658192	0.749376
O16	O	0.927201	0.165594	0.082700
O17	O	1.260534	0.498928	0.416033
O18	O	1.593868	0.832261	0.749366
O19	O	1.187530	0.147878	0.082704
O20	O	1.520863	0.481211	0.416038
O21	O	1.854197	0.814544	0.749371
Cu22	Cu	1.057364	0.156735	0.097803
Cu23	Cu	1.390697	0.490068	0.431136
Cu24	Cu	1.724031	0.823402	0.764469
Cu25	Cu	1.057384	0.156748	-0.097783
Cu26	Cu	1.390718	0.490081	0.235551
Cu27	Cu	1.724051	0.823414	0.568884
O28	O	1.051054	0.321946	0.082695
O29	O	1.384387	0.655280	0.416028
O30	O	1.717721	0.988613	0.749361
C31	C	0.893882	0.164808	0.000007
C32	C	1.227215	0.498142	0.333340
C33	C	1.560548	0.831475	0.666674
C34	C	0.794575	0.162436	0.000005
C35	C	1.127908	0.495769	0.333339
C36	C	1.461241	0.829103	0.666672
C37	C	0.747916	0.161313	0.090157
C38	C	1.081250	0.494646	0.423491
C39	C	1.414583	0.827980	0.756824
C40	C	0.654609	0.159066	0.090158
C41	C	0.987942	0.492399	0.423492
C42	C	1.321275	0.825733	0.756825
C43	C	0.607961	0.157950	0.000007
C44	C	0.941294	0.491284	0.333340
C45	C	1.274627	0.824617	0.666673
C46	C	0.654626	0.159070	-0.090152
C47	C	0.987959	0.492403	0.243181
C48	C	1.321293	0.825737	0.576515
C49	C	0.747933	0.161309	-0.090152
C50	C	1.081266	0.494642	0.243181
C51	C	1.414599	0.827976	0.576514
C52	C	0.460145	0.154407	-0.090146
C53	C	0.793479	0.487740	0.243188
C54	C	1.126812	0.821073	0.576521
C55	C	0.366832	0.152170	-0.090146
C56	C	0.700165	0.485503	0.243188
C57	C	1.033499	0.818836	0.576521
C58	C	0.366821	0.152164	0.090165
C59	C	0.700155	0.485497	0.423498
C60	C	1.033488	0.818830	0.756832
C61	C	0.460128	0.154402	0.090165
C62	C	0.793461	0.487736	0.423498
C63	C	1.126795	0.821069	0.756832
C64	C	0.506787	0.155524	0.000006
C65	C	0.840120	0.488858	0.333339
C66	C	1.173453	0.822191	0.666672
C67	C	1.062891	-0.050755	0.000017
C68	C	1.396224	0.282579	0.333350
C69	C	1.729557	0.615912	0.666684
C70	C	1.060510	-0.176752	0.000016
C71	C	1.393844	0.156581	0.333349
C72	C	1.727177	0.489914	0.666683
C73	C	1.058577	-0.279076	0.000012
C74	C	1.391910	0.054257	0.333346
C75	C	1.725243	0.387590	0.666679
C76	C	1.056159	-0.407447	0.000003
C77	C	1.389492	-0.074114	0.333336
C78	C	1.722825	0.259219	0.666670
C79	C	1.220867	0.148675	0.000011
C80	C	1.554200	0.482008	0.333344
C81	C	1.887533	0.815341	0.666678
C82	C	1.320173	0.151047	0.000006
C83	C	1.653507	0.484380	0.333339
C84	C	1.986840	0.817713	0.666673
C85	C	1.051858	0.364237	0.000001
C86	C	1.385191	0.697571	0.333334
C87	C	1.718524	1.030904	0.666668
C88	C	1.054238	0.490235	-0.000005
C89	C	1.387571	0.823568	0.333329
C90	C	1.720904	1.156902	0.666662
N91	N	1.057356	0.156725	0.235367
N92	N	1.390689	0.490059	0.568700
N93	N	1.724023	0.823392	0.902034
N94	N	1.057399	0.156748	-0.235347
N95	N	1.390733	0.490082	0.097986
N96	N	1.724066	0.823415	0.431320
C97	C	1.117807	0.079679	0.287412
C98	C	1.451140	0.413013	0.620745
C99	C	1.784473	0.746346	0.954078
C100	C	1.117812	0.079679	0.391515
C101	C	1.451146	0.413012	0.724848
C102	C	1.784479	0.746345	1.058182
C103	C	1.057371	0.156730	0.443572
C104	C	1.390704	0.490063	0.776905
C105	C	1.724037	0.823397	1.110238
C106	C	0.996914	0.233779	0.391520
C107	C	1.330247	0.567113	0.724853
C108	C	1.663580	0.900446	1.058186
C109	C	0.996905	0.233774	0.287418
C110	C	1.330238	0.567107	0.620752
C111	C	1.663571	0.900441	0.954085
C112	C	0.996939	0.233787	0.608500
C113	C	1.330272	0.567120	0.941833
C114	C	1.663605	0.900454	1.275167
C115	C	0.996949	0.233794	0.712608
C116	C	1.330282	0.567128	1.045942
C117	C	1.663615	0.900461	1.379275
C118	C	1.117846	0.079692	0.712596
C119	C	1.451180	0.413025	1.045930
C120	C	1.784513	0.746358	1.379263
C121	C	1.117837	0.079686	0.608495
C122	C	1.451170	0.413020	0.941828
C123	C	1.784504	0.746353	1.275162
C124	C	1.057381	0.156738	0.556450
C125	C	1.390714	0.490071	0.889784
C126	C	1.724048	0.823404	1.223117
H127	H	0.498132	0.155320	-0.163563
H128	H	0.831465	0.488654	0.169771
H129	H	1.164799	0.821987	0.503104
F130	F	0.317188	0.150981	-0.186095
F131	F	0.650521	0.484314	0.147238
F132	F	0.983854	0.817647	0.480571
H133	H	0.947730	0.296536	0.754988
H134	H	1.281063	0.629870	1.088321
H135	H	1.614397	0.963203	1.421654
H136	H	0.947706	0.296527	0.566128
H137	H	1.281039	0.629860	0.899462
H138	H	1.614372	0.963194	1.232795
F139	F	0.604981	0.157848	-0.186099
F140	F	0.938314	0.491181	0.147235
F141	F	1.271647	0.824515	0.480568
F142	F	0.797590	0.162500	-0.186104
F143	F	1.130924	0.495833	0.147229
F144	F	1.464257	0.829167	0.480562
F145	F	1.182142	-0.002325	0.232019
F146	F	1.515476	0.331008	0.565352
F147	F	1.848809	0.664341	0.898686
H148	H	1.167035	0.016941	0.433889
H149	H	1.500368	0.350275	0.767223
H150	H	1.833702	0.683608	1.100556
H151	H	0.498106	0.155318	0.163574
H152	H	0.831439	0.488651	0.496908
H153	H	1.164772	0.821985	0.830241
F154	F	0.932562	0.315774	0.232030
F155	F	1.265895	0.649107	0.565363
F156	F	1.599228	0.982441	0.898697
H157	H	1.167057	0.016951	0.566111
H158	H	1.500390	0.350284	0.899444
H159	H	1.833724	0.683618	1.232777
H160	H	0.785889	0.162231	0.163569
H161	H	1.119223	0.495564	0.496903
H162	H	1.452556	0.828898	0.830236
H163	H	0.328827	0.151251	0.163576
H164	H	0.662161	0.484584	0.496909
H165	H	0.995494	0.817917	0.830243
H166	H	1.167071	0.016954	0.754977
H167	H	1.500405	0.350287	1.088311
H168	H	1.833738	0.683621	1.421644
F169	F	0.604954	0.157886	0.186110
F170	F	0.938287	0.491220	0.519444
F171	F	1.271620	0.824553	0.852777
F172	F	0.932582	0.315779	0.446923
F173	F	1.265915	0.649113	0.780257
F174	F	1.599249	0.982446	1.113590
