data_functionalizedCrystal
_audit_creation_method	'MofGen! by Chris Wilmer'
_symmetry_space_group_name_H-M	'P1'
_symmetry_Int_Tables_number	1
_symmetry_cell_setting	triclinic
loop_
_symmetry_equiv_pos_as_xyz
  x,y,z
_cell_length_a	12.837943
_cell_length_b	14.044220
_cell_length_c	11.892083
_cell_angle_alpha	85.758834
_cell_angle_beta	94.313776
_cell_angle_gamma	94.008909
loop_
_atom_site_label
_atom_site_type_symbol
_atom_site_fract_x
_atom_site_fract_y
_atom_site_fract_z
O1	O	1.404554	0.242989	0.093990
O2	O	1.904554	0.742989	0.593990
O3	O	1.101614	0.230713	0.093996
O4	O	1.601614	0.730713	0.593996
O5	O	1.248537	0.098456	0.093982
O6	O	1.748537	0.598456	0.593982
O7	O	1.257632	0.375245	0.094004
O8	O	1.757632	0.875245	0.594004
O9	O	1.236274	0.109457	-0.094025
O10	O	1.736274	0.609457	0.405975
O11	O	1.089352	0.241714	-0.094011
O12	O	1.589352	0.741714	0.405989
O13	O	1.392292	0.253989	-0.094017
O14	O	1.892292	0.753989	0.405983
Zn15	Zn	1.238875	0.249598	-0.123864
Zn16	Zn	1.738875	0.749598	0.376136
Zn17	Zn	1.255031	0.235104	0.123843
Zn18	Zn	1.755031	0.735104	0.623843
O19	O	1.245370	0.386246	-0.094003
O20	O	1.745370	0.886246	0.405997
C21	C	1.056479	0.232067	-0.000007
C22	C	1.556479	0.732067	0.499993
C23	C	0.940259	0.219699	-0.000005
C24	C	1.440259	0.719699	0.499995
C25	C	1.238425	0.068282	-0.000022
C26	C	1.738425	0.568282	0.499978
C27	C	1.226550	-0.038016	-0.000023
C28	C	1.726550	0.461984	0.499977
C29	C	0.713048	0.368378	-0.000009
C30	C	1.213048	0.868378	0.499991
C31	C	0.603848	0.356763	-0.000008
C32	C	1.103848	0.856763	0.499992
C33	C	0.612657	0.184853	-0.000009
C34	C	1.112657	0.684853	0.499991
C35	C	0.721856	0.196469	-0.000011
C36	C	1.221856	0.696469	0.499989
C37	C	0.772048	0.288234	-0.000008
C38	C	1.272048	0.788234	0.499992
C39	C	0.881251	0.299849	-0.000001
C40	C	1.381251	0.799849	0.499999
C41	C	0.890056	0.127940	-0.000011
C42	C	1.390056	0.627940	0.499989
C43	C	0.780857	0.116324	-0.000010
C44	C	1.280857	0.616324	0.499990
C45	C	1.204843	-0.232639	-0.000006
C46	C	1.704843	0.267361	0.499994
C47	C	1.289060	-0.282665	-0.000005
C48	C	1.789060	0.217335	0.499995
C49	C	1.276982	-0.390960	0.000005
C50	C	1.776982	0.109040	0.500005
C51	C	1.216919	-0.124334	-0.000016
C52	C	1.716919	0.375666	0.499984
C53	C	1.437428	0.252635	-0.000012
C54	C	1.937428	0.752635	0.499988
C55	C	1.553649	0.265002	-0.000006
C56	C	2.053649	0.765002	0.499994
C57	C	1.255482	0.416420	0.000004
C58	C	1.755482	0.916420	0.500004
C59	C	1.267357	0.522717	0.000012
C60	C	1.767357	1.022717	0.500012
N61	N	1.227857	0.259489	-0.292917
N62	N	1.727857	0.759489	0.207083
C63	C	1.151257	0.328425	-0.470448
C64	C	1.651257	0.828425	0.029552
C65	C	1.158939	0.321494	-0.352106
C66	C	1.658939	0.821494	0.147894
C67	C	1.289096	0.204409	-0.352078
C68	C	1.789096	0.704409	0.147922
C69	C	1.281414	0.211340	-0.470419
C70	C	1.781414	0.711340	0.029581
C71	C	1.212494	0.273351	-0.529600
C72	C	1.712494	0.773351	-0.029600
C73	C	1.204819	0.280286	-0.647943
C74	C	1.704819	0.780286	-0.147943
C75	C	1.334969	0.163197	-0.647912
C76	C	1.834969	0.663197	-0.147912
C77	C	1.342651	0.156266	-0.529571
C78	C	1.842651	0.656266	-0.029571
N79	N	1.266057	0.225206	0.292896
N80	N	1.766057	0.725206	0.792896
H81	H	0.922115	0.374569	-0.000002
H82	H	1.422115	0.874569	0.499998
C83	C	1.091606	0.382111	-0.287043
C84	C	1.591606	0.882111	0.212957
N85	N	1.040900	0.427780	-0.238038
N86	N	1.540900	0.927780	0.261962
H87	H	1.148703	0.330781	-0.696128
H88	H	1.648703	0.830781	-0.196128
H89	H	1.095147	0.378923	-0.518634
H90	H	1.595147	0.878923	-0.018634
H91	H	0.753915	0.443098	-0.000005
H92	H	1.253915	0.943098	0.499995
C93	C	0.557425	0.083919	-0.000024
C94	C	1.057425	0.583919	0.499976
N95	N	0.515824	0.007894	-0.000036
N96	N	1.015824	0.507894	0.499964
C97	C	1.364859	0.136163	-0.286958
C98	C	1.864859	0.636163	0.213042
N99	N	1.421911	0.084747	-0.237909
N100	N	1.921911	0.584747	0.262091
H101	H	1.398762	0.105775	-0.481372
H102	H	1.898762	0.605775	0.018628
H103	H	0.739974	0.041612	-0.000025
H104	H	1.239974	0.541612	0.499975
H105	H	1.384835	0.118355	-0.696087
H106	H	1.884835	0.618355	-0.196087
C107	C	1.095189	-0.284652	-0.000019
C108	C	1.595189	0.215348	0.499981
N109	N	1.012597	-0.323838	-0.000038
N110	N	1.512597	0.176162	0.499962
H111	H	0.555814	0.422025	-0.000011
H112	H	1.055814	0.922025	0.499989
C113	C	1.398720	-0.230651	-0.000023
C114	C	1.898720	0.269349	0.499977
N115	N	1.481312	-0.191469	-0.000043
N116	N	1.981312	0.308531	0.499957
H117	H	0.938107	0.062681	-0.000003
H118	H	1.438107	0.562681	0.499997
