data_functionalizedCrystal
_audit_creation_method	'MofGen! by Chris Wilmer'
_symmetry_space_group_name_H-M	'P1'
_symmetry_Int_Tables_number	1
_symmetry_cell_setting	triclinic
loop_
_symmetry_equiv_pos_as_xyz
  x,y,z
_cell_length_a	12.827893
_cell_length_b	12.827892
_cell_length_c	12.827885
_cell_angle_alpha	90.032871
_cell_angle_beta	89.983682
_cell_angle_gamma	89.974292
loop_
_atom_site_label
_atom_site_type_symbol
_atom_site_fract_x
_atom_site_fract_y
_atom_site_fract_z
Zn1	Zn	1.597615	0.415905	-0.590744
Zn2	Zn	1.930948	0.749238	-0.257411
Zn3	Zn	2.264282	1.082572	0.075923
Zn4	Zn	1.597486	0.590682	-0.415995
Zn5	Zn	1.930819	0.924016	-0.082661
Zn6	Zn	2.264153	1.257349	0.250672
Zn7	Zn	1.422856	0.415964	-0.416027
Zn8	Zn	1.756190	0.749298	-0.082693
Zn9	Zn	2.089523	1.082631	0.250640
Zn10	Zn	1.422819	0.590613	-0.590704
Zn11	Zn	1.756152	0.923946	-0.257370
Zn12	Zn	2.089485	1.257280	0.075963
O13	O	1.510194	0.503291	-0.503367
O14	O	1.843527	0.836624	-0.170034
O15	O	2.176861	1.169958	0.163299
O16	O	1.743834	0.439094	-0.567567
O17	O	2.077167	0.772427	-0.234233
O18	O	2.410500	1.105760	0.099100
O19	O	1.574283	0.567559	-0.269763
O20	O	1.907616	0.900893	0.063570
O21	O	2.240950	1.234226	0.396904
O22	O	1.446108	0.269720	-0.439233
O23	O	1.779441	0.603054	-0.105900
O24	O	2.112775	0.936387	0.227433
O25	O	1.743739	0.567502	-0.439179
O26	O	2.077072	0.900835	-0.105846
O27	O	2.410406	1.234168	0.227487
O28	O	1.574503	0.269677	-0.567597
O29	O	1.907836	0.603010	-0.234264
O30	O	2.241169	0.936343	0.099069
O31	O	1.445983	0.439195	-0.269786
O32	O	1.779316	0.772528	0.063547
O33	O	2.112650	1.105862	0.396880
O34	O	1.276615	0.439128	-0.439194
O35	O	1.609949	0.772461	-0.105861
O36	O	1.943282	1.105794	0.227472
O37	O	1.446044	0.567384	-0.736945
O38	O	1.779377	0.900717	-0.403612
O39	O	2.112711	1.234051	-0.070279
O40	O	1.276588	0.567441	-0.567529
O41	O	1.609921	0.900775	-0.234196
O42	O	1.943254	1.234108	0.099138
O43	O	1.574466	0.439026	-0.736975
O44	O	1.907799	0.772360	-0.403641
O45	O	2.241133	1.105693	-0.070308
O46	O	1.574246	0.736909	-0.439140
O47	O	1.907580	1.070243	-0.105807
O48	O	2.240913	1.403576	0.227526
O49	O	1.445919	0.736858	-0.567498
O50	O	1.779252	1.070192	-0.234165
O51	O	2.112586	1.403525	0.099168
C52	C	1.238684	0.503284	-0.503361
C53	C	1.572017	0.836618	-0.170028
C54	C	1.905351	1.169951	0.163305
C55	C	1.122531	0.503307	-0.503384
C56	C	1.455864	0.836640	-0.170050
C57	C	1.789198	1.169973	0.163283
C58	C	1.510093	0.774801	-0.503334
C59	C	1.843426	1.108134	-0.170001
C60	C	2.176760	1.441468	0.163332
C61	C	1.510145	0.890954	-0.503355
C62	C	1.843479	1.224288	-0.170022
C63	C	2.176812	1.557621	0.163312
C64	C	1.510265	0.503191	-0.775938
C65	C	1.843598	0.836524	-0.442604
C66	C	2.176932	1.169857	-0.109271
C67	C	1.510295	0.503148	-0.892091
C68	C	1.843629	0.836481	-0.558757
C69	C	2.176962	1.169815	-0.225424
C70	C	1.782764	0.503299	-0.503374
C71	C	2.116097	0.836632	-0.170040
C72	C	2.449431	1.169965	0.163293
C73	C	1.898917	0.503302	-0.503377
C74	C	2.232251	0.836635	-0.170043
C75	C	2.565584	1.169969	0.163290
C76	C	1.950749	0.439770	-0.566901
C77	C	2.284082	0.773103	-0.233568
C78	C	2.617415	1.106436	0.099765
C79	C	2.070799	0.439772	-0.566906
C80	C	2.404132	0.773105	-0.233572
C81	C	2.737466	1.106438	0.099761
C82	C	1.446623	0.942748	-0.566821
C83	C	1.779956	1.276082	-0.233488
C84	C	2.113290	1.609415	0.099845
C85	C	1.446676	1.062799	-0.566844
C86	C	1.780009	1.396132	-0.233511
C87	C	2.113342	1.729465	0.099822
C88	C	1.510290	1.230721	-0.503411
C89	C	1.843623	1.564054	-0.170077
C90	C	2.176957	1.897388	0.163256
C91	C	1.510244	1.114568	-0.503397
C92	C	1.843578	1.447901	-0.170063
C93	C	2.176911	1.781235	0.163270
C94	C	1.573850	0.439620	-0.943890
C95	C	1.907183	0.772954	-0.610557
C96	C	2.240516	1.106287	-0.277223
C97	C	1.573882	0.439575	-1.063941
C98	C	1.907216	0.772908	-0.730607
C99	C	2.240549	1.106241	-0.397274
C100	C	1.510183	0.503316	-0.231857
C101	C	1.843517	0.836649	0.101476
C102	C	2.176850	1.169982	0.434809
C103	C	1.510355	0.503064	-0.115705
C104	C	1.843689	0.836397	0.217629
C105	C	2.177022	1.169731	0.550962
H106	H	1.906247	0.385380	-0.621288
H107	H	2.239580	0.718713	-0.287955
H108	H	2.572914	1.052047	0.045379
Br109	Br	1.600905	1.040343	-0.412833
Br110	Br	1.934238	1.373676	-0.079500
Br111	Br	2.267572	1.707010	0.253833
Br112	Br	1.664472	0.348988	-0.869683
Br113	Br	1.997806	0.682322	-0.536349
Br114	Br	2.331139	1.015655	-0.203016
H115	H	1.455945	0.557459	-1.071165
H116	H	1.789279	0.890793	-0.737832
H117	H	2.122612	1.224126	-0.404499
Br118	Br	2.145084	0.349099	-0.657550
Br119	Br	2.478417	0.682433	-0.324216
Br120	Br	2.811751	1.015766	0.009117
Br121	Br	2.048253	0.593964	-0.412719
Br122	Br	2.381586	0.927297	-0.079386
Br123	Br	2.714919	1.260631	0.253947
H124	H	1.392195	0.898217	-0.621137
H125	H	1.725529	1.231550	-0.287804
H126	H	2.058862	1.564884	0.045529
H127	H	1.628297	0.385190	-1.108487
H128	H	1.961630	0.718523	-0.775153
H129	H	2.294964	1.051856	-0.441820
Br130	Br	1.356035	1.137030	-0.657423
Br131	Br	1.689369	1.470363	-0.324089
Br132	Br	2.022702	1.803697	0.009244
Br133	Br	1.419632	0.593740	-0.966298
Br134	Br	1.752966	0.927073	-0.632965
Br135	Br	2.086299	1.260406	-0.299632
H136	H	1.943419	0.557701	-0.449000
H137	H	2.276752	0.891035	-0.115666
H138	H	2.610086	1.224368	0.217667
H139	H	1.564565	0.935488	-0.449033
H140	H	1.897898	1.268821	-0.115700
H141	H	2.231232	1.602155	0.217633
