data_functionalizedCrystal
_audit_creation_method	'MofGen! by Chris Wilmer'
_symmetry_space_group_name_H-M	'P1'
_symmetry_Int_Tables_number	1
_symmetry_cell_setting	triclinic
loop_
_symmetry_equiv_pos_as_xyz
  x,y,z
_cell_length_a	25.639239
_cell_length_b	17.077404
_cell_length_c	17.077396
_cell_angle_alpha	90.021457
_cell_angle_beta	89.968926
_cell_angle_gamma	89.962210
loop_
_atom_site_label
_atom_site_type_symbol
_atom_site_fract_x
_atom_site_fract_y
_atom_site_fract_z
Zn1	Zn	-0.208163	-1.199968	-0.443869
Zn2	Zn	0.291837	-0.699968	0.056131
Zn3	Zn	-0.295601	-1.199839	-0.312598
Zn4	Zn	0.204399	-0.699839	0.187402
Zn5	Zn	-0.208180	-1.068700	-0.312613
Zn6	Zn	0.291820	-0.568700	0.187387
Zn7	Zn	-0.295568	-1.068632	-0.443817
Zn8	Zn	0.204432	-0.568632	0.056183
O9	O	-0.251878	-1.134285	-0.378224
O10	O	0.248122	-0.634285	0.121776
O11	O	-0.219769	-1.309798	-0.426472
O12	O	0.280231	-0.809798	0.073528
O13	O	-0.284025	-1.182418	-0.202753
O14	O	0.215975	-0.682418	0.297247
O15	O	-0.135012	-1.086196	-0.330053
O16	O	0.364988	-0.586196	0.169947
O17	O	-0.284009	-1.309703	-0.330027
O18	O	0.215991	-0.809703	0.169973
O19	O	-0.135000	-1.182638	-0.426487
O20	O	0.365000	-0.682638	0.073513
O21	O	-0.219797	-1.086071	-0.202764
O22	O	0.280203	-0.586071	0.297236
O23	O	-0.219765	-0.958844	-0.330002
O24	O	0.280235	-0.458844	0.169998
O25	O	-0.283953	-1.086080	-0.553671
O26	O	0.216047	-0.586080	-0.053671
O27	O	-0.283969	-0.958794	-0.426397
O28	O	0.216031	-0.458794	0.073603
O29	O	-0.219737	-1.182572	-0.553709
O30	O	0.280263	-0.682572	-0.053709
O31	O	-0.368762	-1.182352	-0.329975
O32	O	0.131238	-0.682352	0.170025
O33	O	-0.368738	-1.085954	-0.426382
O34	O	0.131262	-0.585954	0.073618
C35	C	-0.251866	-0.930337	-0.378196
C36	C	0.248134	-0.430337	0.121804
C37	C	-0.251873	-0.843087	-0.378202
C38	C	0.248127	-0.343087	0.121798
C39	C	-0.285354	-0.802092	-0.428313
C40	C	0.214646	-0.302092	0.071687
C41	C	-0.285354	-0.720111	-0.428323
C42	C	0.214646	-0.220111	0.071677
C43	C	-0.251876	-0.679128	-0.378217
C44	C	0.248124	-0.179128	0.121783
C45	C	-0.218391	-0.720129	-0.328104
C46	C	0.281609	-0.220129	0.171896
C47	C	-0.218389	-0.802108	-0.328099
C48	C	0.281611	-0.302108	0.171901
C49	C	-0.218399	-0.549259	-0.328117
C50	C	0.281601	-0.049259	0.171883
C51	C	-0.218402	-0.467275	-0.328121
C52	C	0.281598	0.032725	0.171879
C53	C	-0.285365	-0.467262	-0.428341
C54	C	0.214635	0.032738	0.071659
C55	C	-0.285362	-0.549241	-0.428336
C56	C	0.214638	-0.049241	0.071664
C57	C	-0.251878	-0.590237	-0.378221
C58	C	0.248122	-0.090237	0.121779
C59	C	-0.387721	-1.134153	-0.378188
C60	C	0.112279	-0.634153	0.121812
C61	C	-0.445835	-1.134168	-0.378199
C62	C	0.054165	-0.634168	0.121801
C63	C	-0.806198	-1.184610	-0.328111
C64	C	-0.306198	-0.684610	0.171889
C65	C	-0.860802	-1.184641	-0.328122
C66	C	-0.360802	-0.684641	0.171878
O67	O	-0.889039	-1.227391	-0.285495
O68	O	-0.389039	-0.727391	0.214505
N69	N	-0.888117	-1.134423	-0.378276
N70	N	-0.388117	-0.634423	0.121724
C71	C	-0.860825	-1.084177	-0.428429
C72	C	-0.360825	-0.584177	0.071571
O73	O	-0.889073	-1.041467	-0.471091
O74	O	-0.389073	-0.541467	0.028909
C75	C	-0.806222	-1.084151	-0.428422
C76	C	-0.306222	-0.584151	0.071578
C77	C	-0.778909	-1.134367	-0.378259
C78	C	-0.278909	-0.634367	0.121741
C79	C	-0.778885	-1.234822	-0.277952
C80	C	-0.278885	-0.734822	0.222048
C81	C	-0.724285	-1.234790	-0.277941
C82	C	-0.224285	-0.734790	0.222059
C83	C	-0.696997	-1.184547	-0.328088
C84	C	-0.196997	-0.684547	0.171912
C85	C	-0.724309	-1.134335	-0.378247
C86	C	-0.224309	-0.634335	0.121753
C87	C	-0.778931	-1.033910	-0.478579
C88	C	-0.278931	-0.533910	0.021421
C89	C	-0.724324	-1.033889	-0.478567
C90	C	-0.224324	-0.533889	0.021433
C91	C	-0.697011	-1.084104	-0.428404
C92	C	-0.197011	-0.584104	0.071596
C93	C	-0.642420	-1.084060	-0.428383
C94	C	-0.142420	-0.584060	0.071617
N95	N	-0.615105	-1.134278	-0.378229
N96	N	-0.115105	-0.634278	0.121771
C97	C	-0.642393	-1.184521	-0.328081
C98	C	-0.142393	-0.684521	0.171919
C99	C	-0.975496	-1.084236	-0.428441
C100	C	-0.475496	-0.584236	0.071559
C101	C	-1.030098	-1.084258	-0.428445
C102	C	-0.530098	-0.584258	0.071555
C103	C	-1.030071	-1.184722	-0.328138
C104	C	-0.530071	-0.684722	0.171862
C105	C	-0.975468	-1.184696	-0.328131
C106	C	-0.475468	-0.684696	0.171869
C107	C	-0.948181	-1.134454	-0.378287
C108	C	-0.448181	-0.634454	0.121713
C109	C	-0.527728	-1.184450	-0.328061
C110	C	-0.027728	-0.684450	0.171939
C111	C	-0.473123	-1.184412	-0.328052
C112	C	0.026877	-0.684412	0.171948
C113	C	-0.473155	-1.083951	-0.428361
C114	C	0.026845	-0.583951	0.071639
C115	C	-0.527755	-1.083986	-0.428368
C116	C	-0.027755	-0.583986	0.071632
C117	C	-0.555041	-1.134242	-0.378215
C118	C	-0.055041	-0.634242	0.121785
O119	O	-0.614149	-1.041334	-0.470990
O120	O	-0.114149	-0.541334	0.029010
O121	O	-0.614139	-1.227232	-0.285434
O122	O	-0.114139	-0.727232	0.214566
C123	C	-0.115505	-1.134439	-0.378277
C124	C	0.384495	-0.634439	0.121723
C125	C	-0.057391	-1.134505	-0.378300
C126	C	0.442609	-0.634505	0.121700
C127	C	-0.251840	-1.134333	-0.582969
C128	C	0.248160	-0.634333	-0.082969
C129	C	-0.251823	-1.134353	-0.670218
C130	C	0.248177	-0.634353	-0.170218
C131	C	-0.251887	-0.339029	-0.378245
C132	C	0.248113	0.160971	0.121755
C133	C	-0.251883	-0.426279	-0.378232
C134	C	0.248117	0.073721	0.121768
C135	C	-0.218383	-1.184598	-0.711230
C136	C	0.281617	-0.684598	-0.211230
C137	C	-0.218366	-1.184608	-0.793211
C138	C	0.281634	-0.684608	-0.293211
C139	C	-0.251791	-1.134375	-0.834178
C140	C	0.248209	-0.634375	-0.334178
C141	C	-0.285233	-1.084124	-0.793160
C142	C	0.214767	-0.584124	-0.293160
C143	C	-0.285247	-1.084111	-0.711181
C144	C	0.214753	-0.584111	-0.211181
C145	C	-0.285201	-1.084156	-0.964031
C146	C	0.214799	-0.584156	-0.464031
C147	C	-0.285188	-1.084169	-1.046015
C148	C	0.214812	-0.584169	-0.546015
C149	C	-0.218320	-1.184652	-1.046060
C150	C	0.281680	-0.684652	-0.546060
C151	C	-0.218334	-1.184639	-0.964081
C152	C	0.281666	-0.684639	-0.464081
C153	C	-0.251777	-1.134389	-0.923069
C154	C	0.248223	-0.634389	-0.423069
C155	C	-0.251879	-1.134283	-0.174276
C156	C	0.248121	-0.634283	0.325724
C157	C	-0.251748	-1.134415	-0.087027
C158	C	0.248252	-0.634415	0.412973
H159	H	-0.191128	-0.582636	-0.287315
H160	H	0.308872	-0.082636	0.212685
H161	H	-0.450928	-1.043040	-0.469188
H162	H	0.049072	-0.543040	0.030812
C163	C	-0.808962	-0.978671	-0.533766
C164	C	-0.308962	-0.478671	-0.033766
N165	N	-0.831581	-0.937062	-0.575338
N166	N	-0.331581	-0.437062	-0.075338
H167	H	-1.052299	-1.225636	-0.287308
H168	H	-0.552299	-0.725636	0.212692
C169	C	-0.181532	-1.239927	-1.091174
C170	C	0.318468	-0.739927	-0.591174
N171	N	-0.153827	-1.281561	-1.125158
N172	N	0.346173	-0.781561	-0.625158
C173	C	-0.945485	-1.028965	-0.483623
C174	C	-0.445485	-0.528965	0.016377
N175	N	-0.922883	-0.987340	-0.525191
N176	N	-0.422883	-0.487340	-0.025191
H177	H	-0.312618	-0.686736	-0.469127
H178	H	0.187382	-0.186736	0.030873
H179	H	-0.702109	-0.992977	-0.519413
H180	H	-0.202109	-0.492977	-0.019413
H181	H	-0.549994	-1.043099	-0.469217
H182	H	-0.049994	-0.543099	0.030783
H183	H	-0.801098	-1.275740	-0.237116
H184	H	-0.301098	-0.775740	0.262884
C185	C	-0.322193	-0.594321	-0.483450
C186	C	0.177807	-0.094321	0.016550
N187	N	-0.349934	-0.628275	-0.524964
N188	N	0.150066	-0.128275	-0.024964
H189	H	-0.312627	-0.433879	-0.469148
H190	H	0.187373	0.066121	0.030852
C191	C	-0.181611	-1.239858	-0.666173
C192	C	0.318389	-0.739858	-0.166173
N193	N	-0.153911	-1.281479	-0.632239
N194	N	0.346089	-0.781479	-0.132239
H195	H	-0.191119	-1.225547	-0.930727
H196	H	0.308881	-0.725547	-0.430727
H197	H	-0.312426	-1.043225	-0.930641
H198	H	0.187574	-0.543225	-0.430641
C199	C	-0.181563	-0.675045	-0.272989
C200	C	0.318437	-0.175045	0.227011
N201	N	-0.153825	-0.641088	-0.231473
N202	N	0.346175	-0.141088	0.268527
H203	H	-0.191135	-0.433908	-0.287330
H204	H	0.308865	0.066092	0.212670
H205	H	-0.450887	-1.225303	-0.287200
H206	H	0.049113	-0.725303	0.212800
H207	H	-0.312447	-1.043221	-0.826523
H208	H	0.187553	-0.543221	-0.326523
C209	C	-0.181559	-0.847203	-0.272971
C210	C	0.318441	-0.347203	0.227029
N211	N	-0.153816	-0.881168	-0.231448
N212	N	0.346184	-0.381168	0.268552
C213	C	-0.322035	-1.028839	-0.666069
C214	C	0.177965	-0.528839	-0.166069
N215	N	-0.349743	-0.987204	-0.632091
N216	N	0.150257	-0.487204	-0.132091
H217	H	-0.953233	-1.225586	-0.287284
H218	H	-0.453233	-0.725586	0.212716
H219	H	-0.549938	-1.225375	-0.287223
H220	H	-0.049938	-0.725375	0.212777
C221	C	-1.060135	-1.029010	-0.483621
C222	C	-0.560135	-0.529010	0.016379
N223	N	-1.082758	-0.987398	-0.525185
N224	N	-0.582758	-0.487398	-0.025185
C225	C	-0.181580	-1.239883	-0.838320
C226	C	0.318420	-0.739883	-0.338320
N227	N	-0.153871	-1.281519	-0.872295
N228	N	0.346129	-0.781519	-0.372295
C229	C	-0.321955	-1.028906	-1.091078
C230	C	0.178045	-0.528906	-0.591078
N231	N	-0.349647	-0.987280	-1.125019
N232	N	0.150353	-0.487280	-0.625019
H233	H	-0.702050	-1.275682	-0.237096
H234	H	-0.202050	-0.775682	0.262904
H235	H	-0.312618	-0.835454	-0.469112
H236	H	0.187382	-0.335454	0.030888
