data_functionalizedCrystal
_audit_creation_method	'MofGen! by Chris Wilmer'
_symmetry_space_group_name_H-M	'P1'
_symmetry_Int_Tables_number	1
_symmetry_cell_setting	triclinic
loop_
_symmetry_equiv_pos_as_xyz
  x,y,z
_cell_length_a	10.654550
_cell_length_b	14.519709
_cell_length_c	9.730223
_cell_angle_alpha	89.997715
_cell_angle_beta	89.996251
_cell_angle_gamma	84.082524
loop_
_atom_site_label
_atom_site_type_symbol
_atom_site_fract_x
_atom_site_fract_y
_atom_site_fract_z
O1	O	1.666589	0.129528	-0.114406
O2	O	1.300991	0.141869	-0.114384
O3	O	1.493483	0.001510	-0.114384
O4	O	1.474097	0.269887	-0.114407
O5	O	1.493481	0.001514	0.114196
O6	O	1.300989	0.141873	0.114195
O7	O	1.666586	0.129532	0.114174
Zn8	Zn	1.483787	0.135703	0.150477
Zn9	Zn	1.483790	0.135698	-0.150687
O10	O	1.474094	0.269890	0.114173
C11	C	1.254201	0.140965	-0.000092
C12	C	1.114784	0.138254	-0.000083
C13	C	1.034504	0.220895	-0.000110
C14	C	0.903507	0.218342	-0.000134
C15	C	0.933085	0.050500	-0.000108
C16	C	1.064078	0.053054	-0.000075
C17	C	1.017426	0.317797	-0.000131
C18	C	0.886430	0.315244	-0.000154
C19	C	1.492579	-0.032852	-0.000093
C20	C	1.489871	-0.135247	-0.000092
C21	C	1.479904	-0.510195	-0.000127
C22	C	1.482672	-0.405873	-0.000117
C23	C	1.484887	-0.322725	-0.000109
C24	C	1.487656	-0.218396	-0.000101
C25	C	1.713377	0.130436	-0.000122
C26	C	1.852794	0.133147	-0.000140
C27	C	1.474999	0.304253	-0.000120
C28	C	1.477707	0.406648	-0.000130
N29	N	1.483795	0.135705	0.356013
N30	N	1.483793	0.135688	-0.356224
C31	C	1.569052	0.073576	0.427939
C32	C	1.569048	0.073565	0.571822
C33	C	1.398527	0.197821	0.571840
C34	C	1.398525	0.197827	0.427959
C35	C	1.667505	0.001840	0.427931
C36	C	1.667502	0.001829	0.571814
H37	H	0.844347	0.351754	-0.095825
H38	H	0.840476	0.344531	0.098527
O39	O	1.315651	0.258261	0.358302
C40	C	1.240374	0.313071	0.452662
H41	H	1.291864	0.314467	0.555219
H42	H	1.147031	0.282476	0.467973
C43	C	1.151442	0.410671	0.270550
C44	C	1.214688	0.412392	0.396510
H45	H	1.135591	0.471936	0.235911
H46	H	1.202153	0.373743	0.206977
H47	H	1.073663	0.385171	0.283326
H48	H	1.292471	0.437881	0.383728
H49	H	1.163988	0.449327	0.460079
H50	H	1.329102	0.248398	0.630434
H51	H	1.052786	0.348651	-0.098821
O52	O	1.632064	-0.078088	0.625242
C53	C	1.730690	-0.121132	0.706714
H54	H	1.794031	-0.067137	0.742365
H55	H	1.788507	-0.176460	0.643619
C56	C	1.596965	-0.232668	0.788996
C57	C	1.674755	-0.166349	0.832793
H58	H	1.562464	-0.260564	0.866764
H59	H	1.530520	-0.203671	0.734103
H60	H	1.645158	-0.278766	0.736415
H61	H	1.626559	-0.120246	0.885357
H62	H	1.741191	-0.195339	0.887698
H63	H	1.758473	0.024302	0.383297
H64	H	0.891784	-0.018867	-0.000123
O65	O	1.642503	-0.082686	0.381411
C66	C	1.523321	-0.102099	0.429867
H67	H	1.463802	-0.034482	0.455435
H68	H	1.535880	-0.146819	0.526174
C69	C	1.529673	-0.237285	0.286760
C70	C	1.456567	-0.154236	0.318153
H71	H	1.488497	-0.269450	0.217854
H72	H	1.609970	-0.224209	0.254118
H73	H	1.540133	-0.274541	0.367025
H74	H	1.446121	-0.116978	0.237893
H75	H	1.376266	-0.167308	0.350779
O76	O	1.782555	0.020563	0.618245
C77	C	1.875869	-0.047641	0.569846
H78	H	1.840146	-0.081327	0.473601
H79	H	1.897696	-0.102541	0.652605
C80	C	2.040449	0.038895	0.653403
C81	C	1.996577	-0.002473	0.535187
H82	H	2.114910	0.066755	0.632029
H83	H	1.977582	0.084844	0.686016
H84	H	2.058629	-0.006862	0.722358
H85	H	1.978384	0.043286	0.466241
H86	H	2.059444	-0.048413	0.502562
H87	H	1.129439	-0.014241	-0.000033
H88	H	1.046392	0.355697	0.095532
