data_functionalizedCrystal
_audit_creation_method	'MofGen! by Chris Wilmer'
_symmetry_space_group_name_H-M	'P1'
_symmetry_Int_Tables_number	1
_symmetry_cell_setting	triclinic
loop_
_symmetry_equiv_pos_as_xyz
  x,y,z
_cell_length_a	19.805407
_cell_length_b	19.805404
_cell_length_c	19.805399
_cell_angle_alpha	89.973446
_cell_angle_beta	89.983490
_cell_angle_gamma	90.026912
loop_
_atom_site_label
_atom_site_type_symbol
_atom_site_fract_x
_atom_site_fract_y
_atom_site_fract_z
Zn1	Zn	-1.034697	0.269539	0.382724
Zn2	Zn	-1.034609	0.382730	0.269541
Zn3	Zn	-0.921517	0.269553	0.269550
Zn4	Zn	-0.921467	0.382684	0.382688
O5	O	-0.978072	0.326126	0.326126
O6	O	-1.129402	0.284568	0.367722
O7	O	-1.019591	0.367742	0.174825
O8	O	-0.936589	0.174834	0.284581
O9	O	-1.129337	0.367729	0.284566
O10	O	-1.019742	0.174824	0.367730
O11	O	-0.936503	0.284591	0.174832
O12	O	-0.826794	0.284546	0.284546
O13	O	-0.936503	0.367650	0.477410
O14	O	-0.826757	0.367663	0.367669
O15	O	-1.019693	0.284523	0.477436
O16	O	-1.019542	0.477441	0.284531
O17	O	-0.936417	0.477407	0.367660
C18	C	-0.802216	0.326102	0.326105
C19	C	-0.726985	0.326107	0.326112
C20	C	-0.691675	0.282881	0.369476
C21	C	-0.620986	0.282883	0.369477
C22	C	-0.585609	0.326116	0.326117
C23	C	-0.620924	0.369344	0.282748
C24	C	-0.691611	0.369337	0.282744
C25	C	-0.335850	0.369368	0.282762
C26	C	-0.265158	0.369372	0.282771
C27	C	-0.265226	0.282914	0.369495
C28	C	-0.335913	0.282908	0.369491
C29	C	-0.371222	0.326133	0.326120
C30	C	-0.447870	0.326129	0.326119
C31	C	-0.508962	0.326123	0.326121
C32	C	-0.977983	0.501983	0.326106
C33	C	-0.978007	0.577214	0.326120
C34	C	-0.154615	0.326147	0.326141
C35	C	-0.229847	0.326142	0.326132
C36	C	-0.978102	0.326079	0.502669
C37	C	-0.978115	0.326059	0.577901
C38	C	-1.021507	1.039001	0.282960
C39	C	-1.021477	0.968312	0.282944
C40	C	-0.978149	0.932976	0.326182
C41	C	-0.934843	0.968332	0.369434
C42	C	-0.934871	1.039019	0.369446
C43	C	-0.934731	0.683259	0.369387
C44	C	-0.934709	0.612567	0.369374
C45	C	-1.021338	0.612552	0.282885
C46	C	-1.021365	0.683239	0.282897
C47	C	-0.978057	0.718589	0.326146
C48	C	-0.978090	0.795237	0.326162
C49	C	-0.978119	0.856329	0.326171
C50	C	-0.978176	1.149584	0.326169
C51	C	-0.978207	1.074352	0.326210
C52	C	-0.978082	0.326124	0.150270
C53	C	-0.978200	0.325954	0.075038
C54	C	-0.934863	0.282759	0.613248
C55	C	-0.934873	0.282746	0.683936
C56	C	-0.978137	0.326030	0.719276
C57	C	-1.021391	0.369336	0.683924
C58	C	-1.021378	0.369352	0.613237
C59	C	-1.021445	0.369272	0.968998
C60	C	-1.021456	0.369252	1.039690
C61	C	-0.934940	0.282666	1.039697
C62	C	-0.934926	0.282682	0.969009
C63	C	-0.978177	0.325990	0.933664
C64	C	-0.978165	0.326005	0.857015
C65	C	-0.978153	0.326013	0.795923
H66	H	-0.364590	0.404565	0.247447
H67	H	-1.056794	1.067766	0.247754
C68	C	-1.068829	0.417103	0.722801
N69	N	-1.104507	0.453135	0.752082
C70	C	-0.226244	0.416928	0.235063
N71	N	-0.196934	0.452744	0.199131
H72	H	-1.056655	0.404544	0.940228
H73	H	-1.056603	0.404607	0.584458
C74	C	-0.730451	0.416891	0.235042
N75	N	-0.759705	0.452709	0.199110
H76	H	-0.236469	0.247716	0.404807
C77	C	-0.730584	0.235321	0.417176
N78	N	-0.759888	0.199495	0.453103
C79	C	-0.887047	0.573699	0.416947
N80	N	-0.851153	0.544423	0.452780
H81	H	-0.899462	0.712032	0.404599
H82	H	-1.056599	0.583762	0.247667
C83	C	-0.582149	0.235333	0.417183
N84	N	-0.552897	0.199517	0.453118
C85	C	-0.582006	0.416898	0.235050
N86	N	-0.552694	0.452720	0.199125
C87	C	-0.887182	0.929460	0.416998
N88	N	-0.851285	0.900182	0.452826
H89	H	-1.056650	0.712006	0.247690
C90	C	-1.069097	0.929429	0.235351
N91	N	-1.104962	0.900143	0.199497
C92	C	-0.887268	0.235141	0.574380
N93	N	-0.851415	0.199277	0.545107
C94	C	-0.374824	0.235347	0.417188
N95	N	-0.404131	0.199520	0.453111
C96	C	-0.887238	1.077905	0.417026
N97	N	-0.851358	1.107193	0.452863
H98	H	-0.899650	0.247488	0.712712
C99	C	-0.887331	0.235067	0.930139
N100	N	-0.851479	0.199204	0.900863
C101	C	-0.887357	0.235031	1.078583
N102	N	-0.851520	0.199153	1.107872
C103	C	-1.069048	0.416875	1.078563
N104	N	-1.104893	0.452743	1.107842
