data_functionalizedCrystal
_audit_creation_method	'MofGen! by Chris Wilmer'
_symmetry_space_group_name_H-M	'P1'
_symmetry_Int_Tables_number	1
_symmetry_cell_setting	triclinic
loop_
_symmetry_equiv_pos_as_xyz
  x,y,z
_cell_length_a	31.640172
_cell_length_b	14.628931
_cell_length_c	31.640172
_cell_angle_alpha	119.999318
_cell_angle_beta	89.994524
_cell_angle_gamma	59.993640
loop_
_atom_site_label
_atom_site_type_symbol
_atom_site_fract_x
_atom_site_fract_y
_atom_site_fract_z
Zr1	Zr	0.407163	1.000506	0.055484
O2	O	0.339656	1.191251	0.122973
O3	O	0.427858	0.809789	0.034796
O4	O	0.427834	1.000526	0.122976
O5	O	0.339699	1.000488	-0.034767
O6	O	0.497390	1.000511	0.122979
O7	O	0.339680	1.000514	0.034792
O8	O	0.497432	0.659316	-0.034760
O9	O	0.339656	1.341683	0.122972
O10	O	0.488593	0.888212	0.025974
O11	O	0.436698	0.888204	-0.025939
O12	O	0.436670	1.112773	0.077883
O13	O	0.384775	1.112766	0.025970
Zr14	Zr	0.518127	1.000441	-0.055449
Zr15	Zr	0.518097	1.000482	0.055489
Zr16	Zr	0.407193	1.000466	-0.055453
Zr17	Zr	0.407163	1.240427	0.055484
Zr18	Zr	0.518127	0.760520	-0.055449
O19	O	0.497433	1.191158	-0.034760
O20	O	0.497390	1.191216	0.122979
O21	O	0.339699	1.191193	-0.034767
O22	O	0.585634	0.809696	-0.122937
O23	O	0.585592	0.809754	0.034802
O24	O	0.427900	0.809731	-0.122944
O25	O	0.585592	1.000459	0.034802
O26	O	0.497457	1.000421	-0.122941
O27	O	0.427901	1.000436	-0.122944
O28	O	0.585611	1.000434	-0.034757
O29	O	0.427834	1.341663	0.122976
O30	O	0.497456	0.659284	-0.122941
O31	O	0.585634	0.659265	-0.122937
O32	O	0.585610	0.659297	-0.034756
O33	O	0.339680	1.341650	0.034792
O34	O	0.427858	1.341631	0.034795
O35	O	0.488621	0.888174	-0.077847
O36	O	0.540516	0.888181	-0.025934
O37	O	0.488593	1.112743	0.025974
O38	O	0.436698	1.112735	-0.025939
C39	C	0.462645	0.700369	0.000018
C40	C	0.462645	0.598516	0.000018
C41	C	0.499071	0.474326	-0.036398
C42	C	0.499072	0.369054	-0.036399
C43	C	0.323884	1.000504	0.000012
C44	C	0.276789	1.000515	0.000010
C45	C	-0.015227	1.000464	0.038337
C46	C	-0.192213	1.000448	0.038341
O47	O	-0.215095	1.000403	0.070918
N48	N	-0.214334	1.000437	0.000021
C49	C	-0.192203	1.000421	-0.038305
O50	O	-0.215075	1.000398	-0.070901
C51	C	-0.015215	1.000428	-0.038310
C52	C	0.006900	1.000452	0.000015
C53	C	0.006889	1.000487	0.076659
C54	C	0.051131	1.000498	0.076659
C55	C	0.073258	1.000486	0.038338
C56	C	0.051143	1.000463	0.000016
C57	C	0.006918	1.000403	-0.076637
C58	C	0.051168	1.000401	-0.076636
C59	C	0.073283	1.000426	-0.038311
C60	C	0.117512	1.000463	-0.038306
N61	N	0.139632	1.000474	0.000014
C62	C	0.117505	1.000486	0.038336
C63	C	-0.285124	1.000420	-0.038298
C64	C	-0.329372	1.000420	-0.038297
C65	C	-0.329379	1.000445	0.038348
C66	C	-0.285133	1.000454	0.038348
C67	C	-0.263004	1.000431	0.000022
C68	C	0.210417	1.000510	0.038334
C69	C	0.254662	1.000527	0.038332
C70	C	0.254667	1.000495	-0.038314
C71	C	0.210424	1.000486	-0.038311
C72	C	0.188301	1.000489	0.000015
O73	O	0.140424	1.000494	-0.070869
O74	O	0.140392	1.000481	0.070921
C75	C	-0.059469	1.000453	0.038337
C76	C	-0.081584	1.000430	0.000015
C77	C	-0.059457	1.000418	-0.038307
C78	C	-0.125832	1.000431	0.000017
C79	C	-0.147959	1.000443	0.038338
C80	C	-0.125838	1.000454	0.076658
C81	C	-0.081596	1.000465	0.076658
C82	C	-0.081578	1.000407	-0.076627
C83	C	-0.125820	1.000397	-0.076624
C84	C	-0.147947	1.000409	-0.038302
C85	C	0.601407	1.000443	0.000023
C86	C	0.648501	1.000432	0.000025
C87	C	0.462608	1.000524	0.138784
C88	C	0.462595	1.000541	0.185880
C89	C	0.462646	1.300578	0.000017
C90	C	0.462646	1.402431	0.000017
C91	C	0.424318	1.000484	0.522155
C92	C	0.424296	1.000514	0.345172
O93	O	0.391716	1.000474	0.322278
N94	N	0.462613	1.000510	0.323039
C95	C	0.500941	1.000489	0.345152
O96	O	0.533534	1.000473	0.322263
C97	C	0.500964	1.000450	0.522133
C98	C	0.462641	1.000468	0.544266
C99	C	0.385998	1.000500	0.544288
C100	C	0.386003	1.000500	0.588533
C101	C	0.424326	1.000483	0.610644
C102	C	0.462646	1.000467	0.588511
C103	C	0.539293	1.000420	0.544244
C104	C	0.539297	1.000407	0.588491
C105	C	0.500974	1.000425	0.610624
C106	C	0.500973	1.000450	0.654867
N107	N	0.462656	1.000455	0.677000
C108	C	0.424333	1.000471	0.654889
C109	C	0.500925	1.000513	0.252236
C110	C	0.500918	1.000525	0.207991
C111	C	0.424274	1.000547	0.208013
C112	C	0.424279	1.000544	0.252260
C113	C	0.462607	1.000517	0.274369
C114	C	0.424344	1.000471	0.747806
C115	C	0.424351	1.000476	0.792056
C116	C	0.500996	1.000447	0.792029
C117	C	0.500989	1.000449	0.747785
C118	C	0.462660	1.000457	0.725673
O119	O	0.533539	1.000476	0.677785
O120	O	0.391750	1.000459	0.677779
C121	C	0.424313	1.000485	0.477910
C122	C	0.462633	1.000469	0.455777
C123	C	0.500956	1.000452	0.477888
C124	C	0.462626	1.000481	0.411532
C125	C	0.424303	1.000497	0.389421
C126	C	0.385986	1.000502	0.411554
C127	C	0.385990	1.000501	0.455799
C128	C	0.539274	1.000448	0.455755
C129	C	0.539266	1.000450	0.411511
C130	C	0.500942	1.000466	0.389399
C131	C	0.462678	1.000437	0.861254
C132	C	0.462674	1.000460	0.814168
C133	C	0.601407	0.700338	0.000024
C134	C	0.648501	0.598475	0.000025
C135	C	0.462683	0.700318	-0.138748
C136	C	0.462695	0.598448	-0.185844
C137	C	0.601444	0.700288	-0.138743
C138	C	0.648551	0.598407	-0.185837
C139	C	0.323846	1.300660	0.138778
C140	C	0.276739	1.402540	0.185872
C141	C	0.323884	1.300609	0.000012
C142	C	0.276789	1.402472	0.000010
C143	C	0.462608	1.300629	0.138784
C144	C	0.462595	1.402499	0.185880
C145	C	0.643514	0.550655	0.027127
C146	C	0.687760	0.454957	0.027139
C147	C	0.736992	0.407074	0.000047
C148	C	0.741979	0.454904	-0.027056
C149	C	0.697733	0.550606	-0.027064
C150	C	0.489805	0.550593	-0.235061
C151	C	0.489815	0.454889	-0.279317
C152	C	0.462718	0.407035	-0.274355
C153	C	0.435605	0.454900	-0.225132
C154	C	0.435593	0.550609	-0.180878
C155	C	0.697767	0.550567	-0.180855
C156	C	0.742033	0.454853	-0.225100
C157	C	0.737083	0.406974	-0.274327
C158	C	0.687863	0.454824	-0.279309
C159	C	0.643597	0.550543	-0.235063
C160	C	0.227524	1.450392	0.180890
C161	C	0.183257	1.546136	0.225136
C162	C	0.188207	1.594020	0.274363
C163	C	0.237428	1.546164	0.279344
C164	C	0.281693	1.450428	0.235099
C165	C	0.281777	1.450302	-0.027087
C166	C	0.237531	1.546027	-0.027087
C167	C	0.188298	1.593913	0.000007
C168	C	0.183312	1.546079	0.027107
C169	C	0.227557	1.450363	0.027110
C170	C	0.489697	1.450322	0.180900
C171	C	0.489695	1.546027	0.225148
C172	C	0.462588	1.593913	0.274374
C173	C	0.435486	1.546080	0.279352
C174	C	0.435491	1.450371	0.235105
H175	H	0.272666	1.000550	0.069543
F176	F	0.518674	0.403962	-0.331698
F177	F	0.794412	0.403941	-0.219788
F178	F	0.222244	1.399445	0.128503
H179	H	0.143184	1.585084	0.221070
F180	F	0.406634	1.597066	0.331746
H181	H	0.530259	0.262557	-0.067575
F182	F	0.591121	0.601601	0.055966
F183	F	0.784199	0.305099	-0.321413
H184	H	-0.347379	1.000421	-0.069500
H185	H	0.413519	0.589560	-0.140805
F186	F	0.421882	0.541629	0.040774
H187	H	0.511765	1.584963	0.221085
F188	F	0.421880	0.635629	0.040768
F189	F	0.462586	1.695780	0.321461
F190	F	0.130910	1.597053	0.055939
F191	F	0.141212	1.695783	-0.000001
F192	F	-0.352936	1.000458	0.079133
F193	F	0.682603	0.403854	-0.331704
F194	F	0.682442	0.404066	0.055984
H195	H	0.413419	1.411443	0.239166
F196	F	0.242688	1.597136	0.331739
F197	F	0.518550	1.399375	0.128515
H198	H	0.321765	1.411468	0.239161
H199	H	-0.267129	1.000473	0.069556
H200	H	0.773016	0.329145	0.000058
H201	H	0.701807	0.589536	-0.140775
F202	F	0.222241	1.399461	0.055949
H203	H	0.192414	1.000484	-0.069515
H204	H	0.192410	1.000511	0.069542
F205	F	0.541701	1.000530	0.184445
H206	H	0.413544	0.415923	-0.221100
F207	F	0.462736	0.305171	-0.321460
H208	H	0.603526	0.589482	-0.239127
H209	H	0.532190	1.000453	0.729768
H210	H	0.241601	1.584957	-0.049157
F211	F	0.539831	0.437214	-0.077153
F212	F	0.074665	1.000515	0.117448
H213	H	0.152159	1.671973	0.310386
H214	H	-0.011122	1.000493	0.107865
F215	F	-0.261578	1.000399	-0.079092
H216	H	0.321861	1.411321	-0.049154
F217	F	-0.016610	1.000374	-0.117429
F218	F	0.278222	1.000486	-0.079097
F219	F	0.074717	1.000373	-0.117431
H220	H	-0.063593	1.000485	0.107866
F221	F	0.703049	0.601483	-0.055914
F222	F	-0.149397	1.000473	0.117444
H223	H	-0.143826	1.000388	-0.107832
F224	F	-0.058033	1.000394	-0.117416
H225	H	0.511870	0.589545	-0.239112
H226	H	0.782070	0.415904	-0.049113
H227	H	0.393134	1.000475	0.729808
F228	F	0.383560	1.000499	0.815611
H229	H	0.354798	1.000509	0.606550
F230	F	0.345206	1.000516	0.520761
H231	H	0.532198	1.000439	0.810041
F232	F	0.383491	1.000561	0.275812
H233	H	0.532138	1.000491	0.270234
F234	F	0.580082	1.000399	0.520695
F235	F	0.383487	1.000565	0.184472
F236	F	0.345202	1.000519	0.479349
F237	F	0.580094	1.000374	0.612016
H238	H	0.570473	1.000446	0.393495
F239	F	0.345197	1.000526	0.388015
H240	H	0.570482	1.000432	0.473755
