data_functionalizedCrystal
_audit_creation_method	'MofGen! by Chris Wilmer'
_symmetry_space_group_name_H-M	'P1'
_symmetry_Int_Tables_number	1
_symmetry_cell_setting	triclinic
loop_
_symmetry_equiv_pos_as_xyz
  x,y,z
_cell_length_a	14.853558
_cell_length_b	15.625325
_cell_length_c	13.330367
_cell_angle_alpha	108.077594
_cell_angle_beta	89.992972
_cell_angle_gamma	83.950105
loop_
_atom_site_label
_atom_site_type_symbol
_atom_site_fract_x
_atom_site_fract_y
_atom_site_fract_z
O1	O	1.196373	0.117660	-0.040604
O2	O	0.933912	0.131690	-0.035505
O3	O	1.072154	-0.006551	-0.085790
O4	O	1.058130	0.255901	0.009681
O5	O	1.072134	-0.006554	0.081056
O6	O	0.933892	0.131687	0.131341
O7	O	1.196353	0.117657	0.126242
Cu8	Cu	1.065120	0.124672	0.144026
Cu9	Cu	1.065144	0.124675	-0.053289
O10	O	1.058110	0.255898	0.176527
C11	C	0.900313	0.131054	0.047687
C12	C	0.800229	0.129154	0.046994
C13	C	1.071510	-0.040140	-0.014587
C14	C	1.069607	-0.140221	-0.051000
C15	C	0.753220	0.128264	-0.044282
C16	C	0.753196	0.128250	0.137616
C17	C	0.659162	0.126460	0.136966
C18	C	0.612153	0.125570	0.045691
C19	C	0.659178	0.126471	-0.044935
C20	C	0.612132	0.125550	0.227588
C21	C	0.518093	0.123758	0.226941
C22	C	0.471081	0.122875	0.135667
C23	C	0.518111	0.123777	0.045037
C24	C	0.471102	0.122887	-0.046239
C25	C	0.518129	0.123796	-0.136867
C26	C	0.612166	0.125588	-0.136210
C27	C	0.377045	0.121083	0.135010
C28	C	0.377060	0.121094	-0.046892
C29	C	1.063320	-0.469381	0.283997
C30	C	1.061536	-0.563423	0.249765
C31	C	1.061558	-0.563409	0.067880
C32	C	1.063338	-0.469365	0.102097
C33	C	1.064219	-0.422359	0.210157
C34	C	1.064237	-0.422343	0.028257
C35	C	1.066021	-0.328307	0.062471
C36	C	1.066906	-0.281295	0.170526
C37	C	1.066003	-0.328323	0.244371
C38	C	1.063362	-0.469352	-0.079803
C39	C	1.064261	-0.422329	-0.153643
C40	C	1.066039	-0.328292	-0.119429
C41	C	1.066923	-0.281279	-0.011374
C42	C	1.066941	-0.281263	-0.193274
C43	C	1.068725	-0.187228	-0.159060
C44	C	1.068707	-0.187244	0.022841
C45	C	1.229951	0.118293	0.043048
C46	C	1.330036	0.120193	0.043734
C47	C	1.058755	0.289488	0.105322
C48	C	1.060658	0.389568	0.141728
N49	N	1.065110	0.124669	0.282806
N50	N	1.065161	0.124671	-0.192072
C51	C	1.003928	0.185865	0.777689
C52	C	1.126385	0.063479	0.733139
C53	C	1.126375	0.063477	0.628120
C54	C	1.065141	0.124670	0.597881
C55	C	1.003917	0.185865	0.672661
C56	C	1.187603	0.002288	0.553334
C57	C	1.187596	0.002283	0.448308
C58	C	1.126357	0.063473	0.418066
C59	C	1.065131	0.124671	0.492853
C60	C	1.003897	0.185864	0.462614
C61	C	0.942665	0.247058	0.537398
C62	C	0.942678	0.247055	0.642419
C63	C	1.126344	0.063476	0.313045
C64	C	1.003887	0.185865	0.357586
H65	H	0.338791	0.120375	-0.121219
H66	H	0.791513	0.129008	-0.118068
H67	H	0.338758	0.120352	0.208801
Br68	Br	1.060325	-0.627239	0.349989
Br69	Br	1.060955	-0.596975	-0.126239
H70	H	1.063546	-0.460615	-0.241626
Br71	Br	0.675933	0.126758	0.351454
H72	H	1.060843	-0.601695	-0.020103
Br73	Br	0.454324	0.122562	-0.260746
H74	H	0.892827	0.296878	0.703314
Br75	Br	0.675995	0.126810	-0.259198
H76	H	0.954071	0.235686	0.838580
Br77	Br	1.069953	-0.123406	-0.259272
H78	H	1.176244	0.013662	0.757765
Br79	Br	0.816995	0.129453	0.261483
H80	H	1.237462	-0.047529	0.577960
Br81	Br	1.270692	-0.080763	0.346822
H82	H	0.479811	0.123018	0.300736
H83	H	1.176202	0.013656	0.252162
H84	H	1.066232	-0.319551	-0.281257
H85	H	0.892812	0.296885	0.512767
Br86	Br	1.069899	-0.123439	0.169496
Br87	Br	1.067195	-0.264519	0.391026
Br88	Br	1.064511	-0.405577	0.430652
H89	H	0.954019	0.235692	0.332974
H90	H	1.068362	-0.204726	0.198382
