data_functionalizedCrystal
_audit_creation_method	'MofGen! by Chris Wilmer'
_symmetry_space_group_name_H-M	'P1'
_symmetry_Int_Tables_number	1
_symmetry_cell_setting	triclinic
loop_
_symmetry_equiv_pos_as_xyz
  x,y,z
_cell_length_a	8.597340
_cell_length_b	11.792241
_cell_length_c	7.088668
_cell_angle_alpha	96.929045
_cell_angle_beta	89.217760
_cell_angle_gamma	84.766049
loop_
_atom_site_label
_atom_site_type_symbol
_atom_site_fract_x
_atom_site_fract_y
_atom_site_fract_z
O1	O	2.067312	0.157356	-0.181568
O2	O	1.617247	0.175277	-0.107422
O3	O	1.853200	0.001099	-0.146308
O4	O	1.831359	0.331534	-0.142682
O5	O	1.824658	-0.019713	-0.459597
O6	O	1.588705	0.154465	-0.420711
O7	O	2.038770	0.136543	-0.494857
Cu8	Cu	1.811131	0.143604	-0.486390
Cu9	Cu	1.844886	0.168217	-0.115889
O10	O	1.802817	0.310721	-0.455972
C11	C	1.545358	0.164106	-0.254574
C12	C	1.373674	0.161812	-0.226290
C13	C	1.837557	-0.051592	-0.302725
C14	C	1.833450	-0.177588	-0.302047
C15	C	1.825901	-0.408267	-0.300771
C16	C	1.830096	-0.279900	-0.301480
C17	C	2.110660	0.147715	-0.347701
C18	C	2.282345	0.150010	-0.375973
C19	C	1.818460	0.363413	-0.299549
C20	C	1.822568	0.489410	-0.300216
N21	N	1.787402	0.126291	-0.746982
N22	N	1.868628	0.185520	0.144701
H23	H	1.335498	0.141651	-0.525768
H24	H	1.952779	0.246895	-0.787457
H25	H	1.320514	0.170163	-0.076485
H26	H	1.703265	0.064914	-0.814817
