data_functionalizedCrystal
_audit_creation_method	'MofGen! by Chris Wilmer'
_symmetry_space_group_name_H-M	'P1'
_symmetry_Int_Tables_number	1
_symmetry_cell_setting	triclinic
loop_
_symmetry_equiv_pos_as_xyz
  x,y,z
_cell_length_a	17.077404
_cell_length_b	13.897448
_cell_length_c	17.077396
_cell_angle_alpha	90.027368
_cell_angle_beta	90.019501
_cell_angle_gamma	90.017917
loop_
_atom_site_label
_atom_site_type_symbol
_atom_site_fract_x
_atom_site_fract_y
_atom_site_fract_z
Zn1	Zn	1.200083	-0.384009	0.443849
Zn2	Zn	1.200002	-0.545322	0.312585
Zn3	Zn	1.068815	-0.384043	0.312597
Zn4	Zn	1.068795	-0.545264	0.443809
O5	O	1.134424	-0.464660	0.378210
O6	O	1.309919	-0.405417	0.426448
O7	O	1.182574	-0.523966	0.202740
O8	O	1.086270	-0.249057	0.330029
O9	O	1.309860	-0.523933	0.330010
O10	O	1.182712	-0.249032	0.426459
O11	O	1.086192	-0.405475	0.202748
O12	O	0.958965	-0.405420	0.329990
O13	O	1.086236	-0.523835	0.553661
O14	O	0.958950	-0.523868	0.426391
O15	O	1.182693	-0.405362	0.553690
O16	O	1.182555	-0.680296	0.329971
O17	O	1.086157	-0.680254	0.426380
C18	C	0.930476	-0.464642	0.378188
C19	C	0.843226	-0.464658	0.378198
C20	C	1.134366	-0.715274	0.378187
C21	C	1.134414	-0.822488	0.378204
C22	C	0.802249	-0.526427	0.428313
C23	C	0.720268	-0.526429	0.428326
C24	C	0.679267	-0.464666	0.378218
C25	C	0.720250	-0.402890	0.328100
C26	C	0.802229	-0.402884	0.328092
C27	C	0.549380	-0.402909	0.328119
C28	C	0.467395	-0.402916	0.328126
C29	C	0.467419	-0.526454	0.428353
C30	C	0.549398	-0.526448	0.428345
C31	C	0.590376	-0.464673	0.378226
C32	C	1.134496	-1.018783	0.378253
C33	C	1.134448	-0.909550	0.378228
C34	C	1.339168	-0.464678	0.378232
C35	C	1.426418	-0.464686	0.378242
C36	C	1.134471	-0.464588	0.582954
C37	C	1.134491	-0.464558	0.670204
C38	C	1.134502	-0.213067	0.378250
C39	C	1.134536	-0.105853	0.378267
C40	C	1.134421	-0.464661	0.174262
C41	C	1.134553	-0.464419	0.087013
C42	C	1.184718	-0.402864	0.711211
C43	C	1.184728	-0.402832	0.793191
C44	C	1.134514	-0.464500	0.834164
C45	C	1.084281	-0.526197	0.793151
C46	C	1.084268	-0.526223	0.711172
C47	C	1.084313	-0.526139	0.964021
C48	C	1.084326	-0.526114	1.046006
C49	C	1.184772	-0.402747	1.046040
C50	C	1.184759	-0.402774	0.964061
C51	C	1.134528	-0.464472	0.923055
H52	H	0.835626	-0.576725	0.469114
H53	H	1.225629	-0.352596	0.826575
H54	H	0.582779	-0.576746	0.469142
H55	H	0.686908	-0.576729	0.469134
C56	C	1.239308	-0.335717	0.919717
C57	C	1.283286	-0.281659	0.973173
C58	C	1.333535	-0.219865	0.932351
H59	H	1.273561	-0.372523	0.887733
H60	H	1.209303	-0.293646	0.887756
H61	H	1.313288	-0.323724	1.005120
H62	H	1.249054	-0.244832	1.005158
H63	H	1.303531	-0.177794	0.900390
H64	H	1.367783	-0.256679	0.900369
H65	H	1.363376	-0.183173	0.968614
C66	C	1.239213	-0.335781	1.090699
C67	C	1.228458	-0.348926	1.171263
C68	C	1.278585	-0.287246	1.212430
H69	H	1.291983	-0.349839	1.077373
H70	H	1.227730	-0.270957	1.077311
H71	H	1.239947	-0.413735	1.184646
H72	H	1.175699	-0.334861	1.184613
H73	H	1.267102	-0.222422	1.199041
H74	H	1.331352	-0.301309	1.199097
H75	H	1.271289	-0.296150	1.267096
H76	H	0.582741	-0.352597	0.287314
H77	H	1.043436	-0.576327	1.079364
H78	H	0.686860	-0.352597	0.287305
C79	C	0.846580	-0.335789	0.273589
C80	C	0.793128	-0.281720	0.229692
C81	C	0.833955	-0.219909	0.179468
H82	H	0.878586	-0.293718	0.303584
H83	H	0.878519	-0.372614	0.239291
H84	H	0.761202	-0.244898	0.263986
H85	H	0.761121	-0.323765	0.199681
H86	H	0.865894	-0.256734	0.145169
H87	H	0.865959	-0.177845	0.209469
H88	H	0.797694	-0.183223	0.149672
C89	C	1.029892	-0.593269	0.837675
C90	C	1.074327	-0.655102	0.884720
C91	C	1.024252	-0.716913	0.925737
H92	H	0.995692	-0.556469	0.869721
H93	H	0.999988	-0.630072	0.801535
H94	H	1.104217	-0.618303	0.920856
H95	H	1.108524	-0.691923	0.852694
H96	H	0.994348	-0.753716	0.889597
H97	H	0.990054	-0.680105	0.957778
H98	H	1.054394	-0.758879	0.957656
H99	H	1.043360	-0.576451	0.677786
H100	H	1.043396	-0.576365	0.930636
H101	H	0.434051	-0.576751	0.469164
H102	H	1.225611	-0.352650	0.677857
C103	C	0.423018	-0.335749	0.273699
C104	C	0.476448	-0.281623	0.229825
C105	C	0.435597	-0.219728	0.179687
H106	H	0.391013	-0.372486	0.239376
H107	H	0.391076	-0.293726	0.303779
H108	H	0.508378	-0.323640	0.199748
H109	H	0.508455	-0.244866	0.264128
H110	H	0.403655	-0.177705	0.209767
H111	H	0.403594	-0.256473	0.145369
H112	H	0.471843	-0.182990	0.149918
