data_functionalizedCrystal
_audit_creation_method	'MofGen! by Chris Wilmer'
_symmetry_space_group_name_H-M	'P1'
_symmetry_Int_Tables_number	1
_symmetry_cell_setting	triclinic
loop_
_symmetry_equiv_pos_as_xyz
  x,y,z
_cell_length_a	16.992694
_cell_length_b	16.992695
_cell_length_c	15.455446
_cell_angle_alpha	87.143805
_cell_angle_beta	92.852501
_cell_angle_gamma	90.668223
loop_
_atom_site_label
_atom_site_type_symbol
_atom_site_fract_x
_atom_site_fract_y
_atom_site_fract_z
O1	O	-1.047630	-0.170137	0.072022
O2	O	-0.819228	-0.168307	0.072048
O3	O	-0.932514	-0.055022	0.072028
O4	O	-0.934344	-0.283423	0.072042
O5	O	-0.938955	-0.048566	-0.072232
O6	O	-0.825669	-0.161852	-0.072213
O7	O	-1.054071	-0.163682	-0.072238
Cu8	Cu	-0.940458	-0.162177	-0.085397
Cu9	Cu	-0.932841	-0.169812	0.085207
O10	O	-0.940785	-0.276967	-0.072219
C11	C	-0.793089	-0.162724	-0.000079
C12	C	-0.705604	-0.155696	-0.000070
C13	C	-0.933378	-0.022434	-0.000102
C14	C	-0.926350	0.065050	-0.000101
N15	N	-0.945821	-0.156807	-0.205391
C16	C	-1.080210	-0.169265	-0.000109
C17	C	-1.167695	-0.176294	-0.000113
C18	C	-0.659613	-0.223514	-0.000066
C19	C	-0.577412	-0.216904	-0.000079
C20	C	-0.541204	-0.142476	-0.000088
C21	C	-0.587202	-0.074653	-0.000094
C22	C	-0.669401	-0.081263	-0.000088
C23	C	-0.295891	-0.115081	-0.000113
C24	C	-0.213686	-0.108476	-0.000116
C25	C	-0.203902	-0.250728	-0.000103
C26	C	-0.286103	-0.257331	-0.000091
C27	C	-0.332093	-0.189508	-0.000102
N28	N	-0.457183	-0.135719	-0.000098
N29	N	-0.416114	-0.196266	-0.000098
C30	C	-0.939920	-0.309555	-0.000087
C31	C	-0.946949	-0.397040	-0.000082
C32	C	-0.994168	0.111042	-0.000109
C33	C	-0.987559	0.193242	-0.000100
C34	C	-0.913130	0.229450	-0.000089
C35	C	-0.845307	0.183452	-0.000078
C36	C	-0.851917	0.101253	-0.000081
C37	C	-0.885735	0.474764	-0.000074
C38	C	-0.879131	0.556969	-0.000074
C39	C	-1.021383	0.566753	-0.000094
C40	C	-1.027987	0.484552	-0.000102
C41	C	-0.960163	0.438561	-0.000087
N42	N	-0.906373	0.313472	-0.000082
N43	N	-0.966921	0.354541	-0.000087
C44	C	-0.975622	-0.127069	-0.749391
C45	C	-0.971548	-0.131139	-0.658584
C46	C	-0.919332	-0.183312	-0.613187
C47	C	-0.871192	-0.231424	-0.658602
C48	C	-0.875270	-0.227358	-0.749407
C49	C	-0.901759	-0.200853	-0.341611
C50	C	-0.897683	-0.204914	-0.250800
C51	C	-0.998041	-0.104629	-0.250788
C52	C	-1.002111	-0.100564	-0.341595
C53	C	-0.953974	-0.148680	-0.387001
N54	N	-0.915165	-0.187471	-0.520368
N55	N	-0.958145	-0.144524	-0.479819
N56	N	-0.927483	-0.175176	0.205201
H57	H	-0.539970	-0.272129	-0.000075
H58	H	-1.037233	-0.065457	-0.213809
H59	H	-0.784706	0.212939	-0.000063
H60	H	-1.042784	0.230685	-0.000109
H61	H	-1.010747	-0.091967	-0.621613
C62	C	-0.346469	-0.040474	-0.000112
C63	C	-0.342551	0.022467	-0.075022
C64	C	-0.393132	0.097079	-0.075018
C65	C	-0.447630	0.108748	-0.000104
C66	C	-0.451551	0.045805	0.074811
C67	C	-0.400970	-0.028807	0.074807
H68	H	-0.302206	0.013831	-0.130482
H69	H	-0.390229	0.143673	-0.130476
H70	H	-0.485073	0.163980	-0.000102
H71	H	-0.491896	0.054441	0.130272
H72	H	-0.403873	-0.075401	0.130265
C73	C	-1.109858	0.444725	-0.000098
C74	C	-1.184459	0.495314	-0.000095
C75	C	-1.266332	0.455486	-0.000088
C76	C	-1.273603	0.365070	-0.000085
C77	C	-1.199000	0.314477	-0.000088
C78	C	-1.117128	0.354304	-0.000095
H79	H	-1.179079	0.562250	-0.000097
H80	H	-1.321558	0.492940	-0.000086
H81	H	-1.334210	0.335588	-0.000080
H82	H	-1.204381	0.247541	-0.000086
H83	H	-1.061901	0.316850	-0.000097
C84	C	-0.811129	0.424186	-0.000072
C85	C	-0.748191	0.428101	0.074837
C86	C	-0.673580	0.377521	0.074834
C87	C	-0.661905	0.323026	-0.000079
C88	C	-0.724845	0.319108	-0.074994
C89	C	-0.799456	0.369688	-0.074991
H90	H	-0.756832	0.468443	0.130297
H91	H	-0.626988	0.380421	0.130292
H92	H	-0.606673	0.285583	-0.000081
H93	H	-0.716204	0.278766	-0.130454
H94	H	-0.846048	0.366788	-0.130448
H95	H	-0.855160	-0.247402	-0.213842
H96	H	-0.862563	-0.240029	-0.378574
H97	H	-0.796692	0.063808	-0.000073
H98	H	-1.018138	-0.084581	-0.786347
C99	C	-0.813752	-0.288816	-0.608671
C100	C	-0.809258	-0.293291	-0.508789
C101	C	-0.751815	-0.350682	-0.458860
C102	C	-0.698866	-0.403600	-0.508814
C103	C	-0.703358	-0.399127	-0.608702
C104	C	-0.760802	-0.341735	-0.658630
H105	H	-0.848456	-0.254116	-0.471805
H106	H	-0.748489	-0.353993	-0.384917
H107	H	-0.656343	-0.446084	-0.471854
H108	H	-0.664161	-0.438301	-0.645685
H109	H	-0.764127	-0.338425	-0.732574
C110	C	-1.059551	-0.043178	-0.391534
C111	C	-1.112524	0.009727	-0.341594
C112	C	-1.169962	0.067115	-0.391536
C113	C	-1.174426	0.071599	-0.491418
C114	C	-1.121451	0.018692	-0.541364
C115	C	-1.064014	-0.038696	-0.491421
H116	H	-1.109221	0.006410	-0.267651
H117	H	-1.209177	0.106280	-0.354563
H118	H	-1.216945	0.114081	-0.528389
H119	H	-1.124754	0.022010	-0.615307
H120	H	-1.024798	-0.077861	-0.528395
H121	H	-0.689087	-0.284121	-0.000058
H122	H	-0.315577	-0.317939	-0.000074
H123	H	-0.557715	-0.014051	-0.000114
H124	H	-0.166449	-0.305945	-0.000096
H125	H	-0.836072	-0.266533	-0.786378
H126	H	-0.184209	-0.047865	-0.000123
H127	H	-0.706846	-0.026038	-0.000090
H128	H	-1.054776	0.081568	-0.000124
H129	H	-1.076601	0.604207	-0.000106
H130	H	-0.818520	0.586447	-0.000079
