data_functionalizedCrystal
_audit_creation_method	'MofGen! by Chris Wilmer'
_symmetry_space_group_name_H-M	'P1'
_symmetry_Int_Tables_number	1
_symmetry_cell_setting	triclinic
loop_
_symmetry_equiv_pos_as_xyz
  x,y,z
_cell_length_a	17.699083
_cell_length_b	18.366186
_cell_length_c	19.288865
_cell_angle_alpha	90.011479
_cell_angle_beta	96.790368
_cell_angle_gamma	89.996982
loop_
_atom_site_label
_atom_site_type_symbol
_atom_site_fract_x
_atom_site_fract_y
_atom_site_fract_z
O1	O	1.003957	-0.060456	-0.087837
O2	O	1.503957	0.439544	0.412163
O3	O	0.783563	-0.060481	-0.099265
O4	O	1.283563	0.439519	0.400735
O5	O	0.900128	-0.060453	0.007572
O6	O	1.400128	0.439547	0.507572
O7	O	0.887392	-0.060484	-0.194674
O8	O	1.387392	0.439516	0.305326
O9	O	0.900109	0.060646	0.007577
O10	O	1.400109	0.560646	0.507577
O11	O	0.783543	0.060618	-0.099260
O12	O	1.283543	0.560618	0.400740
O13	O	1.003937	0.060643	-0.087832
O14	O	1.503937	0.560643	0.412168
Zn15	Zn	0.893737	0.079858	-0.093545
Zn16	Zn	1.393737	0.579858	0.406455
Zn17	Zn	0.893763	-0.079696	-0.093552
Zn18	Zn	1.393763	0.420304	0.406448
O19	O	0.887372	0.060616	-0.194668
O20	O	1.387372	0.560616	0.305332
C21	C	0.755356	0.000066	-0.098853
C22	C	1.255356	0.500066	0.401147
C23	C	0.671340	0.000057	-0.097624
C24	C	1.171340	0.500057	0.402376
N25	N	0.893725	0.188749	-0.093540
N26	N	1.393725	0.688749	0.406460
N27	N	0.893781	-0.188587	-0.093551
N28	N	1.393781	0.311413	0.406449
C29	C	0.622631	0.000048	-0.160335
C30	C	1.122631	0.500048	0.339665
C31	C	0.543689	0.000057	-0.159177
C32	C	1.043689	0.500057	0.340823
C33	C	0.513458	0.000071	-0.095307
C34	C	1.013458	0.500071	0.404693
C35	C	0.562174	0.000082	-0.032591
C36	C	1.062174	0.500082	0.467409
C37	C	0.641114	0.000078	-0.033750
C38	C	1.141114	0.500078	0.466250
C39	C	0.243817	0.000101	-0.027915
C40	C	0.743817	0.500101	0.472085
C41	C	0.164871	0.000103	-0.026761
C42	C	0.664871	0.500103	0.473239
C43	C	0.146393	0.000080	-0.153342
C44	C	0.646393	0.500080	0.346658
C45	C	0.225333	0.000076	-0.154501
C46	C	0.725333	0.500076	0.345499
C47	C	0.274041	0.000091	-0.091785
C48	C	0.774041	0.500091	0.408215
C49	C	0.359639	0.000082	-0.093042
C50	C	0.859639	0.500082	0.406958
C51	C	0.427862	0.000075	-0.094049
C52	C	0.927862	0.500075	0.405951
C53	C	1.032144	0.000095	-0.088244
C54	C	1.532144	0.500095	0.411756
C55	C	1.116160	0.000099	-0.089472
C56	C	1.616160	0.500099	0.410528
C57	C	0.899709	0.000098	0.033451
C58	C	1.399709	0.500098	0.533451
C59	C	0.898478	0.000105	0.110556
C60	C	1.398478	0.500105	0.610556
C61	C	0.945357	0.226862	-0.046256
C62	C	1.445357	0.726862	0.453744
C63	C	0.945362	0.303090	-0.046253
C64	C	1.445362	0.803090	0.453747
C65	C	0.893742	0.341202	-0.093545
C66	C	1.393742	0.841202	0.406455
C67	C	0.842100	0.303080	-0.140833
C68	C	1.342100	0.803080	0.359167
C69	C	0.842092	0.226854	-0.140830
C70	C	1.342092	0.726854	0.359170
C71	C	0.883610	0.461952	-0.156821
C72	C	1.383610	0.961952	0.343179
C73	C	0.883624	0.538177	-0.156825
C74	C	1.383624	1.038177	0.343175
C75	C	0.893763	0.576309	-0.093554
C76	C	1.393763	1.076309	0.406446
C77	C	0.903905	0.538207	-0.030277
C78	C	1.403905	1.038207	0.469723
C79	C	0.903897	0.461981	-0.030274
C80	C	1.403897	0.961981	0.469726
C81	C	0.893745	0.423857	-0.093554
C82	C	1.393745	0.923857	0.406446
C83	C	0.945403	0.697077	-0.046263
C84	C	1.445403	1.197077	0.453737
C85	C	0.945403	0.773306	-0.046259
C86	C	1.445403	1.273306	0.453741
C87	C	0.842145	0.773295	-0.140845
C88	C	1.342145	1.273295	0.359155
C89	C	0.842141	0.697067	-0.140843
C90	C	1.342141	1.197067	0.359157
C91	C	0.893775	0.658963	-0.093553
C92	C	1.393775	1.158963	0.406447
C93	C	0.887792	0.000062	-0.220548
C94	C	1.387792	0.500062	0.279452
C95	C	0.889022	0.000051	-0.297653
C96	C	1.389022	0.500051	0.202347
C97	C	0.966874	0.000116	0.155172
C98	C	1.466874	0.500116	0.655172
C99	C	0.965718	0.000104	0.227620
C100	C	1.465718	0.500104	0.727620
C101	C	0.896163	0.000096	0.255450
C102	C	1.396163	0.500096	0.755450
C103	C	0.827759	0.000081	0.210825
C104	C	1.327759	0.500081	0.710825
C105	C	0.828916	0.000085	0.138378
C106	C	1.328916	0.500085	0.638378
C107	C	0.841478	0.042508	0.363804
C108	C	1.341478	0.542508	0.863804
C109	C	0.840323	0.042509	0.436250
C110	C	1.340323	0.542509	0.936250
C111	C	0.892589	0.000079	0.478900
C112	C	1.392589	0.500079	0.978900
C113	C	0.946024	-0.042341	0.449097
C114	C	1.446024	0.457659	0.949097
C115	C	0.947181	-0.042336	0.376650
C116	C	1.447181	0.457664	0.876650
C117	C	0.894900	0.000091	0.334006
C118	C	1.394900	0.500091	0.834006
C119	C	0.959736	0.000077	0.602073
C120	C	1.459736	0.500077	1.102073
C121	C	0.958578	0.000061	0.674522
C122	C	1.458578	0.500061	1.174522
C123	C	0.820616	0.000044	0.657725
C124	C	1.320616	0.500044	1.157725
C125	C	0.821777	0.000053	0.585277
C126	C	1.321777	0.500053	1.085277
C127	C	0.891339	0.000073	0.557456
C128	C	1.391339	0.500073	1.057456
H129	H	0.647238	0.000036	-0.212346
H130	H	1.147238	0.500036	0.287654
H131	H	0.875370	0.569194	-0.208349
H132	H	1.375370	1.069194	0.291651
C133	C	0.785323	0.184929	-0.192879
C134	C	1.285323	0.684929	0.307121
N135	N	0.742576	0.153349	-0.232094
N136	N	1.242576	0.653349	0.267906
H137	H	0.106724	0.000072	-0.204407
H138	H	0.606724	0.500072	0.295593
H139	H	0.504033	0.000049	-0.210242
H140	H	1.004033	0.500049	0.289758
H141	H	0.987398	0.195839	-0.007747
H142	H	1.487398	0.695839	0.492253
H143	H	0.773219	0.000076	0.102051
H144	H	1.273219	0.500076	0.602051
C145	C	1.002171	0.345022	0.005759
C146	C	1.502171	0.845022	0.505759
N147	N	1.044962	0.376603	0.044931
N148	N	1.544962	0.876603	0.544931
C149	C	0.915043	0.420072	0.039330
C150	C	1.415043	0.920072	0.539330
N151	N	0.923434	0.388506	0.091757
N152	N	1.423434	0.888506	0.591757
H153	H	0.249942	0.000062	-0.206510
H154	H	0.749942	0.500062	0.293490
H155	H	1.021416	0.000111	0.263953
H156	H	1.521416	0.500111	0.763953
C157	C	0.297386	0.000113	0.041074
C158	C	0.797386	0.500113	0.541074
N159	N	0.337738	0.000121	0.093040
N160	N	0.837738	0.500121	0.593040
C161	C	0.783979	0.089190	0.316896
C162	C	1.283979	0.589190	0.816896
N163	N	0.740674	0.124351	0.281566
N164	N	1.240674	0.624351	0.781566
C165	C	0.131619	0.000127	0.043505
C166	C	0.631619	0.500127	0.543505
N167	N	0.106574	0.000146	0.096426
N168	N	0.606574	0.500146	0.596426
C169	C	0.528917	0.000098	0.037667
C170	C	1.028917	0.500098	0.537667
N171	N	0.503869	0.000108	0.090587
N172	N	1.003869	0.500108	0.590587
H173	H	0.875340	0.430911	-0.208347
H174	H	1.375340	0.930911	0.291653
C175	C	0.915058	0.580147	0.039327
C176	C	1.415058	1.080147	0.539327
N177	N	0.923458	0.611740	0.091751
N178	N	1.423458	1.111740	0.591751
C179	C	0.785314	0.345005	-0.192853
C180	C	1.285314	0.845005	0.307147
N181	N	0.742539	0.376583	-0.232033
N182	N	1.242539	0.876583	0.267967
C183	C	1.002193	0.655159	0.005764
C184	C	1.502193	1.155159	0.505764
N185	N	1.044967	0.623589	0.044952
N186	N	1.544967	1.123589	0.544952
H187	H	0.987446	0.804338	-0.007751
H188	H	1.487446	1.304338	0.492249
H189	H	0.680773	0.000085	0.017316
H190	H	1.180773	0.500085	0.517316
C191	C	0.751248	0.000077	0.241439
C192	C	1.251248	0.500077	0.741439
N193	N	0.693617	0.000074	0.264497
N194	N	1.193617	0.500074	0.764497
H195	H	0.800112	0.804326	-0.179350
H196	H	1.300112	1.304326	0.320650
H197	H	0.800101	0.666034	-0.179349
H198	H	1.300101	1.166034	0.320651
C199	C	0.744104	0.000033	0.688334
C200	C	1.244104	0.500033	1.188334
N201	N	0.686474	0.000022	0.711391
N202	N	1.186474	0.500022	1.211391
C203	C	1.005952	-0.089003	0.343868
C204	C	1.505952	0.410997	0.843868
N205	N	1.050217	-0.124156	0.319177
N206	N	1.550217	0.375844	0.819177
H207	H	0.766082	0.000048	0.548950
H208	H	1.266082	0.500048	1.048950
H209	H	1.023517	0.000130	0.132524
H210	H	1.523517	0.500130	0.632524
H211	H	0.988584	-0.076891	0.483821
H212	H	1.488584	0.423109	0.983821
C213	C	0.781545	0.089171	0.469026
C214	C	1.281545	0.589171	0.969026
N215	N	0.737270	0.124317	0.493712
N216	N	1.237270	0.624317	0.993712
C217	C	1.036255	0.000088	0.571466
C218	C	1.536255	0.500088	1.071466
N219	N	1.093890	0.000093	0.548416
N220	N	1.593890	0.500093	1.048416
H221	H	1.014276	0.000066	0.710848
H222	H	1.514276	0.500066	1.210848
