data_functionalizedCrystal
_audit_creation_method	'MofGen! by Chris Wilmer'
_symmetry_space_group_name_H-M	'P1'
_symmetry_Int_Tables_number	1
_symmetry_cell_setting	triclinic
loop_
_symmetry_equiv_pos_as_xyz
  x,y,z
_cell_length_a	18.215407
_cell_length_b	18.215405
_cell_length_c	11.169409
_cell_angle_alpha	89.961391
_cell_angle_beta	89.978878
_cell_angle_gamma	90.021279
loop_
_atom_site_label
_atom_site_type_symbol
_atom_site_fract_x
_atom_site_fract_y
_atom_site_fract_z
Zn1	Zn	1.125108	-0.292975	-0.678508
Zn2	Zn	1.458441	0.040358	-0.345174
Zn3	Zn	1.791775	0.373692	-0.011841
Zn4	Zn	1.125010	-0.416066	-0.477802
Zn5	Zn	1.458343	-0.082733	-0.144469
Zn6	Zn	1.791676	0.250601	0.188864
Zn7	Zn	1.002032	-0.293012	-0.477840
Zn8	Zn	1.335365	0.040321	-0.144507
Zn9	Zn	1.668698	0.373654	0.188827
Zn10	Zn	1.002009	-0.415999	-0.678445
Zn11	Zn	1.335342	-0.082666	-0.345112
Zn12	Zn	1.668675	0.250668	-0.011779
O13	O	1.063540	-0.354513	-0.578149
O14	O	1.396873	-0.021180	-0.244816
O15	O	1.730206	0.312154	0.088518
O16	O	1.228079	-0.309316	-0.651894
O17	O	1.561413	0.024018	-0.318561
O18	O	1.894746	0.357351	0.014773
O19	O	1.108665	-0.399786	-0.309858
O20	O	1.441998	-0.066453	0.023476
O21	O	1.775331	0.266880	0.356809
O22	O	1.018409	-0.190023	-0.504501
O23	O	1.351742	0.143310	-0.171168
O24	O	1.685075	0.476644	0.162166
O25	O	1.228007	-0.399750	-0.504437
O26	O	1.561340	-0.066417	-0.171103
O27	O	1.894674	0.266917	0.162230
O28	O	1.108832	-0.189996	-0.651931
O29	O	1.442166	0.143338	-0.318597
O30	O	1.775499	0.476671	0.014736
O31	O	1.018313	-0.309379	-0.309885
O32	O	1.351647	0.023954	0.023448
O33	O	1.684980	0.357287	0.356781
O34	O	0.899044	-0.309314	-0.504441
O35	O	1.232378	0.024019	-0.171107
O36	O	1.565711	0.357352	0.162226
O37	O	1.018370	-0.399636	-0.846404
O38	O	1.351703	-0.066302	-0.513070
O39	O	1.685036	0.267031	-0.179737
O40	O	0.899028	-0.399672	-0.651824
O41	O	1.232361	-0.066339	-0.318491
O42	O	1.565694	0.266995	0.014842
O43	O	1.108810	-0.309251	-0.846449
O44	O	1.442144	0.024083	-0.513116
O45	O	1.775477	0.357416	-0.179783
O46	O	1.108643	-0.519041	-0.504376
O47	O	1.441976	-0.185708	-0.171043
O48	O	1.775309	0.147625	0.162290
O49	O	1.018274	-0.518992	-0.651788
O50	O	1.351608	-0.185659	-0.318454
O51	O	1.684941	0.147675	0.014879
C52	C	0.872333	-0.354491	-0.578130
C53	C	1.205667	-0.021157	-0.244797
C54	C	1.539000	0.312176	0.088536
C55	C	0.790534	-0.354499	-0.578151
C56	C	1.123868	-0.021165	-0.244818
C57	C	1.457201	0.312168	0.088516
C58	C	1.063465	-0.545719	-0.578097
C59	C	1.396799	-0.212386	-0.244764
C60	C	1.730132	0.120947	0.088569
C61	C	1.063501	-0.627518	-0.578115
C62	C	1.396834	-0.294185	-0.244782
C63	C	1.730168	0.039148	0.088551
C64	C	0.525487	-0.401640	-0.654786
C65	C	0.858821	-0.068306	-0.321453
C66	C	1.192154	0.265027	0.011880
C67	C	0.602346	-0.401633	-0.654781
C68	C	0.935679	-0.068300	-0.321447
C69	C	1.269013	0.265033	0.011886
C70	C	0.602333	-0.307403	-0.501533
C71	C	0.935666	0.025930	-0.168199
C72	C	1.269000	0.359264	0.165134
C73	C	0.525476	-0.307414	-0.501533
C74	C	0.858809	0.025920	-0.168200
C75	C	1.192142	0.359253	0.165133
C76	C	0.487055	-0.354531	-0.578167
C77	C	0.820388	-0.021197	-0.244834
C78	C	1.153721	0.312136	0.088500
C79	C	0.640771	-0.354514	-0.578160
C80	C	0.974104	-0.021181	-0.244827
C81	C	1.307438	0.312153	0.088506
C82	C	0.724105	-0.354507	-0.578154
C83	C	1.057438	-0.021173	-0.244820
C84	C	1.390771	0.312160	0.088513
C85	C	0.403716	-0.354539	-0.578173
C86	C	0.737049	-0.021206	-0.244839
C87	C	1.070382	0.312128	0.088494
C88	C	1.110694	-0.892577	-0.501520
C89	C	1.444027	-0.559244	-0.168187
C90	C	1.777360	-0.225910	0.165146
C91	C	1.110663	-0.815718	-0.501493
C92	C	1.443997	-0.482385	-0.168159
C93	C	1.777330	-0.149052	0.165174
C94	C	1.016477	-0.815708	-0.654859
C95	C	1.349810	-0.482375	-0.321525
C96	C	1.683143	-0.149041	0.011808
C97	C	1.016504	-0.892565	-0.654879
C98	C	1.349837	-0.559232	-0.321546
C99	C	1.683170	-0.225899	0.011787
C100	C	1.063616	-0.930998	-0.578212
C101	C	1.396950	-0.597664	-0.244879
C102	C	1.730283	-0.264331	0.088455
C103	C	1.063559	-0.777282	-0.578164
C104	C	1.396892	-0.443948	-0.244830
C105	C	1.730226	-0.110615	0.088503
C106	C	1.063526	-0.693948	-0.578135
C107	C	1.396859	-0.360615	-0.244801
C108	C	1.730192	-0.027281	0.088532
C109	C	1.063649	-1.014337	-0.578239
C110	C	1.396982	-0.681003	-0.244906
C111	C	1.730315	-0.347670	0.088428
C112	C	1.255492	-0.354536	-0.578168
C113	C	1.588826	-0.021203	-0.244835
C114	C	1.922159	0.312130	0.088498
C115	C	1.337291	-0.354546	-0.578176
C116	C	1.670625	-0.021213	-0.244843
C117	C	2.003958	0.312121	0.088490
C118	C	1.063599	-0.354432	-0.891192
C119	C	1.396932	-0.021098	-0.557858
C120	C	1.730265	0.312235	-0.224525
C121	C	1.063624	-0.354397	-1.024592
C122	C	1.396957	-0.021063	-0.691258
C123	C	1.730290	0.312270	-0.357925
C124	C	1.063634	-0.162560	-0.578227
C125	C	1.396967	0.170773	-0.244894
C126	C	1.730301	0.504107	0.088440
C127	C	1.063674	-0.080761	-0.578260
C128	C	1.397008	0.252572	-0.244927
C129	C	1.730341	0.585905	0.088406
C130	C	1.063523	-0.354541	-0.266324
C131	C	1.396856	-0.021208	0.067009
C132	C	1.730190	0.312125	0.400342
C133	C	1.063641	-0.354369	-0.132925
C134	C	1.396974	-0.021035	0.200409
C135	C	1.730307	0.312298	0.533742
H136	H	0.494207	-0.440006	-0.717186
H137	H	0.827541	-0.106672	-0.383853
H138	H	1.160874	0.226661	-0.050519
F139	F	0.966344	-0.774799	-0.736457
F140	F	1.299677	-0.441465	-0.403124
F141	F	1.633010	-0.108132	-0.069790
F142	F	0.643245	-0.451775	-0.736327
F143	F	0.976579	-0.118441	-0.402993
F144	F	1.309912	0.214892	-0.069660
F145	F	1.160833	-0.933477	-0.419921
F146	F	1.494166	-0.600144	-0.086587
F147	F	1.827499	-0.266811	0.246746
H148	H	0.633625	-0.269041	-0.439142
H149	H	0.966958	0.064292	-0.105809
H150	H	1.300291	0.397626	0.227525
H151	H	1.148997	-0.784438	-0.439042
H152	H	1.482330	-0.451105	-0.105709
H153	H	1.815663	-0.117772	0.227624
F154	F	0.966394	-0.933458	-0.736507
F155	F	1.299727	-0.600124	-0.403174
F156	F	1.633060	-0.266791	-0.069840
H157	H	0.494183	-0.269051	-0.439135
H158	H	0.827516	0.064283	-0.105801
H159	H	1.160850	0.397616	0.227532
