data_functionalizedCrystal
_audit_creation_method	'MofGen! by Chris Wilmer'
_symmetry_space_group_name_H-M	'P1'
_symmetry_Int_Tables_number	1
_symmetry_cell_setting	triclinic
loop_
_symmetry_equiv_pos_as_xyz
  x,y,z
_cell_length_a	23.096457
_cell_length_b	23.096457
_cell_length_c	14.809374
_cell_angle_alpha	98.950904
_cell_angle_beta	65.412642
_cell_angle_gamma	59.999659
loop_
_atom_site_label
_atom_site_type_symbol
_atom_site_fract_x
_atom_site_fract_y
_atom_site_fract_z
Zr1	Zr	0.633727	0.545820	-0.119936
O2	O	0.754513	0.438811	-0.265885
O3	O	0.512941	0.578621	-0.075201
O4	O	0.633727	0.559597	-0.265897
O5	O	0.633727	0.472845	0.075242
O6	O	0.633726	0.654878	-0.265900
O7	O	0.633727	0.457835	-0.075189
O8	O	0.417662	0.688909	0.075221
O9	O	0.849791	0.438814	-0.265879
O10	O	0.562621	0.663721	-0.056117
O11	O	0.562622	0.603815	0.056150
O12	O	0.704832	0.581417	-0.168370
O13	O	0.704832	0.521511	-0.056103
Zr14	Zr	0.633726	0.721721	0.119979
Zr15	Zr	0.633726	0.697782	-0.119941
Zr16	Zr	0.633727	0.569758	0.119984
Zr17	Zr	0.785684	0.545825	-0.119926
Zr18	Zr	0.481769	0.721716	0.119969
O19	O	0.754512	0.688919	0.075243
O20	O	0.754512	0.654882	-0.265892
O21	O	0.754513	0.472849	0.075251
O22	O	0.512940	0.828729	0.265928
O23	O	0.512940	0.794692	-0.075208
O24	O	0.512941	0.612659	0.265935
O25	O	0.633726	0.794696	-0.075200
O26	O	0.633726	0.707943	0.265940
O27	O	0.633727	0.612662	0.265943
O28	O	0.633726	0.809705	0.075231
O29	O	0.849791	0.559604	-0.265883
O30	O	0.417662	0.707937	0.265925
O31	O	0.417662	0.828726	0.265921
O32	O	0.417662	0.809698	0.075217
O33	O	0.849791	0.457842	-0.075174
O34	O	0.849790	0.578632	-0.075178
O35	O	0.562621	0.686124	0.168413
O36	O	0.562621	0.746029	0.056146
O37	O	0.704831	0.663725	-0.056107
O38	O	0.704831	0.603820	0.056160
C39	C	0.443651	0.633764	0.000009
C40	C	0.379141	0.633762	0.000004
C41	C	0.633727	0.443688	0.000028
C42	C	0.633728	0.379176	0.000030
C43	C	0.633727	0.603827	-0.300082
C44	C	0.633727	0.593664	-0.401934
C45	C	0.348840	0.665027	-0.058602
C46	C	0.288218	0.665035	-0.058593
C47	C	0.257910	0.633762	0.000008
C48	C	0.288216	0.602497	0.058627
C49	C	0.348831	0.602497	0.058625
N50	N	0.195515	0.572547	-0.008116
N51	N	0.137934	0.572548	-0.008121
C52	C	0.075278	0.633763	0.000018
N53	N	0.072386	0.694973	0.008140
N54	N	0.129975	0.694971	0.008138
C55	C	0.192183	0.633760	0.000016
C56	C	-0.020757	0.665039	-0.058581
C57	C	-0.081384	0.665050	-0.058564
C58	C	-0.081379	0.602505	0.058648
C59	C	-0.020759	0.602502	0.058638
C60	C	0.009551	0.633767	0.000018
C61	C	0.823802	0.633776	0.000034
C62	C	0.888312	0.633778	0.000038
C63	C	0.633735	-0.073072	0.082879
C64	C	0.633729	-0.012452	0.082888
C65	C	0.633730	0.009591	0.000014
C66	C	0.633716	-0.028979	-0.082859
C67	C	0.633713	-0.089592	-0.082860
N68	N	0.680085	0.071780	-0.098262
N69	N	0.680090	0.129360	-0.098257
C70	C	0.633736	0.192217	0.000012
N71	N	0.587389	0.195314	0.098281
N72	N	0.587388	0.137727	0.098276
C73	C	0.633733	0.075316	0.000006
C74	C	0.633739	0.296513	0.082894
C75	C	0.633728	0.357137	0.082904
C76	C	0.633723	0.340604	-0.082853
C77	C	0.633725	0.279987	-0.082854
C78	C	0.633737	0.257943	0.000019
C79	C	0.633726	0.823852	0.000015
C80	C	0.633725	0.888364	0.000013
C81	C	0.633726	0.639018	-0.447345
C82	C	0.633726	0.628516	-0.552615
C83	C	0.633726	0.663714	0.300125
C84	C	0.633726	0.673876	0.401977
C85	C	0.443650	0.823846	0.000003
C86	C	0.379140	0.888356	-0.000004
C87	C	0.443651	0.663708	0.300112
C88	C	0.379141	0.673868	0.401960
C89	C	0.443650	0.853789	0.300106
C90	C	0.379140	0.928462	0.401952
C91	C	0.823803	0.413751	-0.300063
C92	C	0.888313	0.339079	-0.401909
C93	C	0.823803	0.443695	0.000040
C94	C	0.888313	0.379185	0.000047
C95	C	0.823802	0.603833	-0.300069
C96	C	0.888312	0.593672	-0.401917
C97	C	0.348845	0.875685	-0.058617
C98	C	0.288240	0.936291	-0.058645
C99	C	0.257925	1.009568	-0.000054
C100	C	0.288226	1.022237	0.058561
C101	C	0.348835	0.961631	0.058582
C102	C	0.348846	0.721605	0.508399
C103	C	0.288241	0.731150	0.604105
C104	C	0.257927	0.692962	0.593370
C105	C	0.288228	0.645219	0.486920
C106	C	0.348836	0.635671	0.391216
C107	C	0.348845	0.994805	0.391177
C108	C	0.288239	1.064973	0.486863
C109	C	0.257925	1.068795	0.593323
C110	C	0.288226	1.002445	0.604095
C111	C	0.348835	0.932279	0.508410
C112	C	0.918615	0.272735	-0.391135
C113	C	0.979240	0.202567	-0.486820
C114	C	1.009557	0.198745	-0.593280
C115	C	0.979252	0.265096	-0.604052
C116	C	0.918633	0.335262	-0.508367
C117	C	0.918614	0.391854	0.058650
C118	C	0.979236	0.331246	0.058652
C119	C	1.009553	0.257969	0.000057
C120	C	0.979249	0.245300	-0.058554
C121	C	0.918632	0.305907	-0.058561
C122	C	0.918606	0.631871	-0.391146
C123	C	0.979212	0.622339	-0.486834
C124	C	1.009527	0.574604	-0.593292
C125	C	0.979226	0.536404	-0.604061
C126	C	0.918617	0.545940	-0.508374
H127	H	0.263542	0.690496	-0.106319
O128	O	0.255516	1.006571	0.718921
H129	H	0.208273	1.066511	0.783637
H130	H	-0.106059	0.690514	-0.106284
H131	H	0.633742	-0.091016	0.150361
H132	H	1.058911	0.208625	0.000072
H133	H	0.208574	1.125934	0.671226
H134	H	0.893934	0.275833	-0.304459
O135	O	0.633750	0.531916	-0.453682
H136	H	0.633754	0.500288	-0.404407
O137	O	1.011899	0.344927	0.121888
H138	H	1.059150	0.290476	0.112049
H139	H	0.373515	0.690487	-0.106331
H140	H	0.263535	0.577036	0.106341
O141	O	0.381543	0.796653	-0.121828
H142	H	0.350296	0.798035	-0.162598
O143	O	0.885914	0.683369	-0.276335
H144	H	0.897554	0.650533	-0.229922
H145	H	1.003904	0.148550	-0.478028
O146	O	1.011890	0.663541	-0.475208
H147	H	0.980634	0.698324	-0.385104
H148	H	0.633745	0.278567	0.150377
H149	H	0.263576	0.925961	-0.106376
O150	O	0.885928	0.470883	0.121852
H151	H	0.838680	0.510909	0.112019
O152	O	0.255593	1.136518	0.475198
H153	H	0.267256	1.169964	0.515957
O154	O	0.633711	0.700759	-0.395593
H155	H	0.689209	0.692011	-0.457706
O156	O	1.074948	0.123063	-0.696481
H157	H	1.090920	0.077576	-0.671092
H158	H	0.208573	1.058910	-0.000079
H159	H	0.373493	0.878262	0.517198
H160	H	1.003942	0.185630	-0.106260
H161	H	0.893963	0.295581	-0.106280
O162	O	0.381526	0.568766	0.121827
H163	H	0.350273	0.547017	0.162575
H164	H	0.263535	1.081907	0.106264
O165	O	1.011948	0.260969	-0.718878
H166	H	1.059183	0.201030	-0.783594
O167	O	0.633723	-0.005206	-0.172248
H168	H	0.578212	0.011332	-0.168168
H169	H	0.893961	0.389279	-0.517153
H170	H	0.373493	0.971959	0.106319
H171	H	1.058879	0.566845	-0.671197
H172	H	0.373494	0.596801	0.304552
O173	O	1.011933	0.484910	-0.718886
H174	H	1.059175	0.484694	-0.783603
O175	O	0.633719	0.735621	-0.546302
H176	H	0.633722	0.734182	-0.471737
O177	O	0.885954	0.504727	-0.519997
H178	H	0.917228	0.469927	-0.610101
O179	O	0.381539	0.762794	0.519991
H180	H	0.350290	0.797582	0.610091
O181	O	0.255552	0.782657	0.718912
H182	H	0.286803	0.807618	0.710288
H183	H	0.633731	0.388540	0.150389
O184	O	0.633749	0.566762	-0.604348
H185	H	0.578248	0.575516	-0.542230
H186	H	-0.106055	0.577042	0.106362
O187	O	0.011932	0.698769	-0.121788
H188	H	-0.019336	0.720524	-0.162525
H189	H	0.003915	0.577039	0.106358
H190	H	0.633705	-0.120993	-0.150341
O191	O	0.633748	0.029149	0.172262
H192	H	0.633761	0.003634	0.229883
H193	H	0.633722	0.248582	-0.150335
O194	O	0.633728	0.364366	-0.172247
H195	H	0.633737	0.412991	-0.158331
H196	H	0.263537	0.614129	0.478196
O197	O	0.192542	0.703277	0.696598
H198	H	0.176564	0.742898	0.772411
H199	H	0.373518	0.991707	0.304501
