data_functionalizedCrystal
_audit_creation_method	'MofGen! by Chris Wilmer'
_symmetry_space_group_name_H-M	'P1'
_symmetry_Int_Tables_number	1
_symmetry_cell_setting	triclinic
loop_
_symmetry_equiv_pos_as_xyz
  x,y,z
_cell_length_a	12.996460
_cell_length_b	14.971486
_cell_length_c	14.971486
_cell_angle_alpha	83.614129
_cell_angle_beta	90.006353
_cell_angle_gamma	90.000625
loop_
_atom_site_label
_atom_site_type_symbol
_atom_site_fract_x
_atom_site_fract_y
_atom_site_fract_z
O1	O	-0.085449	-1.186946	-0.116564
O2	O	0.414551	-0.686946	0.383436
O3	O	-0.085477	-0.926546	-0.130523
O4	O	0.414523	-0.426546	0.369477
O5	O	-0.085455	-1.063725	0.006656
O6	O	0.414545	-0.563725	0.506656
O7	O	-0.085471	-1.049766	-0.253744
O8	O	0.414529	-0.549766	0.246256
O9	O	0.085679	-1.063711	0.006664
O10	O	0.585679	-0.563711	0.506664
O11	O	0.085657	-0.926531	-0.130516
O12	O	0.585657	-0.426531	0.369484
O13	O	0.085685	-1.186932	-0.116557
O14	O	0.585685	-0.686932	0.383443
Cu15	Cu	0.101297	-1.056730	-0.123535
Cu16	Cu	0.601297	-0.556730	0.376465
Cu17	Cu	-0.101089	-1.056747	-0.123544
Cu18	Cu	0.398911	-0.556747	0.376456
O19	O	0.085663	-1.049752	-0.253736
O20	O	0.585663	-0.549752	0.246264
C21	C	0.000086	-0.893214	-0.129895
C22	C	0.500086	-0.393214	0.370105
C23	C	0.000076	-0.793917	-0.128024
C24	C	0.500076	-0.293917	0.371976
N25	N	0.243644	-1.056725	-0.123529
N26	N	0.743644	-0.556725	0.376471
N27	N	-0.243436	-1.056760	-0.123544
N28	N	0.256564	-0.556760	0.376456
C29	C	0.663458	-1.056746	-0.123545
C30	C	1.163458	-0.556746	0.376455
C31	C	0.546653	-1.056737	-0.123544
C32	C	1.046653	-0.556737	0.376456
C33	C	0.453555	-1.056736	-0.123538
C34	C	0.953555	-0.556736	0.376462
C35	C	0.336742	-1.056726	-0.123535
C36	C	0.836742	-0.556726	0.376465
C37	C	0.000112	-1.063094	0.039985
C38	C	0.500112	-0.563094	0.539985
C39	C	0.000110	-1.061223	0.139282
C40	C	0.500110	-0.561223	0.639282
C41	C	0.000119	-1.220263	-0.117185
C42	C	0.500119	-0.720263	0.382815
C43	C	0.000123	-1.319561	-0.119056
C44	C	0.500123	-0.819561	0.380944
C45	C	0.000072	-0.736692	-0.208614
C46	C	0.500072	-0.236692	0.291386
C47	C	0.000088	-0.643392	-0.206850
C48	C	0.500088	-0.143392	0.293150
C49	C	0.000099	-0.607320	-0.124497
C50	C	0.500099	-0.107320	0.375503
C51	C	0.000106	-0.664552	-0.043902
C52	C	0.500106	-0.164552	0.456098
C53	C	0.000098	-0.757850	-0.045666
C54	C	0.500098	-0.257850	0.454334
C55	C	0.000120	-0.470090	-0.040231
C56	C	0.500120	0.029910	0.459769
C57	C	0.000126	-0.376786	-0.038466
C58	C	0.500126	0.123214	0.461534
C59	C	0.000110	-0.355632	-0.201415
C60	C	0.500110	0.144368	0.298585
C61	C	0.000102	-0.448930	-0.203179
C62	C	0.500102	0.051070	0.296821
C63	C	0.000107	-0.506156	-0.122584
C64	C	0.500107	-0.006156	0.377416
C65	C	0.000094	-1.050384	-0.287065
C66	C	0.500094	-0.550384	0.212935
C67	C	0.000088	-1.052254	-0.386362
C68	C	0.500088	-0.552254	0.113638
C69	C	0.000120	-1.141812	0.196507
C70	C	0.500120	-0.641812	0.696507
C71	C	0.000109	-1.140049	0.289807
C72	C	0.500109	-0.640049	0.789807
C73	C	0.000097	-1.057696	0.325879
C74	C	0.500097	-0.557696	0.825879
C75	C	0.000084	-0.977101	0.268646
C76	C	0.500084	-0.477101	0.768646
C77	C	0.000087	-0.978865	0.175349
C78	C	0.500087	-0.478865	0.675349
C79	C	0.000080	-0.973430	0.463109
C80	C	0.500080	-0.473430	0.963109
C81	C	0.000079	-0.971665	0.556413
C82	C	0.500079	-0.471665	1.056413
C83	C	0.000102	-1.134614	0.577567
C84	C	0.500102	-0.634614	1.077567
C85	C	0.000105	-1.136378	0.484269
C86	C	0.500105	-0.636378	0.984269
C87	C	0.000095	-1.055782	0.427043
C88	C	0.500095	-0.555782	0.927043
H89	H	0.000062	-0.766054	-0.275675
H90	H	0.500062	-0.266054	0.224325
Br91	Br	0.000132	-0.547754	0.069150
Br92	Br	0.500132	-0.047754	0.569150
Br93	Br	0.000062	-0.864048	0.385445
Br94	Br	0.500062	-0.364048	0.885445
Br95	Br	0.000071	-0.497885	-0.314946
Br96	Br	0.500071	0.002115	0.185054
H97	H	0.000085	-0.904606	0.585780
H98	H	0.500085	-0.404606	1.085780
H99	H	0.000137	-0.347419	0.028593
H100	H	0.500137	0.152581	0.528593
H101	H	0.000111	-0.309033	-0.267039
H102	H	0.500111	0.190967	0.232961
H103	H	0.000100	-0.804443	0.019958
H104	H	0.500100	-0.304443	0.519958
Br105	Br	0.000114	-1.243995	0.655229
Br106	Br	0.500114	-0.743995	1.155229
Br107	Br	0.000122	-1.249425	0.367467
Br108	Br	0.500122	-0.749425	0.867467
Br109	Br	0.000120	-1.248144	0.435314
Br110	Br	0.500120	-0.748144	0.935314
H111	H	0.000130	-0.635175	0.023152
H112	H	0.500130	-0.135175	0.523152
H113	H	0.000136	-1.208874	0.167145
H114	H	0.500136	-0.708874	0.667145
H115	H	0.000067	-0.910047	0.298024
H116	H	0.500067	-0.410047	0.798024
H117	H	0.000084	-0.596802	-0.272474
H118	H	0.500084	-0.096802	0.227526
Br119	Br	0.000066	-0.869489	0.097684
Br120	Br	0.500066	-0.369489	0.597684
