data_functionalizedCrystal
_audit_creation_method	'MofGen! by Chris Wilmer'
_symmetry_space_group_name_H-M	'P1'
_symmetry_Int_Tables_number	1
_symmetry_cell_setting	triclinic
loop_
_symmetry_equiv_pos_as_xyz
  x,y,z
_cell_length_a	10.685904
_cell_length_b	12.594516
_cell_length_c	10.686551
_cell_angle_alpha	85.594704
_cell_angle_beta	81.591549
_cell_angle_gamma	94.378852
loop_
_atom_site_label
_atom_site_type_symbol
_atom_site_fract_x
_atom_site_fract_y
_atom_site_fract_z
Zn1	Zn	1.995820	-0.238560	-0.866717
Zn2	Zn	1.979410	-0.431381	-0.654457
Zn3	Zn	1.767247	-0.268185	-0.638181
Zn4	Zn	1.783532	-0.431278	-0.850367
O5	O	1.881502	-0.342351	-0.752430
O6	O	2.171277	-0.251783	-0.852214
O7	O	1.937583	-0.422173	-0.474666
O8	O	1.797620	-0.115304	-0.668527
O9	O	2.159221	-0.393447	-0.696268
O10	O	1.965551	-0.093539	-0.836431
O11	O	1.781708	-0.302274	-0.462708
O12	O	1.591773	-0.302174	-0.652674
O13	O	1.825375	-0.393272	-1.030168
O14	O	1.603738	-0.421998	-0.808566
O15	O	1.981342	-0.251683	-1.042180
O16	O	1.953374	-0.580318	-0.680414
O17	O	1.809463	-0.580243	-0.824348
C18	C	1.551697	-0.365290	-0.727080
C19	C	1.410607	-0.375128	-0.716265
C20	C	1.881442	-0.618897	-0.752404
C21	C	1.881535	-0.737194	-0.752444
C22	C	1.959913	-0.806436	-0.674256
C23	C	1.999829	-0.866894	-0.792494
C24	C	1.841784	-0.887520	-0.634291
C25	C	1.921514	-0.796085	-0.870747
C26	C	1.763410	-0.816714	-0.712462
C27	C	1.803287	-0.877136	-0.830777
C28	C	2.212595	-0.319322	-0.777880
C29	C	2.353687	-0.309509	-0.788726
C30	C	1.907006	-0.319162	-1.083519
C31	C	1.917874	-0.309280	-1.224610
C32	C	1.881600	-0.064720	-0.752488
C33	C	1.881641	0.053590	-0.752512
C34	C	1.856171	-0.365368	-0.422635
C35	C	1.845548	-0.374932	-0.281564
H36	H	1.412900	-0.245798	-0.859033
H37	H	1.808120	-0.927340	-0.534343
H38	H	1.737057	-0.907981	-0.897010
H39	H	2.099771	-0.889275	-0.826348
H40	H	1.351400	-0.438828	-0.645954
H41	H	2.026212	-0.775379	-0.608201
H42	H	1.988120	-0.245512	-1.283794
H43	H	1.663493	-0.794310	-0.678577
H44	H	1.955088	-0.756397	-0.970773
H45	H	1.775316	-0.438703	-1.222388
