data_functionalizedCrystal
_audit_creation_method	'MofGen! by Chris Wilmer'
_symmetry_space_group_name_H-M	'P1'
_symmetry_Int_Tables_number	1
_symmetry_cell_setting	triclinic
loop_
_symmetry_equiv_pos_as_xyz
  x,y,z
_cell_length_a	10.967926
_cell_length_b	11.792241
_cell_length_c	10.065875
_cell_angle_alpha	98.849501
_cell_angle_beta	93.120479
_cell_angle_gamma	84.458031
loop_
_atom_site_label
_atom_site_type_symbol
_atom_site_fract_x
_atom_site_fract_y
_atom_site_fract_z
O1	O	1.614181	0.197973	0.266151
O2	O	2.114181	0.697973	0.766151
O3	O	1.264158	0.201215	0.183825
O4	O	1.764158	0.701215	0.683825
O5	O	1.447662	0.034735	0.226995
O6	O	1.947662	0.534735	0.726995
O7	O	1.430677	0.364453	0.222981
O8	O	1.930677	0.864453	0.722981
O9	O	1.412671	0.066614	0.445752
O10	O	1.912671	0.566614	0.945752
O11	O	1.229167	0.233093	0.402582
O12	O	1.729167	0.733093	0.902582
O13	O	1.579190	0.229852	0.484908
O14	O	2.079190	0.729852	0.984908
Zn15	Zn	1.398623	0.236534	0.478477
Zn16	Zn	1.898623	0.736534	0.978477
Zn17	Zn	1.444725	0.194532	0.190256
Zn18	Zn	1.944725	0.694532	0.690256
O19	O	1.395686	0.396331	0.441738
O20	O	1.895686	0.896331	0.941738
C21	C	1.201852	0.214509	0.282664
C22	C	1.701852	0.714509	0.782664
C23	C	1.068330	0.206616	0.251260
C24	C	1.568330	0.706616	0.751260
C25	C	0.990675	0.219610	0.350581
C26	C	1.490675	0.719610	0.850581
C27	C	0.852673	0.211452	0.318126
C28	C	1.352673	0.711452	0.818126
C29	C	1.429099	0.008344	0.336122
C30	C	1.929099	0.508344	0.836122
C31	C	1.425905	-0.117786	0.335370
C32	C	1.925905	0.382214	0.835370
C33	C	1.420036	-0.348716	0.333966
C34	C	1.920036	0.151284	0.833966
C35	C	1.423297	-0.220210	0.334746
C36	C	1.923297	0.279790	0.834746
C37	C	1.641496	0.216557	0.386066
C38	C	2.141496	0.716557	0.886066
C39	C	1.775019	0.224449	0.417462
C40	C	2.275019	0.724449	0.917462
C41	C	1.414249	0.422722	0.332608
C42	C	1.914249	0.922722	0.832608
C43	C	1.417444	0.548851	0.333352
C44	C	1.917444	1.048851	0.833352
N45	N	1.367168	0.265199	0.675183
N46	N	1.867168	0.765199	1.175183
N47	N	1.476189	0.165859	-0.006448
N48	N	1.976189	0.665859	0.493552
C49	C	1.433773	0.204498	0.758631
C50	C	1.933773	0.704498	1.258631
C51	C	1.409574	0.226568	0.910106
C52	C	1.909574	0.726568	1.410106
H53	H	0.816996	0.194283	0.209058
H54	H	1.316996	0.694283	0.709058
H55	H	1.334626	0.294876	0.950795
H56	H	1.834626	0.794876	1.450795
C57	C	1.577459	0.073604	0.938603
C58	C	2.077459	0.573604	1.438603
H59	H	1.580459	0.070887	0.844008
H60	H	2.080459	0.570887	1.344008
H61	H	1.560139	0.000573	0.957871
H62	H	2.060139	0.500573	1.457871
H63	H	1.654276	0.092461	0.980019
H64	H	2.154276	0.592461	1.480019
H65	H	0.810696	0.241611	0.526530
H66	H	1.310696	0.741611	1.026530
H67	H	1.032646	0.189447	0.142200
H68	H	1.532646	0.689447	0.642200
C69	C	1.265933	0.357479	0.730150
C70	C	1.765933	0.857479	1.230150
H71	H	1.262956	0.360212	0.824748
H72	H	1.762956	0.860212	1.324748
H73	H	1.189105	0.338666	0.688749
H74	H	1.689105	0.838666	1.188749
H75	H	1.283300	0.430501	0.710877
H76	H	1.783300	0.930501	1.210877
H77	H	1.508707	0.136186	0.717935
H78	H	2.008707	0.636186	1.217935
H79	H	1.026360	0.236769	0.459642
H80	H	1.526360	0.736769	0.959642
