data_functionalizedCrystal
_audit_creation_method	'MofGen! by Chris Wilmer'
_symmetry_space_group_name_H-M	'P1'
_symmetry_Int_Tables_number	1
_symmetry_cell_setting	triclinic
loop_
_symmetry_equiv_pos_as_xyz
  x,y,z
_cell_length_a	19.288855
_cell_length_b	16.992697
_cell_length_c	16.053802
_cell_angle_alpha	87.249882
_cell_angle_beta	92.553915
_cell_angle_gamma	86.900347
loop_
_atom_site_label
_atom_site_type_symbol
_atom_site_fract_x
_atom_site_fract_y
_atom_site_fract_z
O1	O	-0.144518	-1.043177	0.069316
O2	O	-0.142901	-0.814899	0.069344
O3	O	-0.042964	-0.935638	0.069318
O4	O	-0.244455	-0.922439	0.069342
O5	O	-0.048441	-0.928992	-0.069539
O6	O	-0.148378	-0.808254	-0.069513
O7	O	-0.149995	-1.036532	-0.069541
Zn8	Zn	-0.150056	-0.921337	-0.091574
Zn9	Zn	-0.142840	-0.930093	0.091377
O10	O	-0.249932	-0.915793	-0.069516
C11	C	-0.143561	-0.782371	-0.000081
C12	C	-0.137360	-0.695350	-0.000071
C13	C	-0.197188	-0.644896	-0.000064
C14	C	-0.191358	-0.563130	-0.000075
C15	C	-0.125699	-0.531819	-0.000087
C16	C	-0.065867	-0.582279	-0.000096
C17	C	-0.071697	-0.664044	-0.000091
C18	C	-0.101532	-0.288307	-0.000108
C19	C	-0.095706	-0.206536	-0.000110
C20	C	-0.221197	-0.187392	-0.000091
C21	C	-0.227022	-0.269159	-0.000081
C22	C	-0.167190	-0.319612	-0.000094
N23	N	-0.119738	-0.448241	-0.000095
N24	N	-0.173152	-0.403188	-0.000092
C25	C	-0.019801	-0.931892	-0.000111
C26	C	0.057377	-0.930620	-0.000114
C27	C	0.096607	-0.933650	0.075577
C28	C	0.169124	-0.932444	0.075583
C29	C	0.202408	-0.928225	-0.000107
C30	C	0.163168	-0.925191	-0.075808
C31	C	0.090652	-0.926389	-0.075812
C32	C	0.317787	-0.969470	-0.058096
C33	C	0.390301	-0.968277	-0.058090
C34	C	0.426070	-0.924528	-0.000099
C35	C	0.389316	-0.881983	0.057898
C36	C	0.316800	-0.883180	0.057895
C37	C	0.281039	-0.926926	-0.000112
C38	C	0.543931	-0.926250	0.075603
C39	C	0.616449	-0.925039	0.075606
C40	C	0.610492	-0.917794	-0.075787
C41	C	0.537975	-0.918997	-0.075788
C42	C	0.504700	-0.923228	-0.000090
C43	C	0.726905	-0.919541	-0.000086
C44	C	0.649728	-0.920819	-0.000085
C45	C	-0.149334	-0.069060	-0.000110
C46	C	-0.155534	-0.156082	-0.000103
N47	N	-0.154980	-0.915367	-0.216433
C48	C	-0.112474	-0.966761	-0.260138
C49	C	-0.115926	-0.962592	-0.347544
C50	C	-0.161888	-0.907033	-0.391243
C51	C	-0.204396	-0.855634	-0.347532
C52	C	-0.200940	-0.859800	-0.260128
C53	C	-0.176963	-0.888837	-0.652649
C54	C	-0.180417	-0.884677	-0.740059
C55	C	-0.091946	-0.991633	-0.740065
C56	C	-0.088497	-0.995797	-0.652659
C57	C	-0.131002	-0.944396	-0.608956
N58	N	-0.165418	-0.902772	-0.480586
N59	N	-0.127467	-0.948654	-0.519614
N60	N	-0.137911	-0.936070	0.216236
H61	H	-0.012406	-0.556779	-0.000118
O62	O	-0.024885	-0.172761	-0.000135
H63	H	0.006326	-0.195748	0.056449
H64	H	-0.052812	-0.329376	-0.000120
H65	H	0.648389	-0.927502	0.137245
H66	H	-0.022979	-0.705123	-0.000097
O67	O	0.199071	-0.920647	-0.157442
H68	H	0.180508	-0.865716	-0.193731
H69	H	-0.235552	-0.817949	-0.224544
H70	H	0.058711	-0.923918	-0.137450
H71	H	-0.081313	-1.004439	-0.383128
H72	H	-0.057339	-1.033481	-0.775656
O73	O	-0.255886	-0.508709	-0.000068
H74	H	-0.302521	-0.544218	-0.000048
O75	O	-0.297841	-0.302930	-0.000089
H76	H	-0.338466	-0.254108	-0.000099
H77	H	-0.269909	-0.146305	-0.000081
H78	H	-0.075050	-1.012006	-0.224564
O79	O	0.060714	-0.938194	0.157218
H80	H	0.100181	-0.940087	0.209852
O81	O	0.211451	-0.935714	0.157223
H82	H	0.176130	-0.938860	0.209858
O83	O	-0.038918	-1.055715	-0.605525
H84	H	-0.009934	-1.090747	-0.650601
H85	H	0.286878	-0.848536	0.105117
O86	O	-0.229983	-0.824741	-0.787198
H87	H	-0.258953	-0.789690	-0.742125
H88	H	0.418437	-0.846358	0.105120
O89	O	0.508031	-0.930798	0.157242
H90	H	0.547496	-0.932687	0.209878
O91	O	0.646379	-0.913249	-0.157428
H92	H	0.703396	-0.912931	-0.144711
H93	H	-0.211574	-0.846985	-0.617072
O94	O	0.495663	-0.915744	-0.157432
H95	H	0.459259	-0.862693	-0.161056
O96	O	-0.253974	-0.795711	-0.394659
H97	H	-0.249243	-0.801454	-0.462779
H98	H	-0.250654	-0.670382	-0.000053
H99	H	0.420221	-1.002924	-0.105312
H100	H	0.288670	-1.005094	-0.105325
