data_functionalizedCrystal
_audit_creation_method	'MofGen! by Chris Wilmer'
_symmetry_space_group_name_H-M	'P1'
_symmetry_Int_Tables_number	1
_symmetry_cell_setting	triclinic
loop_
_symmetry_equiv_pos_as_xyz
  x,y,z
_cell_length_a	16.109318
_cell_length_b	14.586319
_cell_length_c	9.065215
_cell_angle_alpha	90.002835
_cell_angle_beta	84.241630
_cell_angle_gamma	89.999925
loop_
_atom_site_label
_atom_site_type_symbol
_atom_site_fract_x
_atom_site_fract_y
_atom_site_fract_z
O1	O	1.104579	0.076162	0.189751
O2	O	0.862700	0.076180	0.213323
O3	O	0.988640	0.076167	-0.013226
O4	O	0.978638	0.076176	0.416300
O5	O	0.988631	-0.076314	-0.013230
O6	O	0.862691	-0.076300	0.213320
O7	O	1.104570	-0.076319	0.189747
Cu8	Cu	0.983629	-0.090232	0.201533
Cu9	Cu	0.983640	0.090094	0.201537
O10	O	0.978629	-0.076305	0.416297
C11	C	0.831713	-0.000058	0.212362
C12	C	0.739396	-0.000051	0.209486
C13	C	0.440256	0.083050	0.200198
C14	C	0.526998	0.083056	0.202891
C15	C	0.527007	-0.083187	0.202867
C16	C	0.440267	-0.083192	0.200164
C17	C	0.396894	-0.000070	0.198837
C18	C	0.570375	-0.000060	0.204233
C19	C	0.664425	-0.000054	0.207152
C20	C	0.302838	-0.000076	0.195915
N21	N	0.983628	-0.217064	0.201529
C22	C	1.039413	-0.452076	0.101247
C23	C	1.039416	-0.548058	0.101243
C24	C	0.927856	-0.548055	0.301816
C25	C	0.927851	-0.452076	0.301812
C26	C	0.983634	-0.404089	0.201529
C27	C	0.983642	-0.596050	0.201530
C28	C	0.983644	-0.700117	0.201527
C29	C	0.983631	-0.300015	0.201530
C30	C	1.135556	-0.000079	0.190708
C31	C	1.227873	-0.000080	0.193584
C32	C	0.987675	-0.000072	-0.068192
C33	C	0.984802	-0.000069	-0.231965
N34	N	0.983648	0.216926	0.201529
C35	C	0.979594	-0.000064	0.471262
C36	C	0.982467	-0.000061	0.635036
H37	H	0.562300	0.150741	0.203997
H38	H	0.882440	-0.587136	0.383467
H39	H	0.882424	-0.413002	0.383474
C40	C	0.392561	-0.174630	0.198668
C41	C	0.341409	-0.197486	0.068773
C42	C	0.293702	-0.288919	0.067269
C43	C	0.297146	-0.357496	0.195662
C44	C	0.348300	-0.334641	0.325567
C45	C	0.396007	-0.243208	0.327070
H46	H	0.338858	-0.146720	-0.026280
H47	H	0.255835	-0.305837	-0.028896
H48	H	0.261831	-0.425180	0.194549
H49	H	0.350851	-0.385408	0.420619
H50	H	0.433874	-0.226291	0.423235
C51	C	1.100767	-0.399290	-0.009072
C52	C	1.067430	-0.333314	-0.121921
C53	C	1.128783	-0.280532	-0.232248
C54	C	1.223473	-0.293725	-0.229726
C55	C	1.256815	-0.359704	-0.116873
C56	C	1.195462	-0.412487	-0.006546
H57	H	0.997330	-0.323545	-0.123792
H58	H	1.104101	-0.231689	-0.315789
H59	H	1.268891	-0.254652	-0.311396
H60	H	1.326915	-0.369473	-0.115002
H61	H	1.220144	-0.461329	0.076995
H62	H	0.404944	0.150733	0.199116
H63	H	0.562332	-0.150861	0.203951
C64	C	1.100776	-0.600845	-0.009063
C65	C	1.162140	-0.548059	-0.119354
C66	C	1.223503	-0.600847	-0.229667
C67	C	1.223501	-0.706421	-0.229690
C68	C	1.162135	-0.759213	-0.119396
C69	C	1.100772	-0.706425	-0.009082
H70	H	1.162144	-0.469902	-0.119341
H71	H	1.268930	-0.561766	-0.311315
H72	H	1.268925	-0.745497	-0.311351
H73	H	1.162132	-0.837370	-0.119409
H74	H	1.055345	-0.745506	0.072565
