data_functionalizedCrystal
_audit_creation_method	'MofGen! by Chris Wilmer'
_symmetry_space_group_name_H-M	'P1'
_symmetry_Int_Tables_number	1
_symmetry_cell_setting	triclinic
loop_
_symmetry_equiv_pos_as_xyz
  x,y,z
_cell_length_a	16.120484
_cell_length_b	19.077236
_cell_length_c	19.077174
_cell_angle_alpha	85.294282
_cell_angle_beta	95.281307
_cell_angle_gamma	95.329860
loop_
_atom_site_label
_atom_site_type_symbol
_atom_site_fract_x
_atom_site_fract_y
_atom_site_fract_z
Zn1	Zn	-0.302196	1.081296	-0.454395
Zn2	Zn	0.197804	1.581296	0.045605
Zn3	Zn	-0.436761	1.070940	-0.342039
Zn4	Zn	0.063239	1.570940	0.157961
Zn5	Zn	-0.302209	0.958677	-0.331779
Zn6	Zn	0.197791	1.458677	0.168221
Zn7	Zn	-0.447511	0.957388	-0.455585
Zn8	Zn	0.052489	1.457388	0.044415
O9	O	-0.372169	1.017075	-0.395949
O10	O	0.127831	1.517075	0.104051
O11	O	-0.315542	1.178761	-0.443287
O12	O	0.184458	1.678761	0.056713
O13	O	-0.414419	1.052253	-0.241843
O14	O	0.085581	1.552253	0.258157
O15	O	-0.185082	0.979815	-0.343253
O16	O	0.314918	1.479815	0.156747
O17	O	-0.414407	1.171152	-0.360739
O18	O	0.085593	1.671152	0.139261
O19	O	-0.185072	1.069903	-0.433338
O20	O	0.314928	1.569903	0.066662
O21	O	-0.315564	0.969774	-0.234305
O22	O	0.184436	1.469774	0.265695
O23	O	-0.325987	0.859667	-0.344406
O24	O	0.174013	1.359667	0.155594
O25	O	-0.432728	0.977619	-0.554262
O26	O	0.067272	1.477619	-0.054262
O27	O	-0.432740	0.858720	-0.435366
O28	O	0.067260	1.358720	0.064634
O29	O	-0.325966	1.068654	-0.553388
O30	O	0.174034	1.568654	-0.053388
O31	O	-0.555313	1.051004	-0.361892
O32	O	-0.055313	1.551004	0.138108
O33	O	-0.563210	0.967578	-0.445314
O34	O	-0.063210	1.467578	0.054686
C35	C	-0.380532	0.833566	-0.388902
C36	C	0.119468	1.333566	0.111098
C37	C	-0.384131	0.755060	-0.385905
C38	C	0.115869	1.255060	0.114095
C39	C	-0.334436	0.722139	-0.427548
C40	C	0.165564	1.222139	0.072452
C41	C	-0.337813	0.648374	-0.424725
C42	C	0.162187	1.148374	0.075275
C43	C	-0.390890	0.607531	-0.380263
C44	C	0.109110	1.107531	0.119737
C45	C	-0.440587	0.640458	-0.338616
C46	C	0.059413	1.140458	0.161384
C47	C	-0.437205	0.714221	-0.341435
C48	C	0.062795	1.214221	0.158565
C49	C	-0.406511	0.386497	-0.367211
C50	C	0.093489	0.886497	0.132789
C51	C	-0.409891	0.312728	-0.364397
C52	C	0.090109	0.812728	0.135603
C53	C	-0.307116	0.320649	-0.450506
C54	C	0.192884	0.820649	0.049494
C55	C	-0.303743	0.394414	-0.453324
C56	C	0.196257	0.894414	0.046676
C57	C	-0.353436	0.427334	-0.411674
C58	C	0.146564	0.927334	0.088326
N59	N	-0.394345	0.532132	-0.377379
N60	N	0.105655	1.032132	0.122621
N61	N	-0.349976	0.502732	-0.414555
N62	N	0.150024	1.002732	0.085445
C63	C	-0.589630	1.008047	-0.404862
C64	C	-0.089630	1.508047	0.095138
C65	C	-0.682660	1.004250	-0.408700
C66	C	-0.182660	1.504250	0.091300
C67	C	-0.852985	0.997323	-0.415724
C68	C	-0.352985	1.497323	0.084276
C69	C	-0.890508	1.036954	-0.376191
C70	C	-0.390508	1.536954	0.123809
C71	C	-0.985283	1.033100	-0.380099
C72	C	-0.485283	1.533100	0.119901
C73	C	-0.758201	1.001177	-0.411817
C74	C	-0.258201	1.501177	0.088183
C75	C	-0.153858	1.026158	-0.387018
C76	C	0.346142	1.526158	0.112982
C77	C	-0.060827	1.030029	-0.383213
C78	C	0.439173	1.530029	0.116787
C79	C	-0.380544	1.024148	-0.580168
C80	C	0.119456	1.524148	-0.080168
C81	C	-0.384113	1.027162	-0.658671
C82	C	0.115887	1.527162	-0.158671
C83	C	-0.363774	1.201301	-0.403025
C84	C	0.136226	1.701301	0.096975
C85	C	-0.360196	1.279807	-0.406040
C86	C	0.139804	1.779807	0.093960
C87	C	-0.334323	0.985637	-0.691627
C88	C	0.165677	1.485637	-0.191627
C89	C	-0.337683	0.988466	-0.765390
C90	C	0.162317	1.488466	-0.265390
C91	C	-0.390831	1.032824	-0.806195
C92	C	0.109169	1.532824	-0.306195
C93	C	-0.440627	1.074350	-0.773234
C94	C	0.059373	1.574350	-0.273234
C95	C	-0.437270	1.071517	-0.699473
C96	C	0.062730	1.571517	-0.199473
C97	C	-0.406393	1.045899	-1.027217
C98	C	0.093607	1.545899	-0.527217
C99	C	-0.409744	1.048730	-1.100983
C100	C	0.090256	1.548730	-0.600983
C101	C	-0.306801	0.962845	-1.093134
C102	C	0.193199	1.462845	-0.593134
C103	C	-0.303445	0.960019	-1.019372
C104	C	0.196555	1.460019	-0.519372
C105	C	-0.353245	1.001542	-0.986417
C106	C	0.146755	1.501542	-0.486417
N107	N	-0.394265	1.035718	-0.881591
N108	N	0.105735	1.535718	-0.381591
N109	N	-0.349814	0.998644	-0.911022
N110	N	0.150186	1.498644	-0.411022
C111	C	-0.363764	1.010073	-0.212446
C112	C	0.136236	1.510073	0.287554
C113	C	-0.359953	1.007206	-0.133939
C114	C	0.140047	1.507206	0.366061
H115	H	-0.297348	0.621573	-0.458636
H116	H	0.202652	1.121573	0.041364
H117	H	-0.477809	1.105337	-0.672641
H118	H	0.022191	1.605337	-0.172641
C119	C	-0.498970	0.595528	-0.289706
C120	C	0.001030	1.095528	0.210294
N121	N	-0.542949	0.561688	-0.252868
N122	N	-0.042949	1.061688	0.247132
H123	H	-0.260525	0.427663	-0.489532
H124	H	0.239475	0.927663	0.010468
C125	C	-0.905741	0.947572	-0.465401
C126	C	-0.405741	1.447572	0.034599
N127	N	-0.945488	0.910096	-0.502814
N128	N	-0.445488	1.410096	-0.002814
H129	H	-0.446976	0.413291	-0.333298
H130	H	0.053024	0.913291	0.166702
C131	C	-0.837750	1.086696	-0.326498
C132	C	-0.337750	1.586696	0.173502
N133	N	-0.798010	1.124158	-0.289067
N134	N	-0.298010	1.624158	0.210933
H135	H	-0.291039	0.949520	-0.658409
H136	H	0.208961	1.449520	-0.158409
H137	H	-0.453117	0.279475	-0.328190
H138	H	0.046883	0.779475	0.171810
H139	H	-0.446953	1.079702	-1.000395
H140	H	0.053047	1.579702	-0.500395
C141	C	-0.491875	0.750434	-0.295626
C142	C	0.008125	1.250434	0.204374
N143	N	-0.533052	0.777708	-0.261120
N144	N	-0.033052	1.277708	0.238880
H145	H	-0.297141	0.954649	-0.792219
H146	H	0.202859	1.454649	-0.292219
H147	H	-0.291218	0.755388	-0.463755
H148	H	0.208782	1.255388	0.036245
C149	C	-0.252443	0.284431	-0.496305
C150	C	0.247557	0.784431	0.003695
N151	N	-0.211254	0.257152	-0.530798
N152	N	0.288746	0.757152	-0.030798
C153	C	-0.244980	0.911220	-0.974492
C154	C	0.255020	1.411220	-0.474492
N155	N	-0.200942	0.874465	-0.940688
N156	N	0.299058	1.374465	-0.440688
C157	C	-0.252030	0.917167	-1.129390
C158	C	0.247970	1.417167	-0.629390
N159	N	-0.210778	0.882759	-1.156698
N160	N	0.289222	1.382759	-0.656698
C161	C	-0.468216	1.097527	-1.145867
C162	C	0.031784	1.597527	-0.645867
N163	N	-0.512255	1.134279	-1.179674
N164	N	-0.012255	1.634279	-0.679674
C165	C	-0.499287	1.122976	-0.818123
C166	C	0.000713	1.622976	-0.318123
N167	N	-0.543539	1.159544	-0.851934
N168	N	-0.043539	1.659544	-0.351934
