data_functionalizedCrystal
_audit_creation_method	'MofGen! by Chris Wilmer'
_symmetry_space_group_name_H-M	'P1'
_symmetry_Int_Tables_number	1
_symmetry_cell_setting	triclinic
loop_
_symmetry_equiv_pos_as_xyz
  x,y,z
_cell_length_a	15.297475
_cell_length_b	29.839132
_cell_length_c	15.296720
_cell_angle_alpha	99.634725
_cell_angle_beta	88.382886
_cell_angle_gamma	99.653501
loop_
_atom_site_label
_atom_site_type_symbol
_atom_site_fract_x
_atom_site_fract_y
_atom_site_fract_z
Zn1	Zn	1.253141	0.349608	0.726471
Zn2	Zn	1.278356	0.414291	0.579963
Zn3	Zn	1.132038	0.324372	0.554721
Zn4	Zn	1.106585	0.409876	0.701093
O5	O	1.192530	0.374537	0.640562
O6	O	1.379055	0.370597	0.728221
O7	O	1.280151	0.393650	0.454043
O8	O	1.148202	0.264866	0.577561
O9	O	1.397580	0.418120	0.620582
O10	O	1.237176	0.283407	0.703745
O11	O	1.172651	0.327587	0.435498
O12	O	1.006093	0.323305	0.552953
O13	O	1.104822	0.410594	0.827031
O14	O	0.987393	0.386124	0.660492
O15	O	1.212496	0.366316	0.845676
O16	O	1.255470	0.476559	0.595975
O17	O	1.129271	0.473315	0.684968
C18	C	0.964962	0.351498	0.601230
C19	C	0.867604	0.341654	0.584425
C20	C	1.192366	0.491238	0.640480
C21	C	1.192370	0.541174	0.640488
C22	C	0.554381	0.444896	0.760677
C23	C	0.645854	0.454148	0.776464
C24	C	0.701296	0.426025	0.728456
C25	C	0.665256	0.388649	0.664657
C26	C	0.573774	0.379398	0.648863
C27	C	0.720689	0.360527	0.616642
C28	C	0.684649	0.323151	0.552844
C29	C	0.593176	0.313902	0.537053
C30	C	0.537734	0.342025	0.585061
C31	C	0.812171	0.369778	0.632436
C32	C	0.831564	0.304280	0.520623
C33	C	0.740091	0.295028	0.504835
C34	C	1.258273	0.852521	0.594276
C35	C	1.258353	1.040204	0.594310
O36	O	1.314295	1.065907	0.554987
N37	N	1.192619	1.061989	0.640592
C38	C	1.126863	1.036851	0.686874
O39	O	1.070960	1.059689	0.726248
C40	C	1.126788	0.849170	0.686844
C41	C	1.192521	0.827386	0.640552
C42	C	1.324002	0.830737	0.547988
C43	C	1.323978	0.783819	0.547976
C44	C	1.258226	0.758684	0.594252
C45	C	1.192498	0.780468	0.640540
C46	C	1.061037	0.824034	0.733130
C47	C	1.061025	0.777111	0.733121
C48	C	1.126758	0.755327	0.686828
C49	C	1.126722	0.708415	0.686803
N50	N	1.192456	0.686629	0.640521
C51	C	1.258209	0.711764	0.594246
C52	C	1.126907	1.135387	0.686885
C53	C	1.126925	1.182307	0.686891
C54	C	1.258416	1.185656	0.594328
C55	C	1.258394	1.138735	0.594318
C56	C	1.192641	1.113601	0.640603
C57	C	1.258154	0.613232	0.594223
C58	C	1.258122	0.566308	0.594212
C59	C	1.126634	0.562963	0.686778
C60	C	1.126663	0.609882	0.686786
C61	C	1.192430	0.635016	0.640506
O62	O	1.070816	0.682685	0.726114
O63	O	1.314115	0.688921	0.554894
C64	C	1.258297	0.899440	0.594288
C65	C	1.192568	0.921223	0.640576
C66	C	1.126816	0.896089	0.686852
C67	C	1.192586	0.968143	0.640582
C68	C	1.258338	0.993278	0.594306
C69	C	1.324072	0.971493	0.548024
C70	C	1.324049	0.924574	0.548012
C71	C	1.061082	0.917874	0.733134
C72	C	1.061110	0.964792	0.733141
C73	C	1.126862	0.989927	0.686865
C74	C	1.420986	0.397666	0.680048
C75	C	1.518341	0.407523	0.696875
C76	C	1.153007	0.390777	0.869024
C77	C	1.136165	0.397698	0.966380
C78	C	1.192686	1.257379	0.640643
C79	C	1.192677	1.207441	0.640615
C80	C	1.231949	0.358332	0.412998
C81	C	1.248961	0.351302	0.315671
C82	C	1.312937	0.324997	1.279644
C83	C	1.328767	0.318496	1.188173
C84	C	1.280617	0.338296	1.132721
C85	C	1.216636	0.364598	1.168747
C86	C	1.200810	0.371103	1.260228
C87	C	1.168490	0.384402	1.113304
C88	C	1.104509	0.410704	1.149331
C89	C	1.088685	0.417207	1.240803
C90	C	1.136834	0.397408	1.296255
C91	C	1.184317	0.377897	1.021824
C92	C	1.072189	0.424003	1.002408
C93	C	1.056360	0.430504	1.093878
H94	H	0.841505	0.400210	0.684382
C95	C	0.493391	0.475828	0.813475
N96	N	0.447451	0.499128	0.853246
C97	C	0.985980	0.459435	1.133520
N98	N	0.932969	0.481225	1.163379
H99	H	1.007539	0.897413	0.770818
H100	H	1.073097	0.542491	0.724452
C101	C	1.396359	0.900618	0.497083
N102	N	1.450826	0.882577	0.458719
C103	C	0.988792	0.988749	0.784069
N104	N	0.934327	1.006792	0.822433
H105	H	1.311954	1.206129	0.556649
H106	H	1.123949	0.402700	1.370739
C107	C	1.399136	0.289560	1.148550
N108	N	1.452139	0.267761	1.118704
C109	C	1.396399	0.999150	0.497119
N110	N	1.450875	1.019984	0.458784
C111	C	1.054350	0.633844	0.737706
N112	N	0.999889	0.651891	0.776068
C113	C	1.365889	0.303218	1.340646
N114	N	1.405774	0.286811	1.386594
C115	C	0.700434	0.253916	0.434655
N116	N	0.670564	0.222951	0.381794
H117	H	0.775777	0.433561	0.741314
C118	C	1.254689	0.348961	0.982205
N119	N	1.307695	0.327164	0.952364
C120	C	1.018307	0.446143	1.280430
N121	N	0.965297	0.467937	1.310275
H122	H	1.032984	0.440126	0.957258
H123	H	0.463248	0.334493	0.572213
H124	H	1.377550	0.851198	0.510305
H125	H	0.675192	0.484581	0.828407
H126	H	0.563837	0.283471	0.485095
C127	C	0.892546	0.273342	0.467812
N128	N	0.938483	0.250041	0.428038
H129	H	1.293510	0.333001	1.058242
C130	C	1.330434	0.542349	0.543280
N131	N	1.384897	0.524303	0.504918
H132	H	1.311709	0.633690	0.556540
C133	C	1.396285	0.759862	0.497042
N134	N	1.450749	0.741820	0.458673
H135	H	1.007482	0.756650	0.770815
C136	C	1.054606	1.206262	0.737806
N137	N	1.000136	1.224304	0.776162
C138	C	1.054588	1.107750	0.737832
N139	N	1.000123	1.086937	0.776215
C140	C	1.330707	1.114777	0.543396
N141	N	1.385178	1.096736	0.505041
C142	C	0.988725	0.847986	0.784060
N143	N	0.934257	0.866026	0.822425
