data_functionalizedCrystal
_audit_creation_method	'MofGen! by Chris Wilmer'
_symmetry_space_group_name_H-M	'P1'
_symmetry_Int_Tables_number	1
_symmetry_cell_setting	triclinic
loop_
_symmetry_equiv_pos_as_xyz
  x,y,z
_cell_length_a	13.032831
_cell_length_b	21.395363
_cell_length_c	21.395355
_cell_angle_alpha	89.996048
_cell_angle_beta	82.805728
_cell_angle_gamma	82.808442
loop_
_atom_site_label
_atom_site_type_symbol
_atom_site_fract_x
_atom_site_fract_y
_atom_site_fract_z
Zn1	Zn	1.597924	-0.371391	-0.475804
Zn2	Zn	1.597849	-0.476145	-0.371048
Zn3	Zn	1.423142	-0.358060	-0.357754
Zn4	Zn	1.423178	-0.462806	-0.462509
O5	O	1.510523	-0.417101	-0.416779
O6	O	1.744162	-0.396448	-0.473036
O7	O	1.574627	-0.460484	-0.281603
O8	O	1.446344	-0.272152	-0.373414
O9	O	1.744106	-0.473411	-0.396072
O10	O	1.574756	-0.281946	-0.460145
O11	O	1.446271	-0.373727	-0.271836
O12	O	1.276899	-0.360793	-0.360522
O13	O	1.446405	-0.450676	-0.551954
O14	O	1.276926	-0.437750	-0.437485
O15	O	1.574790	-0.383514	-0.561722
O16	O	1.574662	-0.562052	-0.383180
O17	O	1.446331	-0.552252	-0.450376
C18	C	1.238992	-0.396378	-0.396118
C19	C	1.122830	-0.387528	-0.387295
C20	C	1.510554	-0.253680	-0.416780
C21	C	1.510567	-0.184039	-0.416780
C22	C	1.510521	-0.579888	-0.416793
C23	C	1.510615	-0.649536	-0.416828
C24	C	1.071082	-0.421720	-0.421384
C25	C	0.951022	-0.412573	-0.412265
C26	C	1.783114	-0.437905	-0.437520
C27	C	1.899277	-0.446770	-0.446359
C28	C	1.510610	-0.417094	-0.580209
C29	C	1.510647	-0.417092	-0.649853
C30	C	1.443722	-0.146227	-0.371625
C31	C	1.443721	-0.080791	-0.371633
C32	C	1.510584	-0.053172	-0.416789
C33	C	1.577433	-0.090993	-0.461952
C34	C	1.577425	-0.156427	-0.461947
C35	C	1.604757	0.043310	-0.428907
C36	C	1.604767	0.108742	-0.428907
C37	C	1.510608	0.148647	-0.416808
C38	C	1.416436	0.123111	-0.404694
C39	C	1.416428	0.057678	-0.404690
C40	C	1.510599	0.017779	-0.416800
C41	C	1.443756	0.257412	-0.371659
C42	C	1.443753	0.322849	-0.371670
C43	C	1.577475	0.312645	-0.461987
C44	C	1.577468	0.247210	-0.461978
C45	C	1.510610	0.219598	-0.416811
C46	C	1.577494	-0.382119	-0.687653
C47	C	1.577493	-0.382092	-0.753088
C48	C	1.510655	-0.417050	-0.780722
C49	C	1.443794	-0.452025	-0.742913
C50	C	1.443790	-0.452046	-0.677478
C51	C	1.502402	-0.472836	-0.883774
C52	C	1.502413	-0.472816	-0.949208
C53	C	1.510661	-0.416984	-0.982543
C54	C	1.518920	-0.361171	-0.950438
C55	C	1.518916	-0.361192	-0.885003
C56	C	1.510651	-0.417031	-0.851674
C57	C	1.577511	-0.381978	-1.091296
C58	C	1.577502	-0.381950	-1.156732
C59	C	1.443809	-0.451889	-1.146555
C60	C	1.443812	-0.451912	-1.081120
C61	C	1.510669	-0.416958	-1.053495
C62	C	1.510497	-0.417066	-0.253989
C63	C	1.510662	-0.416907	-0.184361
H64	H	1.115662	-0.457762	-0.457322
Br65	Br	0.973562	-0.506840	-0.506272
H66	H	1.631926	-0.353608	-0.783871
H67	H	1.078250	-0.351481	-0.351361
H68	H	1.525638	-0.315708	-0.977578
H69	H	0.906446	-0.376524	-0.376329
H70	H	1.389280	-0.168704	-0.334847
Br71	Br	1.668189	0.195890	-0.523264
H72	H	1.631933	-0.353655	-0.665165
Br73	Br	1.353002	-0.029464	-0.310345
Br74	Br	1.288630	0.023023	-0.388255
Br75	Br	1.353021	0.219934	-0.310363
Br76	Br	1.353060	-0.499512	-0.626174
H77	H	1.339764	0.155601	-0.394841
H78	H	1.389314	0.353638	-0.334902
Br79	Br	1.668212	0.350121	-0.523276
Br80	Br	1.732570	0.143391	-0.445343
H81	H	1.681437	0.010824	-0.438768
H82	H	1.495695	-0.518263	-0.975343
Br83	Br	1.353085	-0.499325	-1.184050
H84	H	1.631872	-0.068502	-0.498721
H85	H	1.525638	-0.315748	-0.858866
H86	H	1.631943	-0.353513	-1.068802
H87	H	1.631858	-0.187214	-0.498720
H88	H	1.631936	-0.353466	-1.187508
Br89	Br	1.353087	-0.499379	-1.029816
H90	H	1.495406	-0.518268	-0.856617
Br91	Br	1.353078	-0.499464	-0.780413
