data_functionalizedCrystal
_audit_creation_method	'MofGen! by Chris Wilmer'
_symmetry_space_group_name_H-M	'P1'
_symmetry_Int_Tables_number	1
_symmetry_cell_setting	triclinic
loop_
_symmetry_equiv_pos_as_xyz
  x,y,z
_cell_length_a	17.699083
_cell_length_b	17.699083
_cell_length_c	16.176319
_cell_angle_alpha	90.007696
_cell_angle_beta	90.001389
_cell_angle_gamma	83.283015
loop_
_atom_site_label
_atom_site_type_symbol
_atom_site_fract_x
_atom_site_fract_y
_atom_site_fract_z
O1	O	-1.004079	-0.095713	-0.068632
O2	O	-0.504079	0.404287	0.431368
O3	O	-0.783700	-0.108166	-0.068660
O4	O	-0.283700	0.391834	0.431340
O5	O	-0.900116	0.008250	-0.068638
O6	O	-0.400116	0.508250	0.431362
O7	O	-0.887663	-0.212129	-0.068654
O8	O	-0.387663	0.287871	0.431346
O9	O	-0.900100	0.008257	0.068855
O10	O	-0.400100	0.508257	0.568855
O11	O	-0.783684	-0.108158	0.068834
O12	O	-0.283684	0.391842	0.568834
O13	O	-1.004063	-0.095706	0.068861
O14	O	-0.504063	0.404294	0.568861
Cu15	Cu	-0.893872	-0.101931	0.081401
Cu16	Cu	-0.393872	0.398069	0.581401
Cu17	Cu	-0.893891	-0.101940	-0.081200
Cu18	Cu	-0.393891	0.398060	0.418800
O19	O	-0.887647	-0.212121	0.068839
O20	O	-0.387647	0.287879	0.568839
C21	C	-0.899662	0.036451	0.000109
C22	C	-0.399662	0.536451	0.500109
C23	C	-0.898323	0.120469	0.000109
C24	C	-0.398323	0.620469	0.500109
C25	C	-0.755495	-0.107716	0.000084
C26	C	-0.255495	0.392284	0.500084
C27	C	-0.671477	-0.106377	0.000073
C28	C	-0.171477	0.393623	0.500073
C29	C	-1.032268	-0.096156	0.000116
C30	C	-0.532268	0.403844	0.500116
C31	C	-1.116286	-0.097494	0.000121
C32	C	-0.616286	0.402506	0.500121
C33	C	-0.622856	-0.174710	0.000069
C34	C	-0.122856	0.325290	0.500069
C35	C	-0.543913	-0.173448	0.000079
C36	C	-0.043913	0.326552	0.500079
C37	C	-0.513592	-0.103852	0.000089
C38	C	-0.013592	0.396148	0.500089
C39	C	-0.562219	-0.035513	0.000096
C40	C	-0.062219	0.464487	0.500096
C41	C	-0.641161	-0.036776	0.000091
C42	C	-0.141161	0.463224	0.500091
C43	C	-0.243856	-0.030418	0.000117
C44	C	0.256144	0.469582	0.500117
C45	C	-0.164908	-0.029160	0.000120
C46	C	0.335092	0.470840	0.500120
C47	C	-0.146608	-0.167090	0.000105
C48	C	0.353392	0.332910	0.500105
C49	C	-0.225550	-0.168353	0.000100
C50	C	0.274450	0.331647	0.500100
C51	C	-0.274170	-0.100015	0.000112
C52	C	0.225830	0.399985	0.500112
C53	C	-0.359769	-0.101384	0.000102
C54	C	0.140231	0.398616	0.500102
C55	C	-0.427995	-0.102481	0.000093
C56	C	0.072005	0.397519	0.500093
C57	C	-0.888102	-0.240322	0.000091
C58	C	-0.388102	0.259678	0.500091
C59	C	-0.889440	-0.324340	0.000085
C60	C	-0.389440	0.175660	0.500085
N61	N	-0.893864	-0.101925	0.195767
N62	N	-0.393864	0.398075	0.695767
C63	C	-0.966656	0.169090	0.000119
C64	C	-0.466656	0.669090	0.500119
C65	C	-0.965394	0.248033	0.000111
C66	C	-0.465394	0.748033	0.500111
C67	C	-0.895798	0.278354	0.000100
C68	C	-0.395798	0.778354	0.500100
C69	C	-0.827459	0.229727	0.000088
C70	C	-0.327459	0.729727	0.500088
C71	C	-0.828722	0.150785	0.000089
C72	C	-0.328722	0.650785	0.500089
C73	C	-0.822364	0.548090	0.000080
C74	C	-0.322364	1.048090	0.500080
C75	C	-0.821106	0.627038	0.000081
C76	C	-0.321106	1.127038	0.500081
C77	C	-0.959036	0.645338	0.000102
C78	C	-0.459036	1.145338	0.500102
C79	C	-0.960299	0.566396	0.000104
C80	C	-0.460299	1.066396	0.500104
C81	C	-0.891961	0.517776	0.000087
C82	C	-0.391961	1.017776	0.500087
C83	C	-0.893330	0.432177	0.000094
C84	C	-0.393330	0.932177	0.500094
C85	C	-0.894427	0.363951	0.000099
C86	C	-0.394427	0.863951	0.500099
N87	N	-0.893905	-0.101941	-0.195565
N88	N	-0.393905	0.398059	0.304435
C89	C	-0.945429	-0.050397	0.239040
C90	C	-0.445429	0.449603	0.739040
C91	C	-0.945432	-0.050396	0.325588
C92	C	-0.445432	0.449604	0.825588
C93	C	-0.893875	-0.101927	0.368859
C94	C	-0.393875	0.398073	0.868859
C95	C	-0.842305	-0.153457	0.325579
C96	C	-0.342305	0.346543	0.825579
C97	C	-0.842299	-0.153454	0.239034
C98	C	-0.342299	0.346546	0.739034
C99	C	-0.842331	-0.153472	0.674608
C100	C	-0.342331	0.346528	1.174608
C101	C	-0.842344	-0.153473	0.761159
C102	C	-0.342344	0.346527	1.261159
C103	C	-0.945465	-0.050414	0.761161
C104	C	-0.445465	0.449586	1.261161
C105	C	-0.945458	-0.050410	0.674616
C106	C	-0.445458	0.449590	1.174616
C107	C	-0.893886	-0.101937	0.631344
C108	C	-0.393886	0.398063	1.131344
C109	C	-0.893882	-0.101937	0.537499
C110	C	-0.393882	0.398063	1.037499
C111	C	-0.893883	-0.101932	0.462702
C112	C	-0.393883	0.398068	0.962702
H113	H	-0.647537	-0.231384	0.000060
H114	H	-0.147537	0.268616	0.500060
F115	F	-0.692907	0.035954	0.000099
F116	F	-0.192907	0.535954	0.500099
F117	F	-0.755992	0.099039	0.000077
F118	F	-0.255992	0.599039	0.500077
H119	H	-0.800309	-0.195412	0.203801
H120	H	-0.300309	0.304588	0.703801
F121	F	-0.787430	-0.208298	0.371633
F122	F	-0.287430	0.291702	0.871633
H123	H	-1.016971	0.541714	0.000117
H124	H	-0.516971	1.041714	0.500117
H125	H	-0.764429	0.651721	0.000074
H126	H	-0.264429	1.151721	0.500074
F127	F	-0.492170	-0.246178	0.000071
F128	F	0.007830	0.253822	0.500071
F129	F	-0.753389	0.261998	0.000067
F130	F	-0.253389	0.761998	0.500067
H131	H	-0.800357	-0.195437	0.796390
H132	H	-0.300357	0.304563	1.296390
H133	H	-0.250232	-0.225025	0.000089
H134	H	0.249768	0.274975	0.500089
H135	H	-0.107012	-0.222734	0.000100
H136	H	0.392988	0.277266	0.500100
H137	H	-0.283434	0.025228	0.000127
H138	H	0.216566	0.525228	0.500127
F139	F	-0.132641	0.044918	0.000130
F140	F	0.367359	0.544918	0.500130
F141	F	-1.031768	0.697089	0.000117
F142	F	-0.531768	1.197089	0.500117
F143	F	-0.529948	0.038557	0.000112
F144	F	-0.029948	0.538557	0.500112
F145	F	-1.040732	0.136828	0.000138
F146	F	-0.540732	0.636828	0.500138
H147	H	-1.021038	0.287618	0.000121
H148	H	-0.521038	0.787618	0.500121
H149	H	-0.766718	0.508512	0.000067
H150	H	-0.266718	1.008512	0.500067
F151	F	-1.000312	0.004446	0.371643
F152	F	-0.500312	0.504446	0.871643
F153	F	-1.000308	0.004447	0.192996
F154	F	-0.500308	0.504447	0.692996
F155	F	-1.000335	0.004433	0.628566
F156	F	-0.500335	0.504433	1.128566
H157	H	-0.987456	-0.008455	0.796403
H158	H	-0.487456	0.491545	1.296403
F159	F	-0.787447	-0.208312	0.628561
F160	F	-0.287447	0.291688	1.128561
