data_functionalizedCrystal
_audit_creation_method	'MofGen! by Chris Wilmer'
_symmetry_space_group_name_H-M	'P1'
_symmetry_Int_Tables_number	1
_symmetry_cell_setting	triclinic
loop_
_symmetry_equiv_pos_as_xyz
  x,y,z
_cell_length_a	18.050589
_cell_length_b	16.959455
_cell_length_c	18.050582
_cell_angle_alpha	90.020733
_cell_angle_beta	90.018912
_cell_angle_gamma	90.025241
loop_
_atom_site_label
_atom_site_type_symbol
_atom_site_fract_x
_atom_site_fract_y
_atom_site_fract_z
Zn1	Zn	-0.295760	1.208342	0.420032
Zn2	Zn	-0.419945	1.208245	0.295852
Zn3	Zn	-0.295767	1.076169	0.295846
Zn4	Zn	-0.419907	1.076116	0.419990
O5	O	-0.357845	1.142218	0.357930
O6	O	-0.312247	1.318940	0.403580
O7	O	-0.403492	1.190706	0.191926
O8	O	-0.191842	1.093765	0.312335
O9	O	-0.403485	1.318868	0.312345
O10	O	-0.191837	1.190872	0.403574
O11	O	-0.312259	1.093671	0.191922
O12	O	-0.312221	0.965552	0.312293
O13	O	-0.403419	1.093675	0.523920
O14	O	-0.403426	0.965512	0.403501
O15	O	-0.312210	1.190820	0.523951
O16	O	-0.523865	1.190655	0.312304
O17	O	-0.523836	1.093580	0.403507
C18	C	-0.357821	0.936852	0.357893
C19	C	-0.357828	0.848995	0.357894
C20	C	-0.405306	0.477472	0.310400
C21	C	-0.310446	0.477567	0.405551
C22	C	-0.310434	0.560113	0.405533
C23	C	-0.357859	0.601342	0.357948
C24	C	-0.405296	0.560025	0.310382
C25	C	-0.263003	0.601436	0.453103
C26	C	-0.262989	0.683987	0.453088
C27	C	-0.310411	0.725218	0.405499
C28	C	-0.357850	0.683896	0.357930
C29	C	-0.405275	0.725125	0.310346
C30	C	-0.452710	0.683804	0.262773
C31	C	-0.452718	0.601256	0.262793
C32	C	-0.310403	0.807766	0.405479
C33	C	-0.405266	0.807678	0.310328
C34	C	-0.550797	1.142123	0.357918
C35	C	-0.633343	1.142154	0.357937
C36	C	-0.832805	1.089417	0.407516
C37	C	-0.882239	1.070154	0.339748
C38	C	-0.784473	1.142232	0.357947
C39	C	-0.882121	1.161534	0.425724
C40	C	-0.930458	1.142305	0.357962
C41	C	-0.832820	1.122931	0.290142
C42	C	-0.832698	1.214344	0.376164
C43	C	-0.882109	1.195108	0.308348
C44	C	-0.700375	1.142187	0.357939
C45	C	-1.014555	1.142350	0.357962
C46	C	-0.164139	1.142335	0.357959
C47	C	-0.081593	1.142385	0.357971
C48	C	-0.357810	1.142252	0.551636
C49	C	-0.357795	1.142267	0.634182
C50	C	-0.357870	1.348386	0.357968
C51	C	-0.357880	1.436243	0.357984
C52	C	-0.357827	1.142230	0.164978
C53	C	-0.357632	1.142368	0.082433
C54	C	-0.407314	1.089488	0.882990
C55	C	-0.339575	1.070181	0.833596
C56	C	-0.357685	1.142334	0.931302
C57	C	-0.425474	1.161571	0.833615
C58	C	-0.357743	1.142299	0.785317
C59	C	-0.289911	1.122989	0.882995
C60	C	-0.375855	1.214412	0.883018
C61	C	-0.308070	1.195132	0.833646
C62	C	-0.357653	1.142352	1.015400
C63	C	-0.357767	1.142281	0.701220
H64	H	-0.224396	0.567862	0.491849
H65	H	-0.903777	1.177831	0.483035
H66	H	-0.903621	1.239804	0.266387
H67	H	-0.443924	0.443825	0.271665
H68	H	-0.449205	1.044780	0.904657
H69	H	-0.443883	0.841241	0.271576
C70	C	-0.258233	0.853215	0.457803
H71	H	-0.229989	0.816838	0.486144
H72	H	-0.286683	0.885431	0.490102
H73	H	-0.225825	0.885408	0.429440
C74	C	-0.258282	0.432218	0.457888
H75	H	-0.265079	0.377137	0.451083
H76	H	-0.269212	0.445775	0.507766
H77	H	-0.208365	0.445755	0.447092
H78	H	-0.491337	0.567605	0.224061
H79	H	-0.224364	0.717624	0.491824
H80	H	-0.324227	1.009211	0.811887
H81	H	-0.811253	1.106563	0.232815
C82	C	-0.803551	1.028997	0.464063
H83	H	-0.820516	0.977809	0.451000
H84	H	-0.821155	1.042179	0.512082
H85	H	-0.750925	1.029717	0.463977
H86	H	-0.904016	1.009205	0.324353
C87	C	-0.803303	1.296675	0.396989
H88	H	-0.820161	1.310292	0.445176
H89	H	-0.820937	1.334330	0.362263
H90	H	-0.750679	1.296195	0.396390
H91	H	-0.232590	1.106635	0.904595
H92	H	-0.266077	1.239808	0.812117
C93	C	-0.502882	1.183579	0.804311
H94	H	-0.499538	1.230213	0.775358
H95	H	-0.535367	1.192325	0.844880
H96	H	-0.521491	1.141770	0.774605
H97	H	-0.391224	1.275365	0.904743
H98	H	-0.491328	0.717384	0.224033
