data_functionalizedCrystal
_audit_creation_method	'MofGen! by Chris Wilmer'
_symmetry_space_group_name_H-M	'P1'
_symmetry_Int_Tables_number	1
_symmetry_cell_setting	triclinic
loop_
_symmetry_equiv_pos_as_xyz
  x,y,z
_cell_length_a	23.532407
_cell_length_b	15.538191
_cell_length_c	14.185569
_cell_angle_alpha	82.124202
_cell_angle_beta	76.924933
_cell_angle_gamma	114.939614
loop_
_atom_site_label
_atom_site_type_symbol
_atom_site_fract_x
_atom_site_fract_y
_atom_site_fract_z
O1	O	-0.167965	-1.230119	-0.083405
O2	O	-0.102078	-0.955241	-0.083414
O3	O	-0.219642	-1.100973	-0.083391
O4	O	-0.050401	-1.084386	-0.083428
O5	O	-0.254369	-1.144024	0.083451
O6	O	-0.136805	-0.998292	0.083427
O7	O	-0.202692	-1.273169	0.083436
Cu8	Cu	-0.172919	-1.139661	0.098666
Cu9	Cu	-0.131851	-1.088749	-0.098643
O10	O	-0.085128	-1.127437	0.083413
C11	C	-0.112548	-0.941606	0.000006
C12	C	-0.092014	-0.836839	0.000003
C13	C	-0.258136	-1.122077	0.000032
C14	C	-0.321097	-1.120810	0.000040
C15	C	-0.192222	-1.286804	0.000014
C16	C	-0.212754	-1.391568	0.000010
C17	C	-0.736103	-1.199074	-0.000012
C18	C	-0.795262	-1.197893	-0.000020
O19	O	-0.846751	-1.270447	-0.000055
N20	N	-0.800275	-1.111258	-0.000022
C21	C	-0.746122	-1.025796	-0.000027
O22	O	-0.755818	-0.951997	-0.000030
C23	C	-0.686963	-1.026976	-0.000026
C24	C	-0.681957	-1.113619	-0.000014
C25	C	-0.731095	-1.285710	-0.000001
C26	C	-0.671940	-1.286891	0.000008
C27	C	-0.617794	-1.201436	0.000007
C28	C	-0.622802	-1.114800	-0.000004
C29	C	-0.632810	-0.941513	-0.000038
C30	C	-0.573649	-0.942700	-0.000038
C31	C	-0.568643	-1.029343	-0.000026
C32	C	-0.509502	-1.030526	0.000003
N33	N	-0.504489	-1.117161	0.000006
C34	C	-0.558635	-1.202616	0.000007
C35	C	-0.870361	-1.023323	-0.000030
C36	C	-0.929521	-1.022144	-0.000023
C37	C	-0.978656	-1.194241	-0.000018
C38	C	-0.919497	-1.195421	-0.000017
C39	C	-0.865349	-1.109958	-0.000027
C40	C	-0.434404	-1.205090	0.000028
C41	C	-0.375243	-1.206265	0.000042
C42	C	-0.326112	-1.034167	0.000032
C43	C	-0.385269	-1.032993	0.000023
C44	C	-0.439415	-1.118462	0.000018
O45	O	-0.457984	-0.958009	0.000034
O46	O	-0.548925	-1.276399	-0.000003
C47	C	-0.046633	-1.106332	-0.000012
C48	C	0.016329	-1.107598	-0.000026
N49	N	-0.201806	-1.175477	0.237443
C50	C	-0.296010	-0.550965	0.000032
C51	C	-0.276701	-0.452518	0.000027
C52	C	-0.168092	-0.429052	0.000004
C53	C	-0.187393	-0.527501	0.000014
C54	C	-0.251353	-0.588450	0.000027
C55	C	-0.142735	-0.564986	0.000008
C56	C	-0.162034	-0.663425	0.000013
C57	C	-0.225991	-0.724379	0.000023
C58	C	-0.270652	-0.686889	0.000031
C59	C	-0.078774	-0.504034	-0.000012
C60	C	-0.034116	-0.541519	-0.000018
C61	C	-0.053416	-0.639961	-0.000006
C62	C	-0.117373	-0.700915	0.000004
C63	C	-0.008755	-0.677451	-0.000015
C64	C	-0.028054	-0.775890	-0.000010
C65	C	-0.136672	-0.799355	0.000009
N66	N	-0.102970	-1.052941	-0.237420
C67	C	-0.018124	-0.947714	0.605056
C68	C	-0.040003	-0.974850	0.710082
C69	C	-0.144083	-1.103922	0.710064
C70	C	-0.122214	-1.076793	0.605036
C71	C	-0.059234	-0.998689	0.552540
C72	C	-0.163323	-1.127769	0.552520
C73	C	-0.141454	-1.100645	0.447501
C74	C	-0.078476	-1.022546	0.394998
C75	C	-0.037365	-0.971565	0.447521
C76	C	-0.226302	-1.205877	0.605017
C77	C	-0.267411	-1.256852	0.552501
C78	C	-0.245544	-1.229724	0.447480
C79	C	-0.182566	-1.151625	0.394977
C80	C	-0.286655	-1.280705	0.394957
C81	C	-0.264786	-1.253581	0.289938
C82	C	-0.160697	-1.124502	0.289959
H83	H	-0.371174	-1.276824	0.000054
H84	H	0.013917	-0.907959	0.404778
H85	H	-0.063062	-0.423878	-0.000019
Br86	Br	-0.048793	-0.985740	0.252470
Br87	Br	-0.500162	-0.826707	-0.000057
Br88	Br	0.067346	-0.841700	0.533807
Br89	Br	-0.223479	-0.882085	0.000044
Br90	Br	-0.936311	-0.904558	-0.000016
H91	H	-0.322736	-0.736520	0.000048
Br92	Br	-0.337319	-0.401652	0.000050
Br93	Br	0.078049	-0.594719	-0.000055
H94	H	-0.195362	-1.167518	0.752818
H95	H	-0.775177	-1.355300	-0.000003
H96	H	-0.915427	-1.265973	-0.000008
Br97	Br	-0.665151	-1.404477	-0.000003
Br98	Br	0.052686	-0.458792	-0.000045
Br99	Br	-0.372121	-1.386713	0.466210
Br100	Br	-0.382818	-0.633695	0.000067
Br101	Br	-0.081290	-0.346326	-0.000024
Br102	Br	0.015800	-0.905661	0.781347
Br103	Br	-0.320577	-1.322770	0.218663
Br104	Br	-0.255976	-1.242692	0.747545
H105	H	-0.389350	-0.962449	0.000041
H106	H	0.008309	-0.806413	-0.000005
Br107	Br	-0.352880	-1.362852	0.623751
H108	H	-0.241700	-0.804531	0.000013
Br109	Br	-0.507879	-1.321084	0.000020
H110	H	-1.022753	-1.263822	-0.000020
Br111	Br	-0.796879	-0.907328	-0.000035
H112	H	-0.636872	-0.870957	-0.000054
H113	H	-0.282017	-0.964593	0.000034
H114	H	-0.109415	-1.060895	0.247215
