data_functionalizedCrystal
_audit_creation_method	'MofGen! by Chris Wilmer'
_symmetry_space_group_name_H-M	'P1'
_symmetry_Int_Tables_number	1
_symmetry_cell_setting	triclinic
loop_
_symmetry_equiv_pos_as_xyz
  x,y,z
_cell_length_a	18.215407
_cell_length_b	13.034595
_cell_length_c	18.215399
_cell_angle_alpha	82.837891
_cell_angle_beta	90.017368
_cell_angle_gamma	82.837389
loop_
_atom_site_label
_atom_site_type_symbol
_atom_site_fract_x
_atom_site_fract_y
_atom_site_fract_z
Zn1	Zn	1.162317	-0.416037	0.453339
Zn2	Zn	1.177868	-0.590763	0.345926
Zn3	Zn	1.039252	-0.416062	0.330294
Zn4	Zn	1.054852	-0.590696	0.468950
O5	O	1.108572	-0.503389	0.399627
O6	O	1.267366	-0.439232	0.439099
O7	O	1.159460	-0.567627	0.240872
O8	O	1.042540	-0.269850	0.333541
O9	O	1.278791	-0.567603	0.360183
O10	O	1.132956	-0.269832	0.423941
O11	O	1.057619	-0.439275	0.229387
O12	O	0.938336	-0.439210	0.348678
O13	O	1.069128	-0.567488	0.569860
O14	O	0.949797	-0.567513	0.450548
O15	O	1.148082	-0.439167	0.558391
O16	O	1.174586	-0.736963	0.375321
O17	O	1.084207	-0.736913	0.465706
C18	C	0.917363	-0.503357	0.399612
C19	C	0.835565	-0.503369	0.399625
C20	C	0.641434	-0.436664	0.440803
C21	C	0.564576	-0.436673	0.440806
C22	C	0.576466	-0.570144	0.358467
C23	C	0.653322	-0.570129	0.358461
C24	C	0.685804	-0.503391	0.399632
C25	C	0.532090	-0.503415	0.399643
C26	C	0.448757	-0.503425	0.399646
C27	C	0.769142	-0.503379	0.399628
C28	C	1.132797	-0.774848	0.423920
C29	C	1.143228	-0.890980	0.434337
C30	C	1.103186	-0.942847	0.394224
C31	C	1.113966	-1.062875	0.404989
C32	C	1.300528	-0.503422	0.399644
C33	C	1.382328	-0.503436	0.399651
C34	C	1.108611	-0.503317	0.591574
C35	C	1.108627	-0.503287	0.673370
C36	C	1.084273	-0.230871	0.375256
C37	C	1.073919	-0.114739	0.364870
C38	C	1.108570	-0.503386	0.208421
C39	C	1.108670	-0.503122	0.126599
C40	C	1.149750	-0.436407	0.855588
C41	C	1.149756	-0.436377	0.932444
C42	C	1.067542	-0.570004	0.944376
C43	C	1.067532	-0.570029	0.867521
C44	C	1.108641	-0.503232	0.823129
C45	C	1.108656	-0.503177	0.976840
C46	C	1.108663	-0.503144	1.060171
C47	C	1.108633	-0.503263	0.739792
H48	H	0.550009	-0.624482	0.324948
H49	H	1.183230	-0.381960	0.958867
F50	F	1.023797	-0.641094	0.991628
H51	H	1.034051	-0.624445	0.841093
H52	H	0.667878	-0.382317	0.474325
F53	F	0.517357	-0.365651	0.484624
H54	H	0.689449	-0.624468	0.324931
F55	F	1.018679	-1.056646	0.309556
F56	F	1.047949	-0.884747	0.338914
H57	H	1.156233	-1.107325	0.447302
H58	H	1.185492	-0.935434	0.476647
H59	H	1.183221	-0.382014	0.819445
