data_functionalizedCrystal
_audit_creation_method	'MofGen! by Chris Wilmer'
_symmetry_space_group_name_H-M	'P1'
_symmetry_Int_Tables_number	1
_symmetry_cell_setting	triclinic
loop_
_symmetry_equiv_pos_as_xyz
  x,y,z
_cell_length_a	27.731994
_cell_length_b	27.732048
_cell_length_c	26.210047
_cell_angle_alpha	89.999521
_cell_angle_beta	89.997128
_cell_angle_gamma	82.631595
loop_
_atom_site_label
_atom_site_type_symbol
_atom_site_fract_x
_atom_site_fract_y
_atom_site_fract_z
O1	O	0.640948	0.057385	-0.042362
O2	O	0.974282	0.390719	0.290972
O3	O	1.307615	0.724052	0.624305
O4	O	0.500151	0.066158	-0.042379
O5	O	0.833484	0.399491	0.290954
O6	O	1.166818	0.732825	0.624287
O7	O	0.574923	-0.008626	-0.042360
O8	O	0.908256	0.324707	0.290973
O9	O	1.241589	0.658041	0.624306
O10	O	0.566177	0.132169	-0.042381
O11	O	0.899510	0.465503	0.290953
O12	O	1.232844	0.798836	0.624286
O13	O	0.574908	-0.008614	0.042498
O14	O	0.908242	0.324719	0.375831
O15	O	1.241575	0.658052	0.709164
O16	O	0.500137	0.066170	0.042479
O17	O	0.833470	0.399503	0.375812
O18	O	1.166803	0.732837	0.709145
O19	O	0.640934	0.057397	0.042496
O20	O	0.974267	0.390730	0.375830
O21	O	1.307601	0.724064	0.709163
Cu22	Cu	0.570534	0.061784	0.050236
Cu23	Cu	0.903867	0.395118	0.383569
Cu24	Cu	1.237201	0.728451	0.716902
Cu25	Cu	0.570551	0.061771	-0.050119
Cu26	Cu	0.903884	0.395104	0.283215
Cu27	Cu	1.237218	0.728437	0.616548
O28	O	0.566162	0.132181	0.042477
O29	O	0.899496	0.465514	0.375811
O30	O	1.232829	0.798848	0.709144
C31	C	0.482137	0.065984	0.000047
C32	C	0.815470	0.399317	0.333381
C33	C	1.148803	0.732651	0.666714
C34	C	0.428480	0.065442	0.000041
C35	C	0.761814	0.398775	0.333374
C36	C	1.095147	0.732108	0.666708
C37	C	0.095754	0.062032	0.046317
C38	C	0.429087	0.395366	0.379651
C39	C	0.762421	0.728699	0.712984
C40	C	-0.105904	0.059971	0.046324
C41	C	0.227429	0.393304	0.379657
C42	C	0.560762	0.726637	0.712990
O43	O	-0.131984	0.059689	0.085663
O44	O	0.201350	0.393022	0.418996
O45	O	0.534683	0.726355	0.752329
N46	N	-0.131111	0.059708	0.000067
N47	N	0.202222	0.393042	0.333401
N48	N	0.535555	0.726375	0.666734
C49	C	-0.105900	0.059958	-0.046193
C50	C	0.227433	0.393291	0.287140
C51	C	0.560767	0.726625	0.620473
O52	O	-0.131967	0.059683	-0.085537
O53	O	0.201367	0.393016	0.247796
O54	O	0.534700	0.726349	0.581130
C55	C	0.095758	0.062016	-0.046199
C56	C	0.429091	0.395350	0.287134
C57	C	0.762424	0.728683	0.620468
C58	C	0.120961	0.062283	0.000060
C59	C	0.454295	0.395617	0.333393
C60	C	0.787628	0.728950	0.666727
C61	C	0.120958	0.062299	0.092573
C62	C	0.454291	0.395632	0.425906
C63	C	0.787624	0.728966	0.759239
C64	C	0.171369	0.062817	0.092571
C65	C	0.504702	0.396150	0.425904
C66	C	0.838036	0.729484	0.759237
C67	C	0.196576	0.063068	0.046313
C68	C	0.529910	0.396402	0.379647
C69	C	0.863243	0.729735	0.712980
C70	C	0.171372	0.062802	0.000058
C71	C	0.504706	0.396135	0.333391
C72	C	0.838039	0.729468	0.666725
C73	C	0.120968	0.062263	-0.092459
C74	C	0.454302	0.395596	0.240874
C75	C	0.787635	0.728929	0.574207
C76	C	0.171386	0.062776	-0.092457
C77	C	0.504719	0.396109	0.240877
C78	C	0.838053	0.729443	0.574210
C79	C	0.196590	0.063043	-0.046197
C80	C	0.529923	0.396377	0.287136
C81	C	0.863256	0.729710	0.620469
C82	C	0.246991	0.063571	-0.046201
C83	C	0.580324	0.396904	0.287132
C84	C	0.913658	0.730237	0.620466
N85	N	0.272198	0.063833	0.000055
N86	N	0.605531	0.397167	0.333388
N87	N	0.938865	0.730500	0.666722
C88	C	0.246991	0.063582	0.046312
C89	C	0.580324	0.396915	0.379646
C90	C	0.913657	0.730249	0.712979
C91	C	-0.211773	0.058878	-0.046187
C92	C	0.121560	0.392212	0.287146
C93	C	0.454893	0.725545	0.620479
C94	C	-0.262188	0.058365	-0.046186
C95	C	0.071146	0.391698	0.287147
C96	C	0.404479	0.725031	0.620481
C97	C	-0.262188	0.058376	0.046331
C98	C	0.071145	0.391710	0.379665
C99	C	0.404478	0.725043	0.712998
C100	C	-0.211774	0.058894	0.046329
C101	C	0.121560	0.392227	0.379663
C102	C	0.454893	0.725560	0.712996
C103	C	-0.186566	0.059141	0.000069
C104	C	0.146767	0.392474	0.333402
C105	C	0.480100	0.725808	0.666736
C106	C	0.352858	0.064670	0.046305
C107	C	0.686191	0.398004	0.379638
C108	C	1.019524	0.731337	0.712971
C109	C	0.403273	0.065190	0.046298
C110	C	0.736606	0.398524	0.379632
C111	C	1.069940	0.731857	0.712965
C112	C	0.403269	0.065176	-0.046218
C113	C	0.736603	0.398509	0.287115
C114	C	1.069936	0.731843	0.620448
C115	C	0.352858	0.064659	-0.046213
C116	C	0.686191	0.397992	0.287121
C117	C	1.019525	0.731325	0.620454
C118	C	0.327654	0.064404	0.000053
C119	C	0.660987	0.397737	0.333386
C120	C	0.994320	0.731071	0.666720
O121	O	0.273102	0.063848	-0.085520
O122	O	0.606435	0.397181	0.247814
O123	O	0.939769	0.730514	0.581147
O124	O	0.273067	0.063847	0.085650
O125	O	0.606401	0.397180	0.418983
O126	O	0.939734	0.730513	0.752316
C127	C	0.045343	0.061514	0.046319
C128	C	0.378676	0.394848	0.379653
C129	C	0.712009	0.728181	0.712986
C130	C	0.020139	0.061247	0.000064
C131	C	0.353472	0.394581	0.333397
C132	C	0.686806	0.727914	0.666731
C133	C	0.045346	0.061499	-0.046193
C134	C	0.378680	0.394832	0.287140
C135	C	0.712013	0.728165	0.620473
C136	C	-0.030275	0.060734	0.000065
C137	C	0.303058	0.394067	0.333399
C138	C	0.636391	0.727400	0.666732
C139	C	-0.055483	0.060482	0.046323
C140	C	0.277851	0.393816	0.379656
C141	C	0.611184	0.727149	0.712989
C142	C	-0.030276	0.060745	0.092579
C143	C	0.303058	0.394078	0.425912
C144	C	0.636391	0.727412	0.759245
C145	C	0.020135	0.061263	0.092577
C146	C	0.353469	0.394596	0.425910
C147	C	0.686802	0.727930	0.759243
C148	C	0.020139	0.061236	-0.092449
C149	C	0.353473	0.394570	0.240884
C150	C	0.686806	0.727903	0.574217
C151	C	-0.030272	0.060719	-0.092443
C152	C	0.303061	0.394052	0.240890
C153	C	0.636395	0.727385	0.574223
C154	C	-0.055479	0.060468	-0.046186
C155	C	0.277854	0.393801	0.287147
C156	C	0.611187	0.727134	0.620481
C157	C	0.574732	-0.026627	0.000070
C158	C	0.908065	0.306706	0.333403
C159	C	1.241398	0.640040	0.666737
C160	C	0.574179	-0.080282	0.000074
C161	C	0.907512	0.253052	0.333408
C162	C	1.240846	0.586385	0.666741
C163	C	0.614884	-0.419105	0.000053
C164	C	0.948217	-0.085771	0.333387
C165	C	1.281551	0.247562	0.666720
C166	C	0.612833	-0.620764	0.000046
C167	C	0.946166	-0.287431	0.333379
C168	C	1.279499	0.045903	0.666712
O169	O	0.650055	-0.652027	0.000028
O170	O	0.983388	-0.318693	0.333362
O171	O	1.316721	0.014640	0.666695
N172	N	0.568496	-0.639879	0.000041
N173	N	0.901830	-0.306546	0.333374
N174	N	1.235163	0.026788	0.666707
C175	C	0.524670	-0.608576	0.000034
C176	C	0.858003	-0.275242	0.333367
C177	C	1.191336	0.058091	0.666701
O178	O	0.486912	-0.629462	0.000024
O179	O	0.820245	-0.296128	0.333358
O180	O	1.153578	0.037205	0.666691
C181	C	0.526721	-0.406918	0.000038
C182	C	0.860055	-0.073584	0.333371
C183	C	1.193388	0.259749	0.666704
C184	C	0.571061	-0.387805	0.000048
C185	C	0.904394	-0.054472	0.333381
C186	C	1.237727	0.278861	0.666715
C187	C	0.659220	-0.399992	0.000063
C188	C	0.992553	-0.066659	0.333396
C189	C	1.325886	0.266675	0.666730
C190	C	0.659732	-0.349580	0.000068
C191	C	0.993065	-0.016247	0.333401
C192	C	1.326399	0.317086	0.666734
C193	C	0.615908	-0.318281	0.000062
C194	C	0.949242	0.015052	0.333396
C195	C	1.282575	0.348386	0.666729
C196	C	0.571573	-0.337394	0.000053
C197	C	0.904906	-0.004060	0.333386
C198	C	1.238239	0.329273	0.666719
C199	C	0.482895	-0.375615	0.000028
C200	C	0.816228	-0.042282	0.333361
C201	C	1.149562	0.291051	0.666694
C202	C	0.483412	-0.325198	0.000027
C203	C	0.816745	0.008135	0.333361
C204	C	1.150079	0.341468	0.666694
C205	C	0.527751	-0.306086	0.000037
C206	C	0.861084	0.027247	0.333371
C207	C	1.194418	0.360581	0.666704
C208	C	0.528262	-0.255683	0.000052
C209	C	0.861595	0.077651	0.333386
C210	C	1.194928	0.410984	0.666719
N211	N	0.572598	-0.236567	0.000057
N212	N	0.905931	0.096766	0.333391
N213	N	1.239265	0.430099	0.666724
C214	C	0.616421	-0.267867	0.000062
C215	C	0.949755	0.065467	0.333396
C216	C	1.283088	0.398800	0.666729
C217	C	0.523596	-0.714450	0.000033
C218	C	0.856929	-0.381116	0.333366
C219	C	1.190262	-0.047783	0.666700
C220	C	0.523083	-0.764864	0.000033
C221	C	0.856416	-0.431531	0.333366
C222	C	1.189749	-0.098197	0.666700
C223	C	0.611246	-0.777049	0.000044
C224	C	0.944579	-0.443715	0.333377
C225	C	1.277913	-0.110382	0.666711
C226	C	0.611759	-0.726633	0.000048
C227	C	0.945092	-0.393300	0.333381
C228	C	1.278425	-0.059967	0.666714
C229	C	0.567932	-0.695335	0.000038
C230	C	0.901265	-0.362001	0.333372
C231	C	1.234599	-0.028668	0.666705
C232	C	0.617494	-0.161998	0.000073
C233	C	0.950827	0.171336	0.333406
C234	C	1.284161	0.504669	0.666739
C235	C	0.618002	-0.111581	0.000079
C236	C	0.951336	0.221752	0.333413
C237	C	1.284669	0.555086	0.666746
C238	C	0.529839	-0.099401	0.000066
C239	C	0.863173	0.233933	0.333399
C240	C	1.196506	0.567266	0.666733
C241	C	0.529331	-0.149813	0.000062
C242	C	0.862664	0.183520	0.333395
C243	C	1.195997	0.516854	0.666729
C244	C	0.573162	-0.181111	0.000063
C245	C	0.906495	0.152222	0.333397
C246	C	1.239829	0.485556	0.666730
O247	O	0.491060	-0.224391	0.000064
O248	O	0.824393	0.108942	0.333397
O249	O	1.157727	0.442275	0.666731
O250	O	0.654174	-0.246971	0.000061
O251	O	0.987507	0.086362	0.333394
O252	O	1.320841	0.419695	0.666728
C253	C	0.614372	-0.469517	0.000049
C254	C	0.947705	-0.136183	0.333382
C255	C	1.281038	0.197150	0.666715
C256	C	0.570036	-0.488629	0.000039
C257	C	0.903369	-0.155296	0.333372
C258	C	1.236703	0.178037	0.666706
C259	C	0.526213	-0.457330	0.000034
C260	C	0.859546	-0.123997	0.333367
C261	C	1.192879	0.209337	0.666700
C262	C	0.569523	-0.539043	0.000039
C263	C	0.902856	-0.205710	0.333372
C264	C	1.236190	0.127623	0.666706
C265	C	0.613346	-0.570343	0.000044
C266	C	0.946680	-0.237009	0.333377
C267	C	1.280013	0.096324	0.666711
C268	C	0.657683	-0.551228	0.000049
C269	C	0.991016	-0.217894	0.333382
C270	C	1.324349	0.115439	0.666716
C271	C	0.658195	-0.500816	0.000054
C272	C	0.991528	-0.167482	0.333387
C273	C	1.324862	0.165851	0.666720
C274	C	0.481876	-0.476445	0.000029
C275	C	0.815209	-0.143112	0.333362
C276	C	1.148543	0.190222	0.666695
C277	C	0.481367	-0.526857	0.000025
C278	C	0.814701	-0.193524	0.333358
C279	C	1.148034	0.139809	0.666691
C280	C	0.525191	-0.558157	0.000030
C281	C	0.858524	-0.224823	0.333363
C282	C	1.191858	0.108510	0.666696
C283	C	0.658949	0.057571	0.000068
C284	C	0.992282	0.390905	0.333402
C285	C	1.325615	0.724238	0.666735
C286	C	0.712605	0.058114	0.000071
C287	C	1.045938	0.391447	0.333405
C288	C	1.379272	0.724780	0.666738
C289	C	0.566353	0.150182	0.000046
C290	C	0.899687	0.483515	0.333379
C291	C	1.233020	0.816849	0.666712
C292	C	0.566906	0.203837	0.000038
C293	C	0.900239	0.537170	0.333372
C294	C	1.233573	0.870503	0.666705
N295	N	0.570526	0.061794	0.120820
N296	N	0.903859	0.395127	0.454153
N297	N	1.237192	0.728461	0.787486
N298	N	0.570563	0.061757	-0.120703
N299	N	0.903897	0.395091	0.212631
N300	N	1.237230	0.728424	0.545964
C301	C	0.603656	0.028664	0.473342
C302	C	0.936990	0.361997	0.806675
C303	C	1.270323	0.695330	1.140009
C304	C	0.603667	0.028657	0.687001
C305	C	0.937000	0.361990	1.020334
C306	C	1.270334	0.695324	1.353667
O307	O	0.631818	0.000491	0.714630
O308	O	0.965151	0.333824	1.047963
O309	O	1.298484	0.667157	1.381297
N310	N	0.570554	0.061760	0.713714
N311	N	0.903887	0.395093	1.047047
N312	N	1.237220	0.728427	1.380380
C313	C	0.537433	0.094865	0.687008
C314	C	0.870766	0.428198	1.020342
C315	C	1.204100	0.761532	1.353675
O316	O	0.509265	0.123018	0.714632
O317	O	0.842598	0.456351	1.047965
O318	O	1.175932	0.789684	1.381299
C319	C	0.537421	0.094869	0.473351
C320	C	0.870754	0.428202	0.806684
C321	C	1.204087	0.761536	1.140017
C322	C	0.570539	0.061767	0.446641
C323	C	0.903873	0.395100	0.779974
C324	C	1.237206	0.728434	1.113307
C325	C	0.636772	-0.004436	0.446632
C326	C	0.970106	0.328897	0.779965
C327	C	1.303439	0.662231	1.113299
C328	C	0.636771	-0.004432	0.393221
C329	C	0.970104	0.328901	0.726554
C330	C	1.303438	0.662235	1.059887
C331	C	0.603654	0.028671	0.366519
C332	C	0.936987	0.362005	0.699853
C333	C	1.270321	0.695338	1.033186
C334	C	0.570538	0.061771	0.393229
C335	C	0.903871	0.395104	0.726563
C336	C	1.237205	0.728438	1.059896
C337	C	0.504298	0.127971	0.446647
C338	C	0.837631	0.461305	0.779980
C339	C	1.170965	0.794638	1.113313
C340	C	0.504297	0.127969	0.393229
C341	C	0.837630	0.461302	0.726562
C342	C	1.170964	0.794635	1.059896
C343	C	0.537416	0.094867	0.366519
C344	C	0.870749	0.428200	0.699852
C345	C	1.204083	0.761533	1.033186
C346	C	0.537420	0.094878	0.313117
C347	C	0.870753	0.428211	0.646450
C348	C	1.204086	0.761545	0.979783
N349	N	0.570533	0.061775	0.286404
N350	N	0.903867	0.395108	0.619737
N351	N	1.237200	0.728442	0.953070
C352	C	0.603650	0.028672	0.313105
C353	C	0.936984	0.362005	0.646438
C354	C	1.270317	0.695338	0.979772
C355	C	0.537443	0.094861	0.799182
C356	C	0.870776	0.428195	1.132515
C357	C	1.204109	0.761528	1.465848
C358	C	0.537446	0.094861	0.852596
C359	C	0.870780	0.428194	1.185929
C360	C	1.204113	0.761527	1.519263
C361	C	0.603680	0.028652	0.852585
C362	C	0.937013	0.361985	1.185918
C363	C	1.270347	0.695319	1.519251
C364	C	0.603678	0.028655	0.799169
C365	C	0.937012	0.361988	1.132503
C366	C	1.270345	0.695322	1.465836
C367	C	0.570556	0.061758	0.772469
C368	C	0.903889	0.395091	1.105802
C369	C	1.237223	0.728425	1.439136
C370	C	0.603645	0.028682	0.200937
C371	C	0.936979	0.362016	0.534271
C372	C	1.270312	0.695349	0.867604
C373	C	0.603643	0.028690	0.147521
C374	C	0.936976	0.362024	0.480854
C375	C	1.270309	0.695357	0.814188
C376	C	0.537408	0.094897	0.147537
C377	C	0.870741	0.428231	0.480870
C378	C	1.204074	0.761564	0.814204
C379	C	0.537412	0.094891	0.200949
C380	C	0.870745	0.428225	0.534282
C381	C	1.204079	0.761558	0.867615
C382	C	0.570533	0.061780	0.227647
C383	C	0.903866	0.395113	0.560981
C384	C	1.237199	0.728446	0.894314
O385	O	0.509281	0.123026	0.285454
O386	O	0.842614	0.456359	0.618788
O387	O	1.175947	0.789693	0.952121
O388	O	0.631807	0.000516	0.285473
O389	O	0.965140	0.333849	0.618806
O390	O	1.298474	0.667183	0.952139
C391	C	0.603658	0.028660	0.526754
C392	C	0.936991	0.361993	0.860087
C393	C	1.270324	0.695327	1.193420
C394	C	0.570542	0.061760	0.553464
C395	C	0.903875	0.395093	0.886797
C396	C	1.237209	0.728426	1.220130
C397	C	0.537425	0.094863	0.526762
C398	C	0.870758	0.428196	0.860096
C399	C	1.204092	0.761530	1.193429
C400	C	0.570546	0.061759	0.606878
C401	C	0.903879	0.395093	0.940211
C402	C	1.237212	0.728426	1.273545
C403	C	0.603663	0.028656	0.633579
C404	C	0.936996	0.361989	0.966913
C405	C	1.270329	0.695322	1.300246
C406	C	0.636776	-0.004447	0.606866
C407	C	0.970109	0.328886	0.940200
C408	C	1.303443	0.662219	1.273533
C409	C	0.636775	-0.004443	0.553455
C410	C	0.970108	0.328890	0.886788
C411	C	1.303441	0.662223	1.220122
C412	C	0.504311	0.127966	0.553475
C413	C	0.837645	0.461299	0.886808
C414	C	1.170978	0.794633	1.220142
C415	C	0.504316	0.127960	0.606887
C416	C	0.837649	0.461293	0.940220
C417	C	1.170982	0.794627	1.273553
C418	C	0.537433	0.094857	0.633588
C419	C	0.870766	0.428190	0.966921
C420	C	1.204099	0.761523	1.300255
H421	H	0.332341	0.064467	0.083978
H422	H	0.665675	0.397801	0.417312
H423	H	0.999008	0.731134	0.750645
N424	N	0.501691	0.130597	0.229754
N425	N	0.835025	0.463931	0.563088
N426	N	1.168358	0.797264	0.896421
H427	H	0.480427	0.112275	0.251914
H428	H	0.813760	0.445608	0.585247
H429	H	1.147093	0.778941	0.918580
H430	H	0.520033	0.151862	0.251889
H431	H	0.853366	0.485195	0.585222
H432	H	1.186700	0.818528	0.918556
N433	N	0.198571	0.063047	-0.142354
N434	N	0.531904	0.396381	0.190979
N435	N	0.865238	0.729714	0.524313
H436	H	0.234333	0.063415	-0.135340
H437	H	0.567666	0.396749	0.197993
H438	H	0.901000	0.730082	0.531327
H439	H	0.193905	0.032976	-0.162547
H440	H	0.527238	0.366309	0.170786
H441	H	0.860572	0.699643	0.504120
H442	H	0.191886	0.063032	0.130240
H443	H	0.525219	0.396365	0.463573
H444	H	0.858552	0.729698	0.796906
H445	H	0.446189	-0.450966	0.000023
H446	H	0.779522	-0.117632	0.333357
H447	H	1.112856	0.215701	0.666690
N448	N	0.093796	0.061968	-0.142355
N449	N	0.427129	0.395301	0.190978
N450	N	0.760463	0.728635	0.524311
H451	H	0.077027	0.031775	-0.144410
H452	H	0.410361	0.365109	0.188924
H453	H	0.743694	0.698442	0.522257
H454	H	0.068757	0.091749	-0.144402
H455	H	0.402091	0.425082	0.188931
H456	H	0.735424	0.758415	0.522265
H457	H	-0.282721	0.058173	0.083996
H458	H	0.050613	0.391506	0.417329
H459	H	0.383946	0.724840	0.750662
H460	H	0.332335	0.064449	-0.083880
H461	H	0.665668	0.397782	0.249453
H462	H	0.999002	0.731115	0.582786
H463	H	0.510483	0.121820	0.874340
H464	H	0.843816	0.455154	1.207673
H465	H	1.177150	0.788487	1.541006
H466	H	-0.191254	0.059079	-0.083860
H467	H	0.142079	0.392413	0.249473
H468	H	0.475412	0.725746	0.582806
H469	H	0.663740	-0.031395	0.468368
H470	H	0.997074	0.301938	0.801701
H471	H	1.330407	0.635272	1.135034
N472	N	0.639403	-0.007050	0.881389
N473	N	0.972736	0.326283	1.214722
N474	N	1.306069	0.659616	1.548055
H475	H	0.634095	-0.041320	0.872097
H476	H	0.967429	0.292013	1.205430
H477	H	1.300762	0.625346	1.538763
H478	H	0.673651	-0.001682	0.872076
H479	H	1.006984	0.331651	1.205410
H480	H	1.340317	0.664984	1.538743
N481	N	0.430462	0.065447	-0.096108
N482	N	0.763795	0.398781	0.237225
N483	N	1.097129	0.732114	0.570558
H484	H	0.466223	0.065813	-0.089086
H485	H	0.799556	0.399146	0.244247
H486	H	1.132890	0.732480	0.577581
H487	H	0.425798	0.035374	-0.116300
H488	H	0.759131	0.368708	0.217033
H489	H	1.092465	0.702041	0.550366
N490	N	0.704947	-0.584995	0.000053
N491	N	1.038281	-0.251662	0.333386
N492	N	1.371614	0.081671	0.666720
H493	H	0.724314	-0.578887	-0.031401
H494	H	1.057647	-0.245554	0.301932
H495	H	1.390981	0.087779	0.635266
H496	H	0.724267	-0.578876	0.031533
H497	H	1.057601	-0.245543	0.364867
H498	H	1.390934	0.087790	0.698200
N499	N	-0.289370	0.058084	-0.096079
N500	N	0.043963	0.391417	0.237254
N501	N	0.377297	0.724751	0.570587
H502	H	-0.265747	0.058320	-0.125381
H503	H	0.067587	0.391653	0.207953
H504	H	0.400920	0.724986	0.541286
H505	H	-0.306141	0.027892	-0.098090
H506	H	0.027192	0.361226	0.235243
H507	H	0.360525	0.694559	0.568577
N508	N	0.047316	0.061553	0.142471
N509	N	0.380649	0.394886	0.475804
N510	N	0.713982	0.728220	0.809137
H511	H	0.023691	0.061315	0.171771
H512	H	0.357024	0.394649	0.505104
H513	H	0.690357	0.727982	0.838437
H514	H	0.072379	0.031790	0.144495
H515	H	0.405712	0.365124	0.477828
H516	H	0.739045	0.698457	0.811161
H517	H	0.100439	0.062093	0.130243
H518	H	0.433773	0.395427	0.463576
H519	H	0.767106	0.728760	0.796910
N520	N	0.501690	0.130601	0.118733
N521	N	0.835023	0.463934	0.452066
N522	N	1.168356	0.797267	0.785399
H523	H	0.506715	0.125575	0.080843
H524	H	0.840049	0.458908	0.414176
H525	H	1.173382	0.792242	0.747509
H526	H	0.467442	0.125254	0.128071
H527	H	0.800775	0.458588	0.461404
H528	H	1.134109	0.791921	0.794738
N529	N	-0.057470	0.060477	0.142471
N530	N	0.275864	0.393810	0.475804
N531	N	0.609197	0.727144	0.809138
H532	H	-0.093318	0.060783	0.135450
H533	H	0.240016	0.394116	0.468783
H534	H	0.573349	0.727450	0.802117
H535	H	-0.044973	0.030255	0.162368
H536	H	0.288360	0.363589	0.495701
H537	H	0.621694	0.696922	0.829035
H538	H	-0.050789	0.060505	-0.130116
H539	H	0.282544	0.393838	0.203217
H540	H	0.615878	0.727172	0.536551
H541	H	0.040658	0.061439	-0.130118
H542	H	0.373992	0.394773	0.203215
H543	H	0.707325	0.728106	0.536548
N544	N	-0.184591	0.059183	0.096222
N545	N	0.148742	0.392516	0.429555
N546	N	0.482075	0.725849	0.762889
H547	H	-0.208215	0.058947	0.125524
H548	H	0.125118	0.392281	0.458857
H549	H	0.458452	0.725614	0.792190
H550	H	-0.159530	0.029418	0.098245
H551	H	0.173803	0.362752	0.431579
H552	H	0.507136	0.696085	0.764912
N553	N	0.665827	-0.090967	0.000093
N554	N	0.999160	0.242366	0.333427
N555	N	1.332494	0.575699	0.666760
H556	H	0.693510	-0.118448	0.000094
H557	H	1.026843	0.214885	0.333428
H558	H	1.360177	0.548219	0.666761
H559	H	0.667968	-0.070313	-0.031362
H560	H	1.001301	0.263020	0.301971
H561	H	1.334634	0.596353	0.635305
N562	N	0.664768	-0.195750	0.000074
N563	N	0.998101	0.137583	0.333408
N564	N	1.331434	0.470917	0.666741
H565	H	0.692928	-0.175986	0.000082
H566	H	1.026262	0.157347	0.333416
H567	H	1.359595	0.490681	0.666749
H568	H	0.666471	-0.216934	0.031532
H569	H	0.999805	0.116400	0.364865
H570	H	1.333138	0.449733	0.698198
H571	H	0.477347	0.154920	0.628630
H572	H	0.810681	0.488253	0.961964
H573	H	1.144014	0.821586	1.295297
H574	H	0.510470	0.121819	0.777446
H575	H	0.843803	0.455152	1.110779
H576	H	1.177137	0.788486	1.444112
N577	N	0.707555	-0.328970	0.000077
N578	N	1.040888	0.004363	0.333410
N579	N	1.374222	0.337697	0.666743
H580	H	0.735235	-0.356454	0.000078
H581	H	1.068568	-0.023120	0.333412
H582	H	1.401902	0.310213	0.666745
H583	H	0.709696	-0.308319	-0.031381
H584	H	1.043029	0.025014	0.301953
H585	H	1.376362	0.358348	0.635286
H586	H	0.694908	-0.425472	0.000065
H587	H	1.028241	-0.092138	0.333399
H588	H	1.361575	0.241195	0.666732
H589	H	0.647863	-0.711076	0.000056
H590	H	0.981197	-0.377743	0.333389
H591	H	1.314530	-0.044409	0.666722
N592	N	0.658514	-0.810812	0.000051
N593	N	0.991847	-0.477478	0.333384
N594	N	1.325180	-0.144145	0.666717
H595	H	0.651457	-0.845648	0.000049
H596	H	0.984790	-0.512314	0.333383
H597	H	1.318123	-0.178981	0.666716
H598	H	0.677856	-0.804663	-0.031407
H599	H	1.011189	-0.471329	0.301927
H600	H	1.344523	-0.137996	0.635260
N601	N	0.672496	-0.040146	0.524650
N602	N	1.005829	0.293187	0.857983
N603	N	1.339163	0.626520	1.191317
H604	H	0.693472	-0.061115	0.549677
H605	H	1.026806	0.272218	0.883010
H606	H	1.360139	0.605552	1.216344
H607	H	0.654153	-0.061388	0.502490
H608	H	0.987486	0.271946	0.835823
H609	H	1.320820	0.605279	1.169157
N610	N	0.706020	-0.480210	0.000061
N611	N	1.039354	-0.146877	0.333394
N612	N	1.372687	0.186457	0.666728
H613	H	0.708207	-0.459564	-0.031395
H614	H	1.041541	-0.126231	0.301939
H615	H	1.374874	0.207102	0.635272
H616	H	0.708169	-0.459591	0.031540
H617	H	1.041502	-0.126257	0.364873
H618	H	1.374835	0.207076	0.698207
N619	N	0.475260	-0.785475	0.000036
N620	N	0.808593	-0.452142	0.333369
N621	N	1.141927	-0.118809	0.666703
H622	H	0.447579	-0.757993	0.000033
H623	H	0.780912	-0.424660	0.333366
H624	H	1.114245	-0.091326	0.666700
H625	H	0.473128	-0.806128	-0.031421
H626	H	0.806461	-0.472794	0.301912
H627	H	1.139794	-0.139461	0.635245
H628	H	0.487905	-0.688970	0.000026
H629	H	0.821238	-0.355637	0.333359
H630	H	1.154571	-0.022303	0.666692
N631	N	0.435071	-0.396221	0.000023
N632	N	0.768405	-0.062888	0.333356
N633	N	1.101738	0.270446	0.666690
H634	H	0.407392	-0.368737	0.000019
H635	H	0.740725	-0.035403	0.333352
H636	H	1.074059	0.297930	0.666685
H637	H	0.432939	-0.416872	-0.031435
H638	H	0.766272	-0.083539	0.301898
H639	H	1.099606	0.249794	0.635232
H640	H	0.477329	0.154926	0.468387
H641	H	0.810663	0.488259	0.801720
H642	H	1.143996	0.821592	1.135053
H643	H	0.630646	0.001700	0.777425
H644	H	0.963979	0.335034	1.110759
H645	H	1.297313	0.668367	1.444092
N646	N	0.436141	-0.291440	0.000015
N647	N	0.769474	0.041893	0.333348
N648	N	1.102807	0.375226	0.666681
H649	H	0.407978	-0.311201	0.000008
H650	H	0.741311	0.022132	0.333341
H651	H	1.074644	0.355465	0.666675
H652	H	0.434424	-0.270259	0.031474
H653	H	0.767757	0.063075	0.364807
H654	H	1.101091	0.396408	0.698140
N655	N	0.481509	-0.170431	0.000058
N656	N	0.814843	0.162903	0.333391
N657	N	1.148176	0.496236	0.666724
H658	H	0.453826	-0.142951	0.000057
H659	H	0.787159	0.190382	0.333390
H660	H	1.120492	0.523716	0.666724
H661	H	0.479382	-0.191078	-0.031404
H662	H	0.812715	0.142256	0.301929
H663	H	1.146049	0.475589	0.635262
N664	N	0.482574	-0.065638	0.000074
N665	N	0.815908	0.267696	0.333408
N666	N	1.149241	0.601029	0.666741
H667	H	0.489631	-0.030802	0.000080
H668	H	0.822964	0.302532	0.333413
H669	H	1.156298	0.635865	0.666747
H670	H	0.463235	-0.071781	-0.031385
H671	H	0.796568	0.261553	0.301949
H672	H	1.129901	0.594886	0.635282
N673	N	0.433541	-0.547468	0.000022
N674	N	0.766875	-0.214135	0.333355
N675	N	1.100208	0.119199	0.666689
H676	H	0.405860	-0.519986	0.000020
H677	H	0.739193	-0.186653	0.333353
H678	H	1.072526	0.146681	0.666686
H679	H	0.431411	-0.568117	-0.031438
H680	H	0.764744	-0.234784	0.301895
H681	H	1.098078	0.098549	0.635229
N682	N	0.672498	-0.040150	0.635671
N683	N	1.005831	0.293183	0.969004
N684	N	1.339165	0.626517	1.302338
H685	H	0.667470	-0.035125	0.673561
H686	H	1.000803	0.298208	1.006894
H687	H	1.334137	0.631541	1.340227
H688	H	0.667172	-0.074404	0.626336
H689	H	1.000505	0.258930	0.959670
H690	H	1.333839	0.592263	1.293003
N691	N	0.639366	-0.007012	0.118712
N692	N	0.972700	0.326321	0.452046
N693	N	1.306033	0.659654	0.785379
H694	H	0.660344	-0.027984	0.143736
H695	H	0.993677	0.305350	0.477069
H696	H	1.327011	0.638683	0.810403
H697	H	0.621022	-0.028251	0.096550
H698	H	0.954356	0.305082	0.429883
H699	H	1.287689	0.638415	0.763217
H700	H	0.630615	0.001719	0.222669
H701	H	0.963948	0.335053	0.556003
H702	H	1.297282	0.668386	0.889336
H703	H	0.663738	-0.031388	0.371476
H704	H	0.997071	0.301945	0.704810
H705	H	1.330405	0.635279	1.038143
N706	N	0.468570	0.163671	0.364431
N707	N	0.801903	0.497005	0.697764
N708	N	1.135236	0.830338	1.031097
H709	H	0.447592	0.184638	0.389460
H710	H	0.780925	0.517972	0.722793
H711	H	1.114258	0.851305	1.056127
H712	H	0.486910	0.184915	0.342268
H713	H	0.820243	0.518248	0.675601
H714	H	1.153577	0.851582	1.008935
N715	N	0.468588	0.163670	0.524680
N716	N	0.801921	0.497003	0.858013
N717	N	1.135255	0.830336	1.191347
H718	H	0.447613	0.184636	0.549712
H719	H	0.780946	0.517970	0.883045
H720	H	1.114280	0.851303	1.216378
H721	H	0.486929	0.184913	0.502518
H722	H	0.820263	0.518247	0.835851
H723	H	1.153596	0.851580	1.169185
H724	H	0.423791	0.065410	0.083970
H725	H	0.757125	0.398743	0.417303
H726	H	1.090458	0.732076	0.750636
