data_functionalizedCrystal
_audit_creation_method	'MofGen! by Chris Wilmer'
_symmetry_space_group_name_H-M	'P1'
_symmetry_Int_Tables_number	1
_symmetry_cell_setting	triclinic
loop_
_symmetry_equiv_pos_as_xyz
  x,y,z
_cell_length_a	15.944499
_cell_length_b	16.109301
_cell_length_c	14.586319
_cell_angle_alpha	90.005214
_cell_angle_beta	90.000966
_cell_angle_gamma	96.530455
loop_
_atom_site_label
_atom_site_type_symbol
_atom_site_fract_x
_atom_site_fract_y
_atom_site_fract_z
O1	O	1.114515	-0.107022	-0.076148
O2	O	1.447848	0.226311	0.257185
O3	O	1.781181	0.559644	0.590519
O4	O	0.869955	-0.120287	-0.076171
O5	O	1.203288	0.213046	0.257162
O6	O	1.536621	0.546379	0.590496
O7	O	0.998953	0.007375	-0.076150
O8	O	1.332286	0.340708	0.257184
O9	O	1.665620	0.674042	0.590517
O10	O	0.985516	-0.234685	-0.076170
O11	O	1.318850	0.098648	0.257164
O12	O	1.652183	0.431982	0.590497
O13	O	0.998944	0.007377	0.076331
O14	O	1.332277	0.340710	0.409664
O15	O	1.665611	0.674044	0.742998
O16	O	0.869946	-0.120286	0.076310
O17	O	1.203279	0.213048	0.409643
O18	O	1.536612	0.546381	0.742976
O19	O	1.114506	-0.107020	0.076333
O20	O	1.447839	0.226313	0.409666
O21	O	1.781172	0.559646	0.742999
Cu22	Cu	0.992225	-0.113653	0.090244
Cu23	Cu	1.325558	0.219680	0.423577
Cu24	Cu	1.658892	0.553014	0.756911
Cu25	Cu	0.992236	-0.113655	-0.090082
Cu26	Cu	1.325569	0.219678	0.243251
Cu27	Cu	1.658902	0.553012	0.576584
O28	O	0.985508	-0.234683	0.076311
O29	O	1.318841	0.098650	0.409645
O30	O	1.652174	0.431984	0.742978
C31	C	0.838656	-0.119743	0.000066
C32	C	1.171989	0.213590	0.333400
C33	C	1.505322	0.546923	0.666733
C34	C	0.745408	-0.118115	0.000058
C35	C	1.078741	0.215218	0.333391
C36	C	1.412075	0.548552	0.666725
C37	C	0.998404	0.038351	0.000091
C38	C	1.331738	0.371684	0.333424
C39	C	1.665071	0.705018	0.666758
C40	C	0.996772	0.130647	0.000092
C41	C	1.330106	0.463980	0.333426
C42	C	1.663439	0.797313	0.666759
C43	C	1.145805	-0.107565	0.000093
C44	C	1.479138	0.225769	0.333427
C45	C	1.812471	0.559102	0.666760
C46	C	1.239053	-0.109193	0.000096
C47	C	1.572386	0.224141	0.333429
C48	C	1.905719	0.557474	0.666762
C49	C	1.530613	-0.035024	0.000084
C50	C	1.863946	0.298309	0.333417
C51	C	2.197280	0.631643	0.666751
C52	C	1.469572	-0.073580	-0.075101
C53	C	1.802905	0.259754	0.258232
C54	C	2.136238	0.593087	0.591566
C55	C	1.574687	-0.115108	0.000069
C56	C	1.908020	0.218225	0.333402
C57	C	2.241354	0.551559	0.666736
C58	C	1.469585	-0.073599	0.075233
C59	C	1.802918	0.259734	0.408566
C60	C	2.136251	0.593067	0.741900
C61	C	1.409779	-0.112197	0.000084
C62	C	1.743113	0.221136	0.333417
C63	C	2.076446	0.554469	0.666750
C64	C	1.514874	-0.153686	-0.075178
C65	C	1.848207	0.179648	0.258155
C66	C	2.181541	0.512981	0.591488
C67	C	1.514893	-0.153694	0.075223
C68	C	1.848227	0.179639	0.408557
C69	C	2.181560	0.512972	0.741890
C70	C	1.453869	-0.192308	0.000020
C71	C	1.787203	0.141025	0.333353
C72	C	2.120536	0.474358	0.666687
C73	C	1.669687	-0.116782	0.000060
C74	C	2.003020	0.216551	0.333393
C75	C	2.336353	0.549884	0.666726
C76	C	1.314781	-0.110529	0.000086
C77	C	1.648114	0.222804	0.333420
C78	C	1.981448	0.556138	0.666753
C79	C	0.986056	-0.265659	0.000068
C80	C	1.319390	0.067674	0.333402
C81	C	1.652723	0.401008	0.666735
C82	C	0.987688	-0.357954	0.000061
C83	C	1.321021	-0.024621	0.333395
C84	C	1.654355	0.308712	0.666728
N85	N	0.992224	-0.113651	0.217076
N86	N	1.325557	0.219683	0.550409
N87	N	1.658890	0.553016	0.883742
C88	C	1.069523	0.352909	0.000085
C89	C	1.402857	0.686242	0.333418
C90	C	1.736190	1.019575	0.666751
C91	C	1.067984	0.439629	0.000077
C92	C	1.401317	0.772963	0.333410
C93	C	1.734650	1.106296	0.666744
C94	C	0.914931	0.419776	0.000066
C95	C	1.248265	0.753110	0.333399
C96	C	1.581598	1.086443	0.666733
C97	C	0.916472	0.333058	0.000067
C98	C	1.249805	0.666391	0.333401
C99	C	1.583139	0.999724	0.666734
C100	C	0.993770	0.299626	0.000081
C101	C	1.327104	0.632960	0.333415
C102	C	1.660437	0.966293	0.666748
C103	C	0.990690	0.473066	0.000072
C104	C	1.324023	0.806399	0.333406
C105	C	1.657357	1.139732	0.666739
C106	C	0.989020	0.567092	0.000064
C107	C	1.322353	0.900425	0.333397
C108	C	1.655687	1.233759	0.666731
C109	C	0.995441	0.205594	0.000088
C110	C	1.328774	0.538927	0.333421
C111	C	1.662108	0.872261	0.666754
N112	N	0.992244	-0.113651	-0.216914
N113	N	1.325577	0.219683	0.116419
N114	N	1.658910	0.553016	0.449753
C115	C	1.049363	-0.057141	0.452092
C116	C	1.382696	0.276193	0.785425
C117	C	1.716030	0.609526	1.118758
C118	C	1.049365	-0.057139	0.548073
C119	C	1.382699	0.276195	0.881406
C120	C	1.716032	0.609528	1.214740
C121	C	0.935098	-0.170163	0.548063
C122	C	1.268431	0.163170	0.881397
C123	C	1.601765	0.496503	1.214730
C124	C	0.935092	-0.170161	0.452084
C125	C	1.268426	0.163173	0.785417
C126	C	1.601759	0.496506	1.118750
C127	C	0.992230	-0.113650	0.404100
C128	C	1.325563	0.219683	0.737434
C129	C	1.658896	0.553016	1.070767
C130	C	0.992238	-0.113651	0.596061
C131	C	1.325571	0.219682	0.929395
C132	C	1.658904	0.553016	1.262728
C133	C	0.992240	-0.113649	0.700128
C134	C	1.325573	0.219684	1.033462
C135	C	1.658907	0.553017	1.366795
C136	C	0.992226	-0.113651	0.300027
C137	C	1.325560	0.219683	0.633360
C138	C	1.658893	0.553016	0.966693
H139	H	1.563992	0.031427	-0.000002
H140	H	1.897325	0.364760	0.333332
H141	H	2.230658	0.698093	0.666665
C142	C	0.872276	-0.232367	0.399290
C143	C	1.205609	0.100967	0.732624
C144	C	1.538943	0.434300	1.065957
N145	N	0.824977	-0.279231	0.359526
N146	N	1.158310	0.054103	0.692860
N147	N	1.491644	0.387436	1.026193
H148	H	0.851998	0.447007	0.000057
H149	H	1.185331	0.780340	0.333390
H150	H	1.518664	1.113674	0.666723
H151	H	1.095886	-0.011125	0.413026
H152	H	1.429220	0.322208	0.746359
H153	H	1.762553	0.655541	1.079692
H154	H	1.449490	-0.039707	-0.138658
H155	H	1.782823	0.293627	0.194676
H156	H	2.116156	0.626960	0.528009
C157	C	1.442478	-0.027821	0.161103
C158	C	1.775811	0.305512	0.494436
C159	C	2.109145	0.638845	0.827769
N160	N	1.422065	0.006664	0.225776
N161	N	1.755398	0.339998	0.559110
N162	N	2.088731	0.673331	0.892443
H163	H	0.854781	0.289672	0.000062
H164	H	1.188115	0.623006	0.333395
H165	H	1.521448	0.956339	0.666728
H166	H	1.534841	-0.187533	-0.138811
H167	H	1.868175	0.145801	0.194523
H168	H	2.201508	0.479134	0.527856
H169	H	1.095888	-0.011122	0.587145
H170	H	1.429221	0.322211	0.920478
H171	H	1.762554	0.655544	1.253811
H172	H	0.888579	-0.216174	0.587141
H173	H	1.221913	0.117159	0.920474
H174	H	1.555246	0.450493	1.253808
H175	H	1.534997	-0.187539	0.138783
H176	H	1.868330	0.145794	0.472117
H177	H	2.201663	0.479127	0.805450
C178	C	1.154553	0.316138	0.000090
C179	C	1.487887	0.649471	0.333423
C180	C	1.821220	0.982804	0.666756
N181	N	1.218601	0.288444	0.000090
N182	N	1.551934	0.621778	0.333423
N183	N	1.885268	0.955111	0.666756
H184	H	1.129669	0.483009	0.000078
H185	H	1.463003	0.816343	0.333411
H186	H	1.796336	1.149676	0.666745
C187	C	1.409004	-0.282170	-0.000047
C188	C	1.742337	0.051164	0.333286
C189	C	2.075670	0.384497	0.666619
N190	N	1.375208	-0.349852	-0.000103
N191	N	1.708541	-0.016518	0.333231
N192	N	2.041874	0.316815	0.666564
