data_functionalizedCrystal
_audit_creation_method	'MofGen! by Chris Wilmer'
_symmetry_space_group_name_H-M	'P1'
_symmetry_Int_Tables_number	1
_symmetry_cell_setting	triclinic
loop_
_symmetry_equiv_pos_as_xyz
  x,y,z
_cell_length_a	27.732064
_cell_length_b	27.732048
_cell_length_c	14.048226
_cell_angle_alpha	89.988614
_cell_angle_beta	90.001165
_cell_angle_gamma	82.646040
loop_
_atom_site_label
_atom_site_type_symbol
_atom_site_fract_x
_atom_site_fract_y
_atom_site_fract_z
O1	O	0.640923	0.057556	-0.079001
O2	O	0.890923	0.307556	0.170999
O3	O	1.140923	0.557556	0.420999
O4	O	1.390923	0.807556	0.670999
O5	O	0.500131	0.066293	-0.079042
O6	O	0.750131	0.316293	0.170958
O7	O	1.000131	0.566293	0.420958
O8	O	1.250131	0.816293	0.670958
O9	O	0.574900	-0.008472	-0.079002
O10	O	0.824900	0.241528	0.170998
O11	O	1.074900	0.491528	0.420998
O12	O	1.324900	0.741528	0.670998
O13	O	0.566154	0.132321	-0.079041
O14	O	0.816154	0.382321	0.170959
O15	O	1.066154	0.632321	0.420959
O16	O	1.316154	0.882321	0.670959
O17	O	0.574891	-0.008476	0.079319
O18	O	0.824891	0.241524	0.329319
O19	O	1.074891	0.491524	0.579319
O20	O	1.324891	0.741524	0.829319
O21	O	0.500122	0.066289	0.079280
O22	O	0.750122	0.316289	0.329280
O23	O	1.000122	0.566289	0.579280
O24	O	1.250122	0.816289	0.829280
O25	O	0.640914	0.057552	0.079320
O26	O	0.890914	0.307552	0.329320
O27	O	1.140914	0.557552	0.579320
O28	O	1.390914	0.807552	0.829320
Zn29	Zn	0.570517	0.061920	0.104437
Zn30	Zn	0.820517	0.311920	0.354437
Zn31	Zn	1.070517	0.561920	0.604437
Zn32	Zn	1.320517	0.811920	0.854437
Zn33	Zn	0.570528	0.061925	-0.104158
Zn34	Zn	0.820528	0.311925	0.145842
Zn35	Zn	1.070528	0.561925	0.395842
Zn36	Zn	1.320528	0.811925	0.645842
O37	O	0.566145	0.132317	0.079281
O38	O	0.816145	0.382317	0.329281
O39	O	1.066145	0.632317	0.579281
O40	O	1.316145	0.882317	0.829281
C41	C	0.482120	0.066106	0.000114
C42	C	0.732120	0.316106	0.250114
C43	C	0.982120	0.566106	0.500114
C44	C	1.232120	0.816106	0.750114
C45	C	0.428465	0.065551	0.000100
C46	C	0.678465	0.315551	0.250100
C47	C	0.928465	0.565551	0.500100
C48	C	1.178465	0.815551	0.750100
C49	C	0.051392	0.017583	0.000167
C50	C	0.301392	0.267583	0.250167
C51	C	0.551392	0.517583	0.500167
C52	C	0.801392	0.767583	0.750167
C53	C	0.253053	0.019630	0.000142
C54	C	0.503053	0.269630	0.250142
C55	C	0.753053	0.519630	0.500142
C56	C	1.003053	0.769630	0.750142
O57	O	0.284305	-0.017591	0.000187
O58	O	0.534305	0.232409	0.250187
O59	O	0.784305	0.482409	0.500187
O60	O	1.034305	0.732409	0.750187
N61	N	0.272180	0.063964	0.000125
N62	N	0.522180	0.313964	0.250125
N63	N	0.772180	0.563964	0.500125
N64	N	1.022180	0.813964	0.750125
C65	C	0.240889	0.107790	0.000121
C66	C	0.490889	0.357790	0.250121
C67	C	0.740889	0.607790	0.500121
C68	C	0.990889	0.857790	0.750121
O69	O	0.261785	0.145546	0.000117
O70	O	0.511785	0.395546	0.250117
O71	O	0.761785	0.645546	0.500117
O72	O	1.011785	0.895546	0.750117
C73	C	0.039230	0.105743	0.000153
C74	C	0.289230	0.355743	0.250153
C75	C	0.539230	0.605743	0.500153
C76	C	0.789230	0.855743	0.750153
C77	C	0.020105	0.061406	0.000160
C78	C	0.270105	0.311406	0.250160
C79	C	0.520105	0.561406	0.500160
C80	C	0.770105	0.811406	0.750160
C81	C	0.032267	-0.026750	0.000175
C82	C	0.282267	0.223250	0.250175
C83	C	0.532267	0.473250	0.500175
C84	C	0.782267	0.723250	0.750175
C85	C	-0.018145	-0.027261	0.000176
C86	C	0.231855	0.222739	0.250176
C87	C	0.481855	0.472739	0.500176
C88	C	0.731855	0.722739	0.750176
C89	C	-0.049432	0.016561	0.000169
C90	C	0.200568	0.266561	0.250169
C91	C	0.450568	0.516561	0.500169
C92	C	0.700568	0.766561	0.750169
C93	C	-0.030307	0.060895	0.000161
C94	C	0.219693	0.310895	0.250161
C95	C	0.469693	0.560895	0.500161
C96	C	0.719693	0.810895	0.750161
C97	C	0.007940	0.149568	0.000156
C98	C	0.257940	0.399568	0.250156
C99	C	0.507940	0.649568	0.500156
C100	C	0.757940	0.899568	0.750156
C101	C	-0.042478	0.149053	0.000167
C102	C	0.207522	0.399053	0.250167
C103	C	0.457522	0.649053	0.500167
C104	C	0.707522	0.899053	0.750167
C105	C	-0.061602	0.104716	0.000174
C106	C	0.188398	0.354716	0.250174
C107	C	0.438398	0.604716	0.500174
C108	C	0.688398	0.854716	0.750174
C109	C	-0.112006	0.104206	0.000156
C110	C	0.137994	0.354206	0.250156
C111	C	0.387994	0.604206	0.500156
C112	C	0.637994	0.854206	0.750156
N113	N	-0.131134	0.059872	0.000172
N114	N	0.118866	0.309872	0.250172
N115	N	0.368866	0.559872	0.500172
N116	N	0.618866	0.809872	0.750172
C117	C	-0.099846	0.016049	0.000179
C118	C	0.150154	0.266049	0.250179
C119	C	0.400154	0.516049	0.500179
C120	C	0.650154	0.766049	0.750179
C121	C	0.346763	0.108861	0.000103
C122	C	0.596763	0.358861	0.250103
C123	C	0.846763	0.608861	0.500103
C124	C	1.096763	0.858861	0.750103
C125	C	0.397178	0.109373	0.000093
C126	C	0.647178	0.359373	0.250093
C127	C	0.897178	0.609373	0.500093
C128	C	1.147178	0.859373	0.750093
C129	C	0.409338	0.021213	0.000115
C130	C	0.659338	0.271213	0.250115
C131	C	0.909338	0.521213	0.500115
C132	C	1.159338	0.771213	0.750115
C133	C	0.358923	0.020701	0.000118
C134	C	0.608923	0.270701	0.250118
C135	C	0.858923	0.520701	0.500118
C136	C	1.108923	0.770701	0.750118
C137	C	0.327636	0.064527	0.000119
C138	C	0.577636	0.314527	0.250119
C139	C	0.827636	0.564527	0.500119
C140	C	1.077636	0.814527	0.750119
C141	C	-0.205716	0.014979	0.000181
C142	C	0.044284	0.264979	0.250181
C143	C	0.294284	0.514979	0.500181
C144	C	0.544284	0.764979	0.750181
C145	C	-0.256133	0.014472	0.000178
C146	C	-0.006133	0.264472	0.250178
C147	C	0.243867	0.514472	0.500178
C148	C	0.493867	0.764472	0.750178
C149	C	-0.268289	0.102632	0.000161
C150	C	-0.018289	0.352632	0.250161
C151	C	0.231711	0.602632	0.500161
C152	C	0.481711	0.852632	0.750161
C153	C	-0.217876	0.103140	0.000158
C154	C	0.032124	0.353140	0.250158
C155	C	0.282124	0.603140	0.500158
C156	C	0.532124	0.853140	0.750158
C157	C	-0.186590	0.059309	0.000172
C158	C	0.063410	0.309309	0.250172
C159	C	0.313410	0.559309	0.500172
C160	C	0.563410	0.809309	0.750172
O161	O	-0.143287	0.141407	0.000121
O162	O	0.106713	0.391407	0.250121
O163	O	0.356713	0.641407	0.500121
O164	O	0.606713	0.891407	0.750121
O165	O	-0.120752	-0.021701	0.000205
O166	O	0.129248	0.228299	0.250205
O167	O	0.379248	0.478299	0.500205
O168	O	0.629248	0.728299	0.750205
C169	C	0.101805	0.018094	0.000166
C170	C	0.351805	0.268094	0.250166
C171	C	0.601805	0.518094	0.500166
C172	C	0.851805	0.768094	0.750166
C173	C	0.120930	0.062428	0.000158
C174	C	0.370930	0.312428	0.250158
C175	C	0.620930	0.562428	0.500158
C176	C	0.870930	0.812428	0.750158
C177	C	0.089642	0.106250	0.000151
C178	C	0.339642	0.356250	0.250151
C179	C	0.589642	0.606250	0.500151
C180	C	0.839642	0.856250	0.750151
C181	C	0.171344	0.062940	0.000148
C182	C	0.421344	0.312940	0.250148
C183	C	0.671344	0.562940	0.500148
C184	C	0.921344	0.812940	0.750148
C185	C	0.202631	0.019117	0.000155
C186	C	0.452631	0.269117	0.250155
C187	C	0.702631	0.519117	0.500155
C188	C	0.952631	0.769117	0.750155
C189	C	0.183504	-0.025217	0.000171
C190	C	0.433504	0.224783	0.250171
C191	C	0.683504	0.474783	0.500171
C192	C	0.933504	0.724783	0.750171
C193	C	0.133092	-0.025728	0.000173
C194	C	0.383092	0.224272	0.250173
C195	C	0.633092	0.474272	0.500173
C196	C	0.883092	0.724272	0.750173
C197	C	0.108770	0.150585	0.000135
C198	C	0.358770	0.400585	0.250135
C199	C	0.608770	0.650585	0.500135
C200	C	0.858770	0.900585	0.750135
C201	C	0.159183	0.151092	0.000133
C202	C	0.409183	0.401092	0.250133
C203	C	0.659183	0.651092	0.500133
C204	C	0.909183	0.901092	0.750133
C205	C	0.190470	0.107270	0.000139
C206	C	0.440470	0.357270	0.250139
C207	C	0.690470	0.607270	0.500139
C208	C	0.940470	0.857270	0.750139
C209	C	0.574712	-0.026481	0.000161
C210	C	0.824712	0.223519	0.250161
C211	C	1.074712	0.473519	0.500161
C212	C	1.324712	0.723519	0.750161
C213	C	0.574159	-0.080136	0.000169
C214	C	0.824159	0.169864	0.250169
C215	C	1.074159	0.419864	0.500169
C216	C	1.324159	0.669864	0.750169
C217	C	0.614862	-0.418948	0.000132
C218	C	0.864862	-0.168948	0.250132
C219	C	1.114862	0.081052	0.500132
C220	C	1.364862	0.331052	0.750132
C221	C	0.612811	-0.620608	0.000118
C222	C	0.862811	-0.370608	0.250118
C223	C	1.112811	-0.120608	0.500118
C224	C	1.362811	0.129392	0.750118
O225	O	0.650032	-0.651862	0.000087
O226	O	0.900032	-0.401862	0.250087
O227	O	1.150032	-0.151862	0.500087
O228	O	1.400032	0.098138	0.750087
N229	N	0.568476	-0.639735	0.000106
N230	N	0.818476	-0.389735	0.250106
N231	N	1.068476	-0.139735	0.500106
N232	N	1.318476	0.110265	0.750106
C233	C	0.524651	-0.608442	0.000092
C234	C	0.774651	-0.358442	0.250092
C235	C	1.024651	-0.108442	0.500092
C236	C	1.274651	0.141558	0.750092
O237	O	0.486895	-0.629338	0.000071
O238	O	0.736895	-0.379338	0.250071
O239	O	0.986895	-0.129338	0.500071
O240	O	1.236895	0.120662	0.750071
C241	C	0.526703	-0.406784	0.000099
C242	C	0.776703	-0.156784	0.250099
C243	C	1.026703	0.093216	0.500099
C244	C	1.276703	0.343216	0.750099
C245	C	0.571040	-0.387660	0.000120
C246	C	0.821040	-0.137660	0.250120
C247	C	1.071040	0.112340	0.500120
C248	C	1.321040	0.362340	0.750120
C249	C	0.659196	-0.399824	0.000152
C250	C	0.909196	-0.149824	0.250152
C251	C	1.159196	0.100176	0.500152
C252	C	1.409196	0.350176	0.750152
C253	C	0.659709	-0.349412	0.000161
C254	C	0.909709	-0.099412	0.250161
C255	C	1.159709	0.150588	0.500161
C256	C	1.409709	0.400588	0.750161
C257	C	0.615887	-0.318124	0.000149
C258	C	0.865887	-0.068124	0.250149
C259	C	1.115887	0.181876	0.500149
C260	C	1.365887	0.431876	0.750149
C261	C	0.571553	-0.337248	0.000129
C262	C	0.821553	-0.087248	0.250129
C263	C	1.071553	0.162752	0.500129
C264	C	1.321553	0.412752	0.750129
C265	C	0.482878	-0.375493	0.000077
C266	C	0.732878	-0.125493	0.250077
C267	C	0.982878	0.124507	0.500077
C268	C	1.232878	0.374507	0.750077
C269	C	0.483395	-0.325075	0.000076
C270	C	0.733395	-0.075075	0.250076
C271	C	0.983395	0.174925	0.500076
C272	C	1.233395	0.424925	0.750076
C273	C	0.527733	-0.305952	0.000098
C274	C	0.777733	-0.055952	0.250098
C275	C	1.027733	0.194048	0.500098
C276	C	1.277733	0.444048	0.750098
C277	C	0.528243	-0.255548	0.000126
C278	C	0.778243	-0.005548	0.250126
C279	C	1.028243	0.244452	0.500126
C280	C	1.278243	0.494452	0.750126
N281	N	0.572578	-0.236422	0.000137
N282	N	0.822578	0.013578	0.250137
N283	N	1.072578	0.263578	0.500137
N284	N	1.322578	0.513578	0.750137
C285	C	0.616400	-0.267710	0.000149
C286	C	0.866400	-0.017710	0.250149
C287	C	1.116400	0.232290	0.500149
C288	C	1.366400	0.482290	0.750149
C289	C	0.523577	-0.714317	0.000090
C290	C	0.773577	-0.464317	0.250090
C291	C	1.023577	-0.214317	0.500090
C292	C	1.273577	0.035683	0.750090
C293	C	0.523064	-0.764731	0.000090
C294	C	0.773064	-0.514731	0.250090
C295	C	1.023064	-0.264731	0.500090
C296	C	1.273064	-0.014731	0.750090
C297	C	0.611225	-0.776893	0.000114
C298	C	0.861225	-0.526893	0.250114
C299	C	1.111225	-0.276893	0.500114
C300	C	1.361225	-0.026893	0.750114
C301	C	0.611737	-0.726478	0.000121
C302	C	0.861737	-0.476478	0.250121
C303	C	1.111737	-0.226478	0.500121
C304	C	1.361737	0.023522	0.750121
C305	C	0.567912	-0.695190	0.000102
C306	C	0.817912	-0.445190	0.250102
C307	C	1.067912	-0.195190	0.500102
C308	C	1.317912	0.054810	0.750102
C309	C	0.617472	-0.161841	0.000168
C310	C	0.867472	0.088159	0.250168
C311	C	1.117472	0.338159	0.500168
C312	C	1.367472	0.588159	0.750168
C313	C	0.617981	-0.111424	0.000181
C314	C	0.867981	0.138576	0.250181
C315	C	1.117981	0.388576	0.500181
C316	C	1.367981	0.638576	0.750181
C317	C	0.529821	-0.099266	0.000151
C318	C	0.779821	0.150734	0.250151
C319	C	1.029821	0.400734	0.500151
C320	C	1.279821	0.650734	0.750151
C321	C	0.529312	-0.149679	0.000144
C322	C	0.779312	0.100321	0.250144
C323	C	1.029312	0.350321	0.500144
C324	C	1.279312	0.600321	0.750144
C325	C	0.573142	-0.180965	0.000149
C326	C	0.823142	0.069035	0.250149
C327	C	1.073142	0.319035	0.500149
C328	C	1.323142	0.569035	0.750149
O329	O	0.491043	-0.224267	0.000146
O330	O	0.741043	0.025733	0.250146
O331	O	0.991043	0.275733	0.500146
O332	O	1.241043	0.525733	0.750146
O333	O	0.654151	-0.246805	0.000148
O334	O	0.904151	0.003195	0.250148
O335	O	1.154151	0.253195	0.500148
O336	O	1.404151	0.503195	0.750148
C337	C	0.614350	-0.469360	0.000123
C338	C	0.864350	-0.219360	0.250123
C339	C	1.114350	0.030640	0.500123
C340	C	1.364350	0.280640	0.750123
C341	C	0.570016	-0.488484	0.000103
C342	C	0.820016	-0.238484	0.250103
C343	C	1.070016	0.011516	0.500103
C344	C	1.320016	0.261516	0.750103
C345	C	0.526194	-0.457196	0.000091
C346	C	0.776194	-0.207196	0.250091
C347	C	1.026194	0.042804	0.500091
C348	C	1.276194	0.292804	0.750091
C349	C	0.569503	-0.538899	0.000103
C350	C	0.819503	-0.288899	0.250103
C351	C	1.069503	-0.038899	0.500103
C352	C	1.319503	0.211101	0.750103
C353	C	0.613325	-0.570187	0.000115
C354	C	0.863325	-0.320187	0.250115
C355	C	1.113325	-0.070187	0.500115
C356	C	1.363325	0.179813	0.750115
C357	C	0.657660	-0.551060	0.000126
C358	C	0.907660	-0.301060	0.250126
C359	C	1.157660	-0.051060	0.500126
C360	C	1.407660	0.198940	0.750126
C361	C	0.658172	-0.500648	0.000135
C362	C	0.908172	-0.250648	0.250135
C363	C	1.158172	-0.000648	0.500135
C364	C	1.408172	0.249352	0.750135
C365	C	0.481859	-0.476323	0.000079
C366	C	0.731859	-0.226323	0.250079
C367	C	0.981859	0.023677	0.500079
C368	C	1.231859	0.273677	0.750079
C369	C	0.481351	-0.526735	0.000072
C370	C	0.731351	-0.276735	0.250072
C371	C	0.981351	-0.026735	0.500072
C372	C	1.231351	0.223265	0.750072
C373	C	0.525172	-0.558023	0.000083
C374	C	0.775172	-0.308023	0.250083
C375	C	1.025172	-0.058023	0.500083
C376	C	1.275172	0.191977	0.750083
C377	C	0.658925	0.057739	0.000163
C378	C	0.908925	0.307739	0.250163
C379	C	1.158925	0.557739	0.500163
C380	C	1.408925	0.807739	0.750163
C381	C	0.712580	0.058295	0.000171
C382	C	0.962580	0.308295	0.250171
C383	C	1.212580	0.558295	0.500171
C384	C	1.462580	0.808295	0.750171
C385	C	0.566333	0.150326	0.000115
C386	C	0.816333	0.400326	0.250115
C387	C	1.066333	0.650326	0.500115
C388	C	1.316333	0.900326	0.750115
C389	C	0.566886	0.203981	0.000101
C390	C	0.816886	0.453981	0.250101
C391	C	1.066886	0.703981	0.500101
C392	C	1.316886	0.953981	0.750101
N393	N	0.570512	0.061916	0.246798
N394	N	0.820512	0.311916	0.496798
N395	N	1.070512	0.561916	0.746798
N396	N	1.320512	0.811916	0.996798
N397	N	0.570537	0.061926	-0.246519
N398	N	0.820537	0.311926	0.003481
N399	N	1.070537	0.561926	0.253481
N400	N	1.320537	0.811926	0.503481
C401	C	0.603630	0.028823	0.296633
C402	C	0.853630	0.278823	0.546633
C403	C	1.103630	0.528823	0.796633
C404	C	1.353630	0.778823	1.046633
C405	C	0.603633	0.028823	0.396291
C406	C	0.853633	0.278823	0.646291
C407	C	1.103633	0.528823	0.896291
C408	C	1.353633	0.778823	1.146291
C409	C	0.570521	0.061918	0.446111
C410	C	0.820521	0.311918	0.696111
C411	C	1.070521	0.561918	0.946111
C412	C	1.320521	0.811918	1.196111
C413	C	0.537399	0.095012	0.396269
C414	C	0.787399	0.345012	0.646269
C415	C	1.037399	0.595012	0.896269
C416	C	1.287399	0.845012	1.146269
C417	C	0.537394	0.095009	0.296613
C418	C	0.787394	0.345009	0.546613
C419	C	1.037394	0.595009	0.796613
C420	C	1.287394	0.845009	1.046613
C421	C	0.537413	0.095015	0.603983
C422	C	0.787413	0.345015	0.853983
C423	C	1.037413	0.595015	1.103983
C424	C	1.287413	0.845015	1.353983
C425	C	0.537419	0.095018	0.703646
C426	C	0.787419	0.345018	0.953646
C427	C	1.037419	0.595018	1.203646
C428	C	1.287419	0.845018	1.453646
C429	C	0.603652	0.028829	0.703661
C430	C	0.853652	0.278829	0.953661
C431	C	1.103652	0.528829	1.203661
C432	C	1.353652	0.778829	1.453661
C433	C	0.603647	0.028826	0.604005
C434	C	0.853647	0.278826	0.854005
C435	C	1.103647	0.528826	1.104005
C436	C	1.353647	0.778826	1.354005
C437	C	0.570526	0.061921	0.554170
C438	C	0.820526	0.311921	0.804170
C439	C	1.070526	0.561921	1.054170
C440	C	1.320526	0.811921	1.304170
H441	H	0.412744	0.145477	0.000074
H442	H	0.662744	0.395477	0.250074
H443	H	0.912744	0.645477	0.500074
H444	H	1.162744	0.895477	0.750074
H445	H	0.510455	0.121967	0.744204
H446	H	0.760455	0.371967	0.994204
H447	H	1.010455	0.621967	1.244204
H448	H	1.260455	0.871967	1.494204
H449	H	-0.271701	-0.021634	0.000181
H450	H	-0.021701	0.228366	0.250181
H451	H	0.228299	0.478366	0.500181
H452	H	0.478299	0.728366	0.750181
H453	H	0.083300	0.186271	0.000131
H454	H	0.333300	0.436271	0.250131
H455	H	0.583300	0.686271	0.500131
H456	H	0.833300	0.936271	0.750131
H457	H	0.446774	-0.391054	0.000054
H458	H	0.696774	-0.141054	0.250054
H459	H	0.946774	0.108946	0.500054
H460	H	1.196774	0.358946	0.750054
H461	H	0.510441	0.121963	0.563410
H462	H	0.760441	0.371963	0.813410
H463	H	1.010441	0.621963	1.063410
H464	H	1.260441	0.871963	1.313410
H465	H	-0.067950	0.184742	0.000172
H466	H	0.182050	0.434742	0.250172
H467	H	0.432050	0.684742	0.500172
H468	H	0.682050	0.934742	0.750172
H469	H	0.445243	-0.542300	0.000062
H470	H	0.695243	-0.292300	0.250062
H471	H	0.945243	-0.042300	0.500062
H472	H	1.195243	0.207700	0.750062
H473	H	0.647841	-0.710911	0.000138
H474	H	0.897841	-0.460911	0.250138
H475	H	1.147841	-0.210911	0.500138
H476	H	1.397841	0.039089	0.750138
H477	H	0.446173	-0.450852	0.000067
H478	H	0.696173	-0.200852	0.250067
H479	H	0.946173	0.049148	0.500067
H480	H	1.196173	0.299148	0.750067
H481	H	0.321293	0.144551	0.000102
H482	H	0.571293	0.394551	0.250102
H483	H	0.821293	0.644551	0.500102
H484	H	1.071293	0.894551	0.750102
H485	H	0.434821	-0.014469	0.000117
H486	H	0.684821	0.235531	0.250117
H487	H	0.934821	0.485531	0.500117
H488	H	1.184821	0.735531	0.750117
H489	H	0.343355	-0.015402	0.000124
H490	H	0.593355	0.234598	0.250124
H491	H	0.843355	0.484598	0.500124
H492	H	1.093355	0.734598	0.750124
H493	H	0.023502	0.185672	0.000147
H494	H	0.273502	0.435672	0.250147
H495	H	0.523502	0.685672	0.500147
H496	H	0.773502	0.935672	0.750147
H497	H	0.654087	-0.095857	0.000201
H498	H	0.904087	0.154143	0.250201
H499	H	1.154087	0.404143	0.500201
H500	H	1.404087	0.654143	0.750201
H501	H	0.630596	0.001875	0.256076
H502	H	0.880596	0.251875	0.506076
H503	H	1.130596	0.501875	0.756076
H504	H	1.380596	0.751875	1.006076
H505	H	-0.180248	-0.020712	0.000191
H506	H	0.069752	0.229288	0.250191
H507	H	0.319752	0.479288	0.500191
H508	H	0.569752	0.729288	0.750191
H509	H	-0.033711	-0.063365	0.000185
H510	H	0.216289	0.186635	0.250185
H511	H	0.466289	0.436635	0.500185
H512	H	0.716289	0.686635	0.750185
H513	H	0.510436	0.121957	0.436838
H514	H	0.760436	0.371957	0.686838
H515	H	1.010436	0.621957	0.936838
H516	H	1.260436	0.871957	1.186838
H517	H	0.694883	-0.425295	0.000159
H518	H	0.944883	-0.175295	0.250159
H519	H	1.194883	0.074705	0.500159
H520	H	1.444883	0.324705	0.750159
H521	H	0.057737	-0.062438	0.000183
H522	H	0.307737	0.187562	0.250183
H523	H	0.557737	0.437562	0.500183
H524	H	0.807737	0.687562	0.750183
H525	H	-0.202304	0.139243	0.000152
H526	H	0.047696	0.389243	0.250152
H527	H	0.297696	0.639243	0.500152
H528	H	0.547696	0.889243	0.750152
H529	H	0.695813	-0.333847	0.000175
H530	H	0.945813	-0.083847	0.250175
H531	H	1.195813	0.166153	0.500175
H532	H	1.445813	0.416153	0.750175
H533	H	0.646906	-0.802377	0.000125
H534	H	0.896906	-0.552377	0.250125
H535	H	1.146906	-0.302377	0.500125
H536	H	1.396906	-0.052377	0.750125
H537	H	-0.293772	0.138311	0.000150
H538	H	-0.043772	0.388311	0.250150
H539	H	0.206228	0.638311	0.500150
H540	H	0.456228	0.888311	0.750150
H541	H	0.630620	0.001882	0.744243
H542	H	0.880620	0.251882	0.994243
H543	H	1.130620	0.501882	1.244243
H544	H	1.380620	0.751882	1.494243
H545	H	0.486960	-0.780296	0.000089
H546	H	0.736960	-0.530296	0.250089
H547	H	0.986960	-0.280296	0.500089
H548	H	1.236960	-0.030296	0.750089
H549	H	0.447706	-0.299603	0.000059
H550	H	0.697706	-0.049603	0.250059
H551	H	0.947706	0.200397	0.500059
H552	H	1.197706	0.450397	0.750059
H553	H	0.630600	0.001876	0.436867
H554	H	0.880600	0.251876	0.686867
H555	H	1.130600	0.501876	0.936867
H556	H	1.380600	0.751876	1.186867
H557	H	0.510426	0.121956	0.256037
H558	H	0.760426	0.371956	0.506037
H559	H	1.010426	0.621956	0.756037
H560	H	1.260426	0.871956	1.006037
H561	H	0.630612	0.001880	0.563442
H562	H	0.880612	0.251880	0.813442
H563	H	1.130612	0.501880	1.063442
H564	H	1.380612	0.751880	1.313442
H565	H	0.487888	-0.688846	0.000074
H566	H	0.737888	-0.438846	0.250074
H567	H	0.987888	-0.188846	0.500074
H568	H	1.237888	0.061154	0.750074
H569	H	0.493209	-0.165249	0.000152
H570	H	0.743209	0.084751	0.250152
H571	H	0.993209	0.334751	0.500152
H572	H	1.243209	0.584751	0.750152
H573	H	0.693341	-0.576544	0.000140
H574	H	0.943341	-0.326544	0.250140
H575	H	1.193341	-0.076544	0.500140
H576	H	1.443341	0.173456	0.750140
H577	H	0.117526	-0.061832	0.000178
H578	H	0.367526	0.188168	0.250178
H579	H	0.617526	0.438168	0.500178
H580	H	0.867526	0.688168	0.750178
H581	H	0.694276	-0.485083	0.000152
H582	H	0.944276	-0.235083	0.250152
H583	H	1.194276	0.014917	0.500152
H584	H	1.444276	0.264917	0.750152
H585	H	0.494142	-0.073782	0.000145
H586	H	0.744142	0.176218	0.250145
H587	H	0.994142	0.426218	0.500145
H588	H	1.244142	0.676218	0.750145
H589	H	0.208987	-0.060899	0.000171
H590	H	0.458987	0.189101	0.250171
H591	H	0.708987	0.439101	0.500171
H592	H	0.958987	0.689101	0.750171
H593	H	0.653163	-0.187309	0.000169
H594	H	0.903163	0.062691	0.250169
H595	H	1.153163	0.312691	0.500169
H596	H	1.403163	0.562691	0.750169
H597	H	0.174748	0.187200	0.000120
H598	H	0.424748	0.437200	0.250120
H599	H	0.674748	0.687200	0.500120
H600	H	0.924748	0.937200	0.750120
