data_functionalizedCrystal
_audit_creation_method	'MofGen! by Chris Wilmer'
_symmetry_space_group_name_H-M	'P1'
_symmetry_Int_Tables_number	1
_symmetry_cell_setting	triclinic
loop_
_symmetry_equiv_pos_as_xyz
  x,y,z
_cell_length_a	17.077404
_cell_length_b	19.121063
_cell_length_c	17.077395
_cell_angle_alpha	92.409894
_cell_angle_beta	89.984359
_cell_angle_gamma	92.469213
loop_
_atom_site_label
_atom_site_type_symbol
_atom_site_fract_x
_atom_site_fract_y
_atom_site_fract_z
Zn1	Zn	1.186666	-0.279619	-0.457152
Zn2	Zn	1.686666	0.220381	0.042848
Zn3	Zn	1.180971	-0.397073	-0.331477
Zn4	Zn	1.680971	0.102927	0.168523
Zn5	Zn	1.055406	-0.279641	-0.325901
Zn6	Zn	1.555406	0.220359	0.174099
Zn7	Zn	1.049756	-0.397034	-0.462698
Zn8	Zn	1.549756	0.102966	0.037302
O9	O	1.118200	-0.338342	-0.394307
O10	O	1.618200	0.161658	0.105693
O11	O	1.295757	-0.295206	-0.440493
O12	O	1.795757	0.204794	0.059507
O13	O	1.164295	-0.381521	-0.220891
O14	O	1.664295	0.118479	0.279109
O15	O	1.077565	-0.181353	-0.338657
O16	O	1.577565	0.318647	0.161343
O17	O	1.291573	-0.381500	-0.348160
O18	O	1.791573	0.118500	0.151840
O19	O	1.174002	-0.181337	-0.435087
O20	O	1.674002	0.318663	0.064913
O21	O	1.072043	-0.295244	-0.216795
O22	O	1.572043	0.204756	0.283205
O23	O	0.944810	-0.295206	-0.344035
O24	O	1.444810	0.204794	0.155965
O25	O	1.067937	-0.381433	-0.571808
O26	O	1.567937	0.118567	-0.071808
O27	O	0.940659	-0.381455	-0.444540
O28	O	1.440659	0.118545	0.055460
O29	O	1.168524	-0.295169	-0.567734
O30	O	1.668524	0.204831	-0.067734
O31	O	1.158817	-0.495353	-0.353538
O32	O	1.658817	0.004647	0.146462
O33	O	1.062415	-0.495324	-0.449946
O34	O	1.562415	0.004676	0.050054
C35	C	0.914252	-0.338329	-0.394285
C36	C	1.414252	0.161671	0.105715
C37	C	0.827002	-0.338340	-0.394295
C38	C	1.327002	0.161660	0.105705
C39	C	0.783868	-0.383318	-0.446550
C40	C	1.283868	0.116682	0.053450
C41	C	0.701888	-0.383319	-0.446563
C42	C	1.201888	0.116681	0.053437
C43	C	0.663042	-0.338347	-0.394315
C44	C	1.163042	0.161653	0.105685
C45	C	0.706182	-0.293364	-0.342058
C46	C	1.206182	0.206636	0.157942
C47	C	0.788162	-0.293360	-0.342049
C48	C	1.288162	0.206640	0.157951
C49	C	0.535312	-0.293378	-0.342077
C50	C	1.035312	0.206622	0.157923
C51	C	0.453327	-0.293383	-0.342084
C52	C	0.953327	0.206617	0.157916
C53	C	0.449038	-0.383338	-0.446590
C54	C	0.949038	0.116662	0.053410
C55	C	0.531017	-0.383333	-0.446582
C56	C	1.031017	0.116667	0.053418
C57	C	0.574151	-0.338352	-0.394323
C58	C	1.074151	0.161648	0.105677
C59	C	1.109406	-0.520823	-0.402966
C60	C	1.609406	-0.020823	0.097034
C61	C	1.105716	-0.598889	-0.406697
C62	C	1.605716	-0.098889	0.093303
C63	C	1.154213	-0.635556	-0.358296
C64	C	1.654213	-0.135556	0.141704
C65	C	1.150747	-0.708907	-0.361810
C66	C	1.650747	-0.208907	0.138190
C67	C	1.098780	-0.745590	-0.413720
C68	C	1.598780	-0.245590	0.086280
C69	C	1.050281	-0.708918	-0.462125
C70	C	1.550281	-0.208918	0.037875
C71	C	1.053751	-0.635568	-0.458615
C72	C	1.553751	-0.135568	0.041385
C73	C	1.085792	-0.967060	-0.426830
C74	C	1.585792	-0.467060	0.073170
C75	C	1.082323	-1.040415	-0.430335
C76	C	1.582323	-0.540415	0.069665
C77	C	1.182791	-1.040400	-0.330019
C78	C	1.682791	-0.540400	0.169981
C79	C	1.186254	-0.967048	-0.326511
C80	C	1.686254	-0.467048	0.173489
C81	C	1.137758	-0.930382	-0.374919
C82	C	1.637758	-0.430382	0.125081
C83	C	1.095234	-0.820567	-0.417310
C84	C	1.595234	-0.320567	0.082690
C85	C	1.141308	-0.855407	-0.371332
C86	C	1.641308	-0.355407	0.128668
C87	C	1.322943	-0.338355	-0.394330
C88	C	1.822943	0.161645	0.105670
C89	C	1.410193	-0.338361	-0.394340
C90	C	1.910193	0.161639	0.105660
C91	C	1.118236	-0.338294	-0.599049
C92	C	1.618236	0.161706	-0.099049
C93	C	1.118251	-0.338274	-0.686298
C94	C	1.618251	0.161726	-0.186298
C95	C	1.127049	-0.155148	-0.385631
C96	C	1.627049	0.344852	0.114369
C97	C	1.130820	-0.077082	-0.381934
C98	C	1.630820	0.422918	0.118066
C99	C	1.170718	-0.293260	-1.059988
C100	C	1.670718	0.206740	-0.559988
C101	C	1.170701	-0.293285	-0.978008
C102	C	1.670701	0.206715	-0.478008
C103	C	1.118319	-0.338207	-0.939144
C104	C	1.618319	0.161793	-0.439144
C105	C	1.065956	-0.383113	-0.982264
C106	C	1.565956	0.116887	-0.482264
C107	C	1.065977	-0.383091	-1.064242
C108	C	1.565977	0.116909	-0.564242
C109	C	1.065913	-0.383154	-0.811395
C110	C	1.565913	0.116846	-0.311395
C111	C	1.065890	-0.383174	-0.729412
C112	C	1.565890	0.116826	-0.229412
C113	C	1.170637	-0.293347	-0.725162
C114	C	1.670637	0.206653	-0.225162
C115	C	1.170658	-0.293326	-0.807140
C116	C	1.670658	0.206674	-0.307140
C117	C	1.118294	-0.338231	-0.850254
C118	C	1.618294	0.161769	-0.350254
C119	C	1.118211	-0.338339	-0.190359
C120	C	1.618211	0.161661	0.309641
C121	C	1.118358	-0.338161	-0.103101
C122	C	1.618358	0.161839	0.396899
H123	H	0.815490	-0.419942	-0.489093
H124	H	1.315490	0.080058	0.010907
H125	H	1.023219	-0.419738	-0.697770
H126	H	1.523219	0.080262	-0.197770
Br127	Br	0.583735	-0.444375	-0.517482
Br128	Br	1.083735	0.055625	-0.017482
Br129	Br	0.994918	-0.444034	-1.122754
Br130	Br	1.494918	0.055966	-0.622754
Br131	Br	1.256794	-0.917269	-0.256069
Br132	Br	1.756794	-0.417269	0.243931
Br133	Br	1.216572	-0.758667	-0.296125
Br134	Br	1.716572	-0.258667	0.203875
Br135	Br	1.241802	-0.232281	-1.112723
Br136	Br	1.741802	0.267719	-0.612723
Br137	Br	1.024710	-0.870356	-0.487759
Br138	Br	1.524710	-0.370356	0.012241
H139	H	1.183623	-0.825538	-0.329070
H140	H	1.683623	-0.325538	0.170930
H141	H	1.213310	-0.256743	-0.838781
H142	H	1.713310	0.243257	-0.338781
Br143	Br	1.248607	-1.090164	-0.264330
Br144	Br	1.748607	-0.590164	0.235670
Br145	Br	0.593851	-0.232330	-0.271155
Br146	Br	1.093851	0.267670	0.228845
Br147	Br	0.400608	-0.232354	-0.271171
Br148	Br	0.900608	0.267646	0.228829
Br149	Br	0.846702	-0.232313	-0.271133
Br150	Br	1.346702	0.267687	0.228867
H151	H	1.213272	-0.256783	-0.690055
H152	H	1.713272	0.243217	-0.190055
Br153	Br	0.643351	-0.444361	-0.517486
Br154	Br	1.143351	0.055639	-0.017486
Br155	Br	0.994848	-0.444097	-0.869907
Br156	Br	1.494848	0.055903	-0.369907
Br157	Br	0.653465	-0.232322	-0.271157
Br158	Br	1.153465	0.267678	0.228843
H159	H	1.007971	-0.738790	-0.504395
H160	H	1.507971	-0.238790	-0.004395
Br161	Br	0.994868	-0.444083	-0.929520
Br162	Br	1.494868	0.055917	-0.429520
H163	H	1.040014	-1.070280	-0.472620
H164	H	1.540014	-0.570280	0.027380
H165	H	0.413914	-0.419961	-0.489144
H166	H	0.913914	0.080039	0.010856
H167	H	1.213340	-0.256724	-0.942909
H168	H	1.713340	0.243276	-0.442909
H169	H	1.196527	-0.605694	-0.316022
H170	H	1.696527	-0.105694	0.183978
H171	H	1.046303	-0.937212	-0.466245
H172	H	1.546303	-0.437212	0.033755
H173	H	1.014261	-0.605714	-0.498029
H174	H	1.514261	-0.105714	0.001971
