data_functionalizedCrystal
_audit_creation_method	'MofGen! by Chris Wilmer'
_symmetry_space_group_name_H-M	'P1'
_symmetry_Int_Tables_number	1
_symmetry_cell_setting	triclinic
loop_
_symmetry_equiv_pos_as_xyz
  x,y,z
_cell_length_a	19.288840
_cell_length_b	10.489741
_cell_length_c	18.366186
_cell_angle_alpha	89.994090
_cell_angle_beta	89.983729
_cell_angle_gamma	83.832595
loop_
_atom_site_label
_atom_site_type_symbol
_atom_site_fract_x
_atom_site_fract_y
_atom_site_fract_z
O1	O	0.922430	0.158957	-0.060671
O2	O	0.720311	0.180454	-0.060646
O3	O	0.825969	-0.015997	-0.060655
O4	O	0.816771	0.355408	-0.060662
O5	O	0.825951	-0.016006	0.060445
O6	O	0.720293	0.180445	0.060454
O7	O	0.922412	0.158948	0.060428
Zn8	Zn	0.821349	0.169695	0.079668
Zn9	Zn	0.821373	0.169707	-0.079886
O10	O	0.816753	0.355399	0.060437
C11	C	0.694420	0.179763	-0.000093
C12	C	0.617302	0.177703	-0.000083
C13	C	0.581102	0.176718	-0.066096
C14	C	0.508642	0.174768	-0.066105
C15	C	0.472387	0.173777	-0.000097
C16	C	0.508595	0.174769	0.065925
C17	C	0.581053	0.176732	0.065932
C18	C	0.362529	0.095956	0.050466
C19	C	0.290074	0.093985	0.050456
C20	C	0.248902	0.167728	-0.000116
C21	C	0.280197	0.243425	-0.050690
C22	C	0.352655	0.245388	-0.050683
C23	C	0.393818	0.171649	-0.000097
C24	C	0.134133	0.164631	-0.066143
C25	C	0.061671	0.162688	-0.066149
C26	C	0.061626	0.162676	0.065882
C27	C	0.134086	0.164631	0.065887
C28	C	0.170335	0.165602	-0.000128
C29	C	0.825266	-0.063517	-0.000105
C30	C	0.823187	-0.205099	-0.000106
C31	C	0.755960	-0.271708	-0.000103
C32	C	0.787708	-0.364559	0.059601
C33	C	0.787742	-0.364524	-0.059793
C34	C	0.854963	-0.296085	0.059647
C35	C	0.854988	-0.296041	-0.059801
C36	C	0.886785	-0.388865	-0.000082
C37	C	0.948302	0.159639	-0.000126
C38	C	1.025420	0.161699	-0.000141
C39	C	0.817457	0.402920	-0.000114
C40	C	0.819535	0.544502	-0.000117
N41	N	0.821338	0.169685	0.188559
N42	N	0.821390	0.169707	-0.188777
C43	C	0.868139	0.082739	0.226656
C44	C	0.868144	0.082734	0.302884
C45	C	0.821353	0.169696	0.341012
C46	C	0.774543	0.256648	0.302906
C47	C	0.774536	0.256643	0.226680
C48	C	0.812834	0.285910	0.461771
C49	C	0.812847	0.285917	0.537996
C50	C	0.821373	0.169712	0.576120
C51	C	0.829902	0.053494	0.538009
C52	C	0.829894	0.053489	0.461783
C53	C	0.821356	0.169711	0.423667
C54	C	0.868182	0.082752	0.696871
C55	C	0.868181	0.082745	0.773100
C56	C	0.774584	0.256671	0.773121
C57	C	0.774582	0.256667	0.696894
C58	C	0.821384	0.169709	0.658773
H59	H	0.610611	0.177509	-0.119851
H60	H	0.883417	-0.265640	-0.110286
Cl61	Cl	0.016054	0.161443	0.148865
H62	H	0.700686	-0.220798	-0.000036
Cl63	Cl	0.715757	0.365986	0.821049
Cl64	Cl	0.743781	-0.411446	0.137543
Cl65	Cl	0.802131	0.432017	0.585898
Cl66	Cl	0.179598	0.165861	0.148880
H67	H	0.759296	-0.394836	-0.110273
H68	H	0.906247	0.011930	0.195620
H69	H	0.264600	0.032342	0.091633
H70	H	0.906256	0.011929	0.333907
H71	H	0.396046	0.035902	0.091651
Cl72	Cl	0.898833	-0.249497	0.137664
Cl73	Cl	0.715746	0.365983	0.648996
Cl74	Cl	0.179706	0.165864	-0.149131
Cl75	Cl	0.840607	-0.092605	0.413875
H76	H	0.836844	-0.041131	0.569048
Cl77	Cl	0.802180	0.432015	0.413851
H78	H	0.942109	-0.439550	-0.000056
H79	H	0.479071	0.173965	0.119669
H80	H	0.906289	0.011942	0.665832
H81	H	0.906291	0.011936	0.804119
Cl82	Cl	0.715696	0.365957	0.178784
Cl83	Cl	0.463123	0.173529	-0.149099
Cl84	Cl	0.391994	0.340552	-0.114256
H85	H	0.246676	0.303479	-0.091869
H86	H	0.032197	0.161895	-0.119907
Cl87	Cl	0.626564	0.177968	0.148927
H88	H	0.736445	0.327452	0.333954
