data_functionalizedCrystal
_audit_creation_method	'MofGen! by Chris Wilmer'
_symmetry_space_group_name_H-M	'P1'
_symmetry_Int_Tables_number	1
_symmetry_cell_setting	triclinic
loop_
_symmetry_equiv_pos_as_xyz
  x,y,z
_cell_length_a	19.805405
_cell_length_b	19.805407
_cell_length_c	11.169409
_cell_angle_alpha	89.976258
_cell_angle_beta	90.039857
_cell_angle_gamma	89.977440
loop_
_atom_site_label
_atom_site_type_symbol
_atom_site_fract_x
_atom_site_fract_y
_atom_site_fract_z
Zn1	Zn	-0.269478	-1.034766	0.678605
Zn2	Zn	-0.382687	-1.034672	0.477896
Zn3	Zn	-0.269510	-0.921572	0.477926
Zn4	Zn	-0.382623	-0.921544	0.678527
O5	O	-0.326074	-0.978138	0.578239
O6	O	-0.284509	-1.129470	0.652001
O7	O	-0.367714	-1.019641	0.309950
O8	O	-0.174789	-0.936638	0.504592
O9	O	-0.367683	-1.129401	0.504541
O10	O	-0.174766	-1.019801	0.652030
O11	O	-0.284563	-0.936547	0.309972
O12	O	-0.284501	-0.826851	0.504516
O13	O	-0.367573	-0.936591	0.846487
O14	O	-0.367604	-0.826831	0.651897
O15	O	-0.284446	-1.019775	0.846545
O16	O	-0.477395	-1.019614	0.504465
O17	O	-0.477348	-0.936500	0.651868
C18	C	-0.326050	-0.802282	0.578202
C19	C	-0.326055	-0.727050	0.578215
C20	C	-0.282822	-0.691743	0.655112
C21	C	-0.282824	-0.621055	0.655114
C22	C	-0.326063	-0.585675	0.578223
C23	C	-0.369298	-0.620987	0.501317
C24	C	-0.369292	-0.691674	0.501310
C25	C	-0.369323	-0.335914	0.501341
C26	C	-0.369327	-0.265222	0.501356
C27	C	-0.282855	-0.265294	0.655145
C28	C	-0.282849	-0.335981	0.655139
C29	C	-0.326081	-0.371287	0.578228
C30	C	-0.326077	-0.447936	0.578226
C31	C	-0.326071	-0.509028	0.578231
C32	C	-0.501930	-0.978062	0.578181
C33	C	-0.577162	-0.978092	0.578196
C34	C	-0.612509	-1.021411	0.501524
C35	C	-0.683197	-1.021440	0.501550
C36	C	-0.718538	-0.978145	0.578244
C37	C	-0.683187	-0.934824	0.654924
C38	C	-0.612500	-0.934799	0.654903
C39	C	-0.968260	-0.934923	0.655013
C40	C	-1.038952	-0.934950	0.655026
C41	C	-1.038957	-1.021565	0.501660
C42	C	-0.968270	-1.021540	0.501639
C43	C	-0.932925	-0.978221	0.578324
C44	C	-0.856277	-0.978191	0.578296
C45	C	-0.795185	-0.978171	0.578267
C46	C	-0.149532	-0.978233	0.578323
C47	C	-0.074300	-0.978274	0.578359
C48	C	-0.325999	-0.978190	0.891281
C49	C	-0.325967	-0.978213	1.024681
C50	C	-0.326095	-0.154681	0.578265
C51	C	-0.326090	-0.229913	0.578249
C52	C	-0.326100	-0.978126	0.266414
C53	C	-0.325942	-0.978235	0.133014
H54	H	-0.247614	-0.720544	0.717729
H55	H	-0.247651	-0.236539	0.717765
C56	C	-0.573640	-1.069038	0.417150
N57	N	-0.544367	-1.104914	0.353600
H58	H	-0.939498	-1.056792	0.439184
H59	H	-0.711973	-1.056715	0.439115
C60	C	-0.416890	-0.226306	0.416756
N61	N	-0.452712	-0.196994	0.353037
H62	H	-0.404526	-0.364652	0.438717
H63	H	-1.067725	-0.899695	0.717488
C64	C	-0.416861	-0.582067	0.416734
N65	N	-0.452688	-0.552753	0.353027
C66	C	-0.929389	-0.887306	0.739430
N67	N	-0.900110	-0.851451	0.803040
H68	H	-0.404497	-0.720421	0.438691
H69	H	-1.067744	-1.056840	0.439224
C70	C	-0.722064	-0.887196	0.739285
N71	N	-0.751346	-0.851320	0.802821
C72	C	-0.573619	-0.887144	0.739249
N73	N	-0.544335	-0.851251	0.802785
C74	C	-0.235280	-0.374895	0.739720
N75	N	-0.199447	-0.404204	0.803424
C76	C	-0.235267	-0.582219	0.739712
N77	N	-0.199444	-0.552969	0.803435
