data_functionalizedCrystal
_audit_creation_method	'MofGen! by Chris Wilmer'
_symmetry_space_group_name_H-M	'P1'
_symmetry_Int_Tables_number	1
_symmetry_cell_setting	triclinic
loop_
_symmetry_equiv_pos_as_xyz
  x,y,z
_cell_length_a	14.908520
_cell_length_b	12.759401
_cell_length_c	12.759393
_cell_angle_alpha	90.020938
_cell_angle_beta	93.263606
_cell_angle_gamma	86.677863
loop_
_atom_site_label
_atom_site_type_symbol
_atom_site_fract_x
_atom_site_fract_y
_atom_site_fract_z
Zn1	Zn	-0.359078	-1.582080	-0.618119
Zn2	Zn	-0.509962	-1.571808	-0.452566
Zn3	Zn	-0.359126	-1.406376	-0.442458
Zn4	Zn	-0.509899	-1.396212	-0.628199
O5	O	-0.434516	-1.489119	-0.535335
O6	O	-0.379099	-1.727738	-0.596170
O7	O	-0.490000	-1.549818	-0.304207
O8	O	-0.232875	-1.438236	-0.457311
O9	O	-0.489953	-1.720192	-0.474539
O10	O	-0.232840	-1.567325	-0.586369
O11	O	-0.379181	-1.428275	-0.296781
O12	O	-0.379120	-1.258007	-0.467085
O13	O	-0.489846	-1.420913	-0.773880
O14	O	-0.489892	-1.250540	-0.603548
O15	O	-0.379038	-1.557470	-0.766474
O16	O	-0.636198	-1.539963	-0.484313
O17	O	-0.636152	-1.410953	-0.613349
C18	C	-0.434505	-1.216153	-0.535314
C19	C	-0.434522	-1.099375	-0.535331
C20	C	-0.668908	-1.473269	-0.551045
C21	C	-0.769183	-1.466584	-0.557800
C22	C	-0.434429	-1.489204	-0.809363
C23	C	-0.434392	-1.489240	-0.926137
C24	C	-0.957595	-1.588499	-0.436237
C25	C	-1.051812	-1.582222	-0.442581
C26	C	-1.051834	-1.447758	-0.576837
C27	C	-0.957617	-1.454036	-0.570493
C28	C	-0.910501	-1.524407	-0.500189
C29	C	-0.816283	-1.530679	-0.493841
C30	C	-0.816307	-1.396221	-0.628101
C31	C	-0.910523	-1.389944	-0.634445
C32	C	-0.199208	-1.505060	-0.519588
C33	C	-0.098934	-1.511853	-0.512877
C34	C	-0.434528	-1.763152	-0.535358
C35	C	-0.434533	-1.879928	-0.535367
C36	C	-0.492289	-1.040646	-0.606288
C37	C	-0.492292	-0.930922	-0.606309
C38	C	-0.376759	-0.938665	-0.464407
C39	C	-0.376752	-1.048387	-0.464392
C40	C	-0.524663	-0.778846	-0.732342
C41	C	-0.582444	-0.720112	-0.803290
C42	C	-0.670486	-0.749780	-0.825147
C43	C	-0.700764	-0.838178	-0.776041
C44	C	-0.642988	-0.896905	-0.705085
C45	C	-0.554934	-0.867240	-0.683248
C46	C	-0.344390	-1.200465	-0.338358
C47	C	-0.286618	-1.259194	-0.267397
C48	C	-0.198575	-1.229528	-0.245529
C49	C	-0.168300	-1.141127	-0.294617
C50	C	-0.226072	-1.082398	-0.365578
C51	C	-0.314114	-1.112071	-0.387447
C52	C	-0.376686	-1.560350	-0.977144
C53	C	-0.376647	-1.560371	-1.086866
C54	C	-0.492029	-1.418166	-1.094564
C55	C	-0.492063	-1.418142	-0.984844
C56	C	-0.270208	-1.605152	-1.229700
C57	C	-0.212509	-1.676278	-1.280712
C58	C	-0.198675	-1.779723	-1.244192
C59	C	-0.242553	-1.812061	-1.156663
C60	C	-0.300258	-1.740940	-1.105658
C61	C	-0.314075	-1.637482	-1.142175
C62	C	-0.598503	-1.373371	-0.842008
C63	C	-0.656214	-1.302254	-0.791001
C64	C	-0.670057	-1.198807	-0.827519
C65	C	-0.626195	-1.166472	-0.915052
C66	C	-0.568484	-1.237589	-0.966059
C67	C	-0.554640	-1.341035	-0.929533
C68	C	-0.434537	-1.489100	-0.262369
C69	C	-0.434320	-1.489285	-0.145579
H70	H	-0.777922	-1.587976	-0.436593
H71	H	-0.532770	-1.211253	-1.037334
O72	O	-0.314459	-0.883663	-0.387895
H73	H	-0.274282	-0.942938	-0.338559
H74	H	-0.452970	-0.754689	-0.714562
O75	O	-0.073343	-1.109101	-0.271043
H76	H	-0.025051	-1.173887	-0.292754
H77	H	-0.176783	-1.649939	-1.351978
O78	O	-0.193421	-0.987054	-0.418537
H79	H	-0.122490	-0.976293	-0.391419
H80	H	-0.717531	-0.701952	-0.882915
H81	H	-0.919233	-1.645791	-0.378986
H82	H	-1.090152	-1.634414	-0.390506
O83	O	-1.102657	-1.371850	-0.652648
H84	H	-1.176083	-1.378249	-0.646304
H85	H	-0.717058	-1.140907	-0.785986
O86	O	-0.554576	-1.095652	-0.682811
H87	H	-0.625367	-1.069802	-0.669423
H88	H	-0.948898	-1.332652	-0.691687
H89	H	-0.329724	-1.618240	-0.929348
H90	H	-0.777952	-1.344030	-0.680173
O91	O	-0.675626	-0.992252	-0.652130
H92	H	-0.746556	-1.003022	-0.679250
H93	H	-0.231291	-1.896300	-1.126942
H94	H	-0.281459	-1.520918	-1.259438
O95	O	-0.439358	-1.232456	-0.361945
H96	H	-0.450709	-1.303782	-0.315875
O97	O	-0.136258	-1.292869	-0.168992
H98	H	-0.172097	-1.359326	-0.138527
O99	O	-0.319266	-1.354545	-0.214447
H100	H	-0.390191	-1.365320	-0.241585
O101	O	-0.136432	-1.856438	-1.299194
H102	H	-0.108240	-1.816572	-1.366184
H103	H	-0.335986	-1.767270	-1.034397
O104	O	-0.554231	-1.341485	-1.157882
H105	H	-0.544519	-1.353453	-1.242748
H106	H	-0.637470	-1.082238	-0.944790
H107	H	-0.772460	-0.862319	-0.793834
H108	H	-0.691937	-1.328594	-0.719734
O109	O	-0.549790	-0.624779	-0.856265
H110	H	-0.478853	-0.614025	-0.829167
H111	H	-0.587230	-1.457604	-0.812260
