data_functionalizedCrystal
_audit_creation_method	'MofGen! by Chris Wilmer'
_symmetry_space_group_name_H-M	'P1'
_symmetry_Int_Tables_number	1
_symmetry_cell_setting	triclinic
loop_
_symmetry_equiv_pos_as_xyz
  x,y,z
_cell_length_a	25.639242
_cell_length_b	29.839131
_cell_length_c	25.639234
_cell_angle_alpha	90.033076
_cell_angle_beta	90.026995
_cell_angle_gamma	90.030754
loop_
_atom_site_label
_atom_site_type_symbol
_atom_site_fract_x
_atom_site_fract_y
_atom_site_fract_z
Zn1	Zn	0.799263	-0.178936	0.295711
Zn2	Zn	1.299263	0.321064	0.795711
Zn3	Zn	0.799184	-0.254058	0.208263
Zn4	Zn	1.299184	0.245942	0.708263
Zn5	Zn	0.711831	-0.178937	0.208275
Zn6	Zn	1.211831	0.321063	0.708275
Zn7	Zn	0.711789	-0.254034	0.295653
Zn8	Zn	1.211789	0.245966	0.795653
O9	O	0.755517	-0.216491	0.251976
O10	O	1.255517	0.283509	0.751976
O11	O	0.872417	-0.188911	0.284130
O12	O	1.372417	0.311089	0.784130
O13	O	0.787581	-0.244103	0.135099
O14	O	1.287581	0.255897	0.635099
O15	O	0.723480	-0.116070	0.219904
O16	O	1.223480	0.383930	0.719904
O17	O	0.872360	-0.244102	0.219882
O18	O	1.372360	0.255898	0.719882
O19	O	0.787715	-0.116069	0.284143
O20	O	1.287715	0.383931	0.784143
O21	O	0.723404	-0.188912	0.135109
O22	O	1.223404	0.311088	0.635109
O23	O	0.638661	-0.188889	0.219847
O24	O	1.138661	0.311111	0.719847
O25	O	0.723408	-0.244061	0.368826
O26	O	1.223408	0.255939	0.868826
O27	O	0.638630	-0.244062	0.284043
O28	O	1.138630	0.255938	0.784043
O29	O	0.787674	-0.188887	0.368869
O30	O	1.287674	0.311113	0.868869
O31	O	0.787540	-0.316922	0.219825
O32	O	1.287540	0.183078	0.719825
O33	O	0.723332	-0.316904	0.284030
O34	O	1.223332	0.183096	0.784030
C35	C	0.619674	-0.216473	0.251940
C36	C	1.119674	0.283527	0.751940
C37	C	0.561560	-0.216477	0.251937
C38	C	1.061560	0.283523	0.751937
C39	C	0.201190	-0.245268	0.285371
C40	C	0.701190	0.254732	0.785371
C41	C	0.146586	-0.245270	0.285379
C42	C	0.646586	0.254730	0.785379
O43	O	0.118343	-0.269728	0.313775
O44	O	0.618343	0.230272	0.813775
N45	N	0.119278	-0.216503	0.252010
N46	N	0.619278	0.283497	0.752010
C47	C	0.146577	-0.187728	0.218634
C48	C	0.646577	0.312272	0.718634
O49	O	0.118336	-0.163260	0.190252
O50	O	0.618336	0.336740	0.690252
C51	C	0.201180	-0.187724	0.218629
C52	C	0.701180	0.312276	0.718629
C53	C	0.228485	-0.216496	0.251996
C54	C	0.728485	0.283504	0.751996
C55	C	0.228495	-0.274037	0.318736
C56	C	0.728495	0.225963	0.818736
C57	C	0.283095	-0.274035	0.318727
C58	C	0.783095	0.225965	0.818727
C59	C	0.310391	-0.245263	0.285352
C60	C	0.810391	0.254737	0.785352
C61	C	0.283086	-0.216494	0.251987
C62	C	0.783086	0.283506	0.751987
C63	C	0.228479	-0.158947	0.185256
C64	C	0.728479	0.341053	0.685256
C65	C	0.283086	-0.158944	0.185254
C66	C	0.783086	0.341056	0.685254
C67	C	0.310391	-0.187717	0.218621
C68	C	0.810391	0.312283	0.718621
C69	C	0.364982	-0.187720	0.218604
C70	C	0.864982	0.312280	0.718604
N71	N	0.392290	-0.216487	0.251973
N72	N	0.892290	0.283513	0.751973
C73	C	0.364994	-0.245258	0.285347
C74	C	0.864994	0.254742	0.785347
C75	C	0.031906	-0.187740	0.218648
C76	C	0.531906	0.312260	0.718648
C77	C	-0.022696	-0.187746	0.218650
C78	C	0.477304	0.312254	0.718650
C79	C	-0.022684	-0.245288	0.285396
C80	C	0.477316	0.254712	0.785396
C81	C	0.031920	-0.245283	0.285391
C82	C	0.531920	0.254717	0.785391
C83	C	0.059214	-0.216507	0.252017
C84	C	0.559214	0.283493	0.752017
C85	C	0.479659	-0.245252	0.285325
C86	C	0.979659	0.254748	0.785325
C87	C	0.534265	-0.245248	0.285312
C88	C	1.034265	0.254752	0.785312
C89	C	0.534248	-0.187705	0.218568
C90	C	1.034248	0.312295	0.718568
C91	C	0.479647	-0.187710	0.218580
C92	C	0.979647	0.312290	0.718580
C93	C	0.452354	-0.216485	0.251962
C94	C	0.952354	0.283515	0.751962
O95	O	0.393260	-0.163273	0.190224
O96	O	0.893260	0.336727	0.690224
O97	O	0.393242	-0.269719	0.313729
O98	O	0.893242	0.230281	0.813729
C99	C	0.755437	-0.333214	0.251931
C100	C	1.255437	0.166786	0.751931
C101	C	0.755451	-0.383148	0.251930
C102	C	1.255451	0.116852	0.751930
C103	C	0.788957	-0.692756	0.285472
C104	C	1.288957	-0.192756	0.785472
C105	C	0.789014	-0.880429	0.285504
C106	C	1.289014	-0.380429	0.785504
O107	O	0.817423	-0.904664	0.313990
O108	O	1.317423	-0.404664	0.813990
N109	N	0.755606	-0.903933	0.252034
N110	N	1.255606	-0.403933	0.752034
C111	C	0.722179	-0.880516	0.218556
C112	C	1.222179	-0.380516	0.718556
O113	O	0.693761	-0.904814	0.190092
O114	O	1.193761	-0.404814	0.690092
C115	C	0.722120	-0.692844	0.218527
C116	C	1.222120	-0.192844	0.718527
C117	C	0.755534	-0.669342	0.251996
C118	C	1.255534	-0.169342	0.751996
C119	C	0.822368	-0.669254	0.318939
C120	C	1.322368	-0.169254	0.818939
C121	C	0.822355	-0.622339	0.318928
C122	C	1.322355	-0.122339	0.818928
C123	C	0.788932	-0.598925	0.285452
C124	C	1.288932	-0.098925	0.785452
C125	C	0.755521	-0.622427	0.251986
C126	C	1.255521	-0.122427	0.751986
C127	C	0.688690	-0.669427	0.185052
C128	C	1.188690	-0.169427	0.685052
C129	C	0.688678	-0.622506	0.185049
C130	C	1.188678	-0.122506	0.685049
C131	C	0.722092	-0.599005	0.218518
C132	C	1.222092	-0.099005	0.718518
C133	C	0.722085	-0.552097	0.218499
C134	C	1.222085	-0.052097	0.718499
N135	N	0.755493	-0.528593	0.251969
N136	N	1.255493	-0.028593	0.751969
C137	C	0.788916	-0.552007	0.285446
C138	C	1.288916	-0.052007	0.785446
C139	C	0.722213	-0.979046	0.218572
C140	C	1.222213	-0.479046	0.718572
C141	C	0.722228	-1.025964	0.218578
C142	C	1.222228	-0.525964	0.718578
C143	C	0.789062	-1.025874	0.285527
C144	C	1.289062	-0.525874	0.785527
C145	C	0.789049	-0.978956	0.285518
C146	C	1.289049	-0.478956	0.785518
C147	C	0.755621	-0.955542	0.252042
C148	C	1.255621	-0.455542	0.752042
C149	C	0.788888	-0.453481	0.285421
C150	C	1.288888	0.046519	0.785421
C151	C	0.788874	-0.406562	0.285407
C152	C	1.288874	0.093438	0.785407
C153	C	0.722038	-0.406656	0.218460
C154	C	1.222038	0.093344	0.718460
C155	C	0.722054	-0.453571	0.218472
C156	C	1.222054	0.046429	0.718472
C157	C	0.755480	-0.476983	0.251957
C158	C	1.255480	0.023017	0.751957
O159	O	0.693686	-0.527834	0.190032
O160	O	1.193686	-0.027834	0.690032
O161	O	0.817322	-0.527701	0.313913
O162	O	1.317322	-0.027701	0.813913
C163	C	0.788969	-0.739671	0.285483
C164	C	1.288969	-0.239671	0.785483
C165	C	0.755559	-0.763173	0.252016
C166	C	1.255559	-0.263173	0.752016
C167	C	0.722135	-0.739759	0.218540
C168	C	1.222135	-0.239759	0.718540
C169	C	0.755574	-0.810091	0.252023
C170	C	1.255574	-0.310091	0.752023
C171	C	0.788997	-0.833505	0.285499
C172	C	1.288997	-0.333505	0.785499
C173	C	0.822405	-0.810001	0.318969
C174	C	1.322405	-0.310001	0.818969
C175	C	0.822393	-0.763085	0.318959
C176	C	1.322393	-0.263085	0.818959
C177	C	0.688727	-0.763263	0.185070
C178	C	1.188727	-0.263263	0.685070
C179	C	0.688743	-0.810179	0.185082
C180	C	1.188743	-0.310179	0.685082
C181	C	0.722166	-0.833592	0.218559
C182	C	1.222166	-0.333592	0.718559
C183	C	0.891890	-0.216509	0.252011
C184	C	1.391890	0.283491	0.752011
C185	C	0.950004	-0.216517	0.252027
C186	C	1.450004	0.283483	0.752027
C187	C	0.755545	-0.216471	0.388349
C188	C	1.255545	0.283529	0.888349
C189	C	0.755557	-0.216463	0.446463
C190	C	1.255557	0.283537	0.946463
C191	C	0.755611	-0.099313	0.252031
C192	C	1.255611	0.400687	0.752031
C193	C	0.755651	-0.049378	0.252055
C194	C	1.255651	0.450622	0.752055
C195	C	0.755519	-0.216478	0.116133
C196	C	1.255519	0.283522	0.616133
C197	C	0.755608	-0.216360	0.058019
C198	C	1.255608	0.283640	0.558019
C199	C	0.788988	-0.245164	0.697644
C200	C	1.288988	0.254836	1.197644
C201	C	0.788983	-0.245173	0.643039
C202	C	1.288983	0.254827	1.143039
O203	O	0.817383	-0.269626	0.614792
O204	O	1.317383	0.230374	1.114792
N205	N	0.755569	-0.216441	0.615737
N206	N	1.255569	0.283559	1.115737
C207	C	0.722154	-0.187701	0.643041
C208	C	1.222154	0.312299	1.143041
O209	O	0.693732	-0.163263	0.614804
O210	O	1.193732	0.336737	1.114804
C211	C	0.722157	-0.187694	0.697644
C212	C	1.222157	0.312306	1.197644
C213	C	0.755577	-0.216425	0.724944
C214	C	1.255577	0.283575	1.224944
C215	C	0.822405	-0.273893	0.724944
C216	C	1.322405	0.226107	1.224944
C217	C	0.822411	-0.273883	0.779544
C218	C	1.322411	0.226117	1.279544
C219	C	0.789000	-0.245144	0.806845
C220	C	1.289000	0.254856	1.306845
C221	C	0.755583	-0.216415	0.779545
C222	C	1.255583	0.283585	1.279545
C223	C	0.688741	-0.158956	0.724948
C224	C	1.188741	0.341044	1.224948
C225	C	0.688746	-0.158952	0.779555
C226	C	1.188746	0.341048	1.279555
C227	C	0.722166	-0.187683	0.806855
C228	C	1.222166	0.312317	1.306855
C229	C	0.722179	-0.187666	0.861446
C230	C	1.222179	0.312334	1.361446
N231	N	0.755593	-0.216398	0.888749
N232	N	1.255593	0.283602	1.388749
C233	C	0.789004	-0.245137	0.861448
C234	C	1.289004	0.254863	1.361448
C235	C	0.722149	-0.187718	0.528370
C236	C	1.222149	0.312282	1.028370
C237	C	0.722148	-0.187722	0.473768
C238	C	1.222148	0.312278	0.973768
C239	C	0.788976	-0.245195	0.473770
C240	C	1.288976	0.254805	0.973770
C241	C	0.788979	-0.245188	0.528374
C242	C	1.288979	0.254812	1.028374
C243	C	0.755563	-0.216450	0.555673
C244	C	1.255563	0.283550	1.055673
C245	C	0.789014	-0.245113	0.976113
C246	C	1.289014	0.254887	1.476113
C247	C	0.789019	-0.245099	1.030719
C248	C	1.289019	0.254901	1.530719
C249	C	0.722189	-0.187628	1.030712
C250	C	1.222189	0.312372	1.530712
C251	C	0.722186	-0.187640	0.976111
C252	C	1.222186	0.312360	1.476111
C253	C	0.755600	-0.216386	0.948813
C254	C	1.255600	0.283614	1.448813
O255	O	0.693792	-0.163227	0.889728
O256	O	1.193792	0.336773	1.389728
O257	O	0.817416	-0.269575	0.889692
O258	O	1.317416	0.230425	1.389692
H259	H	0.556494	-0.268680	0.312484
H260	H	1.056494	0.231320	0.812484
H261	H	0.849562	-0.603207	0.346183
H262	H	1.349562	-0.103207	0.846183
H263	H	0.457444	-0.268682	0.312510
H264	H	0.957444	0.231318	0.812510
H265	H	0.816257	-0.959823	0.312771
H266	H	1.316257	-0.459823	0.812771
H267	H	0.305322	-0.297463	0.345899
H268	H	0.805322	0.202537	0.845899
H269	H	0.849624	-0.297280	0.801767
H270	H	1.349624	0.202720	1.301767
H271	H	0.206277	-0.297467	0.345916
H272	H	0.706277	0.202533	0.845916
H273	H	0.694980	-0.164239	0.953882
H274	H	1.194980	0.335761	1.453882
H275	H	0.694988	-0.164228	1.052950
H276	H	1.194988	0.335772	1.552950
H277	H	0.054148	-0.268712	0.312562
H278	H	0.554148	0.231288	0.812562
H279	H	-0.044918	-0.268714	0.312573
H280	H	0.455082	0.231286	0.812573
H281	H	0.305306	-0.135508	0.158079
H282	H	0.805306	0.364492	0.658079
H283	H	0.816181	-0.268597	0.451532
H284	H	1.316181	0.231403	0.951532
H285	H	-0.044923	-0.164322	0.191474
H286	H	0.455077	0.335678	0.691474
H287	H	0.849585	-0.688313	0.346202
H288	H	1.349585	-0.188313	0.846202
H289	H	0.054126	-0.164307	0.191467
H290	H	0.554126	0.335693	0.691467
H291	H	0.849613	-0.297298	0.702722
H292	H	1.349613	0.202702	1.202722
H293	H	0.816236	-0.268496	1.052944
H294	H	1.316236	0.231504	1.552944
H295	H	0.816278	-1.044946	0.312785
H296	H	1.316278	-0.544946	0.812785
H297	H	0.694990	-0.959987	0.191311
H298	H	1.194990	-0.459987	0.691311
H299	H	0.661454	-0.603446	0.157790
H300	H	1.161454	-0.103446	0.657790
H301	H	0.816085	-0.387428	0.312661
H302	H	1.316085	0.112572	0.812661
H303	H	0.206256	-0.135519	0.158083
H304	H	0.706256	0.364481	0.658083
H305	H	0.661509	-0.744203	0.157809
H306	H	1.161509	-0.244203	0.657809
H307	H	0.457414	-0.164282	0.191408
H308	H	0.957414	0.335718	0.691408
H309	H	0.661525	-0.135561	0.702729
H310	H	1.161525	0.364439	1.202729
H311	H	0.661481	-0.688554	0.157798
H312	H	1.161481	-0.188554	0.657798
H313	H	0.695025	-1.045095	0.191319
H314	H	1.195025	-0.545095	0.691319
H315	H	0.556482	-0.164281	0.191394
H316	H	1.056482	0.335719	0.691394
H317	H	0.849621	-0.829073	0.346225
H318	H	1.349621	-0.329073	0.846225
H319	H	0.694939	-0.164311	0.550594
H320	H	1.194939	0.335689	1.050594
H321	H	0.694827	-0.387585	0.191202
H322	H	1.194827	0.112415	0.691202
H323	H	0.694850	-0.472707	0.191215
H324	H	1.194850	0.027293	0.691215
H325	H	0.816104	-0.472538	0.312692
H326	H	1.316104	0.027462	0.812692
H327	H	0.849601	-0.743954	0.346212
H328	H	1.349601	-0.243954	0.846212
H329	H	0.661534	-0.829309	0.157823
H330	H	1.161534	-0.329309	0.657823
H331	H	0.816227	-0.268518	0.953894
H332	H	1.316227	0.231482	1.453894
H333	H	0.661534	-0.135549	0.801779
H334	H	1.161534	0.364451	1.301779
H335	H	0.816193	-0.268584	0.550598
H336	H	1.316193	0.231416	1.050598
H337	H	0.694940	-0.164321	0.451545
H338	H	1.194940	0.335679	0.951545
