data_functionalizedCrystal
_audit_creation_method	'MofGen! by Chris Wilmer'
_symmetry_space_group_name_H-M	'P1'
_symmetry_Int_Tables_number	1
_symmetry_cell_setting	triclinic
loop_
_symmetry_equiv_pos_as_xyz
  x,y,z
_cell_length_a	17.639617
_cell_length_b	17.638166
_cell_length_c	17.638773
_cell_angle_alpha	65.716618
_cell_angle_beta	114.332928
_cell_angle_gamma	114.318354
loop_
_atom_site_label
_atom_site_type_symbol
_atom_site_fract_x
_atom_site_fract_y
_atom_site_fract_z
Zn1	Zn	1.320451	-0.200820	0.754915
Zn2	Zn	1.272633	-0.318796	0.636890
Zn3	Zn	1.154774	-0.200773	0.589189
Zn4	Zn	1.154687	-0.366400	0.754758
O5	O	1.225636	-0.271697	0.683938
O6	O	1.432805	-0.196567	0.759288
O7	O	1.237022	-0.283199	0.511877
O8	O	1.196800	-0.082091	0.591276
O9	O	1.397673	-0.283244	0.672575
O10	O	1.318522	-0.082125	0.713034
O11	O	1.150432	-0.196488	0.476832
O12	O	1.036065	-0.242647	0.591124
O13	O	1.196652	-0.364377	0.873464
O14	O	1.036002	-0.364332	0.712767
O15	O	1.318439	-0.242726	0.873580
O16	O	1.236938	-0.443800	0.672423
O17	O	1.150285	-0.478774	0.759020
C18	C	1.005257	-0.308651	0.646753
C19	C	0.910977	-0.324483	0.630868
C20	C	1.188439	-0.492061	0.720903
C21	C	1.172609	-0.586325	0.736758
C22	C	1.105127	-0.737424	0.804140
C23	C	1.120008	-0.648847	0.789237
C24	C	1.210346	-0.612363	0.699158
C25	C	1.195469	-0.700939	0.714050
C26	C	1.142860	-0.763464	0.766543
C27	C	1.233203	-0.726979	0.676453
C28	C	1.218330	-0.815547	0.691348
C29	C	1.165725	-0.878077	0.743840
C30	C	1.127988	-0.852032	0.781437
C31	C	1.285817	-0.664453	0.623965
C32	C	1.323550	-0.690492	0.586368
C33	C	1.308673	-0.779063	0.601258
C34	C	1.256068	-0.841592	0.653750
C35	C	1.346411	-0.805107	0.563660
C36	C	1.331539	-0.893675	0.578555
C37	C	1.241196	-0.930160	0.668645
C38	C	0.692320	-0.151436	0.804819
C39	C	0.603724	-0.166331	0.789879
C40	C	0.567167	-0.256382	0.699399
C41	C	0.655762	-0.241497	0.714335
C42	C	0.718332	-0.189022	0.767045
C43	C	0.681774	-0.279084	0.676560
C44	C	0.770361	-0.264197	0.691491
C45	C	0.832936	-0.211722	0.744196
C46	C	0.806920	-0.174135	0.781975
C47	C	0.619202	-0.331553	0.623845
C48	C	0.645214	-0.369140	0.586071
C49	C	0.733802	-0.354258	0.601006
C50	C	0.796378	-0.301784	0.653712
C51	C	0.759819	-0.391845	0.563227
C52	C	0.848407	-0.376958	0.578158
C53	C	0.884965	-0.286897	0.668643
C54	C	1.446877	-0.234600	0.721270
C55	C	1.541156	-0.218792	0.737178
C56	C	1.262870	-0.308867	0.905156
C57	C	1.278737	-0.324706	0.999426
C58	C	1.263005	-0.050473	0.646852
C59	C	1.278929	0.043800	0.631048
C60	C	1.188607	-0.234603	0.463579
C61	C	1.172945	-0.218498	0.369297
C62	C	1.346180	-0.392171	1.150541
C63	C	1.331265	-0.377283	1.061958
C64	C	1.241106	-0.286992	1.025459
C65	C	1.256016	-0.301870	1.114041
C66	C	1.308553	-0.354461	1.176576
C67	C	1.218390	-0.264159	1.140075
C68	C	1.233296	-0.279039	1.228649
C69	C	1.285828	-0.331630	1.291189
C70	C	1.323459	-0.369341	1.265150
C71	C	1.165848	-0.211573	1.077539
C72	C	1.128222	-0.173863	1.103573
C73	C	1.143133	-0.188738	1.192149
C74	C	1.195665	-0.241328	1.254689
C75	C	1.105502	-0.151027	1.218188
C76	C	1.120408	-0.165907	1.306762
C77	C	1.210571	-0.256208	1.343263
H78	H	1.153621	-0.950194	0.755970
O79	O	1.368033	-0.919068	0.541959
C80	C	1.343415	-0.997850	0.446132
C81	C	1.301977	-0.969181	0.487547
H82	H	1.290028	-1.038356	0.402116
H83	H	1.387321	-1.038432	0.499482
H84	H	1.383583	-0.937925	0.406089
H85	H	1.261767	-1.029056	0.527583
H86	H	1.258121	-0.928569	0.434155
H87	H	1.389253	-0.754189	0.520928
H88	H	1.253360	-0.299025	1.394183
O89	O	0.873721	-0.413329	0.541364
C90	C	0.952600	-0.388519	0.445620
C91	C	0.923976	-0.347216	0.487219
H92	H	0.993251	-0.335087	0.401850
H93	H	0.892691	-0.428551	0.405328
H94	H	0.993100	-0.432510	0.498946
H95	H	0.883494	-0.303186	0.433950
H96	H	0.983921	-0.307237	0.527531
O97	O	0.506270	-0.307362	0.648253
C98	C	0.353594	-0.370169	0.585106
C99	C	0.422466	-0.312429	0.643061
H100	H	0.285823	-0.374269	0.580875
H101	H	0.361905	-0.438166	0.614302
H102	H	0.362077	-0.340765	0.517180
H103	H	0.414025	-0.341756	0.711000
H104	H	0.414136	-0.244438	0.613795
H105	H	0.935915	-0.244170	0.711568
O106	O	1.300111	-0.578425	0.609383
C107	C	1.236442	-0.461386	0.552464
C108	C	1.220138	-0.558821	0.568916
H109	H	1.171795	-0.445509	0.519761
H110	H	1.280479	-0.421134	0.508446
H111	H	1.269127	-0.445392	0.617071
H112	H	1.187425	-0.574896	0.504354
H113	H	1.176136	-0.599019	0.612972
O114	O	0.578416	-0.129713	0.826438
C115	C	0.499611	-0.034017	0.801970
C116	C	0.528227	-0.075412	0.760457
H117	H	0.459013	0.009880	0.748644
H118	H	0.559523	0.006102	0.842172
H119	H	0.459060	-0.087445	0.845838
H120	H	0.568760	-0.022041	0.716548
H121	H	0.468279	-0.115551	0.720306
H122	H	1.198360	-0.981072	0.711394
H123	H	1.085152	-0.902944	0.824187
H124	H	1.366248	-0.412158	1.316070
O125	O	1.397212	-0.443307	1.211182
C126	C	1.485126	-0.531250	1.238050
C127	C	1.427339	-0.473378	1.169285
H128	H	1.509515	-0.555565	1.204203
H129	H	1.445698	-0.589141	1.280375
H130	H	1.543000	-0.491832	1.280487
H131	H	1.369457	-0.512723	1.126789
H132	H	1.466829	-0.415485	1.127022
H133	H	0.547069	-0.343651	0.611669
H134	H	0.594257	-0.411862	0.543151
O135	O	0.698921	-0.442820	0.512076
C136	C	0.546244	-0.505611	0.448918
C137	C	0.615118	-0.447881	0.506882
H138	H	0.478474	-0.509706	0.444684
H139	H	0.554547	-0.573610	0.478107
H140	H	0.554731	-0.476201	0.380992
H141	H	0.606673	-0.477213	0.574819
H142	H	0.606796	-0.379887	0.477622
H143	H	1.062291	-0.788336	0.846889
H144	H	1.253184	-0.561446	0.656421
O145	O	1.083260	-0.623702	0.825805
C146	C	0.992150	-0.669240	0.916802
C147	C	1.033685	-0.697837	0.875418
H148	H	0.952074	-0.729162	0.956938
H149	H	0.948166	-0.628751	0.863432
H150	H	1.045522	-0.628626	0.960723
H151	H	0.980372	-0.738483	0.831505
H152	H	1.077690	-0.738281	0.928832
H153	H	1.366388	-0.639576	0.543631
O154	O	0.918982	-0.197410	0.758806
C155	C	1.036037	-0.261033	0.815504
C156	C	0.938582	-0.277361	0.799025
H157	H	1.051910	-0.325663	0.848007
H158	H	1.076329	-0.217120	0.859710
H159	H	1.052007	-0.228222	0.750929
H160	H	0.922530	-0.310199	0.863556
H161	H	0.898343	-0.321239	0.754781
O162	O	1.083723	-0.129320	1.331954
C163	C	0.950960	-0.116928	1.327858
C164	C	0.992396	-0.158403	1.299250
H165	H	0.877117	-0.140440	1.301445
H166	H	0.974411	-0.043109	1.301463
H167	H	0.970685	-0.136579	1.401907
H168	H	0.972690	-0.138820	1.225208
H169	H	0.968947	-0.232215	1.325709
O170	O	1.367675	-0.414019	1.036622
C171	C	1.342900	-0.509775	0.957692
C172	C	1.301559	-0.468247	0.986346
H173	H	1.289465	-0.553613	0.917024
H174	H	1.382977	-0.549979	1.017571
H175	H	1.386878	-0.456419	0.917217
H176	H	1.257541	-0.521547	1.026803
H177	H	1.261534	-0.428023	0.926431
H178	H	1.297964	-0.343744	1.363311
O179	O	0.867595	-0.123117	0.833180
C180	C	0.894519	-0.035424	0.921421
C181	C	0.825715	-0.093159	0.863435
H182	H	0.860686	-0.011201	0.945914
H183	H	0.936930	0.022531	0.882127
H184	H	0.936887	-0.074915	0.979205
H185	H	0.783288	-0.053742	0.805643
H186	H	0.783367	-0.151116	0.902791
H187	H	1.198327	-0.244176	0.974532
H188	H	0.743270	-0.108709	0.847744
H189	H	1.153704	-0.199469	1.005417
H190	H	1.085444	-0.131046	1.052646
H191	H	1.062719	-0.108214	1.167260
