data_functionalizedCrystal
_audit_creation_method	'MofGen! by Chris Wilmer'
_symmetry_space_group_name_H-M	'P1'
_symmetry_Int_Tables_number	1
_symmetry_cell_setting	triclinic
loop_
_symmetry_equiv_pos_as_xyz
  x,y,z
_cell_length_a	18.050591
_cell_length_b	18.050590
_cell_length_c	18.050582
_cell_angle_alpha	90.023337
_cell_angle_beta	90.019760
_cell_angle_gamma	90.015000
loop_
_atom_site_label
_atom_site_type_symbol
_atom_site_fract_x
_atom_site_fract_y
_atom_site_fract_z
Zn1	Zn	1.135342	-0.295777	0.420004
Zn2	Zn	1.635342	0.204223	0.920004
Zn3	Zn	1.135274	-0.419960	0.295813
Zn4	Zn	1.635274	0.080040	0.795813
Zn5	Zn	1.011162	-0.295781	0.295818
Zn6	Zn	1.511162	0.204219	0.795818
Zn7	Zn	1.011131	-0.419922	0.419951
Zn8	Zn	1.511131	0.080078	0.919951
O9	O	1.073227	-0.357860	0.357897
O10	O	1.573227	0.142140	0.857897
O11	O	1.239258	-0.312265	0.403550
O12	O	1.739258	0.187735	0.903550
O13	O	1.118795	-0.403505	0.191889
O14	O	1.618795	0.096495	0.691889
O15	O	1.027676	-0.191856	0.312316
O16	O	1.527676	0.308144	0.812316
O17	O	1.239208	-0.403501	0.312307
O18	O	1.739208	0.096499	0.812307
O19	O	1.118911	-0.191853	0.403556
O20	O	1.618911	0.308147	0.903556
O21	O	1.027610	-0.312271	0.191893
O22	O	1.527610	0.187729	0.691893
O23	O	0.907233	-0.312234	0.312264
O24	O	1.407233	0.187766	0.812264
O25	O	1.027623	-0.403436	0.523883
O26	O	1.527623	0.096564	1.023883
O27	O	0.907210	-0.403440	0.403464
O28	O	1.407210	0.096560	0.903464
O29	O	1.118881	-0.312227	0.523922
O30	O	1.618881	0.187773	1.023922
O31	O	1.118765	-0.523880	0.312255
O32	O	1.618765	-0.023880	0.812255
O33	O	1.027557	-0.523852	0.403459
O34	O	1.527557	-0.023852	0.903459
C35	C	0.880275	-0.357834	0.357859
C36	C	1.380275	0.142166	0.857859
C37	C	0.797729	-0.357841	0.357861
C38	C	1.297729	0.142159	0.857861
C39	C	0.548895	-0.308191	0.308384
C40	C	1.048895	0.191809	0.808384
C41	C	0.598323	-0.290110	0.376160
C42	C	1.098323	0.209890	0.876160
C43	C	0.500609	-0.357879	0.357922
C44	C	1.000609	0.142121	0.857922
C45	C	0.598262	-0.375906	0.290119
C46	C	1.098262	0.124094	0.790119
C47	C	0.646594	-0.357858	0.357888
C48	C	1.146594	0.142142	0.857888
C49	C	0.548951	-0.339762	0.425734
C50	C	1.048951	0.160238	0.925734
C51	C	0.548884	-0.425589	0.339648
C52	C	1.048884	0.074411	0.839648
C53	C	0.598291	-0.407534	0.407471
C54	C	1.098291	0.092466	0.907471
C55	C	0.416511	-0.357888	0.357940
C56	C	0.916511	0.142112	0.857940
C57	C	0.730690	-0.357848	0.357878
C58	C	1.230690	0.142152	0.857878
C59	C	1.073170	-0.550812	0.357867
C60	C	1.573170	-0.050812	0.857867
C61	C	1.073214	-0.633358	0.357879
C62	C	1.573214	-0.133358	0.857879
C63	C	1.122916	-0.832797	0.308352
C64	C	1.622916	-0.332797	0.808352
C65	C	1.141051	-0.882137	0.376133
C66	C	1.641051	-0.382137	0.876133
C67	C	1.073256	-0.784488	0.357909
C68	C	1.573256	-0.284488	0.857909
C69	C	1.055196	-0.882230	0.290158
C70	C	1.555196	-0.382230	0.790158
C71	C	1.073298	-0.930473	0.357931
C72	C	1.573298	-0.430473	0.857931
C73	C	1.091426	-0.832741	0.425726
C74	C	1.591426	-0.332741	0.925726
C75	C	1.005539	-0.832830	0.339704
C76	C	1.505539	-0.332830	0.839704
C77	C	1.023649	-0.882147	0.407533
C78	C	1.523649	-0.382147	0.907533
C79	C	1.073233	-0.700390	0.357895
C80	C	1.573233	-0.200390	0.857895
C81	C	1.073320	-1.014570	0.357953
C82	C	1.573320	-0.514570	0.857953
C83	C	1.266933	-0.357887	0.357934
C84	C	1.766933	0.142113	0.857934
C85	C	1.349479	-0.357898	0.357950
C86	C	1.849479	0.142102	0.857950
C87	C	1.073256	-0.357827	0.551602
C88	C	1.573256	0.142173	1.051602
C89	C	1.073269	-0.357813	0.634148
C90	C	1.573269	0.142187	1.134148
C91	C	1.073305	-0.164154	0.357943
C92	C	1.573305	0.335846	0.857943
C93	C	1.073338	-0.081609	0.357962
C94	C	1.573338	0.418391	0.857962
C95	C	1.073241	-0.357839	0.164944
C96	C	1.573241	0.142161	0.664944
C97	C	1.073372	-0.357644	0.082399
C98	C	1.573372	0.142356	0.582399
C99	C	1.023681	-0.407345	0.833577
C100	C	1.523681	0.092655	1.333577
C101	C	1.091439	-0.425502	0.882974
C102	C	1.591439	0.074498	1.382974
C103	C	1.073305	-0.357756	0.785278
C104	C	1.573305	0.142244	1.285278
C105	C	1.005584	-0.339578	0.882963
C106	C	1.505584	0.160422	1.382963
C107	C	1.073335	-0.357703	0.931264
C108	C	1.573335	0.142297	1.431264
C109	C	1.141099	-0.375950	0.833588
C110	C	1.641099	0.124050	1.333588
C111	C	1.055199	-0.289994	0.833573
C112	C	1.555199	0.210006	1.333573
C113	C	1.123004	-0.308126	0.882948
C114	C	1.623004	0.191874	1.382948
C115	C	1.073287	-0.357789	0.701180
C116	C	1.573287	0.142211	1.201180
C117	C	1.073360	-0.357670	1.015360
C118	C	1.573360	0.142330	1.515360
H119	H	0.527153	-0.482843	0.324181
H120	H	1.027153	0.017157	0.824181
H121	H	0.948301	-0.324225	0.904653
H122	H	1.448301	0.175775	1.404653
O123	O	1.111743	-0.804072	0.501664
O124	O	1.611743	-0.304072	1.001664
H125	H	1.121832	-0.851543	0.539406
H126	H	1.621832	-0.351543	1.039406
O127	O	0.626955	-0.396125	0.214189
O128	O	1.126955	0.103875	0.714189
H129	H	0.607162	-0.354807	0.173189
H130	H	1.107162	0.145193	0.673189
H131	H	1.164925	-0.811127	0.266486
H132	H	1.664925	-0.311127	0.766486
H133	H	0.981672	-0.903680	0.449500
H134	H	1.481672	-0.403680	0.949500
H135	H	1.039903	-0.903968	0.232852
H136	H	1.539903	-0.403968	0.732852
H137	H	0.527380	-0.324440	0.483076
H138	H	1.027380	0.175560	0.983076
H139	H	0.619842	-0.449544	0.449397
H140	H	1.119842	0.050456	0.949397
H141	H	0.948271	-0.811154	0.324272
H142	H	1.448271	-0.311154	0.824272
H143	H	1.198335	-0.903797	0.391545
H144	H	1.698335	-0.403797	0.891545
H145	H	1.106771	-0.482785	0.904674
H146	H	1.606771	0.017215	1.404674
H147	H	1.165031	-0.266168	0.904488
H148	H	1.665031	0.233832	1.404488
H149	H	0.527208	-0.266150	0.266557
H150	H	1.027208	0.233850	0.766557
O151	O	1.034859	-0.214149	0.804779
O152	O	1.534859	0.285851	1.304779
H153	H	0.978578	-0.199209	0.824510
H154	H	1.478578	0.300791	1.324510
H155	H	0.981754	-0.449335	0.811901
H156	H	1.481754	0.050665	1.311901
H157	H	0.620026	-0.232837	0.391616
H158	H	1.120026	0.267163	0.891616
O159	O	1.217102	-0.396000	0.804990
O160	O	1.717102	0.104000	1.304990
H161	H	1.216522	-0.395752	0.743503
H162	H	1.716522	0.104248	1.243503
