data_functionalizedCrystal
_audit_creation_method	'MofGen! by Chris Wilmer'
_symmetry_space_group_name_H-M	'P1'
_symmetry_Int_Tables_number	1
_symmetry_cell_setting	triclinic
loop_
_symmetry_equiv_pos_as_xyz
  x,y,z
_cell_length_a	14.853567
_cell_length_b	27.732048
_cell_length_c	13.330367
_cell_angle_alpha	89.990394
_cell_angle_beta	89.995418
_cell_angle_gamma	83.138793
loop_
_atom_site_label
_atom_site_type_symbol
_atom_site_fract_x
_atom_site_fract_y
_atom_site_fract_z
O1	O	1.195342	0.063107	-0.083366
O2	O	0.932760	0.070624	-0.083384
O3	O	1.072207	-0.003493	-0.083355
O4	O	1.055896	0.137224	-0.083395
O5	O	1.072187	-0.003495	0.083492
O6	O	0.932740	0.070622	0.083463
O7	O	1.195322	0.063105	0.083481
Cu8	Cu	1.064029	0.066864	0.098707
Cu9	Cu	1.064053	0.066865	-0.098609
O10	O	1.055876	0.137222	0.083453
C11	C	0.899167	0.070283	0.000037
C12	C	0.799100	0.069262	0.000031
C13	C	0.387353	0.020920	0.000067
C14	C	0.364639	0.108973	0.000041
C15	C	0.458657	0.109933	0.000038
C16	C	0.517028	0.066385	0.000047
C17	C	0.481380	0.021878	0.000061
C18	C	0.494313	0.154439	0.000015
C19	C	0.588336	0.155401	0.000010
C20	C	0.646708	0.111853	0.000027
C21	C	0.611055	0.067344	0.000041
C22	C	0.669425	0.023796	0.000051
C23	C	0.633774	-0.020713	0.000072
C24	C	0.539752	-0.021670	0.000077
C25	C	0.740730	0.112809	0.000021
C26	C	0.763452	0.024755	0.000044
C27	C	1.071854	-0.021503	0.000071
C28	C	1.070823	-0.075162	0.000079
C29	C	1.146736	-0.413622	0.000033
C30	C	1.142911	-0.615300	0.000019
O31	O	1.212328	-0.646231	-0.000020
N32	N	1.060225	-0.634810	0.000014
C33	C	0.978490	-0.603898	0.000006
O34	O	0.908073	-0.625120	-0.000009
C35	C	0.982316	-0.402221	0.000013
C36	C	1.065007	-0.382714	0.000028
C37	C	1.229421	-0.394114	0.000047
C38	C	1.230376	-0.343698	0.000056
C39	C	1.148647	-0.312790	0.000051
C40	C	1.065963	-0.332298	0.000037
C41	C	0.900582	-0.371310	-0.000002
C42	C	0.901546	-0.320888	-0.000003
C43	C	0.984237	-0.301381	0.000012
C44	C	0.985189	-0.250973	0.000041
N45	N	1.067875	-0.231462	0.000046
C46	C	1.149604	-0.262371	0.000051
C47	C	0.976487	-0.709781	0.000004
C48	C	0.975530	-0.760200	0.000004
C49	C	1.139952	-0.771599	0.000015
C50	C	1.140908	-0.721179	0.000022
C51	C	1.059173	-0.690271	0.000009
C52	C	1.151604	-0.156492	0.000071
C53	C	1.152552	-0.106071	0.000084
C54	C	0.988131	-0.094677	0.000068
C55	C	0.987183	-0.145094	0.000060
C56	C	1.068926	-0.176001	0.000058
O57	O	0.915809	-0.220013	0.000069
O58	O	1.220011	-0.241139	0.000044
C59	C	1.145781	-0.464039	0.000024
C60	C	1.063097	-0.483547	0.000010
C61	C	0.981367	-0.452638	0.000005
C62	C	1.062140	-0.533966	0.000010
C63	C	1.143869	-0.564874	0.000015
C64	C	1.226555	-0.545364	0.000020
C65	C	1.227510	-0.494947	0.000029
C66	C	0.898682	-0.472149	0.000000
C67	C	0.897733	-0.522566	-0.000008
C68	C	0.979462	-0.553474	-0.000003
C69	C	1.228915	0.063446	0.000058
C70	C	1.328982	0.064467	0.000057
C71	C	1.056228	0.155232	0.000024
C72	C	1.057259	0.208891	0.000009
N73	N	1.064019	0.066862	0.237488
N74	N	1.064070	0.066863	-0.237391
C75	C	1.002304	0.099672	0.710098
C76	C	1.125827	0.034055	0.710092
C77	C	1.125817	0.034054	0.605074
C78	C	1.064050	0.066862	0.552563
C79	C	1.002294	0.099672	0.605070
C80	C	1.187578	0.001248	0.552558
C81	C	1.187571	0.001246	0.447533
C82	C	1.125799	0.034052	0.395021
C83	C	1.064040	0.066863	0.447535
C84	C	1.002273	0.099671	0.395024
C85	C	0.940509	0.132480	0.447536
C86	C	0.940522	0.132479	0.552557
C87	C	1.125786	0.034053	0.289999
C88	C	1.002263	0.099672	0.289996
H89	H	1.219892	-0.090191	0.000099
H90	H	1.237871	-0.025461	0.595316
O91	O	0.437521	0.196705	-0.000128
C92	C	0.382466	0.198787	-0.086544
H93	H	0.378251	0.160418	-0.115340
H94	H	0.311540	0.216742	-0.067105
H95	H	0.413087	0.220886	-0.147065
H96	H	0.834986	-0.295725	-0.000015
H97	H	0.890237	0.159191	0.595319
O98	O	0.820241	-0.017516	-0.000082
C99	C	0.875288	-0.019603	-0.086512
H100	H	0.879512	0.018766	-0.115336
H101	H	0.946213	-0.037563	-0.067081
H102	H	0.844655	-0.041699	-0.147009
H103	H	0.908195	-0.776078	0.000009
O104	O	0.622850	0.198666	-0.000140
C105	C	0.592982	0.225209	-0.086572
H106	H	0.527952	0.211990	-0.115376
H107	H	0.579363	0.265452	-0.067150
H108	H	0.647478	0.219650	-0.147079
O109	O	1.247595	-0.030673	0.396684
C110	C	1.302129	-0.059621	0.465553
H111	H	1.265186	-0.060200	0.540427
H112	H	1.316417	-0.098210	0.435225
H113	H	1.368879	-0.043860	0.476697
O114	O	0.775257	0.156069	-0.000134
C115	C	0.745397	0.182612	-0.086569
H116	H	0.680361	0.169397	-0.115372
H117	H	0.731789	0.222856	-0.067153
H118	H	0.799892	0.177046	-0.147076
O119	O	0.897002	-0.679829	0.000045
C120	C	0.823826	-0.707868	0.000019
H121	H	0.847256	-0.745481	0.031604
H122	H	0.766599	-0.689323	0.048461
H123	H	0.798452	-0.711472	-0.080026
O124	O	1.185688	0.002126	0.239022
C125	C	1.171744	-0.045742	0.264711
H126	H	1.099581	-0.046060	0.293606
H127	H	1.182446	-0.069984	0.195641
H128	H	1.221928	-0.059891	0.325655
H129	H	0.681311	-0.056169	0.000073
O130	O	1.219368	-0.801609	0.000191
C131	C	1.269632	-0.792763	0.086585
H132	H	1.221800	-0.775570	0.146990
H133	H	1.306283	-0.828512	0.115582
H134	H	1.321456	-0.767054	0.067046
O135	O	0.505075	-0.064890	-0.000088
C136	C	0.451355	-0.068069	-0.086486
H137	H	0.473253	-0.042796	-0.146889
H138	H	0.460329	-0.107018	-0.115483
H139	H	0.377045	-0.056964	-0.066953
O140	O	0.352576	-0.022273	0.000042
C141	C	0.257074	-0.013785	0.000077
H142	H	0.234466	0.023921	-0.031521
H143	H	0.228596	-0.042267	-0.048349
H144	H	0.230934	-0.016144	0.080127
H145	H	0.890222	0.159195	0.404769
O146	O	0.307815	0.151227	0.000076
C147	C	0.217184	0.140838	0.000055
H148	H	0.214105	0.102868	0.031650
H149	H	0.174193	0.168589	0.048491
H150	H	0.189968	0.142655	-0.079990
H151	H	1.208242	-0.705300	0.000034
O152	O	1.231091	-0.186441	0.000117
C153	C	1.304266	-0.158403	0.000107
H154	H	1.280829	-0.120795	0.031695
H155	H	1.361483	-0.176957	0.048554
H156	H	1.329658	-0.154783	-0.079934
H157	H	0.830391	-0.538443	-0.000011
H158	H	1.294846	-0.479069	0.000041
O159	O	1.310783	-0.324832	0.000018
C160	C	1.382703	-0.362932	0.000044
H161	H	1.357912	-0.397196	-0.031545
H162	H	1.440485	-0.352354	-0.048394
H163	H	1.407871	-0.370056	0.080090
O164	O	1.308760	-0.424184	0.000187
C165	C	1.313132	-0.453686	0.086613
H166	H	1.241610	-0.456299	0.115412
H167	H	1.347270	-0.491550	0.067187
H168	H	1.354052	-0.437067	0.147127
O169	O	0.820175	-0.390171	-0.000066
C170	C	0.748256	-0.352070	-0.000052
H171	H	0.773060	-0.317801	-0.031628
H172	H	0.690489	-0.362639	-0.048506
H173	H	0.723064	-0.344960	0.079989
H174	H	0.919849	-0.160977	0.000076
H175	H	0.952014	0.126383	0.752856
O176	O	0.908661	-0.064716	0.000100
C177	C	0.835466	-0.092741	0.000056
H178	H	0.858866	-0.130356	0.031652
H179	H	0.778236	-0.074185	0.048479
H180	H	0.810109	-0.096345	-0.079996
O181	O	1.305924	-0.575413	-0.000156
C182	C	1.310276	-0.604916	-0.086560
H183	H	1.263921	-0.586476	-0.146954
H184	H	1.382976	-0.610533	-0.115566
H185	H	1.287452	-0.641596	-0.067031
H186	H	0.832126	-0.446987	-0.000006
O187	O	0.942350	0.131610	0.239036
C188	C	0.956317	0.179473	0.264705
H189	H	1.028491	0.179781	0.293563
H190	H	0.945601	0.203724	0.195635
H191	H	0.906156	0.193618	0.325672
O192	O	1.185779	0.002119	0.760992
C193	C	1.171766	-0.045743	0.735373
H194	H	1.137017	-0.045717	0.659122
H195	H	1.239855	-0.069487	0.731786
H196	H	1.127096	-0.060728	0.794492
