data_functionalizedCrystal
_audit_creation_method	'MofGen! by Chris Wilmer'
_symmetry_space_group_name_H-M	'P1'
_symmetry_Int_Tables_number	1
_symmetry_cell_setting	triclinic
loop_
_symmetry_equiv_pos_as_xyz
  x,y,z
_cell_length_a	23.196402
_cell_length_b	14.560438
_cell_length_c	14.560438
_cell_angle_alpha	60.001579
_cell_angle_beta	89.999432
_cell_angle_gamma	59.999402
loop_
_atom_site_label
_atom_site_type_symbol
_atom_site_fract_x
_atom_site_fract_y
_atom_site_fract_z
Zr1	Zr	0.555362	1.005288	-0.120537
O2	O	0.463310	1.196886	-0.267175
O3	O	0.583580	0.813688	-0.075587
O4	O	0.583579	1.005288	-0.267185
O5	O	0.463314	1.005286	0.075563
O6	O	0.678449	1.005291	-0.267191
O7	O	0.463312	1.005286	-0.075576
O8	O	0.678452	0.662553	0.075544
O9	O	0.463311	1.348024	-0.267172
O10	O	0.666416	0.892498	-0.056417
O11	O	0.595617	0.892497	0.056380
O12	O	0.595615	1.118081	-0.169202
O13	O	0.524815	1.118080	-0.056405
Zr14	Zr	0.706671	1.005293	0.120505
Zr15	Zr	0.706668	1.005292	-0.120545
Zr16	Zr	0.555364	1.005289	0.120513
Zr17	Zr	0.555362	1.246336	-0.120532
Zr18	Zr	0.706671	0.764245	0.120500
O19	O	0.678452	1.196892	0.075554
O20	O	0.678449	1.196891	-0.267187
O21	O	0.463314	1.196887	0.075566
O22	O	0.798722	0.813695	0.267143
O23	O	0.798719	0.813694	-0.075599
O24	O	0.583584	0.813689	0.267155
O25	O	0.798719	1.005294	-0.075595
O26	O	0.678454	1.005292	0.267153
O27	O	0.583584	1.005290	0.267159
O28	O	0.798721	1.005295	0.075544
O29	O	0.583579	1.348027	-0.267179
O30	O	0.678453	0.662554	0.267147
O31	O	0.798722	0.662557	0.267140
O32	O	0.798720	0.662556	0.075538
O33	O	0.463313	1.348025	-0.075570
O34	O	0.583581	1.348028	-0.075577
O35	O	0.666418	0.892499	0.169170
O36	O	0.737217	0.892501	0.056373
O37	O	0.666416	1.118084	-0.056413
O38	O	0.595617	1.118082	0.056385
C39	C	0.631016	0.703777	-0.000022
C40	C	0.631016	0.601446	-0.000024
C41	C	0.667971	0.553370	-0.058903
C42	C	0.667974	0.457211	-0.058892
C43	C	0.594061	0.457215	0.058878
C44	C	0.594062	0.553366	0.058873
C45	C	0.441755	1.005286	-0.000006
C46	C	0.377521	1.005284	-0.000002
C47	C	0.384304	0.887536	0.058860
C48	C	0.323949	0.887534	0.058865
C49	C	0.256813	1.005287	-0.000015
C50	C	0.250033	1.123051	-0.058879
C51	C	0.310387	1.123050	-0.058873
C52	C	0.132883	1.095502	-0.098643
C53	C	0.072532	1.095499	-0.098653
C54	C	0.070659	1.005297	-0.000032
C55	C	0.129152	0.915077	0.098597
C56	C	0.189507	0.915075	0.098603
C57	C	0.191365	1.005302	-0.000027
C58	C	0.012001	0.887539	0.058840
C59	C	-0.048356	0.887542	0.058848
C60	C	-0.122272	1.123063	-0.058907
C61	C	-0.061915	1.123056	-0.058904
C62	C	0.005219	1.005291	-0.000033
C63	C	0.820278	1.005295	-0.000027
C64	C	0.884511	1.005297	-0.000030
C65	C	0.631013	1.005289	-0.301533
C66	C	0.631012	1.005289	-0.403864
C67	C	0.631017	1.306804	-0.000010
C68	C	0.631017	1.409135	-0.000009
C69	C	0.578752	1.005290	-0.548100
C70	C	0.578750	1.005284	-0.451945
C71	C	0.683286	1.005286	-0.451937
C72	C	0.683291	1.005283	-0.548085
C73	C	0.631019	1.005291	0.301500
C74	C	0.631020	1.005292	0.403832
C75	C	0.820277	0.703781	-0.000032
C76	C	0.884511	0.601452	-0.000038
C77	C	0.631019	0.703778	0.301495
C78	C	0.631020	0.601447	0.403825
C79	C	0.820280	0.703782	0.301484
C80	C	0.884515	0.601453	0.403811
C81	C	0.441752	1.306798	-0.301516
C82	C	0.377518	1.409128	-0.403843
C83	C	0.441755	1.306799	0.000000
C84	C	0.377522	1.409129	0.000006
C85	C	0.631014	1.306803	-0.301527
C86	C	0.631013	1.409134	-0.403857
C87	C	0.877718	0.553396	-0.058925
C88	C	0.938066	0.457260	-0.058953
C89	C	1.005207	0.409175	-0.000086
C90	C	1.011999	0.457240	0.058804
C91	C	0.951651	0.553381	0.058824
C92	C	0.951643	0.553399	0.392985
C93	C	1.012004	0.457263	0.489122
C94	C	1.005235	0.409177	0.596084
C95	C	0.938100	0.457241	0.606908
C96	C	0.877741	0.553381	0.510771
C97	C	0.310390	1.457193	-0.393017
C98	C	0.250029	1.553359	-0.489155
C99	C	0.256798	1.601450	-0.596116
C100	C	0.323933	1.553381	-0.606940
C101	C	0.384292	1.457223	-0.510803
C102	C	0.384315	1.457195	0.058883
C103	C	0.323966	1.553358	0.058884
C104	C	0.256826	1.601446	0.000014
C105	C	0.250034	1.553376	-0.058871
C106	C	0.310382	1.457221	-0.058878
C107	C	0.667977	0.553371	0.510774
C108	C	0.667970	0.457229	0.606921
C109	C	0.594047	0.457245	0.489153
C110	C	0.594051	0.553391	0.393010
H111	H	0.698067	0.418069	-0.106836
Cl112	Cl	0.165639	1.613764	-0.475522
Cl113	Cl	0.793353	0.613772	0.524400
H114	H	0.823054	0.592545	-0.106876
H115	H	0.957192	0.592496	0.106784
H116	H	0.329436	1.592549	-0.694039
H117	H	0.207643	1.679747	-0.674388
Cl118	Cl	0.714430	0.613804	-0.132939
H119	H	0.195367	1.218927	-0.106818
H120	H	0.932523	0.418136	-0.106908
H121	H	-0.042827	0.791653	0.106789
Cl122	Cl	1.096393	0.396855	0.475490
Cl123	Cl	0.301862	1.396755	-0.258562
Cl124	Cl	0.513043	1.005294	-0.608539
H125	H	0.304841	1.418089	-0.106820
H126	H	0.563974	0.418057	0.106829
Cl127	Cl	0.547606	0.613799	0.132908
Cl128	Cl	1.081123	0.288310	0.716932
Cl129	Cl	0.468679	1.396800	-0.524433
H130	H	0.438979	1.418049	0.106830
Cl131	Cl	0.126811	0.801662	0.222582
H132	H	0.329510	1.592480	0.106840
H133	H	0.207692	1.679741	0.000029
H134	H	1.054340	0.330890	-0.000111
Cl135	Cl	0.165623	1.613838	-0.132869
Cl136	Cl	0.714450	0.613784	0.524374
Cl137	Cl	0.714431	0.396798	0.741371
Cl138	Cl	0.547577	0.396821	0.475568
Cl139	Cl	0.547581	0.613841	0.258547
Cl140	Cl	0.135226	1.208915	-0.222634
H141	H	0.438963	0.791642	0.106790
Cl142	Cl	0.332471	0.739496	0.132862
H143	H	0.237129	0.841620	0.178912
Cl144	Cl	0.749007	1.005275	-0.608515
Cl145	Cl	0.513040	1.005279	-0.391518
Cl146	Cl	-0.000999	1.208927	-0.222638
Cl147	Cl	0.748992	1.005283	-0.391490
Cl148	Cl	0.960171	0.613839	0.258530
Cl149	Cl	0.096400	0.739494	0.132854
H150	H	-0.176935	1.218940	-0.106848
H151	H	1.066672	0.418076	0.106731
H152	H	0.932599	0.418074	0.694009
H153	H	0.304859	1.218938	-0.106803
H154	H	-0.067441	1.218940	-0.106843
