data_functionalizedCrystal
_audit_creation_method	'MofGen! by Chris Wilmer'
_symmetry_space_group_name_H-M	'P1'
_symmetry_Int_Tables_number	1
_symmetry_cell_setting	triclinic
loop_
_symmetry_equiv_pos_as_xyz
  x,y,z
_cell_length_a	17.638785
_cell_length_b	17.639556
_cell_length_c	17.640968
_cell_angle_alpha	70.348965
_cell_angle_beta	114.308072
_cell_angle_gamma	92.183189
loop_
_atom_site_label
_atom_site_type_symbol
_atom_site_fract_x
_atom_site_fract_y
_atom_site_fract_z
Zn1	Zn	-1.241883	-0.443285	-0.607992
Zn2	Zn	-1.174844	-0.597676	-0.431075
Zn3	Zn	-1.076221	-0.443244	-0.442396
Zn4	Zn	-1.076230	-0.553141	-0.552316
O5	O	-1.142295	-0.509336	-0.508445
O6	O	-1.343591	-0.482421	-0.603086
O7	O	-1.133701	-0.595811	-0.312535
O8	O	-1.126248	-0.332644	-0.492402
O9	O	-1.294338	-0.595851	-0.473106
O10	O	-1.247960	-0.332674	-0.614064
O11	O	-1.061243	-0.482350	-0.320852
O12	O	-0.965621	-0.439167	-0.438415
O13	O	-1.126265	-0.519948	-0.679744
O14	O	-0.965628	-0.519908	-0.519173
O15	O	-1.247969	-0.439237	-0.720649
O16	O	-1.133711	-0.702374	-0.419120
O17	O	-1.061260	-0.669654	-0.508195
C18	C	-0.936947	-0.474701	-0.473981
C19	C	-0.849099	-0.459899	-0.459253
C20	C	-0.560098	-0.621891	-0.620508
C21	C	-0.477548	-0.607979	-0.606648
C22	C	-0.477586	-0.523720	-0.522765
C23	C	-0.560137	-0.537628	-0.536613
C24	C	-0.601387	-0.586714	-0.585486
C25	C	-0.601425	-0.502451	-0.501592
C26	C	-0.683970	-0.516355	-0.515444
C27	C	-0.725227	-0.565436	-0.564317
C28	C	-0.683931	-0.600617	-0.599338
C29	C	-0.560176	-0.453361	-0.452725
C30	C	-0.601464	-0.418184	-0.417704
C31	C	-0.684009	-0.432092	-0.431550
C32	C	-0.725265	-0.481173	-0.480423
C33	C	-0.725304	-0.396910	-0.396528
C34	C	-0.807849	-0.410814	-0.410380
C35	C	-0.807810	-0.495076	-0.494274
C36	C	-1.090238	-0.714693	-0.456410
C37	C	-1.068047	-0.802554	-0.434189
C38	C	-1.194596	-0.474629	-0.732193
C39	C	-1.216884	-0.459839	-0.827540
C40	C	-0.348445	-0.544102	-0.543044
C41	C	-0.436297	-0.558902	-0.557789
C42	C	-1.194581	-0.303178	-0.560706
C43	C	-1.216862	-0.215326	-0.582977
C44	C	-1.311630	-0.091517	-0.677703
C45	C	-1.290686	-0.174068	-0.656769
C46	C	-1.163955	-0.174045	-0.530086
C47	C	-1.184891	-0.091493	-0.551006
C48	C	-1.258729	-0.050236	-0.624817
C49	C	-1.131990	-0.050212	-0.498120
C50	C	-1.152922	0.032333	-0.519042
C51	C	-1.226755	0.073597	-0.592850
C52	C	-1.279661	0.032309	-0.645738
C53	C	-1.058149	-0.091470	-0.424314
C54	C	-1.005248	-0.050189	-0.371428
C55	C	-1.026182	0.032356	-0.392346
C56	C	-1.100016	0.073620	-0.466154
C57	C	-0.973277	0.073644	-0.339457
C58	C	-0.994209	0.156189	-0.360379
C59	C	-1.120948	0.156165	-0.487076
C60	C	-0.973389	-0.621317	-1.034646
C61	C	-0.994351	-0.607412	-1.124245
C62	C	-1.121071	-0.523375	-1.166825
C63	C	-1.100118	-0.537270	-1.077228
C64	C	-1.026276	-0.586242	-1.011145
C65	C	-1.153005	-0.502195	-1.053727
C66	C	-1.132055	-0.516092	-0.964137
C67	C	-1.058218	-0.565064	-0.898049
C68	C	-1.005326	-0.600139	-0.921555
C69	C	-1.226849	-0.453227	-1.119812
C70	C	-1.279736	-0.418153	-1.096310
C71	C	-1.258783	-0.432045	-1.006720
C72	C	-1.184947	-0.481017	-0.940631
C73	C	-1.311675	-0.396970	-0.983214
C74	C	-1.290725	-0.410867	-0.893624
C75	C	-1.163997	-0.494914	-0.851042
C76	C	-1.090256	-0.543859	-0.285590
C77	C	-1.068178	-0.558453	-0.190325
H78	H	-0.841470	-0.382162	-0.381870
C79	C	-1.035172	-0.580350	-0.799497
N80	N	-1.017813	-0.591862	-0.725268
C81	C	-0.892088	0.028236	-0.258232
N82	N	-0.830948	-0.005971	-0.197037
C83	C	-0.924096	-0.654010	-0.848857
N84	N	-0.862917	-0.694587	-0.794102
H85	H	-1.243796	0.140810	-0.609883
C86	C	-0.432134	-0.646679	-0.645181
N87	N	-0.397930	-0.675825	-0.674206
C88	C	-0.605477	-0.675890	-0.674268
N89	N	-0.639657	-0.716557	-0.714761
H90	H	-1.333791	-0.382304	-0.874490
C91	C	-0.729310	-0.654616	-0.653098
N92	N	-0.763490	-0.695283	-0.693592
H93	H	-0.792442	-0.576750	-0.575599
H94	H	-0.913246	-0.661173	-0.980838
C95	C	-0.432202	-0.469728	-0.469006
N96	N	-0.398019	-0.429062	-0.428512
C97	C	-1.035122	-0.182271	-0.401305
N98	N	-1.017778	-0.250663	-0.383977
H99	H	-1.371760	-0.057926	-0.737801
C100	C	-1.360886	0.077697	-0.726935
N101	N	-1.422059	0.111885	-0.788092
H102	H	-0.567869	-0.378216	-0.377914
H103	H	-1.103835	-0.207647	-0.469991
H104	H	-1.333761	-0.207672	-0.699851
C105	C	-0.679921	-0.342912	-0.342777
N106	N	-0.645738	-0.302239	-0.302292
C107	C	-1.202173	0.201554	-0.568272
N108	N	-1.263346	0.235741	-0.629429
C109	C	-0.924065	-0.095598	-0.290193
N110	N	-0.862932	-0.129806	-0.228988
C111	C	-0.936020	0.201598	-0.302195
N112	N	-0.892191	0.235801	-0.258368
H113	H	-1.103853	-0.534770	-0.797233
C114	C	-0.936163	-0.645999	-1.150090
N115	N	-0.892337	-0.675062	-1.169557
C116	C	-1.202289	-0.469499	-1.239526
N117	N	-1.263461	-0.428914	-1.294285
C118	C	-1.360954	-0.364277	-1.169011
N119	N	-1.422126	-0.323691	-1.223770
H120	H	-1.243905	-0.441916	-1.192760
H121	H	-0.841396	-0.535051	-0.534066
H122	H	-0.492965	-0.442038	-0.441454
C123	C	-1.392898	-0.343101	-1.055916
N124	N	-1.454074	-0.302524	-1.110676
