data_functionalizedCrystal
_audit_creation_method	'MofGen! by Chris Wilmer'
_symmetry_space_group_name_H-M	'P1'
_symmetry_Int_Tables_number	1
_symmetry_cell_setting	triclinic
loop_
_symmetry_equiv_pos_as_xyz
  x,y,z
_cell_length_a	13.033409
_cell_length_b	13.032721
_cell_length_c	13.033255
_cell_angle_alpha	105.142687
_cell_angle_beta	90.884698
_cell_angle_gamma	89.138002
loop_
_atom_site_label
_atom_site_type_symbol
_atom_site_fract_x
_atom_site_fract_y
_atom_site_fract_z
Zn1	Zn	1.572121	-0.675985	-0.476599
Zn2	Zn	1.533721	-0.826746	-0.325883
Zn3	Zn	1.383107	-0.632209	-0.320370
Zn4	Zn	1.383069	-0.832271	-0.520447
O5	O	1.468005	-0.741803	-0.410825
O6	O	1.709178	-0.711991	-0.440562
O7	O	1.497687	-0.780308	-0.178344
O8	O	1.424267	-0.491196	-0.320436
O9	O	1.680966	-0.822755	-0.329832
O10	O	1.563135	-0.523357	-0.435217
O11	O	1.387032	-0.637383	-0.174294
O12	O	1.240951	-0.642740	-0.362954
O13	O	1.424201	-0.832171	-0.661438
O14	O	1.240923	-0.789724	-0.509950
O15	O	1.563097	-0.717349	-0.629223
O16	O	1.497650	-0.974300	-0.372350
O17	O	1.386966	-0.978359	-0.515295
C18	C	1.204079	-0.712082	-0.440613
C19	C	1.091170	-0.699397	-0.453385
C20	C	0.910172	-0.735322	-0.417380
C21	C	1.026868	-0.748436	-0.404175
C22	C	1.438167	-1.014404	-0.449199
C23	C	1.425499	-1.131040	-0.465640
C24	C	1.474675	-1.181010	-0.402285
C25	C	1.461583	-1.301559	-0.419276
C26	C	1.732961	-0.771640	-0.380921
C27	C	1.845870	-0.784355	-0.368178
C28	C	1.497928	-0.780259	-0.684461
C29	C	1.510680	-0.796647	-0.801068
C30	C	1.497989	-0.468143	-0.372321
C31	C	1.510766	-0.351525	-0.355912
C32	C	1.474801	-0.750173	-0.971575
C33	C	1.461613	-0.733231	-0.851056
C34	C	1.438264	-0.703427	-0.138236
C35	C	1.425741	-0.686766	-0.021565
H36	H	0.878830	-0.683639	-0.469285
O37	O	1.399773	-0.653624	-0.795595
C38	C	1.250680	-0.606791	-0.685318
C39	C	1.320642	-0.697042	-0.748065
H40	H	1.186674	-0.641863	-0.646891
H41	H	1.297689	-0.550024	-0.620970
H42	H	1.215844	-0.561669	-0.741711
H43	H	1.355494	-0.742245	-0.691755
H44	H	1.273585	-0.753736	-0.812425
H45	H	1.526561	-0.817004	-1.018001
H46	H	1.562452	-0.863477	-0.847487
H47	H	1.373972	-0.619941	-0.975141
O48	O	1.064415	-0.810030	-0.342256
C49	C	1.214961	-0.879345	-0.272731
C50	C	1.172577	-0.809542	-0.342862
H51	H	1.302414	-0.878991	-0.273216
H52	H	1.186992	-0.846585	-0.187863
H53	H	1.186841	-0.964206	-0.305259
H54	H	1.200678	-0.724666	-0.310429
H55	H	1.200538	-0.842389	-0.427721
O56	O	0.883200	-0.846182	-0.306399
C57	C	0.890691	-1.021009	-0.276589
C58	C	0.848369	-0.951115	-0.346658
H59	H	0.862529	-1.105856	-0.309098
H60	H	0.978148	-1.020693	-0.276988
H61	H	0.862667	-0.988193	-0.191750
H62	H	0.876315	-0.983879	-0.431528
H63	H	0.760914	-0.951433	-0.346168
O64	O	1.053917	-0.637588	-0.515223
C65	C	1.046322	-0.462733	-0.544960
C66	C	1.088600	-0.532613	-0.474856
H67	H	1.074328	-0.377842	-0.512337
H68	H	1.074399	-0.495415	-0.629798
H69	H	0.958868	-0.463201	-0.544604
H70	H	1.176053	-0.532174	-0.475123
H71	H	1.060444	-0.499908	-0.390052
H72	H	1.409791	-1.348021	-0.486104
O73	O	1.536537	-1.125755	-0.322541
C74	C	1.649699	-1.132825	-0.176521
C75	C	1.579694	-1.195530	-0.266809
H76	H	1.684594	-1.189208	-0.131422
H77	H	1.713652	-1.094223	-0.211489
H78	H	1.602613	-1.068594	-0.119761
H79	H	1.626693	-1.259811	-0.323601
H80	H	1.515738	-1.234056	-0.231766
O81	O	1.572637	-1.296277	-0.276168
C82	C	1.685811	-1.303356	-0.130158
C83	C	1.615795	-1.366056	-0.220440
H84	H	1.720707	-1.359742	-0.085063
H85	H	1.749763	-1.264759	-0.165133
H86	H	1.638732	-1.239123	-0.073393
H87	H	1.662787	-1.430340	-0.277237
H88	H	1.551841	-1.404578	-0.185391
O89	O	1.363713	-1.186614	-0.545280
C90	C	1.294415	-1.357453	-0.634897
C91	C	1.364401	-1.294644	-0.544647
H92	H	1.294964	-1.444810	-0.634430
H93	H	1.212772	-1.324310	-0.622666
H94	H	1.323756	-1.349741	-0.714466
H95	H	1.335152	-1.302329	-0.465039
H96	H	1.446031	-1.327802	-0.556971
