data_functionalizedCrystal
_audit_creation_method	'MofGen! by Chris Wilmer'
_symmetry_space_group_name_H-M	'P1'
_symmetry_Int_Tables_number	1
_symmetry_cell_setting	triclinic
loop_
_symmetry_equiv_pos_as_xyz
  x,y,z
_cell_length_a	27.732048
_cell_length_b	27.732025
_cell_length_c	26.210047
_cell_angle_alpha	89.981000
_cell_angle_beta	90.003465
_cell_angle_gamma	82.638061
loop_
_atom_site_label
_atom_site_type_symbol
_atom_site_fract_x
_atom_site_fract_y
_atom_site_fract_z
O1	O	0.640926	0.057511	0.042348
O2	O	0.500132	0.066256	0.042361
O3	O	0.574908	-0.008514	0.042370
O4	O	0.566151	0.132281	0.042339
O5	O	0.574893	-0.008502	-0.042488
O6	O	0.500118	0.066268	-0.042497
O7	O	0.640912	0.057522	-0.042510
Cu8	Cu	0.570514	0.061896	-0.050252
Cu9	Cu	0.570531	0.061882	0.050103
O10	O	0.566137	0.132293	-0.042519
C11	C	0.482118	0.066079	-0.000066
C12	C	0.428463	0.065526	-0.000060
C13	C	0.574719	-0.026515	-0.000054
C14	C	0.574170	-0.080171	-0.000039
C15	C	0.089645	0.106230	-0.000091
C16	C	-0.112014	0.104179	-0.000095
O17	O	-0.143273	0.141400	-0.000125
N18	N	-0.131135	0.059843	-0.000085
C19	C	-0.099836	0.016017	-0.000076
O20	O	-0.120726	-0.021740	-0.000073
C21	C	0.101822	0.018069	-0.000076
C22	C	0.120939	0.062407	-0.000081
C23	C	0.108763	0.150565	-0.000097
C24	C	0.159175	0.151077	-0.000093
C25	C	0.190469	0.107255	-0.000083
C26	C	0.171351	0.062920	-0.000077
C27	C	0.133119	-0.025757	-0.000072
C28	C	0.183537	-0.025240	-0.000073
C29	C	0.202654	0.019099	-0.000078
C30	C	0.253057	0.019609	-0.000064
N31	N	0.272177	0.063945	-0.000074
C32	C	0.240883	0.107768	-0.000084
C33	C	-0.205710	0.014943	-0.000076
C34	C	-0.256125	0.014430	-0.000075
C35	C	-0.268299	0.102592	-0.000094
C36	C	-0.217884	0.103105	-0.000092
C37	C	-0.186590	0.059279	-0.000086
C38	C	0.346752	0.108840	-0.000076
C39	C	0.397169	0.109348	-0.000070
C40	C	0.409339	0.021187	-0.000053
C41	C	0.358927	0.020678	-0.000056
C42	C	0.327634	0.064509	-0.000069
O43	O	0.284344	-0.017592	-0.000040
O44	O	0.261783	0.145519	-0.000099
C45	C	0.039233	0.105718	-0.000095
C46	C	0.020115	0.061383	-0.000089
C47	C	0.051410	0.017560	-0.000079
C48	C	-0.030299	0.060870	-0.000088
C49	C	-0.061593	0.104692	-0.000098
C50	C	-0.042473	0.149028	-0.000108
C51	C	0.007939	0.149540	-0.000104
C52	C	0.032289	-0.026776	-0.000069
C53	C	-0.018123	-0.027284	-0.000072
C54	C	-0.049417	0.016538	-0.000082
C55	C	0.570281	-0.463343	0.046188
C56	C	0.572334	-0.261683	0.046204
O57	O	0.572625	-0.235621	0.085544
N58	N	0.572582	-0.236456	-0.000051
C59	C	0.572321	-0.261646	-0.046313
O60	O	0.572585	-0.235562	-0.085655
C61	C	0.570272	-0.463305	-0.046329
C62	C	0.570019	-0.488530	-0.000071
C63	C	0.570028	-0.488567	0.092442
C64	C	0.569512	-0.538979	0.092437
C65	C	0.569250	-0.564166	0.046179
C66	C	0.569503	-0.538941	-0.000075
C67	C	0.570014	-0.488496	-0.092590
C68	C	0.569503	-0.538914	-0.092590
C69	C	0.569250	-0.564138	-0.046332
C70	C	0.568724	-0.614540	-0.046339
N71	N	0.568476	-0.639767	-0.000084
C72	C	0.568738	-0.614580	0.046175
C73	C	0.573396	-0.155772	-0.046301
C74	C	0.573907	-0.105358	-0.046298
C75	C	0.573921	-0.105398	0.046219
C76	C	0.573406	-0.155813	0.046215
C77	C	0.573147	-0.181000	-0.000047
C78	C	0.567655	-0.720448	0.046162
C79	C	0.567137	-0.770864	0.046153
C80	C	0.567126	-0.770819	-0.046364
C81	C	0.567641	-0.720408	-0.046355
C82	C	0.567907	-0.695223	-0.000088
O83	O	0.568438	-0.640634	-0.085658
O84	O	0.568485	-0.640675	0.085511
C85	C	0.570797	-0.412931	0.046192
C86	C	0.571050	-0.387707	-0.000062
C87	C	0.570787	-0.412894	-0.046320
C88	C	0.571561	-0.337292	-0.000058
C89	C	0.571824	-0.312105	0.046201
C90	C	0.571575	-0.337333	0.092455
C91	C	0.571060	-0.387744	0.092451
C92	C	0.571036	-0.387666	-0.092575
C93	C	0.571551	-0.337255	-0.092567
C94	C	0.571814	-0.312068	-0.046308
C95	C	0.658926	0.057700	-0.000082
C96	C	0.712581	0.058253	-0.000085
C97	C	0.566326	0.150294	-0.000094
C98	C	0.566874	0.203949	-0.000105
N99	N	0.570505	0.061906	-0.120836
C100	C	0.603638	0.028782	-0.473346
C101	C	0.603649	0.028775	-0.687005
O102	O	0.631801	0.000614	-0.714623
N103	N	0.570533	0.061872	-0.713730
C104	C	0.537411	0.094971	-0.687037
O105	O	0.509241	0.123118	-0.714671
C106	C	0.537398	0.094975	-0.473379
C107	C	0.570519	0.061879	-0.446657
C108	C	0.636756	-0.004312	-0.446624
C109	C	0.636754	-0.004308	-0.393212
C110	C	0.603635	0.028789	-0.366523
C111	C	0.570518	0.061883	-0.393245
C112	C	0.504274	0.128071	-0.446687
C113	C	0.504273	0.128068	-0.393269
C114	C	0.537394	0.094972	-0.366547
C115	C	0.537398	0.094984	-0.313145
N116	N	0.570513	0.061887	-0.286420
C117	C	0.603632	0.028789	-0.313109
C118	C	0.537421	0.094967	-0.799210
C119	C	0.537424	0.094967	-0.852624
C120	C	0.603661	0.028770	-0.852588
C121	C	0.603660	0.028773	-0.799173
C122	C	0.570536	0.061870	-0.772485
C123	C	0.603627	0.028800	-0.200941
C124	C	0.603624	0.028808	-0.147525
C125	C	0.537385	0.095003	-0.147565
C126	C	0.537390	0.094997	-0.200977
C127	C	0.570512	0.061891	-0.227663
O128	O	0.509257	0.123126	-0.285493
O129	O	0.631790	0.000639	-0.285466
C130	C	0.603639	0.028778	-0.526757
C131	C	0.570522	0.061871	-0.553480
C132	C	0.537403	0.094969	-0.526791
C133	C	0.570525	0.061871	-0.606894
C134	C	0.603644	0.028774	-0.633583
C135	C	0.636759	-0.004323	-0.606858
C136	C	0.636758	-0.004320	-0.553446
C137	C	0.504287	0.128066	-0.553516
C138	C	0.504292	0.128060	-0.606927
C139	C	0.537411	0.094962	-0.633616
N140	N	0.570543	0.061869	0.120687
H141	H	0.412731	0.145456	-0.000074
H142	H	0.510446	0.121920	-0.777484
Br143	Br	-0.191945	0.163280	-0.000099
H144	H	0.566910	-0.791335	-0.084026
Br145	Br	0.681708	-0.049239	-0.643089
Br146	Br	-0.163247	-0.044541	-0.000068
H147	H	0.321279	0.144531	-0.000088
Br148	Br	0.570679	-0.421841	-0.155361
H149	H	0.057765	-0.062462	-0.000062
H150	H	0.477322	0.155014	-0.628681
H151	H	0.510422	0.121952	-0.125827
H152	H	-0.033683	-0.063393	-0.000064
Br153	Br	0.107188	-0.085935	-0.000053
Br154	Br	-0.310780	0.162066	-0.000108
Br155	Br	0.459323	0.172989	-0.482942
Br156	Br	0.571888	-0.303027	-0.155352
Br157	Br	0.570386	-0.454394	0.155230
H158	H	-0.271685	-0.021675	-0.000063
Br159	Br	0.332981	-0.039496	-0.000051
H160	H	0.209014	-0.060929	-0.000069
Br161	Br	0.571931	-0.303140	0.155234
H162	H	0.510459	0.121921	-0.874378
Br163	Br	0.574238	-0.071129	-0.109079
Br164	Br	0.451819	-0.038284	-0.000041
H165	H	0.023499	0.185645	-0.000109
H166	H	0.510425	0.121951	-0.222735
Br167	Br	-0.084954	0.208501	-0.000117
Br168	Br	0.566790	-0.805093	0.108936
H169	H	0.174735	0.187182	-0.000097
H170	H	0.663728	-0.031269	-0.531693
H171	H	0.567872	-0.699949	0.083837
Br172	Br	0.569173	-0.573204	0.155219
H173	H	0.663723	-0.031259	-0.371458
H174	H	0.569293	-0.559418	-0.130263
Br175	Br	0.648611	-0.016145	-0.762913
H176	H	0.567829	-0.699866	-0.084022
Br177	Br	0.648578	-0.016109	-0.111261
H178	H	0.477317	0.155017	-0.531790
Br179	Br	0.681708	-0.049236	-0.482835
H180	H	0.573198	-0.176347	0.083882
H181	H	0.574131	-0.084882	0.083885
Br182	Br	0.648579	-0.016129	-0.237150
H183	H	0.570853	-0.408277	0.130119
H184	H	0.573186	-0.176275	-0.083976
H185	H	0.477298	0.155019	-0.371542
H186	H	0.570226	-0.467968	-0.130258
Br187	Br	0.066300	0.210047	-0.000110
H188	H	0.630629	0.001821	-0.874328
