data_functionalizedCrystal
_audit_creation_method	'MofGen! by Chris Wilmer'
_symmetry_space_group_name_H-M	'P1'
_symmetry_Int_Tables_number	1
_symmetry_cell_setting	triclinic
loop_
_symmetry_equiv_pos_as_xyz
  x,y,z
_cell_length_a	10.489741
_cell_length_b	8.965430
_cell_length_c	14.853567
_cell_angle_alpha	90.004215
_cell_angle_beta	95.912948
_cell_angle_gamma	90.001157
loop_
_atom_site_label
_atom_site_type_symbol
_atom_site_fract_x
_atom_site_fract_y
_atom_site_fract_z
O1	O	1.692626	0.123933	-0.127188
O2	O	1.321296	0.123955	-0.139128
O3	O	1.516880	0.123948	-0.001984
O4	O	1.497042	0.123940	-0.264332
O5	O	1.516863	-0.124131	-0.001993
O6	O	1.321280	-0.124124	-0.139137
O7	O	1.692609	-0.124146	-0.127197
Cu8	Cu	1.506943	-0.146786	-0.133168
Cu9	Cu	1.506962	0.146596	-0.133157
O10	O	1.497026	-0.124139	-0.264341
C11	C	1.273766	-0.000081	-0.138230
C12	C	1.132167	-0.000072	-0.135533
C13	C	1.065006	-0.000084	-0.048272
C14	C	0.972425	0.122228	-0.089489
C15	C	0.972443	-0.122359	-0.089518
C16	C	1.041451	0.122340	-0.176785
C17	C	1.041478	-0.122356	-0.176803
C18	C	0.948923	-0.000015	-0.218083
N19	N	1.506939	-0.353135	-0.133175
C20	C	1.416460	-0.450438	-0.196578
C21	C	1.531752	-0.549859	-0.214820
C22	C	1.391695	-0.549841	-0.114941
C23	C	1.622288	-0.450368	-0.151458
C24	C	1.482156	-0.450341	-0.051543
C25	C	1.597531	-0.549718	-0.069751
C26	C	1.740139	-0.000106	-0.128095
C27	C	1.881738	-0.000105	-0.130793
C28	C	1.515973	-0.000087	0.031605
C29	C	1.513279	-0.000074	0.131704
N30	N	1.506977	0.352945	-0.133143
C31	C	1.497933	-0.000100	-0.297930
C32	C	1.500626	-0.000104	-0.398029
C33	C	1.385712	-0.000095	0.544953
C34	C	1.618070	-0.000108	0.564931
C35	C	1.620602	-0.000100	0.470883
C36	C	1.505688	-0.000091	0.413866
C37	C	1.388241	-0.000091	0.450896
C38	C	1.738047	-0.000115	0.433846
C39	C	1.740585	-0.000108	0.339793
C40	C	1.625669	-0.000088	0.282773
C41	C	1.508217	-0.000087	0.319809
C42	C	1.393303	-0.000078	0.262791
C43	C	1.275850	-0.000065	0.299825
C44	C	1.273325	-0.000071	0.393877
C45	C	1.628193	-0.000083	0.188722
C46	C	1.395832	-0.000074	0.168735
H47	H	1.340015	-0.406847	-0.250246
H48	H	1.723822	-0.000103	0.158573
Cl49	Cl	1.088410	0.282173	-0.233739
Cl50	Cl	1.131393	-0.000067	0.228136
H51	H	1.302253	-0.000060	0.122316
Cl52	Cl	1.762525	-0.000144	0.636611
Cl53	Cl	1.882501	-0.000158	0.505527
H54	H	1.115501	0.000071	0.023462
Cl55	Cl	1.888237	-0.000099	0.293244
Cl56	Cl	1.125684	-0.000051	0.440440
H57	H	0.898693	0.000050	-0.289892
Cl58	Cl	0.925193	0.281887	-0.032482
H59	H	1.461133	-0.406594	0.017457
H60	H	1.719785	-0.406857	-0.166950
H61	H	1.072103	-0.225770	-0.213698
H62	H	1.294220	-0.593540	-0.099532
H63	H	0.941872	-0.225764	-0.052584
Cl64	Cl	1.564157	-0.617351	-0.321381
Cl65	Cl	1.715814	-0.616611	0.013056
Cl66	Cl	1.238064	-0.000064	0.591508
