data_functionalizedCrystal
_audit_creation_method	'MofGen! by Chris Wilmer'
_symmetry_space_group_name_H-M	'P1'
_symmetry_Int_Tables_number	1
_symmetry_cell_setting	triclinic
loop_
_symmetry_equiv_pos_as_xyz
  x,y,z
_cell_length_a	16.992694
_cell_length_b	13.596369
_cell_length_c	16.992695
_cell_angle_alpha	90.006189
_cell_angle_beta	90.668223
_cell_angle_gamma	89.999564
loop_
_atom_site_label
_atom_site_type_symbol
_atom_site_fract_x
_atom_site_fract_y
_atom_site_fract_z
O1	O	1.050851	0.081669	0.166918
O2	O	1.300851	0.331669	0.416918
O3	O	1.550851	0.581669	0.666918
O4	O	1.800851	0.831669	0.916918
O5	O	0.822451	0.081698	0.165087
O6	O	1.072451	0.331698	0.415087
O7	O	1.322451	0.581698	0.665087
O8	O	1.572451	0.831698	0.915087
O9	O	0.935736	0.081676	0.051802
O10	O	1.185736	0.331676	0.301802
O11	O	1.435736	0.581676	0.551802
O12	O	1.685736	0.831676	0.801802
O13	O	0.937567	0.081691	0.280202
O14	O	1.187567	0.331691	0.530202
O15	O	1.437567	0.581691	0.780202
O16	O	1.687567	0.831691	1.030202
O17	O	0.935723	-0.081907	0.051795
O18	O	1.185723	0.168093	0.301795
O19	O	1.435723	0.418093	0.551795
O20	O	1.685723	0.668093	0.801795
O21	O	0.822439	-0.081885	0.165080
O22	O	1.072439	0.168115	0.415080
O23	O	1.322439	0.418115	0.665080
O24	O	1.572439	0.668115	0.915080
O25	O	1.050839	-0.081914	0.166911
O26	O	1.300839	0.168086	0.416911
O27	O	1.550839	0.418086	0.666911
O28	O	1.800839	0.668086	0.916911
Zn29	Zn	0.936637	-0.107872	0.165994
Zn30	Zn	1.186637	0.142128	0.415994
Zn31	Zn	1.436637	0.392128	0.665994
Zn32	Zn	1.686637	0.642128	0.915994
Zn33	Zn	0.936653	0.107656	0.166003
Zn34	Zn	1.186653	0.357656	0.416003
Zn35	Zn	1.436653	0.607656	0.666003
Zn36	Zn	1.686653	0.857656	0.916003
O37	O	0.937555	-0.081892	0.280195
O38	O	1.187555	0.168108	0.530195
O39	O	1.437555	0.418108	0.780195
O40	O	1.687555	0.668108	1.030195
C41	C	0.793085	-0.000090	0.162727
C42	C	1.043085	0.249910	0.412727
C43	C	1.293085	0.499910	0.662727
C44	C	1.543085	0.749910	0.912727
C45	C	0.705600	-0.000079	0.155699
C46	C	0.955600	0.249921	0.405699
C47	C	1.205600	0.499921	0.655699
C48	C	1.455600	0.749921	0.905699
N49	N	0.936632	-0.254964	0.165988
N50	N	1.186632	-0.004964	0.415988
N51	N	1.436632	0.245036	0.665988
N52	N	1.686632	0.495036	0.915988
C53	C	0.659610	-0.000075	0.223517
C54	C	0.909610	0.249925	0.473517
C55	C	1.159610	0.499925	0.723517
C56	C	1.409610	0.749925	0.973517
C57	C	0.577409	-0.000089	0.216908
C58	C	0.827409	0.249911	0.466908
C59	C	1.077409	0.499911	0.716908
C60	C	1.327409	0.749911	0.966908
C61	C	0.541201	-0.000100	0.142480
C62	C	0.791201	0.249900	0.392480
C63	C	1.041201	0.499900	0.642480
C64	C	1.291201	0.749900	0.892480
C65	C	0.587198	-0.000107	0.074657
C66	C	0.837198	0.249893	0.324657
C67	C	1.087198	0.499893	0.574657
C68	C	1.337198	0.749893	0.824657
C69	C	0.669397	-0.000100	0.081267
C70	C	0.919397	0.249900	0.331267
C71	C	1.169397	0.499900	0.581267
C72	C	1.419397	0.749900	0.831267
C73	C	0.295886	-0.000128	0.115086
C74	C	0.545886	0.249872	0.365086
C75	C	0.795886	0.499872	0.615086
C76	C	1.045886	0.749872	0.865086
C77	C	0.213681	-0.000132	0.108481
C78	C	0.463681	0.249868	0.358481
C79	C	0.713681	0.499868	0.608481
C80	C	0.963681	0.749868	0.858481
C81	C	0.203898	-0.000116	0.250732
C82	C	0.453898	0.249884	0.500732
C83	C	0.703898	0.499884	0.750732
C84	C	0.953898	0.749884	1.000732
C85	C	0.286099	-0.000104	0.257335
C86	C	0.536099	0.249896	0.507335
C87	C	0.786099	0.499896	0.757335
C88	C	1.036099	0.749896	1.007335
C89	C	0.332089	-0.000115	0.189512
C90	C	0.582089	0.249885	0.439512
C91	C	0.832089	0.499885	0.689512
C92	C	1.082089	0.749885	0.939512
N93	N	0.457178	-0.000111	0.135723
N94	N	0.707178	0.249889	0.385723
N95	N	0.957178	0.499889	0.635723
N96	N	1.207178	0.749889	0.885723
N97	N	0.416110	-0.000111	0.196270
N98	N	0.666110	0.249889	0.446270
N99	N	0.916110	0.499889	0.696270
N100	N	1.166110	0.749889	0.946270
C101	C	0.936652	-0.656254	0.166004
C102	C	1.186652	-0.406254	0.416004
C103	C	1.436652	-0.156254	0.666004
C104	C	1.686652	0.093746	0.916004
C105	C	0.936644	-0.544603	0.166002
C106	C	1.186644	-0.294603	0.416002
C107	C	1.436644	-0.044603	0.666002
C108	C	1.686644	0.205397	0.916002
C109	C	0.936642	-0.455613	0.165997
C110	C	1.186642	-0.205613	0.415997
C111	C	1.436642	0.044387	0.665997
C112	C	1.686642	0.294387	0.915997
C113	C	0.936634	-0.343954	0.165993
C114	C	1.186634	-0.093954	0.415993
C115	C	1.436634	0.156046	0.665993
C116	C	1.686634	0.406046	0.915993
C117	C	1.080205	-0.000124	0.169270
C118	C	1.330205	0.249876	0.419270
C119	C	1.580205	0.499876	0.669270
C120	C	1.830205	0.749876	0.919270
C121	C	1.167690	-0.000128	0.176299
C122	C	1.417690	0.249872	0.426299
C123	C	1.667690	0.499872	0.676299
C124	C	1.917690	0.749872	0.926299
C125	C	0.933374	-0.000115	0.022439
C126	C	1.183374	0.249885	0.272439
C127	C	1.433374	0.499885	0.522439
C128	C	1.683374	0.749885	0.772439
C129	C	0.926345	-0.000114	-0.065046
C130	C	1.176345	0.249886	0.184954
C131	C	1.426345	0.499886	0.434954
C132	C	1.676345	0.749886	0.684954
N133	N	0.936665	0.254748	0.166004
N134	N	1.186665	0.504748	0.416004
N135	N	1.436665	0.754748	0.666004
N136	N	1.686665	1.004748	0.916004
C137	C	0.994163	-0.000124	-0.111037
C138	C	1.244163	0.249876	0.138963
C139	C	1.494163	0.499876	0.388963
C140	C	1.744163	0.749876	0.638963
C141	C	0.987554	-0.000114	-0.193238
C142	C	1.237554	0.249886	0.056762
C143	C	1.487554	0.499886	0.306762
C144	C	1.737554	0.749886	0.556762
C145	C	0.913127	-0.000101	-0.229446
C146	C	1.163127	0.249899	0.020554
C147	C	1.413127	0.499899	0.270554
C148	C	1.663127	0.749899	0.520554
C149	C	0.845303	-0.000088	-0.183449
C150	C	1.095303	0.249912	0.066551
C151	C	1.345303	0.499912	0.316551
C152	C	1.595303	0.749912	0.566551
C153	C	0.851913	-0.000091	-0.101250
C154	C	1.101913	0.249909	0.148750
C155	C	1.351913	0.499909	0.398750
C156	C	1.601913	0.749909	0.648750
C157	C	0.885732	-0.000084	-0.474760
C158	C	1.135732	0.249916	-0.224760
C159	C	1.385732	0.499916	0.025240
C160	C	1.635732	0.749916	0.275240
C161	C	0.879127	-0.000084	-0.556966
C162	C	1.129127	0.249916	-0.306966
C163	C	1.379127	0.499916	-0.056966
C164	C	1.629127	0.749916	0.193034
C165	C	1.021379	-0.000107	-0.566749
C166	C	1.271379	0.249893	-0.316749
C167	C	1.521379	0.499893	-0.066749
C168	C	1.771379	0.749893	0.183251
C169	C	1.027982	-0.000116	-0.484547
C170	C	1.277982	0.249884	-0.234547
C171	C	1.527982	0.499884	0.015453
C172	C	1.777982	0.749884	0.265453
C173	C	0.960159	-0.000098	-0.438558
C174	C	1.210159	0.249902	-0.188558
C175	C	1.460159	0.499902	0.061442
C176	C	1.710159	0.749902	0.311442
N177	N	0.906369	-0.000093	-0.313468
N178	N	1.156369	0.249907	-0.063468
N179	N	1.406369	0.499907	0.186532
N180	N	1.656369	0.749907	0.436532
N181	N	0.966917	-0.000099	-0.354537
N182	N	1.216917	0.249901	-0.104537
N183	N	1.466917	0.499901	0.145463
N184	N	1.716917	0.749901	0.395463
C185	C	0.939917	-0.000098	0.309559
C186	C	1.189917	0.249902	0.559559
C187	C	1.439917	0.499902	0.809559
C188	C	1.689917	0.749902	1.059559
C189	C	0.946945	-0.000093	0.397044
C190	C	1.196945	0.249907	0.647044
C191	C	1.446945	0.499907	0.897044
C192	C	1.696945	0.749907	1.147044
H193	H	0.689084	-0.000066	0.284124
H194	H	0.939084	0.249934	0.534124
H195	H	1.189084	0.499934	0.784124
H196	H	1.439084	0.749934	1.034124
Cl197	Cl	0.168163	-0.000168	0.014908
Cl198	Cl	0.418163	0.249832	0.264908
Cl199	Cl	0.668163	0.499832	0.514908
Cl200	Cl	0.918163	0.749832	0.764908
Cl201	Cl	0.146078	-0.000105	0.335990
Cl202	Cl	0.396078	0.249895	0.585990
Cl203	Cl	0.646078	0.499895	0.835990
Cl204	Cl	0.896078	0.749895	1.085990
Cl205	Cl	0.353691	-0.000142	0.029821
Cl206	Cl	0.603691	0.249858	0.279821
Cl207	Cl	0.853691	0.499858	0.529821
Cl208	Cl	1.103691	0.749858	0.779821
H209	H	0.557710	-0.000129	0.014056
H210	H	0.807710	0.249871	0.264056
H211	H	1.057710	0.499871	0.514056
H212	H	1.307710	0.749871	0.764056
H213	H	1.076596	-0.000120	-0.604202
H214	H	1.326596	0.249880	-0.354202
H215	H	1.576596	0.499880	-0.104202
H216	H	1.826596	0.749880	0.145798
Cl217	Cl	0.727214	-0.000109	-0.003994
Cl218	Cl	0.977214	0.249891	0.246006
Cl219	Cl	1.227214	0.499891	0.496006
Cl220	Cl	1.477214	0.749891	0.746006
H221	H	0.539966	-0.000085	0.272133
H222	H	0.789966	0.249915	0.522133
H223	H	1.039966	0.499915	0.772133
H224	H	1.289966	0.749915	1.022133
H225	H	0.315574	-0.000083	0.317942
H226	H	0.565574	0.249917	0.567942
H227	H	0.815574	0.499917	0.817942
H228	H	1.065574	0.749917	1.067942
H229	H	1.054770	-0.000140	-0.081563
H230	H	1.304770	0.249860	0.168437
H231	H	1.554770	0.499860	0.418437
H232	H	1.804770	0.749860	0.668437
Cl233	Cl	1.072816	-0.000129	-0.251052
Cl234	Cl	1.322816	0.249871	-0.001052
Cl235	Cl	1.572816	0.499871	0.248948
Cl236	Cl	1.822816	0.749871	0.498948
Cl237	Cl	1.121552	-0.000100	-0.439035
Cl238	Cl	1.371552	0.249900	-0.189035
Cl239	Cl	1.621552	0.499900	0.060965
Cl240	Cl	1.871552	0.749900	0.310965
H241	H	0.818516	-0.000089	-0.586443
H242	H	1.068516	0.249911	-0.336443
H243	H	1.318516	0.499911	-0.086443
H244	H	1.568516	0.749911	0.163557
Cl245	Cl	0.800468	-0.000059	-0.416955
Cl246	Cl	1.050468	0.249941	-0.166955
Cl247	Cl	1.300468	0.499941	0.083045
Cl248	Cl	1.550468	0.749941	0.333045
H249	H	0.784703	-0.000072	-0.212936
H250	H	1.034703	0.249928	0.037064
H251	H	1.284703	0.499928	0.287064
H252	H	1.534703	0.749928	0.537064
H253	H	0.796688	-0.000083	-0.063804
H254	H	1.046688	0.249917	0.186196
H255	H	1.296688	0.499917	0.436196
H256	H	1.546688	0.749917	0.686196
