data_functionalizedCrystal
_audit_creation_method	'MofGen! by Chris Wilmer'
_symmetry_space_group_name_H-M	'P1'
_symmetry_Int_Tables_number	1
_symmetry_cell_setting	triclinic
loop_
_symmetry_equiv_pos_as_xyz
  x,y,z
_cell_length_a	16.120530
_cell_length_b	12.645330
_cell_length_c	16.120256
_cell_angle_alpha	92.876632
_cell_angle_beta	90.128265
_cell_angle_gamma	87.108294
loop_
_atom_site_label
_atom_site_type_symbol
_atom_site_fract_x
_atom_site_fract_y
_atom_site_fract_z
Zn1	Zn	1.247519	-0.537103	-0.534584
Zn2	Zn	1.747519	-0.037103	-0.034584
Zn3	Zn	1.254495	-0.705860	-0.395531
Zn4	Zn	1.754495	-0.205860	0.104469
Zn5	Zn	1.115507	-0.519184	-0.388501
Zn6	Zn	1.615507	-0.019184	0.111499
Zn7	Zn	1.108451	-0.704889	-0.527501
Zn8	Zn	1.608451	-0.204889	-0.027501
O9	O	1.181493	-0.616759	-0.461529
O10	O	1.681493	-0.116759	0.038471
O11	O	1.364812	-0.567395	-0.522044
O12	O	1.864812	-0.067395	-0.022044
O13	O	1.241930	-0.674004	-0.278232
O14	O	1.741930	-0.174004	0.221768
O15	O	1.133052	-0.373217	-0.407901
O16	O	1.633052	0.126783	0.092099
O17	O	1.369937	-0.691380	-0.419883
O18	O	1.869937	-0.191380	0.080117
O19	O	1.230041	-0.386383	-0.515228
O20	O	1.730041	0.113617	-0.015228
O21	O	1.139816	-0.536854	-0.273067
O22	O	1.639816	-0.036854	0.226933
O23	O	0.998204	-0.535912	-0.401033
O24	O	1.498204	-0.035912	0.098967
O25	O	1.121026	-0.689725	-0.644806
O26	O	1.621026	-0.189725	-0.144806
O27	O	0.993020	-0.672349	-0.503155
O28	O	1.493020	-0.172349	-0.003155
O29	O	1.223199	-0.566453	-0.650010
O30	O	1.723199	-0.066453	-0.150010
O31	O	1.235088	-0.854075	-0.413015
O32	O	1.735088	-0.354075	0.086985
O33	O	1.127790	-0.853361	-0.509972
O34	O	1.627790	-0.353361	-0.009972
C35	C	0.965439	-0.602081	-0.450563
C36	C	1.465439	-0.102081	0.049437
C37	C	0.873009	-0.595829	-0.445892
C38	C	1.373009	-0.095829	0.054108
C39	C	0.703778	-0.584389	-0.437370
C40	C	1.203778	-0.084389	0.062630
C41	C	0.660046	-0.649211	-0.485749
C42	C	1.160046	-0.149211	0.014251
C43	C	0.565880	-0.642845	-0.481007
C44	C	1.065880	-0.142845	0.018993
C45	C	0.797952	-0.590753	-0.442110
C46	C	1.297952	-0.090753	0.057890
C47	C	1.181452	-0.892185	-0.461507
C48	C	1.681452	-0.392185	0.038493
C49	C	1.181510	-1.010020	-0.461529
C50	C	1.681510	-0.510020	0.038471
C51	C	1.248914	-1.177974	-0.400398
C52	C	1.748914	-0.677974	0.099602
C53	C	1.249115	-1.055437	-0.400566
C54	C	1.749115	-0.555437	0.099434
C55	C	1.200830	-1.061389	-0.550386
C56	C	1.700830	-0.561389	-0.050386
C57	C	1.201356	-1.184000	-0.550071
C58	C	1.701356	-0.684000	-0.050071
C59	C	1.094716	-1.170009	-0.434667
C60	C	1.594716	-0.670009	0.065333
C61	C	1.095237	-1.047312	-0.432722
C62	C	1.595237	-0.547312	0.067278
C63	C	1.398391	-0.631495	-0.472538
C64	C	1.898391	-0.131495	0.027462
C65	C	1.490820	-0.637774	-0.477229
C66	C	1.990820	-0.137774	0.022771
C67	C	1.170548	-0.629980	-0.678424
C68	C	1.670548	-0.129980	-0.178424
C69	C	1.165883	-0.635614	-0.770852
C70	C	1.665883	-0.135614	-0.270852
C71	C	1.181556	-0.340260	-0.461570
C72	C	1.681556	0.159740	0.038430
C73	C	1.181582	-0.222433	-0.461588
C74	C	1.681582	0.277567	0.038412
C75	C	1.205815	-0.587352	-0.983835
C76	C	1.705815	-0.087352	-0.483835
C77	C	1.157340	-0.645854	-0.940073
C78	C	1.657340	-0.145854	-0.440073
C79	C	1.162095	-0.640154	-0.845910
C80	C	1.662095	-0.140154	-0.345910
C81	C	1.201061	-0.593050	-1.078006
C82	C	1.701061	-0.093050	-0.578006
C83	C	1.192444	-0.603517	-0.245480
C84	C	1.692444	-0.103517	0.254520
C85	C	1.197269	-0.597595	-0.153060
C86	C	1.697269	-0.097595	0.346940
H87	H	0.693327	-0.709485	-0.530729
H88	H	1.193327	-0.209485	-0.030729
N89	N	1.100793	-0.714068	-0.981764
N90	N	1.600793	-0.214068	-0.481764
N91	N	1.024538	-0.701270	-0.968237
N92	N	1.524538	-0.201270	-0.468237
H93	H	0.984605	-0.749450	-0.997683
H94	H	1.484605	-0.249450	-0.497683
N95	N	0.662048	-0.508784	-0.380931
N96	N	1.162048	-0.008784	0.119069
N97	N	0.703106	-0.447839	-0.335435
N98	N	1.203106	0.052161	0.164565
H99	H	0.673627	-0.394445	-0.295573
H100	H	1.173627	0.105555	0.204427
N101	N	1.140960	-1.024769	-0.609372
N102	N	1.640960	-0.524769	-0.109372
N103	N	1.146360	-1.057289	-0.683771
N104	N	1.646360	-0.557289	-0.183771
H105	H	1.104077	-1.031424	-0.725430
H106	H	1.604077	-0.531424	-0.225430
N107	N	1.262350	-0.519158	-0.942114
N108	N	1.762350	-0.019158	-0.442114
N109	N	1.266177	-0.514573	-0.864571
N110	N	1.766177	-0.014573	-0.364571
H111	H	1.306105	-0.466414	-0.835096
H112	H	1.806105	0.033586	-0.335096
H113	H	1.263450	-1.036101	-0.572953
H114	H	1.763450	-0.536101	-0.072953
N115	N	1.234592	-1.011542	-0.318086
N116	N	1.734592	-0.511542	0.181914
N117	N	1.224238	-1.071406	-0.259994
N118	N	1.724238	-0.571406	0.240006
H119	H	1.213984	-1.040411	-0.201738
H120	H	1.713984	-0.540411	0.298262
H121	H	1.237537	-1.202534	-0.334470
H122	H	1.737537	-0.702534	0.165530
H123	H	1.313002	-1.214003	-0.418373
H124	H	1.813002	-0.714003	0.081627
H125	H	1.076289	-1.195701	-0.370769
H126	H	1.576289	-0.695701	0.129231
N127	N	1.329944	-1.025242	-0.423345
N128	N	1.829944	-0.525242	0.076655
N129	N	1.386381	-1.094711	-0.439175
N130	N	1.886381	-0.594711	0.060825
H131	H	1.443470	-1.073389	-0.455265
H132	H	1.943470	-0.573389	0.044735
N133	N	1.142198	-1.221252	-0.609503
N134	N	1.642198	-0.721252	-0.109503
N135	N	1.067241	-1.191942	-0.602186
N136	N	1.567241	-0.691942	-0.102186
H137	H	1.025463	-1.218249	-0.644161
H138	H	1.525463	-0.718249	-0.144161
N139	N	1.280845	-1.226698	-0.578030
N140	N	1.780845	-0.726698	-0.078030
N141	N	1.335548	-1.165910	-0.597638
N142	N	1.835548	-0.665910	-0.097638
H143	H	1.391690	-1.196060	-0.617384
H144	H	1.891690	-0.696060	-0.117384
H145	H	1.042724	-1.015952	-0.473664
H146	H	1.542724	-0.515952	0.026336
N147	N	1.076870	-1.004452	-0.350660
N148	N	1.576870	-0.504452	0.149340
N149	N	1.127089	-0.946647	-0.313481
N150	N	1.627089	-0.446647	0.186519
H151	H	1.114121	-0.916372	-0.255523
H152	H	1.614121	-0.416372	0.244477
H153	H	1.044603	-1.198656	-0.479179
H154	H	1.544603	-0.698656	0.020821
