data_functionalizedCrystal
_audit_creation_method	'MofGen! by Chris Wilmer'
_symmetry_space_group_name_H-M	'P1'
_symmetry_Int_Tables_number	1
_symmetry_cell_setting	triclinic
loop_
_symmetry_equiv_pos_as_xyz
  x,y,z
_cell_length_a	14.044191
_cell_length_b	13.101039
_cell_length_c	16.109301
_cell_angle_alpha	93.366104
_cell_angle_beta	91.673371
_cell_angle_gamma	93.669281
loop_
_atom_site_label
_atom_site_type_symbol
_atom_site_fract_x
_atom_site_fract_y
_atom_site_fract_z
O1	O	1.252419	-0.085172	-0.204657
O2	O	1.752419	0.414828	0.295343
O3	O	0.976450	-0.085185	-0.197419
O4	O	1.476450	0.414815	0.302581
O5	O	1.122016	-0.085168	-0.080571
O6	O	1.622016	0.414832	0.419429
O7	O	1.106853	-0.085189	-0.321505
O8	O	1.606853	0.414811	0.178495
O9	O	1.132465	0.085264	-0.072176
O10	O	1.632465	0.585264	0.427824
O11	O	0.986899	0.085246	-0.189024
O12	O	1.486899	0.585246	0.310976
O13	O	1.262867	0.085259	-0.196263
O14	O	1.762867	0.585259	0.303737
Zn15	Zn	1.126542	0.112312	-0.191311
Zn16	Zn	1.626542	0.612312	0.308689
Zn17	Zn	1.112775	-0.112238	-0.202371
Zn18	Zn	1.612775	0.387762	0.297629
O19	O	1.117301	0.085242	-0.313111
O20	O	1.617301	0.585242	0.186889
C21	C	0.946361	0.000029	-0.190055
C22	C	1.446361	0.500029	0.309945
C23	C	0.841138	0.000025	-0.180609
C24	C	1.341138	0.500025	0.319391
C25	C	0.590836	0.000031	-0.230333
C26	C	1.090836	0.500031	0.269667
C27	C	0.648486	0.000035	-0.163352
C28	C	1.148486	0.500035	0.336648
C29	C	0.755687	0.000029	-0.172956
C30	C	1.255687	0.500029	0.327044
C31	C	0.483625	0.000036	-0.220731
C32	C	0.983625	0.500036	0.279269
N33	N	1.103381	-0.265488	-0.209913
N34	N	1.603381	0.234512	0.290087
C35	C	1.090590	-0.474532	-0.220174
C36	C	1.590590	0.025468	0.279826
C37	C	1.148732	-0.525400	-0.173504
C38	C	1.648732	-0.025400	0.326496
C39	C	1.141615	-0.641720	-0.179213
C40	C	1.641615	-0.141720	0.320787
C41	C	1.097706	-0.358202	-0.214466
C42	C	1.597706	0.141798	0.285534
C43	C	1.292956	0.000043	-0.203627
C44	C	1.792956	0.500043	0.296373
C45	C	1.398179	0.000041	-0.213073
C46	C	1.898179	0.500041	0.286927
C47	C	1.126626	0.000049	-0.045353
C48	C	1.626626	0.500049	0.454647
C49	C	1.124785	0.000050	0.047079
C50	C	1.624785	0.500050	0.547079
N51	N	1.135944	0.265562	-0.183762
N52	N	1.635944	0.765562	0.316238
C53	C	1.112691	0.000024	-0.348329
C54	C	1.612691	0.500024	0.151671
C55	C	1.114532	0.000016	-0.440762
C56	C	1.614532	0.500016	0.059238
C57	C	1.206878	0.000037	0.263242
C58	C	1.706878	0.500037	0.763242
C59	C	1.205140	0.000029	0.350091
C60	C	1.705140	0.500029	0.850091
C61	C	1.032432	0.000025	0.343070
C62	C	1.532432	0.500025	0.843070
C63	C	1.034171	0.000026	0.256222
C64	C	1.534171	0.500026	0.756222
C65	C	1.121397	0.000038	0.216310
C66	C	1.621397	0.500038	0.716310
C67	C	1.117920	0.000028	0.390008
C68	C	1.617920	0.500028	0.890008
C69	C	1.116035	0.000019	0.484173
C70	C	1.616035	0.500019	0.984173
C71	C	1.123282	0.000045	0.122138
C72	C	1.623282	0.500045	0.622138
H73	H	0.617327	-0.000031	-0.098799
H74	H	1.117327	0.499969	0.401201
O75	O	0.941964	0.000033	0.205602
O76	O	1.441964	0.500033	0.705602
H77	H	0.934359	-0.069436	0.162445
H78	H	1.434359	0.430564	0.662445
O79	O	1.221751	-0.467375	-0.114901
O80	O	1.721751	0.032625	0.385099
H81	H	1.263252	-0.522586	-0.081598
H82	H	1.763252	-0.022586	0.418402
O83	O	1.300951	0.000029	0.220189
O84	O	1.800951	0.500029	0.720189
H85	H	1.360098	0.000014	0.267417
H86	H	1.860098	0.500014	0.767417
O87	O	1.297337	0.000042	0.400714
O88	O	1.797337	0.500042	0.900714
H89	H	1.358279	0.000060	0.358367
H90	H	1.858279	0.500060	0.858367
H91	H	0.621989	0.000022	-0.294885
H92	H	1.121989	0.500022	0.205115
H93	H	1.035472	-0.518335	-0.264414
H94	H	1.535472	-0.018335	0.235586
O95	O	0.938356	0.000035	0.386117
O96	O	1.438356	0.500035	0.886117
H97	H	0.951507	0.000049	0.454393
H98	H	1.451507	0.500049	0.954393
