data_functionalizedCrystal
_audit_creation_method	'MofGen! by Chris Wilmer'
_symmetry_space_group_name_H-M	'P1'
_symmetry_Int_Tables_number	1
_symmetry_cell_setting	triclinic
loop_
_symmetry_equiv_pos_as_xyz
  x,y,z
_cell_length_a	18.215407
_cell_length_b	18.215405
_cell_length_c	18.215399
_cell_angle_alpha	90.030551
_cell_angle_beta	89.980167
_cell_angle_gamma	89.974667
loop_
_atom_site_label
_atom_site_type_symbol
_atom_site_fract_x
_atom_site_fract_y
_atom_site_fract_z
Zn1	Zn	1.125072	0.292983	-0.416103
Zn2	Zn	1.625072	0.792983	0.083897
Zn3	Zn	1.124980	0.416054	-0.293031
Zn4	Zn	1.624980	0.916054	0.206969
Zn5	Zn	1.002005	0.293007	-0.293050
Zn6	Zn	1.502005	0.793007	0.206950
Zn7	Zn	1.001970	0.416013	-0.416056
Zn8	Zn	1.501970	0.916013	0.083944
O9	O	1.063507	0.354514	-0.354560
O10	O	1.563507	0.854514	0.145440
O11	O	1.228044	0.309316	-0.399788
O12	O	1.728044	0.809316	0.100212
O13	O	1.108643	0.399759	-0.190049
O14	O	1.608643	0.899759	0.309951
O15	O	1.018382	0.190020	-0.309401
O16	O	1.518382	0.690020	0.190599
O17	O	1.227977	0.399736	-0.309368
O18	O	1.727977	0.899736	0.190632
O19	O	1.108799	0.190002	-0.399807
O20	O	1.608799	0.690002	0.100193
O21	O	1.018293	0.309357	-0.190063
O22	O	1.518293	0.809357	0.309937
O23	O	0.899016	0.309317	-0.309355
O24	O	1.399016	0.809317	0.190645
O25	O	1.018324	0.399666	-0.519046
O26	O	1.518324	0.899666	-0.019046
O27	O	0.898991	0.399689	-0.399727
O28	O	1.398991	0.899689	0.100273
O29	O	1.108766	0.309276	-0.519081
O30	O	1.608766	0.809276	-0.019081
O31	O	1.108610	0.519033	-0.309322
O32	O	1.608610	1.019033	0.190678
O33	O	1.018235	0.519003	-0.399708
O34	O	1.518235	1.019003	0.100292
C35	C	0.872301	0.354502	-0.354539
C36	C	1.372301	0.854502	0.145461
C37	C	0.790502	0.354514	-0.354547
C38	C	1.290502	0.854514	0.145453
C39	C	1.063429	0.545721	-0.354524
C40	C	1.563429	1.045721	0.145476
C41	C	1.063463	0.627520	-0.354534
C42	C	1.563463	1.127520	0.145466
C43	C	1.063552	0.354464	-0.546513
C44	C	1.563552	0.854464	-0.046513
C45	C	1.063571	0.354442	-0.628312
C46	C	1.563571	0.854442	-0.128312
C47	C	0.602314	0.401645	-0.401544
C48	C	1.102314	0.901645	0.098456
C49	C	0.525455	0.401647	-0.401554
C50	C	1.025455	0.901647	0.098446
C51	C	0.525452	0.307397	-0.307591
C52	C	1.025452	0.807397	0.192409
C53	C	0.602309	0.307392	-0.307586
C54	C	1.102309	0.807392	0.192414
C55	C	0.640738	0.354520	-0.354562
C56	C	1.140738	0.854520	0.145438
C57	C	0.487022	0.354528	-0.354576
C58	C	0.987022	0.854528	0.145424
C59	C	0.403688	0.354530	-0.354585
C60	C	0.903688	0.854530	0.145415
C61	C	0.724077	0.354517	-0.354553
C62	C	1.224077	0.854517	0.145447
C63	C	1.255460	0.354528	-0.354581
C64	C	1.755460	0.854528	0.145419
C65	C	1.337259	0.354533	-0.354591
C66	C	1.837259	0.854533	0.145409
C67	C	1.063605	0.162561	-0.354611
C68	C	1.563605	0.662561	0.145389
C69	C	1.063647	0.080763	-0.354633
C70	C	1.563647	0.580763	0.145367
C71	C	1.110632	0.815705	-0.307556
C72	C	1.610632	1.315705	0.192444
C73	C	1.110665	0.892563	-0.307574
C74	C	1.610665	1.392563	0.192426
C75	C	1.016476	0.892572	-0.401616
C76	C	1.516476	1.392572	0.098384
C77	C	1.016447	0.815715	-0.401601
C78	C	1.516447	1.315715	0.098399
C79	C	1.063524	0.777283	-0.354567
C80	C	1.563524	1.277283	0.145433
C81	C	1.063586	0.930999	-0.354600
C82	C	1.563586	1.430999	0.145400
C83	C	1.063621	1.014333	-0.354619
C84	C	1.563621	1.514333	0.145381
C85	C	1.063490	0.693944	-0.354548
C86	C	1.563490	1.193944	0.145452
C87	C	1.110681	0.307332	-0.816525
C88	C	1.610681	0.807332	-0.316525
C89	C	1.110690	0.307311	-0.893384
C90	C	1.610690	0.807311	-0.393384
C91	C	1.016513	0.401438	-0.893336
C92	C	1.516513	0.901438	-0.393336
C93	C	1.016501	0.401455	-0.816479
C94	C	1.516501	0.901455	-0.316479
C95	C	1.063589	0.354403	-0.778075
C96	C	1.563589	0.854403	-0.278075
C97	C	1.063610	0.354365	-0.931791
C98	C	1.563610	0.854365	-0.431791
C99	C	1.063619	0.354342	-1.015125
C100	C	1.563619	0.854342	-0.515125
C101	C	1.063579	0.354425	-0.694736
C102	C	1.563579	0.854425	-0.194736
C103	C	1.063504	0.354512	-0.163353
C104	C	1.563504	0.854512	0.336647
C105	C	1.063628	0.354326	-0.081555
C106	C	1.563628	0.854326	0.418445
H107	H	0.633601	0.440018	-0.439797
H108	H	1.133601	0.940018	0.060203
H109	H	0.494153	0.269028	-0.269344
H110	H	0.994153	0.769028	0.230656
H111	H	0.978177	0.439748	-0.924614
H112	H	1.478177	0.939748	-0.424614
O113	O	0.488244	0.447496	-0.447215
O114	O	0.988244	0.947496	0.052785
C115	C	0.538647	0.489073	-0.488687
C116	C	1.038647	0.989073	0.011313
H117	H	0.593418	0.491580	-0.458532
H118	H	1.093418	0.991580	0.041468
H119	H	0.546857	0.462194	-0.544627
H120	H	1.046857	0.962194	-0.044627
C121	C	0.441354	0.564335	-0.536192
C122	C	0.941354	1.064335	-0.036192
C123	C	0.508624	0.567419	-0.499152
C124	C	1.008624	1.067419	0.000848
H125	H	0.422834	0.612661	-0.542651
H126	H	0.922834	1.112661	-0.042651
H127	H	0.407396	0.536322	-0.508254
H128	H	0.907396	1.036322	-0.008254
H129	H	0.448205	0.541933	-0.582805
H130	H	0.948205	1.041933	-0.082805
H131	H	0.501770	0.589812	-0.452537
H132	H	1.001770	1.089812	0.047463
H133	H	0.542580	0.595438	-0.527083
H134	H	1.042580	1.095438	-0.027083
H135	H	0.978086	0.784430	-0.439887
H136	H	1.478086	1.284430	0.060113
O137	O	1.156312	0.261584	-0.779139
O138	O	1.656312	0.761584	-0.279139
C139	C	1.114424	0.214050	-0.734704
C140	C	1.614424	0.714050	-0.234704
H141	H	1.058641	0.240011	-0.723169
H142	H	1.558641	0.740011	-0.223169
H143	H	1.106363	0.159508	-0.764343
H144	H	1.606363	0.659508	-0.264343
C145	C	1.223424	0.168848	-0.675880
C146	C	1.723424	0.668848	-0.175880
C147	C	1.154913	0.200736	-0.661706
C148	C	1.654913	0.700736	-0.161706
H149	H	1.248400	0.160632	-0.630852
H150	H	1.748400	0.660632	-0.130852
H151	H	1.251645	0.200870	-0.705818
H152	H	1.751645	0.700870	-0.205818
H153	H	1.216696	0.123400	-0.700580
H154	H	1.716696	0.623400	-0.200580
H155	H	1.161641	0.246187	-0.637014
H156	H	1.661641	0.746187	-0.137014
H157	H	1.126693	0.168721	-0.631762
H158	H	1.626693	0.668721	-0.131762
H159	H	0.633595	0.269012	-0.269327
H160	H	1.133595	0.769012	0.230673
H161	H	1.149035	0.268979	-0.924686
H162	H	1.649035	0.768979	-0.424686
O163	O	1.156433	0.778485	-0.261850
O164	O	1.656433	1.278485	0.238150
C165	C	1.198005	0.828883	-0.220348
C166	C	1.698005	1.328883	0.279652
H167	H	1.200555	0.883644	-0.250506
H168	H	1.700555	1.383644	0.249494
H169	H	1.171093	0.837121	-0.164431
H170	H	1.671093	1.337121	0.335569
C171	C	1.273193	0.731572	-0.172769
C172	C	1.773193	1.231572	0.327231
C173	C	1.276330	0.798829	-0.209813
C174	C	1.776330	1.298829	0.290187
H175	H	1.321507	0.713033	-0.166266
H176	H	1.821507	1.213033	0.333734
H177	H	1.245184	0.697617	-0.200727
H178	H	1.745184	1.197617	0.299273
H179	H	1.250763	0.738446	-0.126175
H180	H	1.750763	1.238446	0.373825
H181	H	1.298752	0.791952	-0.256408
H182	H	1.798752	1.291952	0.243592
H183	H	1.304346	0.832782	-0.181862
H184	H	1.804346	1.332782	0.318138
H185	H	0.978146	0.923873	-0.439908
H186	H	1.478146	1.423873	0.060092
H187	H	1.149026	0.923843	-0.269294
H188	H	1.649026	1.423843	0.230706
H189	H	0.978148	0.439786	-0.785173
H190	H	1.478148	0.939786	-0.285173
