data_functionalizedCrystal
_audit_creation_method	'MofGen! by Chris Wilmer'
_symmetry_space_group_name_H-M	'P1'
_symmetry_Int_Tables_number	1
_symmetry_cell_setting	triclinic
loop_
_symmetry_equiv_pos_as_xyz
  x,y,z
_cell_length_a	16.959455
_cell_length_b	16.120484
_cell_length_c	16.959447
_cell_angle_alpha	87.133411
_cell_angle_beta	90.017322
_cell_angle_gamma	92.924951
loop_
_atom_site_label
_atom_site_type_symbol
_atom_site_fract_x
_atom_site_fract_y
_atom_site_fract_z
Zn1	Zn	1.192418	-0.331902	0.462856
Zn2	Zn	1.692418	0.168098	0.962856
Zn3	Zn	1.185618	-0.471331	0.337374
Zn4	Zn	1.685618	0.028669	0.837374
Zn5	Zn	1.060239	-0.331935	0.330695
Zn6	Zn	1.560239	0.168065	0.830695
Zn7	Zn	1.053498	-0.471274	0.469509
Zn8	Zn	1.553498	0.028726	0.969509
O9	O	1.122943	-0.401611	0.400108
O10	O	1.622943	0.098389	0.900108
O11	O	1.302126	-0.350408	0.446222
O12	O	1.802126	0.149592	0.946222
O13	O	1.168962	-0.452877	0.225879
O14	O	1.668962	0.047123	0.725879
O15	O	1.083439	-0.215265	0.342647
O16	O	1.583439	0.284735	0.842647
O17	O	1.297131	-0.452845	0.354031
O18	O	1.797131	0.047155	0.854031
O19	O	1.180550	-0.215241	0.439745
O20	O	1.680550	0.284759	0.939745
O21	O	1.076846	-0.350463	0.220971
O22	O	1.576846	0.149537	0.720971
O23	O	0.948734	-0.350408	0.349097
O24	O	1.448734	0.149592	0.849097
O25	O	1.071950	-0.452749	0.579236
O26	O	1.571950	0.047251	1.079236
O27	O	0.943782	-0.452781	0.451084
O28	O	1.443782	0.047219	0.951084
O29	O	1.174014	-0.350353	0.574348
O30	O	1.674014	0.149647	1.074348
O31	O	1.162426	-0.587989	0.360481
O32	O	1.662426	-0.087989	0.860481
O33	O	1.065357	-0.587947	0.457560
O34	O	1.565357	-0.087947	0.957560
C35	C	0.917578	-0.401592	0.400088
C36	C	1.417578	0.098408	0.900088
C37	C	0.829721	-0.401605	0.400099
C38	C	1.329721	0.098395	0.900099
C39	C	0.785847	-0.454863	0.352024
C40	C	1.285847	0.045137	0.852024
C41	C	0.791040	-0.348353	0.448181
C42	C	1.291040	0.151647	0.948181
C43	C	0.708494	-0.348359	0.448191
C44	C	1.208494	0.151641	0.948191
C45	C	0.664620	-0.401618	0.400115
C46	C	1.164620	0.098382	0.900115
C47	C	0.703294	-0.454870	0.352030
C48	C	1.203294	0.045130	0.852030
C49	C	0.669815	-0.295102	0.496269
C50	C	1.169815	0.204898	0.996269
C51	C	0.587263	-0.295106	0.496280
C52	C	1.087263	0.204894	0.996280
C53	C	0.543389	-0.348370	0.448208
C54	C	1.043389	0.151630	0.948208
C55	C	0.582067	-0.401624	0.400122
C56	C	1.082067	0.098376	0.900122
C57	C	0.538194	-0.454883	0.352047
C58	C	1.038194	0.045117	0.852047
C59	C	0.576870	-0.508143	0.303964
C60	C	1.076870	-0.008143	0.803964
C61	C	0.659419	-0.508133	0.303958
C62	C	1.159419	-0.008133	0.803958
C63	C	0.460840	-0.348379	0.448214
C64	C	0.960840	0.151621	0.948214
C65	C	0.455640	-0.454889	0.352053
C66	C	0.955640	0.045111	0.852053
C67	C	1.112444	-0.618218	0.410485
C68	C	1.612444	-0.118218	0.910485
C69	C	1.108024	-0.710884	0.414950
C70	C	1.608024	-0.210884	0.914950
C71	C	1.099960	-0.880545	0.423119
C72	C	1.599960	-0.380545	0.923119
C73	C	1.146068	-0.921835	0.377111
C74	C	1.646068	-0.421835	0.877111
C75	C	1.141581	-1.016241	0.381656
C76	C	1.641581	-0.516241	0.881656
C77	C	1.104446	-0.786131	0.418575
C78	C	1.604446	-0.286131	0.918575
C79	C	1.329110	-0.401629	0.400129
C80	C	1.829110	0.098371	0.900129
C81	C	1.416967	-0.401637	0.400138
C82	C	1.916967	0.098363	0.900138
C83	C	1.122989	-0.401541	0.606273
C84	C	1.622989	0.098459	1.106273
C85	C	1.123008	-0.401512	0.694129
C86	C	1.623008	0.098488	1.194129
C87	C	1.133505	-0.184157	0.389709
C88	C	1.633505	0.315843	0.889709
C89	C	1.138006	-0.091491	0.385277
C90	C	1.638006	0.408509	0.885277
C91	C	1.122946	-0.401619	0.194743
C92	C	1.622946	0.098381	0.694743
C93	C	1.123091	-0.401414	0.106877
C94	C	1.623091	0.098586	0.606877
C95	C	1.075122	-0.348102	1.063051
C96	C	1.575122	0.151898	1.563051
C97	C	1.171043	-0.454746	1.068149
C98	C	1.671043	0.045254	1.568149
C99	C	1.171028	-0.454766	0.985604
C100	C	1.671028	0.045234	1.485604
C101	C	1.123059	-0.401453	0.941779
C102	C	1.623059	0.098547	1.441779
C103	C	1.075104	-0.348121	0.980499
C104	C	1.575104	0.151879	1.480499
C105	C	1.218976	-0.508102	0.946878
C106	C	1.718976	-0.008102	1.446878
C107	C	1.218963	-0.508125	0.864328
C108	C	1.718963	-0.008125	1.364328
C109	C	1.170997	-0.454807	0.820501
C110	C	1.670997	0.045193	1.320501
C111	C	1.123041	-0.401473	0.859226
C112	C	1.623041	0.098527	1.359226
C113	C	1.075071	-0.348160	0.815401
C114	C	1.575071	0.151840	1.315401
C115	C	1.027119	-0.294821	0.854124
C116	C	1.527119	0.205179	1.354124
C117	C	1.027138	-0.294804	0.936672
C118	C	1.527138	0.205196	1.436672
C119	C	1.170978	-0.454824	0.737954
C120	C	1.670978	0.045176	1.237954
C121	C	1.075053	-0.348180	0.732849
C122	C	1.575053	0.151820	1.232849
H123	H	0.419924	-0.498263	0.312907
H124	H	0.919924	0.001737	0.812907
O125	O	1.023420	-0.290561	1.104816
O126	O	1.523420	0.209439	1.604816
H127	H	0.981395	-0.327847	1.144208
H128	H	1.481395	0.172153	1.644208
O129	O	0.717133	-0.237656	0.548113
O130	O	1.217133	0.262344	1.048113
H131	H	0.752943	-0.275015	0.590065
H132	H	1.252943	0.224985	1.090065
H133	H	1.057120	-0.916094	0.465918
H134	H	1.557120	-0.416094	0.965918
H135	H	0.988096	-0.251379	0.968208
H136	H	1.488096	0.248621	1.468208
O137	O	0.529548	-0.565583	0.252108
O138	O	1.029548	-0.065583	0.752108
H139	H	0.465651	-0.556636	0.260195
H140	H	0.965651	-0.056636	0.760195
O141	O	0.545548	-0.237670	0.548141
O142	O	1.045548	0.262330	1.048141
H143	H	0.589925	-0.200639	0.581572
H144	H	1.089925	0.299361	1.081572
H145	H	1.258008	-0.551558	0.832807
H146	H	1.758008	-0.051558	1.332807
H147	H	1.035994	-0.304762	0.697171
H148	H	1.535994	0.195238	1.197171
O149	O	0.975383	-0.237316	0.806854
O150	O	1.475383	0.262684	1.306854
H151	H	0.983433	-0.246293	0.742949
H152	H	1.483433	0.253707	1.242949
O153	O	0.419119	-0.290940	0.500062
O154	O	0.919119	0.209060	1.000062
H155	H	0.434285	-0.305311	0.562767
H156	H	0.934285	0.194689	1.062767
O157	O	1.202819	-0.874754	0.320407
O158	O	1.702819	-0.374754	0.820407
H159	H	1.197477	-0.806918	0.325684
H160	H	1.697477	-0.306918	0.825684
O161	O	1.222695	-0.512341	0.696184
O162	O	1.722695	-0.012341	1.196184
H163	H	1.256056	-0.549407	0.740527
H164	H	1.756056	-0.049407	1.240527
H165	H	1.210091	-0.498157	1.103836
H166	H	1.710091	0.001843	1.603836
O167	O	1.270712	-0.565602	0.994142
O168	O	1.770712	-0.065602	1.494142
H169	H	1.262675	-0.556619	1.058047
H170	H	1.762675	-0.056619	1.558047
H171	H	0.817341	-0.498228	0.312878
H172	H	1.317341	0.001772	0.812878
O173	O	0.701131	-0.565563	0.252089
O174	O	1.201131	-0.065563	0.752089
H175	H	0.765904	-0.556600	0.260153
H176	H	1.265904	-0.056600	0.760153
H177	H	0.826766	-0.304988	0.487318
H178	H	1.326766	0.195012	0.987318
