data_functionalizedCrystal
_audit_creation_method	'MofGen! by Chris Wilmer'
_symmetry_space_group_name_H-M	'P1'
_symmetry_Int_Tables_number	1
_symmetry_cell_setting	triclinic
loop_
_symmetry_equiv_pos_as_xyz
  x,y,z
_cell_length_a	27.731993
_cell_length_b	27.732048
_cell_length_c	15.021413
_cell_angle_alpha	89.999048
_cell_angle_beta	90.004294
_cell_angle_gamma	82.631525
loop_
_atom_site_label
_atom_site_type_symbol
_atom_site_fract_x
_atom_site_fract_y
_atom_site_fract_z
O1	O	0.640947	0.057385	-0.073802
O2	O	0.500150	0.066158	-0.073858
O3	O	0.574921	-0.008626	-0.073811
O4	O	0.566176	0.132169	-0.073849
O5	O	0.574910	-0.008615	0.074253
O6	O	0.500138	0.066169	0.074206
O7	O	0.640935	0.057396	0.074262
Zn8	Zn	0.570535	0.061784	0.097743
Zn9	Zn	0.570550	0.061770	-0.097338
O10	O	0.566164	0.132180	0.074216
C11	C	0.482137	0.065983	0.000168
C12	C	0.428480	0.065441	0.000147
C13	C	0.574732	-0.026628	0.000223
C14	C	0.574179	-0.080282	0.000230
C15	C	0.045327	0.061505	-0.080519
C16	C	0.246984	0.063572	-0.080543
O17	O	0.273063	0.063814	-0.149186
N18	N	0.272198	0.063836	0.000165
C19	C	0.246995	0.063581	0.080885
O20	O	0.273068	0.063848	0.149531
C21	C	0.045339	0.061510	0.080908
C22	C	0.020127	0.061251	0.000195
C23	C	0.020115	0.061245	-0.161225
C24	C	-0.030297	0.060730	-0.161218
C25	C	-0.055497	0.060476	-0.080505
C26	C	-0.030285	0.060736	0.000202
C27	C	0.020137	0.061251	0.161627
C28	C	-0.030280	0.060732	0.161626
C29	C	-0.055492	0.060473	0.080913
C30	C	-0.105897	0.059968	0.080923
N31	N	-0.131110	0.059704	0.000215
C32	C	-0.105910	0.059958	-0.080499
C33	C	0.352867	0.064669	0.080866
C34	C	0.403280	0.065187	0.080861
C35	C	0.403266	0.065177	-0.080567
C36	C	0.352851	0.064662	-0.080561
C37	C	0.327653	0.064404	0.000158
C38	C	-0.211779	0.058879	-0.080478
C39	C	-0.262195	0.058367	-0.080464
C40	C	-0.262176	0.058374	0.080964
C41	C	-0.211765	0.058889	0.080950
C42	C	-0.186567	0.059139	0.000222
O43	O	-0.132005	0.059720	0.149529
O44	O	-0.131991	0.059680	-0.149135
C45	C	0.095738	0.062019	-0.080526
C46	C	0.120950	0.062279	0.000181
C47	C	0.095750	0.062025	0.080895
C48	C	0.171364	0.062797	0.000175
C49	C	0.196564	0.063051	-0.080538
C50	C	0.171350	0.062787	-0.161246
C51	C	0.120938	0.062273	-0.161239
C52	C	0.120964	0.062289	0.161603
C53	C	0.171376	0.062804	0.161589
C54	C	0.196576	0.063058	0.080875
C55	C	0.614884	-0.419105	0.000201
C56	C	0.612833	-0.620765	0.000188
O57	O	0.650055	-0.652028	0.000163
N58	N	0.568497	-0.639880	0.000171
C59	C	0.524670	-0.608576	0.000152
O60	O	0.486912	-0.629462	0.000128
C61	C	0.526721	-0.406918	0.000158
C62	C	0.571061	-0.387806	0.000184
C63	C	0.659220	-0.399993	0.000226
C64	C	0.659732	-0.349581	0.000234
C65	C	0.615909	-0.318282	0.000217
C66	C	0.571573	-0.337394	0.000192
C67	C	0.482895	-0.375616	0.000133
C68	C	0.483412	-0.325199	0.000132
C69	C	0.527751	-0.306087	0.000158
C70	C	0.528262	-0.255683	0.000184
N71	N	0.572598	-0.236568	0.000201
C72	C	0.616422	-0.267867	0.000217
C73	C	0.523596	-0.714450	0.000150
C74	C	0.523083	-0.764865	0.000150
C75	C	0.611246	-0.777049	0.000184
C76	C	0.611759	-0.726634	0.000190
C77	C	0.567932	-0.695335	0.000166
C78	C	0.617494	-0.161998	0.000235
C79	C	0.618003	-0.111582	0.000247
C80	C	0.529839	-0.099401	0.000208
C81	C	0.529331	-0.149814	0.000201
C82	C	0.573162	-0.181112	0.000211
O83	O	0.491060	-0.224392	0.000198
O84	O	0.654174	-0.246972	0.000221
C85	C	0.614372	-0.469517	0.000193
C86	C	0.570036	-0.488630	0.000168
C87	C	0.526213	-0.457331	0.000151
C88	C	0.569523	-0.539044	0.000168
C89	C	0.613346	-0.570343	0.000184
C90	C	0.657683	-0.551228	0.000201
C91	C	0.658195	-0.500817	0.000209
C92	C	0.481876	-0.476446	0.000135
C93	C	0.481368	-0.526858	0.000127
C94	C	0.525191	-0.558157	0.000144
C95	C	0.658949	0.057570	0.000235
C96	C	0.712605	0.058113	0.000250
C97	C	0.566353	0.150181	0.000179
C98	C	0.566906	0.203836	0.000166
N99	N	0.570528	0.061793	0.230880
N100	N	0.570562	0.061757	-0.230476
C101	C	0.535948	0.096357	0.470542
C102	C	0.579559	0.105405	0.529891
C103	C	0.570540	0.061781	0.412487
C104	C	0.526941	0.052744	0.529880
C105	C	0.570548	0.061770	0.587911
C106	C	0.614172	0.070850	0.470530
C107	C	0.561527	0.018171	0.470514
C108	C	0.605169	0.027199	0.529836
C109	C	0.570535	0.061788	0.311430
C110	C	0.570559	0.061763	0.688967
H111	H	-0.282721	0.058157	-0.146193
H112	H	0.553882	-0.018692	0.444412
H113	H	0.634457	-0.002047	0.555706
O114	O	0.096407	0.061952	-0.239588
C115	C	0.073049	0.019767	-0.244423
H116	H	0.067425	0.005731	-0.174344
H117	H	0.096535	-0.009363	-0.284243
C118	C	0.030308	0.049234	-0.376654
C119	C	0.023398	0.031997	-0.290581
H120	H	-0.000317	0.056777	-0.405129
H121	H	0.046047	0.077655	-0.373399
H122	H	0.049882	0.024957	-0.409825
H123	H	0.003830	0.056277	-0.257408
H124	H	0.007655	0.003581	-0.293831
O125	O	0.044555	0.061579	-0.239660
C126	C	0.026422	0.103326	-0.288767
H127	H	0.008521	0.132455	-0.241534
H128	H	-0.001541	0.093555	-0.339077
C129	C	0.090552	0.087003	-0.396261
C130	C	0.068570	0.122781	-0.338249
H131	H	0.116551	0.099003	-0.426788
H132	H	0.102769	0.058876	-0.363180
H133	H	0.067246	0.078864	-0.438178
H134	H	0.091875	0.130915	-0.296327
H135	H	0.056359	0.150910	-0.371324
O136	O	0.658201	0.079942	0.439586
C137	C	0.694643	0.043669	0.470495
H138	H	0.677707	0.009473	0.487519
H139	H	0.712397	0.057266	0.532501
C140	C	0.754147	0.073872	0.376590
C141	C	0.733346	0.031871	0.397493
H142	H	0.778022	0.066596	0.331561
H143	H	0.729596	0.098311	0.355768
H144	H	0.768937	0.085199	0.428268
H145	H	0.718551	0.020548	0.345818
H146	H	0.757896	0.007430	0.418304
O147	O	0.588676	0.149359	0.561166
C148	C	0.588977	0.148598	0.655017
H149	H	0.597151	0.109443	0.679228
H150	H	0.551904	0.165163	0.681029
C151	C	0.618308	0.226373	0.659955
C152	C	0.628351	0.178282	0.689691
H153	H	0.642594	0.244685	0.681345
H154	H	0.618104	0.226887	0.596726
H155	H	0.587412	0.240171	0.681634
H156	H	0.659243	0.164483	0.668003
H157	H	0.628562	0.177766	0.752918
H158	H	0.694908	-0.425472	0.000236
O159	O	0.700285	-0.581589	0.000096
C160	C	0.727227	-0.572986	-0.076589
H161	H	0.715072	-0.534646	-0.102152
H162	H	0.720825	-0.600510	-0.130293
C163	C	0.796652	-0.625286	-0.021883
C164	C	0.781726	-0.578195	-0.053276
H165	H	0.830270	-0.628502	-0.007505
H166	H	0.778500	-0.631084	0.029780
H167	H	0.791313	-0.648218	-0.066641
H168	H	0.787060	-0.555265	-0.008514
H169	H	0.799880	-0.572394	-0.104931
H170	H	0.191876	0.062996	-0.226966
H171	H	0.694301	-0.485261	0.000230
O172	O	-0.187384	0.059147	-0.158976
C173	C	-0.220454	0.058797	-0.230198
H174	H	-0.258505	0.073737	-0.206520
H175	H	-0.220454	0.019948	-0.255014
C176	C	-0.158446	0.072363	-0.335545
C177	C	-0.205179	0.090717	-0.306464
H178	H	-0.149022	0.092051	-0.382592
H179	H	-0.136165	0.072598	-0.287562
H180	H	-0.158451	0.039989	-0.356218
H181	H	-0.205172	0.123088	-0.285781
H182	H	-0.227460	0.090489	-0.354446
O183	O	0.328441	0.064387	-0.159044
C184	C	0.361497	0.064738	-0.230279
H185	H	0.399552	0.049800	-0.206611
H186	H	0.361491	0.103587	-0.255101
C187	C	0.299470	0.051169	-0.335601
C188	C	0.346209	0.032817	-0.306534
H189	H	0.290039	0.031481	-0.382641
H190	H	0.277198	0.050934	-0.287610
H191	H	0.299470	0.083543	-0.356280
H192	H	0.346207	0.000446	-0.285846
H193	H	0.368481	0.033046	-0.354524
O194	O	0.653861	-0.807390	0.000234
C195	C	0.693109	-0.779715	0.000219
H196	H	0.680558	-0.741992	0.028253
H197	H	0.706718	-0.776227	-0.070813
C198	C	0.749969	-0.851489	0.023855
C199	C	0.734554	-0.805158	0.058294
H200	H	0.775535	-0.867184	0.059675
H201	H	0.723527	-0.870135	0.023862
H202	H	0.761306	-0.848576	-0.035338
H203	H	0.723212	-0.808072	0.117481
H204	H	0.760995	-0.786513	0.058299
H205	H	0.423803	0.065406	0.146585
O206	O	0.482931	0.043599	0.560830
C207	C	0.451915	0.037659	0.488369
H208	H	0.474672	0.026591	0.426753
H209	H	0.427803	0.073392	0.474957
C210	C	0.391916	0.011447	0.586245
C211	C	0.419867	-0.002151	0.510570
H212	H	0.372145	-0.013108	0.599940
H213	H	0.412811	0.015451	0.635065
H214	H	0.371826	0.041225	0.575059
H215	H	0.439960	-0.031924	0.521761
H216	H	0.398974	-0.006160	0.461753
O217	O	0.660115	-0.192328	0.000288
C218	C	0.699352	-0.164639	0.000290
H219	H	0.686785	-0.126917	0.028319
H220	H	0.712968	-0.161147	-0.070736
C221	C	0.756231	-0.236396	0.023950
C222	C	0.740797	-0.190067	0.058382
H223	H	0.781797	-0.252082	0.059780
H224	H	0.729797	-0.255051	0.023946
H225	H	0.767574	-0.233480	-0.035238
H226	H	0.729448	-0.192985	0.117565
H227	H	0.767230	-0.171413	0.058398
O228	O	0.427795	0.065487	-0.158918
C229	C	0.451154	0.107671	-0.163774
H230	H	0.456773	0.121721	-0.093703
H231	H	0.427669	0.136793	-0.203623
C232	C	0.493900	0.078178	-0.295969
C233	C	0.500806	0.095431	-0.209905
H234	H	0.524527	0.070629	-0.324428
H235	H	0.478161	0.049758	-0.292700
H236	H	0.474328	0.102449	-0.329165
H237	H	0.520372	0.071158	-0.176708
H238	H	0.516549	0.123847	-0.213170
H239	H	0.695838	-0.334025	0.000251
H240	H	0.654110	-0.096024	0.000270
O241	O	0.328464	0.064444	0.159362
C242	C	0.361536	0.064778	0.230585
H243	H	0.395351	0.080454	0.206902
H244	H	0.372268	0.026041	0.255415
C245	C	0.295953	0.077043	0.335927
C246	C	0.337484	0.096300	0.306840
H247	H	0.281117	0.096485	0.382967
H248	H	0.273672	0.076816	0.287944
H249	H	0.304903	0.044762	0.356612
H250	H	0.328534	0.128577	0.286146
H251	H	0.359764	0.096533	0.354822
H252	H	-0.050820	0.060517	-0.226943
H253	H	0.040656	0.061461	0.227353
O254	O	0.480054	-0.783508	0.000172
C255	C	0.488992	-0.834717	0.000150
H256	H	0.526801	-0.846845	0.028201
H257	H	0.486763	-0.848733	-0.070886
C258	C	0.404252	-0.840444	0.023740
C259	C	0.450689	-0.855339	0.058200
H260	H	0.380624	-0.853165	0.059544
H261	H	0.398230	-0.805943	0.023751
H262	H	0.402402	-0.852125	-0.035456
H263	H	0.452540	-0.843653	0.117391
H264	H	0.456710	-0.889838	0.058200
H265	H	0.647864	-0.711077	0.000211
O266	O	-0.054686	0.060505	0.240119
C267	C	-0.021616	0.060832	0.311348
H268	H	0.012201	0.076508	0.287675
H269	H	-0.010887	0.022092	0.336168
C270	C	-0.087203	0.073091	0.416682
C271	C	-0.045670	0.092348	0.387608
H272	H	-0.102040	0.092530	0.463724
H273	H	-0.109483	0.072869	0.368694
H274	H	-0.078256	0.040808	0.437359
H275	H	-0.054618	0.124628	0.366921
H276	H	-0.023392	0.092577	0.435594
O277	O	0.438250	-0.545339	0.000064
C278	C	0.399684	-0.506897	0.000072
H279	H	0.412981	-0.472747	-0.027942
H280	H	0.386175	-0.499665	0.071099
C281	C	0.341512	-0.562750	-0.023618
C282	C	0.357842	-0.520807	-0.058032
H283	H	0.315700	-0.571331	-0.059455
H284	H	0.367494	-0.588650	-0.023619
H285	H	0.330258	-0.556718	0.035571
H286	H	0.369101	-0.526842	-0.117215
H287	H	0.331861	-0.494909	-0.058042
O288	O	0.501093	0.131228	0.439323
C289	C	0.501282	0.130486	0.345471
H290	H	0.518092	0.093129	0.321210
H291	H	0.523525	0.159338	0.319488
C292	C	0.428086	0.187045	0.340623
C293	C	0.448729	0.141161	0.310825
H294	H	0.395670	0.193633	0.319250
H295	H	0.427960	0.187547	0.403852
H296	H	0.446627	0.211084	0.318968
H297	H	0.430192	0.117123	0.332490
H298	H	0.448851	0.140656	0.247598
O299	O	-0.187343	0.059121	0.159432
C300	C	-0.220400	0.058801	0.230672
H301	H	-0.254225	0.043129	0.207014
H302	H	-0.231120	0.097542	0.255487
C303	C	-0.154796	0.046535	0.335987
C304	C	-0.196338	0.027283	0.306931
H305	H	-0.139953	0.027096	0.383029
H306	H	-0.132524	0.046753	0.287992
H307	H	-0.163735	0.078819	0.356659
H308	H	-0.187398	-0.004997	0.286249
H309	H	-0.218607	0.027060	0.354925
O310	O	0.439781	-0.394093	0.000064
C311	C	0.401218	-0.355648	0.000066
H312	H	0.414518	-0.321500	-0.027952
H313	H	0.387709	-0.348412	0.071092
C314	C	0.343040	-0.411496	-0.023616
C315	C	0.359374	-0.369556	-0.058036
H316	H	0.317227	-0.420075	-0.059452
H317	H	0.369020	-0.437397	-0.023614
H318	H	0.331786	-0.405460	0.035572
H319	H	0.370633	-0.375594	-0.117218
H320	H	0.333395	-0.343655	-0.058049
H321	H	-0.282704	0.058169	0.146679
H322	H	0.100452	0.062080	0.227331
O323	O	0.195792	0.063034	0.240080
C324	C	0.162731	0.062711	0.311315
H325	H	0.128909	0.047037	0.287650
H326	H	0.152008	0.101451	0.336130
C327	C	0.228331	0.050448	0.416639
C328	C	0.186792	0.031194	0.387575
H329	H	0.243173	0.031009	0.463682
H330	H	0.250605	0.050668	0.368648
H331	H	0.219389	0.082731	0.437313
H332	H	0.195735	-0.001087	0.366892
H333	H	0.164520	0.030968	0.435565
H334	H	0.487905	-0.688970	0.000130
H335	H	0.447722	-0.299717	0.000111
O336	O	0.486249	-0.168361	0.000023
C337	C	0.459561	-0.152317	-0.076659
H338	H	0.485500	-0.142018	-0.130238
H339	H	0.432371	-0.119256	-0.059326
C340	C	0.400241	-0.206015	-0.045655
C341	C	0.432100	-0.193369	-0.111464
H342	H	0.383300	-0.231336	-0.067122
H343	H	0.418220	-0.216822	0.006010
H344	H	0.377586	-0.178460	-0.031216
H345	H	0.454757	-0.220921	-0.125894
H346	H	0.414124	-0.182566	-0.163132
O347	O	0.487316	-0.068924	0.000151
C348	C	0.497281	-0.020330	0.000181
H349	H	0.535240	-0.018687	-0.027827
H350	H	0.495329	-0.005735	0.071215
C351	C	0.412906	0.008796	-0.023505
C352	C	0.459526	0.010815	-0.057913
H353	H	0.389617	0.028010	-0.059337
H354	H	0.406192	-0.023942	-0.023522
H355	H	0.411287	0.020958	0.035688
H356	H	0.461147	-0.001352	-0.117101
H357	H	0.466241	0.043552	-0.057907
H358	H	0.446189	-0.450966	0.000119
