data_functionalizedCrystal
_audit_creation_method	'MofGen! by Chris Wilmer'
_symmetry_space_group_name_H-M	'P1'
_symmetry_Int_Tables_number	1
_symmetry_cell_setting	triclinic
loop_
_symmetry_equiv_pos_as_xyz
  x,y,z
_cell_length_a	14.853567
_cell_length_b	17.038272
_cell_length_c	13.330367
_cell_angle_alpha	89.995338
_cell_angle_beta	89.995418
_cell_angle_gamma	87.373243
loop_
_atom_site_label
_atom_site_type_symbol
_atom_site_fract_x
_atom_site_fract_y
_atom_site_fract_z
O1	O	1.204051	0.102086	-0.083355
O2	O	0.942507	0.114247	-0.083372
O3	O	1.071724	-0.005651	-0.083356
O4	O	1.074833	0.221984	-0.083372
O5	O	1.071704	-0.005654	0.083491
O6	O	0.942486	0.114244	0.083475
O7	O	1.204031	0.102083	0.083492
Cu8	Cu	1.073257	0.108164	0.098718
Cu9	Cu	1.073281	0.108167	-0.098598
O10	O	1.074813	0.221981	0.083476
C11	C	0.908866	0.113695	0.000049
C12	C	0.808658	0.112043	0.000043
C13	C	0.390240	0.033841	0.000071
C14	C	0.379678	0.176283	0.000060
C15	C	0.473828	0.177835	0.000056
C16	C	0.526189	0.107390	0.000059
C17	C	0.484399	0.035392	0.000064
C18	C	0.515626	0.249832	0.000041
C19	C	0.609782	0.251388	0.000036
C20	C	0.662144	0.180941	0.000046
C21	C	0.620349	0.108940	0.000052
C22	C	0.672709	0.038495	0.000055
C23	C	0.630915	-0.033507	0.000068
C24	C	0.536762	-0.035055	0.000074
C25	C	0.756298	0.182489	0.000040
C26	C	0.766869	0.040045	0.000048
C27	C	1.068887	-0.034784	0.000067
C28	C	1.060451	-0.121588	0.000067
C29	C	1.137904	-0.171601	0.000073
C30	C	1.129972	-0.253162	0.000063
C31	C	1.044586	-0.284709	0.000054
C32	C	0.967127	-0.234690	0.000045
C33	C	0.975060	-0.153130	0.000047
C34	C	1.016561	-0.530503	0.000038
C35	C	1.008634	-0.612069	0.000038
C36	C	1.171480	-0.630535	0.000055
C37	C	1.179405	-0.548974	0.000063
C38	C	1.101946	-0.498962	0.000049
C39	C	1.036476	-0.368077	0.000047
C40	C	1.110056	-0.415595	0.000049
C41	C	1.237671	0.102636	0.000068
C42	C	1.337879	0.104287	0.000068
C43	C	1.077651	0.251114	0.000050
C44	C	1.086087	0.337918	0.000044
N45	N	1.073246	0.108161	0.237499
N46	N	1.073298	0.108163	-0.237380
C47	C	1.016059	0.161237	0.710115
C48	C	1.130526	0.055091	0.710098
C49	C	1.130516	0.055088	0.605079
C50	C	1.073277	0.108162	0.552574
C51	C	1.016049	0.161237	0.605087
C52	C	1.187750	0.002019	0.552558
C53	C	1.187743	0.002015	0.447534
C54	C	1.130499	0.055085	0.395026
C55	C	1.073267	0.108162	0.447546
C56	C	1.016028	0.161236	0.395041
C57	C	0.958791	0.214310	0.447558
C58	C	0.958805	0.214308	0.552580
C59	C	1.130485	0.055087	0.290005
C60	C	1.016018	0.161237	0.290012
H61	H	0.790322	0.241112	0.000031
H62	H	0.673560	-0.090863	0.000063
H63	H	0.969403	0.204453	0.247269
H64	H	0.897604	-0.260382	0.000031
H65	H	0.643802	0.310016	0.000025
C66	C	0.491216	-0.113143	0.000030
C67	C	0.397554	-0.099420	0.000003
C68	C	0.355565	-0.171335	-0.000054
H69	H	0.508707	-0.142215	0.058199
H70	H	0.508768	-0.142158	-0.058176
H71	H	0.380009	-0.070417	0.058203
H72	H	0.380037	-0.070360	-0.058161
H73	H	0.373117	-0.200350	-0.058259
H74	H	0.373062	-0.200402	0.058116
H75	H	0.292011	-0.162034	-0.000081
C76	C	0.896519	0.271837	0.609550
C77	C	0.806944	0.259000	0.584052
C78	C	0.749543	0.311973	0.636529
H79	H	0.910184	0.324074	0.592377
H80	H	0.904667	0.264229	0.679626
H81	H	0.798799	0.266614	0.513993
H82	H	0.793250	0.206774	0.601229
H83	H	0.757692	0.304366	0.706605
H84	H	0.763217	0.364207	0.619352
H85	H	0.688761	0.303266	0.619244
C86	C	0.458935	0.326396	-0.000021
C87	C	0.515685	0.389782	-0.000065
C88	C	0.463489	0.460327	-0.000136
H89	H	0.421973	0.328866	0.058149
H90	H	0.422003	0.328789	-0.058225
H91	H	0.552602	0.387390	0.058133
H92	H	0.552647	0.387338	-0.058231
H93	H	0.426557	0.462719	-0.058341
H94	H	0.426530	0.462788	0.058034
H95	H	0.501986	0.503342	-0.000176
H96	H	0.911989	-0.112410	0.000042
H97	H	0.337041	0.233636	0.000049
H98	H	1.207434	-0.145922	0.000086
H99	H	0.809495	-0.017321	0.000054
H100	H	0.356207	-0.024781	0.000086
C101	C	1.214173	-0.307331	0.000128
C102	C	1.290647	-0.262247	0.000172
C103	C	1.368232	-0.312120	0.000247
H104	H	1.214606	-0.339545	-0.058040
H105	H	1.214501	-0.339524	0.058334
H106	H	1.290320	-0.230067	-0.058028
H107	H	1.290245	-0.230035	0.058336
H108	H	1.368560	-0.344313	0.058453
H109	H	1.368656	-0.344331	-0.057923
H110	H	1.420129	-0.281538	0.000286
H111	H	0.969455	0.204447	0.752877
H112	H	1.234357	-0.041188	0.595312
H113	H	1.234542	-0.671263	0.000064
H114	H	1.177133	0.011884	0.752851
C115	C	1.272057	-0.514623	-0.000090
C116	C	1.281373	-0.468317	-0.085914
C117	C	1.366709	-0.436654	-0.086080
H118	H	1.317132	-0.556012	-0.000141
H119	H	1.278544	-0.483151	0.058065
H120	H	1.274896	-0.499787	-0.144054
H121	H	1.236319	-0.426915	-0.085882
H122	H	1.373196	-0.405182	-0.027925
H123	H	1.411776	-0.478048	-0.086128
H124	H	1.373038	-0.405226	-0.144305
C125	C	0.915843	-0.646170	-0.000035
C126	C	0.849704	-0.584916	-0.000078
C127	C	0.764221	-0.616301	-0.000160
H128	H	0.909223	-0.677595	0.058130
H129	H	0.909336	-0.677577	-0.058244
H130	H	0.856208	-0.553522	0.058124
H131	H	0.856295	-0.553486	-0.058239
H132	H	0.757714	-0.647708	-0.058369
H133	H	0.757610	-0.647725	0.058006
H134	H	0.719336	-0.574745	-0.000199
H135	H	1.179577	-0.389906	0.000034
H136	H	1.234347	-0.041201	0.404780
H137	H	1.177091	0.011879	0.247250
C138	C	0.932493	-0.476177	-0.000177
C139	C	0.932281	-0.428825	-0.086031
C140	C	0.854841	-0.378776	-0.086270
H141	H	0.932108	-0.443905	0.057937
H142	H	0.880485	-0.506625	-0.000234
H143	H	0.984275	-0.398380	-0.085965
H144	H	0.932652	-0.461076	-0.144159
H145	H	0.802834	-0.409223	-0.086326
H146	H	0.854463	-0.346509	-0.028153
H147	H	0.854683	-0.346646	-0.144525
C148	C	0.896683	0.271845	0.390365
C149	C	0.908919	0.260472	0.287153
C150	C	0.851714	0.313450	0.234431
H151	H	0.910414	0.324083	0.407447
H152	H	0.835839	0.263249	0.407522
H153	H	0.969749	0.269074	0.270003
H154	H	0.895181	0.208245	0.270040
H155	H	0.790871	0.304854	0.251588
H156	H	0.865451	0.365684	0.251522
H157	H	0.860003	0.305736	0.164397
H158	H	0.966954	-0.393771	0.000041
