data_functionalizedCrystal
_audit_creation_method	'MofGen! by Chris Wilmer'
_symmetry_space_group_name_H-M	'P1'
_symmetry_Int_Tables_number	1
_symmetry_cell_setting	triclinic
loop_
_symmetry_equiv_pos_as_xyz
  x,y,z
_cell_length_a	9.065215
_cell_length_b	10.654559
_cell_length_c	8.140239
_cell_angle_alpha	89.999074
_cell_angle_beta	89.997810
_cell_angle_gamma	84.751691
loop_
_atom_site_label
_atom_site_type_symbol
_atom_site_fract_x
_atom_site_fract_y
_atom_site_fract_z
O1	O	1.959401	0.184139	-0.136584
O2	O	1.530034	0.199249	-0.136590
O3	O	1.754582	0.008995	-0.136587
O4	O	1.734852	0.374394	-0.136587
O5	O	1.754570	0.008992	0.136640
O6	O	1.530021	0.199246	0.136637
O7	O	1.959388	0.184137	0.136643
Zn8	Zn	1.744703	0.191691	0.180021
Zn9	Zn	1.744719	0.191694	-0.179968
O10	O	1.734840	0.374391	0.136640
C11	C	1.475048	0.197796	0.000022
C12	C	1.311229	0.193457	0.000019
C13	C	1.753124	-0.037810	0.000023
C14	C	1.748782	-0.177270	0.000013
C15	C	1.612489	-0.229348	0.000007
C16	C	1.608418	-0.360387	0.000019
C17	C	1.876943	-0.387258	0.000037
C18	C	1.881013	-0.256222	0.000036
C19	C	1.480258	-0.150397	-0.000017
C20	C	1.343954	-0.202474	-0.000025
C21	C	1.339883	-0.333512	-0.000013
C22	C	1.472115	-0.412473	0.000008
C23	C	2.014373	0.185590	0.000027
C24	C	2.178193	0.189929	0.000019
C25	C	1.736298	0.421196	0.000026
C26	C	1.740640	0.560656	0.000026
N27	N	1.744702	0.191689	0.425703
N28	N	1.744731	0.191687	-0.425650
H29	H	1.236297	-0.138176	-0.000027
C30	C	2.022389	-0.474111	0.000041
C31	C	2.056508	-0.567898	0.141915
C32	C	2.201957	-0.654750	0.141911
C33	C	2.313287	-0.647815	0.000034
C34	C	2.279171	-0.554024	-0.141850
C35	C	2.133723	-0.467172	-0.141847
H36	H	1.974092	-0.573035	0.246950
H37	H	2.227211	-0.724180	0.246944
H38	H	2.420957	-0.712108	0.000031
H39	H	2.361587	-0.548887	-0.246886
H40	H	2.108469	-0.397742	-0.246880
H41	H	1.228898	-0.375910	-0.000002
H42	H	1.991994	-0.213819	0.000044
H43	H	1.483558	-0.043697	-0.000030
H44	H	1.468788	-0.519172	0.000017
