data_functionalizedCrystal
_audit_creation_method	'MofGen! by Chris Wilmer'
_symmetry_space_group_name_H-M	'P1'
_symmetry_Int_Tables_number	1
_symmetry_cell_setting	triclinic
loop_
_symmetry_equiv_pos_as_xyz
  x,y,z
_cell_length_a	12.759401
_cell_length_b	12.594516
_cell_length_c	12.759393
_cell_angle_alpha	89.971950
_cell_angle_beta	89.979062
_cell_angle_gamma	90.017577
loop_
_atom_site_label
_atom_site_type_symbol
_atom_site_fract_x
_atom_site_fract_y
_atom_site_fract_z
Zn1	Zn	1.606257	-0.423647	-0.594038
Zn2	Zn	1.606143	-0.601663	-0.418366
Zn3	Zn	1.430555	-0.423704	-0.418373
Zn4	Zn	1.430543	-0.601589	-0.594003
O5	O	1.518375	-0.512651	-0.506195
O6	O	1.753263	-0.447269	-0.570746
O7	O	1.582809	-0.578111	-0.271345
O8	O	1.453915	-0.274751	-0.441693
O9	O	1.753179	-0.578056	-0.441680
O10	O	1.583002	-0.274709	-0.570754
O11	O	1.453805	-0.447365	-0.271351
O12	O	1.283533	-0.447293	-0.441659
O13	O	1.453894	-0.577930	-0.741029
O14	O	1.283524	-0.577985	-0.570694
O15	O	1.582990	-0.447197	-0.741054
O16	O	1.582797	-0.750599	-0.441646
O17	O	1.453784	-0.750545	-0.570686
C18	C	1.245407	-0.512638	-0.506174
C19	C	1.128631	-0.512658	-0.506190
C20	C	1.073791	-0.580812	-0.573272
C21	C	0.964067	-0.580817	-0.573293
C22	C	0.964031	-0.444509	-0.439140
C23	C	1.073753	-0.444500	-0.439125
C24	C	1.518306	-0.789192	-0.506185
C25	C	1.518372	-0.907497	-0.506215
C26	C	1.448195	-0.976759	-0.576351
C27	C	1.422594	-1.047629	-0.480484
C28	C	1.544069	-1.047427	-0.602099
C29	C	1.492721	-0.976808	-0.410297
C30	C	1.614240	-0.976600	-0.531977
C31	C	1.588675	-1.047438	-0.436044
C32	C	1.792408	-0.512665	-0.506216
C33	C	1.909184	-0.512671	-0.506226
C34	C	1.518453	-0.512549	-0.780228
C35	C	1.518487	-0.512505	-0.897005
C36	C	1.518472	-0.235030	-0.506228
C37	C	1.518514	-0.116725	-0.506242
C38	C	1.585712	-0.444422	-0.951882
C39	C	1.585730	-0.444376	-1.061606
C40	C	1.451294	-0.580506	-1.061567
C41	C	1.451272	-0.580546	-0.951844
C42	C	1.518357	-0.512676	-0.233228
C43	C	1.518527	-0.512420	-0.116451
H44	H	0.919422	-0.636313	-0.627920
C45	C	1.391641	-0.640896	-1.229746
C46	C	1.377422	-0.655302	-1.121850
H47	H	1.346039	-0.687080	-1.266959
H48	H	1.376293	-0.569383	-1.247730
H49	H	1.462233	-0.656474	-1.247725
H50	H	1.306832	-0.639717	-1.103870
H51	H	1.392763	-0.726832	-1.103859
C52	C	1.645442	-0.383852	-1.229817
C53	C	1.659620	-0.369531	-1.121929
H54	H	1.691054	-0.337635	-1.267055
H55	H	1.660801	-0.455349	-1.247793
H56	H	1.574855	-0.368264	-1.247773
H57	H	1.730205	-0.385126	-1.103972
H58	H	1.644268	-0.298017	-1.103945
C59	C	1.617497	-1.151785	-0.281187
C60	C	1.668870	-1.089084	-0.355905
H61	H	1.667004	-1.177501	-0.231716
H62	H	1.566138	-1.110330	-0.246144
H63	H	1.584521	-1.210058	-0.315031
H64	H	1.701840	-1.030806	-0.322062
H65	H	1.720247	-1.130540	-0.390952
C66	C	1.499668	-1.053617	-0.784838
C67	C	1.573342	-1.089302	-0.711547
H68	H	1.517740	-1.079461	-0.852408
H69	H	1.432108	-1.078987	-0.766068
H70	H	1.499207	-0.978198	-0.785755
H71	H	1.573799	-1.164721	-0.710624
H72	H	1.640921	-1.063937	-0.730322
C73	C	1.318394	-0.715117	-0.962818
C74	C	1.377376	-0.655394	-0.891515
H75	H	1.272781	-0.761325	-0.925570
H76	H	1.278232	-0.668728	-1.005610
H77	H	1.364173	-0.755817	-1.005618
H78	H	1.331597	-0.614687	-0.848720
H79	H	1.417542	-0.701789	-0.848705
C80	C	1.763191	-0.873306	-0.478802
C81	C	1.723574	-0.934450	-0.561417
H82	H	1.830693	-0.847290	-0.496985
H83	H	1.717508	-0.815246	-0.465830
H84	H	1.768256	-0.915922	-0.417566
H85	H	1.718502	-0.891831	-0.622652
H86	H	1.769268	-0.992517	-0.574403
H87	H	0.919337	-0.389018	-0.384537
C88	C	1.107654	-0.632862	-0.751085
C89	C	1.134116	-0.655718	-0.646999
H90	H	1.144900	-0.679102	-0.796602
H91	H	1.034468	-0.642625	-0.760686
H92	H	1.125665	-0.561362	-0.766560
H93	H	1.116098	-0.727217	-0.631521
H94	H	1.207319	-0.645964	-0.637392
H95	H	1.118405	-0.388994	-0.384499
H96	H	1.470950	-0.945916	-0.329198
H97	H	1.388743	-0.945724	-0.635576
H98	H	1.341587	-1.078851	-0.458716
H99	H	1.640440	-0.389016	-0.907235
