data_functionalizedCrystal
_audit_creation_method	'MofGen! by Chris Wilmer'
_symmetry_space_group_name_H-M	'P1'
_symmetry_Int_Tables_number	1
_symmetry_cell_setting	triclinic
loop_
_symmetry_equiv_pos_as_xyz
  x,y,z
_cell_length_a	29.839134
_cell_length_b	29.839131
_cell_length_c	29.839125
_cell_angle_alpha	90.017709
_cell_angle_beta	89.978020
_cell_angle_gamma	89.963719
loop_
_atom_site_label
_atom_site_type_symbol
_atom_site_fract_x
_atom_site_fract_y
_atom_site_fract_z
Zn1	Zn	0.686720	0.178978	-0.254125
Zn2	Zn	1.020053	0.512311	0.079208
Zn3	Zn	1.353386	0.845645	0.412542
Zn4	Zn	0.686652	0.254090	-0.178995
Zn5	Zn	1.019985	0.587423	0.154338
Zn6	Zn	1.353318	0.920757	0.487672
Zn7	Zn	0.611602	0.178968	-0.178995
Zn8	Zn	0.944936	0.512301	0.154339
Zn9	Zn	1.278269	0.845635	0.487672
Zn10	Zn	0.611550	0.254075	-0.254083
Zn11	Zn	0.944883	0.587408	0.079250
Zn12	Zn	1.278217	0.920742	0.412583
O13	O	0.649131	0.216528	-0.216549
O14	O	0.982464	0.549861	0.116784
O15	O	1.315798	0.883194	0.450117
O16	O	0.749578	0.188952	-0.244176
O17	O	1.082911	0.522285	0.089157
O18	O	1.416244	0.855619	0.422490
O19	O	0.676690	0.244127	-0.116128
O20	O	1.010023	0.577460	0.217206
O21	O	1.343356	0.910794	0.550539
O22	O	0.621617	0.116102	-0.188978
O23	O	0.954950	0.449436	0.144355
O24	O	1.288284	0.782769	0.477689
O25	O	0.749528	0.244137	-0.188979
O26	O	1.082861	0.577470	0.144355
O27	O	1.416195	0.910803	0.477688
O28	O	0.676805	0.116109	-0.244176
O29	O	1.010139	0.449443	0.089157
O30	O	1.343472	0.782776	0.422491
O31	O	0.621551	0.188935	-0.116127
O32	O	0.954885	0.522269	0.217206
O33	O	1.288218	0.855602	0.550539
O34	O	0.548728	0.188921	-0.188938
O35	O	0.882062	0.522254	0.144396
O36	O	1.215395	0.855587	0.477729
O37	O	0.621528	0.244111	-0.316956
O38	O	0.954861	0.577444	0.016377
O39	O	1.288195	0.910778	0.349711
O40	O	0.548690	0.244101	-0.244105
O41	O	0.882023	0.577435	0.089228
O42	O	1.215357	0.910768	0.422562
O43	O	0.676755	0.188937	-0.316987
O44	O	1.010088	0.522271	0.016347
O45	O	1.343421	0.855604	0.349680
O46	O	0.676639	0.316955	-0.188938
O47	O	1.009972	0.650288	0.144395
O48	O	1.343306	0.983622	0.477728
O49	O	0.621462	0.316944	-0.244105
O50	O	0.954796	0.650277	0.089228
O51	O	1.288129	0.983611	0.422561
C52	C	0.532408	0.216509	-0.216517
C53	C	0.865742	0.549842	0.116816
C54	C	1.199075	0.883175	0.450150
C55	C	0.482474	0.216511	-0.216514
C56	C	0.815807	0.549845	0.116819
C57	C	1.149141	0.883178	0.450153
C58	C	0.649050	0.333250	-0.216527
C59	C	0.982383	0.666584	0.116806
C60	C	1.315717	0.999917	0.450139
C61	C	0.649056	0.383185	-0.216533
C62	C	0.982390	0.716518	0.116801
C63	C	1.315723	1.049851	0.450134
C64	C	0.649143	0.216524	-0.333728
C65	C	0.982476	0.549857	-0.000395
C66	C	1.315810	0.883190	0.332939
C67	C	0.649148	0.216522	-0.383662
C68	C	0.982482	0.549855	-0.050329
C69	C	1.315815	0.883189	0.283004
C70	C	0.172820	0.245303	-0.245240
C71	C	0.506153	0.578636	0.088093
C72	C	0.839487	0.911969	0.421427
C73	C	-0.014853	0.245315	-0.245260
C74	C	0.318480	0.578649	0.088073
C75	C	0.651814	0.911982	0.421407
O76	O	-0.039127	0.269774	-0.269665
O77	O	0.294207	0.603107	0.063669
O78	O	0.627540	0.936440	0.397002
N79	N	-0.038311	0.216544	-0.216583
N80	N	0.295022	0.549877	0.116750
N81	N	0.628356	0.883211	0.450083
C82	C	-0.014848	0.187766	-0.187902
C83	C	0.318485	0.521099	0.145432
C84	C	0.651819	0.854432	0.478765
O85	O	-0.039107	0.163291	-0.163514
O86	O	0.294226	0.496624	0.169819
O87	O	0.627560	0.829958	0.503152
C88	C	0.172824	0.187751	-0.187884
C89	C	0.506157	0.521084	0.145449
C90	C	0.839491	0.854418	0.478782
C91	C	0.196280	0.216527	-0.216560
C92	C	0.529613	0.549861	0.116774
C93	C	0.862946	0.883194	0.450107
C94	C	0.196276	0.274076	-0.273913
C95	C	0.529609	0.607410	0.059420
C96	C	0.862942	0.940743	0.392753
C97	C	0.243191	0.274075	-0.273906
C98	C	0.576525	0.607408	0.059427
C99	C	0.909858	0.940741	0.392760
C100	C	0.266651	0.245299	-0.245226
C101	C	0.599984	0.578633	0.088107
C102	C	0.933318	0.911966	0.421441
C103	C	0.243195	0.216526	-0.216553
C104	C	0.576529	0.549859	0.116781
C105	C	0.909862	0.883192	0.450114
C106	C	0.196286	0.158971	-0.159205
C107	C	0.529620	0.492304	0.174128
C108	C	0.862953	0.825637	0.507461
C109	C	0.243207	0.158969	-0.159204
C110	C	0.576541	0.492302	0.174129
C111	C	0.909874	0.825635	0.507462
C112	C	0.266663	0.187745	-0.187880
C113	C	0.599996	0.521078	0.145454
C114	C	0.933330	0.854412	0.478787
C115	C	0.313570	0.187749	-0.187865
C116	C	0.646904	0.521082	0.145468
C117	C	0.980237	0.854415	0.478801
N118	N	0.337029	0.216520	-0.216542
N119	N	0.670362	0.549853	0.116791
N120	N	1.003695	0.883186	0.450125
C121	C	0.313569	0.245295	-0.245222
C122	C	0.646902	0.578628	0.088111
C123	C	0.980235	0.911962	0.421444
C124	C	-0.113379	0.187776	-0.187912
C125	C	0.219955	0.521109	0.145421
C126	C	0.553288	0.854443	0.478754
C127	C	-0.160297	0.187780	-0.187916
C128	C	0.173037	0.521113	0.145417
C129	C	0.506370	0.854447	0.478751
C130	C	-0.160298	0.245329	-0.245275
C131	C	0.173035	0.578663	0.088058
C132	C	0.506368	0.911996	0.421392
C133	C	-0.113380	0.245327	-0.245269
C134	C	0.219954	0.578661	0.088065
C135	C	0.553287	0.911994	0.421398
C136	C	-0.089921	0.216547	-0.216589
C137	C	0.243413	0.549881	0.116744
C138	C	0.576746	0.883214	0.450078
C139	C	0.412095	0.245290	-0.245205
C140	C	0.745428	0.578623	0.088128
C141	C	1.078761	0.911956	0.421462
C142	C	0.459014	0.245287	-0.245194
C143	C	0.792348	0.578620	0.088139
C144	C	1.125681	0.911953	0.421472
C145	C	0.459012	0.187736	-0.187837
C146	C	0.792345	0.521069	0.145496
C147	C	1.125678	0.854403	0.478830
C148	C	0.412096	0.187740	-0.187846
C149	C	0.745430	0.521074	0.145487
C150	C	1.078763	0.854407	0.478821
C151	C	0.388639	0.216519	-0.216534
C152	C	0.721972	0.549852	0.116800
C153	C	1.055306	0.883185	0.450133
O154	O	0.337873	0.163299	-0.163477
O155	O	0.671206	0.496633	0.169856
O156	O	1.004540	0.829966	0.503190
O157	O	0.337836	0.269759	-0.269613
O158	O	0.671169	0.603092	0.063720
O159	O	1.004502	0.936426	0.397054
C160	C	0.125905	0.245304	-0.245247
C161	C	0.459238	0.578638	0.088086
C162	C	0.792571	0.911971	0.421420
C163	C	0.102449	0.216531	-0.216574
C164	C	0.435782	0.549864	0.116760
C165	C	0.769116	0.883197	0.450093
C166	C	0.125909	0.187755	-0.187893
C167	C	0.459242	0.521089	0.145440
C168	C	0.792575	0.854422	0.478773
C169	C	0.055531	0.216535	-0.216577
C170	C	0.388864	0.549868	0.116756
C171	C	0.722198	0.883202	0.450089
C172	C	0.032071	0.245310	-0.245258
C173	C	0.365405	0.578644	0.088076
C174	C	0.698738	0.911977	0.421409
C175	C	0.055529	0.274082	-0.273934
C176	C	0.388863	0.607415	0.059399
C177	C	0.722196	0.940748	0.392732
C178	C	0.102445	0.274080	-0.273927
C179	C	0.435778	0.607413	0.059406
C180	C	0.769112	0.940747	0.392739
C181	C	0.102451	0.158984	-0.159217
C182	C	0.435784	0.492318	0.174117
C183	C	0.769117	0.825651	0.507450
C184	C	0.055535	0.158989	-0.159226
C185	C	0.388868	0.492322	0.174108
C186	C	0.722202	0.825655	0.507441
C187	C	0.032075	0.187764	-0.187906
C188	C	0.365409	0.521097	0.145427
C189	C	0.698742	0.854431	0.478761
C190	C	0.766309	0.216547	-0.216582
C191	C	1.099643	0.549880	0.116751
C192	C	1.432976	0.883214	0.450084
C193	C	0.816244	0.216555	-0.216596
C194	C	1.149577	0.549889	0.116737
C195	C	1.482910	0.883222	0.450070
C196	C	0.649225	0.099349	-0.216582
C197	C	0.982558	0.432683	0.116752
C198	C	1.315891	0.766016	0.450085
C199	C	0.649265	0.049415	-0.216595
C200	C	0.982598	0.382748	0.116738
C201	C	1.315931	0.716082	0.450071
C202	C	0.677914	0.692821	-0.187866
C203	C	1.011247	1.026155	0.145467
C204	C	1.344580	1.359488	0.478801
C205	C	0.677969	0.880494	-0.187883
C206	C	1.011303	1.213828	0.145450
C207	C	1.344636	1.547161	0.478783
O208	O	0.702441	0.904753	-0.163493
O209	O	1.035774	1.238087	0.169841
O210	O	1.369107	1.571420	0.503174
N211	N	0.649224	0.903970	-0.216583
N212	N	0.982557	1.237303	0.116750
N213	N	1.315891	1.570636	0.450083
C214	C	0.620465	0.880524	-0.245283
C215	C	0.953799	1.213857	0.088050
C216	C	1.287132	1.547191	0.421384
O217	O	0.596020	0.904798	-0.269698
O218	O	0.929354	1.238131	0.063635
O219	O	1.262687	1.571464	0.396969
C220	C	0.620412	0.692852	-0.245268
C221	C	0.953746	1.026185	0.088066
C222	C	1.287079	1.359519	0.421399
C223	C	0.649156	0.669379	-0.216563
C224	C	0.982489	1.002712	0.116771
C225	C	1.315823	1.336045	0.450104
C226	C	0.706656	0.669348	-0.159164
C227	C	1.039989	1.002681	0.174170
C228	C	1.373322	1.336015	0.507503
C229	C	0.706640	0.622433	-0.159158
C230	C	1.039973	0.955766	0.174176
C231	C	1.373306	1.289099	0.507509
C232	C	0.677882	0.598990	-0.187854
C233	C	1.011215	0.932324	0.145479
C234	C	1.344549	1.265657	0.478812
C235	C	0.649140	0.622463	-0.216557
C236	C	0.982474	0.955797	0.116777
C237	C	1.315807	1.289130	0.450110
C238	C	0.591656	0.669407	-0.273969
C239	C	0.924989	1.002740	0.059364
C240	C	1.258323	1.336074	0.392697
C241	C	0.591646	0.622486	-0.273964
C242	C	0.924979	0.955819	0.059370
C243	C	1.258313	1.289153	0.392703
C244	C	0.620390	0.599013	-0.245259
C245	C	0.953723	0.932346	0.088075
C246	C	1.287057	1.265680	0.421408
C247	C	0.620367	0.552106	-0.245248
C248	C	0.953700	0.885439	0.088086
C249	C	1.287033	1.218772	0.421419
N250	N	0.649112	0.528630	-0.216548
N251	N	0.982445	0.861963	0.116786
N252	N	1.315778	1.195297	0.450119
C253	C	0.677869	0.552072	-0.187851
C254	C	1.011203	0.885406	0.145482
C255	C	1.344536	1.218739	0.478816
C256	C	0.620494	0.979055	-0.245289
C257	C	0.953828	1.312388	0.088045
C258	C	1.287161	1.645721	0.421378
C259	C	0.620507	1.025973	-0.245292
C260	C	0.953840	1.359306	0.088041
C261	C	1.287174	1.692639	0.421375
C262	C	0.678012	1.025939	-0.187893
C263	C	1.011345	1.359273	0.145441
C264	C	1.344678	1.692606	0.478774
C265	C	0.677996	0.979021	-0.187887
C266	C	1.011330	1.312354	0.145446
C267	C	1.344663	1.645687	0.478779
C268	C	0.649239	0.955579	-0.216589
C269	C	0.982573	1.288913	0.116745
C270	C	1.315906	1.622246	0.450078
C271	C	0.677834	0.453547	-0.187841
C272	C	1.011167	0.786880	0.145493
C273	C	1.344500	1.120213	0.478826
C274	C	0.677814	0.406627	-0.187836
C275	C	1.011147	0.739960	0.145497
C276	C	1.344481	1.073294	0.478831
C277	C	0.620311	0.406664	-0.245237
C278	C	0.953644	0.739998	0.088097
C279	C	1.286978	1.073331	0.421430
C280	C	0.620329	0.453580	-0.245240
C281	C	0.953662	0.786913	0.088093
C282	C	1.286996	1.120246	0.421427
C283	C	0.649094	0.477020	-0.216540
C284	C	0.982427	0.810353	0.116793
C285	C	1.315761	1.143686	0.450126
O286	O	0.595912	0.527818	-0.269629
O287	O	0.929245	0.861151	0.063704
O288	O	1.262578	1.194484	0.397038
O289	O	0.702318	0.527791	-0.163447
O290	O	1.035651	0.861124	0.169886
O291	O	1.368984	1.194457	0.503220
C292	C	0.677930	0.739737	-0.187872
C293	C	1.011263	1.073070	0.145462
C294	C	1.344596	1.406403	0.478795
C295	C	0.649188	0.763210	-0.216574
C296	C	0.982521	1.096543	0.116759
C297	C	1.315855	1.429876	0.450093
C298	C	0.620430	0.739767	-0.245271
C299	C	0.953764	1.073101	0.088063
C300	C	1.287097	1.406434	0.421396
C301	C	0.649200	0.810128	-0.216578
C302	C	0.982534	1.143461	0.116756
C303	C	1.315867	1.476794	0.450089
C304	C	0.677958	0.833570	-0.187881
C305	C	1.011291	1.166903	0.145452
C306	C	1.344625	1.500237	0.478786
C307	C	0.706703	0.810094	-0.159181
C308	C	1.040037	1.143428	0.174152
C309	C	1.373370	1.476761	0.507486
C310	C	0.706687	0.763179	-0.159175
C311	C	1.040021	1.096512	0.174158
C312	C	1.373354	1.429846	0.507492
C313	C	0.591685	0.763243	-0.273971
C314	C	0.925018	1.096576	0.059363
C315	C	1.258352	1.429910	0.392696
C316	C	0.591703	0.810158	-0.273974
C317	C	0.925036	1.143492	0.059360
C318	C	1.258370	1.476825	0.392693
C319	C	0.620461	0.833601	-0.245277
C320	C	0.953794	1.166934	0.088056
C321	C	1.287127	1.500267	0.421389
C322	C	0.677935	0.187718	-0.693325
C323	C	1.011268	0.521051	-0.359991
C324	C	1.344602	0.854385	-0.026658
C325	C	0.677957	0.187680	-0.880998
C326	C	1.011291	0.521013	-0.547665
C327	C	1.344624	0.854346	-0.214331
O328	O	0.702399	0.163232	-0.905279
O329	O	1.035733	0.496565	-0.571946
O330	O	1.369066	0.829899	-0.238612
N331	N	0.649208	0.216402	-0.904448
N332	N	0.982541	0.549735	-0.571114
N333	N	1.315875	0.883068	-0.237781
C334	C	0.620449	0.245133	-0.880976
C335	C	0.953782	0.578467	-0.547643
C336	C	1.287115	0.911800	-0.214310
O337	O	0.595993	0.269559	-0.905228
O338	O	0.929326	0.602892	-0.571895
O339	O	1.262659	0.936226	-0.238561
C340	C	0.620424	0.245169	-0.693304
C341	C	0.953758	0.578502	-0.359971
C342	C	1.287091	0.911836	-0.026637
C343	C	0.649179	0.216448	-0.669857
C344	C	0.982512	0.549782	-0.336523
C345	C	1.315846	0.883115	-0.003190
C346	C	0.706687	0.158999	-0.669877
C347	C	1.040020	0.492333	-0.336544
C348	C	1.373354	0.825666	-0.003211
C349	C	0.706683	0.159011	-0.622962
C350	C	1.040016	0.492344	-0.289629
C351	C	1.373349	0.825677	0.043705
C352	C	0.677927	0.187741	-0.599494
C353	C	1.011260	0.521074	-0.266160
C354	C	1.344593	0.854408	0.067173
C355	C	0.649175	0.216460	-0.622941
C356	C	0.982508	0.549793	-0.289608
C357	C	1.315842	0.883126	0.043726
C358	C	0.591663	0.273898	-0.669833
C359	C	0.924997	0.607231	-0.336500
C360	C	1.258330	0.940565	-0.003167
C361	C	0.591659	0.273903	-0.622912
C362	C	0.924992	0.607237	-0.289579
C363	C	1.258326	0.940570	0.043754
C364	C	0.620414	0.245183	-0.599465
C365	C	0.953747	0.578516	-0.266132
C366	C	1.287080	0.911849	0.067202
C367	C	0.620415	0.245202	-0.552558
C368	C	0.953748	0.578535	-0.219224
C369	C	1.287081	0.911868	0.114109
N370	N	0.649164	0.216480	-0.529108
N371	N	0.982498	0.549813	-0.195774
N372	N	1.315831	0.883146	0.137559
C373	C	0.677920	0.187749	-0.552576
C374	C	1.011254	0.521083	-0.219243
C375	C	1.344587	0.854416	0.114091
C376	C	0.620464	0.245113	-0.979507
C377	C	0.953797	0.578446	-0.646173
C378	C	1.287131	0.911780	-0.312840
C379	C	0.620471	0.245105	-1.026425
C380	C	0.953804	0.578438	-0.693091
C381	C	1.287137	0.911771	-0.359758
C382	C	0.677979	0.187650	-1.026443
C383	C	1.011312	0.520984	-0.693110
C384	C	1.344645	0.854317	-0.359777
C385	C	0.677974	0.187661	-0.979524
C386	C	1.011308	0.520995	-0.646191
C387	C	1.344641	0.854328	-0.312858
C388	C	0.649214	0.216391	-0.956057
C389	C	0.982547	0.549724	-0.622724
C390	C	1.315880	0.883058	-0.289390
C391	C	0.677910	0.187776	-0.454050
C392	C	1.011243	0.521109	-0.120717
C393	C	1.344576	0.854443	0.212617
C394	C	0.677904	0.187792	-0.407130
C395	C	1.011238	0.521125	-0.073797
C396	C	1.344571	0.854458	0.259536
C397	C	0.620395	0.245244	-0.407116
C398	C	0.953728	0.578577	-0.073783
C399	C	1.287061	0.911911	0.259551
C400	C	0.620401	0.245230	-0.454032
C401	C	0.953735	0.578564	-0.120698
C402	C	1.287068	0.911897	0.212635
C403	C	0.649161	0.216493	-0.477497
C404	C	0.982494	0.549826	-0.144164
C405	C	1.315827	0.883160	0.189169
O406	O	0.595982	0.269633	-0.528248
O407	O	0.929315	0.602966	-0.194914
O408	O	1.262649	0.936300	0.138419
O409	O	0.702366	0.163320	-0.528316
O410	O	1.035699	0.496654	-0.194983
O411	O	1.369032	0.829987	0.138350
C412	C	0.677939	0.187706	-0.740240
C413	C	1.011273	0.521040	-0.406907
C414	C	1.344606	0.854373	-0.073574
C415	C	0.649187	0.216425	-0.763688
C416	C	0.982521	0.549758	-0.430354
C417	C	1.315854	0.883092	-0.097021
C418	C	0.620431	0.245155	-0.740219
C419	C	0.953765	0.578489	-0.406886
C420	C	1.287098	0.911822	-0.073553
C421	C	0.649194	0.216417	-0.810605
C422	C	0.982527	0.549750	-0.477272
C423	C	1.315861	0.883083	-0.143939
C424	C	0.677950	0.187686	-0.834074
C425	C	1.011283	0.521020	-0.500740
C426	C	1.344617	0.854353	-0.167407
C427	C	0.706699	0.158964	-0.810624
C428	C	1.040033	0.492298	-0.477291
C429	C	1.373366	0.825631	-0.143957
C430	C	0.706695	0.158976	-0.763708
C431	C	1.040029	0.492309	-0.430375
C432	C	1.373362	0.825643	-0.097042
C433	C	0.591682	0.273877	-0.763669
C434	C	0.925015	0.607211	-0.430336
C435	C	1.258349	0.940544	-0.097002
C436	C	0.591689	0.273864	-0.810585
C437	C	0.925022	0.607197	-0.477251
C438	C	1.258355	0.940530	-0.143918
C439	C	0.620445	0.245133	-0.834053
C440	C	0.953778	0.578467	-0.500719
C441	C	1.287111	0.911800	-0.167386
C442	C	0.649145	0.216499	-0.099827
C443	C	0.982478	0.549833	0.233506
C444	C	1.315811	0.883166	0.566840
C445	C	0.649227	0.216374	-0.049893
C446	C	0.982560	0.549708	0.283440
C447	C	1.315893	0.883041	0.616774
H448	H	0.478110	0.268721	-0.268545
H449	H	0.811443	0.602055	0.064788
H450	H	1.144776	0.935388	0.398121
H451	H	0.597097	1.045080	-0.268662
H452	H	0.930430	1.378414	0.064671
H453	H	1.263763	1.711747	0.398004
Br454	Br	0.552665	0.312850	-0.842400
Br455	Br	0.885998	0.646183	-0.509067
Br456	Br	1.219331	0.979516	-0.175733
H457	H	0.568292	0.829266	-0.297349
H458	H	0.901626	1.162599	0.035985
H459	H	1.234959	1.495933	0.369318
H460	H	0.393001	0.268723	-0.268566
H461	H	0.726334	0.602056	0.064767
H462	H	1.059668	0.935389	0.398100
H463	H	0.121547	0.135551	-0.135861
H464	H	0.454880	0.468885	0.197472
H465	H	0.788213	0.802218	0.530805
H466	H	0.596984	0.268637	-0.388000
H467	H	0.930317	0.601970	-0.054666
H468	H	1.263650	0.935304	0.278667
H469	H	0.568265	0.297274	-0.744566
H470	H	0.901599	0.630607	-0.411233
H471	H	1.234932	0.963941	-0.077899
Br472	Br	0.552623	0.312894	-0.591066
Br473	Br	0.885956	0.646228	-0.257733
Br474	Br	1.219289	0.979561	0.075600
Br475	Br	0.581381	0.284212	-0.485854
Br476	Br	0.914714	0.617545	-0.152521
Br477	Br	1.248047	0.950879	0.180813
Br478	Br	0.716937	0.148772	-0.485889
Br479	Br	1.050270	0.482105	-0.152556
Br480	Br	1.383604	0.815438	0.180777
H481	H	-0.094283	0.164339	-0.164556
H482	H	0.239051	0.497673	0.168778
H483	H	0.572384	0.831006	0.502111
H484	H	0.701402	0.959912	-0.164514
H485	H	1.034736	1.293245	0.168820
H486	H	1.368069	1.626578	0.502153
Br487	Br	0.745658	0.590584	-0.120205
Br488	Br	1.078991	0.923917	0.213128
Br489	Br	1.412324	1.257250	0.546461
H490	H	0.262285	0.297506	-0.297258
H491	H	0.595618	0.630840	0.036076
H492	H	0.928951	0.964173	0.369409
H493	H	0.596895	0.387570	-0.268600
H494	H	0.930229	0.720903	0.064733
H495	H	1.263562	1.054237	0.398067
Br496	Br	0.275042	0.119906	-0.120281
Br497	Br	0.608375	0.453240	0.213052
Br498	Br	0.941708	0.786573	0.546386
H499	H	0.177180	0.297509	-0.297271
H500	H	0.510513	0.630842	0.036063
H501	H	0.843847	0.964176	0.369396
Br502	Br	0.745706	0.120028	-0.591148
Br503	Br	1.079040	0.453361	-0.257815
Br504	Br	1.412373	0.786695	0.075519
Br505	Br	0.552639	0.312881	-0.701643
Br506	Br	0.885973	0.646215	-0.368309
Br507	Br	1.219306	0.979548	-0.034976
H508	H	-0.094285	0.268759	-0.268619
H509	H	0.239048	0.602092	0.064714
H510	H	0.572382	0.935425	0.398047
H511	H	0.730110	0.135588	-0.744622
H512	H	1.063443	0.468922	-0.411288
H513	H	1.396777	0.802255	-0.077955
Br514	Br	0.490859	0.148686	-0.148915
Br515	Br	0.824192	0.482019	0.184418
Br516	Br	1.157526	0.815352	0.517751
Br517	Br	0.581463	0.947248	-0.284244
Br518	Br	0.914796	1.280581	0.049089
Br519	Br	1.248129	1.613915	0.382423
H520	H	0.597044	0.268511	-0.960404
H521	H	0.930377	0.601844	-0.627071
H522	H	1.263711	0.935178	-0.293737
H523	H	0.392998	0.164309	-0.164496
H524	H	0.726331	0.497643	0.168838
H525	H	1.059664	0.830976	0.502171
H526	H	0.121538	0.297512	-0.297278
H527	H	0.454872	0.630846	0.036055
H528	H	0.788205	0.964179	0.369389
Br529	Br	0.745727	0.119976	-0.842483
Br530	Br	1.079061	0.453309	-0.509150
Br531	Br	1.412394	0.786643	-0.175816
Br532	Br	0.716825	0.374773	-0.148876
Br533	Br	1.050158	0.708107	0.184458
Br534	Br	1.383492	1.041440	0.517791
Br535	Br	0.745690	0.701154	-0.120214
Br536	Br	1.079024	1.034487	0.213120
Br537	Br	1.412357	1.367820	0.546453
H538	H	-0.179407	0.268759	-0.268628
H539	H	0.153926	0.602093	0.064706
H540	H	0.487260	0.935426	0.398039
H541	H	0.701427	1.045034	-0.164527
H542	H	1.034761	1.378367	0.168806
H543	H	1.368094	1.711701	0.502140
Br544	Br	-0.192123	0.148732	-0.148991
Br545	Br	0.141210	0.482065	0.184343
Br546	Br	0.474543	0.815399	0.517676
H547	H	0.036420	0.297513	-0.297286
H548	H	0.369754	0.630846	0.036048
H549	H	0.703087	0.964180	0.369381
Br550	Br	0.164465	0.119912	-0.120289
Br551	Br	0.497799	0.453245	0.213044
Br552	Br	0.831132	0.786578	0.546378
Br553	Br	0.023708	0.119933	-0.120303
Br554	Br	0.357041	0.453267	0.213030
Br555	Br	0.690375	0.786600	0.546363
H556	H	0.701258	0.472626	-0.164472
H557	H	1.034591	0.805959	0.168862
H558	H	1.367924	1.139293	0.502195
Br559	Br	0.581453	0.284093	-1.058240
Br560	Br	0.914787	0.617426	-0.724907
Br561	Br	1.248120	0.950760	-0.391574
H562	H	0.568248	0.688511	-0.297342
H563	H	0.901581	1.021844	0.035991
H564	H	1.234914	1.355178	0.369325
Br565	Br	0.552654	0.731436	-0.312921
Br566	Br	0.885987	1.064769	0.020412
Br567	Br	1.219320	1.398102	0.353746
H568	H	0.568229	0.603402	-0.297337
H569	H	0.901562	0.936736	0.035996
H570	H	1.234896	1.270069	0.369330
H571	H	0.701321	0.164403	-0.388042
H572	H	1.034655	0.497737	-0.054708
H573	H	1.367988	0.831070	0.278625
H574	H	0.596925	0.472692	-0.268615
H575	H	0.930258	0.806026	0.064718
H576	H	1.263591	1.139359	0.398051
H577	H	0.730093	0.744071	-0.135801
H578	H	1.063427	1.077404	0.197532
H579	H	1.396760	1.410737	0.530866
H580	H	0.730117	0.829189	-0.135814
H581	H	1.063451	1.162523	0.197519
H582	H	1.396784	1.495856	0.530853
Br583	Br	0.745724	0.120008	-0.701718
Br584	Br	1.079057	0.453341	-0.368385
Br585	Br	1.412391	0.786675	-0.035052
H586	H	0.701393	0.164257	-1.045559
H587	H	1.034727	0.497591	-0.712226
H588	H	1.368060	0.830924	-0.378892
Br589	Br	0.716999	0.148682	-0.947708
Br590	Br	1.050333	0.482015	-0.614375
Br591	Br	1.383666	0.815349	-0.281041
