data_functionalizedCrystal
_audit_creation_method	'MofGen! by Chris Wilmer'
_symmetry_space_group_name_H-M	'P1'
_symmetry_Int_Tables_number	1
_symmetry_cell_setting	triclinic
loop_
_symmetry_equiv_pos_as_xyz
  x,y,z
_cell_length_a	14.908571
_cell_length_b	16.959453
_cell_length_c	14.909227
_cell_angle_alpha	86.673128
_cell_angle_beta	83.209827
_cell_angle_gamma	86.716085
loop_
_atom_site_label
_atom_site_type_symbol
_atom_site_fract_x
_atom_site_fract_y
_atom_site_fract_z
Zn1	Zn	1.413375	-0.356325	-0.591512
Zn2	Zn	1.913375	0.143675	-0.091512
Zn3	Zn	1.404535	-0.495724	-0.440138
Zn4	Zn	1.904535	0.004276	0.059862
Zn5	Zn	1.253268	-0.356343	-0.431443
Zn6	Zn	1.753268	0.143657	0.068557
Zn7	Zn	1.261975	-0.481243	-0.582741
Zn8	Zn	1.761975	0.018757	-0.082741
O9	O	1.333288	-0.422409	-0.511458
O10	O	1.833288	0.077591	-0.011458
O11	O	1.538869	-0.380870	-0.578742
O12	O	2.038869	0.119130	-0.078742
O13	O	1.377126	-0.483302	-0.312316
O14	O	1.877126	0.016698	0.187684
O15	O	1.274562	-0.245731	-0.452708
O16	O	1.774562	0.254269	0.047292
O17	O	1.532375	-0.483285	-0.467528
O18	O	2.032375	0.016715	0.032472
O19	O	1.392192	-0.245718	-0.570310
O20	O	1.892192	0.254282	-0.070310
O21	O	1.265991	-0.380900	-0.305927
O22	O	1.765991	0.119100	0.194073
O23	O	1.127756	-0.366859	-0.444203
O24	O	1.627756	0.133141	0.055797
O25	O	1.289401	-0.458605	-0.710573
O26	O	1.789401	0.041395	-0.210573
O27	O	1.134152	-0.458622	-0.555361
O28	O	1.634152	0.041378	-0.055361
O29	O	1.400634	-0.366828	-0.717017
O30	O	1.900634	0.133172	-0.217017
O31	O	1.385569	-0.604412	-0.459023
O32	O	1.885569	-0.104412	0.040977
O33	O	1.280830	-0.593774	-0.563793
O34	O	1.780830	-0.093774	-0.063793
C35	C	1.098111	-0.411172	-0.497887
C36	C	1.598111	0.088828	0.002113
C37	C	0.997502	-0.406382	-0.492103
C38	C	1.497502	0.093618	0.007897
C39	C	0.815148	-0.493100	-0.596827
C40	C	1.315148	0.006900	-0.096827
C41	C	0.720617	-0.488603	-0.591395
C42	C	1.220617	0.011397	-0.091395
C43	C	0.713908	-0.392886	-0.475813
C44	C	1.213908	0.107114	0.024187
C45	C	0.808439	-0.397383	-0.481245
C46	C	1.308439	0.102617	0.018755
C47	C	0.859055	-0.447493	-0.541753
C48	C	1.359055	0.052507	-0.041753
C49	C	0.953587	-0.451995	-0.547179
C50	C	1.453587	0.048005	-0.047179
C51	C	0.946877	-0.356274	-0.431602
C52	C	1.446877	0.143726	0.068398
C53	C	0.852347	-0.351776	-0.426170
C54	C	1.352347	0.148224	0.073830
C55	C	1.333211	-0.627773	-0.511421
C56	C	1.833211	-0.127773	-0.011421
C57	C	1.333262	-0.715631	-0.511440
C58	C	1.833262	-0.215631	-0.011440
C59	C	1.394618	-1.087040	-0.572807
C60	C	1.894618	-0.587040	-0.072807
C61	C	1.272218	-1.087180	-0.450258
C62	C	1.772218	-0.587180	0.049742
C63	C	1.272184	-1.004633	-0.450236
C64	C	1.772184	-0.504633	0.049764
C65	C	1.333366	-0.963286	-0.511501
C66	C	1.833366	-0.463286	-0.011501
C67	C	1.394584	-1.004486	-0.572788
C68	C	1.894584	-0.504486	-0.072788
C69	C	1.210961	-0.963427	-0.388955
C70	C	1.710961	-0.463427	0.111045
C71	C	1.210924	-0.880876	-0.388931
C72	C	1.710924	-0.380876	0.111069
C73	C	1.272111	-0.839528	-0.450192
C74	C	1.772111	-0.339528	0.049808
C75	C	1.333332	-0.880732	-0.511482
C76	C	1.833332	-0.380732	-0.011482
C77	C	1.394514	-0.839385	-0.572747
C78	C	1.894514	-0.339385	-0.072747
C79	C	1.455740	-0.880589	-0.634032
C80	C	1.955740	-0.380589	-0.134032
C81	C	1.455771	-0.963138	-0.634050
C82	C	1.955771	-0.463138	-0.134050
C83	C	1.272080	-0.756978	-0.450175
C84	C	1.772080	-0.256978	0.049825
C85	C	1.394479	-0.756831	-0.572728
C86	C	1.894479	-0.256831	-0.072728
C87	C	1.569384	-0.433690	-0.525083
C88	C	2.069384	0.066310	-0.025083
C89	C	1.669994	-0.438498	-0.530889
C90	C	2.169994	0.061502	-0.030889
C91	C	1.346975	-0.411099	-0.747558
C92	C	1.846975	0.088901	-0.247558
C93	C	1.352807	-0.406280	-0.848169
C94	C	1.852807	0.093720	-0.348169
C95	C	1.333392	-0.216243	-0.511517
C96	C	1.833392	0.283757	-0.011517
C97	C	1.333436	-0.128387	-0.511542
C98	C	1.833436	0.371613	-0.011542
C99	C	1.418934	-0.351710	-0.993332
C100	C	1.918934	0.148290	-0.493332
C101	C	1.413459	-0.356235	-0.898799
C102	C	1.913459	0.143765	-0.398799
C103	C	1.297629	-0.451805	-0.892079
C104	C	1.797629	0.048195	-0.392079
C105	C	1.303104	-0.447279	-0.986612
C106	C	1.803104	0.052721	-0.486612
C107	C	1.363758	-0.397229	-1.037235
C108	C	1.863758	0.102771	-0.537235
C109	C	1.369228	-0.392700	-1.131770
C110	C	1.869228	0.107300	-0.631770
C111	C	1.253403	-0.488274	-1.125048
C112	C	1.753403	0.011726	-0.625048
C113	C	1.247928	-0.492799	-1.030515
C114	C	1.747928	0.007201	-0.530515
C115	C	1.319707	-0.433620	-0.276281
C116	C	1.819707	0.066380	0.223719
C117	C	1.314050	-0.438225	-0.175680
C118	C	1.814050	0.061775	0.324320
H119	H	0.672681	-0.352084	-0.426556
H120	H	1.172681	0.147916	0.073444
Cl121	Cl	1.445470	-0.329774	-1.195410
Cl122	Cl	1.945470	0.170226	-0.695410
H123	H	1.505617	-0.996693	-0.683946
H124	H	2.005617	-0.496693	-0.183946
Cl125	Cl	1.171682	-0.555715	-0.966866
Cl126	Cl	1.671682	-0.055715	-0.466866
Cl127	Cl	1.471586	-1.138836	-0.649846
Cl128	Cl	1.971586	-0.638836	-0.149846
H129	H	1.222227	-0.723434	-0.400281
H130	H	1.722227	-0.223434	0.099719
H131	H	1.468311	-0.310948	-1.034550
H132	H	1.968311	0.189052	-0.534550
H133	H	1.208465	-0.525330	-1.160804
H134	H	1.708465	-0.025330	-0.660804
H135	H	1.222403	-1.120849	-0.400383
H136	H	1.722403	-0.620849	0.099617
Cl137	Cl	1.017218	-0.514991	-0.623243
Cl138	Cl	1.517218	-0.014991	-0.123243
Cl139	Cl	1.482828	-0.299009	-0.843609
Cl140	Cl	1.982828	0.200991	-0.343609
Cl141	Cl	1.002081	-0.298943	-0.362354
Cl142	Cl	1.502081	0.201057	0.137646
Cl143	Cl	1.221387	-0.514721	-0.828423
Cl144	Cl	1.721387	-0.014721	-0.328423
H145	H	1.444305	-0.723171	-0.622614
H146	H	1.944305	-0.223171	-0.122614
H147	H	1.505551	-0.846914	-0.683919
H148	H	2.005551	-0.346914	-0.183919
H149	H	1.161148	-0.997098	-0.339079
H150	H	1.661148	-0.497098	0.160921
Cl151	Cl	1.133955	-0.829084	-0.311889
Cl152	Cl	1.633955	-0.329084	0.188111
H153	H	0.684871	-0.525739	-0.636244
H154	H	1.184871	-0.025739	-0.136244
Cl155	Cl	0.788707	-0.288782	-0.350111
Cl156	Cl	1.288707	0.211218	0.149889
Cl157	Cl	0.878782	-0.556102	-0.672882
Cl158	Cl	1.378782	-0.056102	-0.172882
