data_functionalizedCrystal
_audit_creation_method	'MofGen! by Chris Wilmer'
_symmetry_space_group_name_H-M	'P1'
_symmetry_Int_Tables_number	1
_symmetry_cell_setting	triclinic
loop_
_symmetry_equiv_pos_as_xyz
  x,y,z
_cell_length_a	16.098538
_cell_length_b	17.699083
_cell_length_c	17.019370
_cell_angle_alpha	96.661380
_cell_angle_beta	83.407930
_cell_angle_gamma	87.272911
loop_
_atom_site_label
_atom_site_type_symbol
_atom_site_fract_x
_atom_site_fract_y
_atom_site_fract_z
O1	O	0.062215	-1.007192	0.096581
O2	O	0.562215	-0.507192	0.596581
O3	O	0.061309	-0.786778	0.109605
O4	O	0.561309	-0.286778	0.609605
O5	O	0.070019	-0.903537	-0.012171
O6	O	0.570019	-0.403537	0.487829
O7	O	0.053505	-0.890432	0.218357
O8	O	0.553505	-0.390432	0.718357
O9	O	-0.069001	-0.896717	-0.005085
O10	O	0.430999	-0.396717	0.494915
O11	O	-0.077711	-0.779957	0.116691
O12	O	0.422289	-0.279957	0.616691
O13	O	-0.076804	-1.000371	0.103666
O14	O	0.423196	-0.500371	0.603666
Zn15	Zn	-0.099330	-0.889081	0.111304
Zn16	Zn	0.400670	-0.389081	0.611304
Zn17	Zn	0.083835	-0.898067	0.101968
Zn18	Zn	0.583835	-0.398067	0.601968
O19	O	-0.085514	-0.883612	0.225442
O20	O	0.414486	-0.383612	0.725442
C21	C	-0.008164	-0.755172	0.112681
C22	C	0.491836	-0.255172	0.612681
C23	C	-0.008053	-0.671158	0.111280
C24	C	0.491947	-0.171158	0.611280
N25	N	-0.224335	-0.882954	0.117675
N26	N	0.275665	-0.382954	0.617675
C27	C	0.002624	-0.899764	-0.038124
C28	C	0.502624	-0.399764	0.461876
C29	C	0.008926	-0.898675	-0.126011
C30	C	0.508926	-0.398675	0.373989
C31	C	-0.264224	-0.932529	0.066006
C32	C	0.235776	-0.432529	0.566006
C33	C	-0.351733	-0.928250	0.070470
C34	C	0.148267	-0.428250	0.570470
C35	C	-0.399350	-0.874398	0.126607
C36	C	0.100650	-0.374398	0.626607
C37	C	-0.359455	-0.824818	0.178278
C38	C	0.140545	-0.324818	0.678278
C39	C	-0.271948	-0.829094	0.173809
C40	C	0.228052	-0.329094	0.673809
C41	C	-0.663758	-0.858896	0.142793
C42	C	-0.163758	-0.358896	0.642793
C43	C	-0.751271	-0.854625	0.147259
C44	C	-0.251271	-0.354625	0.647259
C45	C	-0.743542	-0.958057	0.039450
C46	C	-0.243542	-0.458057	0.539450
C47	C	-0.656034	-0.962332	0.034989
C48	C	-0.156034	-0.462332	0.534989
C49	C	-0.616146	-0.912749	0.086657
C50	C	-0.116146	-0.412749	0.586657
C51	C	-0.488798	-0.870025	0.131174
C52	C	0.011202	-0.370025	0.631174
C53	C	-0.526700	-0.917119	0.082087
C54	C	-0.026700	-0.417119	0.582087
N55	N	0.208840	-0.904201	0.095591
N56	N	0.708840	-0.404201	0.595591
C57	C	-0.007330	-1.031977	0.100590
C58	C	0.492670	-0.531977	0.600590
C59	C	-0.007435	-1.115991	0.101991
C60	C	0.492565	-0.615991	0.601991
C61	C	-0.013174	-0.622335	0.182761
C62	C	0.486826	-0.122335	0.682761
C63	C	-0.013090	-0.543395	0.181441
C64	C	0.486910	-0.043395	0.681441
C65	C	-0.007880	-0.513280	0.108639
C66	C	0.492120	-0.013280	0.608639
C67	C	-0.002761	-0.562109	0.037154
C68	C	0.497239	-0.062109	0.537154
C69	C	-0.002851	-0.641048	0.038475
C70	C	0.497149	-0.141048	0.538475
C71	C	-0.002400	-0.243760	0.031825
C72	C	0.497600	0.256240	0.531825
C73	C	-0.002308	-0.164816	0.030509
C74	C	0.497692	0.335184	0.530509
C75	C	-0.012639	-0.146108	0.174791
C76	C	0.487361	0.353892	0.674791
C77	C	-0.012729	-0.225046	0.176112
C78	C	0.487271	0.274954	0.676112
C79	C	-0.007615	-0.273868	0.104627
C80	C	0.492385	0.226132	0.604627
C81	C	-0.007707	-0.359464	0.106059
C82	C	0.492293	0.140536	0.606059
C83	C	-0.007781	-0.427686	0.107206
C84	C	0.492219	0.072314	0.607206
C85	C	-0.063889	-0.894444	-0.163446
C86	C	0.436111	-0.394444	0.336554
C87	C	-0.057961	-0.893425	-0.246027
C88	C	0.442039	-0.393425	0.253973
C89	C	0.020784	-0.896632	-0.291171
C90	C	0.520784	-0.396632	0.208829
C91	C	0.093605	-0.900866	-0.253731
C92	C	0.593605	-0.400866	0.246269
C93	C	0.087675	-0.901890	-0.171153
C94	C	0.587675	-0.401890	0.328847
C95	C	0.042478	-0.893732	-0.540699
C96	C	0.542478	-0.393732	-0.040699
C97	C	0.048401	-0.892706	-0.623283
C98	C	0.548401	-0.392706	-0.123283
C99	C	-0.103165	-0.885266	-0.615573
C100	C	0.396835	-0.385266	-0.115573
C101	C	-0.109087	-0.886285	-0.532992
C102	C	0.390913	-0.386285	-0.032992
C103	C	-0.036266	-0.890523	-0.495560
C104	C	0.463734	-0.390523	0.004440
C105	C	0.026846	-0.895589	-0.375582
C106	C	0.526846	-0.395589	0.124418
C107	C	-0.042329	-0.891572	-0.411152
C108	C	0.457671	-0.391572	0.088848
C109	C	-0.018118	-0.887385	0.251395
C110	C	0.481882	-0.387385	0.751395
C111	C	-0.024414	-0.888474	0.339283
C112	C	0.475586	-0.388474	0.839283
H113	H	-0.225460	-0.976384	0.020297
H114	H	0.274540	-0.476384	0.520297
C115	C	0.113463	-0.899110	-0.425247
C116	C	0.613463	-0.399110	0.074753
N117	N	0.178703	-0.901761	-0.462658
N118	N	0.678703	-0.401761	0.037342
H119	H	-0.162451	-0.881816	-0.646059
H120	H	0.337549	-0.381816	-0.146059
C121	C	-0.018276	-0.092395	0.253428
C122	C	0.481724	0.407605	0.753428
N123	N	-0.022521	-0.051941	0.312655
N124	N	0.477479	0.448059	0.812655
C125	C	-0.018466	-0.258167	0.256199
C126	C	0.481534	0.241833	0.756199
N127	N	-0.022793	-0.283112	0.316523
N128	N	0.477207	0.216888	0.816523
C129	C	0.003231	-0.297455	-0.046812
C130	C	0.503231	0.202545	0.453188
N131	N	0.007474	-0.337901	-0.106044
N132	N	0.507474	0.162099	0.393956
H133	H	-0.128012	-0.891819	-0.126693
H134	H	0.371988	-0.391819	0.373307
H135	H	-0.776027	-0.998425	-0.002617
H136	H	-0.276027	-0.498425	0.497383
H137	H	0.112528	-0.895310	-0.660036
H138	H	0.612528	-0.395310	-0.160036
C139	C	-0.603661	-1.021569	-0.026770
C140	C	-0.103661	-0.521569	0.473230
N141	N	-0.564213	-1.066188	-0.073287
N142	N	-0.064213	-0.566188	0.426713
C143	C	0.003414	-0.131692	-0.049581
C144	C	0.503414	0.368308	0.450419
N145	N	0.007722	-0.106742	-0.109902
N146	N	0.507722	0.393258	0.390098
C147	C	0.002969	-0.528980	-0.042929
C148	C	0.502969	-0.028980	0.457071
N149	N	0.007288	-0.504028	-0.103249
N150	N	0.507288	-0.004028	0.396751
C151	C	0.167778	-0.906543	-0.129975
C152	C	0.667778	-0.406543	0.370025
N153	N	0.228114	-0.910049	-0.098961
N154	N	0.728114	-0.410049	0.401039
H155	H	-0.631288	-0.818525	0.184864
H156	H	-0.131288	-0.318525	0.684864
C157	C	0.002785	-0.694754	-0.040160
C158	C	0.502785	-0.194754	0.459840
N159	N	0.007028	-0.735204	-0.099389
N160	N	0.507028	-0.235204	0.400611
H161	H	-0.117255	-0.889983	-0.276503
H162	H	0.382745	-0.389983	0.223497
H163	H	-0.173209	-0.883690	-0.496244
H164	H	0.326791	-0.383690	0.003756
H165	H	0.101774	-0.897182	-0.510232
H166	H	0.601774	-0.397182	-0.010232
C167	C	0.180225	-0.904394	-0.303393
C168	C	0.680225	-0.404394	0.196607
N169	N	0.245469	-0.907048	-0.340797
N170	N	0.745469	-0.407048	0.159203
C171	C	-0.803649	-0.795380	0.209014
C172	C	-0.303649	-0.295380	0.709014
N173	N	-0.843099	-0.750758	0.255527
N174	N	-0.343099	-0.250758	0.755527
H175	H	-0.398230	-0.780967	0.223983
H176	H	0.101770	-0.280967	0.723983
C177	C	-0.128946	-0.888040	-0.361490
C178	C	0.371054	-0.388040	0.138510
N179	N	-0.194186	-0.885375	-0.324078
N180	N	0.305814	-0.385375	0.175922
H181	H	-0.384210	-0.968618	0.028397
H182	H	0.115790	-0.468618	0.528397
H183	H	-0.487927	-0.960963	0.036377
H184	H	0.012073	-0.460963	0.536377
C185	C	-0.228070	-0.774563	0.230655
C186	C	0.271930	-0.274563	0.730655
N187	N	-0.195023	-0.733489	0.273474
N188	N	0.304977	-0.233489	0.773474
H189	H	-0.527575	-0.826179	0.176883
H190	H	-0.027575	-0.326179	0.676883
H191	H	-0.017259	-0.503646	0.239648
H192	H	0.482741	-0.003646	0.739648
H193	H	-0.017416	-0.646848	0.242044
H194	H	0.482584	-0.146848	0.742044
