data_functionalizedCrystal
_audit_creation_method	'MofGen! by Chris Wilmer'
_symmetry_space_group_name_H-M	'P1'
_symmetry_Int_Tables_number	1
_symmetry_cell_setting	triclinic
loop_
_symmetry_equiv_pos_as_xyz
  x,y,z
_cell_length_a	18.215407
_cell_length_b	19.121459
_cell_length_c	18.215399
_cell_angle_alpha	87.533587
_cell_angle_beta	89.982632
_cell_angle_gamma	87.581879
loop_
_atom_site_label
_atom_site_type_symbol
_atom_site_fract_x
_atom_site_fract_y
_atom_site_fract_z
Zn1	Zn	1.137569	-0.279665	-0.403581
Zn2	Zn	1.142726	-0.397118	-0.275270
Zn3	Zn	1.014502	-0.279681	-0.280532
Zn4	Zn	1.019714	-0.397072	-0.398302
O5	O	1.078627	-0.338384	-0.339421
O6	O	1.241238	-0.295257	-0.386567
O7	O	1.125694	-0.381565	-0.172983
O8	O	1.026488	-0.181396	-0.301266
O9	O	1.245026	-0.381549	-0.292297
O10	O	1.116905	-0.181384	-0.391669
O11	O	1.031488	-0.295286	-0.176849
O12	O	0.912209	-0.295242	-0.296148
O13	O	1.035370	-0.381472	-0.501988
O14	O	0.916037	-0.381488	-0.382673
O15	O	1.121958	-0.295213	-0.505866
O16	O	1.130747	-0.495395	-0.287179
O17	O	1.040371	-0.495361	-0.377570
C18	C	0.887420	-0.338362	-0.339409
C19	C	0.805622	-0.338370	-0.339421
C20	C	0.615458	-0.293530	-0.388577
C21	C	0.538600	-0.293536	-0.388579
C22	C	0.542550	-0.383258	-0.290277
C23	C	0.619407	-0.383247	-0.290272
C24	C	0.655859	-0.338385	-0.339426
C25	C	0.502144	-0.338401	-0.339434
C26	C	0.418810	-0.338408	-0.339436
C27	C	0.739198	-0.338377	-0.339424
C28	C	1.086704	-0.520862	-0.331247
C29	C	1.090226	-0.598926	-0.327775
C30	C	1.112526	-1.040445	-0.305758
C31	C	1.109209	-0.967095	-0.309022
C32	C	1.060464	-0.930430	-0.357680
C33	C	1.015027	-0.967120	-0.403072
C34	C	1.018340	-1.040468	-0.399803
C35	C	1.048102	-0.708965	-0.369898
C36	C	1.044794	-0.635611	-0.373164
C37	C	1.138976	-0.635591	-0.279113
C38	C	1.142288	-0.708941	-0.275852
C39	C	1.096848	-0.745624	-0.321241
C40	C	1.057075	-0.855455	-0.361019
C41	C	1.100234	-0.820598	-0.317897
C42	C	1.270581	-0.338406	-0.339434
C43	C	1.352381	-0.338416	-0.339439
C44	C	1.078670	-0.338336	-0.531376
C45	C	1.078688	-0.338315	-0.613176
C46	C	1.070540	-0.155194	-0.347644
C47	C	1.067093	-0.077129	-0.351147
C48	C	1.123790	-0.293358	-0.803393
C49	C	1.123797	-0.293337	-0.880252
C50	C	1.033634	-0.383163	-0.876203
C51	C	1.033623	-0.383180	-0.799345
C52	C	1.078705	-0.338278	-0.762942
C53	C	1.078724	-0.338241	-0.916659
C54	C	1.078732	-0.338219	-0.999994
C55	C	1.078696	-0.338299	-0.679602
C56	C	1.078625	-0.338382	-0.148215
C57	C	1.078741	-0.338204	-0.066425
H58	H	0.512861	-0.419784	-0.250259
C59	C	1.195905	-0.749275	-0.222328
C60	C	1.255936	-0.799637	-0.252028
C61	C	1.309556	-0.839974	-0.198506
C62	C	1.303143	-0.829950	-0.115284
C63	C	1.243109	-0.779586	-0.085580
C64	C	1.189490	-0.739249	-0.139102
H65	H	1.260686	-0.807060	-0.313637
H66	H	1.353997	-0.877257	-0.220495
H67	H	1.342835	-0.859810	-0.075665
H68	H	1.238360	-0.772164	-0.023971
H69	H	1.145048	-0.701966	-0.117112
H70	H	0.996932	-0.419722	-0.905852
H71	H	0.652302	-0.419774	-0.250244
C72	C	0.984027	-0.432596	-0.754842
C73	C	0.934446	-0.481993	-0.794880
C74	C	0.884850	-0.531404	-0.750378
C75	C	0.884836	-0.531419	-0.665837
C76	C	0.934420	-0.482020	-0.625794
C77	C	0.984015	-0.432609	-0.670297
H78	H	0.934454	-0.481983	-0.857467
H79	H	0.848145	-0.567972	-0.780021
H80	H	0.848123	-0.567996	-0.632894
H81	H	0.934411	-0.482029	-0.563208
H82	H	1.020720	-0.396041	-0.640654
H83	H	1.175970	-0.605717	-0.242159
H84	H	0.645135	-0.256998	-0.428599
H85	H	0.505709	-0.257010	-0.428602
H86	H	1.017387	-0.825596	-0.400639
H87	H	0.981347	-1.070336	-0.436768
H88	H	1.152223	-1.070292	-0.266139
C89	C	0.991169	-0.595274	-0.426687
C90	C	0.931144	-0.544906	-0.396985
C91	C	0.877524	-0.504566	-0.450504
C92	C	0.883929	-0.514596	-0.533725
C93	C	0.943955	-0.564966	-0.563431
C94	C	0.997575	-0.605306	-0.509912
H95	H	0.926401	-0.537479	-0.335376
H96	H	0.833089	-0.467279	-0.428513
H97	H	0.844236	-0.484734	-0.573343
H98	H	0.948698	-0.572393	-0.625041
H99	H	1.042011	-0.642593	-0.531903
H100	H	1.146203	-0.937227	-0.272062
C101	C	0.998122	-0.749305	-0.419832
C102	C	0.914012	-0.739279	-0.414206
C103	C	0.864029	-0.779621	-0.464144
C104	C	0.898156	-0.829989	-0.519708
C105	C	0.982270	-0.840017	-0.525336
C106	C	1.032253	-0.799675	-0.475398
H107	H	0.888745	-0.701992	-0.373072
H108	H	0.801761	-0.772197	-0.459977
H109	H	0.861155	-0.859852	-0.556675
H110	H	1.007537	-0.877305	-0.566470
H111	H	1.094520	-0.807100	-0.479564
H112	H	1.160509	-0.256758	-0.913185
C113	C	1.153853	-0.860927	-0.264375
C114	C	1.147444	-0.850900	-0.181154
C115	C	1.201066	-0.891237	-0.127633
C116	C	1.261095	-0.941600	-0.157335
C117	C	1.267505	-0.951629	-0.240560
C118	C	1.213884	-0.911293	-0.294080
H119	H	1.103005	-0.813616	-0.159163
H120	H	1.196320	-0.883812	-0.066024
H121	H	1.300788	-0.971460	-0.117716
H122	H	1.311945	-0.988913	-0.262551
H123	H	1.218630	-0.918717	-0.355690
H124	H	1.160496	-0.256794	-0.773756
H125	H	0.975333	-0.937263	-0.442687
