data_functionalizedCrystal
_audit_creation_method	'MofGen! by Chris Wilmer'
_symmetry_space_group_name_H-M	'P1'
_symmetry_Int_Tables_number	1
_symmetry_cell_setting	triclinic
loop_
_symmetry_equiv_pos_as_xyz
  x,y,z
_cell_length_a	16.625548
_cell_length_b	16.959454
_cell_length_c	16.959455
_cell_angle_alpha	89.989418
_cell_angle_beta	90.002676
_cell_angle_gamma	89.978857
loop_
_atom_site_label
_atom_site_type_symbol
_atom_site_fract_x
_atom_site_fract_y
_atom_site_fract_z
Zn1	Zn	1.232551	0.314769	0.446951
Zn2	Zn	1.232502	0.446925	0.314781
Zn3	Zn	1.097755	0.314766	0.314786
Zn4	Zn	1.097689	0.446912	0.446917
O5	O	1.165125	0.380843	0.380859
O6	O	1.345377	0.332307	0.429431
O7	O	1.214635	0.429397	0.204171
O8	O	1.115685	0.204156	0.332335
O9	O	1.345341	0.429400	0.332326
O10	O	1.214719	0.204158	0.429436
O11	O	1.115637	0.332301	0.204175
O12	O	0.984914	0.332290	0.332302
O13	O	1.115572	0.429379	0.557533
O14	O	0.984866	0.429376	0.429378
O15	O	1.214655	0.332295	0.557558
O16	O	1.214571	0.557534	0.332293
O17	O	1.115524	0.557525	0.429373
C18	C	1.165057	0.586210	0.380846
C19	C	1.165102	0.674066	0.380866
C20	C	0.955634	0.380832	0.380837
C21	C	0.866013	0.380846	0.380846
C22	C	1.165111	0.380836	0.587027
C23	C	1.165106	0.380833	0.674884
C24	C	0.537837	0.380851	0.380880
C25	C	0.629146	0.380848	0.380868
C26	C	0.701922	0.380849	0.380863
C27	C	0.793236	0.380845	0.380852
C28	C	1.375434	0.380855	0.380882
C29	C	1.465055	0.380860	0.380891
C30	C	1.165214	0.174675	0.380890
C31	C	1.165253	0.086818	0.380903
C32	C	1.113626	1.045567	0.431403
C33	C	1.216848	1.045516	0.330396
C34	C	1.216820	0.962971	0.330388
C35	C	1.165193	0.921719	0.380888
C36	C	1.113594	0.963013	0.431396
C37	C	1.268412	0.921670	0.279876
C38	C	1.268385	0.839119	0.279866
C39	C	1.216762	0.797866	0.330371
C40	C	1.165162	0.839165	0.380881
C41	C	1.113535	0.797914	0.431381
C42	C	1.061938	0.839212	0.481896
C43	C	1.061971	0.921760	0.481900
C44	C	1.216729	0.715318	0.330366
C45	C	1.113503	0.715360	0.431374
C46	C	1.113530	0.431402	1.046349
C47	C	1.216706	0.330307	1.046370
C48	C	1.216703	0.330300	0.963824
C49	C	1.165114	0.380846	0.922537
C50	C	1.113527	0.431398	0.963795
C51	C	1.268294	0.279754	0.922560
C52	C	1.268294	0.279746	0.840009
C53	C	1.216700	0.330289	0.798720
C54	C	1.165111	0.380843	0.839983
C55	C	1.113522	0.431389	0.798696
C56	C	1.061928	0.481939	0.839958
C57	C	1.061933	0.481941	0.922506
C58	C	1.216695	0.330287	0.716171
C59	C	1.113519	0.431385	0.716142
C60	C	1.165127	0.380864	1.175493
C61	C	1.165119	0.380856	1.087636
H62	H	1.071465	0.681778	0.472500
H63	H	1.310304	0.238585	0.806420
F64	F	1.058620	0.485196	1.090262
H65	H	1.258711	0.289159	1.079991
H66	H	1.019928	0.523097	0.806331
F67	F	1.271789	1.089421	0.276653
H68	H	1.310300	0.238607	0.956182
F69	F	1.271605	0.276496	0.672261
H70	H	1.310398	0.805499	0.238736
H71	H	1.019931	0.523099	0.956109
H72	H	1.019900	0.805615	0.523010
H73	H	1.310437	0.955263	0.238756
H74	H	1.019963	0.955392	0.523026
F75	F	1.058606	0.485180	0.672208
F76	F	1.058719	1.089518	0.485165
H77	H	1.258734	0.681697	0.289234
