data_functionalizedCrystal
_audit_creation_method	'MofGen! by Chris Wilmer'
_symmetry_space_group_name_H-M	'P1'
_symmetry_Int_Tables_number	1
_symmetry_cell_setting	triclinic
loop_
_symmetry_equiv_pos_as_xyz
  x,y,z
_cell_length_a	19.805407
_cell_length_b	19.077713
_cell_length_c	19.805399
_cell_angle_alpha	92.272310
_cell_angle_beta	89.982197
_cell_angle_gamma	87.730174
loop_
_atom_site_label
_atom_site_type_symbol
_atom_site_fract_x
_atom_site_fract_y
_atom_site_fract_z
Zn1	Zn	1.045542	-0.280249	-0.393524
Zn2	Zn	1.378876	0.053085	-0.060191
Zn3	Zn	1.712209	0.386418	0.273143
Zn4	Zn	1.049995	-0.397939	-0.284887
Zn5	Zn	1.383329	-0.064606	0.048447
Zn6	Zn	1.716662	0.268727	0.381780
Zn7	Zn	0.932357	-0.280262	-0.280353
Zn8	Zn	1.265691	0.053071	0.052981
Zn9	Zn	1.599024	0.386404	0.386314
Zn10	Zn	0.936857	-0.397896	-0.398035
Zn11	Zn	1.270190	-0.064563	-0.064702
Zn12	Zn	1.603524	0.268770	0.268632
O13	O	0.991188	-0.339087	-0.339200
O14	O	1.324521	-0.005753	-0.005866
O15	O	1.657855	0.327580	0.327467
O16	O	1.140850	-0.295873	-0.379123
O17	O	1.474183	0.037461	-0.045789
O18	O	1.807517	0.370794	0.287544
O19	O	1.034371	-0.382353	-0.189569
O20	O	1.367704	-0.049020	0.143764
O21	O	1.701038	0.284314	0.477097
O22	O	0.943625	-0.181776	-0.291580
O23	O	1.276958	0.151557	0.041754
O24	O	1.610292	0.484890	0.375087
O25	O	1.144122	-0.382340	-0.299307
O26	O	1.477455	-0.049006	0.034026
O27	O	1.810788	0.284327	0.367360
O28	O	1.026781	-0.181766	-0.374726
O29	O	1.360115	0.151567	-0.041393
O30	O	1.693448	0.484900	0.291940
O31	O	0.947943	-0.295896	-0.186238
O32	O	1.281276	0.037437	0.147095
O33	O	1.614610	0.370770	0.480428
O34	O	0.838237	-0.295855	-0.295954
O35	O	1.171571	0.037479	0.037379
O36	O	1.504904	0.370812	0.370713
O37	O	0.951294	-0.382266	-0.492152
O38	O	1.284627	-0.048933	-0.158819
O39	O	1.617960	0.284400	0.174514
O40	O	0.841543	-0.382280	-0.382415
O41	O	1.174876	-0.048947	-0.049081
O42	O	1.508210	0.284387	0.284252
O43	O	1.031144	-0.295831	-0.488838
O44	O	1.364478	0.037502	-0.155505
O45	O	1.697811	0.370836	0.177829
O46	O	1.038734	-0.496418	-0.303681
O47	O	1.372067	-0.163085	0.029652
O48	O	1.705401	0.170249	0.362985
O49	O	0.955612	-0.496386	-0.386811
O50	O	1.288945	-0.163053	-0.053478
O51	O	1.622278	0.170280	0.279856
C52	C	0.815331	-0.339065	-0.339182
C53	C	1.148664	-0.005731	-0.005849
C54	C	1.481998	0.327602	0.327484
C55	C	0.740099	-0.339072	-0.339192
C56	C	1.073433	-0.005739	-0.005858
C57	C	1.406766	0.327594	0.327475
C58	C	0.703055	-0.294129	-0.380820
C59	C	1.036389	0.039205	-0.047487
C60	C	1.369722	0.372538	0.285846
C61	C	0.632367	-0.294132	-0.380823
C62	C	0.965700	0.039201	-0.047490
C63	C	1.299034	0.372534	0.285843
C64	C	0.598724	-0.339084	-0.339200
C65	C	0.932058	-0.005750	-0.005867
C66	C	1.265391	0.327583	0.327466
C67	C	0.635773	-0.384029	-0.297567
C68	C	0.969107	-0.050696	0.035767
C69	C	1.302440	0.282637	0.369100
C70	C	0.706460	-0.384022	-0.297561
C71	C	1.039793	-0.050688	0.035772
C72	C	1.373127	0.282645	0.369106
C73	C	0.350701	-0.384061	-0.297589
C74	C	0.684035	-0.050728	0.035745
C75	C	1.017368	0.282606	0.369078
C76	C	0.280009	-0.384067	-0.297599
C77	C	0.613343	-0.050733	0.035734
C78	C	0.946676	0.282600	0.369067
C79	C	0.276608	-0.294172	-0.380851
C80	C	0.609942	0.039162	-0.047518
C81	C	0.943275	0.372495	0.285816
C82	C	0.347295	-0.294164	-0.380845
C83	C	0.680628	0.039169	-0.047512
C84	C	1.013962	0.372503	0.285821
C85	C	0.384338	-0.339107	-0.339209
C86	C	0.717671	-0.005773	-0.005876
C87	C	1.051004	0.327560	0.327457
C88	C	0.460986	-0.339101	-0.339206
C89	C	0.794319	-0.005768	-0.005873
C90	C	1.127653	0.327566	0.327461
C91	C	0.522077	-0.339093	-0.339207
C92	C	0.855411	-0.005760	-0.005873
C93	C	1.188744	0.327573	0.327460
C94	C	0.998163	-0.521938	-0.346242
C95	C	1.331496	-0.188605	-0.012909
C96	C	1.664829	0.144729	0.320424
C97	C	1.001208	-0.600162	-0.349278
C98	C	1.334542	-0.266829	-0.015945
C99	C	1.667875	0.066504	0.317389
C100	C	1.023051	-1.040476	-0.371030
C101	C	1.356384	-0.707143	-0.037697
C102	C	1.689717	-0.373810	0.295636
C103	C	1.020181	-0.966976	-0.368172
C104	C	1.353515	-0.633643	-0.034839
C105	C	1.686848	-0.300309	0.298495
C106	C	0.975486	-0.930298	-0.323424
C107	C	1.308819	-0.596964	0.009909
C108	C	1.642153	-0.263631	0.343243
C109	C	0.933662	-0.967123	-0.281526
C110	C	1.266996	-0.633790	0.051807
C111	C	1.600329	-0.300457	0.385140
C112	C	0.936535	-1.040622	-0.284382
C113	C	1.269869	-0.707289	0.048952
C114	C	1.603202	-0.373956	0.382285
C115	C	0.962258	-0.710487	-0.310236
C116	C	1.295591	-0.377154	0.023097
C117	C	1.628924	-0.043820	0.356431
C118	C	0.959386	-0.636983	-0.307385
C119	C	1.292720	-0.303650	0.025948
C120	C	1.626053	0.029684	0.359281
C121	C	1.045907	-0.636841	-0.394030
C122	C	1.379240	-0.303507	-0.060697
C123	C	1.712573	0.029826	0.272636
C124	C	1.048773	-0.710341	-0.396884
C125	C	1.382106	-0.377008	-0.063551
C126	C	1.715440	-0.043674	0.269782
C127	C	1.006952	-0.747160	-0.354985
C128	C	1.340285	-0.413827	-0.021651
C129	C	1.673618	-0.080494	0.311682
N130	N	0.972551	-0.855169	-0.320503
N131	N	1.305884	-0.521835	0.012831
N132	N	1.639217	-0.188502	0.346164
N133	N	1.009891	-0.822288	-0.357903
N134	N	1.343224	-0.488955	-0.024569
N135	N	1.676558	-0.155621	0.308764
C136	C	1.167732	-0.339109	-0.339217
C137	C	1.501065	-0.005776	-0.005884
C138	C	1.834398	0.327557	0.327449
C139	C	1.242964	-0.339119	-0.339225
C140	C	1.576297	-0.005786	-0.005892
C141	C	1.909631	0.327548	0.327442
C142	C	0.991224	-0.339042	-0.515741
C143	C	1.324558	-0.005709	-0.182407
C144	C	1.657891	0.327624	0.150926
C145	C	0.991240	-0.339023	-0.590972
C146	C	1.324573	-0.005690	-0.257639
C147	C	1.657906	0.327643	0.075695
C148	C	0.984204	-0.155521	-0.332144
C149	C	1.317538	0.177812	0.001189
C150	C	1.650871	0.511145	0.334523
C151	C	0.981229	-0.077297	-0.329137
C152	C	1.314562	0.256036	0.004196
C153	C	1.647895	0.589370	0.337529
C154	C	1.032819	-0.294014	-0.624591
C155	C	1.366152	0.039319	-0.291258
C156	C	1.699485	0.372652	0.042075
C157	C	1.032825	-0.293994	-0.695279
C158	C	1.366158	0.039339	-0.361946
C159	C	1.699492	0.372673	-0.028612
C160	C	0.991255	-0.338987	-0.732346
C161	C	1.324588	-0.005653	-0.399013
C162	C	1.657922	0.327680	-0.065680
C163	C	0.949671	-0.383998	-0.698722
C164	C	1.283005	-0.050665	-0.365389
C165	C	1.616338	0.282669	-0.032055
C166	C	0.949662	-0.384014	-0.628035
C167	C	1.282995	-0.050681	-0.294702
C168	C	1.616329	0.282652	0.038631
C169	C	0.949707	-0.383932	-0.983793
C170	C	1.283040	-0.050599	-0.650460
C171	C	1.616374	0.282734	-0.317126
C172	C	0.949721	-0.383914	-1.054484
C173	C	1.283054	-0.050581	-0.721151
C174	C	1.616388	0.282753	-0.387818
C175	C	1.032870	-0.293912	-1.051037
C176	C	1.366203	0.039421	-0.717703
C177	C	1.699536	0.372755	-0.384370
C178	C	1.032861	-0.293928	-0.980350
C179	C	1.366194	0.039405	-0.647017
C180	C	1.699527	0.372738	-0.313683
C181	C	0.991274	-0.338937	-0.946732
C182	C	1.324608	-0.005603	-0.613398
C183	C	1.657941	0.327730	-0.280065
C184	C	0.991267	-0.338957	-0.870084
C185	C	1.324601	-0.005624	-0.536751
C186	C	1.657934	0.327709	-0.203417
C187	C	0.991265	-0.338970	-0.808993
C188	C	1.324599	-0.005637	-0.475659
C189	C	1.657932	0.327697	-0.142326
C190	C	0.991189	-0.339080	-0.163343
C191	C	1.324522	-0.005747	0.169990
C192	C	1.657856	0.327587	0.503323
C193	C	0.991297	-0.338901	-0.088105
C194	C	1.324630	-0.005567	0.245229
C195	C	1.657964	0.327766	0.578562
H196	H	0.380853	-0.420657	-0.263687
H197	H	0.714186	-0.087323	0.069647
H198	H	1.047520	0.246010	0.402980
H199	H	0.915867	-0.420554	-1.084663
H200	H	1.249200	-0.087221	-0.751329
H201	H	1.582533	0.246113	-0.417996
H202	H	0.730442	-0.257526	-0.414717
H203	H	1.063776	0.075808	-0.081383
H204	H	1.397109	0.409141	0.251950
H205	H	1.059440	-1.070335	-0.407476
H206	H	1.392773	-0.737001	-0.074142
H207	H	1.726106	-0.403668	0.259191
O208	O	0.904820	-0.432438	-0.947535
O209	O	1.238153	-0.099105	-0.614202
O210	O	1.571487	0.234228	-0.280868
H211	H	0.875908	-0.463711	-0.985187
H212	H	1.209242	-0.130378	-0.651854
H213	H	1.542575	0.202956	-0.318521
O214	O	0.904829	-0.432524	-0.738696
O215	O	1.238162	-0.099190	-0.405363
O216	O	1.571495	0.234143	-0.072030
H217	H	0.911823	-0.424956	-0.793498
H218	H	1.245157	-0.091622	-0.460165
H219	H	1.578490	0.241711	-0.126831
O220	O	1.077676	-0.245450	-0.731537
O221	O	1.411009	0.087883	-0.398204
O222	O	1.744343	0.421217	-0.064871
H223	H	1.070695	-0.252990	-0.786917
H224	H	1.404028	0.080344	-0.453584
H225	H	1.737362	0.413677	-0.120250
H226	H	0.928204	-0.740456	-0.276118
H227	H	1.261537	-0.407123	0.057215
H228	H	1.594870	-0.073790	0.390548
H229	H	1.066729	-0.257262	-1.078417
H230	H	1.400062	0.076072	-0.745083
H231	H	1.733395	0.409405	-0.411750
O232	O	1.096980	-0.749902	-0.445148
O233	O	1.430313	-0.416569	-0.111815
O234	O	1.763647	-0.083236	0.221519
H235	H	1.125584	-0.711950	-0.473797
H236	H	1.458917	-0.378616	-0.140463
H237	H	1.792250	-0.045283	0.192870
O238	O	1.077659	-0.245484	-0.584619
O239	O	1.410992	0.087849	-0.251285
O240	O	1.744325	0.421182	0.082048
H241	H	1.113294	-0.276997	-0.553636
H242	H	1.446628	0.056337	-0.220303
H243	H	1.779961	0.389670	0.113030
O244	O	0.599492	-0.432513	-0.252669
O245	O	0.932826	-0.099179	0.080664
O246	O	1.266159	0.234154	0.413998
H247	H	0.544115	-0.424973	-0.259670
H248	H	0.877449	-0.091640	0.073663
H249	H	1.210782	0.241694	0.406996
O250	O	0.383582	-0.245681	-0.425739
O251	O	0.716916	0.087652	-0.092405
O252	O	1.050249	0.420985	0.240928
H253	H	0.414407	-0.209837	-0.394114
H254	H	0.747741	0.123496	-0.060780
H255	H	1.081074	0.456829	0.272553
H256	H	0.915797	-0.420658	-0.600663
H257	H	1.249130	-0.087325	-0.267330
H258	H	1.582464	0.246008	0.066003
O259	O	0.236656	-0.245684	-0.425751
O260	O	0.569989	0.087649	-0.092417
O261	O	0.903323	0.420983	0.240916
H262	H	0.181850	-0.253231	-0.418758
H263	H	0.515184	0.080103	-0.085424
H264	H	0.848517	0.413436	0.247909
O265	O	0.746414	-0.432499	-0.252660
O266	O	1.079748	-0.099166	0.080673
O267	O	1.413081	0.234168	0.414007
H268	H	0.777391	-0.400945	-0.217052
H269	H	1.110725	-0.067612	0.116281
H270	H	1.444058	0.265722	0.449615
O271	O	0.592413	-0.245659	-0.425726
O272	O	0.925747	0.087675	-0.092393
O273	O	1.259080	0.421008	0.240940
H274	H	0.558832	-0.209808	-0.394110
H275	H	0.892165	0.123525	-0.060777
H276	H	1.225498	0.456859	0.272556
H277	H	0.902479	-1.070601	-0.250268
H278	H	1.235813	-0.737267	0.083065
H279	H	1.569146	-0.403934	0.416399
H280	H	0.252620	-0.420673	-0.263702
H281	H	0.585953	-0.087340	0.069631
H282	H	0.919286	0.245993	0.402964
O283	O	1.065307	-0.927260	-0.413337
O284	O	1.398641	-0.593926	-0.080004
O285	O	1.731974	-0.260593	0.253329
H286	H	1.096870	-0.965112	-0.444932
H287	H	1.430204	-0.631779	-0.111598
H288	H	1.763537	-0.298446	0.221735
O289	O	1.091021	-0.597131	-0.439213
O290	O	1.424354	-0.263798	-0.105880
O291	O	1.757688	0.069536	0.227454
H292	H	1.081522	-0.539860	-0.429707
H293	H	1.414855	-0.206527	-0.096374
H294	H	1.748188	0.126806	0.236960
H295	H	0.897273	-0.937256	-0.245088
H296	H	1.230606	-0.603922	0.088245
H297	H	1.563939	-0.270589	0.421579
O298	O	0.911183	-0.597420	-0.259113
O299	O	1.244516	-0.264086	0.074221
O300	O	1.577850	0.069247	0.407554
H301	H	0.858606	-0.611575	-0.271215
H302	H	1.191940	-0.278241	0.062119
H303	H	1.525273	0.055092	0.395452
O304	O	1.077697	-0.245402	-0.940368
O305	O	1.411030	0.087931	-0.607035
O306	O	1.744363	0.421265	-0.273702
H307	H	1.106607	-0.214096	-0.975622
H308	H	1.439941	0.119238	-0.642289
H309	H	1.773274	0.452571	-0.308956
