data_functionalizedCrystal
_audit_creation_method	'MofGen! by Chris Wilmer'
_symmetry_space_group_name_H-M	'P1'
_symmetry_Int_Tables_number	1
_symmetry_cell_setting	triclinic
loop_
_symmetry_equiv_pos_as_xyz
  x,y,z
_cell_length_a	21.395362
_cell_length_b	12.759400
_cell_length_c	21.395356
_cell_angle_alpha	89.979052
_cell_angle_beta	89.964230
_cell_angle_gamma	90.030564
loop_
_atom_site_label
_atom_site_type_symbol
_atom_site_fract_x
_atom_site_fract_y
_atom_site_fract_z
Zn1	Zn	0.957879	-0.417869	-0.354606
Zn2	Zn	0.957825	-0.593555	-0.249837
Zn3	Zn	0.853109	-0.417940	-0.249807
Zn4	Zn	0.853092	-0.593555	-0.354542
O5	O	0.905476	-0.505730	-0.302198
O6	O	1.045550	-0.441145	-0.340747
O7	O	0.943919	-0.570289	-0.162155
O8	O	0.867036	-0.270909	-0.263723
O9	O	1.045510	-0.570221	-0.263774
O10	O	0.944010	-0.270857	-0.340719
O11	O	0.866984	-0.441265	-0.162133
O12	O	0.765428	-0.441265	-0.263661
O13	O	0.867008	-0.570220	-0.442228
O14	O	0.765416	-0.570289	-0.340609
O15	O	0.943994	-0.441145	-0.442275
O16	O	0.943903	-0.740576	-0.263712
O17	O	0.866956	-0.740576	-0.340638
C18	C	0.742689	-0.505785	-0.302125
C19	C	0.673047	-0.505834	-0.302109
C20	C	0.640344	-0.573106	-0.342116
C21	C	0.574909	-0.573081	-0.342144
C22	C	0.542179	-0.505794	-0.302154
C23	C	0.574890	-0.438509	-0.262144
C24	C	0.640324	-0.438529	-0.262122
C25	C	0.438461	-0.497342	-0.245748
C26	C	0.373028	-0.497329	-0.245769
C27	C	0.340358	-0.505725	-0.302223
C28	C	0.373130	-0.514157	-0.358657
C29	C	0.438564	-0.514177	-0.358635
C30	C	0.471227	-0.505764	-0.302174
C31	C	0.236703	-0.572973	-0.342263
C32	C	0.171266	-0.572940	-0.342292
C33	C	0.171248	-0.438374	-0.262287
C34	C	0.236684	-0.438402	-0.262264
C35	C	0.269407	-0.505707	-0.302251
C36	C	0.905439	-0.778697	-0.302185
C37	C	0.905480	-0.895474	-0.302200
C38	C	0.945591	-0.950301	-0.262189
C39	C	0.945630	-1.060025	-0.262208
C40	C	0.865441	-1.060085	-0.342252
C41	C	0.865406	-0.950363	-0.342235
C42	C	0.991886	-0.950267	-0.215975
C43	C	0.991924	-1.059991	-0.215994
C44	C	1.068899	-0.505675	-0.302271
C45	C	1.138541	-0.505651	-0.302303
C46	C	0.905505	-0.505675	-0.465621
C47	C	0.905517	-0.505651	-0.535263
C48	C	0.905531	-0.231697	-0.302225
C49	C	0.905554	-0.114920	-0.302236
C50	C	0.945647	-0.572614	-1.037071
C51	C	0.945636	-0.572647	-0.971635
C52	C	0.905577	-0.505484	-0.938901
C53	C	0.865514	-0.438303	-0.971608
C54	C	0.865522	-0.438279	-1.037042
C55	C	0.900636	-0.410868	-0.835240
C56	C	0.900632	-0.410890	-0.769807
C57	C	0.905549	-0.505559	-0.737080
C58	C	0.910482	-0.600208	-0.769795
C59	C	0.910490	-0.600184	-0.835229
C60	C	0.905563	-0.505503	-0.867949
C61	C	0.945593	-0.572778	-0.633429
C62	C	0.945578	-0.572813	-0.567992
C63	C	0.865459	-0.438459	-0.567966
C64	C	0.865471	-0.438434	-0.633401
C65	C	0.905542	-0.505591	-0.666129
C66	C	0.905484	-0.505709	-0.139410
C67	C	0.905593	-0.505437	-0.069770
H68	H	0.144600	-0.383583	-0.229729
H69	H	0.832815	-1.104789	-0.374847
N70	N	0.337919	-0.523279	-0.419557
H71	H	0.349359	-0.462624	-0.447677
H72	H	0.349337	-0.591379	-0.440716
H73	H	0.548237	-0.383722	-0.229585
N74	N	0.675601	-0.365961	-0.218975
H75	H	0.644941	-0.323324	-0.193647
H76	H	0.702705	-0.408664	-0.189924
N77	N	1.056137	-0.910680	-0.233260
H78	H	1.084835	-0.972155	-0.240990
H79	H	1.053263	-0.866639	-0.272385
H80	H	0.832751	-0.905724	-0.374821
H81	H	0.974521	-0.916314	-0.169854
N82	N	0.272001	-0.645560	-0.385392
H83	H	0.260668	-0.629339	-0.430181
H84	H	0.318405	-0.635337	-0.379250
N85	N	1.052998	-1.104928	-0.239070
H86	H	1.060956	-1.080444	-0.283262
H87	H	1.088109	-1.080434	-0.211122
N88	N	0.974761	-1.099548	-0.151705
H89	H	0.967070	-1.038059	-0.123003
H90	H	0.935640	-1.143624	-0.154503
H91	H	0.978274	-0.627302	-1.063714
H92	H	0.978263	-0.627339	-0.945007
N93	N	0.135990	-0.645505	-0.385442
H94	H	0.166652	-0.688146	-0.410766
H95	H	0.108796	-0.694049	-0.359890
H96	H	0.914505	-0.677251	-0.861863
N97	N	0.915789	-0.702325	-0.734508
H98	H	0.915033	-0.687983	-0.688092
H99	H	0.879551	-0.749306	-0.745927
H100	H	0.978220	-0.627464	-0.660077
H101	H	0.832840	-0.383777	-0.541314
H102	H	0.465243	-0.521039	-0.404585
H103	H	0.548277	-0.627861	-0.374724
N104	N	0.988777	-0.645279	-0.532721
H105	H	1.014161	-0.687816	-0.563385
H106	H	1.017773	-0.602510	-0.505587
N107	N	0.271961	-0.365837	-0.219117
H108	H	0.241300	-0.323203	-0.193789
H109	H	0.299068	-0.408535	-0.190066
H110	H	0.666983	-0.627910	-0.374678
N111	N	0.822271	-0.365975	-0.668674
H112	H	0.796891	-0.323431	-0.638010
H113	H	0.847787	-0.317334	-0.695841
N114	N	0.895321	-0.308801	-0.734532
H115	H	0.854779	-0.273065	-0.745901
H116	H	0.896096	-0.323252	-0.688125
H117	H	0.346351	-0.490470	-0.199817
N118	N	0.895328	-0.308755	-0.870535
H119	H	0.892208	-0.248802	-0.839883
H120	H	0.933509	-0.298975	-0.897704
N121	N	0.473695	-0.488281	-0.184855
H122	H	0.443007	-0.482946	-0.149109
H123	H	0.500810	-0.552290	-0.178964
N124	N	0.822304	-0.365866	-0.936306
H125	H	0.828378	-0.376072	-0.889891
H126	H	0.832069	-0.290824	-0.947756
H127	H	0.832904	-0.383573	-1.063665
