data_functionalizedCrystal
_audit_creation_method	'MofGen! by Chris Wilmer'
_symmetry_space_group_name_H-M	'P1'
_symmetry_Int_Tables_number	1
_symmetry_cell_setting	triclinic
loop_
_symmetry_equiv_pos_as_xyz
  x,y,z
_cell_length_a	10.489716
_cell_length_b	15.538191
_cell_length_c	14.750779
_cell_angle_alpha	82.427828
_cell_angle_beta	77.231476
_cell_angle_gamma	114.099385
loop_
_atom_site_label
_atom_site_type_symbol
_atom_site_fract_x
_atom_site_fract_y
_atom_site_fract_z
O1	O	-0.375944	-1.226930	-0.079856
O2	O	-0.229127	-0.953660	-0.079848
O3	O	-0.491095	-1.096524	-0.079856
O4	O	-0.113975	-1.084065	-0.079848
O5	O	-0.565145	-1.136910	0.079793
O6	O	-0.303176	-0.994046	0.079800
O7	O	-0.449993	-1.267316	0.079792
Zn8	Zn	-0.388341	-1.137093	0.105144
Zn9	Zn	-0.290778	-1.083883	-0.105200
O10	O	-0.188024	-1.124451	0.079800
C11	C	-0.575206	-1.115780	-0.000034
C12	C	-0.715501	-1.112977	-0.000043
C13	C	-0.250790	-0.938860	-0.000023
C14	C	-0.205035	-0.834595	-0.000020
C15	C	-0.428328	-1.282115	-0.000035
C16	C	-0.474080	-1.386379	-0.000044
C17	C	-0.854832	-1.200589	-0.000037
C18	C	-0.873673	-1.134382	-0.078748
C19	C	-0.946635	-1.174179	0.078653
C20	C	-0.732464	-1.046790	-0.078819
C21	C	-0.805459	-1.086618	0.078652
C22	C	-0.824211	-1.020342	-0.000078
C23	C	-0.103913	-1.105195	-0.000024
C24	C	0.036385	-1.107996	-0.000021
N25	N	-0.454930	-1.173414	0.248698
C26	C	-0.659601	-0.543744	-0.000044
C27	C	-0.616574	-0.445767	-0.000044
C28	C	-0.374559	-0.424952	-0.000039
C29	C	-0.417568	-0.522930	-0.000034
C30	C	-0.560090	-0.582319	-0.000038
C31	C	-0.318057	-0.561504	-0.000028
C32	C	-0.361061	-0.659473	-0.000029
C33	C	-0.503575	-0.718867	-0.000035
C34	C	-0.603094	-0.680287	-0.000039
C35	C	-0.175533	-0.502112	-0.000032
C36	C	-0.076022	-0.540687	-0.000026
C37	C	-0.119028	-0.638658	-0.000019
C38	C	-0.261543	-0.698052	-0.000026
C39	C	-0.019510	-0.677238	-0.000016
C40	C	-0.062513	-0.775206	-0.000017
C41	C	-0.304546	-0.796021	-0.000026
N42	N	-0.224203	-1.047568	-0.248753
C43	C	-0.038288	-0.946127	0.600528
C44	C	-0.084944	-0.971586	0.701026
C45	C	-0.316865	-1.098119	0.700982
C46	C	-0.270232	-1.072668	0.600482
C47	C	-0.130941	-0.996672	0.550263
C48	C	-0.362885	-1.123212	0.550217
C49	C	-0.316252	-1.097766	0.449726
C50	C	-0.176966	-1.021775	0.399500
C51	C	-0.084308	-0.971226	0.449772
C52	C	-0.502171	-1.199213	0.600437
C53	C	-0.594825	-1.249757	0.550172
C54	C	-0.548196	-1.224307	0.449680
C55	C	-0.408910	-1.148316	0.399454
C56	C	-0.640854	-1.274857	0.399407
C57	C	-0.594220	-1.249410	0.298916
C58	C	-0.362276	-1.122870	0.298963
H59	H	-0.866350	-1.276774	-0.000119
H60	H	-0.640686	-0.992974	-0.145437
H61	H	-0.140522	-0.422340	-0.000034
H62	H	-0.903885	-1.154531	-0.145296
H63	H	-0.009481	-0.930420	0.741946
H64	H	-0.430276	-1.159998	0.741881
H65	H	-0.697618	-0.414365	-0.000050
H66	H	-0.138996	-1.001061	0.317673
H67	H	-0.258515	-0.376584	-0.000040
H68	H	-0.540132	-1.219931	0.682264
H69	H	-0.775240	-1.066502	0.145203
H70	H	-1.038564	-1.228015	0.145195
H71	H	-0.708235	-1.311637	0.591072
H72	H	0.029110	-0.909335	0.408882
H73	H	-0.420604	-0.844380	-0.000024
H74	H	0.018515	-0.806616	-0.000003
H75	H	-0.812364	-0.944069	-0.000118
H76	H	0.040022	-0.492318	-0.000027
H77	H	-0.538580	-0.798635	-0.000049
H78	H	-0.719152	-0.728646	-0.000036
H79	H	-0.775659	-0.592104	-0.000041
H80	H	0.075131	-0.884237	0.559638
H81	H	0.096536	-0.628867	-0.000023
H82	H	-0.754260	-1.336739	0.440309
H83	H	-0.248858	-1.060979	0.258072
H84	H	-0.669669	-1.290571	0.257990
