data_functionalizedCrystal
_audit_creation_method	'MofGen! by Chris Wilmer'
_symmetry_space_group_name_H-M	'P1'
_symmetry_Int_Tables_number	1
_symmetry_cell_setting	triclinic
loop_
_symmetry_equiv_pos_as_xyz
  x,y,z
_cell_length_a	10.723023
_cell_length_b	10.723024
_cell_length_c	7.088929
_cell_angle_alpha	83.718137
_cell_angle_beta	96.263229
_cell_angle_gamma	84.467709
loop_
_atom_site_label
_atom_site_type_symbol
_atom_site_fract_x
_atom_site_fract_y
_atom_site_fract_z
O1	O	1.644489	0.187740	-0.158978
O2	O	1.281336	0.204495	-0.158982
O3	O	1.471290	0.014541	-0.158973
O4	O	1.454536	0.377694	-0.158987
O5	O	1.496675	-0.010902	0.159004
O6	O	1.306721	0.179052	0.158994
O7	O	1.669874	0.162297	0.158999
Cu8	Cu	1.490615	0.168351	0.188030
Cu9	Cu	1.460595	0.198441	-0.188014
O10	O	1.479920	0.352251	0.158989
C11	C	1.247529	0.190554	0.000006
C12	C	1.108975	0.186907	0.000004
C13	C	1.034053	0.198462	-0.164718
C14	C	0.890849	0.194692	-0.164724
C15	C	1.482763	-0.044680	0.000013
C16	C	1.479115	-0.183234	0.000007
C17	C	1.585402	-0.258217	0.000005
C18	C	1.581634	-0.401420	-0.000002
C19	C	1.703681	0.176238	0.000007
C20	C	1.842234	0.179886	-0.000004
C21	C	1.468447	0.411473	-0.000001
C22	C	1.472094	0.550027	-0.000007
N23	N	1.511739	0.147187	0.452519
N24	N	1.439481	0.219595	-0.452503
H25	H	1.075926	0.211151	-0.305738
H26	H	1.586641	0.072155	0.534179
H27	H	1.679189	-0.216396	0.000018
H28	H	1.364593	0.294631	0.465847
C29	C	1.052411	0.169773	0.190524
N30	N	1.009809	0.156866	0.334029
C31	C	1.704564	-0.488462	-0.000002
N32	N	1.797157	-0.554026	-0.000005
C33	C	1.349160	-0.362937	-0.000007
N34	N	1.256565	-0.297373	-0.000011
C35	C	0.803877	0.208047	-0.355249
N36	N	0.738366	0.218108	-0.498759
H37	H	0.906608	0.169994	0.141028
H38	H	1.385328	-0.225055	-0.000007
