data_functionalizedCrystal
_audit_creation_method	'MofGen! by Chris Wilmer'
_symmetry_space_group_name_H-M	'P1'
_symmetry_Int_Tables_number	1
_symmetry_cell_setting	triclinic
loop_
_symmetry_equiv_pos_as_xyz
  x,y,z
_cell_length_a	11.792241
_cell_length_b	22.010155
_cell_length_c	23.532407
_cell_angle_alpha	90.000423
_cell_angle_beta	83.521047
_cell_angle_gamma	90.004313
loop_
_atom_site_label
_atom_site_type_symbol
_atom_site_fract_x
_atom_site_fract_y
_atom_site_fract_z
O1	O	1.505080	0.050473	0.078047
O2	O	1.174549	0.050488	0.086091
O3	O	1.349782	0.050469	-0.000804
O4	O	1.329847	0.050492	0.164941
O5	O	1.349750	-0.050582	-0.000791
O6	O	1.174518	-0.050563	0.086104
O7	O	1.505048	-0.050577	0.078060
Cu8	Cu	1.339780	-0.059797	0.082083
Cu9	Cu	1.339818	0.059707	0.082068
O10	O	1.329816	-0.050558	0.164954
C11	C	1.132254	-0.000036	0.085592
C12	C	1.006276	-0.000030	0.084080
N13	N	1.339762	-0.143849	0.082094
C14	C	0.775630	-0.000048	0.081299
C15	C	0.903978	-0.000038	0.082844
C16	C	1.417415	-0.563637	0.043596
C17	C	1.417420	-0.627245	0.043592
O18	O	1.483398	-0.660143	0.010868
N19	N	1.339817	-0.659056	0.082056
C20	C	1.262196	-0.627257	0.120522
O21	O	1.196188	-0.660156	0.153237
C22	C	1.262186	-0.563651	0.120522
C23	C	1.339802	-0.531842	0.082060
C24	C	1.495024	-0.531828	0.005137
C25	C	1.495019	-0.468225	0.005142
C26	C	1.417406	-0.436431	0.043606
C27	C	1.339798	-0.468239	0.082065
C28	C	1.184560	-0.531853	0.158985
C29	C	1.184557	-0.468242	0.158982
C30	C	1.262173	-0.436433	0.120520
C31	C	1.262181	-0.372841	0.120534
N32	N	1.339784	-0.341029	0.082071
C33	C	1.417397	-0.372824	0.043606
C34	C	1.262221	-0.760835	0.120517
C35	C	1.262235	-0.824440	0.120519
C36	C	1.417459	-0.824423	0.043589
C37	C	1.417449	-0.760817	0.043590
C38	C	1.339824	-0.729023	0.082053
C39	C	1.417383	-0.239253	0.043620
C40	C	1.417375	-0.175644	0.043629
C41	C	1.262148	-0.175666	0.120557
C42	C	1.262159	-0.239270	0.120550
C43	C	1.339781	-0.271061	0.082076
O44	O	1.196233	-0.339902	0.153240
O45	O	1.483383	-0.339917	0.010891
C46	C	1.547343	-0.000053	0.078558
C47	C	1.673321	-0.000054	0.080071
C48	C	1.349258	-0.000058	-0.022016
C49	C	1.347732	-0.000063	-0.085242
N50	N	1.339845	0.143760	0.082053
C51	C	1.441858	-0.000033	-0.483788
C52	C	1.440440	-0.000029	-0.543196
O53	O	1.527696	-0.000010	-0.579424
N54	N	1.336265	-0.000025	-0.566440
C55	C	1.233500	-0.000019	-0.530271
O56	O	1.144761	-0.000014	-0.555497
C57	C	1.234919	-0.000019	-0.470864
C58	C	1.339102	-0.000030	-0.447624
C59	C	1.546032	-0.000043	-0.460547
C60	C	1.547449	-0.000049	-0.401142
C61	C	1.444693	-0.000045	-0.364979
C62	C	1.340519	-0.000035	-0.388219
C63	C	1.132156	-0.000009	-0.434696
C64	C	1.133584	-0.000009	-0.375285
C65	C	1.237766	-0.000019	-0.352045
C66	C	1.239180	-0.000037	-0.292651
N67	N	1.343355	-0.000041	-0.269407
C68	C	1.446112	-0.000045	-0.305571
C69	C	1.230528	-0.000017	-0.655031
C70	C	1.229108	-0.000021	-0.714438
C71	C	1.436049	-0.000030	-0.727359
C72	C	1.437468	-0.000030	-0.667951
C73	C	1.334704	-0.000021	-0.631788
C74	C	1.449080	-0.000058	-0.180817
C75	C	1.450489	-0.000066	-0.121406
C76	C	1.243549	-0.000054	-0.108491
C77	C	1.242140	-0.000049	-0.167896
C78	C	1.344915	-0.000049	-0.204058
O79	O	1.151970	-0.000053	-0.256388
O80	O	1.534837	-0.000042	-0.280337
C81	C	1.330339	-0.000030	0.186167
C82	C	1.331865	-0.000022	0.249393
H83	H	1.480588	-0.265130	0.012290
H84	H	1.146840	-0.000015	-0.625590
C85	C	1.570876	-0.767204	-0.032452
C86	C	1.502757	-0.725856	0.001307
H87	H	1.623537	-0.745622	-0.058559
H88	H	1.611429	-0.792005	-0.008606
H89	H	1.523858	-0.792020	-0.053092
H90	H	1.549774	-0.701043	0.021950
H91	H	1.462201	-0.701044	-0.022542
H92	H	1.532770	-0.000056	-0.210254
C93	C	1.108803	-0.767251	0.196567
C94	C	1.176903	-0.725890	0.162808
H95	H	1.056138	-0.745678	0.222677
H96	H	1.068256	-0.792059	0.172721
H97	H	1.155834	-0.792058	0.217204
H98	H	1.129873	-0.701085	0.142167
H99	H	1.217454	-0.701071	0.186656
C100	C	1.751851	-0.000051	-0.419900
C101	C	1.661971	-0.000052	-0.375602
H102	H	1.822555	-0.000048	-0.404134
H103	H	1.746980	-0.035287	-0.442799
H104	H	1.746983	0.035190	-0.442802
H105	H	1.666834	-0.035296	-0.352703
H106	H	1.666845	0.035187	-0.352693
C107	C	1.029943	-0.396728	0.170826
C108	C	1.099229	-0.433296	0.201266
H109	H	0.977264	-0.375158	0.196931
H110	H	1.076161	-0.368679	0.147929
H111	H	0.989402	-0.421548	0.146980
H112	H	1.139777	-0.408475	0.225108
H113	H	1.053005	-0.461348	0.224172
H114	H	1.522302	-0.000038	-0.649034
H115	H	1.199045	-0.850334	0.151844
C116	C	1.194372	-0.156073	0.218920
C117	C	1.176839	-0.140707	0.162835
H118	H	1.141705	-0.134486	0.245017
H119	H	1.183254	-0.198501	0.224424
H120	H	1.270044	-0.145644	0.225357
H121	H	1.101168	-0.151141	0.156397
H122	H	1.187946	-0.098271	0.157328
H123	H	1.121358	-0.557742	0.190304
H124	H	1.198968	-0.265169	0.151875
C125	C	1.525746	-0.000015	-0.824168
C126	C	1.549004	-0.000024	-0.767118
H127	H	1.595476	-0.000006	-0.848714
H128	H	1.483004	-0.035251	-0.831247
H129	H	1.482998	0.035226	-0.831236
H130	H	1.591744	-0.035267	-0.760050
H131	H	1.591764	0.035216	-0.760037
C132	C	1.654903	-0.000070	-0.140155
C133	C	1.565014	-0.000073	-0.095862
H134	H	1.725602	-0.000069	-0.124385
H135	H	1.650035	-0.035305	-0.163057
H136	H	1.650042	0.035173	-0.163055
H137	H	1.569870	-0.035318	-0.072964
H138	H	1.569884	0.035165	-0.072950
H139	H	1.480654	-0.850322	0.012268
C140	C	1.664544	0.051898	-0.534845
C141	C	1.658998	-0.000048	-0.500291
H142	H	1.734293	0.051892	-0.559375
H143	H	1.602319	0.051898	-0.557196
H144	H	1.660798	0.087133	-0.511396
H145	H	1.662735	-0.035283	-0.523740
H146	H	1.721240	-0.000053	-0.477938
H147	H	1.144273	-0.000023	-0.733354
C148	C	1.648434	-0.474617	-0.070905
C149	C	1.580325	-0.433267	-0.037144
H150	H	1.701093	-0.453037	-0.097015
H151	H	1.688989	-0.499420	-0.047061
H152	H	1.601408	-0.499432	-0.091542
H153	H	1.627350	-0.408455	-0.016504
H154	H	1.539767	-0.408454	-0.060991
H155	H	1.047320	0.000003	-0.453608
H156	H	1.049899	-0.000001	-0.345843
H157	H	1.157306	-0.000058	-0.186819
C158	C	1.520578	-0.603347	-0.072298
C159	C	1.580349	-0.566769	-0.037147
H160	H	1.573265	-0.624911	-0.098404
H161	H	1.474380	-0.631400	-0.049397
H162	H	1.473566	-0.578533	-0.092940
H163	H	1.627355	-0.591584	-0.016502
H164	H	1.626567	-0.538713	-0.060051
C165	C	1.125137	0.051902	-0.034181
C166	C	1.130602	-0.000046	-0.068732
H167	H	1.055405	0.051911	-0.009638
H168	H	1.187384	0.051889	-0.011845
H169	H	1.128899	0.087135	-0.057633
H170	H	1.126849	-0.035280	-0.045280
H171	H	1.068339	-0.000039	-0.091070
C172	C	1.570806	-0.182026	-0.032418
C173	C	1.502691	-0.140681	0.001346
H174	H	1.623468	-0.160442	-0.058523
H175	H	1.611358	-0.206832	-0.008575
H176	H	1.523785	-0.206838	-0.053060
H177	H	1.549711	-0.115872	0.021992
H178	H	1.462136	-0.115865	-0.022499
