data_functionalizedCrystal
_audit_creation_method	'MofGen! by Chris Wilmer'
_symmetry_space_group_name_H-M	'P1'
_symmetry_Int_Tables_number	1
_symmetry_cell_setting	triclinic
loop_
_symmetry_equiv_pos_as_xyz
  x,y,z
_cell_length_a	11.169417
_cell_length_b	12.759399
_cell_length_c	11.169409
_cell_angle_alpha	89.965790
_cell_angle_beta	89.980176
_cell_angle_gamma	90.015995
loop_
_atom_site_label
_atom_site_type_symbol
_atom_site_fract_x
_atom_site_fract_y
_atom_site_fract_z
Zn1	Zn	1.834922	-0.418157	-0.678527
Zn2	Zn	1.834795	-0.593882	-0.477837
Zn3	Zn	1.634208	-0.418221	-0.477861
Zn4	Zn	1.634199	-0.593797	-0.678482
O5	O	1.734531	-0.506014	-0.578177
O6	O	2.002855	-0.441476	-0.651914
O7	O	1.808137	-0.570643	-0.309891
O8	O	1.660891	-0.271191	-0.504509
O9	O	2.002762	-0.570581	-0.504468
O10	O	1.808354	-0.271144	-0.651937
O11	O	1.660767	-0.441585	-0.309908
O12	O	1.466257	-0.441502	-0.504466
O13	O	1.660875	-0.570435	-0.846438
O14	O	1.466251	-0.570497	-0.651861
O15	O	1.808346	-0.441393	-0.846471
O16	O	1.808128	-0.740892	-0.504425
O17	O	1.660751	-0.740829	-0.651838
C18	C	1.422707	-0.505998	-0.578162
C19	C	1.289307	-0.506017	-0.578184
C20	C	1.734458	-0.778981	-0.578150
C21	C	1.734536	-0.895758	-0.578178
C22	C	1.811363	-0.950618	-0.501508
C23	C	1.811440	-1.060342	-0.501548
C24	C	1.657853	-1.060337	-0.654933
C25	C	1.657783	-0.950615	-0.654898
C26	C	1.953101	-1.210221	-0.458834
C27	C	2.029917	-1.265084	-0.382145
C28	C	2.048380	-1.229550	-0.265042
C29	C	1.990009	-1.139154	-0.224604
C30	C	1.913184	-1.084296	-0.301287
C31	C	1.894744	-1.119829	-0.418407
C32	C	1.516120	-0.800734	-0.697599
C33	C	1.439288	-0.745874	-0.774277
C34	C	1.420813	-0.781406	-0.891382
C35	C	1.479163	-0.871806	-0.931815
C36	C	1.555995	-0.926666	-0.855137
C37	C	1.574472	-0.891126	-0.738033
C38	C	2.047574	-0.506031	-0.578193
C39	C	2.180974	-0.506038	-0.578200
C40	C	1.734623	-0.505897	-0.891220
C41	C	1.734663	-0.505848	-1.024620
C42	C	1.734638	-0.231981	-0.578231
C43	C	1.734683	-0.115204	-0.578254
C44	C	1.734509	-0.506054	-0.266352
C45	C	1.734702	-0.505808	-0.132953
H46	H	1.873862	-0.905956	-0.439040
C47	C	1.458847	-0.910900	-1.060634
C48	C	1.374342	-0.850556	-1.144979
C49	C	1.354018	-0.889649	-1.273798
C50	C	1.418199	-0.989086	-1.318272
C51	C	1.502710	-1.049435	-1.233926
C52	C	1.523034	-1.010342	-1.105107
H53	H	1.326827	-0.776942	-1.112058
H54	H	1.291458	-0.844974	-1.336237
H55	H	1.403155	-1.018024	-1.413632
H56	H	1.550226	-1.123049	-1.266847
H57	H	1.585595	-1.055017	-1.042668
H58	H	1.595362	-1.105014	-0.717393
H59	H	1.531166	-0.771788	-0.602245
C60	C	1.620195	-1.026103	-0.899609
C61	C	1.546634	-1.120985	-0.942571
C62	C	1.610836	-1.220419	-0.987039
C63	C	1.748599	-1.224972	-0.988545
C64	C	1.822168	-1.130087	-0.945581
C65	C	1.757966	-1.030653	-0.901114
H66	H	1.444647	-1.117617	-0.941457
H67	H	1.556375	-1.290659	-1.018843
H68	H	1.796125	-1.298580	-1.021462
H69	H	1.924156	-1.133455	-0.946695
H70	H	1.812428	-0.960413	-0.869309
H71	H	1.358246	-0.736730	-0.953811
C72	C	1.932802	-1.249306	-0.587657
C73	C	1.848309	-1.188964	-0.672015
C74	C	1.828008	-1.228056	-0.800839
C75	C	1.892199	-1.327490	-0.845304
C76	C	1.976697	-1.387839	-0.760944
C77	C	1.996999	-1.348747	-0.632121
H78	H	1.800786	-1.115351	-0.639101
H79	H	1.765456	-1.183381	-0.863287
H80	H	1.877171	-1.356428	-0.940666
H81	H	2.024220	-1.461451	-0.793858
H82	H	2.059550	-1.393421	-0.569672
H83	H	2.110927	-1.274227	-0.202601
H84	H	1.391784	-0.672261	-0.741348
H85	H	1.865661	-1.010696	-0.268364
C86	C	2.010309	-1.100072	-0.095780
C87	C	2.094815	-1.160412	-0.011432
C88	C	2.115119	-1.121327	0.117394
C89	C	2.050917	-1.021901	0.161871
C90	C	1.966406	-0.961556	0.077521
C91	C	1.946102	-1.000641	-0.051304
H92	H	2.142345	-1.234018	-0.044355
H93	H	2.177680	-1.165999	0.179835
H94	H	2.065947	-0.992968	0.257235
H95	H	1.918876	-0.887950	0.110444
H96	H	1.883542	-0.955969	-0.113745
H97	H	2.077444	-1.338685	-0.415081
