data_functionalizedCrystal
_audit_creation_method	'MofGen! by Chris Wilmer'
_symmetry_space_group_name_H-M	'P1'
_symmetry_Int_Tables_number	1
_symmetry_cell_setting	triclinic
loop_
_symmetry_equiv_pos_as_xyz
  x,y,z
_cell_length_a	10.654543
_cell_length_b	10.268362
_cell_length_c	10.654549
_cell_angle_alpha	90.004294
_cell_angle_beta	95.516525
_cell_angle_gamma	90.000087
loop_
_atom_site_label
_atom_site_type_symbol
_atom_site_fract_x
_atom_site_fract_y
_atom_site_fract_z
O1	O	-1.667846	0.108157	0.176360
O2	O	-1.302366	0.108190	0.193175
O3	O	-1.493509	0.108167	0.002028
O4	O	-1.476703	0.108180	0.367507
O5	O	-1.493493	-0.108433	0.002020
O6	O	-1.302350	-0.108410	0.193167
O7	O	-1.667829	-0.108443	0.176352
Cu8	Cu	-1.485088	-0.128204	0.184758
Cu9	Cu	-1.485108	0.127951	0.184768
O10	O	-1.476686	-0.108421	0.367499
C11	C	-1.255560	-0.000106	0.191938
C12	C	-1.116116	-0.000093	0.188249
C13	C	-1.036630	-0.000091	0.300793
C14	C	-0.905609	-0.000111	0.297319
C15	C	-0.933573	-0.000129	0.068749
C16	C	-1.064591	-0.000119	0.072224
N17	N	-1.485083	-0.308370	0.184751
C18	C	-1.485101	-0.574041	0.184765
C19	C	-1.485087	-0.426203	0.184761
C20	C	-0.714635	-0.000138	0.177595
C21	C	-0.854076	-0.000123	0.181301
C22	C	-1.492267	-0.000131	-0.044774
C23	C	-1.488575	-0.000127	-0.184217
N24	N	-1.485122	0.308117	0.184765
C25	C	-1.597639	-0.000128	-0.394735
C26	C	-1.601117	-0.000138	-0.263714
C27	C	-1.372547	-0.000118	-0.235747
C28	C	-1.369070	-0.000117	-0.366765
C29	C	-1.477928	-0.000119	0.414301
C30	C	-1.481620	-0.000115	0.553744
H31	H	-1.078577	-0.000081	0.395268
O32	O	-0.883310	-0.000085	-0.043844
C33	C	-0.750625	-0.000123	-0.022781
H34	H	-0.720712	0.040889	0.074961
H35	H	-0.709757	0.062755	-0.097088
H36	H	-0.714112	-0.104039	-0.029186
O37	O	-1.706881	-0.000310	-0.472081
C38	C	-1.711713	-0.112505	-0.548691
H39	H	-1.611964	-0.149892	-0.556184
H40	H	-1.757642	-0.087279	-0.646739
H41	H	-1.769440	-0.191066	-0.505103
H42	H	-0.840896	-0.000112	0.388964
O43	O	-1.141633	-0.000061	-0.037226
C44	C	-1.068064	-0.000107	-0.140378
H45	H	-0.970567	0.040898	-0.109358
H46	H	-1.115700	0.062773	-0.219301
H47	H	-1.058437	-0.104025	-0.175886
H48	H	-1.695591	-0.000151	-0.221773
H49	H	-1.280914	-0.000116	-0.171010
H50	H	-1.274588	-0.000112	-0.408713
