data_functionalizedCrystal
_audit_creation_method	'MofGen! by Chris Wilmer'
_symmetry_space_group_name_H-M	'P1'
_symmetry_Int_Tables_number	1
_symmetry_cell_setting	triclinic
loop_
_symmetry_equiv_pos_as_xyz
  x,y,z
_cell_length_a	16.109301
_cell_length_b	16.109301
_cell_length_c	14.586319
_cell_angle_alpha	90.005214
_cell_angle_beta	90.000787
_cell_angle_gamma	83.461481
loop_
_atom_site_label
_atom_site_type_symbol
_atom_site_fract_x
_atom_site_fract_y
_atom_site_fract_z
O1	O	-1.103131	-0.106866	-0.076185
O2	O	-0.603131	0.393134	0.423815
O3	O	-0.861069	-0.120165	-0.076200
O4	O	-0.361069	0.379835	0.423800
O5	O	-0.988749	0.007515	-0.076183
O6	O	-0.488749	0.507515	0.423817
O7	O	-0.975450	-0.234547	-0.076203
O8	O	-0.475450	0.265453	0.423797
O9	O	-0.988741	0.007517	0.076298
O10	O	-0.488741	0.507517	0.576298
O11	O	-0.861060	-0.120164	0.076281
O12	O	-0.361060	0.379836	0.576281
O13	O	-1.103122	-0.106864	0.076295
O14	O	-0.603122	0.393136	0.576295
Cu15	Cu	-0.982090	-0.113514	0.090211
Cu16	Cu	-0.482090	0.386486	0.590211
Cu17	Cu	-0.982101	-0.113516	-0.090115
Cu18	Cu	-0.482101	0.386484	0.409885
O19	O	-0.975441	-0.234545	0.076278
O20	O	-0.475441	0.265455	0.576278
C21	C	-0.830090	-0.119626	0.000038
C22	C	-0.330090	0.380374	0.500038
C23	C	-0.737794	-0.118011	0.000033
C24	C	-0.237794	0.381989	0.500033
C25	C	-0.988206	0.038491	0.000058
C26	C	-0.488206	0.538491	0.500058
C27	C	-0.986591	0.130786	0.000059
C28	C	-0.486591	0.630786	0.500059
C29	C	-1.134101	-0.107404	0.000055
C30	C	-0.634101	0.392596	0.500055
C31	C	-1.226397	-0.109019	0.000054
C32	C	-0.726397	0.390981	0.500054
C33	C	-0.975984	-0.265521	0.000035
C34	C	-0.475984	0.234479	0.500035
C35	C	-0.977600	-0.357816	0.000028
C36	C	-0.477600	0.142184	0.500028
C37	C	-0.515522	-0.190018	0.000038
C38	C	-0.015522	0.309982	0.500038
C39	C	-0.428801	-0.188494	0.000044
C40	C	0.071199	0.311506	0.500044
C41	C	-0.448676	-0.037006	0.000052
C42	C	0.051324	0.462994	0.500052
C43	C	-0.535394	-0.038530	0.000053
C44	C	-0.035394	0.461470	0.500053
C45	C	-0.568815	-0.115039	0.000041
C46	C	-0.068815	0.384961	0.500041
C47	C	-0.395376	-0.111990	0.000046
C48	C	0.104624	0.388010	0.500046
C49	C	-0.301350	-0.110337	0.000053
C50	C	0.198650	0.389663	0.500053
C51	C	-0.662847	-0.116693	0.000036
C52	C	-0.162847	0.383307	0.500036
N53	N	-0.982089	-0.113512	0.217042
N54	N	-0.482089	0.386488	0.717042
C55	C	-1.058599	0.353059	0.000049
C56	C	-0.558599	0.853059	0.500049
C57	C	-1.057075	0.439779	0.000041
C58	C	-0.557075	0.939779	0.500041
C59	C	-0.905586	0.419905	0.000036
C60	C	-0.405586	0.919905	0.500036
C61	C	-0.907111	0.333186	0.000037
C62	C	-0.407111	0.833186	0.500037
C63	C	-0.983620	0.299766	0.000048
C64	C	-0.483620	0.799766	0.500048
C65	C	-0.980571	0.473205	0.000039
C66	C	-0.480571	0.973205	0.500039
C67	C	-0.978918	0.567231	0.000031
C68	C	-0.478918	1.067231	0.500031
C69	C	-0.985273	0.205734	0.000055
C70	C	-0.485273	0.705734	0.500055
N71	N	-0.982109	-0.113511	-0.216947
N72	N	-0.482109	0.386489	0.283053
C73	C	-1.038644	-0.056994	0.452057
C74	C	-0.538644	0.443006	0.952057
C75	C	-1.038647	-0.056992	0.548038
C76	C	-0.538647	0.443008	1.048038
C77	C	-0.925547	-0.170032	0.548032
C78	C	-0.425547	0.329968	1.048032
C79	C	-0.925541	-0.170030	0.452052
C80	C	-0.425541	0.329970	0.952052
C81	C	-0.982095	-0.113511	0.404067
C82	C	-0.482095	0.386489	0.904067
C83	C	-0.982103	-0.113512	0.596028
C84	C	-0.482103	0.386488	1.096028
C85	C	-0.982105	-0.113510	0.700095
C86	C	-0.482105	0.386490	1.200095
C87	C	-0.982092	-0.113512	0.299993
C88	C	-0.482092	0.386488	0.799993
H89	H	-0.542730	-0.252317	0.000035
H90	H	-0.042730	0.247683	0.500035
H91	H	-0.578788	0.022530	0.000058
H92	H	-0.078788	0.522530	0.500058
F93	F	-0.865363	-0.230182	0.599107
F94	F	-0.365363	0.269818	1.099107
F95	F	-0.372086	-0.268298	0.000042
F96	F	0.127914	0.231702	0.500042
F97	F	-1.140026	0.317493	0.000060
F98	F	-0.640026	0.817493	0.500060
H99	H	-0.879487	-0.216053	0.412977
H100	H	-0.379487	0.283947	0.912977
F101	F	-0.413100	0.044416	0.000061
F102	F	0.086900	0.544416	0.500061
F103	F	-1.136878	0.496495	0.000040
F104	F	-0.636878	0.996495	0.500040
H105	H	-0.843295	0.447127	0.000028
H106	H	-0.343295	0.947127	0.500028
H107	H	-0.846050	0.289792	0.000033
H108	H	-0.346050	0.789792	0.500033
F109	F	-1.098832	0.003160	0.400991
F110	F	-0.598832	0.503160	0.900991
F111	F	-1.098833	0.003164	0.599108
F112	F	-0.598833	0.503164	1.099108
