data_functionalizedCrystal
_audit_creation_method	'MofGen! by Chris Wilmer'
_symmetry_space_group_name_H-M	'P1'
_symmetry_Int_Tables_number	1
_symmetry_cell_setting	triclinic
loop_
_symmetry_equiv_pos_as_xyz
  x,y,z
_cell_length_a	17.640112
_cell_length_b	13.897448
_cell_length_c	13.897441
_cell_angle_alpha	90.030599
_cell_angle_beta	78.825410
_cell_angle_gamma	101.242525
loop_
_atom_site_label
_atom_site_type_symbol
_atom_site_fract_x
_atom_site_fract_y
_atom_site_fract_z
Zn1	Zn	1.208346	-0.085573	0.247765
Zn2	Zn	1.208259	-0.246916	0.086488
Zn3	Zn	1.076171	-0.118257	0.119038
Zn4	Zn	1.076156	-0.279473	0.280278
O5	O	1.142233	-0.182555	0.183392
O6	O	1.318936	-0.079672	0.199142
O7	O	1.190707	-0.229902	-0.044169
O8	O	1.093747	0.021071	0.136130
O9	O	1.318872	-0.198210	0.080652
O10	O	1.190855	0.045084	0.230705
O11	O	1.093662	-0.135377	-0.020254
O12	O	0.965567	-0.166946	0.167656
O13	O	1.093721	-0.253699	0.410939
O14	O	0.965556	-0.285391	0.286118
O15	O	1.190841	-0.111241	0.387052
O16	O	1.190693	-0.386227	0.112179
O17	O	1.093637	-0.410146	0.254555
C18	C	0.936884	-0.233249	0.233948
C19	C	0.849035	-0.254959	0.255599
C20	C	1.142175	-0.433183	0.183378
C21	C	1.142223	-0.540385	0.183387
C22	C	0.560028	-0.017606	0.018922
C23	C	0.477481	-0.038026	0.039279
C24	C	0.477524	-0.161532	0.162420
C25	C	0.560073	-0.141119	0.142077
C26	C	0.601319	-0.069156	0.070326
C27	C	0.601363	-0.192670	0.193481
C28	C	0.683906	-0.172262	0.173135
C29	C	0.725157	-0.100304	0.101385
C30	C	0.683861	-0.048748	0.049980
C31	C	0.560116	-0.264637	0.265227
C32	C	0.601406	-0.316187	0.316631
C33	C	0.683950	-0.295775	0.296290
C34	C	0.725202	-0.223817	0.224540
C35	C	0.725246	-0.347331	0.347696
C36	C	0.807789	-0.326923	0.327350
C37	C	0.807744	-0.203409	0.204194
C38	C	1.142306	-0.736660	0.183427
C39	C	1.142257	-0.627440	0.183408
C40	C	1.348384	-0.131663	0.132640
C41	C	1.436233	-0.109976	0.111012
C42	C	1.142289	-0.182456	0.434971
C43	C	1.142313	-0.182413	0.542180
C44	C	1.142312	0.069058	0.183422
C45	C	1.142346	0.176280	0.183434
C46	C	1.142222	-0.182573	-0.067220
C47	C	1.142352	-0.182305	-0.174465
C48	C	1.142334	-0.182343	0.738470
C49	C	1.142320	-0.182385	0.629241
H50	H	0.841329	-0.144795	0.145782
H51	H	0.841408	-0.368899	0.369209
H52	H	0.792369	-0.083691	0.084819
H53	H	0.443930	-0.220127	0.220837
H54	H	0.443865	0.003965	-0.002579
H55	H	0.717446	0.009866	-0.008433
H56	H	0.691652	-0.405930	0.406108
H57	H	0.492905	-0.281251	0.281790
H58	H	0.593613	0.041008	-0.039491
H59	H	0.567813	-0.374783	0.375048
