data_functionalizedCrystal
_audit_creation_method	'MofGen! by Chris Wilmer'
_symmetry_space_group_name_H-M	'P1'
_symmetry_Int_Tables_number	1
_symmetry_cell_setting	triclinic
loop_
_symmetry_equiv_pos_as_xyz
  x,y,z
_cell_length_a	23.532361
_cell_length_b	8.559649
_cell_length_c	22.610064
_cell_angle_alpha	89.995925
_cell_angle_beta	90.010993
_cell_angle_gamma	103.695834
loop_
_atom_site_label
_atom_site_type_symbol
_atom_site_fract_x
_atom_site_fract_y
_atom_site_fract_z
O1	O	0.747202	-0.193745	0.049123
O2	O	1.247202	0.306255	0.549123
O3	O	0.580160	-0.221909	0.049137
O4	O	1.080160	0.278091	0.549137
O5	O	0.678398	0.025015	0.049128
O6	O	1.178398	0.525015	0.549128
O7	O	0.648965	-0.440669	0.049132
O8	O	1.148965	0.059331	0.549132
O9	O	0.678372	0.025015	-0.049241
O10	O	1.178372	0.525015	0.450759
O11	O	0.580134	-0.221909	-0.049232
O12	O	1.080134	0.278091	0.450768
O13	O	0.747177	-0.193745	-0.049246
O14	O	1.247177	0.306255	0.450754
Zn15	Zn	0.663651	-0.207827	-0.064857
Zn16	Zn	1.163651	0.292173	0.435143
Zn17	Zn	0.663685	-0.207827	0.064749
Zn18	Zn	1.163685	0.292173	0.564749
O19	O	0.648939	-0.440669	-0.049237
O20	O	1.148939	0.059331	0.450763
C21	C	0.558960	-0.221203	-0.000046
C22	C	1.058960	0.278797	0.499954
C23	C	0.495830	-0.219083	-0.000040
C24	C	0.995830	0.280917	0.499960
C25	C	0.222987	-0.209808	0.053577
C26	C	0.722987	0.290192	0.553577
C27	C	0.282303	-0.211815	0.053579
C28	C	0.782303	0.288185	0.553579
O29	O	0.313000	-0.212798	0.099180
O30	O	0.813000	0.287202	0.599180
N31	N	0.311953	-0.212829	-0.000043
N32	N	0.811953	0.287171	0.499957
C33	C	0.282284	-0.211819	-0.053669
C34	C	0.782284	0.288181	0.446331
O35	O	0.312950	-0.212865	-0.099278
O36	O	0.812950	0.287135	0.400722
C37	C	0.222971	-0.209801	-0.053670
C38	C	0.722971	0.290199	0.446330
C39	C	0.193323	-0.208803	-0.000045
C40	C	0.693323	0.291197	0.499955
C41	C	0.193340	-0.208809	0.107198
C42	C	0.693340	0.291191	0.607198
C43	C	0.134027	-0.206804	0.107196
C44	C	0.634027	0.293196	0.607196
C45	C	0.104363	-0.205800	0.053574
C46	C	0.604363	0.294200	0.553574
C47	C	0.134011	-0.206799	-0.000047
C48	C	0.634011	0.293201	0.499953
C49	C	0.193304	-0.208780	-0.107295
C50	C	0.693304	0.291220	0.392705
C51	C	0.133987	-0.206759	-0.107292
C52	C	0.633987	0.293241	0.392708
C53	C	0.104339	-0.205762	-0.053667
C54	C	0.604339	0.294238	0.446333
C55	C	0.045034	-0.203790	-0.053670
C56	C	0.545034	0.296210	0.446330
N57	N	0.015384	-0.202776	-0.000049
N58	N	0.515384	0.297224	0.499951
C59	C	0.045049	-0.203781	0.053573
C60	C	0.545049	0.296219	0.553573
C61	C	0.406848	-0.216056	-0.053663
C62	C	0.906848	0.283944	0.446337
C63	C	0.466160	-0.218086	-0.053663
C64	C	0.966160	0.281914	0.446337
C65	C	0.466175	-0.218079	0.053585
C66	C	0.966175	0.281921	0.553585
C67	C	0.406861	-0.216060	0.053584
C68	C	0.906861	0.283940	0.553584
C69	C	0.377198	-0.215042	-0.000042
C70	C	0.877198	0.284958	0.499958
C71	C	-0.079511	-0.199574	0.053565
C72	C	0.420489	0.300426	0.553565
C73	C	-0.138829	-0.197576	0.053559
C74	C	0.361171	0.302424	0.553559
C75	C	-0.138838	-0.197575	-0.053688
C76	C	0.361162	0.302425	0.446312
C77	C	-0.079526	-0.199581	-0.053682
C78	C	0.420474	0.300419	0.446318
C79	C	-0.049863	-0.200575	-0.000051
C80	C	0.450137	0.299425	0.499949
O81	O	0.014300	-0.202800	-0.099249
O82	O	0.514300	0.297200	0.400751
O83	O	0.014378	-0.202714	0.099174
O84	O	0.514378	0.297286	0.599174
C85	C	0.680615	0.084582	-0.000055
C86	C	1.180615	0.584582	0.499945
C87	C	0.687255	0.262070	-0.000052
C88	C	1.187255	0.762070	0.499948
C89	C	0.768376	-0.194451	-0.000062
C90	C	1.268376	0.305549	0.499938
C91	C	0.831506	-0.196571	-0.000063
C92	C	1.331506	0.303429	0.499937
C93	C	0.646721	-0.500236	-0.000052
C94	C	1.146721	-0.000236	0.499948
C95	C	0.640082	-0.677724	-0.000051
C96	C	1.140082	-0.177724	0.499949
N97	N	0.663633	-0.207826	-0.153310
N98	N	1.163633	0.292174	0.346690
C99	C	0.694006	-0.304282	-0.561953
C100	C	1.194006	0.195718	-0.061953
C101	C	0.694014	-0.304278	-0.623873
C102	C	1.194014	0.195722	-0.123873
O103	O	0.719816	-0.386277	-0.655894
O104	O	1.219816	0.113723	-0.155894
N105	N	0.663697	-0.207809	-0.654847
N106	N	1.163697	0.292191	-0.154847
C107	C	0.633376	-0.111325	-0.623897
C108	C	1.133376	0.388675	-0.123897
O109	O	0.607590	-0.029269	-0.655928
O110	O	1.107590	0.470731	-0.155928
C111	C	0.633372	-0.111321	-0.561978
C112	C	1.133372	0.388679	-0.061978
C113	C	0.663686	-0.207809	-0.531008
C114	C	1.163686	0.292191	-0.031008
C115	C	0.724318	-0.400760	-0.530983
C116	C	1.224318	0.099240	-0.030983
C117	C	0.724310	-0.400766	-0.469067
C118	C	1.224310	0.099234	0.030933
C119	C	0.693990	-0.304294	-0.438122
C120	C	1.193990	0.195706	0.061878
C121	C	0.663678	-0.207815	-0.469092
C122	C	1.163678	0.292185	0.030908
C123	C	0.603055	-0.014830	-0.531030
C124	C	1.103055	0.485170	-0.031030
C125	C	0.603054	-0.014834	-0.469107
C126	C	1.103054	0.485166	0.030893
C127	C	0.633368	-0.111322	-0.438137
C128	C	1.133368	0.388678	0.061863
C129	C	0.633349	-0.111348	-0.376231
C130	C	1.133349	0.388652	0.123769
N131	N	0.663666	-0.207817	-0.345258
N132	N	1.163666	0.292183	0.154742
C133	C	0.693986	-0.304290	-0.376203
C134	C	1.193986	0.195710	0.123797
C135	C	0.633386	-0.111337	-0.753931
C136	C	1.133386	0.388663	-0.253931
C137	C	0.633386	-0.111348	-0.815848
C138	C	1.133386	0.388652	-0.315848
C139	C	0.694025	-0.304299	-0.815820
C140	C	1.194025	0.195701	-0.315820
C141	C	0.694021	-0.304296	-0.753901
C142	C	1.194021	0.195704	-0.253901
C143	C	0.663703	-0.207807	-0.722957
C144	C	1.163703	0.292193	-0.222957
C145	C	0.693966	-0.304296	-0.246176
C146	C	1.193966	0.195704	0.253824
C147	C	0.693953	-0.304299	-0.184255
C148	C	1.193953	0.195701	0.315745
C149	C	0.633317	-0.111342	-0.184288
C150	C	1.133317	0.388658	0.315712
C151	C	0.633327	-0.111345	-0.246204
C152	C	1.133327	0.388655	0.253796
C153	C	0.663656	-0.207827	-0.277146
C154	C	1.163656	0.292173	0.222854
O155	O	0.607562	-0.029386	-0.344171
O156	O	1.107562	0.470614	0.155829
O157	O	0.719774	-0.386316	-0.344165
O158	O	1.219774	0.113684	0.155835
N159	N	0.663709	-0.207815	0.153201
N160	N	1.163709	0.292185	0.653201
H161	H	-0.162966	-0.196768	0.097229
H162	H	0.337034	0.303232	0.597229
H163	H	-0.055367	-0.200385	0.097237
H164	H	0.444633	0.299615	0.597237
H165	H	0.718713	-0.382855	-0.841027
H166	H	1.218713	0.117145	-0.341027
H167	H	0.608694	-0.032798	-0.841059
H168	H	1.108694	0.467202	-0.341059
H169	H	0.718705	-0.382866	-0.728689
H170	H	1.218705	0.117134	-0.228689
H171	H	0.608692	-0.032770	-0.728740
H172	H	1.108692	0.467230	-0.228740
H173	H	0.732724	0.346319	-0.000061
H174	H	1.232724	0.846319	0.499939
Br175	Br	0.506385	-0.219481	-0.126442
Br176	Br	1.006385	0.280519	0.373558
H177	H	0.718637	-0.382878	-0.159042
H178	H	1.218637	0.117122	0.340958
H179	H	0.382725	-0.215248	0.097250
H180	H	0.882725	0.284752	0.597250
Br181	Br	0.561911	0.116122	-0.573045
Br182	Br	1.061911	0.616122	-0.073045
H183	H	0.594615	0.238036	-0.000049
H184	H	1.094615	0.738036	0.499951
H185	H	0.748997	-0.479330	-0.443857
H186	H	1.248997	0.020670	0.056143
Br187	Br	0.233525	-0.210137	-0.180077
Br188	Br	0.733525	0.289863	0.319923
Br189	Br	0.233588	-0.210167	0.179981
Br190	Br	0.733588	0.289833	0.679981
H191	H	0.718663	-0.382860	-0.271362
H192	H	1.218663	0.117140	0.228638
Br193	Br	0.765473	-0.531704	-0.572968
Br194	Br	1.265473	-0.031704	-0.072968
H195	H	0.578365	0.063742	-0.443915
H196	H	1.078365	0.563742	0.056085
Br197	Br	0.592179	0.019583	-0.288237
Br198	Br	1.092179	0.519583	0.211763
Br199	Br	0.592167	0.019573	-0.142279
Br200	Br	1.092167	0.519573	0.357721
Br201	Br	-0.039291	-0.200961	-0.126459
Br202	Br	0.460709	0.299039	0.373541
Br203	Br	0.093801	-0.205438	0.179976
Br204	Br	0.593801	0.294562	0.679976
H205	H	0.382699	-0.215248	-0.097334
H206	H	0.882699	0.284752	0.402666
Br207	Br	0.506444	-0.219452	0.126359
Br208	Br	1.006444	0.280548	0.626359
H209	H	-0.163002	-0.196763	-0.097346
H210	H	0.336998	0.303237	0.402654
Br211	Br	0.093736	-0.205362	-0.180074
Br212	Br	0.593736	0.294638	0.319926
