data_functionalizedCrystal
_audit_creation_method	'MofGen! by Chris Wilmer'
_symmetry_space_group_name_H-M	'P1'
_symmetry_Int_Tables_number	1
_symmetry_cell_setting	triclinic
loop_
_symmetry_equiv_pos_as_xyz
  x,y,z
_cell_length_a	15.944493
_cell_length_b	23.532407
_cell_length_c	15.021413
_cell_angle_alpha	89.995515
_cell_angle_beta	89.993251
_cell_angle_gamma	83.161895
loop_
_atom_site_label
_atom_site_type_symbol
_atom_site_fract_x
_atom_site_fract_y
_atom_site_fract_z
O1	O	1.113942	0.073285	-0.074037
O2	O	0.869309	0.082375	-0.074044
O3	O	0.999002	-0.005074	-0.074015
O4	O	0.984248	0.160734	-0.074066
O5	O	0.998981	-0.005062	0.074049
O6	O	0.869288	0.082388	0.074021
O7	O	1.113921	0.073298	0.074027
Zn8	Zn	0.991601	0.077845	0.097532
Zn9	Zn	0.991629	0.077828	-0.097549
O10	O	0.984228	0.160747	0.073999
C11	C	0.838007	0.082010	-0.000012
C12	C	0.744768	0.080896	-0.000013
C13	C	0.508574	0.132371	-0.000030
C14	C	0.458239	0.104619	0.072986
C15	C	0.574064	0.078832	-0.000011
C16	C	0.458264	0.104594	-0.072994
C17	C	0.409171	0.076843	-0.000013
C18	C	0.524957	0.051095	0.073065
C19	C	0.524986	0.051077	-0.072980
C20	C	0.474684	0.023286	0.000053
C21	C	0.669054	0.079980	-0.000009
C22	C	0.314184	0.075691	-0.000008
C23	C	0.998616	-0.026285	0.000021
C24	C	0.997486	-0.089506	0.000035
C25	C	0.916078	-0.355978	-0.000023
C26	C	0.917128	-0.296574	-0.000016
O27	O	0.852548	-0.260070	-0.000046
N28	N	0.994230	-0.273660	-0.000004
C29	C	1.070289	-0.310153	-0.000007
O30	O	1.135967	-0.285208	0.000003
C31	C	1.069238	-0.369556	-0.000021
C32	C	0.992131	-0.392467	-0.000024
C33	C	0.838977	-0.378889	-0.000027
C34	C	0.837928	-0.438289	-0.000032
C35	C	0.913980	-0.474778	-0.000033
C36	C	0.991082	-0.451867	-0.000029
C37	C	1.145296	-0.406049	-0.000031
C38	C	1.144239	-0.465455	-0.000045
C39	C	1.067131	-0.488366	-0.000048
C40	C	1.066085	-0.547756	-0.000035
N41	N	0.988983	-0.570670	-0.000048
C42	C	0.912930	-0.534181	-0.000047
C43	C	1.072488	-0.185403	0.000019
C44	C	1.073539	-0.126001	0.000038
C45	C	0.920378	-0.112425	0.000028
C46	C	0.919328	-0.171828	0.000015
C47	C	0.995386	-0.208317	0.000007
C48	C	0.910733	-0.658926	-0.000057
C49	C	0.909691	-0.718332	-0.000058
C50	C	1.062852	-0.731902	-0.000053
C51	C	1.063895	-0.672502	-0.000046
C52	C	0.987828	-0.636014	-0.000052
O53	O	1.130632	-0.584294	-0.000009
O54	O	0.847263	-0.559134	-0.000069
C55	C	1.145223	0.073663	-0.000007
C56	C	1.238462	0.074777	-0.000011
C57	C	0.984614	0.181958	-0.000040
C58	C	0.985743	0.245179	-0.000059
N59	N	0.991589	0.077855	0.230670
N60	N	0.991648	0.077813	-0.230686
C61	C	0.931610	0.118273	0.470340
C62	C	1.007419	0.129319	0.529672
C63	C	0.991611	0.077841	0.412277
C64	C	0.915822	0.066808	0.529686
C65	C	0.991625	0.077829	0.587701
C66	C	1.067458	0.088912	0.470303
C67	C	0.975811	0.026380	0.470311
C68	C	1.051675	0.037404	0.529617
C69	C	0.991601	0.077850	0.311219
C70	C	0.991643	0.077820	0.688756
H71	H	0.429103	0.127234	0.134700
H72	H	0.880920	0.152492	0.444313
O73	O	1.220273	-0.383898	-0.000070
C74	C	1.287162	-0.428853	-0.000057
H75	H	1.263952	-0.469200	-0.028092
H76	H	1.341032	-0.416442	-0.043044
H77	H	1.310591	-0.437268	0.070975
O78	O	0.559914	0.024117	-0.146536
C79	C	0.648141	0.025128	-0.145074
H80	H	0.669788	0.030778	-0.073630
H81	H	0.680801	-0.016847	-0.172938
H82	H	0.665177	0.062270	-0.187470
H83	H	0.553967	0.028503	0.134855
H84	H	0.429144	0.127209	-0.134714
H85	H	1.124772	-0.761622	-0.000049
H86	H	1.020796	0.172833	0.555746
O87	O	0.456730	-0.031780	0.000274
C88	C	0.491035	-0.059788	0.077340
H89	H	0.499975	-0.026713	0.130885
H90	H	0.446175	-0.090396	0.102832
H91	H	0.554694	-0.084902	0.060624
O92	O	1.143866	0.100158	0.439174
C93	C	1.142921	0.100059	0.345318
H94	H	1.074976	0.108980	0.320774
H95	H	1.180996	0.134635	0.319409
H96	H	1.172027	0.056482	0.319875
O97	O	0.763077	-0.460606	-0.000167
C98	C	0.757887	-0.494537	-0.076873
H99	H	0.824223	-0.509337	-0.102428
H100	H	0.724720	-0.533432	-0.059644
H101	H	0.720524	-0.468280	-0.130570
H102	H	0.777042	-0.349185	-0.000029
H103	H	0.962411	-0.017120	0.444216
H104	H	1.102477	0.003204	0.555480
H105	H	0.858452	-0.082705	0.000030
H106	H	1.206176	-0.495162	-0.000056
H107	H	1.126682	-0.653847	-0.000031
O108	O	1.146321	-0.220904	0.000141
C109	C	1.150299	-0.255670	0.076830
H110	H	1.083650	-0.258684	0.102388
H111	H	1.181983	-0.300312	0.059578
H112	H	1.188479	-0.236129	0.130535
H113	H	0.846898	-0.736982	-0.000057
H114	H	0.848793	-0.629224	-0.000061
O115	O	0.839284	0.055745	0.560696
C116	C	0.776216	0.098494	0.530510
H117	H	0.799230	0.119357	0.468021
H118	H	0.716346	0.078417	0.514525
H119	H	0.762073	0.132274	0.584575
H120	H	0.523809	0.178488	0.000025
H121	H	0.856540	-0.190477	0.000016
O122	O	1.148516	-0.103844	0.000012
C123	C	1.215410	-0.148795	0.000034
H124	H	1.192208	-0.189144	-0.028003
H125	H	1.269282	-0.136381	-0.042949
H126	H	1.238833	-0.157207	0.071069
