data_functionalizedCrystal
_audit_creation_method	'MofGen! by Chris Wilmer'
_symmetry_space_group_name_H-M	'P1'
_symmetry_Int_Tables_number	1
_symmetry_cell_setting	triclinic
loop_
_symmetry_equiv_pos_as_xyz
  x,y,z
_cell_length_a	19.288864
_cell_length_b	17.766277
_cell_length_c	19.288874
_cell_angle_alpha	90.008252
_cell_angle_beta	83.138236
_cell_angle_gamma	90.012907
loop_
_atom_site_label
_atom_site_type_symbol
_atom_site_fract_x
_atom_site_fract_y
_atom_site_fract_z
O1	O	0.921345	0.062836	0.086651
O2	O	0.719085	0.062785	0.098340
O3	O	0.826056	0.062806	-0.008635
O4	O	0.814374	0.062815	0.193625
O5	O	0.826059	-0.062382	-0.008645
O6	O	0.719088	-0.062403	0.098329
O7	O	0.921348	-0.062352	0.086640
Cu8	Cu	0.820218	-0.073808	0.092484
Cu9	Cu	0.820215	0.074241	0.092496
O10	O	0.814377	-0.062373	0.193614
C11	C	0.693210	0.000184	0.097958
C12	C	0.616106	0.000164	0.096829
C13	C	0.571412	0.000179	0.159597
C14	C	0.498965	0.000187	0.158536
C15	C	0.471215	0.000196	0.094704
C16	C	0.515919	0.000177	0.031928
C17	C	0.588365	0.000161	0.032991
C18	C	0.362951	0.044078	0.044529
C19	C	0.290506	0.044099	0.043469
C20	C	0.247770	0.000241	0.091425
C21	C	0.277485	-0.043626	0.140452
C22	C	0.349931	-0.043642	0.141514
C23	C	0.392661	0.000213	0.093545
C24	C	0.124520	0.000264	0.153047
C25	C	0.052071	0.000268	0.151983
C26	C	0.069027	0.000265	0.025374
C27	C	0.141474	0.000254	0.026439
C28	C	0.169215	0.000257	0.090277
C29	C	0.825680	0.000212	-0.034516
C30	C	0.824549	0.000212	-0.111619
C31	C	0.947223	0.000250	0.087022
C32	C	1.024327	0.000275	0.088151
N33	N	0.820213	0.178372	0.092500
N34	N	0.820225	-0.177939	0.092474
C35	C	0.867664	0.217768	0.045224
C36	C	0.867670	0.296570	0.045223
C37	C	0.820213	0.335972	0.092491
C38	C	0.772759	0.296566	0.139776
C39	C	0.772759	0.217766	0.139780
C40	C	0.756926	0.460802	0.101636
C41	C	0.756925	0.539600	0.101627
C42	C	0.820214	0.579019	0.092481
C43	C	0.883506	0.539628	0.083330
C44	C	0.883506	0.460828	0.083335
C45	C	0.820208	0.421418	0.092492
C46	C	0.867675	0.703861	0.045201
C47	C	0.867682	0.782664	0.045205
C48	C	0.772765	0.782659	0.139755
C49	C	0.772764	0.703857	0.139754
C50	C	0.820218	0.664463	0.092474
C51	C	0.816424	-0.068012	-0.667195
C52	C	0.817480	-0.068016	-0.594747
C53	C	0.818010	0.000224	-0.558510
C54	C	0.817466	0.068472	-0.594724
C55	C	0.816403	0.068474	-0.667170
C56	C	0.860374	0.052513	-0.449174
C57	C	0.861441	0.052509	-0.376730
C58	C	0.821285	0.000221	-0.335064
C59	C	0.780070	-0.052075	-0.365850
C60	C	0.779007	-0.052073	-0.438296
C61	C	0.819162	0.000229	-0.479955
C62	C	0.822969	-0.068027	-0.220301
C63	C	0.824020	-0.068028	-0.147852
C64	C	0.824013	0.068462	-0.147831
C65	C	0.822954	0.068461	-0.220279
C66	C	0.822436	0.000214	-0.256510
C67	C	0.814753	0.000223	0.219496
C68	C	0.815884	0.000228	0.296599
H69	H	0.462568	0.000197	0.209651
Br70	Br	0.671033	0.593051	0.114112
Br71	Br	0.649026	0.000140	-0.052201
H72	H	0.705386	0.428714	0.109087
H73	H	0.906306	0.185696	0.006727
H74	H	0.374122	-0.079364	0.181432
Br75	Br	0.250184	0.103643	-0.023058
H76	H	0.893071	0.095100	-0.483093
H77	H	0.397742	0.079797	0.005477
Br78	Br	0.219494	-0.103149	0.205541
H79	H	0.906317	0.671785	0.006705
Br80	Br	0.824698	0.161075	-0.098656
Br81	Br	-0.008588	0.000281	0.237176
Br82	Br	0.478261	0.000181	-0.054701
Br83	Br	0.708357	0.350038	0.203931
Br84	Br	0.708366	0.836127	0.203912
Br85	Br	0.723073	-0.123038	-0.480076
Br86	Br	0.822226	0.161077	-0.269420
Br87	Br	0.818219	-0.160633	-0.545600
Br88	Br	0.932090	0.836135	-0.018954
Br89	Br	0.822263	-0.160645	-0.269476
Br90	Br	0.969397	0.407372	0.070922
H91	H	0.734118	0.185689	0.178279
H92	H	0.815963	0.124045	-0.696648
H93	H	0.734122	0.671779	0.178248
H94	H	0.906312	0.328652	0.006724
H95	H	0.824458	-0.123599	-0.118374
H96	H	0.593994	0.000183	0.211579
H97	H	0.895004	0.095087	-0.351670
Br98	Br	0.969403	0.593114	0.070909
H99	H	0.177865	0.000246	-0.024674
H100	H	0.817895	0.124033	-0.565215
Br101	Br	0.725574	-0.123048	-0.309313
Br102	Br	0.031375	0.000264	-0.061257
Br103	Br	0.162173	0.000263	0.239682
Br104	Br	0.815715	-0.160632	-0.716361
