data_functionalizedCrystal
_audit_creation_method	'MofGen! by Chris Wilmer'
_symmetry_space_group_name_H-M	'P1'
_symmetry_Int_Tables_number	1
_symmetry_cell_setting	triclinic
loop_
_symmetry_equiv_pos_as_xyz
  x,y,z
_cell_length_a	10.723023
_cell_length_b	13.339070
_cell_length_c	9.798715
_cell_angle_alpha	89.999403
_cell_angle_beta	90.003856
_cell_angle_gamma	79.951579
loop_
_atom_site_label
_atom_site_type_symbol
_atom_site_fract_x
_atom_site_fract_y
_atom_site_fract_z
O1	O	-1.704930	0.142221	-0.113492
O2	O	-1.346348	0.155836	-0.113493
O3	O	-1.484485	0.001480	-0.113489
O4	O	-1.566792	0.296578	-0.113497
O5	O	-1.484471	0.001479	0.113494
O6	O	-1.346333	0.155835	0.113489
O7	O	-1.704915	0.142221	0.113490
Zn8	Zn	-1.525622	0.149028	0.149528
Zn9	Zn	-1.525641	0.149029	-0.149531
O10	O	-1.566778	0.296577	0.113486
C11	C	-1.299508	0.154845	-0.000002
C12	C	-1.159959	0.151881	-0.000003
C13	C	-1.097736	0.150560	0.117581
C14	C	-0.953505	0.147496	0.117583
C15	C	-1.470574	-0.036306	0.000001
C16	C	-1.429132	-0.148896	-0.000005
C17	C	-1.751367	-0.511453	-0.000003
C18	C	-1.790308	-0.405670	0.000010
C19	C	-1.700017	-0.341471	0.000005
C20	C	-1.570779	-0.383066	-0.000011
C21	C	-1.531834	-0.488859	-0.000013
C22	C	-1.480484	-0.318877	-0.000004
C23	C	-1.351246	-0.360472	-0.000020
C24	C	-1.312307	-0.466255	-0.000024
C25	C	-1.402598	-0.530454	-0.000019
C26	C	-1.519429	-0.213084	-0.000002
C27	C	-1.299896	-0.190490	-0.000011
C28	C	-1.260955	-0.296273	-0.000024
C29	C	-0.751755	0.143212	-0.000001
C30	C	-0.891304	0.146175	-0.000000
C31	C	-1.580688	0.334363	-0.000007
C32	C	-1.622131	0.446952	-0.000010
N33	N	-1.525618	0.149027	0.353628
N34	N	-1.525652	0.149022	-0.353631
C35	C	-1.583522	0.083932	0.421406
C36	C	-1.583541	0.083928	0.578569
H37	H	-1.624656	-0.179229	0.000012
H38	H	-1.895534	-0.371812	0.000025
Cl39	Cl	-1.353648	-0.663444	-0.000198
Cl40	Cl	-1.098488	-0.348576	-0.000047
H41	H	-1.476081	0.204759	0.588091
Cl42	Cl	-1.149836	-0.518542	-0.000024
H43	H	-1.226373	-0.138219	-0.000008
Cl44	Cl	-1.180336	0.152311	0.273009
H45	H	-1.633077	0.028199	0.363085
Cl46	Cl	-1.660092	-0.002115	0.668554
H47	H	-1.476052	0.204752	0.411950
Cl48	Cl	-0.973906	0.147938	-0.155437
Cl49	Cl	-1.077357	0.150119	-0.155431
Cl50	Cl	-0.870897	0.145750	0.273014
H51	H	-1.731731	-0.255339	0.000016
H52	H	-1.824867	-0.563732	0.000011
