data_functionalizedCrystal
_audit_creation_method	'MofGen! by Chris Wilmer'
_symmetry_space_group_name_H-M	'P1'
_symmetry_Int_Tables_number	1
_symmetry_cell_setting	triclinic
loop_
_symmetry_equiv_pos_as_xyz
  x,y,z
_cell_length_a	19.805407
_cell_length_b	15.297327
_cell_length_c	19.805399
_cell_angle_alpha	99.649417
_cell_angle_beta	89.980427
_cell_angle_gamma	99.707092
loop_
_atom_site_label
_atom_site_type_symbol
_atom_site_fract_x
_atom_site_fract_y
_atom_site_fract_z
Zn1	Zn	0.988098	-0.359189	-0.429336
Zn2	Zn	0.968423	-0.510058	-0.335728
Zn3	Zn	0.874909	-0.359214	-0.316164
Zn4	Zn	0.855293	-0.510010	-0.448869
O5	O	0.921681	-0.434618	-0.382524
O6	O	1.080203	-0.379212	-0.416932
O7	O	0.955994	-0.490079	-0.238420
O8	O	0.906367	-0.232963	-0.314814
O9	O	1.065749	-0.490055	-0.348159
O10	O	0.989526	-0.232945	-0.397962
O11	O	0.887290	-0.379254	-0.224047
O12	O	0.777592	-0.379208	-0.333754
O13	O	0.872934	-0.489973	-0.540990
O14	O	0.763180	-0.489997	-0.431252
O15	O	0.970505	-0.379166	-0.526640
O16	O	0.936973	-0.636300	-0.367099
O17	O	0.853857	-0.636265	-0.450222
C18	C	0.745827	-0.434601	-0.382500
C19	C	0.670593	-0.434615	-0.382509
C20	C	0.627751	-0.492390	-0.433217
C21	C	0.557063	-0.492392	-0.433227
C22	C	0.529217	-0.434622	-0.382525
C23	C	0.572065	-0.376841	-0.331814
C24	C	0.642752	-0.376835	-0.331808
C25	C	0.286989	-0.376861	-0.331839
C26	C	0.216295	-0.376873	-0.331848
C27	C	0.201299	-0.492417	-0.433258
C28	C	0.271987	-0.492412	-0.433252
C29	C	0.314829	-0.434627	-0.382543
C30	C	0.391477	-0.434625	-0.382534
C31	C	0.452569	-0.434628	-0.382531
C32	C	0.891170	-0.669017	-0.412918
C33	C	0.878179	-0.769294	-0.425943
C34	C	1.014807	-1.051906	-0.289663
C35	C	1.027012	-0.957691	-0.277422
C36	C	0.989805	-0.910587	-0.314551
C37	C	0.940391	-0.957708	-0.363923
C38	C	0.928180	-1.051932	-0.376162
C39	C	0.903178	-0.910613	-0.401050
C40	C	0.853764	-0.957734	-0.450423
C41	C	0.841556	-1.051949	-0.462659
C42	C	0.878763	-1.099053	-0.425530
C43	C	0.915389	-0.816389	-0.388812
C44	C	0.828762	-0.816415	-0.475311
C45	C	0.816557	-0.910630	-0.487552
C46	C	1.098221	-0.434636	-0.382549
C47	C	1.173452	-0.434644	-0.382559
C48	C	0.921726	-0.434561	-0.559060
C49	C	0.921746	-0.434537	-0.634289
C50	C	0.952329	-0.199304	-0.352027
C51	C	0.965390	-0.099027	-0.339031
C52	C	0.972552	-0.376837	-0.662161
C53	C	0.972562	-0.376810	-0.732846
C54	C	0.921768	-0.434490	-0.775658
C55	C	0.870957	-0.492193	-0.747781
C56	C	0.870944	-0.492214	-0.677096
C57	C	0.871006	-0.492109	-1.032843
C58	C	0.871024	-0.492085	-1.103533
C59	C	0.972624	-0.376705	-1.088593
C60	C	0.972612	-0.376726	-1.017909
C61	C	0.921798	-0.434426	-0.990037
C62	C	0.921787	-0.434452	-0.913392
C63	C	0.921782	-0.434469	-0.852303
C64	C	0.921683	-0.434610	-0.206667
C65	C	0.921828	-0.434380	-0.131406
H66	H	0.955622	-0.778031	-0.348612
C67	C	0.475964	-0.505109	-0.525920
C68	C	0.509975	-0.555906	-0.488967
H69	H	0.446899	-0.544324	-0.560336
H70	H	0.449262	-0.470714	-0.495731
H71	H	0.508669	-0.465849	-0.546763
H72	H	0.477270	-0.595162	-0.468120
H73	H	0.536678	-0.590316	-0.519161
C74	C	1.054458	-0.775612	-0.249929
C75	C	1.003226	-0.807024	-0.301102
H76	H	1.062749	-0.711673	-0.241631
H77	H	1.040005	-0.796968	-0.209021
H78	H	1.095371	-0.796880	-0.264438
H79	H	0.962312	-0.785761	-0.286591
H80	H	1.017677	-0.785659	-0.342019
C81	C	0.759379	-1.055075	-0.544713
C82	C	0.762236	-0.962432	-0.541816
H83	H	0.725840	-1.087054	-0.578210
H84	H	0.802853	-1.070451	-0.556659
H85	H	0.747494	-1.070553	-0.501234
H86	H	0.774126	-0.946953	-0.585294
H87	H	0.718752	-0.947050	-0.529874
C88	C	1.073060	-0.262657	-1.066725
C89	C	1.028478	-0.313272	-1.119230
H90	H	1.107543	-0.223503	-1.085639
H91	H	1.048061	-0.228154	-1.034678
H92	H	1.093820	-0.301989	-1.044256
H93	H	1.007714	-0.273940	-1.141695
H94	H	1.053480	-0.347777	-1.151288
H95	H	0.829639	-0.539104	-1.010161
H96	H	1.045092	-1.090267	-0.259433
H97	H	0.829658	-0.539057	-1.138389
C98	C	0.878517	-1.233940	-0.507460
C99	C	0.865355	-1.202619	-0.438987
H100	H	0.870246	-1.297878	-0.515765
H101	H	0.849278	-1.212644	-0.536630
H102	H	0.924957	-1.212549	-0.516419
H103	H	0.818913	-1.224005	-0.430029
H104	H	0.894594	-1.223924	-0.409808
H105	H	1.013936	-0.329827	-0.755537
H106	H	0.549387	-0.329800	-0.290534
H107	H	0.801311	-1.090312	-0.502854
C108	C	0.833044	-0.710403	-0.552586
C109	C	0.787861	-0.764649	-0.516131
H110	H	0.807793	-0.678447	-0.577786
H111	H	0.864215	-0.668861	-0.521434
H112	H	0.857758	-0.747118	-0.583269
H113	H	0.763150	-0.727934	-0.485444
H114	H	0.756678	-0.806197	-0.547287
H115	H	0.294654	-0.539456	-0.474536
H116	H	1.067245	-0.919329	-0.237222
C117	C	0.138426	-0.364191	-0.239168
C118	C	0.185691	-0.313370	-0.276106
H119	H	0.119537	-0.324991	-0.204752
H120	H	0.102795	-0.398591	-0.269366
H121	H	0.160894	-0.403447	-0.218326
H122	H	0.163221	-0.274118	-0.296953
H123	H	0.221327	-0.278955	-0.245903
C124	C	1.072980	-0.262776	-0.654500
C125	C	1.028386	-0.313430	-0.615105
H126	H	1.107446	-0.223626	-0.625449
H127	H	1.093755	-0.302077	-0.687167
H128	H	1.047981	-0.228260	-0.677594
H129	H	1.053385	-0.347951	-0.592015
H130	H	1.007610	-0.274124	-0.582426
C131	C	0.757774	-0.325518	-0.286771
C132	C	0.689848	-0.313328	-0.276068
H133	H	0.786848	-0.286303	-0.252362
H134	H	0.761466	-0.386108	-0.284643
H135	H	0.771077	-0.312394	-0.330565
H136	H	0.676544	-0.326459	-0.232276
H137	H	0.686153	-0.252724	-0.278189
C138	C	0.086280	-0.543732	-0.478312
C139	C	0.154205	-0.555927	-0.489005
H140	H	0.057210	-0.582937	-0.512729
H141	H	0.072969	-0.556857	-0.434527
H142	H	0.082594	-0.483131	-0.480438
H143	H	0.157892	-0.616526	-0.486874
H144	H	0.167520	-0.542808	-0.532801
C145	C	0.825863	-0.543398	-0.862768
C146	C	0.815122	-0.555596	-0.794839
H147	H	0.791395	-0.582548	-0.891818
H148	H	0.823853	-0.482785	-0.866493
H149	H	0.869624	-0.556606	-0.876065
H150	H	0.771363	-0.542382	-0.781540
H151	H	0.817126	-0.616224	-0.791111
H152	H	1.013975	-0.329761	-0.983054
C153	C	0.818091	-0.644989	-0.675115
C154	C	0.815106	-0.555649	-0.646451
H155	H	0.783622	-0.684150	-0.656191
H156	H	0.810821	-0.653229	-0.723331
H157	H	0.861853	-0.658180	-0.665251
H158	H	0.771346	-0.542456	-0.656320
H159	H	0.822371	-0.547405	-0.598224
C160	C	0.605821	-0.606596	-0.533465
C161	C	0.658356	-0.555890	-0.488953
H162	H	0.624716	-0.645793	-0.567878
H163	H	0.573756	-0.641057	-0.508404
H164	H	0.583370	-0.567324	-0.554310
H165	H	0.680804	-0.595162	-0.468105
H166	H	0.690433	-0.521427	-0.514017
C167	C	0.294702	-0.262648	-0.231599
C168	C	0.334074	-0.313347	-0.276100
H169	H	0.323774	-0.223438	-0.197186
H170	H	0.271625	-0.228201	-0.256669
H171	H	0.262011	-0.301923	-0.210755
H172	H	0.366762	-0.274071	-0.296949
H173	H	0.357162	-0.347796	-0.251027
