data_functionalizedCrystal
_audit_creation_method	'MofGen! by Chris Wilmer'
_symmetry_space_group_name_H-M	'P1'
_symmetry_Int_Tables_number	1
_symmetry_cell_setting	triclinic
loop_
_symmetry_equiv_pos_as_xyz
  x,y,z
_cell_length_a	18.215407
_cell_length_b	10.686285
_cell_length_c	18.215399
_cell_angle_alpha	85.609148
_cell_angle_beta	89.980167
_cell_angle_gamma	85.632014
loop_
_atom_site_label
_atom_site_type_symbol
_atom_site_fract_x
_atom_site_fract_y
_atom_site_fract_z
Zn1	Zn	1.147639	-0.502344	-0.393704
Zn2	Zn	1.480972	-0.169010	-0.060371
Zn3	Zn	1.814306	0.164323	0.272963
Zn4	Zn	1.157027	-0.713359	-0.261223
Zn5	Zn	1.490360	-0.380026	0.072110
Zn6	Zn	1.823694	-0.046693	0.405443
Zn7	Zn	1.024574	-0.502385	-0.270649
Zn8	Zn	1.357907	-0.169051	0.062684
Zn9	Zn	1.691240	0.164282	0.396017
Zn10	Zn	1.034014	-0.713289	-0.384251
Zn11	Zn	1.367347	-0.379956	-0.050918
Zn12	Zn	1.700681	-0.046622	0.282415
O13	O	1.090813	-0.607844	-0.327457
O14	O	1.424147	-0.274511	0.005876
O15	O	1.757480	0.058822	0.339210
O16	O	1.251869	-0.530347	-0.376141
O17	O	1.585203	-0.197014	-0.042808
O18	O	1.918536	0.136319	0.290525
O19	O	1.139435	-0.685420	-0.159487
O20	O	1.472768	-0.352086	0.173846
O21	O	1.806102	-0.018753	0.507179
O22	O	1.033019	-0.325804	-0.294874
O23	O	1.366352	0.007529	0.038460
O24	O	1.699685	0.340862	0.371793
O25	O	1.258767	-0.685380	-0.278808
O26	O	1.592100	-0.352046	0.054525
O27	O	1.925433	-0.018713	0.387858
O28	O	1.123434	-0.325774	-0.385281
O29	O	1.456768	0.007559	-0.051948
O30	O	1.790101	0.340893	0.281385
O31	O	1.042122	-0.530418	-0.166413
O32	O	1.375455	-0.197084	0.166921
O33	O	1.708788	0.136249	0.500254
O34	O	0.922841	-0.530350	-0.285708
O35	O	1.256174	-0.197016	0.047625
O36	O	1.589508	0.136317	0.380959
O37	O	1.049109	-0.685260	-0.488492
O38	O	1.382442	-0.351927	-0.155158
O39	O	1.715775	-0.018593	0.178175
O40	O	0.929777	-0.685300	-0.369171
O41	O	1.263110	-0.351967	-0.035837
O42	O	1.596444	-0.018633	0.297496
O43	O	1.132588	-0.530279	-0.495436
O44	O	1.465922	-0.196946	-0.162103
O45	O	1.799255	0.136387	0.171230
O46	O	1.148589	-0.889925	-0.269642
O47	O	1.481922	-0.556592	0.063691
O48	O	1.815256	-0.223258	0.397024
O49	O	1.058212	-0.889873	-0.360030
O50	O	1.391545	-0.556540	-0.026697
O51	O	1.724878	-0.223207	0.306636
C52	C	0.899606	-0.607823	-0.327437
C53	C	1.232940	-0.274489	0.005896
C54	C	1.566273	0.058844	0.339230
C55	C	0.817808	-0.607844	-0.327444
C56	C	1.151142	-0.274510	0.005889
C57	C	1.484475	0.058823	0.339222
C58	C	0.633251	-0.688653	-0.370839
C59	C	0.966584	-0.355320	-0.037505
C60	C	1.299917	-0.021987	0.295828
C61	C	0.556392	-0.688657	-0.370848
C62	C	0.889726	-0.355324	-0.037514
C63	C	1.223059	-0.021991	0.295819
C64	C	0.549129	-0.527058	-0.284090
C65	C	0.882462	-0.193725	0.049243
C66	C	1.215796	0.139609	0.382576
C67	C	0.625986	-0.527049	-0.284086
C68	C	0.959319	-0.193715	0.049247
C69	C	1.292653	0.139618	0.382581
C70	C	0.668045	-0.607853	-0.327459
C71	C	1.001379	-0.274520	0.005875
C72	C	1.334712	0.058813	0.339208
C73	C	0.514330	-0.607867	-0.327472
C74	C	0.847663	-0.274533	0.005861
C75	C	1.180996	0.058800	0.339195
C76	C	0.430996	-0.607870	-0.327482
C77	C	0.764330	-0.274537	0.005852
C78	C	1.097663	0.058796	0.339185
C79	C	0.751384	-0.607848	-0.327450
C80	C	1.084717	-0.274515	0.005883
C81	C	1.418051	0.058818	0.339216
C82	C	1.105463	-0.935683	-0.312804
C83	C	1.438797	-0.602350	0.020529
C84	C	1.772130	-0.269016	0.353863
C85	C	1.111798	-1.075934	-0.306560
C86	C	1.445131	-0.742601	0.026774
C87	C	1.778465	-0.409267	0.360107
C88	C	1.282767	-0.607867	-0.327478
C89	C	1.616101	-0.274533	0.005856
C90	C	1.949434	0.058800	0.339189
C91	C	1.364567	-0.607876	-0.327486
C92	C	1.697900	-0.274543	0.005847
C93	C	2.031233	0.058790	0.339180
C94	C	1.090854	-0.607757	-0.519414
C95	C	1.424188	-0.274424	-0.186081
C96	C	1.757521	0.058909	0.147253
C97	C	1.090872	-0.607720	-0.601214
C98	C	1.424205	-0.274387	-0.267881
C99	C	1.757538	0.058947	0.065452
C100	C	1.076126	-0.278725	-0.342183
C101	C	1.409460	0.054608	-0.008850
C102	C	1.742793	0.387942	0.324483
C103	C	1.069867	-0.138474	-0.348459
C104	C	1.403201	0.194859	-0.015126
C105	C	1.736534	0.528193	0.318208
C106	C	1.134353	-0.526946	-0.793029
C107	C	1.467687	-0.193613	-0.459696
C108	C	1.801020	0.139721	-0.126363
C109	C	1.134360	-0.526909	-0.869890
C110	C	1.467694	-0.193576	-0.536556
C111	C	1.801027	0.139757	-0.203223
C112	C	1.047434	-0.688299	-0.862646
C113	C	1.380767	-0.354966	-0.529313
C114	C	1.714100	-0.021632	-0.195980
C115	C	1.047423	-0.688328	-0.785788
C116	C	1.380756	-0.354995	-0.452454
C117	C	1.714090	-0.021662	-0.119121
C118	C	1.090887	-0.607654	-0.750981
C119	C	1.424220	-0.274321	-0.417648
C120	C	1.757554	0.059013	-0.084314
C121	C	1.090905	-0.607588	-0.904700
C122	C	1.424238	-0.274254	-0.571367
C123	C	1.757571	0.059079	-0.238033
C124	C	1.090912	-0.607548	-0.988036
C125	C	1.424246	-0.274215	-0.654702
C126	C	1.757579	0.059118	-0.321369
C127	C	1.090879	-0.607691	-0.667640
C128	C	1.424212	-0.274358	-0.334307
C129	C	1.757545	0.058976	-0.000974
C130	C	1.090811	-0.607840	-0.136251
C131	C	1.424144	-0.274506	0.197082
C132	C	1.757478	0.058827	0.530416
C133	C	1.090920	-0.607521	-0.054467
C134	C	1.424253	-0.274188	0.278867
C135	C	1.757587	0.059145	0.612200
H136	H	0.514875	-0.461271	-0.248777
H137	H	0.848209	-0.127938	0.084557
H138	H	1.181542	0.205395	0.417890
H139	H	1.012048	-0.753984	-0.890995
H140	H	1.345382	-0.420651	-0.557662
H141	H	1.678715	-0.087317	-0.224329
H142	H	1.029123	-1.084722	-0.389109
H143	H	1.362456	-0.751389	-0.055776
H144	H	1.695790	-0.418056	0.277558
Cl145	Cl	1.174701	-1.158925	-0.243786
Cl146	Cl	1.508034	-0.825592	0.089547
Cl147	Cl	1.841368	-0.492259	0.422880
Cl148	Cl	1.188991	-0.425522	-0.749275
Cl149	Cl	1.522324	-0.092189	-0.415942
Cl150	Cl	1.855657	0.241145	-0.082608
H151	H	1.169754	-0.461187	-0.904122
H152	H	1.503087	-0.127854	-0.570789
H153	H	1.836420	0.205480	-0.237456
H154	H	1.012022	-0.754049	-0.751551
H155	H	1.345356	-0.420716	-0.418217
H156	H	1.678689	-0.087383	-0.084884
H157	H	0.667493	-0.754447	-0.406158
H158	H	1.000827	-0.421113	-0.072824
H159	H	1.334160	-0.087780	0.260509
Cl160	Cl	0.669731	-0.425455	-0.229551
Cl161	Cl	1.003064	-0.092122	0.103782
Cl162	Cl	1.336397	0.241212	0.437115
Cl163	Cl	0.512654	-0.790237	-0.425387
Cl164	Cl	0.845987	-0.456903	-0.092053
Cl165	Cl	1.179321	-0.123570	0.241280
