data_functionalizedCrystal
_audit_creation_method	'MofGen! by Chris Wilmer'
_symmetry_space_group_name_H-M	'P1'
_symmetry_Int_Tables_number	1
_symmetry_cell_setting	triclinic
loop_
_symmetry_equiv_pos_as_xyz
  x,y,z
_cell_length_a	13.635800
_cell_length_b	17.078472
_cell_length_c	17.982738
_cell_angle_alpha	96.487426
_cell_angle_beta	77.552269
_cell_angle_gamma	80.693980
loop_
_atom_site_label
_atom_site_type_symbol
_atom_site_fract_x
_atom_site_fract_y
_atom_site_fract_z
V1	V	1.997037	-0.110518	-0.237472
O2	O	2.001821	0.004538	-0.233030
O3	O	1.962601	-0.218396	-0.235772
O4	O	1.970411	-0.109158	-0.341076
O5	O	1.993957	-0.105457	-0.126997
V6	V	2.240492	-0.096716	-0.224267
O7	O	2.123952	-0.140795	-0.266437
O8	O	2.338676	-0.066440	-0.195302
O9	O	2.163325	0.011161	-0.225967
O10	O	2.294407	-0.211772	-0.228709
O11	O	2.302270	-0.101778	-0.334742
O12	O	2.155515	-0.098077	-0.120663
V13	V	2.497037	-0.110518	-0.237472
O14	O	2.501821	0.004538	-0.233030
O15	O	2.462601	-0.218396	-0.235772
O16	O	2.470411	-0.109158	-0.341076
O17	O	2.493957	-0.105457	-0.126997
V18	V	2.740492	-0.096716	-0.224267
O19	O	2.623952	-0.140795	-0.266437
O20	O	2.838676	-0.066440	-0.195302
O21	O	2.663325	0.011161	-0.225967
O22	O	2.794407	-0.211772	-0.228709
O23	O	2.802270	-0.101778	-0.334742
O24	O	2.655515	-0.098077	-0.120663
C25	C	1.882690	-0.244683	-0.232006
C26	C	1.895162	-0.332877	-0.231307
C27	C	1.991596	-0.378363	-0.234776
C28	C	2.003310	-0.461231	-0.234123
C29	C	1.918587	-0.498609	-0.229996
C30	C	1.822145	-0.453117	-0.226530
C31	C	1.810434	-0.370252	-0.227188
C32	C	1.943900	-0.746006	-0.227626
C33	C	1.955619	-0.828877	-0.226966
C34	C	2.136784	-0.836984	-0.234561
C35	C	2.125063	-0.754117	-0.235215
C36	C	2.028624	-0.708633	-0.231752
N37	N	1.930557	-0.583313	-0.229327
N38	N	2.016656	-0.623932	-0.232427
C39	C	1.892652	-0.105338	-0.366331
C40	C	1.911456	-0.104940	-0.451028
C41	C	2.117507	-0.106451	-0.974792
C42	C	2.099834	-0.106831	-0.895211
C43	C	2.000412	-0.103048	-0.851546
C44	C	1.918660	-0.098893	-0.887467
C45	C	1.936335	-0.098519	-0.967047
C46	C	1.847377	-0.100404	-0.566529
C47	C	1.829707	-0.100776	-0.486943
C48	C	2.010876	-0.108717	-0.494693
C49	C	2.028551	-0.108342	-0.574273
C50	C	1.946799	-0.104191	-0.610188
C51	C	1.965963	-0.103781	-0.696478
C52	C	1.981246	-0.103453	-0.765256
C53	C	2.074906	0.037444	-0.229731
C54	C	2.052054	0.125637	-0.230435
C55	C	2.064945	-0.101899	-0.095404
C56	C	2.035761	-0.102294	-0.010707
C57	C	2.382690	-0.244683	-0.232006
C58	C	2.395162	-0.332877	-0.231307
C59	C	2.491606	-0.378351	-0.234782
C60	C	2.503342	-0.461220	-0.234137
C61	C	2.418630	-0.498613	-0.230011
C62	C	2.322179	-0.453134	-0.226537
C63	C	2.310446	-0.370267	-0.227188
C64	C	2.392652	-0.105338	-0.366331
C65	C	2.411456	-0.104940	-0.451028
C66	C	2.574906	0.037444	-0.229731
C67	C	2.552054	0.125637	-0.230435
C68	C	2.564945	-0.101899	-0.095404
C69	C	2.535761	-0.102294	-0.010707
C70	C	2.510878	-0.108720	-0.494683
C71	C	2.528559	-0.108335	-0.574263
C72	C	2.446817	-0.104175	-0.610187
C73	C	2.347386	-0.100392	-0.566526
C74	C	2.329705	-0.100771	-0.486947
C75	C	2.628103	0.171110	-0.226962
C76	C	2.606639	0.253979	-0.227611
C77	C	2.509128	0.291372	-0.231739
C78	C	2.433072	0.245893	-0.235210
C79	C	2.454534	0.163027	-0.234555
C80	C	2.435273	-0.106445	0.025198
C81	C	2.407834	-0.106806	0.104781
C82	C	2.480887	-0.103022	0.148457
C83	C	2.581383	-0.098869	0.112547
C84	C	2.608818	-0.098501	0.032966
H85	H	2.060588	-0.347934	-0.238129
H86	H	1.780806	-0.097024	-0.595761
H87	H	1.837709	-0.095818	-0.851909
H88	H	1.753163	-0.483559	-0.223174
C89	C	2.661733	-0.094714	0.160598
C90	C	2.645146	-0.024639	0.226697
C91	C	2.725495	-0.020490	0.274752
C92	C	2.822432	-0.086416	0.256707
C93	C	2.839024	-0.156496	0.190605
C94	C	2.758674	-0.160645	0.142550
H95	H	2.573383	0.024168	0.240058
H96	H	2.713212	0.031388	0.323685
H97	H	2.881911	-0.083345	0.292279
H98	H	2.910786	-0.205303	0.177244
H99	H	2.770957	-0.212523	0.093617
H100	H	2.081836	-0.498262	-0.236949
H101	H	2.253211	-0.483592	-0.223178
H102	H	2.194058	-0.723690	-0.238581
H103	H	2.560593	-0.347916	-0.238138
C104	C	2.609440	-0.511234	-0.237948
C105	C	2.699051	-0.514162	-0.307619
C106	C	2.805148	-0.564172	-0.311428
C107	C	2.821634	-0.611253	-0.245565
C108	C	2.732021	-0.608326	-0.175889
C109	C	2.625924	-0.558317	-0.172080
H110	H	2.686849	-0.479308	-0.356380
H111	H	2.871485	-0.566338	-0.363008
H112	H	2.900174	-0.648273	-0.248385
H113	H	2.744223	-0.643180	-0.127129
H114	H	2.559587	-0.556150	-0.120500
H115	H	2.215302	-0.874026	-0.237381
H116	H	2.491665	0.358848	-0.232271
H117	H	2.392603	0.126007	-0.237391
H118	H	1.886626	-0.859311	-0.223623
H119	H	1.865374	-0.708982	-0.224802
H120	H	2.668580	0.290997	-0.224785
H121	H	1.731908	-0.333219	-0.224366
H122	H	2.375776	-0.109526	-0.010353
H123	H	2.198466	-0.109529	-1.010338
H124	H	2.166402	-0.110217	-0.865973
H125	H	2.353677	0.276351	-0.238570
H126	H	2.109508	-0.111419	-0.609821
H127	H	2.077442	-0.112102	-0.465443
H128	H	2.326002	-0.110188	0.134007
H129	H	1.748741	-0.097687	-0.451392
H130	H	1.869768	-0.095133	-0.996288
H131	H	2.707508	0.140676	-0.223601
H132	H	2.428198	-0.566090	-0.229481
H133	H	2.458537	-0.103332	0.213254
H134	H	2.231907	-0.333247	-0.224354
H135	H	2.577449	-0.112110	-0.465444
H136	H	2.609527	-0.111419	-0.609802
H137	H	2.461227	-0.103867	-0.674987
H138	H	2.690647	-0.095126	0.003738
H139	H	2.280837	-0.097005	-0.595788
H140	H	2.248744	-0.097694	-0.451408
