data_functionalizedCrystal
_audit_creation_method	'MofGen! by Chris Wilmer'
_symmetry_space_group_name_H-M	'P1'
_symmetry_Int_Tables_number	1
_symmetry_cell_setting	triclinic
loop_
_symmetry_equiv_pos_as_xyz
  x,y,z
_cell_length_a	6.817900
_cell_length_b	11.102288
_cell_length_c	16.255661
_cell_angle_alpha	93.854370
_cell_angle_beta	103.488922
_cell_angle_gamma	108.605689
loop_
_atom_site_label
_atom_site_type_symbol
_atom_site_fract_x
_atom_site_fract_y
_atom_site_fract_z
V1	V	-4.052939	-0.176866	-0.263871
O2	O	-4.013087	0.007443	-0.258848
O3	O	-4.030117	-0.349679	-0.262067
O4	O	-4.004166	-0.174609	-0.378954
O5	O	-4.039217	-0.168840	-0.141151
V6	V	-4.533301	-0.154766	-0.249193
O7	O	-4.321131	-0.225344	-0.296069
O8	O	-4.715306	-0.106287	-0.216995
O9	O	-4.332916	0.018048	-0.250997
O10	O	-4.690550	-0.339074	-0.254216
O11	O	-4.664420	-0.162792	-0.371913
O12	O	-4.358867	-0.157023	-0.134110
C13	C	-3.881352	-0.391793	-0.257904
C14	C	-3.943976	-0.533073	-0.257196
C15	C	-3.848248	-0.168472	-0.407005
C16	C	-3.889824	-0.167770	-0.501086
C17	C	-4.156468	-0.605936	-0.261085
C18	C	-4.215302	-0.738685	-0.260426
C19	C	-3.849130	-0.725694	-0.251984
C20	C	-3.790303	-0.592949	-0.252650
C21	C	-3.799137	-0.159385	-0.723905
C22	C	-3.971599	-0.267595	-0.793381
C23	C	-3.966013	-0.166454	-0.673335
C24	C	-3.867658	-0.057005	-0.771496
C25	C	-4.039592	-0.165177	-0.839718
C26	C	-4.137972	-0.274760	-0.741581
C27	C	-4.033954	-0.064074	-0.719680
C28	C	-4.206557	-0.172315	-0.789137
C29	C	-3.923622	-0.167190	-0.577485
C30	C	-4.082002	-0.164450	-0.935567
C31	C	-4.145024	0.060155	-0.255158
C32	C	-4.061638	0.201433	-0.255872
C33	C	-4.178128	-0.163164	-0.106055
C34	C	-4.115790	-0.163859	-0.011973
H35	H	-4.388329	-0.798006	-0.263595
H36	H	-4.059789	0.021975	-0.687572
H37	H	-4.281602	-0.557189	-0.264786
H38	H	-3.753780	0.034998	-0.785106
C39	C	-3.936603	-0.383832	-0.836737
C40	C	-3.714787	-0.399377	-0.811703
C41	C	-3.679774	-0.515609	-0.855054
C42	C	-3.866577	-0.616295	-0.923440
C43	C	-4.088408	-0.600753	-0.948477
C44	C	-4.123422	-0.484522	-0.905126
H45	H	-3.576491	-0.324841	-0.761077
H46	H	-3.515558	-0.527113	-0.836519
H47	H	-3.840658	-0.702336	-0.955531
H48	H	-4.226705	-0.675290	-0.999103
H49	H	-4.287637	-0.473017	-0.923661
C50	C	-4.291816	-0.399225	-0.723399
C51	C	-4.448360	-0.392059	-0.670129
C52	C	-4.602194	-0.516523	-0.651945
C53	C	-4.599484	-0.648153	-0.687032
C54	C	-4.442934	-0.655323	-0.740305
C55	C	-4.289100	-0.530859	-0.758488
H56	H	-4.450372	-0.294614	-0.644153
H57	H	-4.718083	-0.511214	-0.612509
H58	H	-4.713361	-0.740288	-0.673571
H59	H	-4.440922	-0.752768	-0.766281
H60	H	-4.173211	-0.536168	-0.797925
H61	H	-3.724022	-0.774461	-0.248281
H62	H	-4.379245	-0.177811	-0.817484
H63	H	-3.617262	-0.533622	-0.249485
H64	H	-3.626593	-0.154059	-0.695424
