data_functionalizedCrystal
_audit_creation_method	'MofGen! by Chris Wilmer'
_symmetry_space_group_name_H-M	'P1'
_symmetry_Int_Tables_number	1
_symmetry_cell_setting	triclinic
loop_
_symmetry_equiv_pos_as_xyz
  x,y,z
_cell_length_a	10.654550
_cell_length_b	16.109301
_cell_length_c	9.130313
_cell_angle_alpha	89.994060
_cell_angle_beta	89.999724
_cell_angle_gamma	83.973206
loop_
_atom_site_label
_atom_site_type_symbol
_atom_site_fract_x
_atom_site_fract_y
_atom_site_fract_z
O1	O	1.666255	0.116774	-0.121695
O2	O	1.300626	0.127899	-0.121723
O3	O	1.493485	0.001365	-0.121693
O4	O	1.473396	0.243308	-0.121725
O5	O	1.493472	0.001362	0.121906
O6	O	1.300613	0.127896	0.121876
O7	O	1.666242	0.116770	0.121904
Cu8	Cu	1.483426	0.122333	0.144132
Cu9	Cu	1.483442	0.122337	-0.143951
O10	O	1.473383	0.243304	0.121874
C11	C	1.253832	0.127081	0.000073
C12	C	1.114422	0.124637	0.000063
C13	C	1.033926	0.199138	0.000058
C14	C	0.902936	0.196836	0.000084
C15	C	0.932952	0.045526	0.000114
C16	C	1.063939	0.047828	0.000099
C17	C	1.492664	-0.029616	0.000107
C18	C	1.490225	-0.121926	0.000109
C19	C	1.598991	-0.343552	0.000094
C20	C	1.596689	-0.430286	0.000081
C21	C	1.367868	-0.411772	0.000070
C22	C	1.370172	-0.325039	0.000072
C23	C	1.485737	-0.290932	0.000091
C24	C	1.481131	-0.464398	0.000077
C25	C	1.478634	-0.558439	0.000064
C26	C	1.488234	-0.196885	0.000101
C27	C	1.713036	0.117589	0.000104
C28	C	1.852446	0.120033	0.000105
C29	C	1.474203	0.274286	0.000071
C30	C	1.476643	0.366596	0.000059
N31	N	1.483424	0.122329	0.346755
N32	N	1.483453	0.122334	-0.346574
C33	C	1.568851	0.066324	0.423420
C34	C	1.568863	0.066324	0.576757
C35	C	1.398018	0.178342	0.576750
C36	C	1.398001	0.178337	0.423416
H37	H	1.075024	0.261680	0.000040
H38	H	1.638423	0.020718	0.639173
H39	H	0.891833	-0.017009	0.000152
C40	C	0.815749	0.277816	-0.000002
C41	C	0.888002	0.345569	-0.000072
C42	C	0.807729	0.420183	-0.000169
H43	H	0.764007	0.280185	0.084930
H44	H	0.764036	0.280107	-0.084977
H45	H	0.939693	0.343279	0.084894
H46	H	0.939741	0.343228	-0.084999
H47	H	0.756016	0.422474	-0.085145
H48	H	0.755992	0.422544	0.084765
H49	H	0.856741	0.466163	-0.000231
C50	C	1.724330	-0.306359	0.000171
C51	C	1.702113	-0.219139	0.000212
C52	C	1.817547	-0.184852	0.000297
H53	H	1.771055	-0.324279	-0.084755
H54	H	1.770973	-0.324336	0.085152
H55	H	1.655489	-0.201170	-0.084761
H56	H	1.655407	-0.201196	0.085132
H57	H	1.864191	-0.202829	0.085278
H58	H	1.864264	-0.202778	-0.084631
H59	H	1.802489	-0.125671	0.000338
H60	H	1.688912	-0.473126	0.000080
C61	C	1.151494	-0.033000	-0.000127
C62	C	1.227584	-0.036086	-0.125441
C63	C	1.308265	-0.110523	-0.125684
H64	H	1.102827	-0.079141	-0.000190
H65	H	1.203295	-0.035251	0.084773
H66	H	1.175789	-0.033844	-0.210319
H67	H	1.276277	0.010038	-0.125405
H68	H	1.360066	-0.112774	-0.040784
H69	H	1.259588	-0.156658	-0.125743
H70	H	1.359910	-0.112623	-0.210700
C71	C	1.242531	-0.448966	0.000140
C72	C	1.264750	-0.536185	0.000183
C73	C	1.149317	-0.570474	0.000273
H74	H	1.195802	-0.431037	-0.084785
H75	H	1.195889	-0.430999	0.085122
H76	H	1.311372	-0.554145	-0.084791
H77	H	1.311459	-0.554137	0.085102
H78	H	1.102675	-0.552507	0.085255
H79	H	1.102598	-0.552539	-0.084654
H80	H	1.164377	-0.629655	0.000315
H81	H	1.277941	-0.282194	0.000065
H82	H	1.638406	0.020717	0.361006
C83	C	1.305081	0.239054	0.659914
C84	C	1.181686	0.224791	0.622672
C85	C	1.096039	0.280696	0.699266
H86	H	1.318512	0.294663	0.634831
H87	H	1.317244	0.231031	0.762228
H88	H	1.169528	0.232820	0.520381
H89	H	1.168215	0.169193	0.647759
H90	H	1.108202	0.272673	0.801580
H91	H	1.109482	0.336301	0.674177
H92	H	1.012307	0.271021	0.674018
C93	C	1.305391	0.239284	0.340249
C94	C	1.325738	0.321113	0.377485
C95	C	1.240463	0.377274	0.300887
H96	H	1.221535	0.229851	0.365331
H97	H	1.317619	0.231314	0.237935
H98	H	1.313500	0.329079	0.479776
H99	H	1.409577	0.330572	0.352400
H100	H	1.252690	0.369304	0.198573
H101	H	1.156612	0.367833	0.325975
H102	H	1.254264	0.432801	0.326131
