data_functionalizedCrystal
_audit_creation_method	'MofGen! by Chris Wilmer'
_symmetry_space_group_name_H-M	'P1'
_symmetry_Int_Tables_number	1
_symmetry_cell_setting	triclinic
loop_
_symmetry_equiv_pos_as_xyz
  x,y,z
_cell_length_a	12.759395
_cell_length_b	16.120484
_cell_length_c	12.759387
_cell_angle_alpha	92.863576
_cell_angle_beta	89.979491
_cell_angle_gamma	92.926975
loop_
_atom_site_label
_atom_site_type_symbol
_atom_site_fract_x
_atom_site_fract_y
_atom_site_fract_z
Zn1	Zn	1.584987	-0.331828	-0.615167
Zn2	Zn	1.575935	-0.471265	-0.448379
Zn3	Zn	1.409282	-0.331874	-0.439506
Zn4	Zn	1.400339	-0.471205	-0.624015
O5	O	1.492636	-0.401543	-0.531767
O6	O	1.730807	-0.350331	-0.593052
O7	O	1.553783	-0.452818	-0.300184
O8	O	1.440121	-0.215202	-0.455392
O9	O	1.724157	-0.452774	-0.470514
O10	O	1.569211	-0.215169	-0.584449
O11	O	1.431344	-0.350408	-0.293665
O12	O	1.261075	-0.350350	-0.463971
O13	O	1.424878	-0.452673	-0.769859
O14	O	1.254504	-0.452717	-0.599529
O15	O	1.560539	-0.350273	-0.763359
O16	O	1.545111	-0.587922	-0.479094
O17	O	1.416101	-0.587879	-0.608132
C18	C	1.219669	-0.401533	-0.531748
C19	C	1.102891	-0.401549	-0.531766
C20	C	1.096077	-0.508315	-0.672716
C21	C	1.037808	-0.561705	-0.743194
C22	C	0.928086	-0.561715	-0.743207
C23	C	0.876630	-0.508328	-0.672737
C24	C	0.934899	-0.454938	-0.602259
C25	C	1.044623	-0.454935	-0.602251
C26	C	0.941713	-0.348169	-0.461316
C27	C	1.051436	-0.348161	-0.461296
C28	C	0.890258	-0.294781	-0.390846
C29	C	0.948526	-0.241394	-0.320361
C30	C	1.058255	-0.241387	-0.320350
C31	C	1.109704	-0.294771	-0.390818
C32	C	1.478681	-0.618150	-0.545559
C33	C	1.472808	-0.710816	-0.551495
C34	C	1.462090	-0.880477	-0.562353
C35	C	1.523370	-0.921768	-0.501198
C36	C	1.517406	-1.016173	-0.507239
C37	C	1.468052	-0.786063	-0.556313
C38	C	1.766669	-0.401554	-0.531786
C39	C	1.883445	-0.401558	-0.531794
C40	C	1.492720	-0.401461	-0.805795
C41	C	1.492756	-0.401426	-0.922570
C42	C	1.506673	-0.184090	-0.517944
C43	C	1.512655	-0.091424	-0.512053
C44	C	1.634028	-0.294805	-0.915821
C45	C	1.704680	-0.241481	-0.967306
C46	C	1.704707	-0.241451	-1.077026
C47	C	1.634074	-0.294748	-1.135263
C48	C	1.563422	-0.348071	-1.083777
C49	C	1.563404	-0.348098	-0.974055
C50	C	1.422147	-0.454688	-1.090526
C51	C	1.422123	-0.454723	-0.980807
C52	C	1.351514	-0.507985	-1.148763
C53	C	1.280866	-0.561313	-1.097278
C54	C	1.280842	-0.561342	-0.987551
C55	C	1.351472	-0.508047	-0.929321
C56	C	1.492616	-0.401564	-0.258801
C57	C	1.492798	-0.401364	-0.142012
H58	H	0.880644	-0.605185	-0.800602
C59	C	1.069056	-0.602494	-0.923602
C60	C	1.094373	-0.620385	-0.820653
H61	H	1.103980	-0.638716	-0.971421
H62	H	0.995379	-0.610144	-0.933689
H63	H	1.090655	-0.546491	-0.935518
H64	H	1.072766	-0.676387	-0.808734
H65	H	1.168065	-0.612742	-0.810561
H66	H	1.199045	-0.294773	-0.390812
C67	C	0.720866	-0.487190	-0.771408
C68	C	0.756022	-0.508338	-0.672759
H69	H	0.646406	-0.487202	-0.771419
H70	H	0.749154	-0.433410	-0.786250
H71	H	0.743181	-0.526626	-0.823454
H72	H	0.733713	-0.468898	-0.620713
H73	H	0.727722	-0.562126	-0.657904
C74	C	1.394112	-1.014049	-0.630328
C75	C	1.385214	-0.928462	-0.639144
H76	H	1.346645	-1.043678	-0.677728
H77	H	1.463808	-1.028202	-0.646665
H78	H	1.377900	-1.028313	-0.560611
H79	H	1.401435	-0.914197	-0.708860
H80	H	1.315503	-0.914303	-0.622814
H81	H	1.580310	-0.886218	-0.444303
H82	H	1.223356	-0.604699	-1.144702
H83	H	1.223298	-0.604756	-0.945638
C84	C	1.710919	-0.236804	-0.754972
C85	C	1.634005	-0.294841	-0.795215
H86	H	1.710899	-0.236824	-0.680515
H87	H	1.777777	-0.251228	-0.780721
H88	H	1.696229	-0.182997	-0.776376
H89	H	1.648699	-0.348649	-0.773818
H90	H	1.567131	-0.280422	-0.769456
H91	H	1.634094	-0.294711	-1.224602
H92	H	1.351463	-0.508069	-0.839981
C93	C	1.764987	-0.100326	-0.924553
C94	C	1.782317	-0.182901	-0.903287
H95	H	1.812913	-0.064162	-0.885026
H96	H	1.775118	-0.092681	-0.997257
H97	H	1.695180	-0.088131	-0.905780
H98	H	1.852123	-0.195098	-0.922067
H99	H	1.772195	-0.190550	-0.830567
C100	C	0.738190	-0.215518	-0.412777
C101	C	0.769649	-0.294794	-0.390862
H102	H	0.663731	-0.215530	-0.412790
H103	H	0.765522	-0.176088	-0.360720
H104	H	0.763970	-0.201179	-0.479694
H105	H	0.743875	-0.309130	-0.323941
H106	H	0.742306	-0.334236	-0.442922
C107	C	1.373192	-0.587260	-1.310972
C108	C	1.351540	-0.507955	-1.269369
H109	H	1.373202	-0.587243	-1.385430
H110	H	1.440046	-0.601683	-1.287079
H111	H	1.320999	-0.626635	-1.288635
H112	H	1.403738	-0.468580	-1.291700
H113	H	1.284677	-0.493522	-1.293272
H114	H	1.185418	-0.508318	-0.672704
H115	H	0.906622	-0.197927	-0.262995
C116	C	1.726579	-0.129279	-1.193301
C117	C	1.782365	-0.182836	-1.133625
H118	H	1.774523	-0.093090	-1.228236
H119	H	1.684530	-0.161018	-1.243678
H120	H	1.682862	-0.097396	-1.148454
H121	H	1.826076	-0.214723	-1.178473
H122	H	1.824432	-0.151093	-1.083242
H123	H	1.105691	-0.197905	-0.262965
