data_functionalizedCrystal
_audit_creation_method	'MofGen! by Chris Wilmer'
_symmetry_space_group_name_H-M	'P1'
_symmetry_Int_Tables_number	1
_symmetry_cell_setting	triclinic
loop_
_symmetry_equiv_pos_as_xyz
  x,y,z
_cell_length_a	21.395364
_cell_length_b	21.395361
_cell_length_c	21.395355
_cell_angle_alpha	89.980951
_cell_angle_beta	89.974400
_cell_angle_gamma	90.028035
loop_
_atom_site_label
_atom_site_type_symbol
_atom_site_fract_x
_atom_site_fract_y
_atom_site_fract_z
Zn1	Zn	-0.957860	0.249553	0.354277
Zn2	Zn	-0.624526	0.582886	0.687610
Zn3	Zn	-0.291193	0.916220	1.020943
Zn4	Zn	-0.957763	0.354313	0.249498
Zn5	Zn	-0.624429	0.687646	0.582831
Zn6	Zn	-0.291096	1.020979	0.916165
Zn7	Zn	-0.853075	0.249548	0.249511
Zn8	Zn	-0.519741	0.582882	0.582845
Zn9	Zn	-0.186408	0.916215	0.916178
Zn10	Zn	-0.853044	0.354292	0.354236
Zn11	Zn	-0.519711	0.687625	0.687570
Zn12	Zn	-0.186378	1.020959	1.020903
O13	O	-0.905435	0.301927	0.301881
O14	O	-0.572102	0.635260	0.635214
O15	O	-0.238769	0.968593	0.968547
O16	O	-1.045525	0.263460	0.340389
O17	O	-0.712191	0.596793	0.673722
O18	O	-0.378858	0.930127	1.007055
O19	O	-0.943848	0.340422	0.161822
O20	O	-0.610514	0.673756	0.495155
O21	O	-0.277181	1.007089	0.828489
O22	O	-0.867028	0.161871	0.263431
O23	O	-0.533695	0.495204	0.596764
O24	O	-0.200361	0.828538	0.930098
O25	O	-1.045453	0.340427	0.263408
O26	O	-0.712120	0.673760	0.596742
O27	O	-0.378787	1.007093	0.930075
O28	O	-0.944013	0.161874	0.340402
O29	O	-0.610680	0.495208	0.673735
O30	O	-0.277347	0.828541	1.007068
O31	O	-0.866934	0.263452	0.161832
O32	O	-0.533601	0.596786	0.495165
O33	O	-0.200267	0.930119	0.828498
O34	O	-0.765393	0.263432	0.263392
O35	O	-0.432060	0.596766	0.596725
O36	O	-0.098726	0.930099	0.930059
O37	O	-0.866976	0.340391	0.441920
O38	O	-0.533643	0.673725	0.775253
O39	O	-0.200310	1.007058	1.108586
O40	O	-0.765370	0.340387	0.340333
O41	O	-0.432037	0.673720	0.673666
O42	O	-0.098704	1.007054	1.007000
O43	O	-0.943984	0.263440	0.441949
O44	O	-0.610650	0.596773	0.775283
O45	O	-0.277317	0.930107	1.108616
O46	O	-0.943818	0.441988	0.263370
O47	O	-0.610485	0.775321	0.596703
O48	O	-0.277151	1.108655	0.930036
O49	O	-0.866882	0.441973	0.340320
O50	O	-0.533549	0.775306	0.673654
O51	O	-0.200215	1.108639	1.006987
C52	C	-0.742648	0.301907	0.301860
C53	C	-0.409314	0.635241	0.635193
C54	C	-0.075981	0.968574	0.968527
C55	C	-0.673006	0.301914	0.301866
C56	C	-0.339673	0.635248	0.635199
C57	C	-0.006340	0.968581	0.968533
C58	C	-0.171215	0.342060	0.341894
C59	C	0.162118	0.675393	0.675227
C60	C	0.495452	1.008726	1.008561
C61	C	-0.236650	0.342061	0.341888
C62	C	0.096683	0.675394	0.675222
C63	C	0.430016	1.008727	1.008555
C64	C	-0.269368	0.301931	0.301891
C65	C	0.063965	0.635264	0.635224
C66	C	0.397298	0.968598	0.968557
C67	C	-0.236645	0.261809	0.261884
C68	C	0.096688	0.595142	0.595218
C69	C	0.430022	0.928475	0.928551
C70	C	-0.171211	0.261813	0.261887
C71	C	0.162122	0.595146	0.595220
C72	C	0.495456	0.928480	0.928553
C73	C	-0.373057	0.245467	0.297042
C74	C	-0.039724	0.578801	0.630375
C75	C	0.293610	0.912134	0.963708
C76	C	-0.438490	0.245462	0.297044
C77	C	-0.105156	0.578795	0.630377
C78	C	0.228177	0.912128	0.963710
C79	C	-0.471189	0.301917	0.301880
C80	C	-0.137856	0.635251	0.635213
C81	C	0.195478	0.968584	0.968547
C82	C	-0.438447	0.358380	0.306728
C83	C	-0.105114	0.691714	0.640061
C84	C	0.228220	1.025047	0.973394
C85	C	-0.373013	0.358385	0.306730
C86	C	-0.039680	0.691718	0.640063
C87	C	0.293654	1.025052	0.973396
C88	C	-0.340321	0.301922	0.301884
C89	C	-0.006987	0.635255	0.635217
C90	C	0.326346	0.968589	0.968550
C91	C	-0.574857	0.342041	0.341875
C92	C	-0.241523	0.675375	0.675208
C93	C	0.091810	1.008708	1.008541
C94	C	-0.640293	0.342044	0.341865
C95	C	-0.306960	0.675377	0.675198
C96	C	0.026373	1.008710	1.008531
C97	C	-0.640287	0.261786	0.261864
C98	C	-0.306953	0.595119	0.595198
C99	C	0.026380	0.928453	0.928531
C100	C	-0.574851	0.261790	0.261871
C101	C	-0.241518	0.595123	0.595204
C102	C	0.091815	0.928456	0.928538
C103	C	-0.542140	0.301916	0.301880
C104	C	-0.208807	0.635250	0.635213
C105	C	0.124526	0.968583	0.968546
C106	C	-0.905353	0.464714	0.301853
C107	C	-0.572020	0.798047	0.635186
C108	C	-0.238686	1.131381	0.968519
C109	C	-0.905375	0.534355	0.301862
C110	C	-0.572042	0.867689	0.635195
C111	C	-0.238709	1.201022	0.968528
C112	C	-0.068859	0.301942	0.301898
C113	C	0.264475	0.635276	0.635231
C114	C	0.597808	0.968609	0.968564
C115	C	-0.138500	0.301940	0.301895
C116	C	0.194833	0.635273	0.635229
C117	C	0.528167	0.968607	0.968562
C118	C	-0.945472	0.567056	0.261836
C119	C	-0.612138	0.900389	0.595169
C120	C	-0.278805	1.233722	0.928503
C121	C	-0.945501	0.632491	0.261853
C122	C	-0.612168	0.965824	0.595186
C123	C	-0.278834	1.299158	0.928519
C124	C	-0.905423	0.665224	0.301889
C125	C	-0.572089	0.998557	0.635222
C126	C	-0.238756	1.331890	0.968556
C127	C	-0.865324	0.632516	0.341922
C128	C	-0.531990	0.965849	0.675256
C129	C	-0.198657	1.299182	1.008589
C130	C	-0.865300	0.567081	0.341909
C131	C	-0.531967	0.900415	0.675242
C132	C	-0.198633	1.233748	1.008576
C133	C	-0.849008	0.768936	0.306802
C134	C	-0.515675	1.102270	0.640136
C135	C	-0.182342	1.435603	0.973469
C136	C	-0.849031	0.834369	0.306811
C137	C	-0.515698	1.167703	0.640145
C138	C	-0.182364	1.501036	0.973478
C139	C	-0.905496	0.867044	0.301934
C140	C	-0.572163	1.200378	0.635268
C141	C	-0.238830	1.533711	0.968601
C142	C	-0.961941	0.834278	0.297035
C143	C	-0.628607	1.167612	0.630368
C144	C	-0.295274	1.500945	0.963702
C145	C	-0.961917	0.768844	0.297021
C146	C	-0.628584	1.102178	0.630355
C147	C	-0.295250	1.435511	0.963688
C148	C	-0.905444	0.736176	0.301908
C149	C	-0.572111	1.069509	0.635242
C150	C	-0.238778	1.402843	0.968575
C151	C	-0.945628	0.970697	0.261925
C152	C	-0.612294	1.304031	0.595258
C153	C	-0.278961	1.637364	0.928591
C154	C	-0.945658	1.036134	0.261946
C155	C	-0.612325	1.369467	0.595279
C156	C	-0.278992	1.702800	0.928613
C157	C	-0.865476	1.036157	0.342012
C158	C	-0.532142	1.369490	0.675346
C159	C	-0.198809	1.702824	1.008679
C160	C	-0.865451	0.970722	0.341994
C161	C	-0.532117	1.304055	0.675328
C162	C	-0.198784	1.637388	1.008661
C163	C	-0.905526	0.937996	0.301947
C164	C	-0.572193	1.271329	0.635280
C165	C	-0.238859	1.604662	0.968614
C166	C	-0.905487	0.301914	0.465304
C167	C	-0.572154	0.635247	0.798637
C168	C	-0.238821	0.968580	1.131971
C169	C	-0.905510	0.301908	0.534945
C170	C	-0.572176	0.635242	0.868279
C171	C	-0.238843	0.968575	1.201612
C172	C	-0.905536	1.138503	0.301933
C173	C	-0.572202	1.471837	0.635266
C174	C	-0.238869	1.805170	0.968600
C175	C	-0.905580	1.068862	0.301983
C176	C	-0.572247	1.402195	0.635316
C177	C	-0.238914	1.735529	0.968650
C178	C	-0.905420	0.301894	0.139093
C179	C	-0.572086	0.635227	0.472426
C180	C	-0.238753	0.968561	0.805760
C181	C	-0.905519	0.301723	0.069452
C182	C	-0.572186	0.635056	0.402786
C183	C	-0.238852	0.968389	0.736119
C184	C	-0.945606	0.261838	0.567675
C185	C	-0.612272	0.595171	0.901008
C186	C	-0.278939	0.928505	1.234341
C187	C	-0.945605	0.261811	0.633110
C188	C	-0.612271	0.595145	0.966444
C189	C	-0.278938	0.928478	1.299777
C190	C	-0.905514	0.301866	0.665814
C191	C	-0.572181	0.635199	0.999147
C192	C	-0.238848	0.968532	1.332480
C193	C	-0.865411	0.341939	0.633076
C194	C	-0.532077	0.675272	0.966410
C195	C	-0.198744	1.008605	1.299743
C196	C	-0.865408	0.341960	0.567642
C197	C	-0.532075	0.675293	0.900975
C198	C	-0.198741	1.008627	1.234309
C199	C	-0.900539	0.358281	0.769479
C200	C	-0.567205	0.691614	1.102812
C201	C	-0.233872	1.024947	1.436145
C202	C	-0.900545	0.358261	0.834912
C203	C	-0.567212	0.691594	1.168245
C204	C	-0.233879	1.024927	1.501578
C205	C	-0.905518	0.301800	0.867635
C206	C	-0.572185	0.635133	1.200968
C207	C	-0.238852	0.968466	1.534301
C208	C	-0.910497	0.245357	0.834916
C209	C	-0.577164	0.578690	1.168250
C210	C	-0.243831	0.912024	1.501583
C211	C	-0.910495	0.245378	0.769482
C212	C	-0.577162	0.578712	1.102816
C213	C	-0.243828	0.912045	1.436149
C214	C	-0.905512	0.301847	0.736766
C215	C	-0.572179	0.635180	1.070099
C216	C	-0.238846	0.968513	1.403433
C217	C	-0.945616	0.261697	0.971317
C218	C	-0.612282	0.595030	1.304650
C219	C	-0.278949	0.928363	1.637983
C220	C	-0.945610	0.261669	1.036753
C221	C	-0.612277	0.595002	1.370087
C222	C	-0.278944	0.928335	1.703420
C223	C	-0.865419	0.341802	1.036718
C224	C	-0.532086	0.675135	1.370051
C225	C	-0.198753	1.008469	1.703385
C226	C	-0.865421	0.341824	0.971283
C227	C	-0.532088	0.675158	1.304616
C228	C	-0.198755	1.008491	1.637949
C229	C	-0.905523	0.301773	0.938586
C230	C	-0.572189	0.635106	1.271919
C231	C	-0.238856	0.968439	1.605253
H232	H	-0.144586	0.374736	0.374470
H233	H	0.188748	0.708069	0.707803
H234	H	0.522081	1.041403	1.041136
H235	H	-0.832693	0.659171	0.374521
H236	H	-0.499360	0.992504	0.707855
H237	H	-0.166026	1.325837	1.041188
H238	H	-0.978254	0.229178	0.659764
H239	H	-0.644921	0.562511	0.993097
H240	H	-0.311588	0.895844	1.326430
H241	H	-0.832774	0.374458	0.944634
H242	H	-0.499441	0.707791	1.277967
H243	H	-0.166108	1.041124	1.611301
Br244	Br	-0.811030	0.926339	0.396317
Br245	Br	-0.477696	1.259673	0.729650
Br246	Br	-0.144363	1.593006	1.062983
H247	H	-0.346357	0.404359	0.310675
H248	H	-0.013024	0.737692	0.644009
H249	H	0.320310	1.071026	0.977342
H250	H	-0.548222	0.374716	0.374451
H251	H	-0.214889	0.708049	0.707785
H252	H	0.118445	1.041383	1.041118
Br253	Br	-0.917252	0.168726	0.879317
Br254	Br	-0.583919	0.502059	1.212651
Br255	Br	-0.250585	0.835393	1.545984
H256	H	-0.803071	0.861042	0.310795
H257	H	-0.469737	1.194376	0.644128
H258	H	-0.136404	1.527709	0.977461
Br259	Br	-0.684682	0.207331	0.207573
Br260	Br	-0.351349	0.540665	0.540906
Br261	Br	-0.018015	0.873998	0.874239
H262	H	-0.978265	0.229081	0.944693
H263	H	-0.644932	0.562414	1.278027
H264	H	-0.311598	0.895747	1.611360
Br265	Br	-1.000012	0.926279	0.207574
Br266	Br	-0.666679	1.259613	0.540908
Br267	Br	-0.333345	1.592946	0.874241
Br268	Br	-0.893808	0.434915	0.725076
Br269	Br	-0.560475	0.768249	1.058409
Br270	Br	-0.227141	1.101582	1.391742
H271	H	-0.465143	0.199486	0.293104
H272	H	-0.131810	0.532819	0.626437
H273	H	0.201523	0.866152	0.959771
Br274	Br	-0.281060	0.396513	0.396175
Br275	Br	0.052274	0.729846	0.729509
Br276	Br	0.385607	1.063180	1.062842
Br277	Br	-0.772370	0.724598	0.313424
Br278	Br	-0.439037	1.057932	0.646757
Br279	Br	-0.105703	1.391265	0.980091
H280	H	-0.832648	0.540456	0.374504
H281	H	-0.499315	0.873790	0.707837
H282	H	-0.165982	1.207123	1.041170
H283	H	-0.896495	0.404219	0.861546
H284	H	-0.563162	0.737553	1.194879
H285	H	-0.229828	1.070886	1.528212
Br286	Br	-1.000026	0.207480	0.523303
Br287	Br	-0.666693	0.540813	0.856637
Br288	Br	-0.333359	0.874147	1.189970
Br289	Br	-0.810987	0.396345	0.523220
Br290	Br	-0.477653	0.729678	0.856553
Br291	Br	-0.144320	1.063011	1.189887
Br292	Br	-0.482816	0.435005	0.313291
Br293	Br	-0.149482	0.768338	0.646625
Br294	Br	0.183851	1.101671	0.979958
H295	H	-0.832767	0.374549	0.659708
H296	H	-0.499433	0.707883	0.993041
H297	H	-0.166100	1.041216	1.326374
H298	H	-0.666929	0.374718	0.374435
H299	H	-0.333596	0.708051	0.707768
H300	H	-0.000262	1.041385	1.041101
Br301	Br	-0.811002	0.396155	1.081094
Br302	Br	-0.477669	0.729488	1.414427
Br303	Br	-0.144335	1.062821	1.747761
H304	H	-0.914547	0.199421	0.742846
H305	H	-0.581214	0.532754	1.076179
H306	H	-0.247881	0.866088	1.409512
H307	H	-0.548214	0.229118	0.229302
H308	H	-0.214881	0.562451	0.562635
H309	H	0.118452	0.895784	0.895969
H310	H	-0.978154	0.659121	0.229259
H311	H	-0.644821	0.992454	0.562592
H312	H	-0.311488	1.325787	0.895926
H313	H	-0.346439	0.199492	0.293093
H314	H	-0.013105	0.532825	0.626426
H315	H	0.320228	0.866158	0.959759
Br316	Br	-0.281046	0.207351	0.207597
Br317	Br	0.052288	0.540684	0.540931
Br318	Br	0.385621	0.874017	0.874264
H319	H	-0.978105	0.540412	0.229229
H320	H	-0.644771	0.873745	0.562562
H321	H	-0.311438	1.207079	0.895895
Br322	Br	-0.126808	0.207361	0.207599
Br323	Br	0.206525	0.540694	0.540932
Br324	Br	0.539858	0.874027	0.874265
H325	H	-1.007875	0.742168	0.293034
H326	H	-0.674542	1.075501	0.626367
H327	H	-0.341208	1.408835	0.959700
Br328	Br	-1.038577	0.878614	0.290406
Br329	Br	-0.705244	1.211948	0.623739
Br330	Br	-0.371911	1.545281	0.957073
H331	H	-0.978313	1.062757	0.229353
H332	H	-0.644980	1.396091	0.562687
H333	H	-0.311647	1.729424	0.896020
Br334	Br	-0.811089	1.080573	0.396355
Br335	Br	-0.477756	1.413906	0.729688
Br336	Br	-0.144422	1.747239	1.063021
H337	H	-0.978260	0.229035	1.063401
H338	H	-0.644927	0.562368	1.396734
H339	H	-0.311594	0.895702	1.730067
