data_functionalizedCrystal
_audit_creation_method	'MofGen! by Chris Wilmer'
_symmetry_space_group_name_H-M	'P1'
_symmetry_Int_Tables_number	1
_symmetry_cell_setting	triclinic
loop_
_symmetry_equiv_pos_as_xyz
  x,y,z
_cell_length_a	19.077105
_cell_length_b	19.077713
_cell_length_c	19.076919
_cell_angle_alpha	85.341401
_cell_angle_beta	89.923776
_cell_angle_gamma	85.525329
loop_
_atom_site_label
_atom_site_type_symbol
_atom_site_fract_x
_atom_site_fract_y
_atom_site_fract_z
Zn1	Zn	-1.071382	0.341572	-0.454668
Zn2	Zn	-1.080379	0.455095	-0.341897
Zn3	Zn	-0.958237	0.332114	-0.332067
Zn4	Zn	-0.958185	0.454669	-0.454632
O5	O	-1.017046	0.395863	-0.395816
O6	O	-1.171066	0.360768	-0.443838
O7	O	-1.067964	0.435001	-0.242104
O8	O	-0.969502	0.234570	-0.344231
O9	O	-1.177676	0.444173	-0.360986
O10	O	-1.052629	0.241518	-0.434306
O11	O	-0.978226	0.344648	-0.234882
O12	O	-0.859739	0.344235	-0.344196
O13	O	-0.969413	0.443447	-0.553126
O14	O	-0.859701	0.434276	-0.434244
O15	O	-1.052579	0.360355	-0.553152
O16	O	-1.067914	0.553838	-0.360951
O17	O	-0.978138	0.553525	-0.443777
C18	C	-0.834183	0.388183	-0.388150
C19	C	-0.755953	0.384916	-0.384888
C20	C	-1.024015	0.579300	-0.403443
C21	C	-1.027060	0.657780	-0.406732
C22	C	-1.009987	0.402909	-0.579390
C23	C	-1.006979	0.405911	-0.657618
C24	C	-1.200623	0.403573	-0.403512
C25	C	-1.278852	0.406858	-0.406792
C26	C	-0.719205	0.430325	-0.430171
C27	C	-0.645699	0.427246	-0.427109
C28	C	-0.608944	0.378759	-0.378760
C29	C	-0.645697	0.333345	-0.333475
C30	C	-0.719201	0.336422	-0.336541
C31	C	-0.389110	0.364521	-0.364573
C32	C	-0.315601	0.361449	-0.361509
C33	C	-0.315608	0.455349	-0.455144
C34	C	-0.389113	0.458424	-0.458203
C35	C	-0.425860	0.413007	-0.412921
N36	N	-0.533809	0.375612	-0.375627
N37	N	-0.500993	0.416152	-0.416057
C38	C	-1.010068	0.211710	-0.388176
C39	C	-1.007094	0.133235	-0.384920
C40	C	-1.048898	1.099918	-0.430300
C41	C	-1.046030	1.026178	-0.427203
C42	C	-1.001352	0.985757	-0.378729
C43	C	-0.959546	1.019079	-0.333344
C44	C	-0.962419	1.092818	-0.336438
C45	C	-0.988127	0.764841	-0.364441
C46	C	-0.985256	0.691097	-0.361351
C47	C	-1.071740	0.698201	-0.455210
C48	C	-1.074606	0.771941	-0.458303
C49	C	-1.032803	0.805257	-0.412915
N50	N	-0.998417	0.910383	-0.375564
N51	N	-1.035742	0.880629	-0.416077
C52	C	-1.048863	0.364062	-0.694385
C53	C	-1.046028	0.366880	-0.767888
C54	C	-1.001312	0.411551	-0.804624
C55	C	-0.959423	0.453402	-0.767852
C56	C	-0.962254	0.450580	-0.694350
C57	C	-0.988195	0.424628	-1.024451
C58	C	-0.985368	0.427448	-1.097958
C59	C	-1.071973	0.340925	-1.097990
C60	C	-1.074804	0.338110	-1.024486
C61	C	-1.032912	0.379958	-0.987720
N62	N	-0.998414	0.414435	-0.879756
N63	N	-1.035806	0.377070	-0.912589
C64	C	-1.024116	0.388795	-0.212956
C65	C	-1.027253	0.385599	-0.134725
H66	H	-0.749126	0.469810	-0.469539
Br67	Br	-0.769075	0.274788	-0.275087
H68	H	-0.948953	0.463827	-1.127866
Br69	Br	-1.109558	0.303440	-0.644537
Br70	Br	-0.898731	0.514023	-0.817706
H71	H	-0.923172	0.986164	-0.293872
H72	H	-0.419021	0.327544	-0.327696
H73	H	-0.615782	0.464223	-0.463982
H74	H	-1.080071	0.999051	-0.464155
Br75	Br	-1.128821	0.284134	-1.147889
H76	H	-0.948871	0.658189	-0.321876
Br77	Br	-1.135495	0.277485	-0.974636
Br78	Br	-0.931390	0.810046	-0.302846
Br79	Br	-0.905688	1.138035	-0.274843
Br80	Br	-1.102908	0.310117	-0.817787
Br81	Br	-0.438991	0.524233	-0.523818
H82	H	-1.085272	1.132824	-0.469780
Br83	Br	-0.265734	0.516985	-0.516592
H84	H	-0.954095	0.458714	-0.994526
H85	H	-0.928140	0.484650	-0.664415
Br86	Br	-1.135227	0.826793	-0.524106
H87	H	-0.285676	0.321958	-0.322142
H88	H	-0.615765	0.293864	-0.294111
Br89	Br	-1.128470	0.652983	-0.516805
