data_functionalizedCrystal
_audit_creation_method	'MofGen! by Chris Wilmer'
_symmetry_space_group_name_H-M	'P1'
_symmetry_Int_Tables_number	1
_symmetry_cell_setting	triclinic
loop_
_symmetry_equiv_pos_as_xyz
  x,y,z
_cell_length_a	6.817900
_cell_length_b	13.168018
_cell_length_c	17.329378
_cell_angle_alpha	96.299776
_cell_angle_beta	103.025558
_cell_angle_gamma	105.756000
loop_
_atom_site_label
_atom_site_type_symbol
_atom_site_fract_x
_atom_site_fract_y
_atom_site_fract_z
V1	V	-4.026054	-0.126073	-0.254222
O2	O	-3.994531	0.028546	-0.238283
O3	O	-3.995897	-0.271608	-0.263159
O4	O	-3.968986	-0.114266	-0.360227
O5	O	-4.021628	-0.129886	-0.140543
V6	V	-4.508441	-0.108744	-0.239329
O7	O	-4.289804	-0.164084	-0.286893
O8	O	-4.694889	-0.070733	-0.206658
O9	O	-4.315392	0.036791	-0.230392
O10	O	-4.657360	-0.263363	-0.255268
O11	O	-4.630264	-0.104931	-0.353008
O12	O	-4.342302	-0.120551	-0.133324
C13	C	-3.845616	-0.307395	-0.261903
C14	C	-3.902188	-0.426309	-0.269917
C15	C	-4.018428	-0.602759	-0.353821
C16	C	-3.965280	-0.491030	-0.346295
C17	C	-3.892251	-0.473324	-0.201060
C18	C	-3.945399	-0.585054	-0.208586
C19	C	-4.008484	-0.649768	-0.284969
C20	C	-4.061618	-0.761499	-0.292495
C21	C	-3.988603	-0.743792	-0.147261
C22	C	-3.935455	-0.632062	-0.139734
C23	C	-3.811288	-0.106688	-0.385722
C24	C	-3.846033	-0.097998	-0.472451
C25	C	-3.913923	-0.190825	-0.531487
C26	C	-3.946577	-0.182658	-0.612978
C27	C	-3.911326	-0.081663	-0.635432
C28	C	-3.843435	0.011170	-0.576390
C29	C	-3.810796	0.003002	-0.494901
C30	C	-4.007307	-0.052152	-0.880563
C31	C	-4.039946	-0.043991	-0.962059
C32	C	-4.143090	-0.237819	-0.998642
C33	C	-4.110434	-0.245978	-0.917149
C34	C	-4.042557	-0.153146	-0.858114
C35	C	-3.944696	-0.073313	-0.718729
C36	C	-4.009202	-0.161498	-0.774819
C37	C	-4.129015	0.072572	-0.231646
C38	C	-4.051682	0.191485	-0.223638
C39	C	-4.163344	-0.128132	-0.107825
C40	C	-4.107837	-0.136817	-0.021094
H41	H	-3.884094	-0.579358	-0.077546
H42	H	-3.980494	-0.782077	-0.091196
H43	H	-4.011279	0.038254	-0.980337
O44	O	-4.144531	-0.344117	-0.895396
C45	C	-3.955576	-0.350132	-0.845202
H46	H	-3.814783	-0.289374	-0.856367
H47	H	-3.942860	-0.434378	-0.859188
H48	H	-3.956291	-0.331509	-0.779467
O49	O	-3.808863	0.109345	-0.598092
C50	C	-3.596137	0.171033	-0.562915
H51	H	-3.529300	0.139121	-0.507569
H52	H	-3.586841	0.258344	-0.544321
H53	H	-3.500254	0.165518	-0.608409
O54	O	-3.974958	-0.445537	-0.413258
C55	C	-4.042091	-0.526620	-0.482286
H56	H	-4.005892	-0.601899	-0.464871
H57	H	-3.955080	-0.497816	-0.528613
H58	H	-4.219581	-0.545710	-0.509192
H59	H	-3.952040	0.023439	-0.832506
H60	H	-4.069771	-0.655450	-0.416015
H61	H	-3.942618	-0.273065	-0.513212
O62	O	-3.745199	0.093132	-0.437530
C63	C	-3.896580	0.089461	-0.393438
H64	H	-4.056853	0.033619	-0.431278
H65	H	-3.908792	0.173493	-0.377727
H66	H	-3.846507	0.058303	-0.335655
O67	O	-4.012422	-0.272934	-0.670219
C68	C	-4.036567	-0.363826	-0.632927
H69	H	-3.934811	-0.339502	-0.567958
H70	H	-3.984865	-0.426587	-0.666938
H71	H	-4.209545	-0.398886	-0.633730
O72	O	-4.209127	-0.327886	-1.056092
C73	C	-4.230329	-0.299026	-1.132832
H74	H	-4.253830	-0.216350	-1.129758
H75	H	-4.372862	-0.360466	-1.177809
H76	H	-4.081447	-0.296924	-1.152982
H77	H	-3.840904	-0.420616	-0.138873
O78	O	-4.042962	-0.259538	-0.752917
C79	C	-3.853727	-0.265208	-0.702700
H80	H	-3.713212	-0.204442	-0.714029
H81	H	-3.840663	-0.349412	-0.716499
H82	H	-3.854283	-0.246355	-0.636965
H83	H	-3.915993	0.008918	-0.737020
H84	H	-4.112974	-0.814188	-0.354689
