data_functionalizedCrystal
_audit_creation_method	'MofGen! by Chris Wilmer'
_symmetry_space_group_name_H-M	'P1'
_symmetry_Int_Tables_number	1
_symmetry_cell_setting	triclinic
loop_
_symmetry_equiv_pos_as_xyz
  x,y,z
_cell_length_a	17.038272
_cell_length_b	16.109318
_cell_length_c	15.186229
_cell_angle_alpha	90.000224
_cell_angle_beta	89.995962
_cell_angle_gamma	87.290060
loop_
_atom_site_label
_atom_site_type_symbol
_atom_site_fract_x
_atom_site_fract_y
_atom_site_fract_z
O1	O	0.100560	1.110263	-0.073156
O2	O	0.600560	1.610263	0.426844
O3	O	0.113052	0.869090	-0.073174
O4	O	0.613052	1.369090	0.426826
O5	O	-0.007009	0.988243	-0.073158
O6	O	0.492991	1.488243	0.426842
O7	O	0.220621	0.991110	-0.073172
O8	O	0.720621	1.491110	0.426828
O9	O	-0.007011	0.988235	0.073299
O10	O	0.492989	1.488235	0.573299
O11	O	0.113050	0.869082	0.073284
O12	O	0.613050	1.369082	0.573284
O13	O	0.100558	1.110255	0.073301
O14	O	0.600558	1.610255	0.573301
Zn15	Zn	0.106804	0.989667	0.096546
Zn16	Zn	0.606804	1.489667	0.596546
Zn17	Zn	0.106806	0.989678	-0.096418
Zn18	Zn	0.606806	1.489678	0.403582
O19	O	0.220620	0.991102	0.073286
O20	O	0.720620	1.491102	0.573286
C21	C	0.112543	0.838075	0.000053
C22	C	0.612543	1.338075	0.500053
C23	C	0.111019	0.745673	0.000046
C24	C	0.611019	1.245673	0.500046
C25	C	0.106097	0.446254	-0.079772
C26	C	0.606097	0.946254	0.420228
C27	C	0.107524	0.533077	-0.079778
C28	C	0.607524	1.033077	0.420222
C29	C	0.107511	0.533085	0.079898
C30	C	0.607511	1.033085	0.579898
C31	C	0.106079	0.446264	0.079903
C32	C	0.606079	0.946264	0.579903
C33	C	0.105375	0.402851	0.000065
C34	C	0.605375	0.902851	0.500065
C35	C	0.108235	0.576494	0.000055
C36	C	0.608235	1.076494	0.500055
C37	C	0.109782	0.670631	0.000050
C38	C	0.609782	1.170631	0.500050
C39	C	0.103827	0.308708	0.000070
C40	C	0.603827	0.808708	0.500070
C41	C	-0.036139	0.985632	0.000070
C42	C	0.463861	1.485632	0.500070
C43	C	-0.122932	0.977853	0.000070
C44	C	0.377068	1.477853	0.500070
C45	C	-0.173043	1.049273	0.000076
C46	C	0.326957	1.549273	0.500076
C47	C	-0.254593	1.041959	0.000067
C48	C	0.245407	1.541959	0.500067
C49	C	-0.286032	0.963224	0.000058
C50	C	0.213968	1.463224	0.500058
C51	C	-0.235915	0.891798	0.000049
C52	C	0.264085	1.391798	0.500049
C53	C	-0.154366	0.899113	0.000052
C54	C	0.345634	1.399113	0.500052
C55	C	-0.531791	0.937381	0.000044
C56	C	-0.031791	1.437381	0.500044
C57	C	-0.613347	0.930072	0.000044
C58	C	-0.113347	1.430072	0.500044
C59	C	-0.632020	1.080234	0.000060
C60	C	-0.132020	1.580234	0.500060
C61	C	-0.550468	1.087542	0.000068
C62	C	-0.050468	1.587542	0.500068
C63	C	-0.500358	1.016116	0.000055
C64	C	-0.000358	1.516116	0.500055
C65	C	-0.369390	0.955746	0.000052
C66	C	0.130610	1.455746	0.500052
C67	C	-0.417002	1.023595	0.000055
C68	C	0.082998	1.523595	0.500055
C69	C	0.249749	0.993713	0.000055
C70	C	0.749749	1.493713	0.500055
C71	C	0.336542	1.001492	0.000050
C72	C	0.836542	1.501492	0.500050
C73	C	0.101067	1.141270	0.000073
C74	C	0.601067	1.641270	0.500073
C75	C	0.102592	1.233672	0.000074
C76	C	0.602592	1.733672	0.500074
N77	N	0.106802	0.989665	0.228238
N78	N	0.606802	1.489665	0.728238
N79	N	0.106802	0.989686	-0.228111
N80	N	0.606802	1.489686	0.271889
C81	C	0.053657	1.042447	0.453968
C82	C	0.553657	1.542447	0.953968
C83	C	0.053655	1.042449	0.546158
C84	C	0.553655	1.542449	1.046158
C85	C	0.159950	0.936899	0.546153
C86	C	0.659950	1.436899	1.046153
C87	C	0.159948	0.936893	0.453965
C88	C	0.659948	1.436893	0.953965
C89	C	0.106802	0.989671	0.407875
C90	C	0.606802	1.489671	0.907875
C91	C	0.106802	0.989680	0.592253
C92	C	0.606802	1.489680	1.092253
C93	C	0.106801	0.989682	0.692209
C94	C	0.606801	1.489682	1.192209
C95	C	0.106802	0.989668	0.307913
C96	C	0.606802	1.489668	0.807913
H97	H	0.108085	0.568443	0.144899
H98	H	0.608085	1.068443	0.644899
H99	H	0.010381	1.085421	0.416444
H100	H	0.510381	1.585421	0.916444
Br101	Br	-0.278581	0.784941	0.000022
Br102	Br	0.221419	1.284941	0.500022
Br103	Br	0.108496	0.591978	-0.188133
Br104	Br	0.608496	1.091978	0.311867
Br105	Br	-0.018477	1.114071	0.608712
Br106	Br	0.481523	1.614071	1.108712
Br107	Br	0.232075	0.865275	0.608707
Br108	Br	0.732075	1.365275	1.108707
Br109	Br	0.232072	0.865257	0.391402
Br110	Br	0.732072	1.365257	0.891402
Br111	Br	-0.374334	1.130447	0.000059
Br112	Br	0.125666	1.630447	0.500059
Br113	Br	0.105140	0.387338	-0.188122
Br114	Br	0.605140	0.887338	0.311878
H115	H	-0.113566	0.840955	0.000047
H116	H	0.386434	1.340955	0.500047
Br117	Br	0.105094	0.387355	0.188261
Br118	Br	0.605094	0.887355	0.688261
Br119	Br	-0.463795	0.840445	0.000020
Br120	Br	0.036205	1.340445	0.500020
Br121	Br	-0.130384	1.156133	0.000101
Br122	Br	0.369616	1.656133	0.500101
H123	H	-0.295391	1.100117	0.000074
H124	H	0.204609	1.600117	0.500074
H125	H	-0.394997	0.891639	0.000047
H126	H	0.105003	1.391639	0.500047
Br127	Br	-0.507807	1.194401	0.000052
Br128	Br	-0.007807	1.694401	0.500052
H129	H	-0.672828	1.138384	0.000070
H130	H	-0.172828	1.638384	0.500070
H131	H	-0.638941	0.865953	0.000051
H132	H	-0.138941	1.365953	0.500051
