data_functionalizedCrystal
_audit_creation_method	'MofGen! by Chris Wilmer'
_symmetry_space_group_name_H-M	'P1'
_symmetry_Int_Tables_number	1
_symmetry_cell_setting	triclinic
loop_
_symmetry_equiv_pos_as_xyz
  x,y,z
_cell_length_a	18.215407
_cell_length_b	18.215405
_cell_length_c	17.077396
_cell_angle_alpha	90.028580
_cell_angle_beta	90.017277
_cell_angle_gamma	90.020175
loop_
_atom_site_label
_atom_site_type_symbol
_atom_site_fract_x
_atom_site_fract_y
_atom_site_fract_z
Zn1	Zn	1.125082	-0.293034	0.443796
Zn2	Zn	1.625082	0.206966	0.943796
Zn3	Zn	1.124995	-0.416108	0.312529
Zn4	Zn	1.624995	0.083892	0.812529
Zn5	Zn	1.002015	-0.293054	0.312549
Zn6	Zn	1.502015	0.206946	0.812549
Zn7	Zn	1.001985	-0.416058	0.443758
Zn8	Zn	1.501985	0.083942	0.943758
O9	O	1.063520	-0.354564	0.378158
O10	O	1.563520	0.145436	0.878158
O11	O	1.228055	-0.309373	0.426390
O12	O	1.728055	0.190627	0.926390
O13	O	1.108658	-0.399814	0.202685
O14	O	1.608658	0.100186	0.702685
O15	O	1.018389	-0.190067	0.329983
O16	O	1.518389	0.309933	0.829983
O17	O	1.227991	-0.399794	0.329950
O18	O	1.727991	0.100206	0.829950
O19	O	1.108806	-0.190053	0.426409
O20	O	1.608806	0.309947	0.926409
O21	O	1.018305	-0.309407	0.202699
O22	O	1.518305	0.190593	0.702699
O23	O	0.899027	-0.309359	0.329946
O24	O	1.399027	0.190641	0.829946
O25	O	1.018338	-0.399710	0.553610
O26	O	1.518338	0.100290	1.053610
O27	O	0.899005	-0.399729	0.426345
O28	O	1.399005	0.100271	0.926345
O29	O	1.108777	-0.309325	0.553638
O30	O	1.608777	0.190675	1.053638
O31	O	1.108629	-0.519086	0.329913
O32	O	1.608629	-0.019086	0.829913
O33	O	1.018254	-0.519049	0.426326
O34	O	1.518254	-0.019049	0.926326
C35	C	0.872313	-0.354541	0.378144
C36	C	1.372313	0.145459	0.878144
C37	C	0.790514	-0.354549	0.378157
C38	C	1.290514	0.145451	0.878157
C39	C	0.602353	-0.307564	0.428453
C40	C	1.102353	0.192436	0.928453
C41	C	0.525494	-0.307570	0.428456
C42	C	1.025494	0.192430	0.928456
C43	C	0.525438	-0.401585	0.327877
C44	C	1.025438	0.098415	0.827877
C45	C	0.602296	-0.401574	0.327871
C46	C	1.102296	0.098426	0.827871
C47	C	0.640751	-0.354565	0.378163
C48	C	1.140751	0.145435	0.878163
C49	C	0.487035	-0.354581	0.378172
C50	C	0.987035	0.145419	0.878172
C51	C	0.403701	-0.354589	0.378174
C52	C	0.903701	0.145411	0.878174
C53	C	0.724090	-0.354556	0.378160
C54	C	1.224090	0.145444	0.878160
C55	C	1.063449	-0.545770	0.378131
C56	C	1.563449	-0.045770	0.878131
C57	C	1.063486	-0.627569	0.378146
C58	C	1.563486	-0.127569	0.878146
C59	C	1.110589	-0.815694	0.428423
C60	C	1.610589	-0.315694	0.928423
C61	C	1.110615	-0.892553	0.428438
C62	C	1.610615	-0.392553	0.928438
C63	C	1.016541	-0.892681	0.327942
C64	C	1.516541	-0.392681	0.827942
C65	C	1.016512	-0.815824	0.327931
C66	C	1.516512	-0.315824	0.827931
C67	C	1.063539	-0.777332	0.378171
C68	C	1.563539	-0.277332	0.878171
C69	C	1.063596	-0.931048	0.378196
C70	C	1.563596	-0.431048	0.878196
C71	C	1.063625	-1.014382	0.378211
C72	C	1.563625	-0.514382	0.878211
C73	C	1.063510	-0.693993	0.378157
C74	C	1.563510	-0.193993	0.878157
C75	C	1.255472	-0.354587	0.378172
C76	C	1.755472	0.145413	0.878172
C77	C	1.337271	-0.354597	0.378178
C78	C	1.837271	0.145403	0.878178
C79	C	1.063564	-0.354510	0.582902
C80	C	1.563564	0.145490	1.082902
C81	C	1.063583	-0.354486	0.670152
C82	C	1.563583	0.145514	1.170152
C83	C	1.063610	-0.162611	0.378202
C84	C	1.563610	0.337389	0.878202
C85	C	1.063649	-0.080812	0.378221
C86	C	1.563649	0.419188	0.878221
C87	C	1.063518	-0.354565	0.174210
C88	C	1.563518	0.145435	0.674210
C89	C	1.063641	-0.354380	0.086961
C90	C	1.563641	0.145620	0.586961
C91	C	1.110676	-0.307419	0.711158
C92	C	1.610676	0.192581	1.211158
C93	C	1.110685	-0.307395	0.793138
C94	C	1.610685	0.192605	1.293138
C95	C	1.063604	-0.354442	0.834112
C96	C	1.563604	0.145558	1.334112
C97	C	1.016506	-0.401511	0.793100
C98	C	1.516506	0.098489	1.293100
C99	C	1.016494	-0.401531	0.711121
C100	C	1.516494	0.098469	1.211121
C101	C	1.016535	-0.401467	0.963970
C102	C	1.516535	0.098533	1.463970
C103	C	1.016548	-0.401448	1.045955
C104	C	1.516548	0.098552	1.545955
C105	C	1.110727	-0.307330	1.045988
C106	C	1.610727	0.192670	1.545988
C107	C	1.110715	-0.307350	0.964009
C108	C	1.610715	0.192650	1.464009
C109	C	1.063617	-0.354421	0.923003
C110	C	1.563617	0.145579	1.423003
H111	H	0.494119	-0.439859	0.286931
H112	H	0.994119	0.060141	0.786931
F113	F	0.966493	-0.933653	0.274477
F114	F	1.466493	-0.433653	0.774477
H115	H	0.633661	-0.269283	0.469402
H116	H	1.133661	0.230717	0.969402
F117	F	1.160852	-0.257234	1.089630
F118	F	1.660852	0.242766	1.589630
F119	F	0.643164	-0.451596	0.274336
F120	F	1.143164	0.048404	0.774336
F121	F	0.966428	-0.774994	0.274448
F122	F	1.466428	-0.274994	0.774448
F123	F	1.160791	-0.257348	0.667558
F124	F	1.660791	0.242652	1.167558
H125	H	1.148926	-0.923784	0.469359
H126	H	1.648926	-0.423784	0.969359
F127	F	1.160828	-0.257282	0.920403
F128	F	1.660828	0.242718	1.420403
H129	H	1.149035	-0.269069	0.826522
H130	H	1.649035	0.230931	1.326522
F131	F	1.160638	-0.774731	0.481894
F132	F	1.660638	-0.274731	0.981894
F133	F	0.966433	-0.451515	1.089560
F134	F	1.466433	0.048485	1.589560
F135	F	0.966407	-0.451564	0.920331
F136	F	1.466407	0.048436	1.420331
F137	F	0.966395	-0.451580	0.836709
F138	F	1.466395	0.048420	1.336709
H139	H	0.494233	-0.269296	0.469405
H140	H	0.994233	0.230704	0.969405
F141	F	0.966369	-0.451625	0.667480
F142	F	1.466369	0.048375	1.167480
