data_functionalizedCrystal
_audit_creation_method	'MofGen! by Chris Wilmer'
_symmetry_space_group_name_H-M	'P1'
_symmetry_Int_Tables_number	1
_symmetry_cell_setting	triclinic
loop_
_symmetry_equiv_pos_as_xyz
  x,y,z
_cell_length_a	6.394989
_cell_length_b	14.971507
_cell_length_c	13.448316
_cell_angle_alpha	89.997485
_cell_angle_beta	89.995631
_cell_angle_gamma	85.060186
loop_
_atom_site_label
_atom_site_type_symbol
_atom_site_fract_x
_atom_site_fract_y
_atom_site_fract_z
O1	O	-0.272425	-1.189875	0.082711
O2	O	-0.304977	-0.929829	0.082707
O3	O	0.015353	-1.063543	0.082710
O4	O	-0.592755	-1.056161	0.082708
O5	O	0.015381	-1.063540	-0.082674
O6	O	-0.304950	-0.929826	-0.082677
O7	O	-0.272397	-1.189872	-0.082673
Cu8	Cu	-0.288671	-1.059848	-0.097776
Cu9	Cu	-0.288703	-1.059852	0.097810
O10	O	-0.592728	-1.056158	-0.082676
C11	C	-0.303500	-0.896487	0.000014
C12	C	-0.299114	-0.797144	0.000013
C13	C	-0.470564	-0.360716	0.000016
C14	C	-0.474669	-0.454060	0.000021
C15	C	-0.286462	-0.509245	0.000018
C16	C	-0.094138	-0.471080	0.000020
C17	C	-0.090036	-0.377737	0.000021
C18	C	-0.102703	-0.665636	0.000014
C19	C	-0.106805	-0.758985	0.000011
C20	C	-0.487336	-0.741959	0.000015
C21	C	-0.483233	-0.648616	0.000016
C22	C	-0.290909	-0.610458	0.000016
C23	C	0.093193	-1.062082	0.000021
C24	C	0.329439	-1.057621	0.000022
C25	C	-0.273873	-0.223213	0.000018
C26	C	-0.278255	-0.322557	0.000014
N27	N	-0.288711	-1.059856	0.235374
N28	N	-0.288647	-1.059852	-0.235340
C29	C	-0.147149	-1.119180	0.287416
C30	C	-0.147143	-1.119184	0.391519
C31	C	-0.288691	-1.059858	0.443578
C32	C	-0.430269	-1.000530	0.391530
C33	C	-0.430283	-1.000532	0.287428
C34	C	-0.430225	-1.000530	0.608510
C35	C	-0.430209	-1.000527	0.712618
C36	C	-0.147085	-1.119183	0.712600
C37	C	-0.147100	-1.119184	0.608499
C38	C	-0.288675	-1.059855	0.556457
H39	H	-0.636488	-0.603686	0.000012
Br40	Br	-0.622391	-0.920020	0.462178
H41	H	-0.545519	-0.952221	0.566141
Br42	Br	0.158312	-0.613851	0.000008
Br43	Br	-0.622426	-0.920021	0.216800
H44	H	-0.643933	-0.773031	0.000015
Br45	Br	0.044973	-1.199701	0.462150
H46	H	-0.031831	-1.167487	0.566112
H47	H	-0.623825	-0.315790	0.000011
Br48	Br	0.045059	-1.199695	0.783231
Br49	Br	0.161289	-0.545973	0.000021
Br50	Br	0.148621	-0.833879	0.000013
H51	H	0.066562	-0.346671	0.000021
H52	H	-0.031875	-1.167487	0.245035
H53	H	-0.631266	-0.485124	0.000032
Br54	Br	-0.622319	-0.920010	0.783263
