data_functionalizedCrystal
_audit_creation_method	'MofGen! by Chris Wilmer'
_symmetry_space_group_name_H-M	'P1'
_symmetry_Int_Tables_number	1
_symmetry_cell_setting	triclinic
loop_
_symmetry_equiv_pos_as_xyz
  x,y,z
_cell_length_a	6.817900
_cell_length_b	12.840946
_cell_length_c	11.168134
_cell_angle_alpha	82.583916
_cell_angle_beta	70.712555
_cell_angle_gamma	88.344365
loop_
_atom_site_label
_atom_site_type_symbol
_atom_site_fract_x
_atom_site_fract_y
_atom_site_fract_z
V1	V	-3.925869	0.283477	0.177698
O2	O	-3.887472	0.320308	-0.005459
O3	O	-3.904843	0.240927	0.349383
O4	O	-3.821254	0.425640	0.176316
O5	O	-3.971640	0.134316	0.168806
V6	V	-4.413234	0.270570	0.155630
O7	O	-4.178700	0.311791	0.226104
O8	O	-4.610601	0.242256	0.107224
O9	O	-4.211054	0.313120	-0.016054
O10	O	-4.569028	0.233740	0.338787
O11	O	-4.484861	0.419732	0.164523
O12	O	-4.294643	0.128407	0.157012
C13	C	-3.758322	0.225976	0.391194
C14	C	-3.822043	0.192133	0.531557
C15	C	-4.033046	0.179929	0.603959
C16	C	-4.092947	0.148145	0.735850
C17	C	-3.941842	0.128560	0.795333
C18	C	-3.730821	0.140770	0.722922
C19	C	-3.670923	0.172560	0.591035
C20	C	-3.651707	0.461596	0.170424
C21	C	-3.647560	0.579727	0.170428
C22	C	-4.110567	-0.025688	0.162953
C23	C	-4.127564	0.092447	0.162926
V24	V	-3.908846	0.769636	0.177734
O25	O	-3.944014	0.922928	0.168858
O26	O	-3.814362	0.622780	0.176337
O27	O	-3.886283	0.770714	0.349419
O28	O	-3.871595	0.773970	-0.005423
V29	V	-4.394269	0.812263	0.155677
O30	O	-4.163612	0.742740	0.226142
O31	O	-4.588909	0.861844	0.107278
O32	O	-4.265938	0.947872	0.157071
O33	O	-4.476291	0.664886	0.164556
O34	O	-4.548710	0.813845	0.338837
O35	O	-4.194018	0.799938	-0.016012
C36	C	-4.020919	0.328067	-0.057859
C37	C	-3.936434	0.361916	-0.198221
C38	C	-3.739312	0.768430	0.391222
C39	C	-3.801699	0.772453	0.531585
C40	C	-4.004920	0.785257	-0.057827
C41	C	-3.921809	0.780198	-0.198193
C42	C	-4.001575	0.777976	0.600322
C43	C	-4.066059	0.782134	0.745395
C44	C	-4.070418	0.374124	-0.270622
C45	C	-3.991058	0.405912	-0.402512
C46	C	-3.777716	0.425499	-0.461995
C47	C	-3.643724	0.413287	-0.389584
C48	C	-3.723082	0.381492	-0.257699
H49	H	-3.499102	0.182489	0.532093
H50	H	-3.607806	0.124819	0.771374
H51	H	-3.990643	0.102675	0.902725
H52	H	-3.750577	0.775458	0.742727
N53	N	-3.638381	0.770119	0.596001
H54	H	-3.646522	0.836126	0.637668
H55	H	-3.663267	0.706763	0.663192
H56	H	-3.713125	0.451388	-0.569386
H57	H	-4.244138	0.358180	-0.222209
N58	N	-4.135599	0.419096	-0.480592
H59	H	-4.282790	0.401877	-0.422886
H60	H	-4.127163	0.494072	-0.522727
N61	N	-3.413625	0.434420	-0.453749
H62	H	-3.383708	0.456420	-0.548281
H63	H	-3.368618	0.492419	-0.415015
N64	N	-4.165027	0.780174	0.536022
H65	H	-4.095792	0.776895	0.441501
H66	H	-4.262515	0.717883	0.574699
H67	H	-3.613964	0.371564	-0.198757
N68	N	-4.292875	0.788416	0.823650
H69	H	-4.370070	0.724817	0.816461
H70	H	-4.306604	0.790535	0.916154
H71	H	-4.264778	0.138206	0.794789
N72	N	-4.196044	0.201050	0.539819
H73	H	-4.338795	0.188497	0.605716
H74	H	-4.182790	0.276344	0.498240
