data_functionalizedCrystal
_audit_creation_method	'MofGen! by Chris Wilmer'
_symmetry_space_group_name_H-M	'P1'
_symmetry_Int_Tables_number	1
_symmetry_cell_setting	triclinic
loop_
_symmetry_equiv_pos_as_xyz
  x,y,z
_cell_length_a	14.519709
_cell_length_b	9.065218
_cell_length_c	8.140239
_cell_angle_alpha	89.997198
_cell_angle_beta	89.995533
_cell_angle_gamma	84.348015
loop_
_atom_site_label
_atom_site_type_symbol
_atom_site_fract_x
_atom_site_fract_y
_atom_site_fract_z
O1	O	0.135225	1.957864	-0.136622
O2	O	0.468559	2.291197	0.196711
O3	O	0.801892	2.624530	0.530045
O4	O	0.146317	1.528371	-0.136625
O5	O	0.479650	1.861704	0.196709
O6	O	0.812984	2.195038	0.530042
O7	O	0.006616	1.754505	-0.136608
O8	O	0.339949	2.087838	0.196725
O9	O	0.673283	2.421171	0.530058
O10	O	0.274926	1.731730	-0.136638
O11	O	0.608260	2.065063	0.196695
O12	O	0.941593	2.398397	0.530029
O13	O	0.006614	1.754492	0.136619
O14	O	0.339948	2.087826	0.469952
O15	O	0.673281	2.421159	0.803285
O16	O	0.146315	1.528359	0.136603
O17	O	0.479649	1.861692	0.469936
O18	O	0.812982	2.195025	0.803269
O19	O	0.135224	1.957851	0.136605
O20	O	0.468557	2.291185	0.469939
O21	O	0.801890	2.624518	0.803272
Zn22	Zn	0.140769	1.743103	0.179985
Zn23	Zn	0.474102	2.076436	0.513318
Zn24	Zn	0.807436	2.409770	0.846651
Zn25	Zn	0.140771	1.743119	-0.180004
Zn26	Zn	0.474105	2.076453	0.153329
Zn27	Zn	0.807438	2.409786	0.486663
O28	O	0.274924	1.731718	0.136589
O29	O	0.608258	2.065051	0.469922
O30	O	0.941591	2.398384	0.803256
C31	C	0.145250	1.473398	-0.000011
C32	C	0.478584	1.806732	0.333322
C33	C	0.811917	2.140065	0.666655
C34	C	0.142063	1.309615	-0.000012
C35	C	0.475396	1.642948	0.333322
C36	C	0.808729	1.976282	0.666655
C37	C	-0.027752	1.753437	0.000005
C38	C	0.305581	2.086770	0.333339
C39	C	0.638914	2.420104	0.666672
C40	C	-0.130157	1.750257	0.000006
C41	C	0.203176	2.083590	0.333340
C42	C	0.536510	2.416923	0.666673
C43	C	-0.505138	1.738547	-0.000036
C44	C	-0.171805	2.071881	0.333297
C45	C	0.161528	2.405214	0.666630
C46	C	-0.400807	1.741799	-0.000024
C47	C	-0.067473	2.075132	0.333309
C48	C	0.265860	2.408466	0.666643
C49	C	-0.317651	1.744402	-0.000014
C50	C	0.015682	2.077735	0.333320
C51	C	0.349016	2.411068	0.666653
C52	C	-0.213313	1.747654	-0.000004
C53	C	0.120021	2.080987	0.333329
C54	C	0.453354	2.414321	0.666662
C55	C	0.309293	1.732785	-0.000028
C56	C	0.642626	2.066119	0.333305
C57	C	0.975960	2.399452	0.666638
C58	C	0.411697	1.735966	-0.000040
C59	C	0.745031	2.069299	0.333293
C60	C	1.078364	2.402632	0.666627
C61	C	0.136290	2.012824	-0.000012
C62	C	0.469624	2.346157	0.333322
C63	C	0.802957	2.679491	0.666655
C64	C	0.139478	2.176607	-0.000022
C65	C	0.472811	2.509941	0.333311
C66	C	0.806144	2.843274	0.666645
N67	N	0.140767	1.743103	0.425667
N68	N	0.474100	2.076436	0.759000
N69	N	0.807434	2.409769	1.092334
N70	N	0.140766	1.743132	-0.425687
N71	N	0.474100	2.076465	-0.092353
N72	N	0.807433	2.409798	0.240980
