data_functionalizedCrystal
_audit_creation_method	'MofGen! by Chris Wilmer'
_symmetry_space_group_name_H-M	'P1'
_symmetry_Int_Tables_number	1
_symmetry_cell_setting	triclinic
loop_
_symmetry_equiv_pos_as_xyz
  x,y,z
_cell_length_a	14.560438
_cell_length_b	12.970454
_cell_length_c	12.970454
_cell_angle_alpha	60.000265
_cell_angle_beta	90.001523
_cell_angle_gamma	60.001416
loop_
_atom_site_label
_atom_site_type_symbol
_atom_site_fract_x
_atom_site_fract_y
_atom_site_fract_z
Zr1	Zr	0.884756	1.128529	-0.135274
O2	O	0.738110	1.343616	-0.299900
O3	O	0.929710	0.913441	-0.084809
O4	O	0.929710	1.128531	-0.299898
O5	O	0.738110	1.128525	0.084857
O6	O	1.080848	1.128534	-0.299895
O7	O	0.738110	1.128526	-0.084811
O8	O	1.080848	0.743777	0.084860
O9	O	0.738110	1.513282	-0.299898
O10	O	1.061676	1.001912	-0.063283
O11	O	0.948884	1.001909	0.063336
O12	O	0.948883	1.255150	-0.189903
O13	O	0.836091	1.255147	-0.063285
Zr14	Zr	1.125805	1.128532	0.135330
Zr15	Zr	1.125804	1.128534	-0.135270
Zr16	Zr	0.884757	1.128528	0.135326
Zr17	Zr	0.884757	1.399127	-0.135272
Zr18	Zr	1.125804	0.857935	0.135328
O19	O	1.080850	1.343621	0.084865
O20	O	1.080849	1.343623	-0.299894
O21	O	0.738111	1.343614	0.084858
O22	O	1.272451	0.913445	0.299955
O23	O	1.272449	0.913447	-0.084803
O24	O	0.929712	0.913439	0.299949
O25	O	1.272450	1.128536	-0.084801
O26	O	1.080851	1.128531	0.299954
O27	O	0.929712	1.128528	0.299951
O28	O	1.272451	1.128535	0.084866
O29	O	0.929711	1.513286	-0.299895
O30	O	1.080849	0.743776	0.299950
O31	O	1.272450	0.743779	0.299954
O32	O	1.272449	0.743780	0.084863
O33	O	0.738111	1.513281	-0.084807
O34	O	0.929712	1.513285	-0.084804
O35	O	1.061677	1.001911	0.189959
O36	O	1.174469	1.001914	0.063340
O37	O	1.061677	1.255152	-0.063281
O38	O	0.948884	1.255149	0.063338
C39	C	1.005279	0.790054	0.000025
C40	C	1.005279	0.675178	0.000024
C41	C	0.703766	1.128525	0.000022
C42	C	0.601435	1.128523	0.000020
C43	C	0.612233	0.996338	0.066115
C44	C	0.516078	0.996345	0.066126
C45	C	0.398330	1.260734	-0.066061
C46	C	0.494484	1.260725	-0.066065
C47	C	0.719183	0.864135	0.132200
C48	C	0.729986	0.731939	0.198299
C49	C	0.633831	0.731946	0.198310
C50	C	0.526874	0.864149	0.132223
C51	C	1.306795	1.128536	0.000033
C52	C	1.409126	1.128538	0.000035
C53	C	1.005279	1.128532	-0.338451
C54	C	1.005278	1.128533	-0.453328
C55	C	1.005281	1.467007	0.000031
C56	C	1.005282	1.581883	0.000032
C57	C	1.005282	1.128529	0.338507
C58	C	1.005282	1.128528	0.453384
C59	C	1.306793	0.790060	0.000030
C60	C	1.409124	0.675186	0.000031
C61	C	1.005280	0.790053	0.338504
C62	C	1.005281	0.675176	0.453380
C63	C	1.306795	0.790058	0.338510
C64	C	1.409126	0.675184	0.453387
C65	C	0.703766	1.467003	-0.338454
C66	C	0.601434	1.581877	-0.453332
C67	C	0.703767	1.467001	0.000025
C68	C	0.601436	1.581875	0.000024
C69	C	1.005280	1.467009	-0.338449
C70	C	1.005280	1.581885	-0.453324
C71	C	1.457181	0.527755	0.093507
C72	C	1.553322	0.419804	0.093512
C73	C	1.601409	0.459287	0.000045
C74	C	1.553344	0.606733	-0.093440
C75	C	1.457200	0.714681	-0.093449
C76	C	1.457189	0.527753	0.507333
C77	C	1.553351	0.419800	0.615261
C78	C	1.601444	0.459280	0.669246
C79	C	1.553376	0.606725	0.615290
C80	C	1.457220	0.714676	0.507359
C81	C	0.553379	1.729308	-0.507287
C82	C	0.457239	1.837261	-0.615239
C83	C	0.409150	1.797780	-0.669228
C84	C	0.457214	1.650335	-0.615267
C85	C	0.553358	1.542385	-0.507322
C86	C	0.553379	1.542346	0.093508
C87	C	0.457238	1.650268	0.093532
C88	C	0.409151	1.797716	0.000068
C89	C	0.457216	1.837245	-0.093420
C90	C	0.553360	1.729325	-0.093439
H91	H	0.797484	0.864115	0.132196
H92	H	0.418050	1.957311	-0.169515
H93	H	1.418091	0.834719	0.463448
Cl94	Cl	0.864441	0.565752	0.281394
H95	H	0.418045	1.618209	-0.659240
H96	H	0.418117	1.957309	-0.659157
H97	H	1.418041	0.495579	0.169622
Cl98	Cl	0.288280	1.933509	-0.804929
H99	H	1.679693	0.371374	0.000065
Cl100	Cl	0.613751	1.357044	-0.439497
H101	H	0.642632	0.624306	0.252140
Cl102	Cl	1.613731	0.234456	0.211050
H103	H	0.448582	0.864144	0.132245
H104	H	0.592517	1.761482	-0.463341
H105	H	1.592511	0.638861	-0.169538
H106	H	1.418083	0.834725	-0.169567
Cl107	Cl	0.288281	1.933372	0.000108
Cl108	Cl	1.396753	0.478084	0.439487
H109	H	1.592470	0.299752	0.659181
H110	H	0.592516	1.422293	0.169617
H111	H	1.679739	0.371365	0.757131
H112	H	0.592478	1.761531	-0.169570
Cl113	Cl	0.263874	1.426919	-0.149141
H114	H	1.592547	0.638851	0.659260
H115	H	0.485688	1.368362	-0.119860
H116	H	0.418115	1.618055	0.169662
