data_functionalizedCrystal
_audit_creation_method	'MofGen! by Chris Wilmer'
_symmetry_space_group_name_H-M	'P1'
_symmetry_Int_Tables_number	1
_symmetry_cell_setting	triclinic
loop_
_symmetry_equiv_pos_as_xyz
  x,y,z
_cell_length_a	10.654543
_cell_length_b	17.699083
_cell_length_c	9.730223
_cell_angle_alpha	89.994713
_cell_angle_beta	90.003136
_cell_angle_gamma	96.117483
loop_
_atom_site_label
_atom_site_type_symbol
_atom_site_fract_x
_atom_site_fract_y
_atom_site_fract_z
O1	O	-1.665984	0.106277	-0.114289
O2	O	-1.165984	0.606277	0.385711
O3	O	-1.300327	0.116410	-0.114293
O4	O	-0.800327	0.616410	0.385707
O5	O	-1.493486	0.001220	-0.114279
O6	O	-0.993486	0.501220	0.385721
O7	O	-1.472825	0.221467	-0.114303
O8	O	-0.972825	0.721467	0.385697
O9	O	-1.493474	0.001217	0.114301
O10	O	-0.993474	0.501217	0.614301
O11	O	-1.300315	0.116407	0.114287
O12	O	-0.800315	0.616407	0.614287
O13	O	-1.665972	0.106274	0.114291
O14	O	-1.165972	0.606274	0.614291
Zn15	Zn	-1.483141	0.111340	0.150581
Zn16	Zn	-0.983141	0.611340	0.650581
Zn17	Zn	-1.483157	0.111344	-0.150583
Zn18	Zn	-0.983157	0.611344	0.349417
O19	O	-1.472812	0.221464	0.114277
O20	O	-0.972812	0.721464	0.614277
C21	C	-1.253536	0.115666	-0.000003
C22	C	-0.753536	0.615666	0.499997
C23	C	-1.114131	0.113443	-0.000004
C24	C	-0.614131	0.613443	0.499996
C25	C	-0.902465	0.179171	-0.000003
C26	C	-0.402465	0.679171	0.499997
C27	C	-1.033449	0.181265	-0.000013
C28	C	-0.533449	0.681265	0.499987
C29	C	-1.063822	0.043522	0.000001
C30	C	-0.563822	0.543522	0.500001
C31	C	-0.932840	0.041429	0.000002
C32	C	-0.432840	0.541429	0.500002
C33	C	-1.492740	-0.026983	0.000012
C34	C	-0.992740	0.473017	0.500012
C35	C	-1.490519	-0.111016	0.000012
C36	C	-0.990519	0.388984	0.500012
C37	C	-1.603899	-0.158917	0.000015
C38	C	-1.103899	0.341083	0.500015
C39	C	-1.601805	-0.237874	0.000003
C40	C	-1.101805	0.262126	0.500003
C41	C	-1.486329	-0.268927	-0.000002
C42	C	-0.986329	0.231073	0.499998
C43	C	-1.372939	-0.221019	-0.000010
C44	C	-0.872939	0.278981	0.499990
C45	C	-1.375035	-0.142064	-0.000007
C46	C	-0.875035	0.357936	0.499993
C47	C	-1.364485	-0.539436	-0.000021
C48	C	-0.864485	-0.039436	0.499979
C49	C	-1.362398	-0.618397	-0.000019
C50	C	-0.862398	-0.118397	0.499981
C51	C	-1.591255	-0.635246	-0.000011
C52	C	-1.091255	-0.135246	0.499989
C53	C	-1.593350	-0.556291	-0.000008
C54	C	-1.093350	-0.056291	0.499992
C55	C	-1.479962	-0.508390	-0.000023
C56	C	-0.979962	-0.008390	0.499977
C57	C	-1.482234	-0.422776	-0.000012
C58	C	-0.982234	0.077224	0.499988
C59	C	-1.484055	-0.354539	-0.000003
C60	C	-0.984055	0.145461	0.499997
C61	C	-0.712762	0.107022	0.000003
C62	C	-0.212762	0.607022	0.500003
C63	C	-0.852164	0.109255	0.000007
C64	C	-0.352164	0.609255	0.500007
C65	C	-1.473559	0.249667	-0.000016
C66	C	-0.973559	0.749667	0.499984
C67	C	-1.475780	0.333700	-0.000026
C68	C	-0.975780	0.833700	0.499974
N69	N	-1.483139	0.111337	0.356117
N70	N	-0.983139	0.611337	0.856117
N71	N	-1.483169	0.111341	-0.356119
N72	N	-0.983169	0.611341	0.143881
C73	C	-1.568699	0.060352	0.428050
C74	C	-1.068699	0.560352	0.928050
C75	C	-1.568711	0.060352	0.571933
C76	C	-1.068711	0.560352	1.071933
C77	C	-1.397601	0.162328	0.571938
C78	C	-0.897601	0.662328	1.071938
C79	C	-1.397583	0.162324	0.428058
C80	C	-0.897583	0.662324	0.928058
H81	H	-1.074397	0.238197	-0.000022
H82	H	-0.574397	0.738197	0.499978
H83	H	-0.836782	0.234400	0.000000
H84	H	-0.336782	0.734400	0.500000
Cl85	Cl	-1.165251	-0.041740	0.000009
Cl86	Cl	-0.665251	0.458260	0.500009
Cl87	Cl	-1.290054	0.226427	0.662384
Cl88	Cl	-0.790054	0.726427	1.162384
H89	H	-1.327904	0.203842	0.369487
H90	H	-0.827904	0.703842	0.869487
Cl91	Cl	-0.869600	-0.046472	-0.000004
Cl92	Cl	-0.369600	0.453528	0.499996
H93	H	-1.638380	0.018835	0.630496
H94	H	-1.138380	0.518835	1.130496
H95	H	-1.272157	-0.500444	-0.000032
H96	H	-0.772157	-0.000444	0.499968
Cl97	Cl	-1.749078	-0.119888	0.000036
Cl98	Cl	-1.249078	0.380112	0.500036
Cl99	Cl	-1.744347	-0.298091	0.000011
Cl100	Cl	-1.244347	0.201909	0.500011
H101	H	-1.687383	-0.531012	0.000003
H102	H	-1.187383	-0.031012	0.500003
H103	H	-1.638362	0.018834	0.369479
H104	H	-1.138362	0.518834	0.869479
Cl105	Cl	-1.733803	-0.695469	0.000002
Cl106	Cl	-1.233803	-0.195469	0.500002
Cl107	Cl	-1.227768	-0.260058	-0.000034
Cl108	Cl	-0.727768	0.239942	0.499966
Cl109	Cl	-1.217217	-0.657434	-0.000029
Cl110	Cl	-0.717217	-0.157434	0.499971
H111	H	-1.282709	-0.103062	-0.000010
H112	H	-0.782709	0.396938	0.499990
