data_functionalizedCrystal
_audit_creation_method	'MofGen! by Chris Wilmer'
_symmetry_space_group_name_H-M	'P1'
_symmetry_Int_Tables_number	1
_symmetry_cell_setting	triclinic
loop_
_symmetry_equiv_pos_as_xyz
  x,y,z
_cell_length_a	13.897449
_cell_length_b	21.295417
_cell_length_c	21.295420
_cell_angle_alpha	90.015173
_cell_angle_beta	90.006517
_cell_angle_gamma	90.031786
loop_
_atom_site_label
_atom_site_type_symbol
_atom_site_fract_x
_atom_site_fract_y
_atom_site_fract_z
Zn1	Zn	1.474481	-0.250700	0.355891
Zn2	Zn	1.807815	0.082634	0.689225
Zn3	Zn	2.141148	0.415967	1.022558
Zn4	Zn	1.474379	-0.355940	0.250617
Zn5	Zn	1.807713	-0.022606	0.583950
Zn6	Zn	2.141046	0.310727	0.917284
Zn7	Zn	1.313210	-0.250691	0.250639
Zn8	Zn	1.646544	0.082643	0.583972
Zn9	Zn	1.979877	0.415976	0.917305
Zn10	Zn	1.313116	-0.355937	0.355851
Zn11	Zn	1.646449	-0.022604	0.689184
Zn12	Zn	1.979783	0.310729	1.022517
O13	O	1.393797	-0.303317	0.303249
O14	O	1.727130	0.030017	0.636583
O15	O	2.060463	0.363350	0.969916
O16	O	1.609449	-0.264665	0.341935
O17	O	1.942783	0.068669	0.675268
O18	O	2.276116	0.402002	1.008601
O19	O	1.452997	-0.341975	0.162530
O20	O	1.786330	-0.008642	0.495864
O21	O	2.119663	0.324691	0.829197
O22	O	1.334686	-0.162602	0.264627
O23	O	1.668019	0.170731	0.597960
O24	O	2.001352	0.504064	0.931294
O25	O	1.609374	-0.341984	0.264590
O26	O	1.942708	-0.008651	0.597923
O27	O	2.276041	0.324683	0.931256
O28	O	1.453171	-0.162609	0.341956
O29	O	1.786504	0.170724	0.675289
O30	O	2.119837	0.504058	1.008622
O31	O	1.334587	-0.264649	0.162546
O32	O	1.667920	0.068684	0.495880
O33	O	2.001253	0.402017	0.829213
O34	O	1.178216	-0.264647	0.264587
O35	O	1.511550	0.068686	0.597921
O36	O	1.844883	0.402020	0.931254
O37	O	1.334525	-0.341980	0.443946
O38	O	1.667858	-0.008647	0.777279
O39	O	2.001191	0.324687	1.110612
O40	O	1.178147	-0.341971	0.341886
O41	O	1.511480	-0.008638	0.675220
O42	O	1.844814	0.324695	1.008553
O43	O	1.453079	-0.264663	0.443975
O44	O	1.786412	0.068671	0.777309
O45	O	2.119746	0.402004	1.110642
O46	O	1.452905	-0.444029	0.264550
O47	O	1.786238	-0.110695	0.597884
O48	O	2.119572	0.222638	0.931217
O49	O	1.334426	-0.444027	0.341865
O50	O	1.667759	-0.110694	0.675198
O51	O	2.001092	0.222640	1.008532
C52	C	1.143182	-0.303308	0.303235
C53	C	1.476516	0.030025	0.636568
C54	C	1.809849	0.363358	0.969902
C55	C	1.035969	-0.303320	0.303244
C56	C	1.369302	0.030013	0.636577
C57	C	1.702635	0.363347	0.969911
C58	C	0.839673	-0.303322	0.303260
C59	C	1.173007	0.030011	0.636594
C60	C	1.506340	0.363344	0.969927
C61	C	0.948906	-0.303319	0.303249
C62	C	1.282239	0.030014	0.636583
C63	C	1.615573	0.363348	0.969916
C64	C	1.393670	-0.466868	0.303215
C65	C	1.727004	-0.133535	0.636548
C66	C	2.060337	0.199798	0.969881
C67	C	1.393704	-0.536837	0.303221
C68	C	1.727038	-0.203503	0.636554
C69	C	2.060371	0.129830	0.969887
C70	C	1.455451	-0.569683	0.263004
C71	C	1.788785	-0.236350	0.596338
C72	C	2.122118	0.096983	0.929671
C73	C	1.455497	-0.635426	0.263018
C74	C	1.788830	-0.302092	0.596352
C75	C	2.122163	0.031241	0.929685
C76	C	1.393778	-0.668319	0.303242
C77	C	1.727111	-0.334986	0.636576
C78	C	2.060444	-0.001652	0.969909
C79	C	1.332026	-0.635464	0.343467
C80	C	1.665360	-0.302131	0.676800
C81	C	1.998693	0.031202	1.010134
C82	C	1.331990	-0.569723	0.343456
C83	C	1.665323	-0.236390	0.676789
C84	C	1.998656	0.096943	1.010123
N85	N	1.309395	-0.771587	0.308037
N86	N	1.642728	-0.438254	0.641370
N87	N	1.976062	-0.104921	0.974703
N88	N	1.309432	-0.834039	0.308043
N89	N	1.642766	-0.500706	0.641377
N90	N	1.976099	-0.167372	0.974710
C91	C	1.393886	-0.866394	0.303279
C92	C	1.727219	-0.533060	0.636612
C93	C	2.060552	-0.199727	0.969945
N94	N	1.478302	-0.833938	0.298495
N95	N	1.811635	-0.500605	0.631828
N96	N	2.144969	-0.167271	0.965161
N97	N	1.478263	-0.771481	0.298485
N98	N	1.811597	-0.438147	0.631818
N99	N	2.144930	-0.104814	0.965151
C100	C	1.393811	-0.739604	0.303259
C101	C	1.727144	-0.406271	0.636592
C102	C	2.060478	-0.072938	0.969926
C103	C	1.455687	-0.970526	0.263075
C104	C	1.789020	-0.637193	0.596409
C105	C	2.122354	-0.303859	0.929742
C106	C	1.455734	-1.036270	0.263094
C107	C	1.789067	-0.702936	0.596427
C108	C	2.122400	-0.369603	0.929760
C109	C	1.332255	-1.036307	0.343539
C110	C	1.665588	-0.702974	0.676872
C111	C	1.998921	-0.369640	1.010206
C112	C	1.332217	-0.970565	0.343524
C113	C	1.665550	-0.637231	0.676857
C114	C	1.998883	-0.303898	1.010190
C115	C	1.393931	-0.937678	0.303288
C116	C	1.727265	-0.604345	0.636622
C117	C	2.060598	-0.271011	0.969955
C118	C	1.645390	-0.303326	0.303264
C119	C	1.978723	0.030008	0.636598
C120	C	2.312056	0.363341	0.969931
C121	C	1.752604	-0.303329	0.303271
C122	C	2.085937	0.030004	0.636604
C123	C	2.419270	0.363337	0.969937
C124	C	1.393803	-0.303322	0.467440
C125	C	1.727136	0.030011	0.800773
C126	C	2.060469	0.363345	1.134106
C127	C	1.393805	-0.303324	0.537408
C128	C	1.727139	0.030009	0.870741
C129	C	2.060472	0.363342	1.204074
C130	C	1.393950	-0.139127	0.303298
C131	C	1.727283	0.194207	0.636632
C132	C	2.060617	0.527540	0.969965
C133	C	1.394015	-0.069158	0.303319
C134	C	1.727349	0.264175	0.636652
C135	C	2.060682	0.597508	0.969986
C136	C	1.455452	-0.343576	1.036858
C137	C	1.788785	-0.010242	1.370191
C138	C	2.122119	0.323091	1.703525
C139	C	1.455450	-0.343580	0.971115
C140	C	1.788783	-0.010247	1.304449
C141	C	2.122117	0.323087	1.637782
C142	C	1.393803	-0.303321	0.938247
C143	C	1.727136	0.030012	1.271581
C144	C	2.060469	0.363346	1.604914
C145	C	1.332135	-0.263066	0.971127
C146	C	1.665468	0.070268	1.304460
C147	C	1.998802	0.403601	1.637794
C148	C	1.332132	-0.263067	1.036868
C149	C	1.665465	0.070267	1.370202
C150	C	1.998799	0.403600	1.703535
N151	N	1.386459	-0.248217	0.835042
N152	N	1.719792	0.085116	1.168375
N153	N	2.053126	0.418449	1.501709
N154	N	1.386467	-0.248218	0.772591
N155	N	1.719801	0.085115	1.105924
N156	N	2.053134	0.418449	1.439257
C157	C	1.393807	-0.303317	0.740173
C158	C	1.727140	0.030017	1.073506
C159	C	2.060473	0.363350	1.406839
N160	N	1.401156	-0.358415	0.772565
N161	N	1.734489	-0.025082	1.105898
N162	N	2.067822	0.308251	1.439232
N163	N	1.401152	-0.358414	0.835022
N164	N	1.734486	-0.025080	1.168356
N165	N	2.067819	0.308253	1.501689
C166	C	1.393799	-0.303316	0.866962
C167	C	1.727132	0.030018	1.200295
C168	C	2.060465	0.363351	1.533629
C169	C	1.455463	-0.343577	0.636015
C170	C	1.788797	-0.010244	0.969349
C171	C	2.122130	0.323089	1.302682
C172	C	1.455454	-0.343583	0.570271
C173	C	1.788788	-0.010250	0.903605
C174	C	2.122121	0.323084	1.236938
C175	C	1.332145	-0.263063	0.570284
C176	C	1.665478	0.070270	0.903618
C177	C	1.998811	0.403604	1.236951
C178	C	1.332148	-0.263063	0.636027
C179	C	1.665482	0.070270	0.969360
C180	C	1.998815	0.403604	1.302693
C181	C	1.393813	-0.303319	0.668888
C182	C	1.727146	0.030014	1.002222
C183	C	2.060479	0.363347	1.335555
C184	C	1.393787	-0.303326	1.139698
C185	C	1.727121	0.030008	1.473031
C186	C	2.060454	0.363341	1.806365
C187	C	1.393796	-0.303323	1.069730
C188	C	1.727130	0.030010	1.403063
C189	C	2.060463	0.363344	1.736396
H190	H	1.505706	-0.542909	0.230244
H191	H	1.839039	-0.209575	0.563577
H192	H	2.172372	0.123758	0.896911
C193	C	1.264072	-0.533591	0.387707
C194	C	1.597406	-0.200257	0.721041
C195	C	1.930739	0.133076	1.054374
N196	N	1.212919	-0.506375	0.421041
N197	N	1.546253	-0.173042	0.754374
N198	N	1.879586	0.160292	1.087707
H199	H	1.505782	-0.662175	0.230269
H200	H	1.839115	-0.328841	0.563603
H201	H	2.172449	0.004492	0.896936
H202	H	1.281924	-0.230287	1.063632
H203	H	1.615257	0.103047	1.396965
H204	H	1.948590	0.436380	1.730299
H205	H	1.506022	-1.063012	0.230346
H206	H	1.839355	-0.729679	0.563679
H207	H	2.172688	-0.396346	0.897012
C208	C	1.523588	-0.934348	0.218825
C209	C	1.856921	-0.601015	0.552159
C210	C	2.190255	-0.267682	0.885492
N211	N	1.574735	-0.907101	0.185498
N212	N	1.908068	-0.573768	0.518831
N213	N	2.241402	-0.240434	0.852165
C214	C	1.523285	-0.387866	0.672165
C215	C	1.856619	-0.054533	1.005498
C216	C	2.189952	0.278801	1.338832
N217	N	1.574368	-0.421226	0.699391
N218	N	1.907701	-0.087892	1.032725
N219	N	2.241034	0.245441	1.366058
H220	H	1.505661	-0.376357	1.063610
H221	H	1.838995	-0.043024	1.396943
H222	H	2.172328	0.290309	1.730276
C223	C	1.264132	-0.671648	0.387711
C224	C	1.597465	-0.338315	0.721045
C225	C	1.930799	-0.004982	1.054378
N226	N	1.212992	-0.698902	0.421038
N227	N	1.546326	-0.365569	0.754372
N228	N	1.879659	-0.032236	1.087705
C229	C	1.523277	-0.387864	0.934949
C230	C	1.856610	-0.054530	1.268282
C231	C	2.189944	0.278803	1.601616
N232	N	1.574365	-0.421219	0.907711
N233	N	1.907698	-0.087885	1.241044
N234	N	2.241031	0.245448	1.574377
C235	C	1.264329	-0.218776	0.934971
C236	C	1.597662	0.114557	1.268304
C237	C	1.930996	0.447890	1.601637
N238	N	1.213256	-0.185416	0.907738
N239	N	1.546589	0.147917	1.241071
N240	N	1.879922	0.481251	1.574405
C241	C	1.264328	-0.218779	0.534133
C242	C	1.597662	0.114554	0.867466
C243	C	1.930995	0.447888	1.200800
N244	N	1.213246	-0.185425	0.506901
N245	N	1.546579	0.147909	0.840234
N246	N	1.879912	0.481242	1.173567
H247	H	1.282006	-1.063088	0.376293
H248	H	1.615340	-0.729755	0.709626
H249	H	1.948673	-0.396422	1.042960
C250	C	1.264309	-0.934432	0.387779
C251	C	1.597642	-0.601099	0.721112
C252	C	1.930975	-0.267765	1.054445
N253	N	1.213168	-0.907217	0.421121
N254	N	1.546502	-0.573884	0.754454
N255	N	1.879835	-0.240550	1.087787
H256	H	1.505657	-0.376367	0.543508
H257	H	1.838990	-0.043034	0.876842
H258	H	2.172324	0.290299	1.210175
C259	C	1.264334	-0.218773	0.672187
C260	C	1.597668	0.114560	1.005520
C261	C	1.931001	0.447894	1.338854
N262	N	1.213254	-0.185411	0.699423
N263	N	1.546588	0.147922	1.032756
N264	N	1.879921	0.481256	1.366090
