data_functionalizedCrystal
_audit_creation_method	'MofGen! by Chris Wilmer'
_symmetry_space_group_name_H-M	'P1'
_symmetry_Int_Tables_number	1
_symmetry_cell_setting	triclinic
loop_
_symmetry_equiv_pos_as_xyz
  x,y,z
_cell_length_a	19.121102
_cell_length_b	25.639239
_cell_length_c	19.120904
_cell_angle_alpha	92.410104
_cell_angle_beta	90.088173
_cell_angle_gamma	87.592882
loop_
_atom_site_label
_atom_site_type_symbol
_atom_site_fract_x
_atom_site_fract_y
_atom_site_fract_z
Zn1	Zn	1.054765	-0.255751	-0.442042
Zn2	Zn	1.554765	0.244249	0.057958
Zn3	Zn	1.059658	-0.339618	-0.324799
Zn4	Zn	1.559658	0.160382	0.175201
Zn5	Zn	0.942536	-0.248315	-0.319827
Zn6	Zn	1.442536	0.251685	0.180173
Zn7	Zn	0.937469	-0.339266	-0.437001
Zn8	Zn	1.437469	0.160734	0.062999
O9	O	0.998607	-0.295738	-0.380917
O10	O	1.498607	0.204262	0.119083
O11	O	1.153518	-0.270136	-0.430680
O12	O	1.653518	0.229864	0.069320
O13	O	1.048290	-0.324541	-0.226035
O14	O	1.548290	0.175459	0.273965
O15	O	0.957496	-0.176139	-0.336067
O16	O	1.457496	0.323861	0.163933
O17	O	1.157113	-0.331752	-0.344542
O18	O	1.657113	0.168248	0.155458
O19	O	1.039950	-0.181603	-0.425859
O20	O	1.539950	0.318397	0.074141
O21	O	0.962241	-0.257461	-0.222382
O22	O	1.462241	0.242539	0.277618
O23	O	0.843760	-0.257121	-0.331180
O24	O	1.343760	0.242879	0.168820
O25	O	0.948861	-0.331153	-0.535775
O26	O	1.448861	0.168847	-0.035775
O27	O	0.840037	-0.323942	-0.417267
O28	O	1.340037	0.176058	0.082733
O29	O	1.035037	-0.269795	-0.539478
O30	O	1.535037	0.230205	-0.039478
O31	O	1.043377	-0.412733	-0.339654
O32	O	1.543377	0.087267	0.160346
O33	O	0.953605	-0.412475	-0.422089
O34	O	1.453605	0.087525	0.077911
C35	C	0.816461	-0.289687	-0.373137
C36	C	1.316461	0.210313	0.126863
C37	C	0.738537	-0.287111	-0.369826
C38	C	1.238537	0.212889	0.130174
C39	C	0.998491	-0.431575	-0.380880
C40	C	1.498491	0.068425	0.119120
C41	C	0.998504	-0.489690	-0.380890
C42	C	1.498504	0.010310	0.119110
C43	C	0.700012	-0.320740	-0.413021
C44	C	1.200012	0.179260	0.086979
C45	C	0.626794	-0.318313	-0.409912
C46	C	1.126794	0.181687	0.090088
C47	C	0.592104	-0.282260	-0.363605
C48	C	1.092104	0.217740	0.136395
C49	C	0.630634	-0.248627	-0.320408
C50	C	1.130634	0.251373	0.179592
C51	C	0.703850	-0.251052	-0.323520
C52	C	1.203850	0.248948	0.176480
C53	C	0.371134	-0.273194	-0.351972
C54	C	0.871134	0.226806	0.148028
C55	C	0.297913	-0.270773	-0.348862
C56	C	0.797913	0.229227	0.151138
C57	C	0.294078	-0.340458	-0.438367
C58	C	0.794078	0.159542	0.061633
C59	C	0.367296	-0.342882	-0.441472
C60	C	0.867296	0.157118	0.058528
C61	C	0.405820	-0.309247	-0.398278
C62	C	0.905820	0.190753	0.101722
C63	C	0.517264	-0.279779	-0.360425
C64	C	1.017264	0.220221	0.139575
C65	C	0.480658	-0.311726	-0.401462
C66	C	0.980658	0.188274	0.098538
C67	C	1.045465	-0.850185	-0.338075
C68	C	1.545465	-0.350185	0.161925
C69	C	1.045491	-0.904791	-0.338085
C70	C	1.545491	-0.404791	0.161915
O71	O	1.085298	-0.933135	-0.301642
O72	O	1.585298	-0.433135	0.198358
N73	N	0.998728	-0.931982	-0.380969
N74	N	1.498728	-0.431982	0.119031
C75	C	0.951940	-0.904565	-0.423850
C76	C	1.451940	-0.404565	0.076150
O77	O	0.912167	-0.932708	-0.460327
O78	O	1.412167	-0.432708	0.039673
C79	C	0.951917	-0.849961	-0.423843
C80	C	1.451917	-0.349961	0.076157
C81	C	0.998679	-0.822772	-0.380951
C82	C	1.498679	-0.322772	0.119049
C83	C	1.092223	-0.822997	-0.295188
C84	C	1.592223	-0.322997	0.204812
C85	C	1.092195	-0.768395	-0.295176
C86	C	1.592195	-0.268395	0.204824
C87	C	1.045409	-0.740982	-0.338052
C88	C	1.545409	-0.240982	0.161948
C89	C	0.998651	-0.768171	-0.380940
C90	C	1.498651	-0.268171	0.119060
C91	C	0.905133	-0.822546	-0.466727
C92	C	1.405133	-0.322546	0.033273
C93	C	0.905115	-0.767938	-0.466716
C94	C	1.405115	-0.267938	0.033284
C95	C	0.951876	-0.740749	-0.423825
C96	C	1.451876	-0.240749	0.076175
C97	C	0.951837	-0.686156	-0.423805
C98	C	1.451837	-0.186156	0.076195
N99	N	0.998600	-0.658965	-0.380921
N100	N	1.498600	-0.158965	0.119079
C101	C	1.045386	-0.686378	-0.338045
C102	C	1.545386	-0.186378	0.161955
C103	C	0.951992	-1.019238	-0.423863
C104	C	1.451992	-0.519238	0.076137
C105	C	0.952011	-1.073841	-0.423867
C106	C	1.452011	-0.573841	0.076133
C107	C	1.045564	-1.074063	-0.338103
C108	C	1.545564	-0.574063	0.161897
C109	C	1.045541	-1.019459	-0.338096
C110	C	1.545541	-0.519459	0.161904
C111	C	0.998756	-0.992047	-0.380980
C112	C	1.498756	-0.492047	0.119020
C113	C	1.045324	-0.571710	-0.338024
C114	C	1.545324	-0.071710	0.161976
C115	C	1.045290	-0.517103	-0.338014
C116	C	1.545290	-0.017103	0.161986
C117	C	0.951740	-0.516886	-0.423780
C118	C	1.451740	-0.016886	0.076220
C119	C	0.951771	-0.571488	-0.423788
C120	C	1.451771	-0.071488	0.076212
C121	C	0.998569	-0.598899	-0.380907
C122	C	1.498569	-0.098899	0.119093
O123	O	0.912052	-0.657777	-0.460232
O124	O	1.412052	-0.157777	0.039768
O125	O	1.085159	-0.658229	-0.301581
O126	O	1.585159	-0.158229	0.198419
C127	C	1.181464	-0.301813	-0.388728
C128	C	1.681464	0.198187	0.111272
C129	C	1.259387	-0.304401	-0.392057
C130	C	1.759387	0.195599	0.107943
C131	C	0.990838	-0.301264	-0.563775
C132	C	1.490838	0.198736	-0.063775
C133	C	0.987527	-0.303619	-0.641698
C134	C	1.487527	0.196381	-0.141698
C135	C	0.998742	-0.159371	-0.380971
C136	C	1.498742	0.340629	0.119029
C137	C	0.998800	-0.101259	-0.380993
C138	C	1.498800	0.398741	0.119007
C139	C	1.030837	-0.272781	-0.680236
C140	C	1.530837	0.227219	-0.180236
C141	C	1.027718	-0.274992	-0.753453
C142	C	1.527718	0.225008	-0.253453
C143	C	0.981292	-0.308044	-0.788130
C144	C	1.481292	0.191956	-0.288130
C145	C	0.937977	-0.338883	-0.749587
C146	C	1.437977	0.161117	-0.249587
C147	C	0.941093	-0.336669	-0.676372
C148	C	1.441093	0.163331	-0.176372
C149	C	0.969635	-0.316324	-1.009097
C150	C	1.469635	0.183676	-0.509097
C151	C	0.966523	-0.318536	-1.082318
C152	C	1.466523	0.181464	-0.582318
C153	C	1.056263	-0.254644	-1.086178
C154	C	1.556263	0.245356	-0.586178
C155	C	1.059378	-0.252436	-1.012961
C156	C	1.559378	0.247564	-0.512961
C157	C	1.016061	-0.283273	-0.974424
C158	C	1.516061	0.216727	-0.474424
C159	C	0.978104	-0.310306	-0.862970
C160	C	1.478104	0.189694	-0.362970
C161	C	1.019246	-0.281008	-0.899586
C162	C	1.519246	0.218992	-0.399586
C163	C	1.006386	-0.290196	-0.198772
C164	C	1.506386	0.209804	0.301228
C165	C	1.009833	-0.287698	-0.120856
C166	C	1.509833	0.212302	0.379144
H167	H	0.595430	-0.345698	-0.445086
H168	H	1.095430	0.154302	0.054914
C169	C	0.891264	-0.709040	-0.560588
C170	C	1.391264	-0.209040	-0.060588
C171	C	0.853686	-0.737807	-0.513856
C172	C	1.353686	-0.237807	-0.013856
H173	H	0.859513	-0.690442	-0.589691
H174	H	1.359513	-0.190442	-0.089691
H175	H	0.919099	-0.685033	-0.535044
H176	H	1.419099	-0.185033	-0.035044
H177	H	0.920657	-0.732140	-0.588732
H178	H	1.420657	-0.232140	-0.088732
H179	H	0.824296	-0.714707	-0.485709
H180	H	1.324296	-0.214707	0.014291
H181	H	0.825839	-0.761817	-0.539403
H182	H	1.325839	-0.261817	-0.039403
C183	C	1.184677	-0.774116	-0.210418
C184	C	1.684677	-0.274116	0.289582
C185	C	1.143607	-0.738514	-0.248039
C186	C	1.643607	-0.238514	0.251961
H187	H	1.216423	-0.755671	-0.181322
H188	H	1.716423	-0.255671	0.318678
H189	H	1.155304	-0.793616	-0.182274
H190	H	1.655304	-0.293616	0.317726
H191	H	1.210167	-0.797201	-0.242146
H192	H	1.710167	-0.297201	0.257854
H193	H	1.118113	-0.715432	-0.216311
H194	H	1.618113	-0.215432	0.283689
H195	H	1.172985	-0.719005	-0.276185
H196	H	1.672985	-0.219005	0.223815
C197	C	1.187029	-0.887122	-0.289609
C198	C	1.687029	-0.387122	0.210391
C199	C	1.143704	-0.853104	-0.248080
C200	C	1.643704	-0.353104	0.251920
H201	H	1.218828	-0.905697	-0.260530
H202	H	1.718828	-0.405697	0.239470
H203	H	1.159192	-0.911150	-0.315115
H204	H	1.659192	-0.411150	0.184885
H205	H	1.212460	-0.867586	-0.321341
H206	H	1.712460	-0.367586	0.178659
H207	H	1.118269	-0.872640	-0.216351
H208	H	1.618269	-0.372640	0.283649
H209	H	1.171544	-0.829073	-0.222563
H210	H	1.671544	-0.329073	0.277437
C211	C	0.445638	-0.355827	-0.539261
C212	C	0.945638	0.144173	-0.039261
C213	C	0.405423	-0.382509	-0.492382
C214	C	0.905423	0.117491	0.007618
H215	H	0.469178	-0.380293	-0.570687
H216	H	0.969178	0.119707	-0.070687
H217	H	0.415956	-0.332948	-0.564914
H218	H	0.915956	0.167052	-0.064914
H219	H	0.479062	-0.336149	-0.513972
H220	H	0.979062	0.163851	-0.013972
H221	H	0.371996	-0.402183	-0.517670
H222	H	0.871996	0.097817	-0.017670
H223	H	0.435107	-0.405396	-0.466726
H224	H	0.935107	0.094604	0.033274
H225	H	0.262704	-0.367840	-0.473534
H226	H	0.762704	0.132160	0.026466
C227	C	0.889718	-0.373245	-0.851806
C228	C	1.389718	0.126755	-0.351806
C229	C	0.927076	-0.346639	-0.901090
C230	C	1.427076	0.153361	-0.401090
H231	H	0.858213	-0.395673	-0.875343
H232	H	1.358213	0.104327	-0.375343
H233	H	0.921458	-0.393395	-0.824551
H234	H	1.421458	0.106605	-0.324551
H235	H	0.864137	-0.348709	-0.822109
H236	H	1.364137	0.151291	-0.322109
H237	H	0.952661	-0.371175	-0.930784
H238	H	1.452661	0.128825	-0.430784
H239	H	0.895332	-0.326488	-0.928357
H240	H	1.395332	0.173512	-0.428357
H241	H	1.097185	-0.225523	-0.984732
H242	H	1.597185	0.274477	-0.484732
C243	C	0.852097	-0.400061	-0.679906
C244	C	1.352097	0.099939	-0.179906
C245	C	0.893498	-0.370577	-0.634009
C246	C	1.393498	0.129423	-0.134009
H247	H	0.822717	-0.420997	-0.653752
H248	H	1.322717	0.079003	-0.153752
H249	H	0.824081	-0.377256	-0.707319
H250	H	1.324081	0.122744	-0.207319
H251	H	0.881417	-0.421931	-0.709768
H252	H	1.381417	0.078069	-0.209768
H253	H	0.864178	-0.348704	-0.604150
H254	H	1.364178	0.151296	-0.104150
H255	H	0.921517	-0.393384	-0.606585
H256	H	1.421517	0.106616	-0.106585
H257	H	0.728252	-0.350100	-0.450727
H258	H	1.228252	0.149900	0.049273
H259	H	1.083618	-0.997325	-0.303171
H260	H	1.583618	-0.497325	0.196829
C261	C	1.034018	-0.207467	-0.836214
C262	C	1.534018	0.292533	-0.336214
C263	C	1.075322	-0.241087	-0.795806
C264	C	1.575322	0.258913	-0.295806
H265	H	1.063408	-0.186530	-0.862355
H266	H	1.563408	0.313470	-0.362355
H267	H	1.005934	-0.227467	-0.867348
H268	H	1.505934	0.272533	-0.367348
H269	H	1.004709	-0.185599	-0.806340
H270	H	1.504709	0.314401	-0.306340
H271	H	1.104628	-0.262958	-0.825681
H272	H	1.604628	0.237042	-0.325681
H273	H	1.103419	-0.221086	-0.764669
H274	H	1.603419	0.278914	-0.264669
C275	C	0.938125	-0.960345	-0.517739
C276	C	1.438125	-0.460345	-0.017739
C277	C	0.900554	-0.989109	-0.470998
C278	C	1.400554	-0.489109	0.029002
H279	H	0.906368	-0.941750	-0.546840
H280	H	1.406368	-0.441750	-0.046840
H281	H	0.965961	-0.936335	-0.492201
H282	H	1.465961	-0.436335	0.007799
H283	H	0.967516	-0.983445	-0.545883
H284	H	1.467516	-0.483445	-0.045883
H285	H	0.871166	-0.966008	-0.442849
H286	H	1.371166	-0.466008	0.057151
H287	H	0.872706	-1.013122	-0.496538
H288	H	1.372706	-0.513122	0.003462
H289	H	1.091528	-0.229538	-1.117562
H290	H	1.591528	0.270462	-0.617562
H291	H	0.913927	-1.095973	-0.458787
H292	H	1.413927	-0.595973	0.041213
H293	H	1.057043	-0.254095	-0.871348
H294	H	1.557043	0.245905	-0.371348
C295	C	1.087221	-1.157877	-0.300137
C296	C	1.587221	-0.657877	0.199863
C297	C	1.097053	-1.104206	-0.291037
C298	C	1.597053	-0.604206	0.208963
H299	H	1.119026	-1.176487	-0.271102
H300	H	1.619026	-0.676487	0.228898
H301	H	1.040595	-1.165008	-0.287771
H302	H	1.540595	-0.665008	0.212229
H303	H	1.095387	-1.168535	-0.347709
H304	H	1.595387	-0.668535	0.152291
H305	H	1.088882	-1.093548	-0.243466
H306	H	1.588882	-0.593548	0.256534
H307	H	1.143690	-1.097072	-0.303398
H308	H	1.643690	-0.597072	0.196602
C309	C	0.878119	-0.381465	-1.071152
C310	C	1.378119	0.118535	-0.571152
C311	C	0.915485	-0.354867	-1.120437
C312	C	1.415485	0.145133	-0.620437
H313	H	0.846611	-0.403891	-1.094687
H314	H	1.346611	0.096109	-0.594687
H315	H	0.909854	-0.401616	-1.043893
H316	H	1.409854	0.098384	-0.543893
H317	H	0.852542	-0.356925	-1.041458
H318	H	1.352542	0.143075	-0.541458
H319	H	0.941067	-0.379407	-1.150128
H320	H	1.441067	0.120593	-0.650128
H321	H	0.883745	-0.334715	-1.147708
H322	H	1.383745	0.165285	-0.647708
H323	H	0.269669	-0.241408	-0.311157
H324	H	0.769669	0.258592	0.188843
C325	C	0.559007	-0.324674	-0.499240
C326	C	1.059007	0.175326	0.000760
C327	C	0.518790	-0.351355	-0.452361
C328	C	1.018790	0.148645	0.047639
H329	H	0.582555	-0.349142	-0.530658
H330	H	1.082555	0.150858	-0.030658
H331	H	0.529326	-0.301802	-0.524902
H332	H	1.029326	0.198198	-0.024902
H333	H	0.592424	-0.304991	-0.473951
H334	H	1.092424	0.195009	0.026049
H335	H	0.485370	-0.371035	-0.477650
H336	H	0.985370	0.128965	0.022350
H337	H	0.548474	-0.374236	-0.426696
H338	H	1.048474	0.125764	0.073304
H339	H	0.934373	-0.341441	-0.977730
H340	H	1.434373	0.158559	-0.477730
C341	C	0.438901	-0.266827	-0.262653
C342	C	0.938901	0.233173	0.237347
C343	C	0.479123	-0.240149	-0.309529
C344	C	0.979123	0.259851	0.190471
H345	H	0.415355	-0.242359	-0.231234
H346	H	0.915355	0.257641	0.268766
H347	H	0.405488	-0.286508	-0.287939
H348	H	0.905488	0.213492	0.212061
H349	H	0.468584	-0.289703	-0.236985
H350	H	0.968584	0.210297	0.263015
H351	H	0.449439	-0.217276	-0.335200
H352	H	0.949439	0.282724	0.164800
H353	H	0.512539	-0.220460	-0.284239
H354	H	1.012539	0.279540	0.215761
C355	C	0.552289	-0.235674	-0.222624
C356	C	1.052289	0.264326	0.277376
C357	C	0.592503	-0.208995	-0.269508
C358	C	1.092503	0.291005	0.230492
H359	H	0.528754	-0.211205	-0.191197
H360	H	1.028754	0.288795	0.308803
H361	H	0.518869	-0.255351	-0.247904
H362	H	1.018869	0.244649	0.252096
H363	H	0.581977	-0.258552	-0.196965
H364	H	1.081977	0.241448	0.303035
H365	H	0.562815	-0.186119	-0.295170
H366	H	1.062815	0.313881	0.204830
H367	H	0.625927	-0.189309	-0.244225
H368	H	1.125927	0.310691	0.255775
C369	C	0.812677	-0.816819	-0.551512
C370	C	1.312677	-0.316819	-0.051512
C371	C	0.853735	-0.852422	-0.513880
C372	C	1.353735	-0.352422	-0.013880
H373	H	0.780948	-0.835265	-0.580628
H374	H	1.280948	-0.335265	-0.080628
H375	H	0.787174	-0.793742	-0.519796
H376	H	1.287174	-0.293742	-0.019796
H377	H	0.842065	-0.797312	-0.579643
H378	H	1.342065	-0.297312	-0.079643
H379	H	0.824347	-0.871927	-0.485746
H380	H	1.324347	-0.371927	0.014254
H381	H	0.879239	-0.875509	-0.545600
H382	H	1.379239	-0.375509	-0.045600
H383	H	0.402492	-0.245810	-0.316795
H384	H	0.902492	0.254190	0.183205
C385	C	0.859300	-0.565782	-0.508564
C386	C	1.359300	-0.065782	-0.008564
C387	C	0.900371	-0.601377	-0.470934
C388	C	1.400371	-0.101377	0.029066
H389	H	0.827575	-0.584233	-0.537678
H390	H	1.327575	-0.084233	-0.037678
H391	H	0.833793	-0.542707	-0.476848
H392	H	1.333793	-0.042707	0.023152
H393	H	0.888681	-0.546270	-0.536697
H394	H	1.388681	-0.046270	-0.036697
H395	H	0.870991	-0.620886	-0.442797
H396	H	1.370991	-0.120886	0.057203
H397	H	0.925880	-0.624461	-0.502654
H398	H	1.425880	-0.124461	-0.002654
H399	H	0.735217	-0.223665	-0.288350
H400	H	1.235217	0.276335	0.211650
H401	H	1.068644	-0.245869	-0.652007
H402	H	1.568644	0.254131	-0.152007
H403	H	0.913645	-0.494558	-0.458687
H404	H	1.413645	0.005442	0.041313
C405	C	1.137769	-0.522816	-0.253242
C406	C	1.637769	-0.022816	0.246758
C407	C	1.096696	-0.487218	-0.290868
C408	C	1.596696	0.012782	0.209132
H409	H	1.169507	-0.504366	-0.224141
H410	H	1.669507	-0.004366	0.275859
H411	H	1.108397	-0.542320	-0.225103
H412	H	1.608397	-0.042320	0.274897
H413	H	1.163269	-0.545897	-0.284967
H414	H	1.663269	-0.045897	0.215033
H415	H	1.071193	-0.464139	-0.259143
H416	H	1.571193	0.035861	0.240857
H417	H	1.126073	-0.467705	-0.319009
H418	H	1.626073	0.032295	0.180991
H419	H	1.083432	-0.594021	-0.303108
H420	H	1.583432	-0.094021	0.196892
H421	H	0.900174	-0.365793	-0.777828
H422	H	1.400174	0.134207	-0.277828
