data_functionalizedCrystal
_audit_creation_method	'MofGen! by Chris Wilmer'
_symmetry_space_group_name_H-M	'P1'
_symmetry_Int_Tables_number	1
_symmetry_cell_setting	triclinic
loop_
_symmetry_equiv_pos_as_xyz
  x,y,z
_cell_length_a	19.188930
_cell_length_b	14.971486
_cell_length_c	14.048226
_cell_angle_alpha	90.006640
_cell_angle_beta	90.020343
_cell_angle_gamma	83.379454
loop_
_atom_site_label
_atom_site_type_symbol
_atom_site_fract_x
_atom_site_fract_y
_atom_site_fract_z
O1	O	-0.926506	-0.111670	-0.079467
O2	O	-0.723243	-0.126703	-0.079402
O3	O	-0.830323	0.011042	-0.079430
O4	O	-0.819427	-0.249416	-0.079440
O5	O	-0.830310	0.011050	0.078892
O6	O	-0.723230	-0.126695	0.078919
O7	O	-0.926493	-0.111662	0.078854
Zn8	Zn	-0.824860	-0.119177	0.104024
Zn9	Zn	-0.824877	-0.119188	-0.104572
O10	O	-0.819414	-0.249408	0.078882
C11	C	-0.697224	-0.126212	-0.000233
C12	C	-0.619715	-0.124751	-0.000208
C13	C	-0.829829	0.044368	-0.000269
C14	C	-0.828369	0.143658	-0.000269
C15	C	-0.952512	-0.112153	-0.000317
C16	C	-1.030021	-0.113615	-0.000348
C17	C	-0.575051	-0.205575	-0.000226
C18	C	-0.502223	-0.204202	-0.000236
C19	C	-0.474062	-0.122000	-0.000248
C20	C	-0.518735	-0.041166	-0.000224
C21	C	-0.591562	-0.042541	-0.000204
N22	N	-0.365884	-0.059170	-0.054167
N23	N	-0.296701	-0.057869	-0.054188
C24	C	-0.254640	-0.117852	-0.000306
N25	N	-0.284374	-0.179199	0.053586
N26	N	-0.353562	-0.180502	0.053603
C27	C	-0.395094	-0.120500	-0.000269
C28	C	-0.131007	-0.197193	-0.000334
C29	C	-0.058178	-0.195817	-0.000338
C30	C	-0.074692	-0.032778	-0.000336
C31	C	-0.147519	-0.034157	-0.000322
C32	C	-0.175672	-0.116367	-0.000325
C33	C	-0.819907	-0.282734	-0.000281
C34	C	-0.821368	-0.382023	-0.000287
N35	N	-0.824853	-0.119170	0.246384
C36	C	-0.891275	0.201215	-0.000289
C37	C	-0.889899	0.294507	-0.000298
C38	C	-0.825615	0.330240	-0.000281
C39	C	-0.762704	0.272675	-0.000264
C40	C	-0.764081	0.179385	-0.000262
C41	C	-0.759839	0.467123	-0.000267
C42	C	-0.758461	0.560419	-0.000267
C43	C	-0.885656	0.582245	-0.000303
C44	C	-0.887033	0.488955	-0.000301
C45	C	-0.824122	0.431396	-0.000282
N46	N	-0.824889	-0.119189	-0.246932
C47	C	-0.872283	-0.058201	0.296190
C48	C	-0.872288	-0.058201	0.395848
C49	C	-0.824865	-0.119174	0.445698
C50	C	-0.777431	-0.180145	0.395885
C51	C	-0.777423	-0.180140	0.296229
C52	C	-0.777451	-0.180151	0.603599
C53	C	-0.777459	-0.180157	0.703262
C54	C	-0.872315	-0.058211	0.703218
C55	C	-0.872308	-0.058207	0.603562
C56	C	-0.824874	-0.119180	0.553756
H57	H	-0.465851	-0.270021	-0.000248
N58	N	-0.045933	0.051189	-0.000365
N59	N	-0.059617	0.105612	-0.067101
H60	H	-0.039303	0.164916	-0.067120
N61	N	-0.603805	-0.289550	-0.000196
N62	N	-0.642567	-0.308503	0.066559
H63	H	-0.662875	-0.367812	0.066585
H64	H	-0.936881	0.629114	-0.000321
N65	N	-0.728995	-0.242438	0.446800
N66	N	-0.730014	-0.325111	0.435652
H67	H	-0.695806	-0.369109	0.471608
N68	N	-0.728967	-0.242421	0.245365
N69	N	-0.686628	-0.296857	0.289882
H70	H	-0.652402	-0.340842	0.253962
N71	N	-0.729000	-0.242423	0.552708
N72	N	-0.685637	-0.214180	0.497130
H73	H	-0.651421	-0.258160	0.461186
H74	H	-0.153930	-0.264134	-0.000323
H75	H	-0.941123	0.341368	-0.000312
H76	H	-0.943622	0.172130	-0.000297
N77	N	-0.692793	0.596907	-0.000234
N78	N	-0.636628	0.545509	-0.000214
H79	H	-0.590248	0.571277	-0.000185
N80	N	-0.920712	0.004116	0.446713
N81	N	-0.898496	0.059577	0.502310
H82	H	-0.932690	0.103607	0.538225
N83	N	-0.489962	0.042794	-0.000227
N84	N	-0.424937	0.044012	-0.000245
H85	H	-0.404615	0.103311	-0.000241
H86	H	-0.021812	-0.261637	-0.000348
N87	N	-0.695585	0.408311	-0.000256
N88	N	-0.682172	0.353808	-0.066986
H89	H	-0.636795	0.312270	-0.066976
N90	N	-0.193137	0.048413	-0.000306
N91	N	-0.167987	0.121803	-0.000312
H92	H	-0.200204	0.180123	-0.000298
H93	H	-0.939378	0.459865	-0.000308
N94	N	-0.697047	0.309190	-0.000236
N95	N	-0.682088	0.358820	0.066507
H96	H	-0.635717	0.384610	0.066531
H97	H	-0.712856	0.132522	-0.000246
H98	H	-0.910902	-0.008554	0.255609
H99	H	-0.627928	0.023278	-0.000190
H100	H	-0.910926	-0.008563	0.562974
N101	N	-0.920742	0.004094	0.754103
N102	N	-0.920728	0.004106	0.843080
H103	H	-0.954921	0.048116	0.879023
H104	H	-0.738842	-0.229807	0.743845
