data_functionalizedCrystal
_audit_creation_method	'MofGen! by Chris Wilmer'
_symmetry_space_group_name_H-M	'P1'
_symmetry_Int_Tables_number	1
_symmetry_cell_setting	triclinic
loop_
_symmetry_equiv_pos_as_xyz
  x,y,z
_cell_length_a	11.026607
_cell_length_b	15.995350
_cell_length_c	9.482900
_cell_angle_alpha	99.336743
_cell_angle_beta	78.636152
_cell_angle_gamma	96.039196
loop_
_atom_site_label
_atom_site_type_symbol
_atom_site_fract_x
_atom_site_fract_y
_atom_site_fract_z
O1	O	1.629075	0.340363	-0.120882
O2	O	1.275769	0.300437	-0.120885
O3	O	1.462080	0.199968	-0.120882
O4	O	1.442765	0.440832	-0.120885
O5	O	1.424236	0.220481	0.120910
O6	O	1.237926	0.320950	0.120907
O7	O	1.591231	0.360875	0.120910
Cu8	Cu	1.411123	0.342785	0.142986
Cu9	Cu	1.455878	0.318527	-0.142961
O10	O	1.404921	0.461344	0.120907
C11	C	1.211637	0.303328	0.000010
C12	C	1.076923	0.281371	0.000009
C13	C	1.003118	0.341997	0.000007
C14	C	0.863884	0.319305	0.000005
C15	C	1.442360	0.178909	0.000011
C16	C	1.439967	0.085597	0.000003
C17	C	1.431369	-0.253446	0.000008
C18	C	1.298767	-0.226057	-0.000536
C19	C	1.301076	-0.128960	0.000009
C20	C	1.435634	-0.085243	0.000005
C21	C	1.479470	-0.104742	0.138078
C22	C	1.476118	-0.201871	0.138193
C23	C	1.521895	-0.225142	-0.136769
C24	C	1.522149	-0.128356	-0.138594
C25	C	1.438051	0.009819	0.000008
C26	C	1.428954	-0.348507	0.000014
C27	C	1.655364	0.357984	0.000012
C28	C	1.790080	0.379940	0.000004
C29	C	1.424641	0.482403	0.000011
C30	C	1.427036	0.575714	0.000009
N31	N	1.379654	0.359848	0.344106
N32	N	1.487357	0.301459	-0.344081
C33	C	1.446587	0.323554	0.416306
C34	C	1.420413	0.337759	0.583723
H35	H	1.265122	-0.116689	-0.098967
F36	F	1.486593	-0.272132	-0.273557
F37	F	1.587795	0.247266	0.574727
H38	H	1.490286	-0.116985	-0.240737
H39	H	1.343722	0.379346	0.645846
H40	H	1.572555	-0.218904	0.144455
H41	H	1.302967	0.401433	0.406234
F42	F	1.249700	-0.271705	-0.129957
H43	H	1.523265	0.281962	0.354179
F44	F	1.055251	0.431801	0.000011
H45	H	0.824003	0.250594	-0.000031
H46	H	0.829962	0.448650	0.000012
F47	F	1.607631	-0.066235	0.144790
H48	H	1.037037	0.212664	-0.000028
H49	H	1.230558	-0.245256	0.097926
H50	H	1.233768	-0.100491	0.099153
H51	H	1.412240	-0.218609	0.241408
F52	F	1.399036	-0.065210	0.272385
H53	H	1.619870	-0.242236	-0.137701
F54	F	1.652112	-0.089867	-0.149505
