data_functionalizedCrystal
_audit_creation_method	'MofGen! by Chris Wilmer'
_symmetry_space_group_name_H-M	'P1'
_symmetry_Int_Tables_number	1
_symmetry_cell_setting	triclinic
loop_
_symmetry_equiv_pos_as_xyz
  x,y,z
_cell_length_a	14.853567
_cell_length_b	14.853567
_cell_length_c	13.930277
_cell_angle_alpha	90.004245
_cell_angle_beta	89.999243
_cell_angle_gamma	96.365070
loop_
_atom_site_label
_atom_site_type_symbol
_atom_site_fract_x
_atom_site_fract_y
_atom_site_fract_z
O1	O	0.117704	-1.196368	-0.079756
O2	O	0.131725	-0.933909	-0.079772
O3	O	-0.006516	-1.072149	-0.079767
O4	O	0.255944	-1.058128	-0.079762
O5	O	-0.006519	-1.072130	0.079895
O6	O	0.131722	-0.933890	0.079890
O7	O	0.117701	-1.196349	0.079905
Zn8	Zn	0.124711	-1.065116	0.105247
Zn9	Zn	0.124715	-1.065142	-0.105114
O10	O	0.255941	-1.058109	0.079900
C11	C	0.131088	-0.900311	0.000057
C12	C	0.129184	-0.800227	0.000051
C13	C	-0.040106	-1.071504	0.000061
C14	C	-0.140189	-1.069601	0.000053
C15	C	0.118337	-1.229947	0.000075
C16	C	0.120241	-1.330031	0.000075
C17	C	-0.552723	-0.979435	0.000066
C18	C	-0.574004	-1.143668	0.000076
C19	C	-0.479971	-1.145458	0.000070
C20	C	-0.422309	-1.064235	0.000064
C21	C	-0.458680	-0.981223	0.000063
C22	C	-0.443591	-1.228469	0.000080
C23	C	-0.349552	-1.230262	0.000076
C24	C	-0.291889	-1.149039	0.000063
C25	C	-0.328266	-1.066023	0.000061
C26	C	-0.270604	-0.984800	0.000055
C27	C	-0.306979	-0.901783	0.000047
C28	C	-0.401017	-0.899999	0.000050
C29	C	-0.197851	-1.150823	0.000059
C30	C	-0.176561	-0.986588	0.000052
C31	C	0.289531	-1.058754	0.000070
C32	C	0.389615	-1.060657	0.000072
N33	N	0.124708	-1.065106	0.248814
C34	C	0.039019	-0.387693	0.000070
C35	C	0.203251	-0.366412	0.000073
C36	C	0.205042	-0.460446	0.000070
C37	C	0.123819	-0.518108	0.000066
C38	C	0.040806	-0.481736	0.000065
C39	C	0.288053	-0.496825	0.000061
C40	C	0.289846	-0.590864	0.000057
C41	C	0.208623	-0.648528	0.000060
C42	C	0.125607	-0.612150	0.000060
C43	C	0.044384	-0.669812	0.000056
C44	C	-0.038633	-0.633437	0.000063
C45	C	-0.040417	-0.539399	0.000067
C46	C	0.210407	-0.742565	0.000055
C47	C	0.046172	-0.763855	0.000050
N48	N	0.124711	-1.065160	-0.248680
C49	C	0.185904	-1.003926	0.701081
C50	C	0.063519	-1.126382	0.701055
C51	C	0.063516	-1.126371	0.600559
C52	C	0.124709	-1.065138	0.550319
C53	C	0.185904	-1.003916	0.600576
C54	C	0.002328	-1.187598	0.550295
C55	C	0.002323	-1.187591	0.449793
C56	C	0.063512	-1.126353	0.399552
C57	C	0.124710	-1.065127	0.449814
C58	C	0.185902	-1.003894	0.399575
C59	C	0.247096	-0.942664	0.449835
C60	C	0.247094	-0.942677	0.550334
C61	C	0.063515	-1.126339	0.299053
C62	C	0.185903	-1.003883	0.299070
H63	H	-0.129618	-0.920445	0.000043
H64	H	0.235731	-0.954016	0.258171
H65	H	-0.430643	-0.832411	0.000044
H66	H	0.357443	-0.620472	0.000051
F67	F	-0.591436	-0.891087	0.000049
H68	H	-0.047505	-1.237447	0.408877
H69	H	-0.028572	-0.358072	0.000080
F70	F	0.312225	-0.877502	0.396356
F71	F	0.312217	-0.877518	0.603828
F72	F	0.251025	-0.938760	0.754569
F73	F	-0.245601	-0.815343	0.000048
F74	F	-0.159141	-1.239169	0.000084
H75	H	0.354180	-0.449870	0.000054
F76	F	0.289689	-0.305043	0.000065
F77	F	0.298753	-0.781275	0.000040
F78	F	-0.635374	-1.230105	0.000096
H79	H	0.013702	-1.176240	0.741963
F80	F	-0.040279	-0.825217	0.000052
F81	F	-0.125073	-0.694815	0.000051
H82	H	-0.047489	-1.237457	0.591203
H83	H	-0.490546	-1.294596	0.000094
F84	F	-0.128762	-0.500679	0.000071
F85	F	-0.310847	-1.318615	0.000073
F86	F	-0.001603	-1.191506	0.245568
