data_functionalizedCrystal
_audit_creation_method	'MofGen! by Chris Wilmer'
_symmetry_space_group_name_H-M	'P1'
_symmetry_Int_Tables_number	1
_symmetry_cell_setting	triclinic
loop_
_symmetry_equiv_pos_as_xyz
  x,y,z
_cell_length_a	21.295418
_cell_length_b	13.897448
_cell_length_c	13.897441
_cell_angle_alpha	90.029627
_cell_angle_beta	89.961054
_cell_angle_gamma	89.966493
loop_
_atom_site_label
_atom_site_type_symbol
_atom_site_fract_x
_atom_site_fract_y
_atom_site_fract_z
Zn1	Zn	0.962382	0.383586	-0.545905
Zn2	Zn	1.212382	0.633586	-0.295905
Zn3	Zn	1.462382	0.883586	-0.045905
Zn4	Zn	1.712382	1.133586	0.204095
Zn5	Zn	0.962317	0.544905	-0.384606
Zn6	Zn	1.212317	0.794905	-0.134606
Zn7	Zn	1.462317	1.044905	0.115394
Zn8	Zn	1.712317	1.294905	0.365394
Zn9	Zn	0.857114	0.383670	-0.384566
Zn10	Zn	1.107114	0.633670	-0.134566
Zn11	Zn	1.357114	0.883670	0.115434
Zn12	Zn	1.607114	1.133670	0.365434
Zn13	Zn	0.857098	0.544885	-0.545802
Zn14	Zn	1.107098	0.794885	-0.295802
Zn15	Zn	1.357098	1.044885	-0.045802
Zn16	Zn	1.607098	1.294885	0.204198
O17	O	0.909728	0.464262	-0.465220
O18	O	1.159728	0.714262	-0.215220
O19	O	1.409728	0.964262	0.034780
O20	O	1.659728	1.214262	0.284780
O21	O	1.050463	0.404958	-0.524569
O22	O	1.300463	0.654958	-0.274569
O23	O	1.550463	0.904958	-0.024569
O24	O	1.800463	1.154958	0.225431
O25	O	0.948341	0.523560	-0.249619
O26	O	1.198341	0.773560	0.000381
O27	O	1.448341	1.023560	0.250381
O28	O	1.698341	1.273560	0.500381
O29	O	0.871112	0.248677	-0.405995
O30	O	1.121112	0.498677	-0.155995
O31	O	1.371112	0.748677	0.094005
O32	O	1.621112	0.998677	0.344005
O33	O	1.050415	0.523479	-0.406063
O34	O	1.300415	0.773479	-0.156063
O35	O	1.550415	1.023479	0.093937
O36	O	1.800415	1.273479	0.343937
O37	O	0.948452	0.248616	-0.524530
O38	O	1.198452	0.498616	-0.274530
O39	O	1.448452	0.748616	-0.024530
O40	O	1.698452	0.998616	0.225470
O41	O	0.871049	0.405102	-0.249590
O42	O	1.121049	0.655102	0.000410
O43	O	1.371049	0.905102	0.250410
O44	O	1.621049	1.155102	0.500410
O45	O	0.769023	0.405083	-0.405894
O46	O	1.019023	0.655083	-0.155894
O47	O	1.269023	0.905083	0.094106
O48	O	1.519023	1.155083	0.344106
O49	O	0.871085	0.523445	-0.680797
O50	O	1.121085	0.773445	-0.430797
O51	O	1.371085	1.023445	-0.180797
O52	O	1.621085	1.273445	0.069203
O53	O	0.769011	0.523527	-0.524353
O54	O	1.019011	0.773527	-0.274353
O55	O	1.269011	1.023527	-0.024353
O56	O	1.519011	1.273527	0.225647
O57	O	0.948437	0.404939	-0.680873
O58	O	1.198437	0.654939	-0.430873
O59	O	1.448437	0.904939	-0.180873
O60	O	1.698437	1.154939	0.069127
O61	O	0.948325	0.679884	-0.405963
O62	O	1.198325	0.929884	-0.155963
O63	O	1.448325	1.179884	0.094037
O64	O	1.698325	1.429884	0.344037
O65	O	0.871022	0.679870	-0.524393
O66	O	1.121022	0.929870	-0.274393
O67	O	1.371022	1.179870	-0.024393
O68	O	1.621022	1.429870	0.225607
C69	C	0.746176	0.464312	-0.465109
C70	C	0.996176	0.714312	-0.215109
C71	C	1.246176	0.964312	0.034891
C72	C	1.496176	1.214312	0.284891
C73	C	0.676208	0.464357	-0.465084
C74	C	0.926208	0.714357	-0.215084
C75	C	1.176208	0.964357	0.034916
C76	C	1.426208	1.214357	0.284916
C77	C	0.909682	0.714876	-0.465192
C78	C	1.159682	0.964876	-0.215192
C79	C	1.409682	1.214876	0.034808
C80	C	1.659682	1.464876	0.284808
C81	C	0.909720	0.822090	-0.465212
C82	C	1.159720	1.072090	-0.215212
C83	C	1.409720	1.322090	0.034788
C84	C	1.659720	1.572090	0.284788
C85	C	0.909766	0.464181	-0.716813
C86	C	1.159766	0.714181	-0.466813
C87	C	1.409766	0.964181	-0.216813
C88	C	1.659766	1.214181	0.033187
C89	C	0.909783	0.464146	-0.824027
C90	C	1.159783	0.714146	-0.574027
C91	C	1.409783	0.964146	-0.324027
C92	C	1.659783	1.214146	-0.074027
C93	C	0.643352	0.526113	-0.526674
C94	C	0.893352	0.776113	-0.276674
C95	C	1.143352	1.026113	-0.026674
C96	C	1.393352	1.276113	0.223326
C97	C	0.577609	0.526089	-0.526717
C98	C	0.827609	0.776089	-0.276717
C99	C	1.077609	1.026089	-0.026717
C100	C	1.327609	1.276089	0.223283
C101	C	0.544726	0.464320	-0.465154
C102	C	0.794726	0.714320	-0.215154
C103	C	1.044726	0.964320	0.034846
C104	C	1.294726	1.214320	0.284846
C105	C	0.577590	0.402552	-0.403560
C106	C	0.827590	0.652552	-0.153560
C107	C	1.077590	0.902552	0.096440
C108	C	1.327590	1.152552	0.346440
C109	C	0.643331	0.402571	-0.403525
C110	C	0.893331	0.652571	-0.153525
C111	C	1.143331	0.902571	0.096475
C112	C	1.393331	1.152571	0.346475
N113	N	0.441453	0.456790	-0.380787
N114	N	0.691453	0.706790	-0.130787
N115	N	0.941453	0.956790	0.119213
N116	N	1.191453	1.206790	0.369213
N117	N	0.379002	0.456778	-0.380822
N118	N	0.629002	0.706778	-0.130822
N119	N	0.879002	0.956778	0.119178
N120	N	1.129002	1.206778	0.369178
C121	C	0.346651	0.464258	-0.465256
C122	C	0.596651	0.714258	-0.215256
C123	C	0.846651	0.964258	0.034744
C124	C	1.096651	1.214258	0.284744
N125	N	0.379111	0.471770	-0.549654
N126	N	0.629111	0.721770	-0.299654
N127	N	0.879111	0.971770	-0.049654
N128	N	1.129111	1.221770	0.200346
N129	N	0.441568	0.471787	-0.549618
N130	N	0.691568	0.721787	-0.299618
N131	N	0.941568	0.971787	-0.049618
N132	N	1.191568	1.221787	0.200382
C133	C	0.473440	0.464292	-0.465185
C134	C	0.723440	0.714292	-0.215185
C135	C	0.973440	0.964292	0.034815
C136	C	1.223440	1.214292	0.284815
C137	C	0.242509	0.525991	-0.526898
C138	C	0.492509	0.775991	-0.276898
C139	C	0.742509	1.025991	-0.026898
C140	C	0.992509	1.275991	0.223102
C141	C	0.176765	0.525961	-0.526943
C142	C	0.426765	0.775961	-0.276943
C143	C	0.676765	1.025961	-0.026943
C144	C	0.926765	1.275961	0.223057
C145	C	0.176747	0.402429	-0.403777
C146	C	0.426747	0.652429	-0.153777
C147	C	0.676747	0.902429	0.096223
C148	C	0.926747	1.152429	0.346223
C149	C	0.242490	0.402455	-0.403740
C150	C	0.492490	0.652455	-0.153740
C151	C	0.742490	0.902455	0.096260
C152	C	0.992490	1.152455	0.346260
C153	C	0.275367	0.464241	-0.465300
C154	C	0.525367	0.714241	-0.215300
C155	C	0.775367	0.964241	0.034700
C156	C	1.025367	1.214241	0.284700
C157	C	1.073918	0.464211	-0.465332
C158	C	1.323918	0.714211	-0.215332
C159	C	1.573918	0.964211	0.034668
C160	C	1.823918	1.214211	0.284668
C161	C	1.143886	0.464190	-0.465380
C162	C	1.393886	0.714190	-0.215380
C163	C	1.643886	0.964190	0.034620
C164	C	1.893886	1.214190	0.284620
C165	C	0.909791	0.212669	-0.465269
C166	C	1.159791	0.462669	-0.215269
C167	C	1.409791	0.712669	0.034731
C168	C	1.659791	0.962669	0.284731
C169	C	0.909818	0.105455	-0.465290
C170	C	1.159818	0.355455	-0.215290
C171	C	1.409818	0.605455	0.034710
C172	C	1.659818	0.855455	0.284710
C173	C	0.909786	1.018385	-0.465273
C174	C	1.159786	1.268385	-0.215273
C175	C	1.409786	1.518385	0.034727
C176	C	1.659786	1.768385	0.284727
C177	C	0.909747	0.909153	-0.465242
C178	C	1.159747	1.159153	-0.215242
C179	C	1.409747	1.409153	0.034758
C180	C	1.659747	1.659153	0.284758
C181	C	0.909796	0.464119	-0.911097
C182	C	1.159796	0.714119	-0.661097
C183	C	1.409796	0.964119	-0.411097
C184	C	1.659796	1.214119	-0.161097
C185	C	0.909814	0.464075	-1.020330
C186	C	1.159814	0.714075	-0.770330
C187	C	1.409814	0.964075	-0.520330
C188	C	1.659814	1.214075	-0.270330
C189	C	0.909726	0.464273	-0.214606
C190	C	1.159726	0.714273	0.035394
C191	C	1.409726	0.964273	0.285394
C192	C	1.659726	1.214273	0.535394
C193	C	0.909831	0.464036	-0.107392
C194	C	1.159831	0.714036	0.142608
C195	C	1.409831	0.964036	0.392608
C196	C	1.659831	1.214036	0.642608
H197	H	0.550852	0.576377	-0.576874
H198	H	0.800852	0.826377	-0.326874
H199	H	1.050852	1.076377	-0.076874
H200	H	1.300852	1.326377	0.173126
H201	H	0.269279	0.576297	-0.577028
H202	H	0.519279	0.826297	-0.327028
H203	H	0.769279	1.076297	-0.077028
H204	H	1.019279	1.326297	0.172972
N205	N	0.676931	0.589234	-0.589546
N206	N	0.926931	0.839234	-0.339546
N207	N	1.176931	1.089234	-0.089546
N208	N	1.426931	1.339234	0.160454
N209	N	0.669536	0.678229	-0.582989
N210	N	0.919536	0.928229	-0.332989
N211	N	1.169536	1.178229	-0.082989
N212	N	1.419536	1.428229	0.167011
H213	H	0.693252	0.722810	-0.627393
H214	H	0.943252	0.972810	-0.377393
H215	H	1.193252	1.222810	-0.127393
H216	H	1.443252	1.472810	0.122607
N217	N	0.676906	0.339504	-0.340604
N218	N	0.926906	0.589504	-0.090604
N219	N	1.176906	0.839504	0.159396
N220	N	1.426906	1.089504	0.409396
N221	N	0.735603	0.339536	-0.340576
N222	N	0.985603	0.589536	-0.090576
N223	N	1.235603	0.839536	0.159424
N224	N	1.485603	1.089536	0.409424
H225	H	0.759317	0.294997	-0.296136
H226	H	1.009317	0.544997	-0.046136
H227	H	1.259317	0.794997	0.203864
H228	H	1.509317	1.044997	0.453864
N229	N	0.276065	0.339394	-0.340817
N230	N	0.526065	0.589394	-0.090817
N231	N	0.776065	0.839394	0.159183
N232	N	1.026065	1.089394	0.409183
N233	N	0.334762	0.339421	-0.340792
N234	N	0.584762	0.589421	-0.090792
N235	N	0.834762	0.839421	0.159208
N236	N	1.084762	1.089421	0.409208
H237	H	0.358476	0.294881	-0.296351
H238	H	0.608476	0.544881	-0.046351
H239	H	0.858476	0.794881	0.203649
H240	H	1.108476	1.044881	0.453649
H241	H	0.150015	0.576248	-0.577102
H242	H	0.400015	0.826248	-0.327102
H243	H	0.650015	1.076248	-0.077102
H244	H	0.900015	1.326248	0.172898
N245	N	0.143156	0.339327	-0.340907
N246	N	0.393156	0.589327	-0.090907
N247	N	0.643156	0.839327	0.159093
N248	N	0.893156	1.089327	0.409093
N249	N	0.084459	0.339312	-0.340951
N250	N	0.334459	0.589312	-0.090951
N251	N	0.584459	0.839312	0.159049
N252	N	0.834459	1.089312	0.409049
H253	H	0.060731	0.294740	-0.296553
H254	H	0.310731	0.544740	-0.046553
H255	H	0.560731	0.794740	0.203447
H256	H	0.810731	1.044740	0.453447
H257	H	0.550812	0.352258	-0.353436
H258	H	0.800812	0.602258	-0.103436
H259	H	1.050812	0.852258	0.146564
H260	H	1.300812	1.102258	0.396564
