data_functionalizedCrystal
_audit_creation_method	'MofGen! by Chris Wilmer'
_symmetry_space_group_name_H-M	'P1'
_symmetry_Int_Tables_number	1
_symmetry_cell_setting	triclinic
loop_
_symmetry_equiv_pos_as_xyz
  x,y,z
_cell_length_a	11.026607
_cell_length_b	10.540539
_cell_length_c	9.482900
_cell_angle_alpha	99.430988
_cell_angle_beta	78.636152
_cell_angle_gamma	96.555754
loop_
_atom_site_label
_atom_site_type_symbol
_atom_site_fract_x
_atom_site_fract_y
_atom_site_fract_z
O1	O	1.633556	0.517017	-0.120883
O2	O	1.279725	0.456370	-0.120886
O3	O	1.464712	0.303756	-0.120883
O4	O	1.448568	0.669632	-0.120886
O5	O	1.427139	0.334914	0.120909
O6	O	1.242151	0.487529	0.120905
O7	O	1.595982	0.548176	0.120909
Cu8	Cu	1.415636	0.520697	0.142985
Cu9	Cu	1.460071	0.483849	-0.142962
O10	O	1.410994	0.700790	0.120905
C11	C	1.215630	0.460761	0.000009
C12	C	1.080627	0.427408	0.000008
C13	C	1.007620	0.519500	0.000006
C14	C	0.868087	0.485031	0.000004
C15	C	1.444715	0.271766	0.000011
C16	C	1.441094	0.130024	0.000003
C17	C	1.302374	-0.083877	-0.000541
C18	C	1.305961	0.063616	0.000003
C19	C	1.484669	0.100404	0.138078
C20	C	1.480039	-0.047136	0.138195
C21	C	1.525516	-0.082485	-0.136768
C22	C	1.527044	0.064534	-0.138593
C23	C	1.660077	0.543785	0.000010
C24	C	1.795082	0.577136	0.000002
C25	C	1.430992	0.732779	0.000009
C26	C	1.434615	0.874520	0.000007
N27	N	1.384391	0.546616	0.344104
N28	N	1.491325	0.457922	-0.344082
C29	C	1.450847	0.491485	0.416305
C30	C	1.424860	0.513061	0.583722
H31	H	1.039837	0.323041	-0.000029
H32	H	0.827302	0.380657	-0.000032
H33	H	1.348716	0.576233	0.645845
N34	N	0.846246	0.708064	-0.000029
N35	N	0.838983	0.766831	-0.101959
H36	H	0.875120	0.859297	-0.101984
N37	N	1.261058	0.086988	-0.124165
N38	N	1.226841	-0.005773	-0.211831
H39	H	1.195119	0.010726	-0.299526
N40	N	1.586883	0.378726	0.577975
N41	N	1.696709	0.408108	0.594832
H42	H	1.764206	0.352193	0.539774
N43	N	1.652278	0.120607	-0.149071
N44	N	1.733654	0.080055	-0.253161
H45	H	1.822106	0.119654	-0.260553
H46	H	1.048415	0.623863	0.000013
H47	H	1.495334	0.081807	-0.240738
H48	H	1.415939	-0.072562	0.241408
N49	N	1.407951	0.158003	0.266985
N50	N	1.347064	0.088850	0.356081
H51	H	1.292875	0.129524	0.447121
N52	N	1.491077	-0.151015	-0.268061
N53	N	1.488803	-0.271374	-0.292426
H54	H	1.464472	-0.319778	-0.385147
N55	N	1.254725	-0.150425	-0.124769
N56	N	1.317666	-0.229298	-0.214351
H57	H	1.284016	-0.276304	-0.302095
N58	N	1.546288	0.412182	0.338288
N59	N	1.519812	0.313629	0.253340
H60	H	1.587198	0.257606	0.198208
H61	H	1.308252	0.609784	0.406233
H62	H	1.233910	-0.113041	0.097919
N63	N	1.600718	-0.079603	0.146109
N64	N	1.615735	-0.131236	0.250364
H65	H	1.700961	-0.154162	0.255965
N66	N	1.221990	0.117858	0.124381
N67	N	1.160557	0.046773	0.211060
H68	H	1.101250	0.085080	0.298910
H69	H	1.583109	0.145156	0.143213
N70	N	1.648141	-0.115043	-0.137905
N71	N	1.668658	-0.169674	-0.038529
H72	H	1.755258	-0.192667	-0.039316
