data_functionalizedCrystal
_audit_creation_method	'MofGen! by Chris Wilmer'
_symmetry_space_group_name_H-M	'P1'
_symmetry_Int_Tables_number	1
_symmetry_cell_setting	triclinic
loop_
_symmetry_equiv_pos_as_xyz
  x,y,z
_cell_length_a	10.654556
_cell_length_b	10.654551
_cell_length_c	9.130313
_cell_angle_alpha	89.998309
_cell_angle_beta	89.998135
_cell_angle_gamma	84.486449
loop_
_atom_site_label
_atom_site_type_symbol
_atom_site_fract_x
_atom_site_fract_y
_atom_site_fract_z
O1	O	1.667835	0.176437	-0.121734
O2	O	1.302358	0.193235	-0.121748
O3	O	1.493499	0.002097	-0.121741
O4	O	1.476694	0.367575	-0.121741
O5	O	1.493486	0.002091	0.121857
O6	O	1.302345	0.193229	0.121851
O7	O	1.667822	0.176431	0.121865
Cu8	Cu	1.485082	0.184830	0.144100
Cu9	Cu	1.485098	0.184836	-0.143984
O10	O	1.476681	0.367569	0.121858
C11	C	1.255554	0.191997	0.000049
C12	C	1.116111	0.188302	0.000044
C13	C	1.492258	-0.044704	0.000055
C14	C	1.488566	-0.184147	0.000045
C15	C	0.919572	0.183102	-0.132731
C16	C	1.050595	0.186566	-0.132740
C17	C	1.050599	0.186560	0.132845
C18	C	0.919580	0.183087	0.132853
C19	C	1.486841	-0.249656	-0.132739
C20	C	1.483361	-0.380677	-0.132732
C21	C	1.483336	-0.380668	0.132853
C22	C	1.486807	-0.249649	0.132845
C23	C	1.486861	-0.249663	-0.286072
C24	C	1.483380	-0.380683	-0.286066
C25	C	1.714627	0.177669	0.000064
C26	C	1.854070	0.181364	0.000060
C27	C	1.477922	0.414370	0.000059
C28	C	1.481614	0.553813	0.000059
N29	N	1.485081	0.184824	0.346723
N30	N	1.485110	0.184832	-0.346606
C31	C	1.569747	0.100224	0.423378
C32	C	1.569759	0.100224	0.576715
C33	C	1.400434	0.269436	0.576728
C34	C	1.400417	0.269428	0.423394
H35	H	0.866238	0.181698	-0.240859
H36	H	1.481902	-0.434016	0.240974
H37	H	1.638683	0.031333	0.360956
O38	O	1.114023	0.188310	-0.261864
C39	C	1.028105	0.186010	-0.379059
H40	H	0.929859	0.223227	-0.340120
H41	H	1.026463	0.085065	-0.419892
C42	C	1.189850	0.223876	-0.552344
C43	C	1.069185	0.269596	-0.504521
H44	H	1.215192	0.275430	-0.629738
H45	H	1.247737	0.225420	-0.473389
H46	H	1.188466	0.139755	-0.586361
H47	H	1.070574	0.353709	-0.470488
H48	H	1.011299	0.268068	-0.583474
H49	H	1.103954	0.187965	0.240960
O50	O	1.652060	0.018219	0.651338
C51	C	1.730145	0.086208	0.739988
H52	H	1.680974	0.184018	0.762963
H53	H	1.823028	0.095611	0.680877
C54	C	1.816783	-0.104483	0.857421
C55	C	1.756386	0.015645	0.885649
H56	H	1.832976	-0.148011	0.947269
H57	H	1.764180	-0.150290	0.797692
H58	H	1.894179	-0.096630	0.808158
H59	H	1.678985	0.007790	0.934893
H60	H	1.808978	0.061449	0.945389
H61	H	1.331505	0.338320	0.639169
H62	H	1.578462	-0.220093	-0.333643
H63	H	1.331466	0.338320	0.360978
O64	O	0.855917	0.181170	0.261818
C65	C	0.793389	0.070593	0.269743
H66	H	0.842156	-0.004242	0.194381
H67	H	0.691089	0.092506	0.234073
C68	C	0.737504	0.113207	0.520947
C69	C	0.797407	0.021290	0.428395
H70	H	0.739976	0.082797	0.618811
H71	H	0.779626	0.187708	0.515607
H72	H	0.652260	0.131460	0.491204
H73	H	0.882653	0.003051	0.458127
H74	H	0.755299	-0.053215	0.433743
O75	O	1.488309	-0.186136	0.261926
C76	C	1.378859	-0.204848	0.342684
H77	H	1.340138	-0.295547	0.304920
H78	H	1.304788	-0.121809	0.324273
C79	C	1.459224	-0.103546	0.553167
C80	C	1.411673	-0.214949	0.506793
H81	H	1.479462	-0.109771	0.654397
H82	H	1.532961	-0.090934	0.498758
H83	H	1.397490	-0.034358	0.537811
H84	H	1.473412	-0.284132	0.522131
H85	H	1.337947	-0.227573	0.561208
O86	O	1.374167	-0.416185	-0.342748
C87	C	1.377072	-0.548734	-0.339417
H88	H	1.446413	-0.587948	-0.251902
H89	H	1.408181	-0.588798	-0.450832
C90	C	1.159385	-0.538266	-0.410982
C91	C	1.244544	-0.586429	-0.303485
H92	H	1.077635	-0.561520	-0.388824
H93	H	1.157429	-0.448965	-0.413232
H94	H	1.185325	-0.571658	-0.503818
H95	H	1.218611	-0.553025	-0.210655
H96	H	1.246492	-0.675725	-0.301219
H97	H	1.570174	-0.426971	-0.344935
H98	H	1.400075	-0.203383	-0.344955
