data_functionalizedCrystal
_audit_creation_method	'MofGen! by Chris Wilmer'
_symmetry_space_group_name_H-M	'P1'
_symmetry_Int_Tables_number	1
_symmetry_cell_setting	triclinic
loop_
_symmetry_equiv_pos_as_xyz
  x,y,z
_cell_length_a	17.038272
_cell_length_b	10.723022
_cell_length_c	9.798715
_cell_angle_alpha	89.996846
_cell_angle_beta	89.996332
_cell_angle_gamma	87.789391
loop_
_atom_site_label
_atom_site_type_symbol
_atom_site_fract_x
_atom_site_fract_y
_atom_site_fract_z
O1	O	0.109715	1.667337	-0.113484
O2	O	0.120218	1.305156	-0.113489
O3	O	0.001139	1.484094	-0.113475
O4	O	0.228794	1.488399	-0.113497
O5	O	0.001138	1.484080	0.113507
O6	O	0.120217	1.305142	0.113494
O7	O	0.109714	1.667323	0.113498
Zn8	Zn	0.114965	1.486231	0.149534
Zn9	Zn	0.114966	1.486248	-0.149525
O10	O	0.228793	1.488385	0.113485
C11	C	0.119454	1.258579	0.000002
C12	C	0.117167	1.119813	0.000000
C13	C	0.181433	0.907579	-0.000008
C14	C	0.183798	1.051001	-0.000007
C15	C	-0.028011	1.480171	0.000015
C16	C	-0.114869	1.468489	0.000015
C17	C	-0.164390	1.575745	0.000018
C18	C	-0.246002	1.564761	0.000005
C19	C	-0.278090	1.446520	-0.000002
C20	C	-0.228561	1.339257	-0.000009
C21	C	-0.146952	1.350242	-0.000005
C22	C	-0.524062	1.407711	-0.000021
C23	C	-0.605678	1.396734	-0.000020
C24	C	-0.623112	1.622240	-0.000009
C25	C	-0.541500	1.633215	0.000002
C26	C	-0.491979	1.525951	-0.000012
C27	C	-0.361509	1.435290	-0.000011
C28	C	-0.408562	1.537182	-0.000013
C29	C	0.257943	1.492308	-0.000009
C30	C	0.344800	1.503990	-0.000017
C31	C	0.110478	1.713900	0.000005
C32	C	0.112764	1.852666	-0.000003
N33	N	0.114964	1.486228	0.353634
N34	N	0.114962	1.486261	-0.353624
C35	C	0.064858	1.561546	0.578571
C36	C	0.064859	1.561530	0.421408
H37	H	0.242591	1.098251	-0.000004
H38	H	0.238472	0.848413	-0.000023
O39	O	0.044660	0.923107	0.000184
C40	C	0.000811	0.895809	0.117761
H41	H	0.019414	0.799027	0.156955
H42	H	0.011947	0.968147	0.200076
C43	C	-0.110109	1.017878	0.033920
C44	C	-0.087265	0.899004	0.082051
H45	H	-0.164439	1.019854	0.011896
H46	H	-0.080567	1.036273	-0.045292
H47	H	-0.100822	1.078147	0.102523
H48	H	-0.096542	0.838740	0.013442
H49	H	-0.116811	0.880599	0.161251
O50	O	-0.476077	1.303392	0.000044
C51	C	-0.521902	1.196680	0.000015
H52	H	-0.582634	1.221911	0.042981
H53	H	-0.527896	1.160843	-0.108878
C54	C	-0.407231	1.063449	0.036266
C55	C	-0.481822	1.094436	0.089049
H56	H	-0.382507	1.000377	0.091181
H57	H	-0.376357	1.135342	0.036281
H58	H	-0.412236	1.033592	-0.054477
H59	H	-0.476815	1.124307	0.179784
H60	H	-0.512694	1.022545	0.089052
O61	O	-0.294189	1.668855	0.000188
C62	C	-0.341915	1.669252	0.117752
H63	H	-0.346571	1.569709	0.156941
H64	H	-0.314776	1.729122	0.200077
C65	C	-0.418701	1.845535	0.033898
C66	C	-0.424425	1.723274	0.082023
H67	H	-0.469596	1.878864	0.011863
H68	H	-0.386546	1.845272	-0.045305
H69	H	-0.396082	1.895412	0.102510
H70	H	-0.447034	1.673397	0.013406
H71	H	-0.456586	1.723530	0.161215
H72	H	-0.106631	1.262903	-0.000008
H73	H	0.058371	1.072571	-0.000031
O74	O	-0.377302	1.651970	-0.000189
C75	C	-0.330628	1.665089	-0.117760
H76	H	-0.310839	1.568842	-0.156963
H77	H	-0.366376	1.716515	-0.200072
C78	C	-0.282392	1.858175	-0.033893
C79	C	-0.258081	1.739963	-0.082036
H80	H	-0.237644	1.904366	-0.011860
H81	H	-0.313840	1.849340	0.045315
H82	H	-0.312183	1.901014	-0.102494
H83	H	-0.228300	1.697121	-0.013429
H84	H	-0.226627	1.748793	-0.161232
H85	H	-0.138271	1.672029	0.000031
H86	H	0.157860	1.421764	0.411934
H87	H	0.157861	1.421797	0.588075
O88	O	0.013569	1.638387	0.647968
C89	C	-0.064000	1.609831	0.613192
H90	H	-0.064224	1.561797	0.509415
H91	H	-0.088485	1.545035	0.693591
C92	C	-0.115079	1.790047	0.734244
C93	C	-0.115355	1.731060	0.606778
H94	H	-0.146759	1.864825	0.730293
H95	H	-0.062820	1.809284	0.757678
H96	H	-0.135482	1.736038	0.801230
H97	H	-0.094944	1.785063	0.539798
H98	H	-0.167613	1.711835	0.583332
H99	H	-0.515381	1.729498	0.000007
H100	H	-0.663441	1.709567	-0.000000
H101	H	0.021960	1.625980	0.363100
H102	H	-0.631800	1.300444	-0.000003
H103	H	-0.254694	1.242982	-0.000022
H104	H	-0.387644	1.339018	-0.000013
