data_functionalizedCrystal
_audit_creation_method	'MofGen! by Chris Wilmer'
_symmetry_space_group_name_H-M	'P1'
_symmetry_Int_Tables_number	1
_symmetry_cell_setting	triclinic
loop_
_symmetry_equiv_pos_as_xyz
  x,y,z
_cell_length_a	21.295418
_cell_length_b	16.120484
_cell_length_c	16.120297
_cell_angle_alpha	95.614431
_cell_angle_beta	87.141709
_cell_angle_gamma	87.057675
loop_
_atom_site_label
_atom_site_type_symbol
_atom_site_fract_x
_atom_site_fract_y
_atom_site_fract_z
Zn1	Zn	0.929946	0.356428	0.489852
Zn2	Zn	1.429946	0.856428	0.989852
Zn3	Zn	0.929866	0.489118	0.357163
Zn4	Zn	1.429866	0.989118	0.857163
Zn5	Zn	0.830299	0.349398	0.350056
Zn6	Zn	1.330299	0.849398	0.850056
Zn7	Zn	0.819029	0.496197	0.496838
Zn8	Zn	1.319029	0.996197	0.996838
O9	O	0.877285	0.422785	0.423477
O10	O	1.377285	0.922785	0.923477
O11	O	1.018023	0.374009	0.472302
O12	O	1.518023	0.874009	0.972302
O13	O	0.921342	0.464679	0.239260
O14	O	1.421342	0.964679	0.739260
O15	O	0.848268	0.233364	0.362702
O16	O	1.348268	0.733364	0.862702
O17	O	1.017965	0.471496	0.374815
O18	O	1.517965	0.971496	0.874815
O19	O	0.921478	0.238529	0.465410
O20	O	1.421478	0.738529	0.965410
O21	O	0.848191	0.362028	0.234039
O22	O	1.348191	0.862028	0.734039
O23	O	0.740716	0.368892	0.369476
O24	O	1.240716	0.868892	0.869476
O25	O	0.829059	0.483561	0.612871
O26	O	1.329059	0.983561	1.112871
O27	O	0.732436	0.476745	0.477316
O28	O	1.232436	0.976745	0.977316
O29	O	0.910549	0.380873	0.607739
O30	O	1.410549	0.880873	1.107739
O31	O	0.910414	0.607024	0.381589
O32	O	1.410414	1.107024	0.881589
O33	O	0.828982	0.612225	0.484207
O34	O	1.328982	1.112225	0.984207
C35	C	0.713736	0.422824	0.423383
C36	C	1.213736	0.922824	0.923383
C37	C	0.643767	0.422862	0.423364
C38	C	1.143767	0.922862	0.923364
C39	C	0.868482	0.639953	0.434445
C40	C	1.368482	1.139953	0.934445
C41	C	0.864773	0.732860	0.439166
C42	C	1.364773	1.232860	0.939166
C43	C	0.868555	0.433791	0.641479
C44	C	1.368555	0.933791	1.141479
C45	C	0.864835	0.438481	0.734379
C46	C	1.364835	0.938481	1.234379
C47	C	0.606605	0.479088	0.479440
C48	C	1.106605	0.979088	0.979440
C49	C	0.540862	0.479069	0.479476
C50	C	1.040862	0.979069	0.979476
C51	C	0.512283	0.422833	0.423422
C52	C	1.012283	0.922833	0.923422
C53	C	0.549453	0.366597	0.367342
C54	C	1.049453	0.866597	0.867342
C55	C	0.615195	0.366612	0.367313
C56	C	1.115195	0.866612	0.867313
N57	N	0.412215	0.412594	0.349988
N58	N	0.912215	0.912594	0.849988
N59	N	0.349763	0.412585	0.350018
N60	N	0.849763	0.912585	0.850018
C61	C	0.314207	0.422784	0.423508
C62	C	0.814207	0.922784	0.923508
N63	N	0.343462	0.433009	0.496969
N64	N	0.843462	0.933009	0.996969
N65	N	0.405920	0.433022	0.496938
N66	N	0.905920	0.933022	0.996938
C67	C	0.440998	0.422810	0.423448
C68	C	0.940998	0.922810	0.923448
C69	C	0.205759	0.478992	0.479628
C70	C	0.705759	0.978992	0.979628
C71	C	0.140015	0.478968	0.479666
C72	C	0.640015	0.978968	0.979666
C73	C	0.148607	0.366500	0.367524
C74	C	0.648607	0.866500	0.867524
C75	C	0.214350	0.366520	0.367494
C76	C	0.714350	0.866520	0.867494
C77	C	0.242922	0.422771	0.423545
C78	C	0.742922	0.922771	0.923545
C79	C	1.041473	0.422747	0.423572
C80	C	1.541473	0.922747	0.923572
C81	C	1.111440	0.422730	0.423612
C82	C	1.611440	0.922730	0.923612
C83	C	0.886139	0.204770	0.412484
C84	C	1.386139	0.704770	0.912484
C85	C	0.889912	0.111865	0.407800
C86	C	1.389912	0.611865	0.907800
C87	C	0.858003	0.902963	0.447801
C88	C	1.358003	1.402963	0.947801
C89	C	0.896679	0.941768	0.399167
C90	C	1.396679	1.441768	0.899167
C91	C	0.892912	1.036419	0.403972
C92	C	1.392912	1.536419	0.903972
C93	C	0.861769	0.808303	0.442997
C94	C	1.361769	1.308303	0.942997
C95	C	0.886020	0.411762	0.206320
C96	C	1.386020	0.911762	0.706320
C97	C	0.889871	0.406837	0.113409
C98	C	1.389871	0.906837	0.613409
C99	C	0.858021	0.447025	0.904466
C100	C	1.358021	0.947025	1.404466
C101	C	0.896684	0.398295	0.943327
C102	C	1.396684	0.898295	1.443327
C103	C	0.892892	0.403049	1.037970
C104	C	1.392892	0.903049	1.537970
C105	C	0.861811	0.442272	0.809815
C106	C	1.361811	0.942272	1.309815
H107	H	0.510599	0.524854	0.525143
H108	H	1.010599	1.024854	1.025143
C109	C	0.810031	0.507443	0.954723
C110	C	1.310031	1.007443	1.454723
C111	C	0.775094	0.551461	0.900272
C112	C	1.275094	1.051461	1.400272
C113	C	0.730877	0.607118	0.946548
C114	C	1.230877	1.107118	1.446548
H115	H	0.831227	0.545602	0.990641
H116	H	1.331227	1.045602	1.490641
H117	H	0.782530	0.477173	0.987124
H118	H	1.282530	0.977173	1.487124
H119	H	0.802591	0.581729	0.867884
H120	H	1.302591	1.081729	1.367884
H121	H	0.753884	0.513324	0.864352
H122	H	1.253884	1.013324	1.364352
H123	H	0.703376	0.576848	0.978950
H124	H	1.203376	1.076848	1.478950
H125	H	0.752079	0.645272	0.982465
H126	H	1.252079	1.145272	1.482465
H127	H	0.707163	0.636986	0.909610
H128	H	1.207163	1.136986	1.409610
C129	C	0.810101	0.953586	0.508038
C130	C	1.310101	1.453586	1.008038
C131	C	0.815828	1.038759	0.500859
C132	C	1.315828	1.538759	1.000859
C133	C	0.771704	1.085428	0.556324
C134	C	1.271704	1.585428	1.056324
H135	H	0.817535	0.942234	0.563542
H136	H	1.317535	1.442234	1.063542
H137	H	0.768845	0.938829	0.495017
H138	H	1.268845	1.438829	0.995017
H139	H	0.857075	1.053511	0.513886
H140	H	1.357075	1.553511	1.013886
H141	H	0.808388	1.050137	0.445368
H142	H	1.308388	1.550137	0.945368
H143	H	0.730448	1.070671	0.543303
H144	H	1.230448	1.570671	1.043303
H145	H	0.779143	1.074069	0.611824
H146	H	1.279143	1.574069	1.111824
H147	H	0.775581	1.143222	0.551455
H148	H	1.275581	1.643222	1.051455
C149	C	0.236904	0.540018	0.540395
C150	C	0.736904	1.040018	1.040395
C151	C	0.302432	0.528018	0.528348
C152	C	0.802432	1.028018	1.028348
C153	C	0.331141	0.584227	0.584303
C154	C	0.831141	1.084227	1.084303
H155	H	0.224485	0.530760	0.596000
H156	H	0.724485	1.030760	1.096000
H157	H	0.224353	0.595553	0.530905
H158	H	0.724353	1.095553	1.030905
H159	H	0.314978	0.472496	0.537844
H160	H	0.814978	0.972496	1.037844
H161	H	0.314869	0.537283	0.472754
H162	H	0.814869	1.037283	0.972754
H163	H	0.318590	0.639761	0.574814
H164	H	0.818590	1.139761	1.074814
H165	H	0.318718	0.574964	0.639905
H166	H	0.818718	1.074964	1.139905
H167	H	0.375605	0.576097	0.576132
H168	H	0.875605	1.076097	1.076132
H169	H	0.109758	0.524752	0.525335
H170	H	0.609758	1.024752	1.025335
C171	C	0.944588	0.337977	0.892775
C172	C	1.444588	0.837977	1.392775
C173	C	0.938882	0.345205	0.807594
C174	C	1.438882	0.845205	1.307594
C175	C	0.983001	0.289659	0.760997
C176	C	1.483001	0.789659	1.260997
H177	H	0.937135	0.282485	0.904087
H178	H	1.437135	0.782485	1.404087
H179	H	0.985845	0.350898	0.907626
H180	H	1.485845	0.850898	1.407626
H181	H	0.897635	0.332279	0.792748
H182	H	1.397635	0.832279	1.292748
H183	H	0.946342	0.400685	0.796256
H184	H	1.446342	0.900685	1.296256
H185	H	1.024258	0.302581	0.775848
H186	H	1.524258	0.802581	1.275848
H187	H	0.975544	0.234171	0.772317
H188	H	1.475544	0.734171	1.272317
H189	H	0.979140	0.294562	0.703197
H190	H	1.479140	0.794562	1.203197
C191	C	0.637662	0.540243	0.540168
C192	C	1.137662	1.040243	1.040168
C193	C	0.675078	0.591373	0.495447
C194	C	1.175078	1.091373	0.995447
C195	C	0.703693	0.647722	0.551364
C196	C	1.203693	1.147722	1.051364
H197	H	0.663219	0.510266	0.575034
H198	H	1.163219	1.010266	1.075034
H199	H	0.606130	0.573775	0.573562
H200	H	1.106130	1.073775	1.073562
H201	H	0.706605	0.557845	0.462068
H202	H	1.206605	1.057845	0.962068
H203	H	0.649535	0.621368	0.460584
H204	H	1.149535	1.121368	0.960584
H205	H	0.672161	0.681254	0.584757
H206	H	1.172161	1.181254	1.084757
H207	H	0.729247	0.617738	0.586227
H208	H	1.229247	1.117738	1.086227
H209	H	0.729078	0.682426	0.521028
H210	H	1.229078	1.182426	1.021028
H211	H	0.932619	0.903905	0.353921
H212	H	1.432619	1.403905	0.853921
H213	H	0.645452	0.320823	0.321648
H214	H	1.145452	0.820823	0.821648
H215	H	0.125339	0.320707	0.321888
H216	H	0.625339	0.820707	0.821888
C217	C	0.518309	0.305638	0.306513
C218	C	1.018309	0.805638	0.806513
C219	C	0.452781	0.317677	0.318522
C220	C	0.952781	0.817677	0.818522
C221	C	0.424072	0.261542	0.262493
C222	C	0.924072	0.761542	0.762493
H223	H	0.530818	0.250082	0.315938
H224	H	1.030818	0.750082	0.815938
H225	H	0.530770	0.314961	0.250929
H226	H	1.030770	0.814961	0.750929
H227	H	0.440325	0.308347	0.374093
H228	H	0.940325	0.808347	0.874093
H229	H	0.440254	0.373222	0.309090
H230	H	0.940254	0.873222	0.809090
H231	H	0.436532	0.270865	0.206908
H232	H	0.936532	0.770865	0.706908
H233	H	0.436585	0.205989	0.271922
H234	H	0.936585	0.705989	0.771922
H235	H	0.379608	0.269708	0.270627
H236	H	0.879608	0.769708	0.770627
H237	H	0.244608	0.320739	0.321827
H238	H	0.744608	0.820739	0.821827
