data_functionalizedCrystal
_audit_creation_method	'MofGen! by Chris Wilmer'
_symmetry_space_group_name_H-M	'P1'
_symmetry_Int_Tables_number	1
_symmetry_cell_setting	triclinic
loop_
_symmetry_equiv_pos_as_xyz
  x,y,z
_cell_length_a	14.908571
_cell_length_b	14.908520
_cell_length_c	14.908858
_cell_angle_alpha	90.221996
_cell_angle_beta	90.204903
_cell_angle_gamma	90.205961
loop_
_atom_site_label
_atom_site_type_symbol
_atom_site_fract_x
_atom_site_fract_y
_atom_site_fract_z
Zn1	Zn	1.320955	-0.400317	0.609274
Zn2	Zn	1.319852	-0.559311	0.467520
Zn3	Zn	1.179202	-0.401335	0.450323
Zn4	Zn	1.161939	-0.542004	0.608238
O5	O	1.245487	-0.475742	0.533839
O6	O	1.446220	-0.428225	0.598100
O7	O	1.307957	-0.546024	0.339826
O8	O	1.205692	-0.275790	0.464644
O9	O	1.445410	-0.545037	0.493954
O10	O	1.309837	-0.275042	0.581425
O11	O	1.204622	-0.429960	0.327192
O12	O	1.051500	-0.413178	0.463640
O13	O	1.176270	-0.515540	0.733788
O14	O	1.038818	-0.516527	0.579660
O15	O	1.293099	-0.411443	0.734549
O16	O	1.291218	-0.682425	0.492950
O17	O	1.175200	-0.669710	0.596335
C18	C	1.012641	-0.463085	0.519672
C19	C	0.913026	-0.457691	0.513634
C20	C	0.712679	-0.555360	0.622954
C21	C	0.619081	-0.550294	0.617284
C22	C	0.632232	-0.442490	0.496628
C23	C	0.725830	-0.447556	0.502298
C24	C	0.766049	-0.503994	0.565462
C25	C	0.859648	-0.509064	0.571128
C26	C	0.872798	-0.401255	0.450477
C27	C	0.779200	-0.396190	0.444807
C28	C	1.231240	-0.708585	0.546417
C29	C	1.225225	-0.808199	0.551833
C30	C	1.334845	-1.008565	0.454456
C31	C	1.329197	-1.102161	0.459542
C32	C	1.208285	-1.088991	0.567096
C33	C	1.213934	-0.995394	0.562010
C34	C	1.277215	-0.955185	0.505687
C35	C	1.282858	-0.861586	0.500597
C36	C	1.161951	-0.848417	0.608155
C37	C	1.156303	-0.942014	0.613241
C38	C	1.479242	-0.488448	0.548061
C39	C	1.578854	-0.493862	0.554122
C40	C	1.232882	-0.461447	0.767595
C41	C	1.227510	-0.455356	0.867209
C42	C	1.259813	-0.241989	0.521232
C43	C	1.265918	-0.142378	0.515860
C44	C	1.258099	-0.489919	0.300991
C45	C	1.263659	-0.495767	0.201375
C46	C	1.166145	-0.386345	1.001031
C47	C	1.171188	-0.392066	0.907435
C48	C	1.278794	-0.512927	0.920586
C49	C	1.273751	-0.507205	1.014181
C50	C	1.217423	-0.443913	1.054400
C51	C	1.212375	-0.438196	1.147998
C52	C	1.319985	-0.559052	1.161147
C53	C	1.325029	-0.564773	1.067551
H54	H	0.746440	-0.350237	0.393383
H55	H	1.156771	-1.121746	0.612958
H56	H	0.916263	-0.359431	0.403661
H57	H	1.104784	-0.974766	0.659100
H58	H	1.370892	-0.616302	1.034792
H59	H	1.334382	-0.828849	0.454733
H60	H	1.115022	-0.804944	0.649868
H61	H	1.361744	-0.605924	1.204611
H62	H	1.324660	-0.564450	0.887823
H63	H	1.376127	-1.145620	0.417826
H64	H	0.892394	-0.555020	0.622558
H65	H	1.386365	-0.975826	0.408589
H66	H	1.166509	-0.386661	1.180743
H67	H	1.120277	-0.334813	1.033778
H68	H	1.129434	-0.345186	0.863984
H69	H	0.745426	-0.601319	0.674380
H70	H	0.575630	-0.592120	0.664101
H71	H	0.599469	-0.396536	0.445208
