data_functionalizedCrystal
_audit_creation_method	'MofGen! by Chris Wilmer'
_symmetry_space_group_name_H-M	'P1'
_symmetry_Int_Tables_number	1
_symmetry_cell_setting	triclinic
loop_
_symmetry_equiv_pos_as_xyz
  x,y,z
_cell_length_a	16.959454
_cell_length_b	12.759395
_cell_length_c	12.759395
_cell_angle_alpha	89.994877
_cell_angle_beta	90.008408
_cell_angle_gamma	89.978388
loop_
_atom_site_label
_atom_site_type_symbol
_atom_site_fract_x
_atom_site_fract_y
_atom_site_fract_z
Zn1	Zn	-0.314777	-1.606070	0.594010
Zn2	Zn	-0.446927	-1.605991	0.418333
Zn3	Zn	-0.314770	-1.430415	0.418347
Zn4	Zn	-0.446920	-1.430344	0.593972
O5	O	-0.380848	-1.518205	0.506165
O6	O	-0.332312	-1.753081	0.570716
O7	O	-0.429395	-1.582698	0.271313
O8	O	-0.204160	-1.453779	0.441671
O9	O	-0.429402	-1.753023	0.441647
O10	O	-0.204165	-1.582832	0.570730
O11	O	-0.332300	-1.453703	0.271324
O12	O	-0.332294	-1.283385	0.441634
O13	O	-0.429392	-1.453657	0.740998
O14	O	-0.429385	-1.283332	0.570665
O15	O	-0.332306	-1.582763	0.741026
O16	O	-0.557537	-1.582628	0.441610
O17	O	-0.557532	-1.453581	0.570651
C18	C	-0.586215	-1.518117	0.506147
C19	C	-0.674071	-1.518175	0.506175
C20	C	-0.380839	-1.245238	0.506147
C21	C	-0.380854	-1.128461	0.506164
C22	C	-0.380849	-1.518211	0.780199
C23	C	-0.380849	-1.518213	0.896975
C24	C	-1.045574	-1.451108	0.573350
C25	C	-1.045519	-1.585595	0.439088
C26	C	-0.962973	-1.585558	0.439078
C27	C	-0.921724	-1.518294	0.506204
C28	C	-0.963021	-1.451067	0.573340
C29	C	-0.921670	-1.652777	0.371936
C30	C	-0.839119	-1.652742	0.371923
C31	C	-0.797869	-1.585483	0.439055
C32	C	-0.839171	-1.518253	0.506194
C33	C	-0.797921	-1.450989	0.573320
C34	C	-0.839222	-1.383764	0.640466
C35	C	-0.921770	-1.383807	0.640472
C36	C	-0.715320	-1.585440	0.439049
C37	C	-0.715368	-1.450948	0.573311
C38	C	-0.174680	-1.518322	0.506206
C39	C	-0.086823	-1.518372	0.506224
C40	C	-0.380859	-1.792238	0.506184
C41	C	-0.380863	-1.909015	0.506192
C42	C	-0.482118	-1.128445	0.640307
C43	C	-0.532756	-1.073576	0.707381
C44	C	-0.532765	-0.963855	0.707394
C45	C	-0.482130	-0.908999	0.640327
C46	C	-0.431491	-0.963868	0.573253
C47	C	-0.431489	-1.073592	0.573245
C48	C	-0.330225	-0.963884	0.439118
C49	C	-0.330218	-1.073606	0.439098
C50	C	-0.279589	-0.909029	0.372052
C51	C	-0.228954	-0.963897	0.304970
C52	C	-0.228947	-1.073626	0.304959
C53	C	-0.279580	-1.128474	0.372024
C54	C	-0.279761	-1.652659	0.897024
C55	C	-0.229220	-1.719882	0.951910
C56	C	-0.229222	-1.719879	1.061631
C57	C	-0.279769	-1.652642	1.116470
C58	C	-0.330310	-1.585419	1.061585
C59	C	-0.330303	-1.585433	0.951861
C60	C	-0.431393	-1.450969	1.061536
C61	C	-0.431396	-1.450977	0.951814
C62	C	-0.481940	-1.383733	1.116375
C63	C	-0.532485	-1.316513	1.061489
C64	C	-0.532482	-1.316521	0.951761
C65	C	-0.481936	-1.383754	0.896929
C66	C	-0.380862	-1.518192	1.233198
C67	C	-0.380853	-1.518192	1.116421
H68	H	-0.681788	-1.396177	0.627977
H69	H	-0.681697	-1.640168	0.384375
H70	H	-0.482121	-1.217786	0.640295
H71	H	-0.805627	-1.328992	0.695116
H72	H	-0.573981	-1.118251	0.761987
H73	H	-0.573632	-1.261770	1.106148
H74	H	-0.955404	-1.329075	0.695137
H75	H	-1.079205	-1.396378	0.628021
H76	H	-0.279597	-0.819687	0.372071
H77	H	-0.573629	-1.261768	0.907080
H78	H	-0.481935	-1.383730	1.205716
H79	H	-1.079109	-1.640352	0.384430
H80	H	-0.573995	-0.919181	0.762017
H81	H	-0.805498	-1.707481	0.317251
H82	H	-0.955262	-1.707532	0.317278
H83	H	-0.187727	-0.919225	0.250375
H84	H	-0.482135	-0.819658	0.640353
H85	H	-0.187705	-1.118293	0.250347
H86	H	-0.279581	-1.217815	0.372018
H87	H	-0.279760	-1.652636	1.205811
H88	H	-0.279761	-1.652679	0.807683
H89	H	-0.188065	-1.774623	0.907248
H90	H	-0.188063	-1.774611	1.106319
H91	H	-0.481932	-1.383771	0.807588
