data_functionalizedCrystal
_audit_creation_method	'MofGen! by Chris Wilmer'
_symmetry_space_group_name_H-M	'P1'
_symmetry_Int_Tables_number	1
_symmetry_cell_setting	triclinic
loop_
_symmetry_equiv_pos_as_xyz
  x,y,z
_cell_length_a	17.666332
_cell_length_b	14.519709
_cell_length_c	14.519709
_cell_angle_alpha	83.680145
_cell_angle_beta	89.991285
_cell_angle_gamma	90.006446
loop_
_atom_site_label
_atom_site_type_symbol
_atom_site_fract_x
_atom_site_fract_y
_atom_site_fract_z
O1	O	0.062851	-1.223860	-0.120896
O2	O	0.562851	-0.723860	0.379104
O3	O	0.062875	-0.955383	-0.135133
O4	O	0.562875	-0.455383	0.364867
O5	O	0.062856	-1.096740	0.006224
O6	O	0.562856	-0.596740	0.506224
O7	O	0.062871	-1.082503	-0.262253
O8	O	0.562871	-0.582503	0.237747
O9	O	-0.063041	-1.096743	0.006238
O10	O	0.436959	-0.596743	0.506238
O11	O	-0.063022	-0.955386	-0.135118
O12	O	0.436978	-0.455386	0.364882
O13	O	-0.063045	-1.223863	-0.120882
O14	O	0.436955	-0.723863	0.379118
Cu15	Cu	-0.074529	-1.089625	-0.127999
Cu16	Cu	0.425471	-0.589625	0.372001
Cu17	Cu	0.074358	-1.089621	-0.128016
Cu18	Cu	0.574358	-0.589621	0.371984
O19	O	-0.063026	-1.082506	-0.262239
O20	O	0.436974	-0.582506	0.237761
C21	C	-0.000071	-0.921025	-0.134462
C22	C	0.499929	-0.421025	0.365538
C23	C	-0.000062	-0.818643	-0.132474
C24	C	0.499938	-0.318643	0.367526
N25	N	-0.179248	-1.089634	-0.127987
N26	N	0.320752	-0.589634	0.372013
N27	N	0.179078	-1.089619	-0.128021
N28	N	0.679078	-0.589619	0.371979
C29	C	0.218679	-1.152324	-0.065551
C30	C	0.718679	-0.652324	0.434449
C31	C	0.297927	-1.152332	-0.065549
C32	C	0.797927	-0.652332	0.434451
C33	C	0.337570	-1.089620	-0.128009
C34	C	0.837570	-0.589620	0.371991
C35	C	0.297959	-1.026910	-0.190490
C36	C	0.797959	-0.526910	0.309510
C37	C	0.218713	-1.026909	-0.190496
C38	C	0.718713	-0.526909	0.309504
N39	N	0.462003	-1.008035	-0.139415
N40	N	0.962003	-0.508035	0.360585
N41	N	0.537283	-1.008039	-0.139404
N42	N	1.037283	-0.508039	0.360596
C43	C	0.576334	-1.089618	-0.127996
C44	C	1.076334	-0.589618	0.372004
N45	N	0.537260	-1.171197	-0.116581
N46	N	1.037260	-0.671197	0.383419
N47	N	0.461973	-1.171193	-0.116587
N48	N	0.961973	-0.671193	0.383413
C49	C	0.423499	-1.089613	-0.128009
C50	C	0.923499	-0.589613	0.371991
C51	C	0.701865	-1.152337	-0.065521
C52	C	1.201865	-0.652337	0.434479
C53	C	0.781114	-1.152347	-0.065526
C54	C	1.281114	-0.652347	0.434474
C55	C	0.781145	-1.026916	-0.190462
C56	C	1.281145	-0.526916	0.309538
C57	C	0.701897	-1.026914	-0.190462
C58	C	1.201897	-0.526914	0.309538
C59	C	0.662262	-1.089624	-0.127986
C60	C	1.162262	-0.589624	0.372014
C61	C	-0.000093	-1.096078	0.040591
C62	C	0.499907	-0.596078	0.540591
C63	C	-0.000093	-1.094090	0.142972
C64	C	0.499907	-0.594090	0.642972
C65	C	-0.000098	-1.258221	-0.121553
C66	C	0.499902	-0.758221	0.378447
C67	C	-0.000102	-1.360602	-0.123541
C68	C	0.499898	-0.860602	0.376459
C69	C	-0.000097	-0.443748	-0.125154
C70	C	0.499903	0.056252	0.374846
C71	C	-0.000087	-0.548056	-0.127187
C72	C	0.499913	-0.048056	0.372813
C73	C	-0.000079	-0.631192	-0.128814
C74	C	0.499921	-0.131192	0.371186
C75	C	-0.000070	-0.735507	-0.130847
C76	C	0.499930	-0.235507	0.369153
C77	C	-0.000076	-1.083168	-0.296605
C78	C	0.499924	-0.583168	0.203395
C79	C	-0.000071	-1.085156	-0.398987
C80	C	0.499929	-0.585156	0.101013
C81	C	-0.000073	-1.086770	0.517868
C82	C	0.499927	-0.586770	1.017868
C83	C	-0.000079	-1.088803	0.413560
C84	C	0.499921	-0.588803	0.913560
C85	C	-0.000084	-1.090430	0.330423
C86	C	0.499916	-0.590430	0.830423
C87	C	-0.000088	-1.092463	0.226109
C88	C	0.499912	-0.592463	0.726109
H89	H	0.330176	-1.203396	-0.014677
H90	H	0.830176	-0.703396	0.485323
O91	O	0.340710	-0.959250	-0.257843
O92	O	0.840710	-0.459250	0.242157
H93	H	0.402469	-0.969772	-0.247332
H94	H	0.902469	-0.469772	0.252668
O95	O	0.175988	-0.959278	-0.257875
O96	O	0.675988	-0.459278	0.242125
H97	H	0.139893	-0.998090	-0.302863
H98	H	0.639893	-0.498090	0.197137
O99	O	0.659106	-1.219982	0.001846
O100	O	1.159106	-0.719982	0.501846
H101	H	0.699961	-1.263600	0.045275
H102	H	1.199961	-0.763600	0.545275
H103	H	0.186410	-1.203388	-0.014682
H104	H	0.686410	-0.703388	0.485318
H105	H	0.813358	-1.203413	-0.014658
H106	H	1.313358	-0.703413	0.485342
H107	H	0.813422	-0.975857	-0.241321
H108	H	1.313422	-0.475857	0.258679
O109	O	0.659176	-0.959304	-0.257861
O110	O	1.159176	-0.459304	0.242139
H111	H	0.700053	-0.915701	-0.301301
H112	H	1.200053	-0.415701	0.198699
