data_functionalizedCrystal
_audit_creation_method	'MofGen! by Chris Wilmer'
_symmetry_space_group_name_H-M	'P1'
_symmetry_Int_Tables_number	1
_symmetry_cell_setting	triclinic
loop_
_symmetry_equiv_pos_as_xyz
  x,y,z
_cell_length_a	23.532407
_cell_length_b	27.731996
_cell_length_c	22.610064
_cell_angle_alpha	89.998076
_cell_angle_beta	89.997161
_cell_angle_gamma	82.735033
loop_
_atom_site_label
_atom_site_type_symbol
_atom_site_fract_x
_atom_site_fract_y
_atom_site_fract_z
O1	O	0.755125	0.058674	-0.049118
O2	O	0.589242	0.067164	-0.049137
O3	O	0.677351	-0.007472	-0.049114
O4	O	0.667016	0.133309	-0.049141
O5	O	0.677335	-0.007461	0.049255
O6	O	0.589226	0.067175	0.049232
O7	O	0.755110	0.058684	0.049251
Zn8	Zn	0.672166	0.062931	0.064860
Zn9	Zn	0.672186	0.062917	-0.064746
O10	O	0.667001	0.133320	0.049228
C11	C	0.568019	0.066953	0.000046
C12	C	0.504803	0.066303	0.000039
C13	C	0.105606	0.106394	0.000058
C14	C	0.046207	0.105790	0.000062
O15	O	0.009375	0.142955	0.000077
N16	N	0.023685	0.061419	0.000070
C17	C	0.060566	0.017649	0.000079
O18	O	0.035955	-0.020147	0.000086
C19	C	0.119963	0.018253	0.000080
C20	C	0.142482	0.062627	0.000066
C21	C	0.128124	0.150764	0.000046
C22	C	0.187519	0.151368	0.000041
C23	C	0.224395	0.107601	0.000049
C24	C	0.201876	0.063231	0.000061
C25	C	0.156843	-0.025516	0.000094
C26	C	0.216244	-0.024908	0.000095
C27	C	0.238762	0.019466	0.000081
C28	C	0.298147	0.020068	0.000065
N29	N	0.320669	0.064439	0.000057
C30	C	0.283793	0.108206	0.000049
C31	C	-0.064174	0.016383	0.000079
C32	C	-0.123570	0.015778	0.000075
C33	C	-0.137925	0.103920	0.000058
C34	C	-0.078528	0.104524	0.000059
C35	C	-0.041652	0.060754	0.000072
C36	C	0.408526	0.109470	0.000039
C37	C	0.467927	0.110070	0.000031
C38	C	0.482277	0.021929	0.000050
C39	C	0.422881	0.021329	0.000055
C40	C	0.386007	0.065103	0.000051
O41	O	0.335014	-0.017077	0.000053
O42	O	0.308412	0.145996	0.000050
C43	C	0.677131	-0.025474	0.000072
C44	C	0.676491	-0.079131	0.000078
C45	C	0.672477	-0.411860	-0.053572
C46	C	0.670048	-0.613522	-0.053583
O47	O	0.669717	-0.639598	-0.099186
N48	N	0.669738	-0.638733	0.000038
C49	C	0.670032	-0.613526	0.053665
O50	O	0.669706	-0.639597	0.099272
C51	C	0.672456	-0.411864	0.053675
C52	C	0.672772	-0.386656	0.000051
C53	C	0.672792	-0.386651	-0.107192
C54	C	0.673402	-0.336239	-0.107188
C55	C	0.673697	-0.311036	-0.053566
C56	C	0.673382	-0.336244	0.000054
C57	C	0.672745	-0.386658	0.107301
C58	C	0.673350	-0.336239	0.107299
C59	C	0.673665	-0.311030	0.053675
C60	C	0.674287	-0.260628	0.053680
N61	N	0.674597	-0.235417	0.000060
C62	C	0.674302	-0.260620	-0.053563
C63	C	0.668760	-0.719401	0.053656
C64	C	0.668155	-0.769817	0.053653
C65	C	0.668171	-0.769809	-0.053594
C66	C	0.668780	-0.719393	-0.053591
C67	C	0.669070	-0.694190	0.000035
C68	C	0.675584	-0.154751	-0.053552
C69	C	0.676197	-0.104335	-0.053545
C70	C	0.676178	-0.104347	0.053703
C71	C	0.675568	-0.154759	0.053695
C72	C	0.675269	-0.179960	0.000063
O73	O	0.674612	-0.234520	0.099259
O74	O	0.674615	-0.234539	-0.099164
C75	C	0.671867	-0.462272	-0.053575
C76	C	0.671551	-0.487480	0.000044
C77	C	0.671846	-0.462277	0.053667
C78	C	0.670946	-0.537896	0.000042
C79	C	0.670651	-0.563099	-0.053581
C80	C	0.670961	-0.537888	-0.107201
C81	C	0.671572	-0.487475	-0.107198
C82	C	0.671536	-0.487488	0.107288
C83	C	0.670927	-0.537901	0.107280
C84	C	0.670632	-0.563104	0.053657
C85	C	0.776333	0.058895	0.000067
C86	C	0.839549	0.059545	0.000070
C87	C	0.667221	0.151323	0.000040
C88	C	0.667860	0.204980	0.000031
N89	N	0.672156	0.062941	0.153312
N90	N	0.672200	0.062904	-0.153198
C91	C	0.711202	0.029873	0.561964
C92	C	0.711205	0.029870	0.623884
O93	O	0.744380	0.001762	0.655911
N94	N	0.672186	0.062907	0.654849
C95	C	0.633157	0.095947	0.623892
O96	O	0.599967	0.124047	0.655917
C97	C	0.633151	0.095947	0.561973
C98	C	0.672178	0.062911	0.531011
C99	C	0.750225	-0.003160	0.531001
C100	C	0.750223	-0.003156	0.469085
C101	C	0.711198	0.029882	0.438132
C102	C	0.672175	0.062916	0.469095
C103	C	0.594120	0.128984	0.531017
C104	C	0.594118	0.128982	0.469094
C105	C	0.633144	0.095946	0.438132
C106	C	0.633148	0.095958	0.376227
N107	N	0.672168	0.062921	0.345261
C108	C	0.711193	0.029883	0.376214
C109	C	0.633170	0.095942	0.753926
C110	C	0.633177	0.095944	0.815843
C111	C	0.711225	0.029866	0.815831
C112	C	0.711220	0.029867	0.753912
C113	C	0.672190	0.062905	0.722960
C114	C	0.711185	0.029894	0.246186
C115	C	0.711181	0.029903	0.184265
C116	C	0.633131	0.095978	0.184283
C117	C	0.633137	0.095972	0.246199
C118	C	0.672166	0.062926	0.277149
O119	O	0.599989	0.124050	0.344160
O120	O	0.744371	0.001783	0.344182
H121	H	-0.167961	0.139557	0.000055
F122	F	0.591606	0.131138	0.279151
H123	H	0.378510	0.145116	0.000037
H124	H	0.742965	0.002985	0.271379
H125	H	0.512312	-0.013705	0.000055
H126	H	0.670724	-0.558417	-0.150863
F127	F	0.670594	-0.564724	0.164358
F128	F	0.752756	-0.005295	0.720965
F129	F	0.671846	-0.460671	0.164364
H130	H	0.675316	-0.175285	0.097360
F131	F	-0.147529	-0.031450	0.000075
H132	H	0.781999	-0.030058	0.443879
H133	H	0.246266	-0.060551	0.000106
H134	H	0.676455	-0.083813	-0.097214
F135	F	0.669066	-0.692584	0.110736
F136	F	0.791763	-0.038328	0.563935
F137	F	0.211477	0.198597	0.000029
H138	H	0.742962	0.003001	0.159057
H139	H	0.672550	-0.407166	-0.150860
F140	F	0.752758	-0.005297	0.848785
H141	H	0.601405	0.122850	0.841049
H142	H	0.601388	0.122849	0.728728
F143	F	-0.024932	-0.030206	0.000087
F144	F	0.672406	-0.413475	0.164376
H145	H	0.404547	-0.014804	0.000057
F146	F	0.669115	-0.692569	-0.110665
H147	H	0.138520	-0.061650	0.000105
F148	F	0.667829	-0.796641	0.110727
F149	F	0.671907	-0.460653	-0.164273
H150	H	0.562341	0.155885	0.556218
F151	F	0.675266	-0.181565	-0.110634
H152	H	0.562333	0.155885	0.443896
F153	F	0.591600	0.131140	0.151332
H154	H	0.673577	-0.315720	0.150969
H155	H	0.486258	0.146206	0.000020
H156	H	0.098105	0.186406	0.000041
F157	F	0.667855	-0.796641	-0.110664
F158	F	-0.054568	0.151752	0.000046
H159	H	0.676420	-0.083817	0.097361
F160	F	0.673734	-0.309416	-0.164263
