data_functionalizedCrystal
_audit_creation_method	'MofGen! by Chris Wilmer'
_symmetry_space_group_name_H-M	'P1'
_symmetry_Int_Tables_number	1
_symmetry_cell_setting	triclinic
loop_
_symmetry_equiv_pos_as_xyz
  x,y,z
_cell_length_a	12.759401
_cell_length_b	19.121063
_cell_length_c	12.759393
_cell_angle_alpha	92.402864
_cell_angle_beta	89.980163
_cell_angle_gamma	92.470439
loop_
_atom_site_label
_atom_site_type_symbol
_atom_site_fract_x
_atom_site_fract_y
_atom_site_fract_z
Zn1	Zn	1.588322	-0.279543	-0.611808
Zn2	Zn	1.580681	-0.397012	-0.443603
Zn3	Zn	1.412622	-0.279582	-0.436146
Zn4	Zn	1.405081	-0.396960	-0.619237
O5	O	1.496677	-0.338274	-0.527699
O6	O	1.734330	-0.295130	-0.589507
O7	O	1.558346	-0.381472	-0.295595
O8	O	1.442283	-0.181293	-0.453218
O9	O	1.728716	-0.381434	-0.465928
O10	O	1.571369	-0.181264	-0.582276
O11	O	1.434874	-0.295198	-0.290116
O12	O	1.264601	-0.295148	-0.460421
O13	O	1.429430	-0.381346	-0.765270
O14	O	1.259060	-0.381385	-0.594938
O15	O	1.564057	-0.295080	-0.759812
O16	O	1.551034	-0.495289	-0.473131
O17	O	1.422021	-0.495251	-0.602169
C18	C	1.223710	-0.338266	-0.527677
C19	C	1.106932	-0.338279	-0.527694
C20	C	1.049209	-0.383251	-0.597635
C21	C	0.939484	-0.383253	-0.597656
C22	C	0.945217	-0.293310	-0.457786
C23	C	1.054940	-0.293305	-0.457770
C24	C	1.484908	-0.520754	-0.539288
C25	C	1.479970	-0.598820	-0.544281
C26	C	1.544872	-0.635492	-0.479500
C27	C	1.540234	-0.708843	-0.484202
C28	C	1.470687	-0.745521	-0.553682
C29	C	1.405782	-0.708844	-0.618470
C30	C	1.410427	-0.635494	-0.613772
C31	C	1.453306	-0.966989	-0.571229
C32	C	1.448664	-1.040344	-0.575920
C33	C	1.583118	-1.040338	-0.441653
C34	C	1.587751	-0.966987	-0.436957
C35	C	1.522851	-0.930316	-0.501749
C36	C	1.465942	-0.820497	-0.558487
C37	C	1.527602	-0.855341	-0.496948
C38	C	1.770709	-0.338283	-0.527721
C39	C	1.887486	-0.338287	-0.527730
C40	C	1.496755	-0.338203	-0.801727
C41	C	1.496788	-0.338173	-0.918502
C42	C	1.508520	-0.155082	-0.516087
C43	C	1.513566	-0.077016	-0.511138
C44	C	1.432520	-0.293241	-0.970510
C45	C	1.432546	-0.293220	-1.080233
C46	C	1.561116	-0.383063	-1.085930
C47	C	1.561084	-0.383088	-0.976210
C48	C	1.496663	-0.338294	-0.254732
C49	C	1.496846	-0.338127	-0.137946
H50	H	0.892490	-0.419873	-0.654611
C51	C	1.604101	-0.814998	-0.420522
C52	C	1.561797	-0.764640	-0.334782
C53	C	1.638293	-0.724289	-0.258353
C54	C	1.757093	-0.734295	-0.267665
C55	C	1.799403	-0.784655	-0.353408
C56	C	1.722907	-0.825006	-0.429837
H57	H	1.473849	-0.757231	-0.327886
H58	H	1.606972	-0.687010	-0.194880
H59	H	1.813720	-0.704425	-0.211087
H60	H	1.887351	-0.792064	-0.360304
H61	H	1.754228	-0.862285	-0.493310
H62	H	1.101940	-0.256679	-0.400815
H63	H	1.613420	-0.419679	-0.933864
C64	C	1.361853	-0.243792	-1.137441
C65	C	1.277415	-0.274202	-1.214785
C66	C	1.206717	-0.224772	-1.271991
C67	C	1.220458	-0.144933	-1.251854
C68	C	1.304901	-0.114518	-1.174506
C69	C	1.375598	-0.163948	-1.117300
H70	H	1.267239	-0.333308	-1.229695
H71	H	1.144207	-0.247287	-1.329249
H72	H	1.168123	-0.108342	-1.294201
H73	H	1.315076	-0.055413	-1.159596
H74	H	1.438108	-0.141433	-1.060042
C75	C	1.621376	-0.595149	-0.403071
C76	C	1.612229	-0.605307	-0.284278
C77	C	1.688738	-0.564966	-0.207850
C78	C	1.774393	-0.514467	-0.250216
C79	C	1.783543	-0.504307	-0.369015
C80	C	1.707034	-0.544648	-0.445443
H81	H	1.548819	-0.642691	-0.252911
H82	H	1.681964	-0.572487	-0.119907
H83	H	1.831029	-0.484605	-0.193639
H84	H	1.846953	-0.466923	-0.400382
H85	H	1.713808	-0.537126	-0.533386
H86	H	1.091538	-0.419870	-0.654574
C87	C	0.888028	-0.243841	-0.380869
C88	C	0.902699	-0.249470	-0.261774
C89	C	0.845514	-0.199999	-0.184854
C90	C	0.773658	-0.144898	-0.227029
C91	C	0.758983	-0.139266	-0.346130
C92	C	0.816168	-0.188737	-0.423050
H93	H	0.955894	-0.290261	-0.230548
H94	H	0.856377	-0.204168	-0.096688
H95	H	0.731326	-0.108276	-0.170088
H96	H	0.705788	-0.098475	-0.377356
H97	H	0.805305	-0.184568	-0.511216
C98	C	1.381912	-0.926653	-0.642489
C99	C	1.430590	-0.876159	-0.721783
C100	C	1.359194	-0.835817	-0.793044
C101	C	1.239119	-0.845969	-0.785010
C102	C	1.190435	-0.896466	-0.705713
C103	C	1.261831	-0.936808	-0.634452
H104	H	1.519483	-0.868641	-0.727732
H105	H	1.395234	-0.798435	-0.851745
H106	H	1.186267	-0.816106	-0.837762
H107	H	1.101542	-0.903984	-0.699763
H108	H	1.225791	-0.974189	-0.575751
H109	H	1.593083	-0.738698	-0.431450
C110	C	1.664252	-0.926649	-0.360520
C111	C	1.621949	-0.876302	-0.274766
C112	C	1.698444	-0.835966	-0.198319
C113	C	1.817243	-0.845977	-0.207627
C114	C	1.859553	-0.896327	-0.293384
C115	C	1.783057	-0.936662	-0.369831
H116	H	1.534001	-0.868889	-0.267873
H117	H	1.667123	-0.798694	-0.134836
H118	H	1.873869	-0.816118	-0.151037
H119	H	1.947500	-0.903740	-0.300278
H120	H	1.814378	-0.973934	-0.433314
H121	H	1.635958	-1.070203	-0.388904
H122	H	1.380166	-0.256669	-0.923528
C123	C	1.339030	-0.595151	-0.685029
C124	C	1.218955	-0.605304	-0.676999
C125	C	1.147560	-0.564962	-0.748260
C126	C	1.196240	-0.514466	-0.827552
C127	C	1.316321	-0.504311	-0.835586
C128	C	1.387716	-0.544653	-0.764324
H129	H	1.182914	-0.642686	-0.618299
H130	H	1.058668	-0.572480	-0.742313
H131	H	1.143389	-0.484603	-0.880304
H132	H	1.352362	-0.466929	-0.894285
H133	H	1.476608	-0.537135	-0.770271
H134	H	1.349160	-0.738713	-0.675046
C135	C	1.372160	-1.080692	-0.652354
C136	C	1.300771	-1.040358	-0.723624
C137	C	1.224269	-1.080706	-0.800050
C138	C	1.219155	-1.161388	-0.805206
C139	C	1.290547	-1.201726	-0.733933
C140	C	1.367049	-1.161378	-0.657507
H141	H	1.304554	-0.980628	-0.719810
H142	H	1.171420	-1.050844	-0.852811
H143	H	1.162524	-1.191256	-0.861782
H144	H	1.286764	-1.261456	-0.737748
H145	H	1.419898	-1.191240	-0.604746
H146	H	1.613464	-0.419631	-1.132929
H147	H	1.409315	-0.850368	-0.615056
