data_functionalizedCrystal
_audit_creation_method	'MofGen! by Chris Wilmer'
_symmetry_space_group_name_H-M	'P1'
_symmetry_Int_Tables_number	1
_symmetry_cell_setting	triclinic
loop_
_symmetry_equiv_pos_as_xyz
  x,y,z
_cell_length_a	27.731993
_cell_length_b	27.732048
_cell_length_c	16.098538
_cell_angle_alpha	92.695138
_cell_angle_beta	87.296179
_cell_angle_gamma	82.631525
loop_
_atom_site_label
_atom_site_type_symbol
_atom_site_fract_x
_atom_site_fract_y
_atom_site_fract_z
O1	O	0.643118	0.055221	-0.069040
O2	O	1.143118	0.555221	0.430960
O3	O	0.502323	0.063993	-0.069092
O4	O	1.002323	0.563993	0.430908
O5	O	0.577093	-0.010790	-0.069049
O6	O	1.077093	0.489210	0.430951
O7	O	0.568348	0.130004	-0.069083
O8	O	1.068348	0.630004	0.430917
O9	O	0.572725	-0.006439	0.069462
O10	O	1.072725	0.493561	0.569462
O11	O	0.497955	0.068344	0.069418
O12	O	0.997955	0.568344	0.569418
O13	O	0.638751	0.059573	0.069470
O14	O	1.138751	0.559573	0.569470
Zn15	Zn	0.567659	0.064649	0.091436
Zn16	Zn	1.067659	0.564649	0.591436
Zn17	Zn	0.573414	0.058916	-0.091058
Zn18	Zn	1.073414	0.558916	0.408942
O19	O	0.563981	0.134356	0.069427
O20	O	1.063981	0.634356	0.569427
C21	C	0.482132	0.065988	0.000157
C22	C	0.982132	0.565988	0.500157
C23	C	0.428476	0.065445	0.000138
C24	C	0.928476	0.565445	0.500138
C25	C	0.047695	0.059144	-0.075323
C26	C	0.547695	0.559144	0.424677
C27	C	0.249353	0.061210	-0.075346
C28	C	0.749353	0.561210	0.424654
O29	O	0.277451	0.059441	-0.139559
O30	O	0.777451	0.559441	0.360441
N31	N	0.272193	0.063841	0.000154
N32	N	0.772193	0.563841	0.500154
C33	C	0.244615	0.065952	0.075665
C34	C	0.744615	0.565952	0.575665
O35	O	0.268669	0.068232	0.139882
O36	O	0.768669	0.568232	0.639882
C37	C	0.042958	0.063882	0.075688
C38	C	0.542958	0.563882	0.575688
C39	C	0.020121	0.061256	0.000182
C40	C	0.520121	0.561256	0.500182
C41	C	0.024858	0.056518	-0.150822
C42	C	0.524858	0.556518	0.349178
C43	C	-0.025554	0.056004	-0.150816
C44	C	0.474446	0.556004	0.349184
C45	C	-0.053129	0.058116	-0.075310
C46	C	0.446871	0.558116	0.424690
C47	C	-0.030291	0.060742	0.000189
C48	C	0.469709	0.560742	0.500189
C49	C	0.015382	0.065989	0.151198
C50	C	0.515382	0.565989	0.651198
C51	C	-0.035035	0.065471	0.151197
C52	C	0.464965	0.565471	0.651197
C53	C	-0.057872	0.062845	0.075692
C54	C	0.442128	0.562845	0.575692
C55	C	-0.108277	0.062341	0.075701
C56	C	0.391723	0.562341	0.575701
N57	N	-0.131117	0.059710	0.000201
N58	N	0.368883	0.559710	0.500201
C59	C	-0.103542	0.057598	-0.075305
C60	C	0.396458	0.557598	0.424695
C61	C	0.350488	0.067039	0.075648
C62	C	0.850488	0.567039	0.575648
C63	C	0.400902	0.067558	0.075643
C64	C	0.900902	0.567558	0.575643
C65	C	0.405637	0.062815	-0.075369
C66	C	0.905637	0.562815	0.424631
C67	C	0.355221	0.062300	-0.075363
C68	C	0.855221	0.562300	0.424637
C69	C	0.327648	0.064409	0.000148
C70	C	0.827648	0.564409	0.500148
C71	C	-0.209411	0.056519	-0.075285
C72	C	0.290589	0.556519	0.424715
C73	C	-0.259828	0.056008	-0.075272
C74	C	0.240172	0.556008	0.424728
C75	C	-0.264558	0.060748	0.075739
C76	C	0.235442	0.560748	0.575739
C77	C	-0.214146	0.061262	0.075727
C78	C	0.285854	0.561262	0.575727
C79	C	-0.186573	0.059146	0.000208
C80	C	0.313427	0.559146	0.500208
O81	O	-0.136404	0.064103	0.139881
O82	O	0.363596	0.564103	0.639881
O83	O	-0.127604	0.055308	-0.139512
O84	O	0.372396	0.555308	0.360488
C85	C	0.098107	0.059658	-0.075330
C86	C	0.598107	0.559658	0.424670
C87	C	0.120945	0.062284	0.000169
C88	C	0.620945	0.562284	0.500169
C89	C	0.093371	0.064396	0.075675
C90	C	0.593371	0.564396	0.575675
C91	C	0.171359	0.062802	0.000164
C92	C	0.671359	0.562802	0.500164
C93	C	0.198933	0.060690	-0.075342
C94	C	0.698933	0.560690	0.424658
C95	C	0.176093	0.058060	-0.150842
C96	C	0.676093	0.558060	0.349158
C97	C	0.125681	0.057546	-0.150835
C98	C	0.625681	0.557546	0.349165
C99	C	0.116210	0.067027	0.151175
C100	C	0.616210	0.567027	0.651175
C101	C	0.166622	0.067541	0.151162
C102	C	0.666622	0.567541	0.651162
C103	C	0.194196	0.065429	0.075657
C104	C	0.694196	0.565429	0.575657
C105	C	0.574725	-0.026621	0.000209
C106	C	1.074725	0.473379	0.500209
C107	C	0.574172	-0.080276	0.000216
C108	C	1.074172	0.419724	0.500216
C109	C	0.614878	-0.419100	0.000188
C110	C	1.114878	0.080900	0.500188
C111	C	0.612827	-0.620759	0.000175
C112	C	1.112827	-0.120759	0.500175
O113	O	0.650050	-0.652023	0.000153
O114	O	1.150050	-0.152023	0.500153
N115	N	0.568492	-0.639875	0.000160
N116	N	1.068492	-0.139875	0.500160
C117	C	0.524665	-0.608572	0.000142
C118	C	1.024665	-0.108572	0.500142
O119	O	0.486908	-0.629458	0.000120
O120	O	0.986908	-0.129458	0.500120
C121	C	0.526717	-0.406914	0.000148
C122	C	1.026717	0.093086	0.500148
C123	C	0.571055	-0.387801	0.000172
C124	C	1.071055	0.112199	0.500172
C125	C	0.659213	-0.399986	0.000211
C126	C	1.159213	0.100014	0.500211
C127	C	0.659725	-0.349574	0.000219
C128	C	1.159725	0.150426	0.500219
C129	C	0.615902	-0.318275	0.000203
C130	C	1.115902	0.181725	0.500203
C131	C	0.571567	-0.337389	0.000180
C132	C	1.071567	0.162611	0.500180
C133	C	0.482891	-0.375612	0.000124
C134	C	0.982891	0.124388	0.500124
C135	C	0.483408	-0.325195	0.000124
C136	C	0.983408	0.174805	0.500124
C137	C	0.527747	-0.306082	0.000148
C138	C	1.027747	0.193918	0.500148
C139	C	0.528256	-0.255678	0.000172
C140	C	1.028256	0.244322	0.500172
N141	N	0.572592	-0.236562	0.000188
N142	N	1.072592	0.263438	0.500188
C143	C	0.616415	-0.267861	0.000203
C144	C	1.116415	0.232139	0.500203
C145	C	0.523591	-0.714446	0.000140
C146	C	1.023591	-0.214446	0.500140
C147	C	0.523078	-0.764860	0.000140
C148	C	1.023078	-0.264860	0.500140
C149	C	0.611241	-0.777044	0.000172
C150	C	1.111241	-0.277044	0.500172
C151	C	0.611753	-0.726629	0.000178
C152	C	1.111753	-0.226629	0.500178
C153	C	0.567927	-0.695330	0.000156
C154	C	1.067927	-0.195330	0.500156
C155	C	0.617487	-0.161992	0.000220
C156	C	1.117487	0.338008	0.500220
C157	C	0.617995	-0.111574	0.000231
C158	C	1.117995	0.388426	0.500231
C159	C	0.529833	-0.099395	0.000195
C160	C	1.029833	0.400605	0.500195
C161	C	0.529325	-0.149808	0.000188
C162	C	1.029325	0.350192	0.500188
C163	C	0.573156	-0.181105	0.000198
C164	C	1.073156	0.318895	0.500198
O165	O	0.491054	-0.224386	0.000185
O166	O	0.991054	0.275614	0.500185
O167	O	0.654167	-0.246966	0.000207
O168	O	1.154167	0.253034	0.500207
C169	C	0.614366	-0.469512	0.000180
C170	C	1.114366	0.030488	0.500180
C171	C	0.570031	-0.488625	0.000157
C172	C	1.070031	0.011375	0.500157
C173	C	0.526208	-0.457326	0.000142
C174	C	1.026208	0.042674	0.500142
C175	C	0.569518	-0.539039	0.000157
C176	C	1.069518	-0.039039	0.500157
C177	C	0.613341	-0.570338	0.000172
C178	C	1.113341	-0.070338	0.500172
C179	C	0.657677	-0.551222	0.000188
C180	C	1.157677	-0.051222	0.500188
C181	C	0.658189	-0.500810	0.000196
C182	C	1.158189	-0.000810	0.500196
C183	C	0.481872	-0.476442	0.000126
C184	C	0.981872	0.023558	0.500126
C185	C	0.481364	-0.526854	0.000119
C186	C	0.981364	-0.026854	0.500119
C187	C	0.525187	-0.558153	0.000135
C188	C	1.025187	-0.058153	0.500135
C189	C	0.658942	0.057577	0.000220
C190	C	1.158942	0.557577	0.500220
C191	C	0.712598	0.058120	0.000234
C192	C	1.212598	0.558120	0.500234
C193	C	0.566348	0.150187	0.000168
C194	C	1.066348	0.650187	0.500168
C195	C	0.566901	0.203841	0.000156
C196	C	1.066901	0.703841	0.500156
N197	N	0.563736	0.068562	0.215983
N198	N	1.063736	0.568562	0.715983
N199	N	0.577342	0.055000	-0.215604
N200	N	1.077342	0.555000	0.284396
C201	C	0.595483	0.036832	0.259586
C202	C	1.095483	0.536832	0.759586
C203	C	0.592742	0.039574	0.346774
C204	C	1.092742	0.539574	0.846774
C205	C	0.558257	0.074047	0.390356
C206	C	1.058257	0.574047	0.890356
C207	C	0.526507	0.105779	0.346746
C208	C	1.026507	0.605779	0.846746
C209	C	0.529245	0.103034	0.259561
C210	C	1.029245	0.603034	0.759561
C211	C	0.548330	0.083987	0.653600
C212	C	1.048330	0.583987	1.153600
C213	C	0.545595	0.086730	0.740792
C214	C	1.045595	0.586730	1.240792
C215	C	0.611830	0.020524	0.740813
C216	C	1.111830	0.520524	1.240813
C217	C	0.614567	0.017785	0.653626
C218	C	1.114567	0.517785	1.153626
C219	C	0.582815	0.049514	0.610024
C220	C	1.082815	0.549514	1.110024
C221	C	0.555456	0.076852	0.479475
C222	C	1.055456	0.576852	0.979475
C223	C	0.585614	0.046707	0.520906
C224	C	1.085614	0.546707	1.020906
H225	H	0.328042	0.068755	0.137142
H226	H	0.828042	0.568755	0.637142
Br227	Br	0.062271	0.053649	-0.253308
Br228	Br	0.562271	0.553649	0.246692
H229	H	0.647857	-0.711071	0.000197
H230	H	1.147857	-0.211071	0.500197
H231	H	0.654102	-0.096016	0.000253
H232	H	1.154102	0.403984	0.500253
Br233	Br	0.422714	-0.401538	0.000088
Br234	Br	0.922714	0.098462	0.500088
Br235	Br	-0.290819	0.052447	-0.177750
Br236	Br	0.209181	0.552447	0.322250
Br237	Br	0.078795	0.069898	0.253658
Br238	Br	0.578795	0.569898	0.753658
H239	H	0.487901	-0.688967	0.000122
H240	H	0.987901	-0.188967	0.500122
Br241	Br	-0.171999	0.053648	-0.177776
Br242	Br	0.328001	0.553648	0.322224
H243	H	-0.044144	0.053864	-0.212300
H244	H	0.455856	0.553864	0.287700
H245	H	0.447719	-0.299714	0.000104
H246	H	0.947719	0.200286	0.500104
Br247	Br	0.718695	-0.442455	0.000231
Br248	Br	1.218695	0.057545	0.500231
Br249	Br	-0.072452	0.068327	0.253682
Br250	Br	0.427548	0.568327	0.753682
H251	H	0.493220	-0.165369	0.000191
H252	H	0.993220	0.334631	0.500191
H253	H	0.486973	-0.780417	0.000135
H254	H	0.986973	-0.280417	0.500135
H255	H	0.637680	-0.005309	0.776322
H256	H	1.137680	0.494691	1.276322
H257	H	0.646923	-0.802536	0.000185
H258	H	1.146923	-0.302536	0.500185
Br259	Br	0.642290	-0.009953	0.200448
Br260	Br	1.142290	0.490047	0.700448
Br261	Br	0.324233	0.058737	-0.177837
Br262	Br	0.824233	0.558737	0.322163
H263	H	0.503393	0.128872	0.224059
H264	H	1.003393	0.628872	0.724059
H265	H	0.107092	0.055408	-0.212319
H266	H	0.607092	0.555408	0.287681
H267	H	0.198553	0.056342	-0.212321
H268	H	0.698553	0.556342	0.287679
H269	H	0.494154	-0.073903	0.000185
H270	H	0.994154	0.426097	0.500185
H271	H	0.517511	0.114804	0.776273
H272	H	1.017511	0.614804	1.276273
Br273	Br	-0.183152	0.064833	0.178198
Br274	Br	0.316848	0.564833	0.678198
Br275	Br	0.719903	-0.323644	0.000228
Br276	Br	1.219903	0.176356	0.500228
H277	H	0.613691	0.018637	0.485419
H278	H	1.113691	0.518637	0.985419
H279	H	-0.287018	0.062469	0.137214
H280	H	0.212982	0.562469	0.637214
Br281	Br	0.505240	0.127048	0.594431
Br282	Br	1.005240	0.627048	1.094431
H283	H	0.694294	-0.485254	0.000215
H284	H	1.194294	0.014746	0.500215
H285	H	0.498426	0.133846	0.382236
H286	H	0.998426	0.633846	0.882236
H287	H	0.428096	0.061097	-0.136849
H288	H	0.928096	0.561097	0.363151
H289	H	0.618593	0.013736	0.382275
H290	H	1.118593	0.513736	0.882275
H291	H	0.693359	-0.576715	0.000204
H292	H	1.193359	-0.076715	0.500204
Br293	Br	0.676973	-0.204459	0.000232
Br294	Br	1.176973	0.295541	0.500232
H295	H	0.445255	-0.542410	0.000107
H296	H	0.945255	-0.042410	0.500107
Br297	Br	0.661371	-0.029000	0.594477
Br298	Br	1.161371	0.471000	1.094477
Br299	Br	0.431887	0.071134	0.178118
Br300	Br	0.931887	0.571134	0.678118
H301	H	0.527378	0.104922	0.514967
H302	H	1.027378	0.604922	1.014967
H303	H	0.033968	0.068126	0.212683
H304	H	0.533968	0.568126	0.712683
H305	H	0.185211	0.069683	0.212653
H306	H	0.685211	0.569683	0.712653
H307	H	0.446186	-0.450963	0.000111
H308	H	0.946186	0.049037	0.500111
