data_functionalizedCrystal
_audit_creation_method	'MofGen! by Chris Wilmer'
_symmetry_space_group_name_H-M	'P1'
_symmetry_Int_Tables_number	1
_symmetry_cell_setting	triclinic
loop_
_symmetry_equiv_pos_as_xyz
  x,y,z
_cell_length_a	21.295420
_cell_length_b	12.594516
_cell_length_c	12.594509
_cell_angle_alpha	90.026199
_cell_angle_beta	90.021167
_cell_angle_gamma	90.014304
loop_
_atom_site_label
_atom_site_type_symbol
_atom_site_fract_x
_atom_site_fract_y
_atom_site_fract_z
Zn1	Zn	0.962397	-0.423760	0.601871
Zn2	Zn	0.962332	-0.601770	0.423898
Zn3	Zn	0.857126	-0.423800	0.423900
Zn4	Zn	0.857116	-0.601691	0.601829
O5	O	0.909743	-0.512755	0.512874
O6	O	1.050478	-0.447389	0.578279
O7	O	0.948354	-0.578212	0.274953
O8	O	0.871122	-0.274849	0.447526
O9	O	1.050430	-0.578172	0.447524
O10	O	0.948464	-0.274819	0.578280
O11	O	0.871060	-0.447458	0.274954
O12	O	0.769036	-0.447382	0.447486
O13	O	0.871104	-0.578038	0.750780
O14	O	0.769028	-0.578078	0.578209
O15	O	0.948454	-0.447313	0.750811
O16	O	0.948344	-0.750705	0.447483
O17	O	0.871042	-0.750647	0.578208
C18	C	0.909702	-0.789296	0.512864
C19	C	0.909741	-0.907602	0.512895
C20	C	0.746191	-0.512726	0.512844
C21	C	0.676223	-0.512740	0.512856
C22	C	0.867693	-0.976862	0.583946
C23	C	0.852355	-1.047727	0.486823
C24	C	0.925136	-1.047536	0.610035
C25	C	0.894374	-0.976908	0.415721
C26	C	0.967181	-0.976711	0.538998
C27	C	0.951866	-1.047544	0.441808
C28	C	0.176778	-0.580934	0.580876
C29	C	0.242520	-0.580934	0.580865
C30	C	0.275384	-0.512779	0.512908
C31	C	0.242499	-0.444639	0.444937
C32	C	0.176758	-0.444648	0.444943
N33	N	0.378611	-0.419586	0.504889
N34	N	0.441062	-0.419581	0.504890
C35	C	0.473458	-0.512749	0.512885
N36	N	0.441044	-0.605926	0.520900
N37	N	0.378587	-0.605931	0.520905
C38	C	0.346669	-0.512762	0.512894
C39	C	0.577620	-0.580892	0.580834
C40	C	0.643364	-0.580894	0.580815
C41	C	0.643342	-0.444589	0.444893
C42	C	0.577599	-0.444596	0.444906
C43	C	0.544743	-0.512746	0.512882
C44	C	1.073933	-0.512785	0.512906
C45	C	1.143901	-0.512798	0.512919
C46	C	0.909785	-0.512662	0.790495
C47	C	0.909803	-0.512622	0.908801
C48	C	0.909801	-0.235134	0.512908
C49	C	0.909826	-0.116829	0.512923
C50	C	0.909737	-0.512771	0.236333
C51	C	0.909841	-0.512511	0.118028
C52	C	0.867746	-0.583684	0.978037
C53	C	0.925185	-0.609693	1.048829
C54	C	0.852409	-0.486549	1.048809
C55	C	0.967272	-0.538683	0.978034
C56	C	0.894457	-0.415494	0.978008
C57	C	0.951936	-0.441466	1.048767
H58	H	0.832070	-0.945826	0.643945
H59	H	0.269293	-0.636419	0.636207
H60	H	1.015707	-0.945498	0.561099
H61	H	0.987461	-1.078384	0.381664
H62	H	0.150030	-0.636431	0.636224
H63	H	0.881440	-0.333425	0.946877
H64	H	0.987559	-0.381324	1.079627
H65	H	1.015839	-0.560782	0.947075
H66	H	0.269261	-0.389148	0.389605
H67	H	0.803855	-0.464542	1.079899
H68	H	0.149990	-0.389160	0.389604
H69	H	0.803819	-1.078943	0.464768
H70	H	0.938185	-0.691785	1.079936
H71	H	0.832207	-0.643871	0.946982
H72	H	0.881331	-0.946012	0.333559
H73	H	0.938123	-1.078561	0.692174
H74	H	0.550867	-0.636385	0.636183
H75	H	0.670131	-0.636386	0.636151
H76	H	0.670099	-0.389099	0.389557
H77	H	0.550831	-0.389109	0.389572
