data_functionalizedCrystal
_audit_creation_method	'MofGen! by Chris Wilmer'
_symmetry_space_group_name_H-M	'P1'
_symmetry_Int_Tables_number	1
_symmetry_cell_setting	triclinic
loop_
_symmetry_equiv_pos_as_xyz
  x,y,z
_cell_length_a	19.319731
_cell_length_b	19.318970
_cell_length_c	19.315557
_cell_angle_alpha	60.007379
_cell_angle_beta	60.014690
_cell_angle_gamma	59.991495
loop_
_atom_site_label
_atom_site_type_symbol
_atom_site_fract_x
_atom_site_fract_y
_atom_site_fract_z
O1	O	0.095954	-1.011347	0.845684
O2	O	0.036156	-0.787405	0.681392
O3	O	0.177960	-0.929104	0.681276
O4	O	-0.045850	-0.869648	0.845799
O5	O	0.225008	-0.882072	0.728208
O6	O	0.083204	-0.740373	0.728324
O7	O	0.143002	-0.964315	0.892616
Cu8	Cu	0.117399	-0.848050	0.814755
Cu9	Cu	0.061759	-0.903670	0.759252
O10	O	0.001198	-0.822616	0.892732
N11	N	0.156535	-0.808935	0.853797
N12	N	0.022631	-0.942793	0.720211
C13	C	0.182113	-0.653200	0.879374
C14	C	0.182221	-0.783395	1.009518
C15	C	0.312319	-0.783375	0.879314
C16	C	0.182127	-0.783371	0.879357
C17	C	0.214696	-0.750836	0.911890
C18	C	-0.132988	-0.968144	0.694232
C19	C	-0.002674	-0.968326	0.564242
C20	C	-0.002907	-1.098444	0.694459
C21	C	-0.002887	-0.968321	0.694542
C22	C	-0.035363	-1.000810	0.661869
N23	N	0.389025	-0.808944	0.853717
O24	O	0.660019	-0.816766	0.651282
O25	O	0.660312	-0.981573	0.874999
O26	O	0.660193	-0.981192	0.733108
O27	O	0.660138	-0.817147	0.793174
O28	O	0.519202	-0.934278	0.780210
O29	O	0.519321	-0.934658	0.922102
O30	O	0.519028	-0.769852	0.698384
Cu31	Cu	0.506300	-0.847971	0.814544
Cu32	Cu	0.673039	-0.903453	0.758840
O33	O	0.519147	-0.770232	0.840276
N34	N	0.790314	-0.942480	0.719658
N35	N	0.156514	-0.576494	0.853827
O36	O	-0.045823	-0.305328	0.845846
O37	O	0.177892	-0.305317	0.681053
O38	O	0.035967	-0.305340	0.681465
O39	O	0.096102	-0.305306	0.845434
O40	O	0.083020	-0.446347	0.728459
O41	O	0.224945	-0.446325	0.728047
O42	O	0.001230	-0.446335	0.892839
Cu43	Cu	0.117383	-0.459205	0.814734
Cu44	Cu	0.061738	-0.292448	0.759159
O45	O	0.143154	-0.446313	0.892428
N46	N	0.022597	-0.175159	0.720067
N47	N	0.156703	-0.808977	1.086224
O48	O	0.148753	-1.011298	1.357359
O49	O	-0.016009	-0.787491	1.357400
O50	O	-0.015627	-0.929387	1.357339
O51	O	0.148372	-0.869401	1.357420
O52	O	0.031342	-0.882367	1.216340
O53	O	0.030961	-0.740471	1.216400
O54	O	0.195723	-0.964278	1.216360
Cu55	Cu	0.117631	-0.848081	1.203506
Cu56	Cu	0.062083	-0.903688	1.370254
O57	O	0.195341	-0.822381	1.216420
N58	N	0.023010	-0.942801	1.487536
C59	C	0.054075	-0.735670	0.682223
C60	C	0.229681	-0.911148	0.682079
C61	C	0.125082	-1.016051	0.891784
C62	C	-0.050524	-0.840572	0.891928
C63	C	0.589851	-0.980810	0.926735
C64	C	0.589706	-0.980340	0.751019
C65	C	0.589484	-0.770613	0.646650
C66	C	0.589634	-0.771085	0.822364
C67	C	0.229543	-0.375646	0.681799
C68	C	0.053845	-0.375847	0.682366
C69	C	-0.050480	-0.375832	0.892036
C70	C	0.125277	-0.375807	0.891527
C71	C	-0.015214	-0.735785	1.286905
C72	C	-0.014732	-0.911497	1.286802
C73	C	0.194928	-1.015984	1.286855
C74	C	0.194457	-0.840261	1.286926
H75	H	0.041301	-0.671339	0.630625
O76	O	-0.076069	-0.926900	1.286663
C77	C	-0.114819	-1.027587	1.286552
C78	C	-0.045275	-1.010249	1.286689
H79	H	-0.089954	-1.094979	1.286591
H80	H	-0.133311	-0.980678	1.227508
H81	H	-0.172707	-1.019951	1.345524
H82	H	0.012658	-1.017897	1.227757
H83	H	-0.026854	-1.057155	1.345772
H84	H	0.246659	-1.080258	1.286832
O85	O	0.038517	-0.376026	0.620985
C86	C	0.001162	-0.449113	0.580593
C87	C	0.018508	-0.449013	0.650172
H88	H	-0.015037	-0.508106	0.604172
H89	H	0.059946	-0.449175	0.521376
H90	H	-0.054329	-0.390086	0.564739
H91	H	0.073970	-0.508029	0.666099
H92	H	-0.040320	-0.448906	0.709346
H93	H	0.293660	-0.375252	0.629934
O94	O	0.140176	-1.092798	0.953374
C95	C	0.099287	-1.217452	1.045938
C96	C	0.082089	-1.130545	0.976204
H97	H	0.052346	-1.248004	1.064404
H98	H	0.091647	-1.208680	1.103814
H99	H	0.166650	-1.260040	1.021174
H100	H	0.014730	-1.087912	1.000889
H101	H	0.089785	-1.139381	0.918341
H102	H	0.589730	-1.031874	0.738162
O103	O	-0.127190	-0.375782	0.953649
C104	C	-0.266843	-0.375816	0.993095
C105	C	-0.180012	-0.375862	0.923241
H106	H	-0.309568	-0.375900	0.968542
H107	H	-0.297331	-0.316780	1.011561
H108	H	-0.257887	-0.434803	1.050927
H109	H	-0.188894	-0.316916	0.865364
H110	H	-0.149553	-0.434938	0.904848
O111	O	0.140789	-0.375849	0.952908
C112	C	0.241541	-0.375808	0.991645
C113	C	0.224091	-0.375773	0.922060
H114	H	0.308882	-0.375729	0.966724
H115	H	0.234052	-0.434840	1.049506
H116	H	0.194574	-0.316817	1.010205
H117	H	0.271042	-0.434725	0.903428
H118	H	0.231550	-0.316703	0.864246
H119	H	0.245979	-0.827427	1.286940
H120	H	0.293962	-0.923825	0.630414
O121	O	-0.127244	-0.825307	0.953487
C122	C	-0.266866	-0.724861	0.992669
C123	C	-0.180015	-0.742031	0.922885
H124	H	-0.309561	-0.657541	0.967947
H125	H	-0.258027	-0.732450	1.050486
H126	H	-0.297325	-0.771915	1.011221
H127	H	-0.149508	-0.694993	0.904260
H128	H	-0.188909	-0.734471	0.865114
H129	H	0.589926	-1.032546	0.990990
O130	O	0.589409	-0.708985	0.569945
C131	C	0.589199	-0.669537	0.430329
C132	C	0.589305	-0.739412	0.517149
H133	H	0.589096	-0.694106	0.387625
H134	H	0.648181	-0.651007	0.399792
H135	H	0.530172	-0.611740	0.439319
H136	H	0.648292	-0.797255	0.508233
H137	H	0.530283	-0.757871	0.547657
O138	O	-0.077033	-0.659175	1.287028
C139	C	-0.218397	-0.583438	1.360102
C140	C	-0.148469	-0.670254	1.360059
H141	H	-0.276163	-0.592363	1.419149
H142	H	-0.236963	-0.552972	1.301125
H143	H	-0.193803	-0.540696	1.360085
H144	H	-0.173003	-0.713061	1.360105
H145	H	-0.129912	-0.700652	1.419030
H146	H	0.589622	-0.719555	0.835218
