data_functionalizedCrystal
_audit_creation_method	'MofGen! by Chris Wilmer'
_symmetry_space_group_name_H-M	'P1'
_symmetry_Int_Tables_number	1
_symmetry_cell_setting	triclinic
loop_
_symmetry_equiv_pos_as_xyz
  x,y,z
_cell_length_a	19.288840
_cell_length_b	27.732048
_cell_length_c	18.366186
_cell_angle_alpha	90.010100
_cell_angle_beta	90.016305
_cell_angle_gamma	82.884335
loop_
_atom_site_label
_atom_site_type_symbol
_atom_site_fract_x
_atom_site_fract_y
_atom_site_fract_z
O1	O	0.920988	0.060241	0.060679
O2	O	0.718674	0.068388	0.060655
O3	O	0.826115	-0.006063	0.060654
O4	O	0.813548	0.134693	0.060680
O5	O	0.826096	-0.006065	-0.060446
O6	O	0.718656	0.068386	-0.060445
O7	O	0.920970	0.060239	-0.060420
Zn8	Zn	0.819810	0.064312	-0.079660
Zn9	Zn	0.819834	0.064315	0.079894
O10	O	0.813529	0.134691	-0.060419
C11	C	0.692790	0.068127	0.000102
C12	C	0.615690	0.067346	0.000092
C13	C	0.579499	0.066972	0.066105
C14	C	0.507057	0.066233	0.066114
C15	C	0.470810	0.065858	0.000106
C16	C	0.507010	0.066235	-0.065916
C17	C	0.579450	0.066979	-0.065923
C18	C	0.361659	0.036366	-0.050461
C19	C	0.289221	0.035619	-0.050451
C20	C	0.247381	0.063566	0.000124
C21	C	0.277989	0.092253	0.050703
C22	C	0.350429	0.092997	0.050696
C23	C	0.392261	0.065052	0.000106
C24	C	0.132640	0.062391	0.066152
C25	C	0.060195	0.061655	0.066158
C26	C	0.060151	0.061652	-0.065874
C27	C	0.132593	0.062393	-0.065878
C28	C	0.168833	0.062760	0.000137
C29	C	0.825842	-0.024072	0.000102
C30	C	0.825047	-0.077729	0.000096
C31	C	0.883537	-0.416371	0.000140
C32	C	0.880590	-0.618040	0.000150
O33	O	0.934074	-0.649137	0.000188
N34	N	0.816882	-0.637352	0.000142
C35	C	0.753907	-0.606243	0.000136
O36	O	0.699652	-0.627297	0.000137
C37	C	0.756855	-0.404576	0.000131
C38	C	0.820566	-0.385267	0.000132
C39	C	0.947244	-0.397062	0.000142
C40	C	0.947980	-0.346647	0.000136
C41	C	0.885009	-0.315543	0.000128
C42	C	0.821302	-0.334853	0.000126
C43	C	0.693880	-0.373469	0.000131
C44	C	0.694623	-0.323049	0.000131
C45	C	0.758334	-0.303740	0.000132
C46	C	0.759068	-0.253334	0.000111
N47	N	0.822776	-0.234022	0.000120
C48	C	0.885746	-0.265126	0.000128
C49	C	0.752363	-0.712122	0.000137
C50	C	0.751626	-0.762539	0.000137
C51	C	0.878310	-0.774331	0.000152
C52	C	0.879046	-0.723914	0.000147
C53	C	0.816071	-0.692810	0.000145
C54	C	0.887287	-0.159253	0.000114
C55	C	0.888018	-0.108834	0.000104
C56	C	0.761335	-0.097045	0.000092
C57	C	0.760604	-0.147460	0.000098
C58	C	0.823586	-0.178563	0.000111
O59	O	0.705612	-0.222208	0.000081
O60	O	0.939993	-0.244063	0.000143
C61	C	0.882801	-0.466785	0.000147
C62	C	0.819094	-0.486095	0.000145
C63	C	0.756124	-0.454991	0.000137
C64	C	0.818357	-0.536512	0.000145
C65	C	0.881327	-0.567616	0.000153
C66	C	0.945035	-0.548304	0.000161
C67	C	0.945771	-0.497890	0.000155
C68	C	0.692416	-0.474303	0.000129
C69	C	0.691685	-0.524718	0.000134
C70	C	0.754655	-0.555822	0.000142
C71	C	0.946854	0.060500	0.000134
C72	C	1.023954	0.061281	0.000149
C73	C	0.813802	0.152700	0.000134
C74	C	0.814597	0.206357	0.000145
N75	N	0.819798	0.064310	-0.188551
C76	C	0.861604	0.093553	-0.226634
C77	C	0.861615	0.093551	-0.302862
C78	C	0.819808	0.064313	-0.341003
C79	C	0.778000	0.035065	-0.302911
C80	C	0.777995	0.035064	-0.226685
C81	C	0.757203	0.063095	-0.461793
C82	C	0.757207	0.063100	-0.538018
C83	C	0.819824	0.064315	-0.576111
C84	C	0.882438	0.065535	-0.537970
C85	C	0.882434	0.065534	-0.461744
C86	C	0.819809	0.064311	-0.423658
C87	C	0.861645	0.093557	-0.696849
C88	C	0.861658	0.093552	-0.773078
C89	C	0.778036	0.035069	-0.773126
C90	C	0.778030	0.035071	-0.696898
C91	C	0.819833	0.064318	-0.658764
N92	N	0.819851	0.064313	0.188785
H93	H	0.477584	0.065929	0.119871
H94	H	0.933417	0.066527	-0.430693
H95	H	0.609002	0.067271	0.119860
H96	H	0.701079	-0.686801	0.000135
H97	H	0.708725	-0.163182	0.000077
H98	H	0.030729	0.061354	0.119916
H99	H	0.375347	0.116357	0.091877
H100	H	0.743997	0.011262	-0.804180
H101	H	0.706222	0.062108	-0.569066
H102	H	0.710066	-0.071711	0.000083
H103	H	0.996308	-0.573638	0.000165
H104	H	0.706208	0.062108	-0.430783
H105	H	0.743984	0.011261	-0.665891
H106	H	0.933427	0.066528	-0.568984
H107	H	0.895685	0.117371	-0.665799
H108	H	0.743961	0.011259	-0.333971
H109	H	0.743950	0.011250	-0.195678
H110	H	0.395720	0.013608	-0.091649
H111	H	0.938573	-0.184571	0.000127
H112	H	0.699746	-0.778255	0.000123
H113	H	0.643339	-0.297726	0.000131
H114	H	0.641136	-0.448982	0.000124
H115	H	0.477493	0.065931	-0.119660
H116	H	0.243924	0.115012	0.091884
H117	H	0.639799	-0.540434	0.000127
H118	H	0.608916	0.067284	-0.119680
H119	H	0.162060	0.062695	-0.119633
H120	H	0.939902	-0.093115	0.000103
H121	H	0.030639	0.061350	-0.119619
H122	H	0.895706	0.117364	-0.804084
H123	H	0.997652	-0.482173	0.000156
H124	H	0.162147	0.062695	0.119905
H125	H	0.930926	-0.708196	0.000149
H126	H	0.264306	0.012258	-0.091632
H127	H	0.929583	-0.799665	0.000159
H128	H	0.999860	-0.330931	0.000139
H129	H	0.998525	-0.422382	0.000151
H130	H	0.641999	-0.389181	0.000134
H131	H	0.895659	0.117365	-0.333875
H132	H	0.895647	0.117366	-0.195590
