data_functionalizedCrystal
_audit_creation_method	'MofGen! by Chris Wilmer'
_symmetry_space_group_name_H-M	'P1'
_symmetry_Int_Tables_number	1
_symmetry_cell_setting	triclinic
loop_
_symmetry_equiv_pos_as_xyz
  x,y,z
_cell_length_a	11.792241
_cell_length_b	11.792241
_cell_length_c	10.065875
_cell_angle_alpha	98.849501
_cell_angle_beta	81.196375
_cell_angle_gamma	84.193416
loop_
_atom_site_label
_atom_site_type_symbol
_atom_site_fract_x
_atom_site_fract_y
_atom_site_fract_z
O1	O	1.523393	0.139006	-0.113360
O2	O	2.023393	0.639006	0.386640
O3	O	1.193057	0.155034	-0.113392
O4	O	1.693057	0.655034	0.386608
O5	O	1.366240	-0.018149	-0.113365
O6	O	1.866240	0.481851	0.386635
O7	O	1.350210	0.312189	-0.113386
O8	O	1.850210	0.812189	0.386614
O9	O	1.333217	0.015008	0.113618
O10	O	1.833217	0.515008	0.613618
O11	O	1.160034	0.188191	0.113592
O12	O	1.660034	0.688191	0.613592
O13	O	1.490371	0.172163	0.113624
O14	O	1.990371	0.672163	0.613624
Zn15	Zn	1.319959	0.185441	0.149647
Zn16	Zn	1.819959	0.685441	0.649647
Zn17	Zn	1.363468	0.141756	-0.149414
Zn18	Zn	1.863468	0.641756	0.350586
O19	O	1.317187	0.345346	0.113598
O20	O	1.817187	0.845346	0.613598
C21	C	1.134255	0.170605	0.000096
C22	C	1.634255	0.670605	0.500096
C23	C	1.008243	0.167589	0.000084
C24	C	1.508243	0.667589	0.500084
C25	C	0.777525	0.162052	0.000124
C26	C	1.277525	0.662052	0.500124
C27	C	0.905914	0.165128	0.000102
C28	C	1.405914	0.665128	0.500102
C29	C	1.348722	-0.043862	0.000126
C30	C	1.848722	0.456138	0.500126
C31	C	1.345708	-0.169875	0.000124
C32	C	1.845708	0.330125	0.500124
C33	C	1.340168	-0.400591	0.000101
C34	C	1.840168	0.099409	0.500101
C35	C	1.343246	-0.272204	0.000114
C36	C	1.843246	0.227796	0.500114
C37	C	1.549173	0.156592	0.000133
C38	C	2.049173	0.656592	0.500133
C39	C	1.675186	0.159606	0.000136
C40	C	2.175186	0.659606	0.500136
C41	C	1.334706	0.371058	0.000103
C42	C	1.834706	0.871058	0.500103
C43	C	1.337722	0.497071	0.000096
C44	C	1.837722	0.997071	0.500096
N45	N	1.290274	0.215255	0.353748
N46	N	1.790274	0.715255	0.853748
N47	N	1.393163	0.111933	-0.353515
N48	N	1.893163	0.611933	0.146485
C49	C	1.353133	0.152122	0.421536
C50	C	1.853133	0.652122	0.921536
C51	C	1.330295	0.175076	0.578700
C52	C	1.830295	0.675076	1.078700
H53	H	1.423852	0.081072	0.363222
H54	H	1.923852	0.581072	0.863222
O55	O	1.245983	0.259971	0.648101
O56	O	1.745983	0.759971	1.148101
C57	C	1.270485	0.367315	0.613306
C58	C	1.770485	0.867315	1.113306
H59	H	1.329247	0.352274	0.509519
H60	H	1.829247	0.852274	1.009519
H61	H	1.186329	0.422171	0.608571
H62	H	1.686329	0.922171	1.108571
H63	H	1.315689	0.414303	0.693690
H64	H	1.815689	0.914303	1.193690
O65	O	1.477281	0.026915	0.576924
O66	O	1.977281	0.526915	1.076924
C67	C	1.427578	-0.055298	0.494512
C68	C	1.927578	0.444702	0.994512
H69	H	1.342339	-0.013376	0.473119
H70	H	1.842339	0.486624	0.973119
H71	H	1.489316	-0.087990	0.394023
H72	H	1.989316	0.412010	0.894023
H73	H	1.410888	-0.131006	0.549749
H74	H	1.910888	0.368994	1.049749
O75	O	1.205828	0.299879	0.423457
O76	O	1.705828	0.799879	0.923457
C77	C	1.123285	0.250837	0.506096
C78	C	1.623285	0.750837	1.006096
H79	H	1.164638	0.165313	0.527358
H80	H	1.664638	0.665313	1.027358
H81	H	1.091216	0.312729	0.606636
H82	H	1.591216	0.812729	1.106636
H83	H	1.047255	0.234814	0.451123
H84	H	1.547255	0.734814	0.951123
