data_functionalizedCrystal
_audit_creation_method	'MofGen! by Chris Wilmer'
_symmetry_space_group_name_H-M	'P1'
_symmetry_Int_Tables_number	1
_symmetry_cell_setting	triclinic
loop_
_symmetry_equiv_pos_as_xyz
  x,y,z
_cell_length_a	13.635800
_cell_length_b	19.453172
_cell_length_c	19.453114
_cell_angle_alpha	83.682936
_cell_angle_beta	101.709288
_cell_angle_gamma	78.289512
loop_
_atom_site_label
_atom_site_type_symbol
_atom_site_fract_x
_atom_site_fract_y
_atom_site_fract_z
V1	V	1.999002	-0.097914	0.219330
O2	O	1.997549	0.003953	0.214817
O3	O	1.970516	-0.193423	0.218154
O4	O	1.970513	-0.096738	0.314839
O5	O	1.997552	-0.093402	0.117463
V6	V	2.241928	-0.085691	0.207106
O7	O	2.127079	-0.124727	0.246143
O8	O	2.338950	-0.058877	0.180293
O9	O	2.158811	0.009819	0.208281
O10	O	2.302080	-0.187557	0.211619
O11	O	2.302076	-0.090203	0.308973
O12	O	2.158814	-0.086867	0.111597
V13	V	2.499002	-0.097914	0.219330
O14	O	2.497549	0.003953	0.214817
O15	O	2.470516	-0.193423	0.218154
O16	O	2.470513	-0.096738	0.314839
O17	O	2.497552	-0.093402	0.117463
V18	V	2.741928	-0.085691	0.207106
O19	O	2.627079	-0.124727	0.246143
O20	O	2.838950	-0.058877	0.180293
O21	O	2.658811	0.009819	0.208281
O22	O	2.802080	-0.187557	0.211619
O23	O	2.802076	-0.090203	0.308973
O24	O	2.658814	-0.086867	0.111597
C25	C	1.892112	-0.216696	0.214778
C26	C	1.909436	-0.294778	0.214454
C27	C	2.123950	-0.855852	0.216325
C28	C	2.107680	-0.782485	0.216625
C29	C	2.008641	-0.742102	0.212598
C30	C	1.925861	-0.775088	0.208253
C31	C	1.942131	-0.848452	0.207947
N32	N	1.925297	-0.630535	0.250130
N33	N	1.909848	-0.560842	0.250423
C34	C	1.959616	-0.521058	0.213521
N35	N	2.025433	-0.553601	0.176325
N36	N	2.040887	-0.623301	0.176035
C37	C	1.990989	-0.662549	0.212930
C38	C	2.024750	-0.408526	0.218186
C39	C	2.008475	-0.335157	0.218482
C40	C	1.826655	-0.327762	0.210117
C41	C	1.842930	-0.401129	0.209815
C42	C	1.941980	-0.441507	0.213853
C43	C	1.892108	-0.093364	0.338108
C44	C	1.909428	-0.093034	0.416189
C45	C	2.068885	0.033088	0.211656
C46	C	2.041181	0.111169	0.211984
C47	C	2.068890	-0.090243	0.088324
C48	C	2.041190	-0.090569	0.010242
C49	C	2.392112	-0.216696	0.214778
C50	C	2.409436	-0.294778	0.214454
C51	C	2.392108	-0.093364	0.338108
C52	C	2.409428	-0.093034	0.416189
C53	C	2.008297	-0.096405	0.456457
C54	C	2.024572	-0.096096	0.529823
C55	C	1.941974	-0.092429	0.562920
C56	C	1.843089	-0.089054	0.522641
C57	C	1.826816	-0.089356	0.449276
N58	N	1.910438	-0.129523	0.681834
N59	N	1.925903	-0.129238	0.751529
C60	C	1.990998	-0.091516	0.783965
N61	N	2.040061	-0.054100	0.744076
N62	N	2.024598	-0.054389	0.674375
C63	C	1.959609	-0.092100	0.642472
C64	C	2.107520	-0.094551	0.903785
C65	C	2.123790	-0.094237	0.977151
C66	C	1.942306	-0.087202	0.969969
C67	C	1.926038	-0.087509	0.896603
C68	C	2.008649	-0.091187	0.863516
C69	C	2.568885	0.033088	0.211656
C70	C	2.541181	0.111169	0.211984
C71	C	2.568890	-0.090243	0.088324
C72	C	2.541190	-0.090569	0.010242
C73	C	2.508316	-0.335040	0.217823
C74	C	2.524610	-0.408409	0.217529
C75	C	2.442022	-0.441514	0.213861
C76	C	2.343135	-0.401247	0.210494
C77	C	2.326843	-0.327881	0.210793
C78	C	2.508304	-0.096393	0.456449
C79	C	2.524589	-0.096075	0.529813
C80	C	2.441999	-0.092402	0.562918
C81	C	2.343114	-0.089040	0.522652
C82	C	2.326829	-0.089354	0.449288
C83	C	2.614794	0.151430	0.208617
C84	C	2.588772	0.224798	0.208914
C85	C	2.489137	0.257903	0.212584
C86	C	2.415517	0.217637	0.215950
C87	C	2.441538	0.144271	0.215647
C88	C	2.441549	-0.094234	-0.022844
C89	C	2.415505	-0.094532	-0.096211
C90	C	2.489104	-0.091170	-0.136490
C91	C	2.588751	-0.087502	-0.103399
C92	C	2.614793	-0.087200	-0.030034
H93	H	2.204602	-0.888724	0.219611
H94	H	2.175082	-0.755628	0.220155
C95	C	1.752258	-0.085125	0.559057
H96	H	1.691047	-0.083187	0.524568
H97	H	1.765632	-0.126068	0.594051
H98	H	1.744051	-0.043711	0.581013
H99	H	2.455302	-0.501254	0.213618
C100	C	2.460522	0.338604	0.212920
H101	H	2.390639	0.352560	0.215583
H102	H	2.503565	0.349966	0.252861
H103	H	2.469699	0.363075	0.170512
C104	C	2.252277	-0.085009	0.559075
H105	H	2.276151	-0.085313	0.608535
H106	H	2.201606	-0.042446	0.539030
H107	H	2.223048	-0.124797	0.552143
H108	H	2.381590	0.111495	0.218396
H109	H	2.648730	0.257573	0.206175
C110	C	2.669707	-0.083814	-0.147708
H111	H	2.732784	-0.081584	-0.117501
H112	H	2.680063	-0.124962	-0.169919
H113	H	2.646221	-0.042611	-0.183034
C114	C	1.751887	-0.437411	0.205041
H115	H	1.775759	-0.486886	0.205428
H116	H	1.721966	-0.430401	0.244516
H117	H	1.701769	-0.417333	0.162219
C118	C	2.305929	0.254058	0.219995
H119	H	2.300990	0.303516	0.219702
H120	H	2.257655	0.247125	0.180224
H121	H	2.291543	0.234009	0.262572
H122	H	2.334362	-0.097518	-0.123142
H123	H	2.075567	-0.099397	0.429523
H124	H	2.246312	-0.086620	0.416514
C125	C	2.218070	-0.283595	0.207076
H126	H	2.220184	-0.235159	0.207782
H127	H	2.172762	-0.287603	0.164408
H128	H	2.194163	-0.300701	0.246757
H129	H	2.075879	-0.308307	0.222013
C130	C	2.459927	-0.092064	0.643618
H131	H	2.530649	-0.094599	0.662851
H132	H	2.419396	-0.049526	0.652344
H133	H	2.440817	-0.131875	0.665450
H134	H	1.845530	-0.084772	0.863817
C135	C	1.816922	-0.730669	0.203827
H136	H	1.819088	-0.682253	0.204639
H137	H	1.772128	-0.734640	0.160912
H138	H	1.792347	-0.747707	0.243210
H139	H	2.275897	-0.428212	0.207507
C140	C	2.599163	-0.100430	0.420047
H141	H	2.660374	-0.102377	0.454539
H142	H	2.607305	-0.141870	0.398135
H143	H	2.585871	-0.059520	0.385019
H144	H	2.105087	-0.098844	0.562617
H145	H	2.381608	-0.096972	0.009942
H146	H	2.695932	-0.084219	-0.003101
C147	C	2.460450	-0.091512	-0.217188
H148	H	2.390567	-0.094184	-0.231118
H149	H	2.469618	-0.049114	-0.241675
H150	H	2.503478	-0.131464	-0.228553
C151	C	2.724392	0.115026	0.204577
H152	H	2.729363	0.065563	0.204884
H153	H	2.738782	0.135079	0.162008
H154	H	2.772651	0.121970	0.244357
C155	C	1.851083	-0.884731	0.203179
H156	H	1.789767	-0.850176	0.200827
H157	H	1.843545	-0.906670	0.161742
H158	H	1.863761	-0.919725	0.244040
H159	H	2.204302	-0.096977	1.009936
H160	H	2.605113	-0.098815	0.562588
C161	C	2.198380	-0.098587	0.867382
H162	H	2.174531	-0.098295	0.817921
H163	H	2.227621	-0.058810	0.874324
H164	H	2.249038	-0.141159	0.887436
H165	H	2.575574	-0.308095	0.220806
H166	H	2.105401	-0.441404	0.221470
H167	H	1.746302	-0.086606	0.416488
C168	C	1.717715	-0.283349	0.205686
H169	H	1.719879	-0.234932	0.206493
H170	H	1.672924	-0.287323	0.162771
H171	H	1.693138	-0.300383	0.245069
H172	H	1.875052	-0.084211	0.996914
H173	H	2.605135	-0.441183	0.220270
