data_functionalizedCrystal
_audit_creation_method	'MofGen! by Chris Wilmer'
_symmetry_space_group_name_H-M	'P1'
_symmetry_Int_Tables_number	1
_symmetry_cell_setting	triclinic
loop_
_symmetry_equiv_pos_as_xyz
  x,y,z
_cell_length_a	29.999520
_cell_length_b	29.998686
_cell_length_c	29.995014
_cell_angle_alpha	60.005185
_cell_angle_beta	60.010401
_cell_angle_gamma	59.993433
loop_
_atom_site_label
_atom_site_type_symbol
_atom_site_fract_x
_atom_site_fract_y
_atom_site_fract_z
O1	O	0.061772	-0.651300	0.544623
O2	O	0.561772	-0.151300	1.044623
O3	O	0.023267	-0.507084	0.438819
O4	O	0.523267	-0.007084	0.938819
O5	O	0.114589	-0.598332	0.438743
O6	O	0.614589	-0.098332	0.938743
O7	O	-0.029550	-0.560051	0.544699
O8	O	0.470450	-0.060051	1.044699
O9	O	0.144886	-0.568039	0.468961
O10	O	0.644886	-0.068039	0.968961
O11	O	0.053564	-0.476791	0.469038
O12	O	0.553564	0.023209	0.969038
O13	O	0.092069	-0.621007	0.574841
O14	O	0.592069	-0.121007	1.074841
Zn15	Zn	0.077627	-0.544089	0.526737
Zn16	Zn	0.577627	-0.044089	1.026737
Zn17	Zn	0.037709	-0.584002	0.486923
Zn18	Zn	0.537709	-0.084002	0.986923
O19	O	0.000748	-0.529758	0.574918
O20	O	0.500748	-0.029758	1.074918
N21	N	0.104871	-0.516854	0.553912
N22	N	0.604871	-0.016854	1.053912
N23	N	0.010470	-0.611242	0.459748
N24	N	0.510470	-0.111242	0.959748
C25	C	0.143162	-0.478782	0.827124
C26	C	0.643162	0.021218	1.327124
C27	C	0.378203	-0.478734	0.591892
C28	C	0.878203	0.021266	1.091892
C29	C	0.143005	-0.478752	0.591997
C30	C	0.643005	0.021248	1.091997
C31	C	0.142986	-0.243586	0.592008
C32	C	0.642986	0.256414	1.092008
C33	C	0.180857	-0.357087	0.629814
C34	C	0.680857	0.142913	1.129814
C35	C	0.180866	-0.440920	0.629807
C36	C	0.680866	0.059080	1.129807
C37	C	0.201840	-0.419964	0.650755
C38	C	0.701840	0.080036	1.150755
C39	C	0.293272	-0.404201	0.602606
C40	C	0.793272	0.095799	1.102606
C41	C	0.350426	-0.423248	0.583534
C42	C	0.850426	0.076752	1.083534
C43	C	0.350451	-0.515727	0.618798
C44	C	0.850451	-0.015727	1.118798
C45	C	0.293297	-0.496678	0.637872
C46	C	0.793297	0.003322	1.137872
C47	C	0.194628	-0.328499	0.573626
C48	C	0.694628	0.171501	1.073626
C49	C	0.175551	-0.271340	0.554591
C50	C	0.675551	0.228660	1.054591
C51	C	0.128936	-0.271362	0.647935
C52	C	0.628936	0.228638	1.147935
C53	C	0.148014	-0.328521	0.666970
C54	C	0.648014	0.171479	1.166970
C55	C	0.124672	-0.427119	0.643641
C56	C	0.624672	0.072881	1.143641
C57	C	0.105611	-0.446170	0.624592
C58	C	0.605611	0.053830	1.124592
C59	C	0.198934	-0.492820	0.577889
C60	C	0.698934	0.007180	1.077889
C61	C	0.217998	-0.473770	0.596931
C62	C	0.717998	0.026230	1.096931
C63	C	0.124740	-0.427136	0.742229
C64	C	0.624740	0.072864	1.242229
C65	C	0.105728	-0.446202	0.799386
C66	C	0.605728	0.053798	1.299386
C67	C	0.199085	-0.492863	0.799337
C68	C	0.699085	0.007137	1.299337
C69	C	0.218096	-0.473798	0.742178
C70	C	0.718096	0.026202	1.242178
C71	C	0.180923	-0.440933	0.713626
C72	C	0.680923	0.059067	1.213626
C73	C	0.264710	-0.440915	0.629773
C74	C	0.764710	0.059085	1.129773
C75	C	0.121509	-0.499370	0.889991
C76	C	0.621509	0.000630	1.389991
C77	C	0.441068	-0.498953	0.570621
C78	C	0.941068	0.001047	1.070621
C79	C	0.121297	-0.499349	0.571429
C80	C	0.621297	0.000651	1.071429
C81	C	0.121653	-0.180715	0.571802
C82	C	0.621653	0.319285	1.071802
C83	C	-0.111071	-0.648912	0.421584
C84	C	0.388929	-0.148912	0.921584
C85	C	-0.027286	-0.649018	0.421777
C86	C	0.472714	-0.149018	0.921777
C87	C	-0.048200	-0.669944	0.400740
C88	C	0.451800	-0.169944	0.900740
C89	C	-0.064036	-0.761340	0.448814
C90	C	0.435964	-0.261340	0.948814
C91	C	-0.045033	-0.818500	0.467893
C92	C	0.454967	-0.318500	0.967893
C93	C	0.047447	-0.818609	0.432797
C94	C	0.547447	-0.318609	0.932797
C95	C	0.028444	-0.761451	0.413717
C96	C	0.528444	-0.261451	0.913717
C97	C	-0.139731	-0.662677	0.477755
C98	C	0.360269	-0.162677	0.977755
C99	C	-0.196885	-0.643554	0.496701
C100	C	0.303115	-0.143554	0.996701
C101	C	-0.196717	-0.596907	0.403303
C102	C	0.303283	-0.096907	0.903303
C103	C	-0.139562	-0.616030	0.384357
C104	C	0.360438	-0.116030	0.884357
C105	C	-0.041053	-0.592827	0.407952
C106	C	0.458947	-0.092827	0.907952
C107	C	-0.022041	-0.573809	0.427083
C108	C	0.477959	-0.073809	0.927083
C109	C	0.024504	-0.667167	0.473848
C110	C	0.524504	-0.167167	0.973848
C111	C	0.005492	-0.686188	0.454725
C112	C	0.505492	-0.186188	0.954725
C113	C	-0.040886	-0.592836	0.309259
C114	C	0.459114	-0.092836	0.809259
C115	C	-0.021740	-0.573821	0.252102
C116	C	0.478260	-0.073821	0.752102
C117	C	0.024886	-0.667185	0.252163
C118	C	0.524886	-0.167185	0.752163
C119	C	0.005743	-0.686199	0.309322
C120	C	0.505743	-0.186199	0.809322
C121	C	-0.027145	-0.649023	0.337868
C122	C	0.472855	-0.149023	0.837868
C123	C	-0.027299	-0.732818	0.421728
C124	C	0.472701	-0.232818	0.921728
N125	N	0.492511	-0.516826	0.553742
N126	N	0.992511	-0.016826	1.053742
O127	O	0.679283	-0.525926	0.419277
O128	O	1.179283	-0.025926	0.919277
O129	O	0.679465	-0.632059	0.563349
O130	O	1.179465	-0.132059	1.063349
O131	O	0.679393	-0.631817	0.471975
O132	O	1.179393	-0.131817	0.971975
O133	O	0.679355	-0.526168	0.510650
O134	O	1.179355	-0.026168	1.010650
O135	O	0.588593	-0.601610	0.502313
O136	O	1.088593	-0.101610	1.002313
O137	O	0.588665	-0.601852	0.593686
O138	O	1.088665	-0.101852	1.093686
O139	O	0.588483	-0.495720	0.449614
O140	O	1.088483	0.004280	0.949614
Zn141	Zn	0.574158	-0.543990	0.526467
Zn142	Zn	1.074158	-0.043990	1.026467
Zn143	Zn	0.693790	-0.583788	0.486496
Zn144	Zn	1.193790	-0.083788	0.986496
O145	O	0.588555	-0.495962	0.540987
O146	O	1.088555	0.004038	1.040987
N147	N	0.775436	-0.610952	0.459215
N148	N	1.275436	-0.110952	0.959215
N149	N	0.104844	-0.129269	0.553931
N150	N	0.604844	0.370731	1.053931
O151	O	-0.029548	0.057600	0.544709
O152	O	0.470452	0.557600	1.044709
O153	O	0.114530	0.057617	0.438578
O154	O	0.614530	0.557617	0.938578
O155	O	0.023130	0.057594	0.438850
O156	O	0.523130	0.557594	0.938850
O157	O	0.061852	0.057623	0.544437
O158	O	0.561852	0.557623	1.044437
O159	O	0.053431	-0.033213	0.469115
O160	O	0.553431	0.466787	0.969115
O161	O	0.144831	-0.033190	0.468843
O162	O	0.644831	0.466810	0.968843
O163	O	0.000753	-0.033207	0.574974
O164	O	0.500753	0.466793	1.074974
Zn165	Zn	0.077603	-0.047616	0.526714
Zn166	Zn	0.577603	0.452384	1.026714
Zn167	Zn	0.037680	0.072026	0.486838
Zn168	Zn	0.537680	0.572026	0.986838
O169	O	0.092153	-0.033184	0.574702
O170	O	0.592153	0.466816	1.074702
N171	N	0.010432	0.153679	0.459622
N172	N	0.510432	0.653679	0.959622
N173	N	0.105130	-0.516904	0.941437
N174	N	0.605130	-0.016904	1.441437
O175	O	0.095923	-0.651280	1.128292
O176	O	0.595923	-0.151280	1.628292
O177	O	-0.010184	-0.507155	1.128318
O178	O	0.489816	-0.007155	1.628318
O179	O	-0.009938	-0.598539	1.128284
O180	O	0.490062	-0.098539	1.628284
O181	O	0.095677	-0.559897	1.128326
O182	O	0.595677	-0.059897	1.628326
O183	O	0.020315	-0.568257	1.037481
O184	O	0.520315	-0.068257	1.537481
O185	O	0.020068	-0.476874	1.037515
O186	O	0.520068	0.023126	1.537515
O187	O	0.126176	-0.620999	1.037489
O188	O	0.626176	-0.120999	1.537489
Zn189	Zn	0.077925	-0.544128	1.023085
Zn190	Zn	0.577925	-0.044128	1.523085
Zn191	Zn	0.038066	-0.584026	1.142722
Zn192	Zn	0.538066	-0.084026	1.642722
O193	O	0.125929	-0.529616	1.037523
O194	O	0.625929	-0.029616	1.537523
N195	N	0.010860	-0.611256	1.224371
N196	N	0.510860	-0.111256	1.724371
C197	C	0.034807	-0.473765	0.439352
C198	C	0.534807	0.026235	0.939352
C199	C	0.147897	-0.586765	0.439257
C200	C	0.647897	-0.086765	0.939257
C201	C	0.080529	-0.654326	0.574308
C202	C	0.580529	-0.154326	1.074308
C203	C	-0.032561	-0.541326	0.574403
C204	C	0.467439	-0.041326	1.074403
C205	C	0.634087	-0.631571	0.596668
C206	C	1.134087	-0.131571	1.096668
C207	C	0.633999	-0.631272	0.483513
C208	C	1.133999	-0.131272	0.983513
C209	C	0.633858	-0.496206	0.416295
C210	C	1.133858	0.003794	0.916295
C211	C	0.633949	-0.496507	0.529449
C212	C	1.133949	0.003493	1.029449
C213	C	0.147793	0.012327	0.439058
C214	C	0.647793	0.512327	0.939058
C215	C	0.034644	0.012187	0.439432
C216	C	0.534644	0.512187	0.939432
C217	C	-0.032548	0.012195	0.574457
C218	C	0.467452	0.512195	1.074457
C219	C	0.080639	0.012222	0.574120
C220	C	0.580639	0.512222	1.074120
C221	C	-0.009670	-0.473857	1.082920
C222	C	0.490330	0.026143	1.582920
C223	C	-0.009359	-0.587018	1.082860
C224	C	0.490641	-0.087018	1.582860
C225	C	0.125662	-0.654297	1.082887
C226	C	0.625662	-0.154297	1.582887
C227	C	0.125358	-0.541129	1.082927
C228	C	0.625358	-0.041129	1.582927
H229	H	0.059977	-0.434960	0.822668
H230	H	0.559977	0.065040	1.322668
H231	H	0.088930	0.012231	0.607291
H232	H	0.588930	0.512231	1.107291
O233	O	0.634126	-0.671376	0.646007
O234	O	1.134126	-0.171376	1.146007
C235	C	0.634172	-0.718386	0.645979
C236	C	1.134172	-0.218386	1.145979
H237	H	0.616948	-0.706288	0.613666
H238	H	1.116948	-0.206288	1.113666
H239	H	0.677747	-0.748040	0.636411
H240	H	1.177747	-0.248040	1.136411
C241	C	0.619780	-0.760877	0.742214
C242	C	1.119780	-0.260877	1.242214
C243	C	0.598621	-0.746019	0.702529
C244	C	1.098621	-0.246019	1.202529
H245	H	0.597853	-0.777925	0.777097
H246	H	1.097853	-0.277925	1.277097
H247	H	0.619751	-0.729207	0.742233
H248	H	1.119751	-0.229207	1.242233
H249	H	0.656093	-0.785587	0.734233
H250	H	1.156093	-0.285587	1.234233
H251	H	0.562312	-0.721305	0.710507
H252	H	1.062312	-0.221305	1.210507
H253	H	0.598643	-0.777685	0.702513
H254	H	1.098643	-0.277685	1.202513
O255	O	0.634039	-0.670936	0.473727
O256	O	1.134039	-0.170936	0.973727
C257	C	0.634091	-0.718060	0.520601
C258	C	1.134091	-0.218060	1.020601
H259	H	0.651303	-0.717585	0.546657
H260	H	1.151303	-0.217585	1.046657
H261	H	0.590547	-0.718743	0.545268
H262	H	1.090547	-0.218743	1.045268
C263	C	0.648578	-0.769834	0.471281
C264	C	1.148578	-0.269834	0.971281
C265	C	0.669723	-0.769254	0.503282
C266	C	1.169723	-0.269254	1.003282
H267	H	0.670555	-0.801414	0.460599
H268	H	1.170555	-0.301414	0.960599
H269	H	0.648541	-0.738086	0.439701
H270	H	1.148541	-0.238086	0.939701
H271	H	0.612291	-0.770401	0.491842
H272	H	1.112291	-0.270401	0.991842
H273	H	0.706006	-0.768680	0.482718
H274	H	1.206006	-0.268680	0.982718
H275	H	0.669766	-0.801004	0.534858
H276	H	1.169766	-0.301004	1.034858
H277	H	0.221368	-0.351757	0.543370
H278	H	0.721368	0.148243	1.043370
H279	H	0.263847	-0.485039	0.718893
H280	H	0.763847	0.014961	1.218893
H281	H	-0.042983	-0.432464	1.082928
H282	H	0.457017	0.067536	1.582928
H283	H	0.633799	-0.462884	0.374920
H284	H	1.133799	0.037116	0.874920
O285	O	0.633910	-0.456963	0.539416
O286	O	1.133910	0.043037	1.039416
C287	C	0.633982	-0.476859	0.593069
C288	C	1.133982	0.023141	1.093069
H289	H	0.616832	-0.511927	0.618903
H290	H	1.116832	-0.011927	1.118903
H291	H	0.677555	-0.492064	0.592232
H292	H	1.177555	0.007936	1.092232
C293	C	0.619428	-0.387611	0.586180
C294	C	1.119428	0.112389	1.086180
C295	C	0.598360	-0.430679	0.617911
C296	C	1.098360	0.069321	1.117911
H297	H	0.597457	-0.359126	0.601503
H298	H	1.097457	0.140874	1.101503
H299	H	0.619382	-0.374207	0.550032
H300	H	1.119382	0.125793	1.050032
H301	H	0.655738	-0.400289	0.585485
H302	H	1.155738	0.099711	1.085485
H303	H	0.562053	-0.418003	0.618600
H304	H	1.062053	0.081997	1.118600
H305	H	0.598399	-0.444081	0.654059
H306	H	1.098399	0.055919	1.154059
H307	H	0.158977	-0.695688	1.082873
H308	H	0.658977	-0.195688	1.582873
H309	H	-0.042525	-0.595273	1.082811
H310	H	0.457475	-0.095273	1.582811
O311	O	0.197286	-0.596407	0.399541
O312	O	0.697286	-0.096407	0.899541
C313	C	0.221501	-0.558923	0.384851
C314	C	0.721501	-0.058923	0.884851
H315	H	0.188418	-0.521147	0.395847
H316	H	0.688418	-0.021147	0.895847
H317	H	0.251274	-0.578700	0.407796
H318	H	0.751274	-0.078700	0.907796
C319	C	0.293057	-0.588689	0.309449
C320	C	0.793057	-0.088689	0.809449
C321	C	0.252423	-0.542289	0.322950
C322	C	0.752423	-0.042289	0.822950
H323	H	0.312133	-0.578430	0.271266
H324	H	0.812133	-0.078430	0.771266
H325	H	0.276744	-0.613944	0.319346
H326	H	0.776744	-0.113944	0.819346
H327	H	0.317862	-0.605165	0.328574
H328	H	0.817862	-0.105165	0.828574
H329	H	0.227615	-0.525818	0.303830
H330	H	0.727615	-0.025818	0.803830
H331	H	0.268733	-0.517031	0.313048
H332	H	0.768733	-0.017031	0.813048
O333	O	0.164892	-0.531171	1.082910
O334	O	0.664892	-0.031171	1.582910
C335	C	0.145001	-0.477505	1.082937
C336	C	0.645001	0.022495	1.582937
H337	H	0.109949	-0.451667	1.065748
H338	H	0.609949	0.048333	1.565748
H339	H	0.129780	-0.478311	1.126504
H340	H	0.629780	0.021689	1.626504
C341	C	0.234235	-0.484429	1.068447
C342	C	0.734235	0.015571	1.568447
C343	C	0.191186	-0.452693	1.047330
C344	C	0.691186	0.047307	1.547330
H345	H	0.262724	-0.469124	1.046485
H346	H	0.762724	0.030876	1.546485
H347	H	0.247636	-0.520586	1.068430
H348	H	0.747636	-0.020586	1.568430
H349	H	0.221544	-0.485098	1.104752
H350	H	0.721544	0.014902	1.604752
H351	H	0.203876	-0.452030	1.011029
H352	H	0.703876	0.047970	1.511029
H353	H	0.177788	-0.416535	1.047340
H354	H	0.677788	0.083465	1.547340
O355	O	0.090248	-0.703750	0.613972
O356	O	0.590248	-0.203750	1.113972
C357	C	0.052798	-0.728006	0.628667
C358	C	0.552798	-0.228006	1.128667
H359	H	0.014986	-0.694939	0.617729
H360	H	0.514986	-0.194939	1.117729
H361	H	0.072575	-0.757737	0.605676
H362	H	0.572575	-0.257737	1.105676
C363	C	0.082694	-0.799623	0.703984
C364	C	0.582694	-0.299623	1.203984
C365	C	0.036250	-0.759009	0.690554
C366	C	0.536250	-0.259009	1.190554
H367	H	0.072487	-0.818750	0.742158
H368	H	0.572487	-0.318750	1.242158
H369	H	0.107926	-0.783283	0.694083
H370	H	0.607926	-0.283283	1.194083
H371	H	0.099170	-0.824393	0.684820
H372	H	0.599170	-0.324393	1.184820
H373	H	0.019778	-0.734236	0.709712
H374	H	0.519778	-0.234236	1.209712
H375	H	0.011014	-0.775346	0.700460
H376	H	0.511014	-0.275346	1.200460
H377	H	-0.073962	-0.533167	0.607674
H378	H	0.426038	-0.033167	1.107674
H379	H	0.026351	0.012184	0.406260
H380	H	0.526351	0.512184	0.906260
O381	O	0.088553	-0.395236	0.714578
O382	O	0.588553	0.104764	1.214578
C383	C	0.034887	-0.387132	0.752081
C384	C	0.534887	0.112868	1.252081
H385	H	0.035019	-0.421597	0.792816
H386	H	0.535019	0.078403	1.292816
H387	H	0.018512	-0.346417	0.758168
H388	H	0.518512	0.153583	1.258168
C389	C	-0.001955	-0.344394	0.679765
C390	C	0.498045	0.155606	1.179765
C391	C	-0.001793	-0.386728	0.729795
C392	C	0.498207	0.113272	1.229795
H393	H	-0.024582	-0.344142	0.666018
H394	H	0.475418	0.155858	1.166018
H395	H	0.034200	-0.349852	0.654498
H396	H	0.534200	0.150148	1.154498
H397	H	-0.015600	-0.310469	0.684844
H398	H	0.484400	0.189531	1.184844
H399	H	0.011857	-0.420652	0.724714
H400	H	0.511857	0.079348	1.224714
H401	H	-0.037948	-0.381276	0.755061
H402	H	0.462052	0.118724	1.255061
O403	O	0.197074	0.012661	0.399257
O404	O	0.697074	0.512661	0.899257
C405	C	0.231036	0.012762	0.418866
C406	C	0.731036	0.512762	0.918866
H407	H	0.204776	0.029775	0.454040
H408	H	0.704776	0.529775	0.954040
H409	H	0.258816	-0.030743	0.433831
H410	H	0.758816	0.469257	0.933831
C411	C	0.298333	0.027766	0.329352
C412	C	0.798333	0.527766	0.829352
C413	C	0.266080	0.048666	0.372551
C414	C	0.766080	0.548666	0.872551
H415	H	0.319952	0.049910	0.300782
H416	H	0.819952	0.549910	0.800782
H417	H	0.275453	0.027695	0.316141
H418	H	0.775453	0.527695	0.816141
H419	H	0.321478	-0.008488	0.341830
H420	H	0.821478	0.491512	0.841830
H421	H	0.242931	0.084916	0.360073
H422	H	0.742931	0.584916	0.860073
H423	H	0.288957	0.048743	0.385758
H424	H	0.788957	0.548743	0.885758
O425	O	-0.081951	0.012224	0.614138
O426	O	0.418049	0.512224	1.114138
C427	C	-0.115939	0.012202	0.594503
C428	C	0.384061	0.512202	1.094503
H429	H	-0.101168	0.029382	0.547996
H430	H	0.398832	0.529382	1.047996
H431	H	-0.114464	-0.031363	0.608395
H432	H	0.385536	0.468637	1.108395
C433	C	-0.193156	0.026722	0.674232
C434	C	0.306844	0.526722	1.174232
C435	C	-0.175017	0.047827	0.617112
C436	C	0.324983	0.547827	1.117112
H437	H	-0.229598	0.048694	0.688180
H438	H	0.270402	0.548694	1.188180
H439	H	-0.170257	0.026734	0.687462
H440	H	0.329743	0.526734	1.187462
H441	H	-0.191921	-0.009583	0.685801
H442	H	0.308079	0.490417	1.185801
H443	H	-0.176245	0.084127	0.605543
H444	H	0.323755	0.584127	1.105543
H445	H	-0.197917	0.047821	0.603880
H446	H	0.302083	0.547821	1.103880
H447	H	0.051198	-0.697438	0.500669
H448	H	0.551198	-0.197438	1.000669
H449	H	0.229358	-0.519614	0.822579
H450	H	0.729358	-0.019614	1.322579
O451	O	0.378309	-0.569876	0.626595
O452	O	0.878309	-0.069876	1.126595
C453	C	0.434880	-0.578817	0.603947
C454	C	0.934880	-0.078817	1.103947
H455	H	0.442664	-0.539479	0.571185
H456	H	0.942664	-0.039479	1.071185
H457	H	0.451124	-0.591989	0.637391
H458	H	0.951124	-0.091989	1.137391
C459	C	0.454657	-0.672244	0.618526
C460	C	0.954657	-0.172244	1.118526
C461	C	0.464217	-0.623930	0.578283
C462	C	0.964217	-0.123930	1.078283
H463	H	0.472754	-0.700074	0.602697
H464	H	0.972754	-0.200074	1.102697
H465	H	0.416544	-0.666222	0.633786
H466	H	0.916544	-0.166222	1.133786
H467	H	0.468193	-0.683214	0.646393
H468	H	0.968193	-0.183214	1.146393
H469	H	0.450675	-0.612957	0.550421
H470	H	0.950675	-0.112957	1.050421
H471	H	0.502329	-0.629951	0.563018
H472	H	1.002329	-0.129951	1.063018
O473	O	0.051036	-0.432865	0.638049
O474	O	0.551036	0.067135	1.138049
C475	C	0.037251	-0.480898	0.666827
C476	C	0.537251	0.019102	1.166827
H477	H	0.074922	-0.516805	0.656496
H478	H	0.574922	-0.016805	1.156496
H479	H	0.021588	-0.488940	0.712574
H480	H	0.521588	0.011060	1.212574
C481	C	-0.053808	-0.429896	0.663110
C482	C	0.446192	0.070104	1.163110
C483	C	-0.007540	-0.473997	0.650418
C484	C	0.492460	0.026003	1.150418
H485	H	-0.081439	-0.425639	0.652990
H486	H	0.418561	0.074361	1.152990
H487	H	-0.044521	-0.397535	0.643723
H488	H	0.455479	0.102465	1.143723
H489	H	-0.066853	-0.436603	0.701232
H490	H	0.433147	0.063397	1.201232
H491	H	0.005508	-0.467286	0.612295
H492	H	0.505508	0.032714	1.112295
H493	H	-0.016826	-0.506356	0.669797
H494	H	0.483174	-0.006356	1.169797
H495	H	0.229173	-0.519573	0.551126
H496	H	0.729173	-0.019573	1.051126
O497	O	0.272603	-0.487229	0.583450
O498	O	0.772603	0.012771	1.083450
C499	C	0.301290	-0.520288	0.550329
C500	C	0.801290	-0.020288	1.050329
H501	H	0.274044	-0.541088	0.557642
H502	H	0.774044	-0.041088	1.057642
H503	H	0.313560	-0.493899	0.505563
H504	H	0.813560	0.006101	1.005563
C505	C	0.386321	-0.538406	0.555759
C506	C	0.886321	-0.038406	1.055759
C507	C	0.352858	-0.563955	0.564745
C508	C	0.852858	-0.063955	1.064745
H509	H	0.418132	-0.565340	0.564649
H510	H	0.918132	-0.065340	1.064649
H511	H	0.366995	-0.516131	0.578072
H512	H	0.866995	-0.016131	1.078072
H513	H	0.396541	-0.516416	0.518454
H514	H	0.896541	-0.016416	1.018454
H515	H	0.342634	-0.585939	0.602050
H516	H	0.842634	-0.085939	1.102050
H517	H	0.372184	-0.586235	0.542438
H518	H	0.872184	-0.086235	1.042438
H519	H	0.270043	-0.526578	0.659994
H520	H	0.770043	-0.026578	1.159994
O521	O	0.378089	-0.387508	0.557132
O522	O	0.878089	0.112492	1.057132
C523	C	0.340600	-0.334206	0.554085
C524	C	0.840600	0.165794	1.054085
H525	H	0.299852	-0.331982	0.557845
H526	H	0.799852	0.168018	1.057845
H527	H	0.334542	-0.323538	0.588712
H528	H	0.834542	0.176462	1.088712
C529	C	0.412924	-0.296132	0.494284
C530	C	0.912924	0.203868	0.994284
C531	C	0.362878	-0.293398	0.498898
C532	C	0.862878	0.206602	0.998898
H533	H	0.426666	-0.270959	0.460244
H534	H	0.926666	0.229041	0.960244
H535	H	0.438181	-0.332043	0.496338
H536	H	0.938181	0.167957	0.996338
H537	H	0.407869	-0.287243	0.523143
H538	H	0.907869	0.212757	1.023143
H539	H	0.367935	-0.302294	0.470043
H540	H	0.867935	0.197706	0.970043
H541	H	0.337622	-0.257488	0.496838
H542	H	0.837622	0.242512	0.996838
H543	H	0.270000	-0.358795	0.596010
H544	H	0.770000	0.141205	1.096010
O545	O	0.188901	-0.243625	0.499994
O546	O	0.688901	0.256375	0.999994
C547	C	0.169324	-0.257577	0.476269
C548	C	0.669324	0.242423	0.976269
H549	H	0.163745	-0.299084	0.503365
H550	H	0.663745	0.200916	1.003365
H551	H	0.128466	-0.225412	0.472040
H552	H	0.628466	0.274588	0.972040
C553	C	0.217524	-0.209221	0.386187
C554	C	0.717524	0.290779	0.886187
C555	C	0.210675	-0.260202	0.419464
C556	C	0.710675	0.239798	0.919464
H557	H	0.243029	-0.210838	0.351146
H558	H	0.743029	0.289162	0.851146
H559	H	0.230711	-0.199819	0.402171
H560	H	0.730711	0.300181	0.902171
H561	H	0.183472	-0.182422	0.382669
H562	H	0.683472	0.317578	0.882669
H563	H	0.244725	-0.286998	0.422988
H564	H	0.744725	0.213002	0.922988
H565	H	0.197494	-0.269608	0.403480
H566	H	0.697494	0.230392	0.903480
O567	O	0.097024	-0.243692	0.684101
O568	O	0.597024	0.256308	1.184101
C569	C	0.088982	-0.281182	0.737778
C570	C	0.588982	0.218818	1.237778
H571	H	0.095372	-0.321928	0.737676
H572	H	0.595372	0.178072	1.237676
H573	H	0.119423	-0.287256	0.754129
H574	H	0.619423	0.212744	1.254129
C575	C	0.022593	-0.208845	0.774588
C576	C	0.522593	0.291155	1.274588
C577	C	0.030437	-0.258888	0.774463
C578	C	0.530437	0.241112	1.274463
H579	H	-0.013519	-0.195093	0.797218
H580	H	0.486481	0.304907	1.297218
H581	H	0.028012	-0.183587	0.738425
H582	H	0.528012	0.316413	1.238425
H583	H	0.047965	-0.213914	0.788212
H584	H	0.547965	0.286086	1.288212
H585	H	0.005071	-0.253818	0.760833
H586	H	0.505071	0.246182	1.260833
H587	H	0.025012	-0.284145	0.810625
H588	H	0.525012	0.215855	1.310625
H589	H	0.094434	-0.400372	0.670409
H590	H	0.594434	0.099628	1.170409
H591	H	-0.032937	-0.528066	0.228816
H592	H	0.467063	-0.028066	0.728816
O593	O	-0.072798	-0.556647	0.336904
O594	O	0.427202	-0.056647	0.836904
C595	C	-0.080830	-0.502976	0.299397
C596	C	0.419170	-0.002976	0.799397
H597	H	-0.046327	-0.503127	0.258692
H598	H	0.453673	-0.003127	0.758692
H599	H	-0.121517	-0.486550	0.293235
H600	H	0.378483	0.013450	0.793235
C601	C	-0.123626	-0.466150	0.371729
C602	C	0.376374	0.033850	0.871729
C603	C	-0.081247	-0.466335	0.321736
C604	C	0.418753	0.033665	0.821736
H605	H	-0.123886	-0.443547	0.385509
H606	H	0.376114	0.056453	0.885509
H607	H	-0.118217	-0.502309	0.396999
H608	H	0.381783	-0.002309	0.896999
H609	H	-0.157528	-0.452463	0.366588
H610	H	0.342472	0.047537	0.866588
H611	H	-0.047346	-0.480028	0.326879
H612	H	0.452654	0.019972	0.826879
H613	H	-0.086650	-0.430177	0.296467
H614	H	0.413350	0.069823	0.796467
H615	H	0.136793	-0.351798	0.712725
H616	H	0.636793	0.148202	1.212725
H617	H	0.016937	-0.731954	0.332612
H618	H	0.516937	-0.231954	0.832612
O619	O	0.056838	-0.703372	0.224522
O620	O	0.556838	-0.203372	0.724522
C621	C	0.064844	-0.757041	0.262033
C622	C	0.564844	-0.257041	0.762033
H623	H	0.058394	-0.756926	0.302798
H624	H	0.558394	-0.256926	0.802798
H625	H	0.034422	-0.773368	0.268041
H626	H	0.534422	-0.273368	0.768041
C627	C	0.131319	-0.793907	0.189757
C628	C	0.631319	-0.293907	0.689757
C629	C	0.123401	-0.793767	0.239824
C630	C	0.623401	-0.293767	0.739824
H631	H	0.167439	-0.816562	0.176057
H632	H	0.667439	-0.316562	0.676057
H633	H	0.125924	-0.757749	0.164485
H634	H	0.625924	-0.257749	0.664485
H635	H	0.105964	-0.807512	0.194771
H636	H	0.605964	-0.307512	0.694771
H637	H	0.148751	-0.780156	0.234809
H638	H	0.648751	-0.280156	0.734809
H639	H	0.128802	-0.829923	0.265095
H640	H	0.628802	-0.329923	0.765095
H641	H	-0.033252	-0.528055	0.415829
H642	H	0.466748	-0.028055	0.915829
O643	O	0.018840	-0.740781	0.468226
O644	O	0.518840	-0.240781	0.968226
C645	C	-0.000804	-0.764507	0.525466
C646	C	0.499196	-0.264507	1.025466
H647	H	-0.006429	-0.737432	0.545513
H648	H	0.493571	-0.237432	1.045513
H649	H	-0.041651	-0.768699	0.538302
H650	H	0.458349	-0.268699	1.038302
C651	C	0.047423	-0.854591	0.518950
C652	C	0.547423	-0.354591	1.018950
C653	C	0.040519	-0.821339	0.543572
C654	C	0.540519	-0.321339	1.043572
H655	H	0.072911	-0.889648	0.530119
H656	H	0.572911	-0.389648	1.030119
H657	H	0.060656	-0.838606	0.480386
H658	H	0.560656	-0.338606	0.980386
H659	H	0.013381	-0.858078	0.529649
H660	H	0.513381	-0.358078	1.029649
H661	H	0.074559	-0.817847	0.532868
H662	H	0.574559	-0.317847	1.032868
H663	H	0.027293	-0.837324	0.582135
H664	H	0.527293	-0.337324	1.082135
O665	O	0.064193	-0.733804	0.387350
O666	O	0.564193	-0.233804	0.887350
C667	C	0.103040	-0.747804	0.340255
C668	C	0.603040	-0.247804	0.840255
H669	H	0.105718	-0.789293	0.345404
H670	H	0.605718	-0.289293	0.845404
H671	H	0.090193	-0.715634	0.303186
H672	H	0.590193	-0.215634	0.803186
C673	C	0.155924	-0.699553	0.325605
C674	C	0.655924	-0.199553	0.825605
C675	C	0.159216	-0.750512	0.331931
C676	C	0.659216	-0.250512	0.831931
H677	H	0.190575	-0.701221	0.320469
H678	H	0.690575	-0.201221	0.820469
H679	H	0.129751	-0.690118	0.357332
H680	H	0.629751	-0.190118	0.857332
H681	H	0.145215	-0.672750	0.294715
H682	H	0.645215	-0.172750	0.794715
H683	H	0.169917	-0.777313	0.362825
H684	H	0.669917	-0.277313	0.862825
H685	H	0.185392	-0.759952	0.300209
H686	H	0.685392	-0.259952	0.800209
O687	O	-0.118195	-0.733613	0.456603
O688	O	0.381805	-0.233613	0.956603
C689	C	-0.146543	-0.771049	0.484606
C690	C	0.353457	-0.271049	0.984606
H691	H	-0.117210	-0.811817	0.478061
H692	H	0.382790	-0.311817	0.978061
H693	H	-0.164393	-0.777091	0.530078
H694	H	0.335607	-0.277091	1.030078
C695	C	-0.229048	-0.698635	0.470649
C696	C	0.270952	-0.198635	0.970649
C697	C	-0.193022	-0.748706	0.462606
C698	C	0.306978	-0.248706	0.962606
H699	H	-0.257720	-0.684852	0.457081
H700	H	0.242280	-0.184852	0.957081
H701	H	-0.209950	-0.673413	0.451784
H702	H	0.290050	-0.173413	0.951784
H703	H	-0.243917	-0.703676	0.508543
H704	H	0.256083	-0.203676	1.008543
H705	H	-0.178148	-0.743662	0.424712
H706	H	0.321852	-0.243662	0.924712
H707	H	-0.212118	-0.773926	0.481464
H708	H	0.287882	-0.273926	0.981464
O709	O	-0.112138	-0.694592	0.513988
O710	O	0.387862	-0.194592	1.013988
C711	C	-0.149691	-0.702646	0.567631
C712	C	0.350309	-0.202646	1.067631
H713	H	-0.190405	-0.668147	0.567454
H714	H	0.309595	-0.168147	1.067454
H715	H	-0.155805	-0.743339	0.583988
H716	H	0.344195	-0.243339	1.083988
C717	C	-0.077453	-0.745450	0.604588
C718	C	0.422547	-0.245450	1.104588
C719	C	-0.127456	-0.703075	0.604371
C720	C	0.372544	-0.203075	1.104371
H721	H	-0.063737	-0.745717	0.627252
H722	H	0.436263	-0.245717	1.127252
H723	H	-0.052152	-0.740025	0.568448
H724	H	0.447848	-0.240025	1.068448
H725	H	-0.082554	-0.779356	0.618218
H726	H	0.417446	-0.279356	1.118218
H727	H	-0.122353	-0.669169	0.590735
H728	H	0.377647	-0.169169	1.090735
H729	H	-0.152756	-0.708494	0.640509
H730	H	0.347244	-0.208494	1.140509
O731	O	-0.224312	-0.564958	0.367069
O732	O	0.275688	-0.064958	0.867069
C733	C	-0.186760	-0.556930	0.313426
C734	C	0.313240	-0.056930	0.813426
H735	H	-0.146039	-0.563364	0.313612
H736	H	0.353961	-0.063364	0.813612
H737	H	-0.180667	-0.587355	0.297042
H738	H	0.319333	-0.087355	0.797042
C739	C	-0.258995	-0.490471	0.276481
C740	C	0.241005	0.009529	0.776481
C741	C	-0.208981	-0.498368	0.276709
C742	C	0.291019	0.001632	0.776709
H743	H	-0.272702	-0.454348	0.253831
H744	H	0.227298	0.045652	0.753831
H745	H	-0.284295	-0.495880	0.312621
H746	H	0.215705	0.004120	0.812621
H747	H	-0.253910	-0.515828	0.262829
H748	H	0.246090	-0.015828	0.762829
H749	H	-0.214068	-0.473016	0.290367
H750	H	0.285932	0.026984	0.790367
H751	H	-0.183682	-0.492954	0.240570
H752	H	0.316318	0.007046	0.740570
O753	O	0.024899	-0.424323	0.399757
O754	O	0.524899	0.075677	0.899757
C755	C	-0.028752	-0.390452	0.419571
C756	C	0.471248	0.109548	0.919571
H757	H	-0.054623	-0.416799	0.454635
H758	H	0.445377	0.083201	0.954635
H759	H	-0.027928	-0.362893	0.434754
H760	H	0.472072	0.137107	0.934754
C761	C	-0.021747	-0.322734	0.330273
C762	C	0.478253	0.177266	0.830273
C763	C	-0.053523	-0.355093	0.373336
C764	C	0.446477	0.144907	0.873336
H765	H	-0.037027	-0.300921	0.301754
H766	H	0.462973	0.199079	0.801754
H767	H	0.014399	-0.345552	0.316924
H768	H	0.514399	0.154448	0.816924
H769	H	-0.021063	-0.299773	0.342933
H770	H	0.478937	0.200227	0.842933
H771	H	-0.054201	-0.378059	0.360678
H772	H	0.445799	0.121941	0.860678
H773	H	-0.089670	-0.332278	0.386682
H774	H	0.410330	0.167722	0.886682
H775	H	-0.067739	-0.562558	0.381123
H776	H	0.432261	-0.062558	0.881123
H777	H	0.092838	-0.841923	0.426277
H778	H	0.592838	-0.341923	0.926277
O779	O	-0.224751	-0.656832	0.551264
O780	O	0.275249	-0.156832	1.051264
C781	C	-0.257821	-0.608787	0.565043
C782	C	0.242179	-0.108787	1.065043
H783	H	-0.240547	-0.574483	0.532850
H784	H	0.259453	-0.074483	1.032850
H785	H	-0.301116	-0.596710	0.566853
H786	H	0.198884	-0.096710	1.066853
C787	C	-0.280013	-0.661089	0.660677
C788	C	0.219987	-0.161089	1.160677
C789	C	-0.258793	-0.618958	0.621140
C790	C	0.241207	-0.118958	1.121140
H791	H	-0.280615	-0.667363	0.695281
H792	H	0.219385	-0.167363	1.195281
H793	H	-0.257734	-0.693459	0.651395
H794	H	0.242266	-0.193459	1.151395
H795	H	-0.316090	-0.651020	0.662178
H796	H	0.183910	-0.151020	1.162178
H797	H	-0.222715	-0.629031	0.619634
H798	H	0.277285	-0.129031	1.119634
H799	H	-0.281066	-0.586590	0.630423
H800	H	0.218934	-0.086590	1.130423
H801	H	-0.074948	-0.841721	0.489940
H802	H	0.425052	-0.341721	0.989940
H803	H	-0.116227	-0.604815	0.338615
H804	H	0.383773	-0.104815	0.838615
