data_functionalizedCrystal
_audit_creation_method	'MofGen! by Chris Wilmer'
_symmetry_space_group_name_H-M	'P1'
_symmetry_Int_Tables_number	1
_symmetry_cell_setting	triclinic
loop_
_symmetry_equiv_pos_as_xyz
  x,y,z
_cell_length_a	17.077404
_cell_length_b	12.594516
_cell_length_c	17.077396
_cell_angle_alpha	90.024821
_cell_angle_beta	90.018362
_cell_angle_gamma	90.009786
loop_
_atom_site_label
_atom_site_type_symbol
_atom_site_fract_x
_atom_site_fract_y
_atom_site_fract_z
Zn1	Zn	1.200115	-0.423800	0.443839
Zn2	Zn	1.700115	0.076200	0.943839
Zn3	Zn	1.200047	-0.601800	0.312581
Zn4	Zn	1.700047	-0.101800	0.812581
Zn5	Zn	1.068847	-0.423830	0.312589
Zn6	Zn	1.568847	0.076170	0.812589
Zn7	Zn	1.068840	-0.601730	0.443807
Zn8	Zn	1.568840	-0.101730	0.943807
O9	O	1.134462	-0.512790	0.378204
O10	O	1.634462	-0.012790	0.878204
O11	O	1.309953	-0.447429	0.426437
O12	O	1.809953	0.052571	0.926437
O13	O	1.182618	-0.578234	0.202735
O14	O	1.682618	-0.078234	0.702735
O15	O	1.086291	-0.274880	0.330016
O16	O	1.586291	0.225120	0.830016
O17	O	1.309903	-0.578205	0.330003
O18	O	1.809903	-0.078205	0.830003
O19	O	1.182733	-0.274858	0.426445
O20	O	1.682733	0.225142	0.926445
O21	O	1.086225	-0.447480	0.202741
O22	O	1.586225	0.052520	0.702741
O23	O	0.958999	-0.447412	0.329986
O24	O	1.458999	0.052588	0.829986
O25	O	1.086280	-0.578085	0.553659
O26	O	1.586280	-0.078085	1.053659
O27	O	0.958994	-0.578115	0.426391
O28	O	1.458994	-0.078115	0.926391
O29	O	1.182727	-0.447361	0.553682
O30	O	1.682727	0.052639	1.053682
O31	O	1.182611	-0.750737	0.329972
O32	O	1.682611	-0.250737	0.829972
O33	O	1.086214	-0.750685	0.426383
O34	O	1.586214	-0.250685	0.926383
C35	C	0.930514	-0.512760	0.378187
C36	C	1.430514	-0.012760	0.878187
C37	C	0.843265	-0.512773	0.378198
C38	C	1.343265	-0.012773	0.878198
C39	C	0.802301	-0.444799	0.428488
C40	C	1.302301	0.055201	0.928488
C41	C	0.720321	-0.444805	0.428491
C42	C	1.220321	0.055195	0.928491
C43	C	0.679305	-0.512793	0.378208
C44	C	1.179305	-0.012793	0.878208
C45	C	0.720275	-0.580770	0.327913
C46	C	1.220275	-0.080770	0.827913
C47	C	0.802254	-0.580757	0.327906
C48	C	1.302254	-0.080757	0.827906
C49	C	0.549405	-0.580794	0.327932
C50	C	1.049405	-0.080794	0.827932
C51	C	0.467420	-0.580809	0.327940
C52	C	0.967420	-0.080809	0.827940
C53	C	0.467472	-0.444843	0.428518
C54	C	0.967472	0.055157	0.928518
C55	C	0.549451	-0.444830	0.428511
C56	C	1.049451	0.055170	0.928511
C57	C	0.590414	-0.512808	0.378216
C58	C	1.090414	-0.012808	0.878216
C59	C	1.134426	-0.789331	0.378191
C60	C	1.634426	-0.289331	0.878191
C61	C	1.134482	-0.907637	0.378211
C62	C	1.634482	-0.407637	0.878211
C63	C	1.186974	-0.976879	0.325829
C64	C	1.686974	-0.476879	0.825829
C65	C	1.206155	-1.047582	0.397476
C66	C	1.706155	-0.547582	0.897476
C67	C	1.115399	-1.047733	0.306610
C68	C	1.615399	-0.547733	0.806610
C69	C	1.153700	-0.976781	0.449895
C70	C	1.653700	-0.476781	0.949895
C71	C	1.062911	-0.976926	0.358981
C72	C	1.562911	-0.476926	0.858981
C73	C	1.082065	-1.047597	0.430677
C74	C	1.582065	-0.547597	0.930677
C75	C	1.339207	-0.512821	0.378222
C76	C	1.839207	-0.012821	0.878222
C77	C	1.426456	-0.512834	0.378230
C78	C	1.926456	-0.012834	0.878230
C79	C	1.134510	-0.512712	0.582949
C80	C	1.634510	-0.012712	1.082949
C81	C	1.134530	-0.512678	0.670198
C82	C	1.634530	-0.012678	1.170198
C83	C	1.134520	-0.235169	0.378235
C84	C	1.634520	0.264831	0.878235
C85	C	1.134545	-0.116864	0.378248
C86	C	1.634545	0.383136	0.878248
C87	C	1.134460	-0.512791	0.174256
C88	C	1.634460	-0.012791	0.674256
C89	C	1.134592	-0.512525	0.087007
C90	C	1.634592	-0.012525	0.587007
C91	C	1.184752	-0.444604	0.711202
C92	C	1.684752	0.055396	1.211202
C93	C	1.184761	-0.444569	0.793182
C94	C	1.684761	0.055431	1.293182
C95	C	1.134552	-0.512614	0.834158
C96	C	1.634552	-0.012614	1.334158
C97	C	1.084325	-0.580691	0.793149
C98	C	1.584325	-0.080691	1.293149
C99	C	1.084312	-0.580720	0.711170
C100	C	1.584312	-0.080720	1.211170
C101	C	1.084357	-0.580627	0.964019
C102	C	1.584357	-0.080627	1.464019
C103	C	1.084370	-0.580599	1.046004
C104	C	1.584370	-0.080599	1.546004
C105	C	1.184806	-0.444476	1.046032
C106	C	1.684806	0.055524	1.546032
C107	C	1.184793	-0.444505	0.964053
C108	C	1.684793	0.055495	1.464053
C109	C	1.134566	-0.512584	0.923049
C110	C	1.634566	-0.012584	1.423049
H111	H	0.582755	-0.636147	0.286975
H112	H	1.082755	-0.136147	0.786975
N113	N	1.238960	-0.371022	1.090254
N114	N	1.738960	0.128978	1.590254
H115	H	1.270765	-0.327921	1.051856
H116	H	1.770765	0.172079	1.551856
H117	H	1.275285	-0.414326	1.124277
H118	H	1.775285	0.085674	1.624277
H119	H	0.434027	-0.636171	0.286996
H120	H	0.934027	-0.136171	0.786996
H121	H	1.169806	-0.945748	0.510515
H122	H	1.669806	-0.445748	1.010515
H123	H	1.225640	-0.389197	0.677845
H124	H	1.725640	0.110803	1.177845
N125	N	0.982732	-0.935760	0.337378
N126	N	1.482732	-0.435760	0.837378
H127	H	0.961310	-0.891609	0.381865
H128	H	1.461310	-0.391609	0.881865
H129	H	0.946518	-0.997612	0.327056
H130	H	1.446518	-0.497612	0.827056
H131	H	0.434115	-0.389490	0.469468
H132	H	0.934115	0.110510	0.969468
H133	H	0.686873	-0.636121	0.286968
H134	H	1.186873	-0.136121	0.786968
N135	N	1.286361	-1.088706	0.419045
N136	N	1.786361	-0.588706	0.919045
H137	H	1.285657	-1.168892	0.419397
H138	H	1.785657	-0.668892	0.919397
H139	H	1.301164	-1.061712	0.472744
H140	H	1.801164	-0.561712	0.972744
N141	N	1.023288	-1.088456	0.489434
N142	N	1.523288	-0.588456	0.989434
H143	H	1.037823	-1.062497	0.543485
H144	H	1.537823	-0.562497	1.043485
H145	H	1.023321	-1.168641	0.488748
H146	H	1.523321	-0.668641	0.988748
N147	N	1.093980	-1.089020	0.226386
N148	N	1.593980	-0.589020	0.726386
H149	H	1.133647	-1.063296	0.186850
H150	H	1.633647	-0.563296	0.686850
H151	H	1.040268	-1.062206	0.211508
H152	H	1.540268	-0.562206	0.711508
H153	H	1.225682	-0.389103	0.930692
H154	H	1.725682	0.110897	1.430692
H155	H	0.835605	-0.636108	0.286954
H156	H	1.335605	-0.136108	0.786954
H157	H	1.043484	-0.636005	1.079364
H158	H	1.543484	-0.136005	1.579364
H159	H	1.225659	-0.389139	0.826564
H160	H	1.725659	0.110861	1.326564
N161	N	1.030181	-0.654047	0.919791
N162	N	1.530181	-0.154047	1.419791
H163	H	0.998377	-0.697152	0.958187
H164	H	1.498377	-0.197152	1.458187
H165	H	1.062119	-0.703320	0.885776
H166	H	1.562119	-0.203320	1.385776
H167	H	1.043408	-0.636142	0.677786
H168	H	1.543408	-0.136142	1.177786
N169	N	0.846536	-0.371476	0.482727
N170	N	1.346536	0.128524	0.982727
H171	H	0.808143	-0.328415	0.514585
H172	H	1.308143	0.171585	1.014585
H173	H	0.880540	-0.322158	0.450835
H174	H	1.380540	0.177842	0.950835
N175	N	0.676138	-0.371470	0.482717
N176	N	1.176138	0.128530	0.982717
H177	H	0.714560	-0.328397	0.514569
H178	H	1.214560	0.171603	1.014569
H179	H	0.642127	-0.414846	0.518995
H180	H	1.142127	0.085154	1.018995
N181	N	0.593692	-0.371511	0.482749
N182	N	1.093692	0.128489	0.982749
H183	H	0.555304	-0.328448	0.514611
H184	H	1.055304	0.171552	1.014611
H185	H	0.627696	-0.322196	0.450855
H186	H	1.127696	0.177804	0.950855
N187	N	1.030174	-0.654074	0.837354
N188	N	1.530174	-0.154074	1.337354
H189	H	1.042342	-0.730133	0.823083
H190	H	1.542342	-0.230133	1.323083
H191	H	0.974109	-0.637446	0.823068
H192	H	1.474109	-0.137446	1.323068
H193	H	1.231371	-0.945827	0.281571
H194	H	1.731371	-0.445827	0.781571
