data_functionalizedCrystal
_audit_creation_method	'MofGen! by Chris Wilmer'
_symmetry_space_group_name_H-M	'P1'
_symmetry_Int_Tables_number	1
_symmetry_cell_setting	triclinic
loop_
_symmetry_equiv_pos_as_xyz
  x,y,z
_cell_length_a	27.732048
_cell_length_b	9.065218
_cell_length_c	7.540329
_cell_angle_alpha	89.998243
_cell_angle_beta	90.002547
_cell_angle_gamma	83.829270
loop_
_atom_site_label
_atom_site_type_symbol
_atom_site_fract_x
_atom_site_fract_y
_atom_site_fract_z
O1	O	0.642124	0.175520	-0.147248
O2	O	0.501513	0.202209	-0.147300
O3	O	0.574725	-0.025963	-0.147269
O4	O	0.568912	0.403692	-0.147279
O5	O	0.574721	-0.025965	0.147696
O6	O	0.501508	0.202206	0.147665
O7	O	0.642120	0.175518	0.147717
Cu8	Cu	0.571814	0.188862	0.174624
Cu9	Cu	0.571819	0.188865	-0.174207
O10	O	0.568908	0.403689	0.147687
C11	C	0.483500	0.201647	0.000176
C12	C	0.429834	0.199960	0.000155
C13	C	0.574164	-0.080915	0.000210
C14	C	0.572494	-0.244652	0.000201
C15	C	0.091866	0.324175	0.000229
C16	C	-0.109836	0.317916	0.000245
O17	O	-0.140316	0.431501	0.000320
N18	N	-0.129883	0.182619	0.000245
C19	C	-0.099501	0.048878	0.000253
O20	O	-0.121181	-0.066343	0.000271
C21	C	0.102200	0.055139	0.000249
C22	C	0.122244	0.190444	0.000232
C23	C	0.111911	0.459469	0.000214
C24	C	0.162334	0.461032	0.000200
C25	C	0.192712	0.327301	0.000202
C26	C	0.172667	0.192007	0.000218
C27	C	0.132581	-0.078600	0.000270
C28	C	0.183009	-0.077023	0.000273
C29	C	0.203053	0.058282	0.000255
C30	C	0.253467	0.059840	0.000206
N31	N	0.273514	0.195136	0.000207
C32	C	0.243137	0.328867	0.000204
C33	C	-0.205398	0.045601	0.000251
C34	C	-0.255823	0.044036	0.000249
C35	C	-0.266154	0.313073	0.000245
C36	C	-0.215728	0.314637	0.000234
C37	C	-0.185351	0.180897	0.000251
C38	C	0.349028	0.332140	0.000174
C39	C	0.399456	0.333691	0.000153
C40	C	0.409782	0.064654	0.000166
C41	C	0.359359	0.063102	0.000178
C42	C	0.328983	0.196857	0.000188
O43	O	0.283976	-0.053684	0.000152
O44	O	0.264826	0.444071	0.000225
C45	C	0.041444	0.322611	0.000243
C46	C	0.021399	0.187317	0.000259
C47	C	0.051777	0.053587	0.000261
C48	C	-0.029026	0.185752	0.000257
C49	C	-0.059404	0.319482	0.000254
C50	C	-0.039357	0.454779	0.000255
C51	C	0.011066	0.456342	0.000241
C52	C	0.031730	-0.081710	0.000261
C53	C	-0.018694	-0.083262	0.000273
C54	C	-0.049071	0.050469	0.000270
C55	C	0.660133	0.176079	0.000238
C56	C	0.713799	0.177766	0.000246
C57	C	0.569469	0.458642	0.000203
C58	C	0.571139	0.622378	0.000201
N59	N	0.571814	0.188859	0.419972
N60	N	0.571823	0.188856	-0.419555
H61	H	0.415773	0.443877	0.000138
H62	H	0.027381	0.566521	0.000229
N63	N	0.183947	0.606971	0.000224
H64	H	0.220502	0.587692	0.000226
H65	H	0.172873	0.665448	-0.109116
N66	N	0.079151	0.603719	0.000312
H67	H	0.099508	0.689650	0.000336
H68	H	0.057991	0.608994	-0.109008
N69	N	-0.072126	0.599019	0.000241
H70	H	-0.107111	0.577482	0.000250
H71	H	-0.065569	0.658034	0.109587
N72	N	0.316270	0.476399	0.000227
H73	H	0.336626	0.562334	0.000225
H74	H	0.295115	0.481640	-0.109104
H75	H	-0.199412	0.424814	0.000230
N76	N	-0.040312	-0.229203	0.000291
H77	H	-0.029281	-0.287748	-0.109045
H78	H	-0.029265	-0.287607	0.109715
N79	N	-0.298923	0.457315	0.000239
H80	H	-0.333908	0.435779	0.000241
H81	H	-0.292366	0.516321	0.109593
H82	H	-0.272138	-0.066143	0.000235
H83	H	-0.180668	-0.063313	0.000265
H84	H	0.116270	-0.188780	0.000285
N85	N	0.337732	-0.082822	0.000207
H86	H	0.317034	-0.089474	-0.109120
H87	H	0.364654	-0.167223	0.000272
H88	H	0.056459	-0.190612	0.000267
N89	N	0.215770	-0.221281	0.000299
H90	H	0.209249	-0.280365	-0.109037
H91	H	0.250743	-0.199652	0.000361
N92	N	0.442552	-0.079579	0.000169
H93	H	0.477536	-0.058045	0.000170
H94	H	0.435997	-0.138584	0.109529
