data_functionalizedCrystal
_audit_creation_method	'MofGen! by Chris Wilmer'
_symmetry_space_group_name_H-M	'P1'
_symmetry_Int_Tables_number	1
_symmetry_cell_setting	triclinic
loop_
_symmetry_equiv_pos_as_xyz
  x,y,z
_cell_length_a	11.792241
_cell_length_b	10.268362
_cell_length_c	11.792241
_cell_angle_alpha	90.005910
_cell_angle_beta	95.806584
_cell_angle_gamma	90.004128
loop_
_atom_site_label
_atom_site_type_symbol
_atom_site_fract_x
_atom_site_fract_y
_atom_site_fract_z
O1	O	-1.506902	0.108155	0.155570
O2	O	-1.173569	0.441488	0.488903
O3	O	-0.840236	0.774821	0.822237
O4	O	-1.176561	0.108189	0.171603
O5	O	-0.843228	0.441523	0.504936
O6	O	-0.509895	0.774856	0.838270
O7	O	-1.349748	0.108162	-0.001584
O8	O	-1.016415	0.441495	0.331749
O9	O	-0.683082	0.774829	0.665083
O10	O	-1.333715	0.108182	0.328757
O11	O	-1.000382	0.441515	0.662090
O12	O	-0.667049	0.774849	0.995424
O13	O	-1.349746	-0.108438	-0.001594
O14	O	-1.016413	0.224895	0.331739
O15	O	-0.683079	0.558228	0.665073
O16	O	-1.176559	-0.108411	0.171593
O17	O	-0.843226	0.224922	0.504926
O18	O	-0.509892	0.558256	0.838260
O19	O	-1.506900	-0.108446	0.155560
O20	O	-1.173567	0.224887	0.488893
O21	O	-0.840233	0.558221	0.822227
Cu22	Cu	-1.341729	-0.128206	0.163576
Cu23	Cu	-1.008396	0.205127	0.496909
Cu24	Cu	-0.675063	0.538461	0.830242
Cu25	Cu	-1.341732	0.127949	0.163588
Cu26	Cu	-1.008399	0.461283	0.496921
Cu27	Cu	-0.675065	0.794616	0.830254
O28	O	-1.333713	-0.108419	0.328747
O29	O	-1.000380	0.224915	0.662080
O30	O	-0.667046	0.558248	0.995414
C31	C	-1.134269	-0.000106	0.170591
C32	C	-0.800936	0.333227	0.503924
C33	C	-0.467603	0.666560	0.837258
C34	C	-1.008255	-0.000093	0.167576
C35	C	-0.674922	0.333240	0.500910
C36	C	-0.341589	0.666573	0.834243
N37	N	-1.341736	-0.308372	0.163566
N38	N	-1.008403	0.024962	0.496900
N39	N	-0.675069	0.358295	0.830233
C40	C	-0.777543	-0.000128	0.162034
C41	C	-0.444210	0.333205	0.495367
C42	C	-0.110877	0.666538	0.828700
C43	C	-0.905928	-0.000109	0.165113
C44	C	-0.572595	0.333224	0.498447
C45	C	-0.239262	0.666558	0.831780
C46	C	-1.348740	-0.000138	-0.043880
C47	C	-1.015407	0.333196	0.289453
C48	C	-0.682073	0.666529	0.622787
C49	C	-1.345726	-0.000136	-0.169894
C50	C	-1.012392	0.333197	0.163440
C51	C	-0.679059	0.666531	0.496773
C52	C	-0.549192	-0.000144	0.156572
C53	C	-0.215859	0.333190	0.489905
C54	C	0.117475	0.666523	0.823239
C55	C	-0.675206	-0.000139	0.159587
C56	C	-0.341873	0.333195	0.492920
C57	C	-0.008539	0.666528	0.826253
N58	N	-1.341734	0.308115	0.163588
N59	N	-1.008401	0.641449	0.496921
N60	N	-0.675068	0.974782	0.830254
C61	C	-1.341731	0.573786	0.163581
C62	C	-1.008398	0.907119	0.496914
C63	C	-0.675065	1.240453	0.830248
C64	C	-1.341730	0.425948	0.163588
C65	C	-1.008396	0.759281	0.496922
C66	C	-0.675063	1.092615	0.830255
C67	C	-1.340183	-0.000114	-0.400606
C68	C	-1.006849	0.333220	-0.067272
C69	C	-0.673516	0.666553	0.266061
C70	C	-1.343262	-0.000126	-0.272221
C71	C	-1.009929	0.333207	0.061113
C72	C	-0.676596	0.666541	0.394446
C73	C	-1.334721	-0.000116	0.371043
C74	C	-1.001388	0.333217	0.704376
C75	C	-0.668055	0.666551	1.037710
C76	C	-1.337736	-0.000109	0.497057
C77	C	-1.004402	0.333224	0.830390
C78	C	-0.671069	0.666558	1.163723
