data_functionalizedCrystal
_audit_creation_method	'MofGen! by Chris Wilmer'
_symmetry_space_group_name_H-M	'P1'
_symmetry_Int_Tables_number	1
_symmetry_cell_setting	triclinic
loop_
_symmetry_equiv_pos_as_xyz
  x,y,z
_cell_length_a	17.699077
_cell_length_b	16.176319
_cell_length_c	17.699083
_cell_angle_alpha	90.004339
_cell_angle_beta	83.281795
_cell_angle_gamma	90.005422
loop_
_atom_site_label
_atom_site_type_symbol
_atom_site_fract_x
_atom_site_fract_y
_atom_site_fract_z
O1	O	1.004080	0.068737	0.095688
O2	O	0.783701	0.068741	0.108145
O3	O	0.900117	0.068732	-0.008273
O4	O	0.887665	0.068747	0.212106
O5	O	0.900104	-0.068761	-0.008273
O6	O	0.783688	-0.068752	0.108145
O7	O	1.004067	-0.068756	0.095688
Cu8	Cu	0.893876	-0.081308	0.101916
Cu9	Cu	0.893892	0.081294	0.101917
O10	O	0.887651	-0.068746	0.212106
C11	C	0.755498	-0.000005	0.107700
C12	C	0.671479	-0.000003	0.106363
N13	N	0.893870	-0.195673	0.101916
C14	C	0.632004	-0.074952	0.105733
C15	C	0.553062	-0.074953	0.104464
C16	C	0.513595	-0.000004	0.103832
C17	C	0.553076	0.074950	0.104460
C18	C	0.632017	0.074950	0.105722
C19	C	0.234712	0.074951	0.099366
C20	C	0.155765	0.074945	0.098106
C21	C	0.155757	-0.074952	0.098108
C22	C	0.234699	-0.074951	0.099371
C23	C	0.274173	0.000002	0.099995
C24	C	0.359772	0.000002	0.101369
C25	C	0.427997	-0.000004	0.102464
C26	C	0.939685	-0.238932	0.147763
C27	C	0.939693	-0.325479	0.147760
C28	C	0.893882	-0.368766	0.101913
C29	C	0.848065	-0.325502	0.056060
C30	C	0.848062	-0.238956	0.056060
C31	C	0.848079	-0.674530	0.056061
C32	C	0.848084	-0.761081	0.056067
C33	C	0.939711	-0.761052	0.147762
C34	C	0.939707	-0.674507	0.147761
C35	C	0.893894	-0.631250	0.101906
C36	C	0.893887	-0.537406	0.101908
C37	C	0.893884	-0.462608	0.101914
C38	C	1.032271	-0.000008	0.096133
C39	C	1.116289	-0.000004	0.097470
C40	C	0.899664	-0.000015	-0.036470
C41	C	0.898326	-0.000015	-0.120488
N42	N	0.893904	0.195659	0.101911
C43	C	0.966659	-0.000018	-0.169110
C44	C	0.965397	-0.000010	-0.248054
C45	C	0.895800	-0.000006	-0.278373
C46	C	0.827461	-0.000001	-0.229744
C47	C	0.828724	-0.000003	-0.150803
C48	C	0.822366	0.000005	-0.548107
C49	C	0.821108	0.000004	-0.627055
C50	C	0.959039	-0.000002	-0.645358
C51	C	0.960302	-0.000003	-0.566417
C52	C	0.891963	0.000006	-0.517795
C53	C	0.893333	-0.000000	-0.432196
C54	C	0.894430	-0.000006	-0.363971
C55	C	0.888104	0.000002	0.240303
C56	C	0.889443	0.000008	0.324321
H57	H	0.520927	-0.135983	0.103939
H58	H	0.266828	-0.135982	0.099890
C59	C	0.750117	-0.070678	-0.051403
C60	C	0.753611	-0.000001	-0.097352
H61	H	0.703745	-0.070669	-0.018403
H62	H	0.752480	-0.118617	-0.082582
H63	H	0.791751	-0.070671	-0.022054
H64	H	0.711980	-0.000011	-0.126706
H65	H	0.751240	0.047950	-0.066170
C66	C	0.944231	-0.422807	0.249545
C67	C	0.990053	-0.373035	0.198155
H68	H	0.975325	-0.452170	0.280651
H69	H	0.909348	-0.389050	0.280604
H70	H	0.916952	-0.460965	0.222228
H71	H	1.017328	-0.334872	0.225471
H72	H	1.024949	-0.406795	0.167092
C73	C	0.807335	-0.458179	0.015387
C74	C	0.797705	-0.373078	0.005664
H75	H	0.776238	-0.487546	-0.015722
H76	H	0.859135	-0.472384	0.001280
H77	H	0.793150	-0.472321	0.067197
H78	H	0.811895	-0.358935	-0.046145
H79	H	0.745894	-0.358867	0.019767
H80	H	0.664157	0.135981	0.106237
C81	C	1.041476	-0.577153	0.152361
C82	C	0.990061	-0.626922	0.198158
H83	H	1.072559	-0.547772	0.183475
H84	H	1.072557	-0.610913	0.117500
H85	H	1.014179	-0.539009	0.125058
H86	H	1.017358	-0.665070	0.225457
H87	H	0.958976	-0.593158	0.233033
H88	H	0.977016	-0.796282	0.185098
C89	C	1.018360	0.000011	-0.774500
C90	C	1.034160	0.000001	-0.698806
H91	H	1.064736	0.000016	-0.807493
H92	H	0.989817	-0.047931	-0.783679
H93	H	0.989822	0.047963	-0.783663
H94	H	1.062694	-0.047955	-0.689641
H95	H	1.062715	0.047948	-0.689623
H96	H	0.123633	0.135981	0.097590
C97	C	0.034742	-0.141524	0.096160
C98	C	0.112366	-0.157345	0.097410
H99	H	0.007958	-0.192390	0.095726
H100	H	0.015952	-0.110732	0.140069
H101	H	0.027673	-0.110732	0.051831
H102	H	0.119435	-0.188132	0.141743
H103	H	0.131162	-0.188150	0.053497
H104	H	0.266843	0.135983	0.099872
H105	H	0.520936	0.135974	0.103939
C106	C	0.757521	-0.752425	-0.034592
C107	C	0.797732	-0.808666	0.005662
H108	H	0.726442	-0.781804	-0.065711
H109	H	0.726437	-0.718671	0.000272
H110	H	0.792418	-0.718665	-0.065649
H111	H	0.762834	-0.842422	0.036723
H112	H	0.828818	-0.842434	-0.029206
H113	H	0.810754	-0.203736	0.018726
H114	H	0.976986	-0.203693	0.185102
C115	C	0.746270	-0.577256	0.051491
C116	C	0.797692	-0.627001	0.005679
H117	H	0.715158	-0.547913	0.020388
H118	H	0.715219	-0.611029	0.086368
H119	H	0.773563	-0.539080	0.078776
H120	H	0.770399	-0.665181	-0.021602
H121	H	0.828746	-0.593226	-0.029212
H122	H	1.023333	-0.000026	-0.144431
H123	H	1.021041	-0.000014	-0.287639
C124	C	1.096518	0.000001	-0.592440
C125	C	1.036804	-0.000004	-0.533091
H126	H	1.143748	0.000008	-0.571865
H127	H	1.093156	-0.047944	-0.622850
H128	H	1.093154	0.047950	-0.622848
H129	H	1.040165	-0.047957	-0.502686
H130	H	1.040168	0.047946	-0.502668
H131	H	0.764431	0.000006	-0.651737
H132	H	0.766721	0.000013	-0.508528
H133	H	0.770794	0.000007	-0.254436
H134	H	0.664132	-0.135984	0.106254
