data_functionalizedCrystal
_audit_creation_method	'MofGen! by Chris Wilmer'
_symmetry_space_group_name_H-M	'P1'
_symmetry_Int_Tables_number	1
_symmetry_cell_setting	triclinic
loop_
_symmetry_equiv_pos_as_xyz
  x,y,z
_cell_length_a	13.635800
_cell_length_b	11.168121
_cell_length_c	11.102300
_cell_angle_alpha	88.015986
_cell_angle_beta	108.605850
_cell_angle_gamma	71.491504
loop_
_atom_site_label
_atom_site_type_symbol
_atom_site_fract_x
_atom_site_fract_y
_atom_site_fract_z
V1	V	2.055512	-0.174704	0.396267
O2	O	2.035294	0.008396	0.388713
O3	O	2.043652	-0.346410	0.393567
O4	O	2.043907	-0.172017	0.569088
O5	O	2.035037	-0.167204	0.211977
V6	V	2.294095	-0.152803	0.374223
O7	O	2.193114	-0.222746	0.444622
O8	O	2.381592	-0.104762	0.325868
O9	O	2.194352	0.018902	0.376923
O10	O	2.373012	-0.335903	0.381777
O11	O	2.373268	-0.160303	0.558513
O12	O	2.194098	-0.155491	0.201402
V13	V	2.555512	-0.174704	0.396267
O14	O	2.535294	0.008396	0.388713
O15	O	2.543652	-0.346410	0.393567
O16	O	2.543907	-0.172017	0.569088
O17	O	2.535037	-0.167204	0.211977
V18	V	2.794095	-0.152803	0.374223
O19	O	2.693114	-0.222746	0.444622
O20	O	2.881592	-0.104762	0.325868
O21	O	2.694352	0.018902	0.376923
O22	O	2.873012	-0.335903	0.381777
O23	O	2.873268	-0.160303	0.558513
O24	O	2.694098	-0.155491	0.201402
C25	C	1.968747	-0.388268	0.387319
C26	C	1.999777	-0.528639	0.386263
C27	C	2.101040	-0.597331	0.391821
C28	C	2.133113	-0.742413	0.390730
C29	C	1.969071	-0.165811	0.611211
C30	C	2.000305	-0.164750	0.752493
C31	C	2.100928	0.060753	0.383168
C32	C	2.059518	0.201123	0.384232
C33	C	2.100604	-0.161701	0.159272
C34	C	2.058988	-0.162756	0.017989
C35	C	2.468747	-0.388268	0.387319
C36	C	2.499777	-0.528639	0.386263
C37	C	2.469071	-0.165811	0.611211
C38	C	2.500305	-0.164750	0.752493
C39	C	2.106976	-0.170557	0.825342
C40	C	2.136317	-0.169556	0.958091
C41	C	1.952308	-0.156944	0.945129
C42	C	1.922966	-0.157936	0.812382
C43	C	2.600928	0.060753	0.383168
C44	C	2.559518	0.201123	0.384232
C45	C	2.600604	-0.161701	0.159272
C46	C	2.558988	-0.162756	0.017989
C47	C	2.606350	-0.601017	0.392108
C48	C	2.635503	-0.732912	0.391127
C49	C	2.451498	-0.720038	0.378449
C50	C	2.422349	-0.588147	0.379440
C51	C	2.606976	-0.170557	0.825342
C52	C	2.636317	-0.169556	0.958091
C53	C	2.452308	-0.156944	0.945129
C54	C	2.422966	-0.157936	0.812382
H55	H	2.163991	-0.548735	0.397393
H56	H	2.389346	-0.151399	0.993908
H57	H	2.669398	-0.552570	0.397663
C58	C	2.752729	-0.812522	0.397548
H59	H	2.794660	-0.758186	0.401744
H60	H	2.787162	-0.875775	0.471883
H61	H	2.748687	-0.852703	0.322958
H62	H	1.836096	-0.153197	0.753064
H63	H	1.936830	-0.577238	0.380705
C64	C	2.366333	-0.785498	0.370928
H65	H	2.398952	-0.874412	0.371161
H66	H	2.342982	-0.772775	0.442941
H67	H	2.304524	-0.749698	0.294017
C68	C	2.305114	-0.508519	0.373008
H69	H	2.298850	-0.421450	0.374590
H70	H	2.252855	-0.515949	0.295785
H71	H	2.291326	-0.539024	0.444709
C72	C	2.192038	-0.178042	0.759460
H73	H	2.159292	-0.177813	0.669968
H74	H	2.215512	-0.106493	0.772264
H75	H	2.253788	-0.254455	0.795497
C76	C	1.942322	-0.719127	0.377800
H77	H	1.900308	-0.773371	0.373571
H78	H	1.946399	-0.678936	0.452380
H79	H	1.907947	-0.655876	0.303456
H80	H	2.723176	-0.174284	1.017399
H81	H	2.223176	-0.174284	1.017399
H82	H	2.219857	-0.801461	0.395473
C83	C	2.692042	-0.178039	0.759466
H84	H	2.759770	-0.181343	0.821868
H85	H	2.703561	-0.252663	0.719564
H86	H	2.665278	-0.104701	0.696337
H87	H	1.889346	-0.151399	0.993908
H88	H	2.336096	-0.153197	0.753064
