data_functionalizedCrystal
_audit_creation_method	'MofGen! by Chris Wilmer'
_symmetry_space_group_name_H-M	'P1'
_symmetry_Int_Tables_number	1
_symmetry_cell_setting	triclinic
loop_
_symmetry_equiv_pos_as_xyz
  x,y,z
_cell_length_a	14.395555
_cell_length_b	14.395555
_cell_length_c	20.875641
_cell_angle_alpha	90.003252
_cell_angle_beta	62.441515
_cell_angle_gamma	59.996404
loop_
_atom_site_label
_atom_site_type_symbol
_atom_site_fract_x
_atom_site_fract_y
_atom_site_fract_z
Zr1	Zr	1.008163	0.899162	-0.081165
O2	O	1.191471	0.756067	-0.179966
O3	O	0.817577	0.943037	-0.050877
O4	O	0.997660	0.949881	-0.179959
O5	O	1.022211	0.743815	0.050939
O6	O	0.997653	1.102755	-0.179954
O7	O	1.011388	0.749223	-0.050883
O8	O	0.675518	1.090512	0.050951
O9	O	1.344346	0.756058	-0.179966
O10	O	0.898658	1.075827	-0.037955
O11	O	0.906740	0.957702	0.038030
O12	O	1.118764	0.965760	-0.113948
O13	O	1.126846	0.847636	-0.037963
Zr14	Zr	1.025413	1.134353	0.081240
Zr15	Zr	1.008152	1.142978	-0.081156
Zr16	Zr	1.025423	0.890537	0.081231
Zr17	Zr	1.251981	0.899147	-0.081164
Zr18	Zr	0.781595	1.134368	0.081239
O19	O	1.215999	1.090478	0.050952
O20	O	1.191456	1.102743	-0.179954
O21	O	1.216014	0.743803	0.050940
O22	O	0.842105	1.277447	0.180041
O23	O	0.817562	1.289712	-0.050865
O24	O	0.842120	0.930772	0.180029
O25	O	1.011365	1.289700	-0.050864
O26	O	1.035916	1.083634	0.180034
O27	O	1.035923	0.930760	0.180029
O28	O	1.022188	1.284291	0.050959
O29	O	1.344338	0.949859	-0.179959
O30	O	0.689238	1.083656	0.180034
O31	O	0.689230	1.277457	0.180041
O32	O	0.675510	1.284313	0.050958
O33	O	1.358066	0.749202	-0.050883
O34	O	1.358058	0.943003	-0.050876
O35	O	0.914812	1.067754	0.114023
O36	O	0.906730	1.185878	0.038038
O37	O	1.126836	1.075812	-0.037955
O38	O	1.134918	0.957688	0.038030
C39	C	0.711808	1.016776	0.000037
C40	C	0.608301	1.016783	0.000037
C41	C	1.016801	0.711781	0.000027
C42	C	1.016805	0.608274	0.000023
C43	C	0.481409	1.081164	-0.041395
C44	C	0.616348	0.975498	-0.071434
C45	C	0.474769	1.122431	0.030041
C46	C	0.558909	0.911004	-0.030043
C47	C	0.417260	1.058013	0.071473
C48	C	0.552192	0.952282	0.041451
C49	C	1.136817	0.487672	-0.041405
C50	C	1.071430	0.458435	-0.071429
C51	C	1.082186	0.453088	0.030041
C52	C	0.951413	0.580403	-0.030042
C53	C	0.962191	0.575051	0.071467
C54	C	0.896715	0.545886	0.041461
C55	C	1.321768	1.016738	0.000038
C56	C	1.425275	1.016732	0.000038
C57	C	0.995197	1.027547	-0.203095
C58	C	0.987869	1.031208	-0.272036
C59	C	1.016775	1.321734	0.000048
C60	C	1.016771	1.425240	0.000052
C61	C	1.099317	0.975477	-0.344092
C62	C	1.092424	0.978932	-0.408867
C63	C	0.974083	1.038113	-0.401584
C64	C	0.862627	1.093851	-0.329520
C65	C	0.869521	1.090402	-0.264747
C66	C	0.941145	1.054595	-0.591052
C67	C	0.934259	1.058038	-0.655833
C68	C	1.164057	0.943120	-0.735175
C69	C	1.170941	0.939671	-0.670397
C70	C	1.059485	0.995414	-0.598339
N71	N	0.967035	1.041643	-0.467793
N72	N	1.066534	0.991890	-0.532132
C73	C	1.038379	1.005968	0.203170
C74	C	1.045706	1.002306	0.272111
C75	C	0.711796	1.321753	0.000048
C76	C	0.608284	1.425266	0.000051
C77	C	0.733399	1.005987	0.203169
C78	C	0.637220	1.002332	0.272110
C79	C	0.733387	1.310964	0.203180
C80	C	0.637203	1.410815	0.272125
C81	C	1.300189	0.722551	-0.203105
C82	C	1.396373	0.622700	-0.272050
C83	C	1.321780	0.711762	0.000027
C84	C	1.425292	0.608249	0.000024
C85	C	1.300177	1.027528	-0.203094
C86	C	1.396356	1.031183	-0.272035
C87	C	0.596267	1.058061	0.344160
C88	C	0.505910	1.054622	0.408944
C89	C	0.456501	0.995460	0.401676
C90	C	0.497463	0.939724	0.329618
C91	C	0.587824	0.943157	0.264836
C92	C	0.587815	1.519376	0.264838
C93	C	0.497453	1.613206	0.329613
C94	C	0.456474	1.598473	0.401673
C95	C	0.505871	1.489901	0.408958
C96	C	0.596238	1.396073	0.344184
C97	C	1.445773	0.514139	-0.264763
C98	C	1.536165	0.420309	-0.329538
C99	C	1.577149	0.435042	-0.401598
C100	C	1.527746	0.543614	-0.408883
C101	C	1.437362	0.637442	-0.344109
C102	C	1.445737	1.090355	-0.264743
C103	C	1.536096	1.093812	-0.329514
C104	C	1.577079	1.038089	-0.401577
C105	C	1.527688	0.978914	-0.408867
C106	C	1.437325	0.975465	-0.344097
C107	C	0.552122	1.545865	0.041466
C108	C	0.417197	1.575141	0.071475
C109	C	0.558822	1.580427	-0.029994
C110	C	0.474664	1.453176	0.030103
C111	C	0.616359	1.458467	-0.071406
C112	C	0.481441	1.487671	-0.041415
H113	H	0.701543	0.940598	-0.131847
H114	H	0.850389	1.099986	-0.532388
H115	H	0.382924	0.992673	0.454432
C116	C	1.676564	0.331828	-0.472845
H117	H	1.693910	0.356143	-0.516809
H118	H	1.644684	0.287835	-0.472843
H119	H	1.752445	0.287836	-0.472841
C120	C	0.593743	1.577698	0.088872
H121	H	0.523704	1.618251	0.139618
H122	H	0.623013	1.623211	0.068051
H123	H	0.660181	1.511257	0.088203
H124	H	0.440245	1.211799	0.055417
H125	H	0.795148	0.569689	0.076500
C126	C	1.286647	0.881821	-0.814436
H127	H	1.265597	0.892356	-0.851971
H128	H	1.334993	0.803769	-0.820127
H129	H	1.334976	0.911540	-0.820114
H130	H	0.896163	0.635117	-0.055487
H131	H	0.457221	0.891555	0.323712
C132	C	1.273889	0.455832	-0.088803
H133	H	1.312497	0.415301	-0.139554
H134	H	1.320739	0.410297	-0.067989
H135	H	1.272988	0.522270	-0.088118
C136	C	1.301113	0.874583	-0.678409
H137	H	1.289256	0.880504	-0.629512
H138	H	1.347190	0.905420	-0.705321
H139	H	1.347195	0.797655	-0.705327
C140	C	1.133787	0.390461	-0.153030
H141	H	1.219066	0.368988	-0.182411
H142	H	1.088156	0.435390	-0.174630
H143	H	1.132634	0.325052	-0.152389
H144	H	0.472492	1.477921	0.467638
H145	H	1.137490	0.398232	0.055416
H146	H	0.916072	0.625361	0.131862
H147	H	1.397141	0.725835	-0.350051
C148	C	1.590481	0.300894	-0.321511
H149	H	1.553105	0.305566	-0.269317
H150	H	1.679789	0.261720	-0.345120
H151	H	1.572030	0.261732	-0.345135
H152	H	1.561128	0.555597	-0.467562
C153	C	0.804081	1.123141	-0.647823
H154	H	0.815943	1.117197	-0.696721
H155	H	0.758000	1.200064	-0.620908
H156	H	0.758001	1.092300	-0.620909
C157	C	0.732454	1.158946	-0.321508
H158	H	0.744308	1.153009	-0.370404
H159	H	0.686369	1.235868	-0.294589
H160	H	0.686382	1.128098	-0.294595
H161	H	1.195684	0.927279	-0.350031
C162	C	1.383031	0.910356	-0.352128
H163	H	1.420397	0.877657	-0.404324
H164	H	1.293719	0.960490	-0.328510
H165	H	1.401509	0.852731	-0.328518
C166	C	1.215017	0.917623	-0.488126
H167	H	1.286483	0.881872	-0.483186
H168	H	1.217111	0.970455	-0.515042
H169	H	1.217100	0.862698	-0.515045
C170	C	0.746929	1.151701	-0.185485
H171	H	0.675461	1.187432	-0.190423
H172	H	0.744839	1.206623	-0.158564
H173	H	0.744845	1.098857	-0.158573
H174	H	0.636487	1.106237	0.350092
C175	C	0.439729	1.154623	-0.088781
H176	H	0.509743	1.125127	-0.139536
H177	H	0.410467	1.229411	-0.067965
H178	H	0.373275	1.154627	-0.088087
H179	H	1.561071	0.933546	-0.467550
H180	H	0.636437	1.307681	0.350127
H181	H	0.593616	0.821599	-0.055491
C182	C	0.302060	1.643151	0.153067
H183	H	0.326436	1.664618	0.182453
H184	H	0.272344	1.598246	0.174674
H185	H	0.236377	1.708564	0.152410
C186	C	0.731511	1.390466	-0.152988
H187	H	0.748193	1.318060	-0.165280
H188	H	0.803596	1.382775	-0.156904
H189	H	0.713774	1.428611	-0.187118
H190	H	1.412384	1.135733	-0.206072
C191	C	0.460858	1.115946	0.488197
H192	H	0.503213	1.151686	0.483241
H193	H	0.479668	1.063124	0.515120
H194	H	0.371891	1.170882	0.515118
H195	H	1.576301	1.141996	-0.323563
C196	C	0.632854	0.881860	0.185585
H197	H	0.590472	0.846145	0.190542
H198	H	0.721813	0.826924	0.158654
H199	H	0.614029	0.934701	0.158672
H200	H	0.439952	1.398489	0.055553
H201	H	0.621167	1.531393	0.206169
C202	C	0.443120	1.732621	0.321586
H203	H	0.480456	1.727948	0.269392
H204	H	0.461573	1.771791	0.345196
H205	H	0.353804	1.771787	0.345209
H206	H	0.382890	1.674883	0.454410
C207	C	0.439904	1.455541	-0.088756
H208	H	0.409312	1.411113	-0.067323
H209	H	0.510310	1.413784	-0.139275
H210	H	0.374435	1.521916	-0.088860
H211	H	0.593364	1.635247	-0.055380
H212	H	0.582979	0.897742	0.076481
C213	C	1.400707	0.497917	-0.185504
H214	H	1.339794	0.569339	-0.147963
H215	H	1.471132	0.457209	-0.179824
H216	H	1.363375	0.457201	-0.179825
C217	C	0.302129	1.105195	0.153064
H218	H	0.271456	1.180324	0.174316
H219	H	0.326856	1.060210	0.182708
H220	H	0.237025	1.104186	0.152500
C221	C	1.676487	1.041881	-0.472817
H222	H	1.700031	1.085096	-0.458147
H223	H	1.641508	1.075324	-0.502127
H224	H	1.749269	0.967555	-0.502122
