data_functionalizedCrystal
_audit_creation_method	'MofGen! by Chris Wilmer'
_symmetry_space_group_name_H-M	'P1'
_symmetry_Int_Tables_number	1
_symmetry_cell_setting	triclinic
loop_
_symmetry_equiv_pos_as_xyz
  x,y,z
_cell_length_a	27.354012
_cell_length_b	27.353283
_cell_length_c	27.349551
_cell_angle_alpha	60.005606
_cell_angle_beta	60.011434
_cell_angle_gamma	59.993282
loop_
_atom_site_label
_atom_site_type_symbol
_atom_site_fract_x
_atom_site_fract_y
_atom_site_fract_z
O1	O	0.067635	-0.714267	0.597330
O2	O	0.025429	-0.556105	0.481282
O3	O	0.125575	-0.656186	0.481214
O4	O	-0.032512	-0.614186	0.597397
O5	O	0.158797	-0.622968	0.514367
O6	O	0.058650	-0.522887	0.514434
O7	O	0.100856	-0.681048	0.630482
Zn8	Zn	0.085028	-0.596693	0.577722
Zn9	Zn	0.041257	-0.640460	0.534042
O10	O	0.000709	-0.580967	0.630549
N11	N	0.114901	-0.566828	0.607534
N12	N	0.011389	-0.670331	0.504229
C13	C	0.179404	-0.338196	0.672015
C14	C	0.179501	-0.502386	0.836160
C15	C	0.179415	-0.502363	0.671996
C16	C	0.343611	-0.502373	0.671960
C17	C	0.197478	-0.392371	0.690061
C18	C	0.197534	-0.484321	0.781984
C19	C	0.289434	-0.484312	0.690032
C20	C	0.197486	-0.484308	0.690051
C21	C	0.156398	-0.269238	0.649045
C22	C	0.156418	-0.525342	0.649015
C23	C	0.220484	-0.461329	0.713032
C24	C	0.443889	-0.485097	0.619172
C25	C	0.506571	-0.505993	0.598266
C26	C	0.506589	-0.607412	0.636940
C27	C	0.443909	-0.586515	0.657848
C28	C	0.171510	-0.237888	0.587422
C29	C	0.150593	-0.175201	0.566543
C30	C	0.099458	-0.175218	0.668913
C31	C	0.120375	-0.237905	0.689792
C32	C	0.094789	-0.510201	0.664176
C33	C	0.073888	-0.531091	0.643278
C34	C	0.176239	-0.582263	0.592072
C35	C	0.197142	-0.561373	0.612963
C36	C	0.094933	-0.510244	0.936476
C37	C	0.074073	-0.531151	0.999161
C38	C	0.176453	-0.582335	0.999126
C39	C	0.197312	-0.561429	0.936439
C40	C	0.156551	-0.525382	0.905116
C41	C	0.412561	-0.525357	0.648961
C42	C	-0.098513	-0.688235	0.485867
C43	C	-0.006461	-0.688368	0.394066
C44	C	-0.006645	-0.780264	0.486040
C45	C	-0.006630	-0.688361	0.486097
C46	C	-0.029562	-0.711308	0.463018
N47	N	0.537030	-0.566846	0.607436
O48	O	0.741877	-0.576849	0.459995
O49	O	0.742050	-0.693241	0.618010
O50	O	0.741986	-0.692977	0.517791
O51	O	0.741941	-0.577114	0.560214
O52	O	0.642405	-0.659839	0.551046
O53	O	0.642469	-0.660104	0.651265
O54	O	0.642296	-0.543712	0.493251
Zn55	Zn	0.626572	-0.596646	0.577538
Zn56	Zn	0.757774	-0.640307	0.533723
O57	O	0.642360	-0.543976	0.593469
N58	N	0.847316	-0.670107	0.503818
N59	N	0.114877	-0.144758	0.607577
O60	O	-0.032498	0.060193	0.597441
O61	O	0.125523	0.060193	0.481067
O62	O	0.025289	0.060179	0.481345
O63	O	0.067736	0.060207	0.597163
O64	O	0.058511	-0.039410	0.514543
O65	O	0.158745	-0.039397	0.514265
O66	O	0.000724	-0.039396	0.630638
Zn67	Zn	0.085009	-0.055208	0.577722
Zn68	Zn	0.041238	0.076005	0.533983
O69	O	0.100958	-0.039382	0.630360
N70	N	0.011362	0.165555	0.504130
N71	N	0.115121	-0.566884	1.029592
O72	O	0.104990	-0.714248	1.234528
O73	O	-0.011371	-0.556177	1.234539
O74	O	-0.011103	-0.656395	1.234497
O75	O	0.104722	-0.614030	1.234569
O76	O	0.022090	-0.623190	1.134913
O77	O	0.021822	-0.522972	1.134954
O78	O	0.138182	-0.681044	1.134943
Zn79	Zn	0.085272	-0.596736	1.119137
Zn80	Zn	0.041539	-0.640484	1.250344
O81	O	0.137914	-0.580826	1.134984
N82	N	0.011689	-0.670343	1.339890
C83	C	0.038085	-0.519567	0.481870
C84	C	0.162104	-0.643505	0.481786
C85	C	0.088200	-0.717587	0.629893
C86	C	-0.035819	-0.593649	0.629977
C87	C	0.692280	-0.692701	0.654545
C88	C	0.692203	-0.692374	0.530435
C89	C	0.692063	-0.544251	0.456717
C90	C	0.692144	-0.544580	0.580825
C91	C	0.162000	0.010521	0.481600
C92	C	0.037914	0.010381	0.481984
C93	C	-0.035795	0.010399	0.630065
C94	C	0.088333	0.010415	0.629722
C95	C	-0.010799	-0.519660	1.184747
C96	C	-0.010461	-0.643761	1.184677
C97	C	0.137610	-0.717561	1.184734
C98	C	0.137280	-0.593452	1.184783
H99	H	0.023897	-0.518815	1.024687
H100	H	0.532080	-0.473208	0.574011
C101	C	-0.123445	0.061606	0.695412
C102	C	-0.097057	0.010405	0.679393
H103	H	-0.161263	0.061607	0.725868
H104	H	-0.128702	0.096323	0.661384
H105	H	-0.098267	0.061605	0.709858
H106	H	-0.122233	0.010407	0.664943
H107	H	-0.091802	-0.024322	0.713427
C108	C	0.743151	-0.478848	0.369039
C109	C	0.691989	-0.494916	0.395458
H110	H	0.743101	-0.448388	0.331223
H111	H	0.777889	-0.512860	0.363770
H112	H	0.743153	-0.464390	0.394206
H113	H	0.691989	-0.509379	0.370293
H114	H	0.657242	-0.460898	0.400724
C115	C	0.159041	0.010407	0.657273
C116	C	0.100599	0.010410	0.678848
H117	H	0.166614	0.010397	0.687604
H118	H	0.163487	0.045137	0.623229
H119	H	0.186655	-0.024322	0.646363
H120	H	0.072985	0.045141	0.689754
H121	H	0.096147	-0.024323	0.712902
C122	C	-0.110272	-0.466107	1.235928
C123	C	-0.060119	-0.458375	1.184748
H124	H	-0.140721	-0.428272	1.235924
H125	H	-0.099394	-0.484020	1.270657
H126	H	-0.124720	-0.491264	1.235906
H127	H	-0.045669	-0.433221	1.184773
H128	H	-0.070998	-0.440453	1.150010
C129	C	-0.037985	-0.714405	1.184555
C130	C	-0.059563	-0.655968	1.184588
H131	H	-0.068299	-0.721939	1.184496
H132	H	-0.027113	-0.742036	1.219297
H133	H	-0.003914	-0.718868	1.149842
H134	H	-0.093632	-0.651507	1.219304
H135	H	-0.070444	-0.628329	1.149842
H136	H	0.097215	-0.763020	0.666340
H137	H	0.029071	-0.474132	0.445424
H138	H	0.174144	-0.762957	1.184724
C139	C	0.072479	-0.308448	0.772692
C140	C	0.103806	-0.272382	0.757526
H141	H	0.062260	-0.329736	0.814509
H142	H	0.096920	-0.336064	0.751401
H143	H	0.037006	-0.284000	0.762459
H144	H	0.139282	-0.296831	0.767755
H145	H	0.079364	-0.244763	0.778824
H146	H	0.173667	-0.584388	1.184797
H147	H	0.028825	0.010378	0.445599
H148	H	0.207290	0.010797	0.444973
H149	H	0.061737	-0.480889	0.910978
H150	H	-0.081227	-0.584696	0.666460
H151	H	0.692323	-0.729239	0.699929
H152	H	0.692221	-0.728771	0.521355
C153	C	0.257293	-0.674195	1.018394
C154	C	0.221255	-0.621955	1.033562
H155	H	0.284947	-0.698659	1.039659
H156	H	0.278536	-0.663908	0.976580
H157	H	0.232835	-0.695451	1.028669
H158	H	0.245712	-0.600696	1.023283
H159	H	0.200010	-0.632241	1.075385
C160	C	0.274752	-0.552115	0.840334
C161	C	0.265047	-0.578072	0.901969
H162	H	0.316569	-0.562394	0.819056
H163	H	0.257140	-0.509825	0.830074
H164	H	0.257137	-0.566533	0.830071
H165	H	0.282659	-0.563651	0.912232
H166	H	0.282667	-0.620371	0.912233
C167	C	-0.008483	-0.461706	0.712681
C168	C	0.050023	-0.470589	0.703797
H169	H	-0.036119	-0.437248	0.737140
H170	H	-0.014494	-0.499274	0.731818
H171	H	-0.014517	-0.442562	0.675111
H172	H	0.056058	-0.489738	0.741367
H173	H	0.056037	-0.433015	0.684661
H174	H	0.692134	-0.508185	0.589902
H175	H	0.209407	-0.611608	0.562721
C176	C	-0.008965	-0.566713	0.691267
C177	C	0.006146	-0.514454	0.659936
H178	H	-0.050785	-0.556441	0.701546
H179	H	0.001329	-0.587980	0.726701
H180	H	0.012306	-0.591153	0.666796
H181	H	-0.015122	-0.490016	0.684409
H182	H	-0.004155	-0.493177	0.624497
C183	C	0.290788	-0.556737	0.533950
C184	C	0.264885	-0.578006	0.596296
H185	H	0.332610	-0.567007	0.523661
H186	H	0.273163	-0.514446	0.519556
H187	H	0.284168	-0.574342	0.516354
H188	H	0.271502	-0.560396	0.613892
H189	H	0.282517	-0.620304	0.610697
C190	C	0.424621	-0.659972	0.652550
C191	C	0.409479	-0.630775	0.690588
H192	H	0.403363	-0.687296	0.672761
H193	H	0.466434	-0.681160	0.641373
H194	H	0.414323	-0.631258	0.617724
H195	H	0.419781	-0.659489	0.725412
H196	H	0.367656	-0.609586	0.701774
C197	C	0.577115	-0.696301	0.680543
C198	C	0.541050	-0.674636	0.646702
H199	H	0.598394	-0.737802	0.686565
H200	H	0.552677	-0.690490	0.718204
H201	H	0.604742	-0.675308	0.659804
H202	H	0.513420	-0.695626	0.667444
H203	H	0.565491	-0.680453	0.609035
H204	H	0.418366	-0.435297	0.611936
H205	H	0.162897	-0.149674	0.516363
C206	C	0.179721	-0.257175	0.506608
C207	C	0.211103	-0.272329	0.542632
H208	H	0.204164	-0.278442	0.478960
H209	H	0.169431	-0.215359	0.485356
H210	H	0.144288	-0.267456	0.531078
H211	H	0.246534	-0.262043	0.518162
H212	H	0.221402	-0.314154	0.563885
C213	C	0.051025	-0.181531	0.772201
C214	C	0.059865	-0.140773	0.713701
H215	H	0.026578	-0.160266	0.799851
H216	H	0.088603	-0.205976	0.778205
H217	H	0.031889	-0.205984	0.778223
H218	H	0.079005	-0.116323	0.707678
H219	H	0.022280	-0.116317	0.707695
H220	H	0.207509	-0.652460	0.445301
