data_functionalizedCrystal
_audit_creation_method	'MofGen! by Chris Wilmer'
_symmetry_space_group_name_H-M	'P1'
_symmetry_Int_Tables_number	1
_symmetry_cell_setting	triclinic
loop_
_symmetry_equiv_pos_as_xyz
  x,y,z
_cell_length_a	16.992694
_cell_length_b	18.266242
_cell_length_c	16.974813
_cell_angle_alpha	93.660911
_cell_angle_beta	87.024634
_cell_angle_gamma	90.003271
loop_
_atom_site_label
_atom_site_type_symbol
_atom_site_fract_x
_atom_site_fract_y
_atom_site_fract_z
O1	O	1.040217	0.070720	0.167651
O2	O	0.811933	0.070633	0.165812
O3	O	0.932438	0.063877	0.052030
O4	O	0.919712	0.077476	0.281433
O5	O	0.932418	-0.057886	0.052022
O6	O	0.811913	-0.051130	0.165804
O7	O	1.040196	-0.051042	0.167644
Zn8	Zn	0.926051	-0.070418	0.166723
Zn9	Zn	0.926078	0.090009	0.166733
O10	O	0.919691	-0.044286	0.281426
C11	C	0.782713	0.009614	0.163442
C12	C	0.695676	0.009204	0.156382
N13	N	0.926039	-0.179906	0.166716
C14	C	0.645363	0.013241	0.224498
C15	C	0.563583	0.012838	0.217860
C16	C	0.532119	0.008402	0.143106
C17	C	0.582439	0.004362	0.074985
C18	C	0.664217	0.004761	0.081624
C19	C	0.288551	0.006751	0.115591
C20	C	0.206766	0.006355	0.108957
C21	C	0.187917	0.014830	0.251833
C22	C	0.269697	0.015232	0.258466
C23	C	0.320010	0.011189	0.190345
N24	N	0.448528	0.007992	0.136319
N25	N	0.403600	0.011594	0.197132
C26	C	0.979416	-0.221205	0.116361
C27	C	0.979421	-0.297850	0.116357
C28	C	0.926056	-0.333192	0.166723
C29	C	0.872669	-0.291884	0.217082
C30	C	0.872660	-0.215241	0.217078
N31	N	0.916001	-0.449414	0.236053
N32	N	0.916015	-0.522222	0.236054
C33	C	0.926078	-0.564114	0.166736
N34	N	0.936144	-0.530447	0.097415
N35	N	0.936135	-0.457632	0.097415
C36	C	0.926059	-0.416299	0.166732
C37	C	0.979464	-0.688520	0.116373
C38	C	0.979463	-0.765167	0.116368
C39	C	0.872715	-0.759199	0.217100
C40	C	0.872712	-0.682555	0.217098
C41	C	0.926090	-0.647220	0.166735
C42	C	1.069416	0.009978	0.170013
C43	C	1.156453	0.010393	0.177073
C44	C	0.931944	0.001249	0.022537
C45	C	0.930491	-0.003955	-0.065332
N46	N	0.926097	0.199496	0.166734
C47	C	0.929822	0.059973	-0.106604
C48	C	0.928452	0.055081	-0.189166
C49	C	0.927757	-0.013739	-0.230454
C50	C	0.928424	-0.077671	-0.189176
C51	C	0.929788	-0.072779	-0.106615
C52	C	0.923670	-0.035488	-0.477374
C53	C	0.922308	-0.040376	-0.559941
C54	C	0.922334	0.092377	-0.559925
C55	C	0.923703	0.097263	-0.477363
C56	C	0.924366	0.033331	-0.436092
N57	N	0.926359	-0.018741	-0.314845
N58	N	0.925758	0.038334	-0.351701
C59	C	0.920186	0.018343	0.310918
C60	C	0.921638	0.023551	0.398787
H61	H	0.670974	0.016854	0.285371
H62	H	0.522621	0.016126	0.273328
H63	H	0.930391	0.116014	-0.072993
H64	H	0.927854	-0.133706	-0.222799
H65	H	1.022925	-0.659750	0.075362
F66	F	0.342087	0.002448	0.043090
H67	H	0.930322	-0.124835	-0.073012
H68	H	0.927910	0.107138	-0.222766
H69	H	0.924270	0.153304	-0.443751
H70	H	0.921793	0.144427	-0.593536
H71	H	0.829217	-0.320664	0.258089
F72	F	0.548950	-0.000364	-0.004575
F73	F	0.921573	-0.113627	-0.603881
F74	F	0.303177	0.019957	0.338029
F75	F	0.134365	0.019132	0.324327
F76	F	0.717764	0.000461	0.009125
H77	H	0.181152	0.002744	0.048080
H78	H	0.924225	-0.087547	-0.443782
H79	H	1.022878	-0.192437	0.075351
H80	H	0.829193	-0.181614	0.258084
F81	F	1.036235	-0.341810	0.062760
H82	H	1.022927	-0.798794	0.075359
F83	F	0.815916	-0.796810	0.270698
H84	H	0.829250	-0.648927	0.258105
