data_functionalizedCrystal
_audit_creation_method	'MofGen! by Chris Wilmer'
_symmetry_space_group_name_H-M	'P1'
_symmetry_Int_Tables_number	1
_symmetry_cell_setting	triclinic
loop_
_symmetry_equiv_pos_as_xyz
  x,y,z
_cell_length_a	15.995350
_cell_length_b	17.038272
_cell_length_c	15.072220
_cell_angle_alpha	89.999202
_cell_angle_beta	89.991149
_cell_angle_gamma	87.301966
loop_
_atom_site_label
_atom_site_type_symbol
_atom_site_fract_x
_atom_site_fract_y
_atom_site_fract_z
O1	O	1.118174	0.100774	-0.073708
O2	O	1.618174	0.600774	0.426292
O3	O	0.875285	0.113219	-0.073726
O4	O	1.375285	0.613219	0.426274
O5	O	0.995286	-0.006819	-0.073710
O6	O	1.495286	0.493181	0.426290
O7	O	0.998173	0.220812	-0.073724
O8	O	1.498173	0.720812	0.426276
O9	O	0.995255	-0.006813	0.073855
O10	O	1.495255	0.493187	0.573855
O11	O	0.875254	0.113226	0.073839
O12	O	1.375254	0.613226	0.573839
O13	O	1.118143	0.100781	0.073857
O14	O	1.618143	0.600781	0.573857
Zn15	Zn	0.996694	0.107004	0.097277
Zn16	Zn	1.496694	0.607004	0.597277
Zn17	Zn	0.996735	0.106995	-0.097146
Zn18	Zn	1.496735	0.606995	0.402854
O19	O	0.998142	0.220819	0.073841
O20	O	1.498142	0.720819	0.573841
C21	C	0.844038	0.112708	0.000054
C22	C	1.344038	0.612708	0.500054
C23	C	0.750978	0.111165	0.000047
C24	C	1.250978	0.611165	0.500047
C25	C	0.412836	0.105626	0.000066
C26	C	0.912836	0.605626	0.500066
C27	C	0.454180	0.020137	0.000400
C28	C	0.954180	0.520137	0.500400
C29	C	0.550981	0.021680	0.000062
C30	C	1.050981	0.521680	0.500062
C31	C	0.580592	0.108374	0.000057
C32	C	1.080592	0.608374	0.500057
C33	C	0.542527	0.150536	-0.084209
C34	C	1.042527	0.650536	0.415791
C35	C	0.445738	0.148388	-0.084273
C36	C	0.945738	0.648388	0.415727
C37	C	0.445489	0.150162	0.083536
C38	C	0.945489	0.650162	0.583536
C39	C	0.542433	0.150142	0.084644
C40	C	1.042433	0.650142	0.584644
C41	C	0.675401	0.109931	0.000049
C42	C	1.175401	0.609931	0.500049
C43	C	0.318027	0.104071	0.000068
C44	C	0.818027	0.604071	0.500068
C45	C	0.992645	-0.035945	0.000072
C46	C	1.492645	0.464055	0.500072
C47	C	0.984810	-0.122740	0.000071
C48	C	1.484810	0.377260	0.500071
C49	C	1.056739	-0.172836	0.000078
C50	C	1.556739	0.327164	0.500078
C51	C	1.049373	-0.254389	0.000069
C52	C	1.549373	0.245611	0.500069
C53	C	0.970077	-0.285843	0.000060
C54	C	1.470077	0.214157	0.500060
C55	C	0.898143	-0.235740	0.000051
C56	C	1.398143	0.264260	0.500051
C57	C	0.905510	-0.154189	0.000053
C58	C	1.405510	0.345811	0.500053
C59	C	0.944051	-0.531607	0.000046
C60	C	1.444051	-0.031607	0.500046
C61	C	0.936689	-0.613164	0.000046
C62	C	1.436689	-0.113164	0.500046
C63	C	1.087920	-0.631807	0.000062
C64	C	1.587920	-0.131807	0.500062
C65	C	1.095280	-0.550254	0.000070
C66	C	1.595280	-0.050254	0.500070
C67	C	1.023346	-0.500158	0.000056
C68	C	1.523346	-0.000158	0.500056
C69	C	0.962546	-0.369202	0.000053
C70	C	1.462546	0.130798	0.500053
C71	C	1.030878	-0.416801	0.000056
C72	C	1.530878	0.083199	0.500056
C73	C	1.149390	0.101292	0.000075
C74	C	1.649390	0.601292	0.500075
C75	C	1.242450	0.102834	0.000076
C76	C	1.742450	0.602834	0.500076
C77	C	1.000784	0.249944	0.000057
C78	C	1.500784	0.749944	0.500057
C79	C	1.008618	0.336739	0.000052
C80	C	1.508618	0.836739	0.500052
N81	N	0.996671	0.107010	0.229966
N82	N	1.496671	0.607010	0.729966
N83	N	0.996763	0.106984	-0.229835
N84	N	1.496763	0.606984	0.270165
C85	C	0.996733	0.106992	0.589168
C86	C	1.496733	0.606992	1.089168
C87	C	0.932276	0.171007	0.551552
C88	C	1.432276	0.671007	1.051552
C89	C	0.932451	0.171241	0.448726
C90	C	1.432451	0.671241	0.948726
C91	C	0.996702	0.107001	0.410963
C92	C	1.496702	0.607001	0.910963
C93	C	1.085336	0.124819	0.448260
C94	C	1.585336	0.624819	0.948260
C95	C	1.084981	0.125274	0.551118
C96	C	1.584981	0.625274	1.051118
C97	C	0.973321	0.024970	0.551271
C98	C	1.473321	0.524970	1.051271
C99	C	0.971355	0.025517	0.448408
C100	C	1.471355	0.525517	0.948408
C101	C	0.996689	0.107004	0.310250
C102	C	1.496689	0.607004	0.810250
C103	C	0.996751	0.106991	0.689881
C104	C	1.496751	0.606991	1.189881
H105	H	0.417961	0.211153	-0.088100
H106	H	0.917961	0.711153	0.411900
Br107	Br	0.586360	0.101721	-0.188732
Br108	Br	1.086360	0.601721	0.311268
Br109	Br	0.958338	0.272701	0.407689
Br110	Br	1.458338	0.772701	0.907689
H111	H	0.866755	0.160625	0.423511
H112	H	1.366755	0.660625	0.923511
H113	H	1.121310	-0.147233	0.000090
H114	H	1.621310	0.352767	0.500090
Br115	Br	0.411589	0.097134	-0.189256
Br116	Br	0.911589	0.597134	0.310744
H117	H	1.104725	0.185092	0.575097
H118	H	1.604725	0.685092	1.075097
Br119	Br	1.167733	0.050433	0.592594
Br120	Br	1.667733	0.550433	1.092594
Br121	Br	0.594413	-0.033560	0.100741
Br122	Br	1.094413	0.466440	0.600741
H123	H	1.146484	-0.672604	0.000071
H124	H	1.646484	-0.172604	0.500071
Br125	Br	0.400038	0.255217	0.084481
Br126	Br	0.900038	0.755217	0.584481
Br127	Br	0.829067	-0.655851	0.000043
Br128	Br	1.329067	-0.155851	0.500043
Br129	Br	0.593462	-0.033693	-0.100964
Br130	Br	1.093462	0.466307	0.399036
Br131	Br	0.822439	0.153592	0.592789
Br132	Br	1.322439	0.653592	1.092789
H133	H	0.561189	0.214228	-0.087345
H134	H	1.061189	0.714228	0.412655
Br135	Br	0.862633	0.002976	0.407783
Br136	Br	1.362633	0.502976	0.907783
Br137	Br	1.043783	-0.057604	0.405583
Br138	Br	1.543783	0.442396	0.905583
Br139	Br	0.807889	-0.086199	0.000038
Br140	Br	1.307889	0.413801	0.500038
H141	H	0.897983	-0.394821	0.000048
H142	H	1.397983	0.105179	0.500048
Br143	Br	0.407926	0.103583	0.189994
Br144	Br	0.907926	0.603583	0.689994
H145	H	0.567544	0.119364	0.146983
H146	H	1.067544	0.619364	0.646983
H147	H	0.833579	-0.261356	0.000038
H148	H	1.333579	0.238644	0.500038
H149	H	1.159850	-0.524651	0.000077
H150	H	1.659850	-0.024651	0.500077
Br151	Br	0.575539	0.255518	0.093123
Br152	Br	1.075539	0.755518	0.593123
Br153	Br	1.146995	-0.322375	0.000077
Br154	Br	1.646995	0.177625	0.500077
H155	H	0.885477	-0.490828	0.000035
H156	H	1.385477	0.009172	0.500035
Br157	Br	0.957911	0.271891	0.594592
Br158	Br	1.457911	0.771891	1.094592
H159	H	1.020258	-0.022668	0.575596
H160	H	1.520258	0.477332	1.075596
Br161	Br	1.167595	0.049174	0.407497
Br162	Br	1.667595	0.549174	0.907497
Br163	Br	1.118784	0.223383	0.405308
Br164	Br	1.618784	0.723383	0.905308
H165	H	0.433211	-0.014032	0.060831
H166	H	0.933211	0.485968	0.560831
H167	H	0.432177	-0.013880	-0.059693
H168	H	0.932177	0.486120	0.440307
H169	H	1.095440	-0.391187	0.000044
H170	H	1.595440	0.108813	0.500044
Br171	Br	0.867394	-0.003572	0.594552
Br172	Br	1.367394	0.496428	1.094552
