data_functionalizedCrystal
_audit_creation_method	'MofGen! by Chris Wilmer'
_symmetry_space_group_name_H-M	'P1'
_symmetry_Int_Tables_number	1
_symmetry_cell_setting	triclinic
loop_
_symmetry_equiv_pos_as_xyz
  x,y,z
_cell_length_a	15.944551
_cell_length_b	15.021413
_cell_length_c	15.944493
_cell_angle_alpha	90.009890
_cell_angle_beta	83.486891
_cell_angle_gamma	89.997174
loop_
_atom_site_label
_atom_site_type_symbol
_atom_site_fract_x
_atom_site_fract_y
_atom_site_fract_z
O1	O	1.114506	-0.073927	0.108324
O2	O	1.364506	0.176073	0.358324
O3	O	1.614506	0.426073	0.608324
O4	O	1.864506	0.676073	0.858324
O5	O	0.869954	-0.073948	0.121680
O6	O	1.119954	0.176052	0.371680
O7	O	1.369954	0.426052	0.621680
O8	O	1.619954	0.676052	0.871680
O9	O	0.998934	-0.073945	-0.007276
O10	O	1.248934	0.176055	0.242724
O11	O	1.498934	0.426055	0.492724
O12	O	1.748934	0.676055	0.742724
O13	O	0.985527	-0.073931	0.237280
O14	O	1.235527	0.176069	0.487280
O15	O	1.485527	0.426069	0.737280
O16	O	1.735527	0.676069	0.987280
O17	O	0.998913	0.074120	-0.007258
O18	O	1.248913	0.324120	0.242742
O19	O	1.498913	0.574120	0.492742
O20	O	1.748913	0.824120	0.742742
O21	O	0.869933	0.074116	0.121699
O22	O	1.119933	0.324116	0.371699
O23	O	1.369933	0.574116	0.621699
O24	O	1.619933	0.824116	0.871699
O25	O	1.114486	0.074137	0.108342
O26	O	1.364486	0.324137	0.358342
O27	O	1.614486	0.574137	0.608342
O28	O	1.864486	0.824137	0.858342
Zn29	Zn	0.992206	0.097635	0.115023
Zn30	Zn	1.242206	0.347635	0.365023
Zn31	Zn	1.492206	0.597635	0.615023
Zn32	Zn	1.742206	0.847635	0.865023
Zn33	Zn	0.992233	-0.097446	0.114999
Zn34	Zn	1.242233	0.152554	0.364999
Zn35	Zn	1.492233	0.402554	0.614999
Zn36	Zn	1.742233	0.652554	0.864999
O37	O	0.985506	0.074133	0.237299
O38	O	1.235506	0.324133	0.487299
O39	O	1.485506	0.574133	0.737299
O40	O	1.735506	0.824133	0.987299
C41	C	0.838650	0.000081	0.121135
C42	C	1.088650	0.250081	0.371135
C43	C	1.338650	0.500081	0.621135
C44	C	1.588650	0.750081	0.871135
C45	C	0.745404	0.000073	0.119473
C46	C	0.995404	0.250073	0.369473
C47	C	1.245404	0.500073	0.619473
C48	C	1.495404	0.750073	0.869473
N49	N	0.992194	0.230772	0.115039
N50	N	1.242194	0.480772	0.365039
N51	N	1.492194	0.730772	0.615039
N52	N	1.742194	0.980772	0.865039
C53	C	0.998375	0.000084	-0.038562
C54	C	1.248375	0.250084	0.211438
C55	C	1.498375	0.500084	0.461438
C56	C	1.748375	0.750084	0.711438
C57	C	0.996733	0.000072	-0.131810
C58	C	1.246733	0.250072	0.118190
C59	C	1.496733	0.500072	0.368190
C60	C	1.746733	0.750072	0.618190
C61	C	0.530565	0.000085	0.035566
C62	C	0.780565	0.250085	0.285566
C63	C	1.030565	0.500085	0.535566
C64	C	1.280565	0.750085	0.785566
C65	C	0.469547	-0.072916	0.074520
C66	C	0.719547	0.177084	0.324520
C67	C	0.969547	0.427084	0.574520
C68	C	1.219547	0.677084	0.824520
C69	C	0.574679	0.000083	0.116465
C70	C	0.824679	0.250083	0.366465
C71	C	1.074679	0.500083	0.616465
C72	C	1.324679	0.750083	0.866465
C73	C	0.469549	0.073064	0.074558
C74	C	0.719549	0.323064	0.324558
C75	C	0.969549	0.573064	0.574558
C76	C	1.219549	0.823064	0.824558
C77	C	0.409767	0.000097	0.113555
C78	C	0.659767	0.250097	0.363555
C79	C	0.909767	0.500097	0.613555
C80	C	1.159767	0.750097	0.863555
C81	C	0.514889	-0.072979	0.155442
C82	C	0.764889	0.177021	0.405442
C83	C	1.014889	0.427021	0.655442
C84	C	1.264889	0.677021	0.905442
C85	C	0.514897	0.073067	0.155468
C86	C	0.764897	0.323067	0.405468
C87	C	1.014897	0.573067	0.655468
C88	C	1.264897	0.823067	0.905468
C89	C	0.453897	0.000048	0.194481
C90	C	0.703897	0.250048	0.444481
C91	C	0.953897	0.500048	0.694481
C92	C	1.203897	0.750048	0.944481
C93	C	0.669681	0.000074	0.118140
C94	C	0.919681	0.250074	0.368140
C95	C	1.169681	0.500074	0.618140
C96	C	1.419681	0.750074	0.868140
C97	C	0.314766	0.000099	0.111886
C98	C	0.564766	0.250099	0.361886
C99	C	0.814766	0.500099	0.611886
C100	C	1.064766	0.750099	0.861886
C101	C	1.145790	0.000106	0.108888
C102	C	1.395790	0.250106	0.358888
C103	C	1.645790	0.500106	0.608888
C104	C	1.895790	0.750106	0.858888
C105	C	1.239036	0.000108	0.110550
C106	C	1.489036	0.250108	0.360550
C107	C	1.739036	0.500108	0.610550
C108	C	1.989036	0.750108	0.860550
N109	N	0.992252	-0.230584	0.114976
N110	N	1.242252	0.019416	0.364976
N111	N	1.492252	0.269416	0.614976
N112	N	1.742252	0.519416	0.864976
C113	C	0.932545	0.470454	0.174641
C114	C	1.182545	0.720454	0.424641
C115	C	1.432545	0.970454	0.674641
C116	C	1.682545	1.220454	0.924641
C117	C	1.008442	0.529796	0.190948
C118	C	1.258442	0.779796	0.440948
C119	C	1.508442	1.029796	0.690948
C120	C	1.758442	1.279796	0.940948
C121	C	0.992215	0.412379	0.115018
C122	C	1.242215	0.662379	0.365018
C123	C	1.492215	0.912379	0.615018
C124	C	1.742215	1.162379	0.865018
C125	C	0.916339	0.529779	0.098730
C126	C	1.166339	0.779779	0.348730
C127	C	1.416339	1.029779	0.598730
C128	C	1.666339	1.279779	0.848730
C129	C	0.992229	0.587803	0.115000
C130	C	1.242229	0.837803	0.365000
C131	C	1.492229	1.087803	0.615000
C132	C	1.742229	1.337803	0.865000
C133	C	1.068151	0.470415	0.131364
C134	C	1.318151	0.720415	0.381364
C135	C	1.568151	0.970415	0.631364
C136	C	1.818151	1.220415	0.881364
C137	C	0.975998	0.470392	0.039112
C138	C	1.225998	0.720392	0.289112
C139	C	1.475998	0.970392	0.539112
C140	C	1.725998	1.220392	0.789112
C141	C	1.051950	0.529708	0.055387
C142	C	1.301950	0.779708	0.305387
C143	C	1.551950	1.029708	0.555387
C144	C	1.801950	1.279708	0.805387
C145	C	0.992206	0.311322	0.115031
C146	C	1.242206	0.561322	0.365031
C147	C	1.492206	0.811322	0.615031
C148	C	1.742206	1.061322	0.865031
C149	C	0.992247	0.688859	0.114987
C150	C	1.242247	0.938859	0.364987
C151	C	1.492247	1.188859	0.614987
C152	C	1.742247	1.438859	0.864987
C153	C	1.072653	0.000095	-0.367570
C154	C	1.322653	0.250095	-0.117570
C155	C	1.572653	0.500095	0.132430
C156	C	1.822653	0.750095	0.382430
C157	C	1.031722	-0.072911	-0.418147
C158	C	1.281722	0.177089	-0.168147
C159	C	1.531722	0.427089	0.081853
C160	C	1.781722	0.677089	0.331853
C161	C	0.993688	0.000083	-0.302531
C162	C	1.243688	0.250083	-0.052531
C163	C	1.493688	0.500083	0.197469
C164	C	1.743688	0.750083	0.447469
C165	C	1.031683	0.073069	-0.418105
C166	C	1.281683	0.323069	-0.168105
C167	C	1.531683	0.573069	0.081895
C168	C	1.781683	0.823069	0.331895
C169	C	0.990754	0.000097	-0.467441
C170	C	1.240754	0.250097	-0.217441
C171	C	1.490754	0.500097	0.032559
C172	C	1.740754	0.750097	0.282559
C173	C	0.952779	-0.072984	-0.351880
C174	C	1.202779	0.177016	-0.101880
C175	C	1.452779	0.427016	0.148120
C176	C	1.702779	0.677016	0.398120
C177	C	0.952752	0.073061	-0.351835
C178	C	1.202752	0.323061	-0.101835
C179	C	1.452752	0.573061	0.148165
C180	C	1.702752	0.823061	0.398165
C181	C	0.911763	0.000037	-0.402379
C182	C	1.161763	0.250037	-0.152379
C183	C	1.411763	0.500037	0.097621
C184	C	1.661763	0.750037	0.347621
C185	C	0.995381	0.000074	-0.207531
C186	C	1.245381	0.250074	0.042469
C187	C	1.495381	0.500074	0.292469
C188	C	1.745381	0.750074	0.542469
C189	C	0.989055	0.000100	-0.562438
C190	C	1.239055	0.250100	-0.312438
C191	C	1.489055	0.500100	-0.062438
C192	C	1.739055	0.750100	0.187562
C193	C	0.986064	0.000103	0.268584
C194	C	1.236064	0.250103	0.518584
C195	C	1.486064	0.500103	0.768584
C196	C	1.736064	0.750103	1.018584
C197	C	0.987707	0.000109	0.361833
C198	C	1.237707	0.250109	0.611833
C199	C	1.487707	0.500109	0.861833
C200	C	1.737707	0.750109	1.111833
H201	H	0.563912	-0.000009	-0.031574
H202	H	0.813912	0.249991	0.218426
H203	H	1.063912	0.499991	0.468426
H204	H	1.313912	0.749991	0.718426
F205	F	1.152050	0.436479	0.149459
F206	F	1.402050	0.686479	0.399459
F207	F	1.652050	0.936479	0.649459
F208	F	1.902050	1.186479	0.899459
H209	H	1.022171	0.555888	0.255133
H210	H	1.272171	0.805888	0.505133
H211	H	1.522171	1.055888	0.755133
H212	H	1.772171	1.305888	1.005133
F213	F	0.541192	0.153745	0.200166
F214	F	0.791192	0.403745	0.450166
F215	F	1.041192	0.653745	0.700166
F216	F	1.291192	0.903745	0.950166
F217	F	1.117985	0.563506	-0.010530
F218	F	1.367985	0.813506	0.239470
F219	F	1.617985	1.063506	0.489470
F220	F	1.867985	1.313506	0.739470
H221	H	0.962245	0.444279	-0.025052
H222	H	1.212245	0.694279	0.224948
H223	H	1.462245	0.944279	0.474948
H224	H	1.712245	1.194279	0.724948
F225	F	1.161556	0.000010	-0.347140
F226	F	1.411556	0.250010	-0.097140
F227	F	1.661556	0.500010	0.152860
F228	F	1.911556	0.750010	0.402860
F229	F	1.075280	0.153739	-0.455908
F230	F	1.325280	0.403739	-0.205908
F231	F	1.575280	0.653739	0.044092
F232	F	1.825280	0.903739	0.294092
F233	F	0.832461	0.563864	0.080731
F234	F	1.082461	0.813864	0.330731
F235	F	1.332461	1.063864	0.580731
F236	F	1.582461	1.313864	0.830731
H237	H	0.882134	0.444437	0.225102
H238	H	1.132134	0.694437	0.475102
H239	H	1.382134	0.944437	0.725102
H240	H	1.632134	1.194437	0.975102
F241	F	0.443283	-0.153592	0.029789
F242	F	0.693283	0.096408	0.279789
F243	F	0.943283	0.346408	0.529789
F244	F	1.193283	0.596408	0.779789
H245	H	1.065078	-0.134628	-0.447101
H246	H	1.315078	0.115372	-0.197101
H247	H	1.565078	0.365372	0.052899
H248	H	1.815078	0.615372	0.302899
H249	H	0.420724	0.000011	0.261690
H250	H	0.670724	0.250011	0.511690
H251	H	0.920724	0.500011	0.761690
H252	H	1.170724	0.750011	1.011690
F253	F	0.443294	0.153731	0.029826
F254	F	0.693294	0.403731	0.279826
F255	F	0.943294	0.653731	0.529826
F256	F	1.193294	0.903731	0.779826
F257	F	0.909229	-0.153747	-0.314224
F258	F	1.159229	0.096253	-0.064224
F259	F	1.409229	0.346253	0.185776
F260	F	1.659229	0.596253	0.435776
H261	H	0.534878	-0.134763	0.189626
H262	H	0.784878	0.115237	0.439626
H263	H	1.034878	0.365237	0.689626
H264	H	1.284878	0.615237	0.939626
F265	F	0.822791	-0.000020	-0.422597
F266	F	1.072791	0.249980	-0.172597
F267	F	1.322791	0.499980	0.077403
F268	F	1.572791	0.749980	0.327403
F269	F	0.909203	0.153733	-0.313954
F270	F	1.159203	0.403733	-0.063954
F271	F	1.409203	0.653733	0.186046
F272	F	1.659203	0.903733	0.436046
