data_functionalizedCrystal
_audit_creation_method	'MofGen! by Chris Wilmer'
_symmetry_space_group_name_H-M	'P1'
_symmetry_Int_Tables_number	1
_symmetry_cell_setting	triclinic
loop_
_symmetry_equiv_pos_as_xyz
  x,y,z
_cell_length_a	15.995350
_cell_length_b	17.699083
_cell_length_c	16.176319
_cell_angle_alpha	90.000050
_cell_angle_beta	90.001215
_cell_angle_gamma	96.612305
loop_
_atom_site_label
_atom_site_type_symbol
_atom_site_fract_x
_atom_site_fract_y
_atom_site_fract_z
O1	O	0.105881	-1.004254	0.068627
O2	O	0.119657	-0.783898	0.068653
O3	O	-0.009131	-0.900099	0.068638
O4	O	0.234669	-0.888052	0.068641
O5	O	-0.009131	-0.900086	-0.068855
O6	O	0.119657	-0.783885	-0.068840
O7	O	0.105881	-1.004240	-0.068867
Cu8	Cu	0.112769	-0.894061	-0.081408
Cu9	Cu	0.112769	-0.894077	0.081194
O10	O	0.234669	-0.888039	-0.068852
C11	C	-0.040324	-0.899595	-0.000107
C12	C	-0.133272	-0.898101	-0.000102
C13	C	0.119164	-0.755694	-0.000090
C14	C	0.117683	-0.671673	-0.000080
C15	C	0.106375	-1.032445	-0.000122
C16	C	0.107856	-1.116465	-0.000126
C17	C	-0.471008	-0.892739	-0.000104
C18	C	-0.423406	-0.809983	0.000214
C19	C	-0.326719	-0.811476	-0.000096
C20	C	-0.303453	-0.895399	-0.000102
C21	C	-0.344614	-0.936210	-0.078621
C22	C	-0.441246	-0.934131	-0.078687
C23	C	-0.441607	-0.935856	0.077669
C24	C	-0.344661	-0.935836	0.078706
C25	C	-0.208759	-0.896907	-0.000104
C26	C	-0.565703	-0.891234	-0.000108
C27	C	0.265863	-0.888544	-0.000105
C28	C	0.358810	-0.890037	-0.000104
N29	N	0.112768	-0.894055	-0.195773
C30	C	0.193278	-0.623178	-0.000079
C31	C	0.191882	-0.544232	-0.000090
C32	C	0.114889	-0.513783	-0.000095
C33	C	0.039287	-0.562285	-0.000098
C34	C	0.040685	-0.641229	-0.000094
C35	C	0.033651	-0.243912	-0.000119
C36	C	0.032259	-0.164962	-0.000121
C37	C	0.184848	-0.146916	-0.000115
C38	C	0.186245	-0.225860	-0.000110
C39	C	0.110644	-0.274354	-0.000118
C40	C	0.112159	-0.359956	-0.000108
C41	C	0.113373	-0.428183	-0.000099
C42	C	0.163490	-0.939954	-0.239039
C43	C	0.163486	-0.939962	-0.325586
C44	C	0.112766	-0.894067	-0.368865
C45	C	0.062039	-0.848166	-0.325594
C46	C	0.062038	-0.848162	-0.239048
C47	C	0.062040	-0.848180	-0.674622
C48	C	0.062046	-0.848185	-0.761173
C49	C	0.163488	-0.939980	-0.761159
C50	C	0.163487	-0.939976	-0.674614
C51	C	0.112757	-0.894079	-0.631350
C52	C	0.112760	-0.894072	-0.537505
C53	C	0.112767	-0.894069	-0.462708
N54	N	0.112764	-0.894089	0.195559
H55	H	-0.441870	-0.776911	0.056522
H56	H	-0.023402	-0.537487	-0.000115
H57	H	-0.020873	-0.680714	-0.000094
C58	C	0.006243	-0.797702	-0.808783
C59	C	-0.062002	-0.834116	-0.868286
C60	C	-0.117801	-0.783636	-0.915896
C61	C	-0.105355	-0.696742	-0.904002
C62	C	-0.037107	-0.660324	-0.844496
C63	C	0.018692	-0.710804	-0.796886
H64	H	-0.071218	-0.898444	-0.877093
H65	H	-0.168322	-0.810595	-0.959946
H66	H	-0.146661	-0.659374	-0.939245
H67	H	-0.027891	-0.595996	-0.835689
H68	H	0.069214	-0.683844	-0.752836
H69	H	0.020732	-0.810807	-0.639406
C70	C	0.006254	-0.797671	-0.373198
C71	C	0.006262	-0.797662	-0.468395
C72	C	-0.049517	-0.747159	-0.515998
C73	C	-0.105305	-0.696666	-0.468404
C74	C	-0.105316	-0.696673	-0.373202
C75	C	-0.049536	-0.747175	-0.325599
H76	H	0.047562	-0.835042	-0.503632
H77	H	-0.049509	-0.747155	-0.586473
H78	H	-0.146597	-0.659281	-0.503642
H79	H	-0.146615	-0.659293	-0.337965
H80	H	-0.049544	-0.747180	-0.255124
C81	C	-0.049511	-0.297246	-0.000121
C82	C	-0.069544	-0.353999	-0.071518
C83	C	-0.152711	-0.407335	-0.071519
C84	C	-0.215845	-0.403919	-0.000123
C85	C	-0.195813	-0.347164	0.071279
C86	C	-0.112646	-0.293828	0.071280
H87	H	-0.022808	-0.356530	-0.124374
H88	H	-0.167540	-0.449349	-0.124376
H89	H	-0.277410	-0.443402	-0.000124
H90	H	-0.242550	-0.344634	0.124135
H91	H	-0.097817	-0.251814	0.124138
H92	H	0.246406	-0.107421	-0.000113
H93	H	0.204797	-0.977323	-0.203806
C94	C	0.219285	-0.990449	-0.373178
C95	C	0.275084	-1.040926	-0.325573
C96	C	0.330885	-1.091415	-0.373166
C97	C	0.330887	-1.091427	-0.468362
C98	C	0.275086	-1.040947	-0.515972
C99	C	0.219285	-0.990458	-0.468380
H100	H	0.275084	-1.040920	-0.255098
H101	H	0.372193	-1.128784	-0.337921
H102	H	0.372194	-1.128802	-0.503593
H103	H	0.275086	-1.040954	-0.586447
H104	H	0.177977	-0.953090	-0.503625
H105	H	-0.316175	-0.907853	-0.137047
C106	C	0.006246	-0.797671	-0.191451
C107	C	-0.062011	-0.834074	-0.131957
C108	C	-0.117808	-0.783585	-0.084361
C109	C	-0.105349	-0.696692	-0.096259
C110	C	-0.037089	-0.660284	-0.155756
C111	C	0.018708	-0.710774	-0.203352
H112	H	-0.071237	-0.898402	-0.123146
H113	H	-0.168339	-0.810537	-0.040317
H114	H	-0.146653	-0.659317	-0.061026
H115	H	-0.027864	-0.595957	-0.164567
H116	H	0.069238	-0.683821	-0.247396
H117	H	-0.442933	-0.777047	-0.055772
H118	H	-0.298788	-0.779169	-0.056470
C119	C	0.275041	-0.490890	-0.000084
C120	C	0.295064	-0.434131	0.071309
C121	C	0.378228	-0.380791	0.071314
C122	C	0.441370	-0.384210	-0.000074
C123	C	0.421350	-0.440972	-0.071472
C124	C	0.338185	-0.494312	-0.071477
H125	H	0.248320	-0.431597	0.124159
H126	H	0.393048	-0.338772	0.124168
H127	H	0.502934	-0.344725	-0.000070
H128	H	0.468093	-0.443506	-0.124322
H129	H	0.323365	-0.536331	-0.124331
H130	H	-0.030442	-0.140174	-0.000127
H131	H	-0.298231	-0.779396	0.056190
C132	C	-0.469275	-0.899314	0.158069
C133	C	-0.518931	-0.829849	0.154127
C134	C	-0.546599	-0.793298	0.234522
C135	C	-0.524611	-0.826212	0.318858
C136	C	-0.474953	-0.895680	0.322803
C137	C	-0.447285	-0.932231	0.242408
H138	H	-0.535210	-0.805481	0.091694
H139	H	-0.583359	-0.741872	0.231601
H140	H	-0.545093	-0.799154	0.378371
H141	H	-0.458674	-0.920048	0.385237
H142	H	-0.410524	-0.983657	0.245329
C143	C	0.219289	-0.990474	-0.808752
C144	C	0.219295	-0.990486	-0.903949
C145	C	0.275098	-1.040975	-0.951538
C146	C	0.330895	-1.091452	-0.903931
C147	C	0.330892	-1.091442	-0.808729
C148	C	0.275089	-1.040953	-0.761140
H149	H	0.177988	-0.953118	-0.939195
H150	H	0.275100	-1.040982	-1.022013
H151	H	0.372204	-1.128827	-0.939160
H152	H	0.372198	-1.128810	-0.773483
H153	H	0.275086	-1.040946	-0.690664
H154	H	0.248941	-0.250646	-0.000102
H155	H	-0.459487	-0.904360	-0.137376
H156	H	-0.473617	-0.994889	-0.082254
H157	H	-0.330614	-0.997865	-0.081546
H158	H	-0.329424	-0.997037	0.083442
C159	C	-0.307691	-0.895549	0.157159
C160	C	-0.317061	-0.810932	0.171566
C161	C	-0.280081	-0.770624	0.250005
C162	C	-0.233731	-0.814933	0.314036
C163	C	-0.224360	-0.899555	0.299631
C164	C	-0.261340	-0.939862	0.221192
H165	H	-0.351374	-0.778127	0.124165
H166	H	-0.287018	-0.707982	0.260669
H167	H	-0.206356	-0.785095	0.372101
H168	H	-0.190047	-0.932359	0.347032
H169	H	-0.254402	-1.002505	0.210528
H170	H	0.255975	-0.647962	-0.000074
H171	H	-0.473492	-0.996872	0.078191
H172	H	0.204793	-0.977347	-0.639380
