data_functionalizedCrystal
_audit_creation_method	'MofGen! by Chris Wilmer'
_symmetry_space_group_name_H-M	'P1'
_symmetry_Int_Tables_number	1
_symmetry_cell_setting	triclinic
loop_
_symmetry_equiv_pos_as_xyz
  x,y,z
_cell_length_a	12.837936
_cell_length_b	15.944557
_cell_length_c	11.295483
_cell_angle_alpha	85.896099
_cell_angle_beta	94.533347
_cell_angle_gamma	89.165686
loop_
_atom_site_label
_atom_site_type_symbol
_atom_site_fract_x
_atom_site_fract_y
_atom_site_fract_z
O1	O	-0.126752	-1.130315	0.098965
O2	O	-0.143227	-0.887085	0.098978
O3	O	0.015914	-1.003306	0.098973
O4	O	-0.285893	-1.014095	0.098970
O5	O	0.001958	-0.993096	-0.099077
O6	O	-0.157183	-0.876876	-0.099073
O7	O	-0.140708	-1.120106	-0.099085
Cu8	Cu	-0.150220	-0.997558	-0.117163
Cu9	Cu	-0.133715	-1.009632	0.117055
O10	O	-0.299849	-1.003885	-0.099081
C11	C	-0.149520	-0.850632	-0.000046
C12	C	-0.147466	-0.757222	-0.000041
C13	C	-0.042681	-0.478207	-0.000058
C14	C	-0.100077	-0.527795	-0.097710
C15	C	-0.140142	-0.420993	-0.000069
C16	C	-0.086344	-0.537844	0.097552
C17	C	-0.143735	-0.586193	-0.000053
C18	C	-0.197517	-0.469347	-0.097801
C19	C	-0.183763	-0.479395	0.097549
C20	C	-0.241232	-0.528956	-0.000126
C21	C	-0.138069	-0.325825	-0.000079
C22	C	-0.145816	-0.681359	-0.000051
C23	C	0.047557	-0.994557	-0.000049
C24	C	0.162636	-0.983689	-0.000040
C25	C	0.312488	-0.892848	-0.000036
C26	C	0.204361	-0.903055	-0.000035
C27	C	0.229047	-1.054121	-0.000042
C28	C	0.337174	-1.043914	-0.000043
C29	C	0.378890	-0.963275	-0.000042
C30	C	0.487018	-0.953068	-0.000052
C31	C	0.511703	-1.104134	-0.000050
C32	C	0.403576	-1.114341	-0.000049
C33	C	0.668508	-1.012634	-0.000055
C34	C	0.553429	-1.023501	-0.000054
N35	N	-0.161828	-0.989072	-0.281899
C36	C	-0.134401	-0.156559	-0.000065
C37	C	-0.136414	-0.249970	-0.000080
C38	C	-0.038481	-1.079208	-0.531192
C39	C	-0.047260	-1.072802	-0.655855
C40	C	-0.188161	-0.969849	-0.655891
C41	C	-0.179382	-0.976255	-0.531228
C42	C	-0.104540	-1.030938	-0.468882
C43	C	-0.095766	-1.037348	-0.344217
C44	C	-0.236661	-0.934391	-0.344255
C45	C	-0.245441	-0.927985	-0.468918
N46	N	-0.122099	-1.018125	0.281791
H47	H	-0.325238	-0.551165	-0.000184
O48	O	0.057388	-0.451372	-0.000102
C49	C	0.058051	-0.363009	0.000924
H50	H	-0.016012	-0.340130	0.039040
H51	H	0.129379	-0.343546	0.058413
H52	H	0.061323	-0.333898	-0.093846
H53	H	0.195057	-1.119770	-0.000118
O54	O	0.034341	-1.132231	-0.470662
C55	C	0.134836	-1.108829	-0.501124
H56	H	0.133002	-1.039779	-0.535422
H57	H	0.192613	-1.118542	-0.419122
H58	H	0.160158	-1.149243	-0.573457
H59	H	-0.219069	-0.457995	0.180108
O60	O	0.016757	-1.119733	-0.716512
C61	C	-0.043871	-1.172310	-0.788588
H62	H	-0.126280	-1.144390	-0.807280
H63	H	-0.006783	-1.177630	-0.876245
H64	H	-0.047575	-1.237423	-0.740525
H65	H	0.565780	-1.161481	-0.000057
H66	H	-0.064735	-0.549177	-0.180266
H67	H	-0.039350	-0.567723	0.180105
O68	O	-0.318162	-0.874799	-0.529301
C69	C	-0.374603	-0.833584	-0.447568
H70	H	-0.325846	-0.833804	-0.358699
H71	H	-0.392904	-0.765916	-0.483601
H72	H	-0.450700	-0.867704	-0.434311
H73	H	-0.244470	-0.439567	-0.180447
H74	H	-0.249089	-0.925321	-0.706669
H75	H	-0.290454	-0.895089	-0.293508
H76	H	0.520981	-0.887407	-0.000062
H77	H	0.346452	-0.827187	-0.000057
O78	O	0.140001	-0.834550	-0.000085
C79	C	0.200015	-0.761193	-0.000051
H80	H	0.278067	-0.774128	-0.037548
H81	H	0.156089	-0.708350	-0.057545
H82	H	0.214417	-0.741782	0.094966
H83	H	0.369595	-1.179996	-0.000055
H84	H	-0.034829	-1.081876	-0.293456
