data_functionalizedCrystal
_audit_creation_method	'MofGen! by Chris Wilmer'
_symmetry_space_group_name_H-M	'P1'
_symmetry_Int_Tables_number	1
_symmetry_cell_setting	triclinic
loop_
_symmetry_equiv_pos_as_xyz
  x,y,z
_cell_length_a	14.519709
_cell_length_b	10.540510
_cell_length_c	12.996460
_cell_angle_alpha	89.996346
_cell_angle_beta	90.000034
_cell_angle_gamma	84.096728
loop_
_atom_site_label
_atom_site_type_symbol
_atom_site_fract_x
_atom_site_fract_y
_atom_site_fract_z
O1	O	1.224752	0.166402	-0.085427
O2	O	1.724752	0.666402	0.414573
O3	O	0.956380	0.185998	-0.085458
O4	O	1.456380	0.685998	0.414542
O5	O	1.096703	-0.008571	-0.085441
O6	O	1.596703	0.491429	0.414559
O7	O	1.084429	0.360972	-0.085443
O8	O	1.584429	0.860972	0.414557
O9	O	1.096688	-0.008582	0.085693
O10	O	1.596688	0.491418	0.585693
O11	O	0.956365	0.185987	0.085676
O12	O	1.456365	0.685987	0.585676
O13	O	1.224738	0.166391	0.085707
O14	O	1.724738	0.666391	0.585707
Cu15	Cu	1.090550	0.176188	0.101317
Cu16	Cu	1.590550	0.676188	0.601317
Cu17	Cu	1.090567	0.176201	-0.101068
Cu18	Cu	1.590567	0.676201	0.398932
O19	O	1.084414	0.360961	0.085690
O20	O	1.584414	0.860961	0.585690
C21	C	0.922008	0.185079	0.000105
C22	C	1.422008	0.685079	0.500105
C23	C	0.819612	0.182343	0.000093
C24	C	1.319612	0.682343	0.500093
C25	C	0.444662	0.172268	0.000140
C26	C	0.944662	0.672268	0.500140
C27	C	0.548985	0.175066	0.000127
C28	C	1.048985	0.675066	0.500127
C29	C	0.632134	0.177305	0.000116
C30	C	1.132134	0.677305	0.500116
C31	C	0.736463	0.180103	0.000104
C32	C	1.236463	0.680103	0.500104
C33	C	1.095781	-0.055871	0.000123
C34	C	1.595781	0.444129	0.500123
C35	C	1.093044	-0.196793	0.000117
C36	C	1.593044	0.303207	0.500117
C37	C	1.190527	-0.415244	0.000520
C38	C	1.690527	0.084756	0.500520
C39	C	1.193446	-0.268678	0.000129
C40	C	1.693446	0.231322	0.500129
C41	C	1.041657	-0.241021	-0.097613
C42	C	1.541657	0.258979	0.402387
C43	C	1.039449	-0.387759	-0.097689
C44	C	1.539449	0.112241	0.402311
C45	C	1.037341	-0.387559	0.096921
C46	C	1.537341	0.112441	0.596921
C47	C	1.042104	-0.241266	0.098208
C48	C	1.542104	0.258734	0.598208
C49	C	1.259110	0.167310	0.000142
C50	C	1.759110	0.667310	0.500142
C51	C	1.361505	0.170047	0.000147
C52	C	1.861505	0.670047	0.500147
C53	C	1.085336	0.408261	0.000123
C54	C	1.585336	0.908261	0.500123
C55	C	1.088073	0.549182	0.000123
C56	C	1.588073	1.049182	0.500123
N57	N	1.090544	0.176179	0.243664
N58	N	1.590544	0.676179	0.743664
N59	N	1.090580	0.176201	-0.243415
N60	N	1.590580	0.676201	0.256585
C61	C	1.090566	0.176202	0.663479
C62	C	1.590566	0.676202	1.163479
C63	C	1.090557	0.176200	0.546674
C64	C	1.590557	0.676200	1.046674
C65	C	1.090556	0.176191	0.453575
C66	C	1.590556	0.676191	0.953575
C67	C	1.090546	0.176187	0.336763
C68	C	1.590546	0.676187	0.836763
H69	H	1.233653	-0.239749	0.070185
H70	H	1.733653	0.260251	0.570185
H71	H	0.964355	-0.409988	-0.102126
H72	H	1.464355	0.090012	0.397874
N73	N	1.083517	-0.438688	-0.189315
N74	N	1.583517	0.061312	0.310685
N75	N	1.039281	-0.498788	-0.252053
N76	N	1.539281	0.001212	0.247947
H77	H	1.070406	-0.534755	-0.316765
H78	H	1.570406	-0.034755	0.183235
N79	N	0.950146	-0.178793	0.105661
N80	N	1.450146	0.321207	0.605661
N81	N	0.926964	-0.111344	0.182328
N82	N	1.426964	0.388656	0.682328
H83	H	0.862016	-0.067224	0.187600
H84	H	1.362016	0.432776	0.687600
N85	N	1.086447	-0.202760	-0.188836
N86	N	1.586447	0.297240	0.311164
N87	N	1.156201	-0.142934	-0.182127
N88	N	1.656201	0.357066	0.317873
H89	H	1.187840	-0.115914	-0.246551
H90	H	1.687840	0.384086	0.253449
H91	H	0.961960	-0.408939	0.097571
H92	H	1.461960	0.091061	0.597571
H93	H	1.069241	-0.430071	0.171000
H94	H	1.569241	0.069929	0.671000
N95	N	1.239592	-0.468374	0.088446
N96	N	1.739592	0.031626	0.588446
N97	N	1.211610	-0.438254	0.176950
N98	N	1.711610	0.061746	0.676950
H99	H	1.246262	-0.475786	0.239052
H100	H	1.746262	0.024214	0.739052
H101	H	1.233899	-0.240681	-0.070039
H102	H	1.733899	0.259319	0.429961
N103	N	1.239315	-0.470317	-0.086897
N104	N	1.739315	0.029683	0.413103
N105	N	1.198957	-0.535652	-0.149489
N106	N	1.698957	-0.035652	0.350511
H107	H	1.233410	-0.574550	-0.211230
H108	H	1.733410	-0.074550	0.288770
N109	N	0.948934	-0.180624	-0.102174
N110	N	1.448934	0.319376	0.397826
N111	N	0.919622	-0.104125	-0.033283
N112	N	1.419622	0.395875	0.466717
H113	H	0.854136	-0.061467	-0.036501
H114	H	1.354136	0.438533	0.463499
H115	H	1.079495	-0.213041	0.170508
H116	H	1.579495	0.286959	0.670508
