data_functionalizedCrystal
_audit_creation_method	'MofGen! by Chris Wilmer'
_symmetry_space_group_name_H-M	'P1'
_symmetry_Int_Tables_number	1
_symmetry_cell_setting	triclinic
loop_
_symmetry_equiv_pos_as_xyz
  x,y,z
_cell_length_a	16.992694
_cell_length_b	26.210047
_cell_length_c	27.732064
_cell_angle_alpha	90.000589
_cell_angle_beta	86.658823
_cell_angle_gamma	90.010819
loop_
_atom_site_label
_atom_site_type_symbol
_atom_site_fract_x
_atom_site_fract_y
_atom_site_fract_z
O1	O	1.039174	0.042357	0.102444
O2	O	0.810902	0.042373	0.101320
O3	O	0.932121	0.042367	0.031792
O4	O	0.917955	0.042364	0.171972
O5	O	0.932083	-0.042491	0.031791
O6	O	0.810864	-0.042485	0.101318
O7	O	1.039136	-0.042501	0.102442
Cu8	Cu	0.924996	-0.050241	0.101880
Cu9	Cu	0.925041	0.050113	0.101882
O10	O	0.917917	-0.042495	0.171970
C11	C	0.781688	-0.000054	0.099873
C12	C	0.694695	-0.000048	0.095560
C13	C	0.643955	-0.000050	0.137183
C14	C	0.562217	-0.000057	0.133126
C15	C	0.531221	-0.000059	0.087447
C16	C	0.581969	-0.000059	0.045821
C17	C	0.663705	-0.000056	0.049877
C18	C	0.287826	-0.000072	0.070633
C19	C	0.206083	-0.000074	0.066580
C20	C	0.186337	-0.000072	0.153886
C21	C	0.268075	-0.000066	0.157939
C22	C	0.318816	-0.000069	0.116313
N23	N	0.447672	-0.000064	0.083300
N24	N	0.402363	-0.000067	0.120460
N25	N	0.924971	-0.120825	0.101879
C26	C	0.972212	-0.473343	0.133032
C27	C	0.972235	-0.687002	0.133033
O28	O	1.012383	-0.714627	0.159514
N29	N	0.925060	-0.713719	0.101878
C30	C	0.877880	-0.687018	0.070719
O31	O	0.837761	-0.714645	0.044216
C32	C	0.877861	-0.473361	0.070716
C33	C	0.925033	-0.446646	0.101876
C34	C	1.019381	-0.446629	0.164189
C35	C	1.019371	-0.393217	0.164191
C36	C	0.972193	-0.366520	0.133035
C37	C	0.925024	-0.393235	0.101878
C38	C	0.830686	-0.446661	0.039555
C39	C	0.830687	-0.393243	0.039556
C40	C	0.877859	-0.366529	0.070716
C41	C	0.877836	-0.313126	0.070723
N42	N	0.925011	-0.286409	0.101878
C43	C	0.972189	-0.313106	0.133034
C44	C	0.877891	-0.799192	0.070723
C45	C	0.877895	-0.852606	0.070724
C46	C	0.972251	-0.852586	0.133038
C47	C	0.972243	-0.799171	0.133039
C48	C	0.925066	-0.772474	0.101878
C49	C	0.972165	-0.200938	0.133035
C50	C	0.972149	-0.147522	0.133035
C51	C	0.877796	-0.147547	0.070720
C52	C	0.877809	-0.200958	0.070721
C53	C	0.924999	-0.227653	0.101880
O54	O	0.837715	-0.285468	0.044252
O55	O	1.012315	-0.285470	0.159525
C56	C	0.972221	-0.526755	0.133031
C57	C	0.925052	-0.553469	0.101874
C58	C	0.877874	-0.526772	0.070718
C59	C	0.925056	-0.606883	0.101875
C60	C	0.972234	-0.633580	0.133031
C61	C	1.019409	-0.606863	0.164185
C62	C	1.019400	-0.553452	0.164187
C63	C	0.830699	-0.553489	0.039563
C64	C	0.830711	-0.606901	0.039565
C65	C	0.877890	-0.633598	0.070720
C66	C	1.068350	-0.000072	0.103889
C67	C	1.155342	-0.000075	0.108203
C68	C	0.931802	-0.000061	0.013772
C69	C	0.930901	-0.000056	-0.039922
N70	N	0.925073	0.120697	0.101880
C71	C	0.853130	-0.000049	-0.420357
C72	C	0.856448	-0.000048	-0.218553
O73	O	0.796100	-0.000024	-0.189910
N74	N	0.928328	-0.000053	-0.196318
C75	C	0.999385	-0.000055	-0.224537
O76	O	1.060599	-0.000053	-0.200994
C77	C	0.996066	-0.000051	-0.426340
C78	C	0.924181	-0.000052	-0.448572
C79	C	0.781251	-0.000049	-0.442590
C80	C	0.780422	-0.000052	-0.493038
C81	C	0.851473	-0.000055	-0.521253
C82	C	0.923352	-0.000055	-0.499020
C83	C	1.067121	-0.000049	-0.454558
C84	C	1.066285	-0.000047	-0.505011
C85	C	0.994400	-0.000048	-0.527244
C86	C	0.993574	-0.000061	-0.577683
N87	N	0.921694	-0.000056	-0.599919
C88	C	0.850643	-0.000053	-0.571703
C89	C	1.001122	-0.000057	-0.118587
C90	C	1.001952	-0.000059	-0.068137
C91	C	0.859015	-0.000052	-0.062157
C92	C	0.858186	-0.000054	-0.112608
C93	C	0.929241	-0.000053	-0.140823
C94	C	0.848908	-0.000059	-0.677648
C95	C	0.848086	-0.000064	-0.728100
C96	C	0.991023	-0.000069	-0.734076
C97	C	0.991845	-0.000067	-0.683628
C98	C	0.920782	-0.000060	-0.655415
O99	O	1.053890	-0.000079	-0.606357
O100	O	0.789437	-0.000043	-0.595255
C101	C	0.853959	-0.000046	-0.369909
C102	C	0.925838	-0.000046	-0.347676
C103	C	0.996889	-0.000049	-0.375892
C104	C	0.926668	-0.000048	-0.297226
C105	C	0.855617	-0.000045	-0.269011
C106	C	0.783737	-0.000040	-0.291246
C107	C	0.782908	-0.000043	-0.341694
C108	C	1.068769	-0.000054	-0.353656
C109	C	1.069592	-0.000051	-0.303208
C110	C	0.998542	-0.000048	-0.274993
C111	C	0.918235	-0.000066	0.189991
C112	C	0.919137	-0.000067	0.243684
H113	H	1.010562	-0.125774	0.158411
H114	H	0.789546	-0.000067	-0.746199
H115	H	0.725885	-0.000041	-0.268264
Br116	Br	0.164019	-0.000087	0.004582
H117	H	0.145016	-0.000071	0.187776
H118	H	0.329129	-0.000075	0.036738
Br119	Br	1.165206	-0.000058	-0.391941
Br120	Br	0.539905	-0.000067	-0.016174
Br121	Br	0.732569	-0.000058	-0.006614
Br122	Br	1.036211	-0.237158	0.175322
Br123	Br	0.682859	-0.000047	-0.523202
Br124	Br	0.752464	-0.000051	-0.639366
H125	H	0.669184	-0.000048	0.174380
Br126	Br	1.083418	-0.482850	0.206478
Br127	Br	0.493356	-0.000057	0.189618
Br128	Br	1.083378	-0.356970	0.206491
Br129	Br	1.036267	-0.762921	0.175327
H130	H	0.723390	-0.000045	-0.419622
H131	H	0.792281	-0.531758	0.014191
Br132	Br	0.813843	-0.762969	0.028438
Br133	Br	1.083432	-0.643105	0.206470
Br134	Br	1.036281	-0.888827	0.175320
Br135	Br	0.813858	-0.888855	0.028442
H136	H	0.799650	-0.000056	-0.130706
Br137	Br	0.310135	-0.000058	0.219935
H138	H	0.801162	-0.000052	-0.039175
Br139	Br	0.766660	-0.482903	-0.002736
H140	H	1.060488	-0.000067	-0.050040
Br141	Br	1.097564	-0.000058	-0.156872
Br142	Br	0.766666	-0.357016	-0.002741
H143	H	1.125658	-0.000048	-0.436465
H144	H	0.839387	-0.222710	0.045354
Br145	Br	1.087444	-0.000078	-0.772378
Br146	Br	0.813768	-0.111305	0.028440
H147	H	1.124149	-0.000043	-0.527982
Br148	Br	0.766680	-0.643150	-0.002725
H149	H	1.057812	-0.531706	0.189560
Br150	Br	1.089404	-0.000088	-0.653454
H151	H	0.724372	-0.000044	-0.359791
H152	H	1.128134	-0.000055	-0.285111
