data_functionalizedCrystal
_audit_creation_method	'MofGen! by Chris Wilmer'
_symmetry_space_group_name_H-M	'P1'
_symmetry_Int_Tables_number	1
_symmetry_cell_setting	triclinic
loop_
_symmetry_equiv_pos_as_xyz
  x,y,z
_cell_length_a	21.395362
_cell_length_b	18.101395
_cell_length_c	21.395356
_cell_angle_alpha	89.977170
_cell_angle_beta	89.964230
_cell_angle_gamma	90.046983
loop_
_atom_site_label
_atom_site_type_symbol
_atom_site_fract_x
_atom_site_fract_y
_atom_site_fract_z
Zn1	Zn	0.957807	-0.294550	-0.354598
Zn2	Zn	1.207807	-0.044550	-0.104598
Zn3	Zn	1.457807	0.205450	0.145402
Zn4	Zn	1.707807	0.455450	0.395402
Zn5	Zn	0.957724	-0.418388	-0.249825
Zn6	Zn	1.207724	-0.168388	0.000175
Zn7	Zn	1.457724	0.081612	0.250175
Zn8	Zn	1.707724	0.331612	0.500175
Zn9	Zn	0.853037	-0.294599	-0.249799
Zn10	Zn	1.103037	-0.044599	0.000201
Zn11	Zn	1.353037	0.205401	0.250201
Zn12	Zn	1.603037	0.455401	0.500201
Zn13	Zn	0.852991	-0.418388	-0.354530
Zn14	Zn	1.102991	-0.168388	-0.104530
Zn15	Zn	1.352991	0.081612	0.145470
Zn16	Zn	1.602991	0.331612	0.395470
O17	O	0.905390	-0.356481	-0.302188
O18	O	1.155390	-0.106481	-0.052188
O19	O	1.405390	0.143519	0.197812
O20	O	1.655390	0.393519	0.447812
O21	O	1.045474	-0.310956	-0.340739
O22	O	1.295474	-0.060956	-0.090739
O23	O	1.545474	0.189044	0.159261
O24	O	1.795474	0.439044	0.409261
O25	O	0.943822	-0.401988	-0.162144
O26	O	1.193822	-0.151988	0.087856
O27	O	1.443822	0.098012	0.337856
O28	O	1.693822	0.348012	0.587856
O29	O	0.866989	-0.190960	-0.263718
O30	O	1.116989	0.059040	-0.013718
O31	O	1.366989	0.309040	0.236282
O32	O	1.616989	0.559040	0.486282
O33	O	1.045413	-0.401940	-0.263763
O34	O	1.295413	-0.151940	-0.013763
O35	O	1.545413	0.098060	0.236237
O36	O	1.795413	0.348060	0.486237
O37	O	0.943964	-0.190923	-0.340713
O38	O	1.193964	0.059077	-0.090713
O39	O	1.443964	0.309077	0.159287
O40	O	1.693964	0.559077	0.409287
O41	O	0.866909	-0.311041	-0.162125
O42	O	1.116909	-0.061041	0.087875
O43	O	1.366909	0.188959	0.337875
O44	O	1.616909	0.438959	0.587875
O45	O	0.765353	-0.311041	-0.263652
O46	O	1.015353	-0.061041	-0.013652
O47	O	1.265353	0.188959	0.236348
O48	O	1.515353	0.438959	0.486348
O49	O	0.866910	-0.401940	-0.442217
O50	O	1.116910	-0.151940	-0.192217
O51	O	1.366910	0.098060	0.057783
O52	O	1.616910	0.348060	0.307783
O53	O	0.765319	-0.401988	-0.340598
O54	O	1.015319	-0.151988	-0.090598
O55	O	1.265319	0.098012	0.159402
O56	O	1.515319	0.348012	0.409402
O57	O	0.943919	-0.310956	-0.442267
O58	O	1.193919	-0.060956	-0.192267
O59	O	1.443919	0.189044	0.057733
O60	O	1.693919	0.439044	0.307733
O61	O	0.943777	-0.522021	-0.263697
O62	O	1.193777	-0.272021	-0.013697
O63	O	1.443777	-0.022021	0.236303
O64	O	1.693777	0.227979	0.486303
O65	O	0.866829	-0.522021	-0.340623
O66	O	1.116829	-0.272021	-0.090623
O67	O	1.366829	-0.022021	0.159377
O68	O	1.616829	0.227979	0.409377
C69	C	0.742602	-0.356521	-0.302115
C70	C	0.992602	-0.106521	-0.052115
C71	C	1.242602	0.143479	0.197885
C72	C	1.492602	0.393479	0.447885
C73	C	0.672961	-0.356555	-0.302099
C74	C	0.922961	-0.106555	-0.052099
C75	C	1.172961	0.143445	0.197901
C76	C	1.422961	0.393445	0.447901
C77	C	0.640246	-0.403974	-0.342105
C78	C	0.890246	-0.153974	-0.092105
C79	C	1.140246	0.096026	0.157895
C80	C	1.390246	0.346026	0.407895
C81	C	0.574811	-0.403956	-0.342132
C82	C	0.824811	-0.153956	-0.092132
C83	C	1.074811	0.096044	0.157868
C84	C	1.324811	0.346044	0.407868
C85	C	0.542093	-0.356527	-0.302144
C86	C	0.792093	-0.106527	-0.052144
C87	C	1.042093	0.143473	0.197856
C88	C	1.292093	0.393473	0.447856
C89	C	0.574815	-0.309099	-0.262135
C90	C	0.824815	-0.059099	-0.012135
C91	C	1.074815	0.190901	0.237865
C92	C	1.324815	0.440901	0.487865
C93	C	0.640249	-0.309113	-0.262113
C94	C	0.890249	-0.059113	-0.012113
C95	C	1.140249	0.190887	0.237887
C96	C	1.390249	0.440887	0.487887
C97	C	0.438376	-0.350569	-0.245738
C98	C	0.688376	-0.100569	0.004262
C99	C	0.938376	0.149431	0.254262
C100	C	1.188376	0.399431	0.504262
C101	C	0.372943	-0.350560	-0.245760
C102	C	0.622943	-0.100560	0.004240
C103	C	0.872943	0.149440	0.254240
C104	C	1.122943	0.399440	0.504240
C105	C	0.340272	-0.356478	-0.302213
C106	C	0.590272	-0.106478	-0.052213
C107	C	0.840272	0.143522	0.197787
C108	C	1.090272	0.393522	0.447787
C109	C	0.373042	-0.362421	-0.358647
C110	C	0.623042	-0.112421	-0.108647
C111	C	0.873042	0.137579	0.141353
C112	C	1.123042	0.387579	0.391353
C113	C	0.438476	-0.362436	-0.358624
C114	C	0.688476	-0.112436	-0.108624
C115	C	0.938476	0.137564	0.141376
C116	C	1.188476	0.387564	0.391376
C117	C	0.471140	-0.356506	-0.302164
C118	C	0.721140	-0.106506	-0.052164
C119	C	0.971140	0.143494	0.197836
C120	C	1.221140	0.393494	0.447836
C121	C	0.236605	-0.403880	-0.342252
C122	C	0.486605	-0.153880	-0.092252
C123	C	0.736605	0.096120	0.157748
C124	C	0.986605	0.346120	0.407748
C125	C	0.171168	-0.403857	-0.342281
C126	C	0.421168	-0.153857	-0.092281
C127	C	0.671168	0.096143	0.157719
C128	C	0.921168	0.346143	0.407719
C129	C	0.171173	-0.309003	-0.262278
C130	C	0.421173	-0.059003	-0.012278
C131	C	0.671173	0.190997	0.237722
C132	C	0.921173	0.440997	0.487722
C133	C	0.236609	-0.309023	-0.262255
C134	C	0.486609	-0.059023	-0.012255
C135	C	0.736609	0.190977	0.237745
C136	C	0.986609	0.440977	0.487745
C137	C	0.269321	-0.356465	-0.302241
C138	C	0.519321	-0.106465	-0.052241
C139	C	0.769321	0.143535	0.197759
C140	C	1.019321	0.393535	0.447759
C141	C	0.905306	-0.548892	-0.302170
C142	C	1.155306	-0.298892	-0.052170
C143	C	1.405306	-0.048892	0.197830
C144	C	1.655306	0.201108	0.447830
C145	C	0.905327	-0.631206	-0.302183
C146	C	1.155327	-0.381206	-0.052183
C147	C	1.405327	-0.131206	0.197817
C148	C	1.655327	0.118794	0.447817
C149	C	0.905465	-0.930297	-0.302216
C150	C	1.155465	-0.680297	-0.052216
C151	C	1.405465	-0.430297	0.197784
C152	C	1.655465	-0.180297	0.447784
C153	C	0.857164	-0.899003	-0.350736
C154	C	1.107164	-0.649003	-0.100736
C155	C	1.357164	-0.399003	0.149264
C156	C	1.607164	-0.149003	0.399264
C157	C	0.856935	-0.813385	-0.350585
C158	C	1.106935	-0.563385	-0.100585
C159	C	1.356935	-0.313385	0.149415
C160	C	1.606935	-0.063385	0.399415
C161	C	0.905397	-0.781914	-0.302200
C162	C	1.155397	-0.531914	-0.052200
C163	C	1.405397	-0.281914	0.197800
C164	C	1.655397	-0.031914	0.447800
C165	C	0.887523	-0.813066	-0.236161
C166	C	1.137523	-0.563066	0.013839
C167	C	1.387523	-0.313066	0.263839
C168	C	1.637523	-0.063066	0.513839
C169	C	0.887212	-0.898711	-0.236451
C170	C	1.137212	-0.648711	0.013549
C171	C	1.387212	-0.398711	0.263549
C172	C	1.637212	-0.148711	0.513549
C173	C	0.971745	-0.898620	-0.319154
C174	C	1.221745	-0.648620	-0.069154
C175	C	1.471745	-0.398620	0.180846
C176	C	1.721745	-0.148620	0.430846
C177	C	0.971355	-0.812970	-0.320602
C178	C	1.221355	-0.562970	-0.070602
C179	C	1.471355	-0.312970	0.179398
C180	C	1.721355	-0.062970	0.429398
C181	C	0.905359	-0.698055	-0.302187
C182	C	1.155359	-0.448055	-0.052187
C183	C	1.405359	-0.198055	0.197813
C184	C	1.655359	0.051945	0.447813
C185	C	0.905501	-1.014156	-0.302225
C186	C	1.155501	-0.764156	-0.052225
C187	C	1.405501	-0.514156	0.197775
C188	C	1.655501	-0.264156	0.447775
C189	C	1.068813	-0.356443	-0.302261
C190	C	1.318813	-0.106443	-0.052261
C191	C	1.568813	0.143557	0.197739
C192	C	1.818813	0.393557	0.447739
C193	C	1.138454	-0.356426	-0.302293
C194	C	1.388454	-0.106426	-0.052293
C195	C	1.638454	0.143574	0.197707
C196	C	1.888454	0.393574	0.447707
C197	C	0.905418	-0.356442	-0.465611
C198	C	1.155418	-0.106442	-0.215611
C199	C	1.405418	0.143558	0.034389
C200	C	1.655418	0.393558	0.284389
C201	C	0.905431	-0.356426	-0.535253
C202	C	1.155431	-0.106426	-0.285253
C203	C	1.405431	0.143574	-0.035253
C204	C	1.655431	0.393574	0.214747
C205	C	0.905491	-0.163319	-0.302220
C206	C	1.155491	0.086681	-0.052220
C207	C	1.405491	0.336681	0.197780
C208	C	1.655491	0.586681	0.447780
C209	C	0.905534	-0.081005	-0.302234
C210	C	1.155534	0.168995	-0.052234
C211	C	1.405534	0.418995	0.197766
C212	C	1.655534	0.668995	0.447766
C213	C	0.945550	-0.403627	-1.037060
C214	C	1.195550	-0.153627	-0.787060
C215	C	1.445550	0.096373	-0.537060
C216	C	1.695550	0.346373	-0.287060
C217	C	0.945538	-0.403650	-0.971624
C218	C	1.195538	-0.153650	-0.721624
C219	C	1.445538	0.096350	-0.471624
C220	C	1.695538	0.346350	-0.221624
C221	C	0.905490	-0.356308	-0.938891
C222	C	1.155490	-0.106308	-0.688891
C223	C	1.405490	0.143692	-0.438891
C224	C	1.655490	0.393692	-0.188891
C225	C	0.865439	-0.308953	-0.971599
C226	C	1.115439	-0.058953	-0.721599
C227	C	1.365439	0.191047	-0.471599
C228	C	1.615439	0.441047	-0.221599
C229	C	0.865447	-0.308936	-1.037033
C230	C	1.115447	-0.058936	-0.787033
C231	C	1.365447	0.191064	-0.537033
C232	C	1.615447	0.441064	-0.287033
C233	C	0.900565	-0.289615	-0.835232
C234	C	1.150565	-0.039615	-0.585232
C235	C	1.400565	0.210385	-0.335232
C236	C	1.650565	0.460385	-0.085232
C237	C	0.900562	-0.289630	-0.769799
C238	C	1.150562	-0.039630	-0.519799
C239	C	1.400562	0.210370	-0.269799
C240	C	1.650562	0.460370	-0.019799
C241	C	0.905462	-0.356361	-0.737070
C242	C	1.155462	-0.106361	-0.487070
C243	C	1.405462	0.143639	-0.237070
C244	C	1.655462	0.393639	0.012930
C245	C	0.910379	-0.423078	-0.769783
C246	C	1.160379	-0.173078	-0.519783
C247	C	1.410379	0.076922	-0.269783
C248	C	1.660379	0.326922	-0.019783
C249	C	0.910387	-0.423061	-0.835217
C250	C	1.160387	-0.173061	-0.585217
C251	C	1.410387	0.076939	-0.335217
C252	C	1.660387	0.326939	-0.085217
C253	C	0.905477	-0.356322	-0.867939
C254	C	1.155477	-0.106322	-0.617939
C255	C	1.405477	0.143678	-0.367939
C256	C	1.655477	0.393678	-0.117939
C257	C	0.945495	-0.403743	-0.633418
C258	C	1.195495	-0.153743	-0.383418
C259	C	1.445495	0.096257	-0.133418
C260	C	1.695495	0.346257	0.116582
C261	C	0.945480	-0.403767	-0.567981
C262	C	1.195480	-0.153767	-0.317981
C263	C	1.445480	0.096233	-0.067981
C264	C	1.695480	0.346233	0.182019
C265	C	0.865384	-0.309063	-0.567957
C266	C	1.115384	-0.059063	-0.317957
C267	C	1.365384	0.190937	-0.067957
C268	C	1.615384	0.440937	0.182043
C269	C	0.865396	-0.309045	-0.633393
C270	C	1.115396	-0.059045	-0.383393
C271	C	1.365396	0.190955	-0.133393
C272	C	1.615396	0.440955	0.116607
C273	C	0.905455	-0.356384	-0.666119
C274	C	1.155455	-0.106384	-0.416119
C275	C	1.405455	0.143616	-0.166119
C276	C	1.655455	0.393616	0.083881
C277	C	0.905397	-0.356467	-0.139400
C278	C	1.155397	-0.106467	0.110600
C279	C	1.405397	0.143533	0.360600
C280	C	1.655397	0.393533	0.610600
C281	C	0.905506	-0.356275	-0.069760
C282	C	1.155506	-0.106275	0.180240
C283	C	1.405506	0.143725	0.430240
C284	C	1.655506	0.393725	0.680240
H285	H	0.464971	-0.345746	-0.199764
H286	H	0.714971	-0.095746	0.050236
H287	H	0.964971	0.154254	0.300236
H288	H	1.214971	0.404254	0.550236
H289	H	0.548171	-0.270480	-0.229577
H290	H	0.798171	-0.020480	0.020423
H291	H	1.048171	0.229520	0.270423
H292	H	1.298171	0.479520	0.520423
F293	F	0.931195	-0.925773	-0.187583
F294	F	1.181195	-0.675773	0.062417
F295	F	1.431195	-0.425773	0.312417
F296	F	1.681195	-0.175773	0.562417
F297	F	0.473350	-0.368757	-0.418684
F298	F	0.723350	-0.118757	-0.168684
F299	F	0.973350	0.131243	0.081316
F300	F	1.223350	0.381243	0.331316
F301	F	0.871632	-0.925862	-0.414948
F302	F	1.121632	-0.675862	-0.164948
F303	F	1.371632	-0.425862	0.085052
F304	F	1.621632	-0.175862	0.335052
F305	F	0.824865	-0.785137	-0.217074
F306	F	1.074865	-0.535137	0.032926
F307	F	1.324865	-0.285137	0.282926
F308	F	1.574865	-0.035137	0.532926
H309	H	0.921597	-0.792681	-0.199023
H310	H	1.171597	-0.542681	0.050977
H311	H	1.421597	-0.292681	0.300977
H312	H	1.671597	-0.042681	0.550977
H313	H	0.666885	-0.270496	-0.229536
H314	H	0.916885	-0.020496	0.020464
H315	H	1.166885	0.229504	0.270464
H316	H	1.416885	0.479504	0.520464
F317	F	0.988179	-0.454015	-1.071886
F318	F	1.238179	-0.204015	-0.821886
F319	F	1.488179	0.045985	-0.571886
F320	F	1.738179	0.295985	-0.321886
H321	H	0.914390	-0.477384	-0.861849
H322	H	1.164390	-0.227384	-0.611849
H323	H	1.414390	0.022616	-0.361849
H324	H	1.664390	0.272616	-0.111849
H325	H	0.868116	-0.792321	-0.399551
H326	H	1.118116	-0.542321	-0.149551
H327	H	1.368116	-0.292321	0.100449
H328	H	1.618116	-0.042321	0.350449
H329	H	0.896561	-0.235305	-0.743169
H330	H	1.146561	0.014695	-0.493169
H331	H	1.396561	0.264695	-0.243169
H332	H	1.646561	0.514695	0.006831
F333	F	0.136351	-0.454325	-0.384866
F334	F	0.386351	-0.204325	-0.134866
F335	F	0.636351	0.045675	0.115134
F336	F	0.886351	0.295675	0.365134
H337	H	0.988040	-0.920167	-0.366491
H338	H	1.238040	-0.670167	-0.116491
H339	H	1.488040	-0.420167	0.133509
H340	H	1.738040	-0.170167	0.383509
F341	F	0.338276	-0.368717	-0.418734
F342	F	0.588276	-0.118717	-0.168734
F343	F	0.838276	0.131283	0.081266
F344	F	1.088276	0.381283	0.331266
H345	H	0.914371	-0.477416	-0.743137
H346	H	1.164371	-0.227416	-0.493137
H347	H	1.414371	0.022584	-0.243137
H348	H	1.664371	0.272584	0.006863
F349	F	0.988128	-0.454124	-0.668250
F350	F	1.238128	-0.204124	-0.418250
F351	F	1.488128	0.045876	-0.168250
F352	F	1.738128	0.295876	0.081750
H353	H	0.808335	-0.920604	-0.339656
H354	H	1.058335	-0.670604	-0.089656
H355	H	1.308335	-0.420604	0.160344
H356	H	1.558335	-0.170604	0.410344
H357	H	0.832791	-0.270483	-0.660017
H358	H	1.082791	-0.020483	-0.410017
H359	H	1.332791	0.229517	-0.160017
H360	H	1.582791	0.479517	0.089983
H361	H	0.263240	-0.442507	-0.374814
H362	H	0.513240	-0.192507	-0.124814
H363	H	0.763240	0.057493	0.125186
H364	H	1.013240	0.307493	0.375186
F365	F	0.792720	-0.786706	-0.335920
F366	F	1.042720	-0.536706	-0.085920
F367	F	1.292720	-0.286706	0.164080
F368	F	1.542720	-0.036706	0.414080
H369	H	0.548170	-0.442570	-0.374712
H370	H	0.798170	-0.192570	-0.124712
H371	H	1.048170	0.057430	0.125288
H372	H	1.298170	0.307430	0.375288
F373	F	0.271427	-0.258554	-0.219673
F374	F	0.521427	-0.008554	0.030327
F375	F	0.771427	0.241446	0.280327
F376	F	1.021427	0.491446	0.530327
H377	H	0.144535	-0.270382	-0.229722
H378	H	0.394535	-0.020382	0.020278
H379	H	0.644535	0.229618	0.270278
H380	H	0.894535	0.479618	0.520278
F381	F	0.988099	-0.454172	-0.533180
F382	F	1.238099	-0.204172	-0.283180
F383	F	1.488099	0.045828	-0.033180
F384	F	1.738099	0.295828	0.216820
F385	F	0.823885	-0.924930	-0.217701
F386	F	1.073885	-0.674930	0.032299
F387	F	1.323885	-0.424930	0.282299
F388	F	1.573885	-0.174930	0.532299
H389	H	0.984833	-0.792607	-0.369204
H390	H	1.234833	-0.542607	-0.119204
H391	H	1.484833	-0.292607	0.130796
H392	H	1.734833	-0.042607	0.380796
F393	F	0.988159	-0.454052	-0.936815
F394	F	1.238159	-0.204052	-0.686815
F395	F	1.488159	0.045948	-0.436815
F396	F	1.738159	0.295948	-0.186815
F397	F	1.020883	-0.784957	-0.277784
F398	F	1.270883	-0.534957	-0.027784
F399	F	1.520883	-0.284957	0.222216
F400	F	1.770883	-0.034957	0.472216
H401	H	1.007730	-0.918855	-0.283816
H402	H	1.257730	-0.668855	-0.033816
H403	H	1.507730	-0.418855	0.216184
H404	H	1.757730	-0.168855	0.466184
H405	H	0.896616	-0.235267	-0.861874
H406	H	1.146616	0.014733	-0.611874
H407	H	1.396616	0.264733	-0.361874
H408	H	1.646616	0.514733	-0.111874
H409	H	0.832839	-0.270375	-1.063657
H410	H	1.082839	-0.020375	-0.813657
H411	H	1.332839	0.229625	-0.563657
H412	H	1.582839	0.479625	-0.313657
F413	F	0.675057	-0.454464	-0.384663
F414	F	0.925057	-0.204464	-0.134663
F415	F	1.175057	0.045536	0.115337
F416	F	1.425057	0.295536	0.365337
F417	F	0.338073	-0.344235	-0.185698
F418	F	0.588073	-0.094235	0.064302
F419	F	0.838073	0.155765	0.314302
F420	F	1.088073	0.405765	0.564302
F421	F	0.822749	-0.258694	-0.533125
F422	F	1.072749	-0.008694	-0.283125
F423	F	1.322749	0.241306	-0.033125
F424	F	1.572749	0.491306	0.216875
F425	F	0.822819	-0.258567	-0.936761
F426	F	1.072819	-0.008567	-0.686761
F427	F	1.322819	0.241433	-0.436761
F428	F	1.572819	0.491433	-0.186761
