data_functionalizedCrystal
_audit_creation_method	'MofGen! by Chris Wilmer'
_symmetry_space_group_name_H-M	'P1'
_symmetry_Int_Tables_number	1
_symmetry_cell_setting	triclinic
loop_
_symmetry_equiv_pos_as_xyz
  x,y,z
_cell_length_a	16.959455
_cell_length_b	16.959454
_cell_length_c	18.215399
_cell_angle_alpha	90.022741
_cell_angle_beta	89.981437
_cell_angle_gamma	89.980118
loop_
_atom_site_label
_atom_site_type_symbol
_atom_site_fract_x
_atom_site_fract_y
_atom_site_fract_z
Zn1	Zn	1.208401	0.314754	-0.416118
Zn2	Zn	1.541734	0.648087	-0.082784
Zn3	Zn	1.875068	0.981421	0.250549
Zn4	Zn	1.208307	0.446939	-0.293062
Zn5	Zn	1.541641	0.780273	0.040271
Zn6	Zn	1.874974	1.113606	0.373604
Zn7	Zn	1.076220	0.314772	-0.293068
Zn8	Zn	1.409553	0.648105	0.040266
Zn9	Zn	1.742886	0.981438	0.373599
Zn10	Zn	1.076188	0.446887	-0.416090
Zn11	Zn	1.409521	0.780221	-0.082757
Zn12	Zn	1.742854	1.113554	0.250577
O13	O	1.142279	0.380838	-0.354584
O14	O	1.475612	0.714172	-0.021251
O15	O	1.808946	1.047505	0.312082
O16	O	1.319000	0.332303	-0.399803
O17	O	1.652333	0.665636	-0.066470
O18	O	1.985666	0.998970	0.266863
O19	O	1.190760	0.429436	-0.190079
O20	O	1.524093	0.762770	0.143255
O21	O	1.857426	1.096103	0.476588
O22	O	1.093807	0.204159	-0.309404
O23	O	1.427140	0.537492	0.023929
O24	O	1.760473	0.870825	0.357263
O25	O	1.318931	0.429419	-0.309395
O26	O	1.652264	0.762752	0.023938
O27	O	1.985597	1.096086	0.357271
O28	O	1.190920	0.204146	-0.399808
O29	O	1.524253	0.537479	-0.066475
O30	O	1.857586	0.870812	0.266858
O31	O	1.093716	0.332333	-0.190083
O32	O	1.427049	0.665667	0.143251
O33	O	1.760382	0.999000	0.476584
O34	O	0.965605	0.332283	-0.309378
O35	O	1.298938	0.665616	0.023956
O36	O	1.632271	0.998950	0.357289
O37	O	1.093752	0.429330	-0.519078
O38	O	1.427085	0.762664	-0.185745
O39	O	1.760419	1.095997	0.147589
O40	O	0.965581	0.429348	-0.399762
O41	O	1.298914	0.762681	-0.066428
O42	O	1.632248	1.096014	0.266905
O43	O	1.190889	0.332253	-0.519098
O44	O	1.524222	0.665586	-0.185765
O45	O	1.857555	0.998919	0.147568
O46	O	1.190729	0.557543	-0.309369
O47	O	1.524062	0.890877	0.023965
O48	O	1.857395	1.224210	0.357298
O49	O	1.093661	0.557505	-0.399757
O50	O	1.426994	0.890839	-0.066423
O51	O	1.760328	1.224172	0.266910
C52	C	0.936913	0.380812	-0.354568
C53	C	1.270246	0.714145	-0.021234
C54	C	1.603579	1.047479	0.312099
C55	C	0.849056	0.380820	-0.354578
C56	C	1.182389	0.714153	-0.021244
C57	C	1.515723	1.047487	0.312089
C58	C	0.477568	0.330255	-0.307620
C59	C	0.810902	0.663589	0.025714
C60	C	1.144235	0.996922	0.359047
C61	C	0.477593	0.431486	-0.401591
C62	C	0.810926	0.764820	-0.068258
C63	C	1.144259	1.098153	0.265075
C64	C	0.560138	0.431475	-0.401587
C65	C	0.893472	0.764808	-0.068253
C66	C	1.226805	1.098142	0.265080
C67	C	0.601403	0.380854	-0.354597
C68	C	0.934736	0.714187	-0.021264
C69	C	1.268070	1.047520	0.312069
C70	C	0.560122	0.330244	-0.307612
C71	C	0.893455	0.663577	0.025721
C72	C	1.226789	0.996911	0.359054
C73	C	0.601426	0.482089	-0.448566
C74	C	0.934759	0.815423	-0.115232
C75	C	1.268093	1.148756	0.218101
C76	C	0.683977	0.482081	-0.448562
C77	C	1.017310	0.815414	-0.115229
C78	C	1.350644	1.148747	0.218104
C79	C	0.725243	0.431455	-0.401576
C80	C	1.058576	0.764788	-0.068243
C81	C	1.391910	1.098122	0.265091
C82	C	0.683957	0.380843	-0.354590
C83	C	1.017290	0.714176	-0.021256
C84	C	1.350623	1.047509	0.312077
C85	C	0.725221	0.330221	-0.307600
C86	C	1.058555	0.663555	0.025733
C87	C	1.391888	0.996888	0.359066
C88	C	0.683937	0.279604	-0.260617
C89	C	1.017270	0.612938	0.072716
C90	C	1.350603	0.946271	0.406050
C91	C	0.601388	0.279618	-0.260626
C92	C	0.934721	0.612952	0.072707
C93	C	1.268055	0.946285	0.406041
C94	C	0.807791	0.431441	-0.401567
C95	C	1.141125	0.764774	-0.068234
C96	C	1.474458	1.098108	0.265099
C97	C	0.807775	0.330210	-0.307593
C98	C	1.141108	0.663543	0.025741
C99	C	1.474442	0.996877	0.359074
C100	C	1.142202	0.586204	-0.354575
C101	C	1.475536	0.919538	-0.021242
C102	C	1.808869	1.252871	0.312092
C103	C	1.142242	0.674061	-0.354596
C104	C	1.475575	1.007394	-0.021262
C105	C	1.808909	1.340728	0.312071
C106	C	1.091776	1.045547	-0.401655
C107	C	1.425109	1.378880	-0.068321
C108	C	1.758443	1.712213	0.265012
C109	C	1.192936	1.045527	-0.307610
C110	C	1.526269	1.378860	0.025724
C111	C	1.859602	1.712193	0.359057
C112	C	1.192912	0.962981	-0.307602
C113	C	1.526246	1.296314	0.025732
C114	C	1.859579	1.629647	0.359065
C115	C	1.142319	0.921714	-0.354620
C116	C	1.475652	1.255047	-0.021287
C117	C	1.808986	1.588381	0.312047
C118	C	1.091749	0.962993	-0.401646
C119	C	1.425083	1.296326	-0.068313
C120	C	1.758416	1.629660	0.265020
C121	C	1.243475	0.921695	-0.260571
C122	C	1.576809	1.255029	0.072762
C123	C	1.910142	1.588362	0.406096
C124	C	1.243453	0.839144	-0.260560
C125	C	1.576787	1.172478	0.072773
C126	C	1.910120	1.505811	0.406106
C127	C	1.192863	0.797876	-0.307583
C128	C	1.526197	1.131210	0.025750
C129	C	1.859530	1.464543	0.359084
C130	C	1.142292	0.839160	-0.354612
C131	C	1.475626	1.172494	-0.021279
C132	C	1.808959	1.505827	0.312055
C133	C	1.091699	0.797894	-0.401630
C134	C	1.425032	1.131227	-0.068297
C135	C	1.758366	1.464560	0.265036
C136	C	1.041131	0.839176	-0.448663
C137	C	1.374465	1.172510	-0.115330
C138	C	1.707798	1.505843	0.218003
C139	C	1.041159	0.921725	-0.448669
C140	C	1.374493	1.255058	-0.115336
C141	C	1.707826	1.588392	0.217998
C142	C	1.192835	0.715328	-0.307577
C143	C	1.526169	1.048661	0.025756
C144	C	1.859502	1.381994	0.359089
C145	C	1.091672	0.715340	-0.401622
C146	C	1.425006	1.048674	-0.068289
C147	C	1.758339	1.382007	0.265045
C148	C	1.348447	0.380865	-0.354602
C149	C	1.681780	0.714198	-0.021268
C150	C	2.015114	1.047532	0.312065
C151	C	1.436304	0.380876	-0.354609
C152	C	1.769637	0.714210	-0.021276
C153	C	2.102970	1.047543	0.312057
C154	C	1.142327	0.380784	-0.546537
C155	C	1.475660	0.714117	-0.213204
C156	C	1.808994	1.047450	0.120129
C157	C	1.142348	0.380760	-0.628336
C158	C	1.475681	0.714094	-0.295003
C159	C	1.809014	1.047427	0.038330
C160	C	1.142365	1.174670	-0.354614
C161	C	1.475698	1.508003	-0.021280
C162	C	1.809031	1.841337	0.312053
C163	C	1.142369	1.086813	-0.354636
C164	C	1.475703	1.420147	-0.021303
C165	C	1.809036	1.753480	0.312030
C166	C	1.192945	0.330165	-0.816542
C167	C	1.526278	0.663498	-0.483209
C168	C	1.859612	0.996831	-0.149875
C169	C	1.192954	0.330142	-0.893401
C170	C	1.526288	0.663475	-0.560068
C171	C	1.859621	0.996808	-0.226734
C172	C	1.091806	0.431234	-0.893369
C173	C	1.425140	0.764567	-0.560035
C174	C	1.758473	1.097901	-0.226702
C175	C	1.091793	0.431252	-0.816511
C176	C	1.425127	0.764586	-0.483178
C177	C	1.758460	1.097919	-0.149845
C178	C	1.142367	0.380719	-0.778100
C179	C	1.475701	0.714052	-0.444767
C180	C	1.809034	1.047386	-0.111433
C181	C	1.142390	0.380677	-0.931816
C182	C	1.475723	0.714011	-0.598483
C183	C	1.809056	1.047344	-0.265149
C184	C	1.142399	0.380653	-1.015150
C185	C	1.475733	0.713986	-0.681816
C186	C	1.809066	1.047320	-0.348483
C187	C	1.142357	0.380742	-0.694761
C188	C	1.475690	0.714076	-0.361428
C189	C	1.809023	1.047409	-0.028094
C190	C	1.142276	0.380835	-0.163378
C191	C	1.475610	0.714169	0.169955
C192	C	1.808943	1.047502	0.503288
C193	C	1.142409	0.380636	-0.081580
C194	C	1.475742	0.713969	0.251754
C195	C	1.809076	1.047303	0.585087
H196	H	0.717545	0.238392	-0.222355
H197	H	1.050878	0.571725	0.110978
H198	H	1.384212	0.905059	0.444312
Br199	Br	1.023157	1.101569	-0.465488
Br200	Br	1.356491	1.434902	-0.132155
Br201	Br	1.689824	1.768236	0.201179
H202	H	1.050601	0.472419	-0.785211
H203	H	1.383935	0.805752	-0.451877
H204	H	1.717268	1.139086	-0.118544
Br205	Br	0.421543	0.261557	-0.243866
Br206	Br	0.754877	0.594891	0.089468
Br207	Br	1.088210	0.928224	0.422801
Br208	Br	0.863771	0.261499	-0.243824
Br209	Br	1.197104	0.594833	0.089509
Br210	Br	1.530437	0.928166	0.422843
Br211	Br	0.739999	0.550773	-0.512324
Br212	Br	1.073332	0.884106	-0.178991
Br213	Br	1.406666	1.217439	0.154342
Br214	Br	0.972538	0.977755	-0.512494
Br215	Br	1.305871	1.311089	-0.179160
Br216	Br	1.639205	1.644422	0.154173
H217	H	1.234123	0.289015	-0.785270
H218	H	1.567456	0.622348	-0.451937
H219	H	1.900790	0.955682	-0.118603
Br220	Br	1.261594	1.101531	-0.243801
Br221	Br	1.594927	1.434865	0.089532
Br222	Br	1.928260	1.768198	0.422866
Br223	Br	1.261604	0.261535	-0.945570
Br224	Br	1.594938	0.594868	-0.612237
Br225	Br	1.928271	0.928202	-0.278903
Br226	Br	0.421591	0.500203	-0.465341
Br227	Br	0.754924	0.833537	-0.132007
Br228	Br	1.088257	1.166870	0.201326
H229	H	0.567767	0.238409	-0.222374
H230	H	0.901100	0.571743	0.110959
H231	H	1.234433	0.905076	0.444293
H232	H	1.284660	0.955301	-0.222286
H233	H	1.617993	1.288634	0.111048
H234	H	1.951327	1.621967	0.444381
H235	H	0.567822	0.523308	-0.486817
H236	H	0.901155	0.856641	-0.153483
H237	H	1.234489	1.189975	0.179850
Br238	Br	0.863818	0.500136	-0.465318
Br239	Br	1.197151	0.833470	-0.131985
Br240	Br	1.530485	1.166803	0.201349
Br241	Br	1.023013	0.659342	-0.465443
Br242	Br	1.356346	0.992675	-0.132109
Br243	Br	1.689679	1.326008	0.201224
Br244	Br	1.023177	0.499814	-0.945503
Br245	Br	1.356510	0.833148	-0.612169
Br246	Br	1.689843	1.166481	-0.278836
Br247	Br	0.972466	0.783162	-0.512466
Br248	Br	1.305799	1.116495	-0.179133
Br249	Br	1.639132	1.449829	0.154201
H250	H	1.284629	0.805537	-0.222265
H251	H	1.617962	1.138870	0.111069
H252	H	1.951295	1.472204	0.444402
H253	H	1.234003	0.681719	-0.269280
H254	H	1.567337	1.015052	0.064053
H255	H	1.900670	1.348386	0.397386
