data_functionalizedCrystal
_audit_creation_method	'MofGen! by Chris Wilmer'
_symmetry_space_group_name_H-M	'P1'
_symmetry_Int_Tables_number	1
_symmetry_cell_setting	triclinic
loop_
_symmetry_equiv_pos_as_xyz
  x,y,z
_cell_length_a	17.699083
_cell_length_b	10.723024
_cell_length_c	16.776229
_cell_angle_alpha	89.994545
_cell_angle_beta	89.998886
_cell_angle_gamma	83.875442
loop_
_atom_site_label
_atom_site_type_symbol
_atom_site_fract_x
_atom_site_fract_y
_atom_site_fract_z
O1	O	1.005074	0.157797	-0.066174
O2	O	0.784825	0.178327	-0.066200
O3	O	0.900030	-0.013601	-0.066184
O4	O	0.889869	0.349725	-0.066191
O5	O	0.900014	-0.013613	0.066393
O6	O	0.784809	0.178315	0.066376
O7	O	1.005058	0.157785	0.066402
Zn8	Zn	0.894931	0.168048	0.087439
Zn9	Zn	0.894952	0.168064	-0.087237
O10	O	0.889854	0.349713	0.066386
C11	C	0.756616	0.177585	0.000085
C12	C	0.672584	0.175378	0.000075
C13	C	0.624673	0.288036	0.000073
C14	C	0.545717	0.285955	0.000083
C15	C	0.514672	0.171215	0.000090
C16	C	0.562589	0.058549	0.000094
C17	C	0.641544	0.060631	0.000090
C18	C	0.244173	0.050148	0.000114
C19	C	0.165212	0.048075	0.000116
C20	C	0.148346	0.275473	0.000108
C21	C	0.227301	0.277555	0.000103
C22	C	0.275210	0.164889	0.000112
C23	C	0.360824	0.167147	0.000102
C24	C	0.429060	0.168956	0.000094
C25	C	0.899283	-0.060094	0.000103
C26	C	0.897070	-0.198610	0.000100
C27	C	0.961533	-0.274698	0.000107
C28	C	0.959248	-0.417863	0.000104
C29	C	1.033268	0.158527	0.000115
C30	C	1.117300	0.160734	0.000120
C31	C	0.890601	0.396206	0.000097
C32	C	0.892813	0.534723	0.000095
N33	N	0.894923	0.168037	0.206650
N34	N	0.894966	0.168065	-0.206448
C35	C	0.945952	0.083086	0.248374
C36	C	0.945956	0.083085	0.331826
C37	C	0.894934	0.168042	0.373553
C38	C	0.843900	0.252997	0.331822
C39	C	0.843893	0.252991	0.248372
C40	C	0.843928	0.253021	0.668370
C41	C	0.843941	0.253023	0.751826
C42	C	0.945991	0.083115	0.751824
C43	C	0.945983	0.083109	0.668374
C44	C	0.894947	0.168059	0.626651
C45	C	0.894942	0.168058	0.536162
C46	C	0.894942	0.168050	0.464040
H47	H	0.109328	0.367210	0.000105
C48	C	1.002126	-0.010343	0.797727
N49	N	1.044406	-0.080734	0.832300
C50	C	1.038379	-0.219523	0.000122
N51	N	1.096261	-0.177966	0.000136
C52	C	0.694245	-0.063302	0.000089
N53	N	0.733939	-0.156652	0.000091
C54	C	0.820224	-0.253786	0.000093
N55	N	0.762342	-0.295342	0.000089
C56	C	0.296863	-0.073788	0.000118
N57	N	0.336553	-0.167143	0.000120
H58	H	0.837625	-0.399906	0.000094
H59	H	1.014433	-0.483241	0.000113
C60	C	0.787806	0.346479	0.797723
N61	N	0.745526	0.416865	0.832293
C62	C	1.002080	-0.010376	0.202483
N63	N	1.044355	-0.080778	0.167920
H64	H	0.987507	0.013911	0.365798
C65	C	1.002109	-0.010352	0.622479
N66	N	1.044381	-0.080754	0.587913
C67	C	0.787885	0.346631	0.622485
N68	N	0.745707	0.417199	0.587922
H69	H	0.802354	0.322166	0.365801
H70	H	0.649943	0.381471	0.000067
C71	C	0.261445	0.403777	0.000101
N72	N	0.287161	0.498851	0.000104
C73	C	0.493018	0.409888	0.000095
N74	N	0.453326	0.503240	0.000110
C75	C	0.528437	-0.067667	0.000103
N76	N	0.502715	-0.162735	0.000106
H77	H	0.139939	-0.045366	0.000123
C78	C	0.787764	0.346454	0.202475
N79	N	0.745486	0.416853	0.167907
