data_functionalizedCrystal
_audit_creation_method	'MofGen! by Chris Wilmer'
_symmetry_space_group_name_H-M	'P1'
_symmetry_Int_Tables_number	1
_symmetry_cell_setting	triclinic
loop_
_symmetry_equiv_pos_as_xyz
  x,y,z
_cell_length_a	18.050590
_cell_length_b	18.050589
_cell_length_c	18.050582
_cell_angle_alpha	90.018205
_cell_angle_beta	89.999233
_cell_angle_gamma	90.017386
loop_
_atom_site_label
_atom_site_type_symbol
_atom_site_fract_x
_atom_site_fract_y
_atom_site_fract_z
Zn1	Zn	1.135292	-0.295921	0.419624
Zn2	Zn	1.635292	0.204079	0.919624
Zn3	Zn	1.135203	-0.420105	0.295444
Zn4	Zn	1.635203	0.079895	0.795444
Zn5	Zn	1.011112	-0.295910	0.295482
Zn6	Zn	1.511112	0.204090	0.795482
Zn7	Zn	1.011060	-0.420051	0.419626
Zn8	Zn	1.511060	0.079949	0.919626
O9	O	1.073167	-0.357997	0.357544
O10	O	1.573167	0.142003	0.857544
O11	O	1.239205	-0.312422	0.403134
O12	O	1.739205	0.187578	0.903134
O13	O	1.118727	-0.403648	0.191524
O14	O	1.618727	0.096352	0.691524
O15	O	1.027644	-0.191987	0.311965
O16	O	1.527644	0.308013	0.811965
O17	O	1.239140	-0.403659	0.311899
O18	O	1.739140	0.096341	0.811899
O19	O	1.118879	-0.191995	0.403172
O20	O	1.618879	0.308005	0.903172
O21	O	1.027557	-0.312402	0.191553
O22	O	1.527557	0.187598	0.691553
O23	O	0.907180	-0.312350	0.311967
O24	O	1.407180	0.187650	0.811967
O25	O	1.027555	-0.403567	0.523550
O26	O	1.527555	0.096433	1.023550
O27	O	0.907142	-0.403555	0.403175
O28	O	1.407142	0.096445	0.903175
O29	O	1.118828	-0.312370	0.523549
O30	O	1.618828	0.187630	1.023549
O31	O	1.118676	-0.524022	0.311901
O32	O	1.618676	-0.024022	0.811901
O33	O	1.027468	-0.523982	0.403138
O34	O	1.527468	-0.023982	0.903138
C35	C	0.880215	-0.357946	0.357576
C36	C	1.380215	0.142054	0.857576
C37	C	0.797669	-0.357942	0.357607
C38	C	1.297669	0.142058	0.857607
C39	C	1.073077	-0.550949	0.357532
C40	C	1.573077	-0.050949	0.857532
C41	C	1.073107	-0.633494	0.357551
C42	C	1.573107	-0.133494	0.857551
C43	C	1.023557	-0.832950	0.407148
C44	C	1.523557	-0.332950	0.907148
C45	C	1.005459	-0.882381	0.339386
C46	C	1.505459	-0.382381	0.839386
C47	C	1.073180	-0.784625	0.357561
C48	C	1.573180	-0.284625	0.857561
C49	C	1.091314	-0.882276	0.425331
C50	C	1.591314	-0.382276	0.925331
C51	C	1.073249	-0.930610	0.357576
C52	C	1.573249	-0.430610	0.857576
C53	C	1.055046	-0.832968	0.289763
C54	C	1.555046	-0.332968	0.789763
C55	C	1.140933	-0.832859	0.375754
C56	C	1.640933	-0.332859	0.875754
C57	C	1.122861	-0.882267	0.307945
C58	C	1.622861	-0.382267	0.807945
C59	C	1.073138	-0.700527	0.357553
C60	C	1.573138	-0.200527	0.857553
C61	C	1.073290	-1.014706	0.357576
C62	C	1.573290	-0.514706	0.857576
C63	C	0.598219	-0.407682	0.407088
C64	C	1.098219	0.092318	0.907088
C65	C	0.548826	-0.339967	0.425358
C66	C	1.048826	0.160033	0.925358
C67	C	0.646538	-0.357984	0.357571
C68	C	1.146538	0.142016	0.857571
C69	C	0.548850	-0.425737	0.339300
C70	C	1.048850	0.074263	0.839300
C71	C	0.500553	-0.358030	0.357537
C72	C	1.000553	0.141970	0.857537
C73	C	0.598233	-0.290233	0.375876
C74	C	1.098233	0.209767	0.875876
C75	C	0.598261	-0.376049	0.289787
C76	C	1.098261	0.123951	0.789787
C77	C	0.548890	-0.308287	0.308031
C78	C	1.048890	0.191713	0.808031
C79	C	0.730637	-0.357958	0.357592
C80	C	1.230637	0.142042	0.857592
C81	C	0.416457	-0.358047	0.357516
C82	C	0.916457	0.141953	0.857516
C83	C	1.266872	-0.358048	0.357512
C84	C	1.766872	0.141952	0.857512
C85	C	1.349418	-0.358070	0.357499
C86	C	1.849418	0.141930	0.857499
C87	C	1.073196	-0.357964	0.551250
C88	C	1.573196	0.142036	1.051250
C89	C	1.073208	-0.357950	0.633796
C90	C	1.573208	0.142050	1.133796
C91	C	1.073277	-0.164291	0.357573
C92	C	1.573277	0.335709	0.857573
C93	C	1.073324	-0.081745	0.357585
C94	C	1.573324	0.418255	0.857585
C95	C	1.073180	-0.357976	0.164592
C96	C	1.573180	0.142024	0.664592
C97	C	1.073312	-0.357781	0.082047
C98	C	1.573312	0.142219	0.582047
C99	C	1.023612	-0.407475	0.833247
C100	C	1.523612	0.092525	1.333247
C101	C	1.091367	-0.425641	0.882621
C102	C	1.591367	0.074359	1.382621
C103	C	1.073245	-0.357893	0.784926
C104	C	1.573245	0.142107	1.284926
C105	C	1.005527	-0.339706	0.882634
C106	C	1.505527	0.160294	1.382634
C107	C	1.073274	-0.357840	0.930911
C108	C	1.573274	0.142160	1.430911
C109	C	1.141036	-0.376095	0.833213
C110	C	1.641036	0.123905	1.333213
C111	C	1.055150	-0.290128	0.833221
C112	C	1.555150	0.209872	1.333221
C113	C	1.122952	-0.308269	0.882573
C114	C	1.622952	0.191731	1.382573
C115	C	1.073227	-0.357926	0.700828
C116	C	1.573227	0.142074	1.200828
C117	C	1.073300	-0.357807	1.015008
C118	C	1.573300	0.142193	1.515008
H119	H	0.981530	-0.811296	0.449023
H120	H	1.481530	-0.311296	0.949023
Cl121	Cl	1.187699	-0.915491	0.243140
Cl122	Cl	1.687699	-0.415491	0.743140
Cl123	Cl	1.229497	-0.399919	0.799843
Cl124	Cl	1.729497	0.100081	1.299843
Cl125	Cl	1.229325	-0.799248	0.399539
Cl126	Cl	1.729325	-0.299248	0.899539
H127	H	1.106625	-0.903935	0.482637
H128	H	1.606625	-0.403935	0.982637
H129	H	0.948195	-0.904150	0.324012
H130	H	1.448195	-0.404150	0.824012
Cl131	Cl	0.917091	-0.315989	0.916150
Cl132	Cl	1.417091	0.184011	1.416150
H133	H	0.527367	-0.266230	0.266142
H134	H	1.027367	0.233770	0.766142
Cl135	Cl	0.631787	-0.399634	0.201316
Cl136	Cl	1.131787	0.100366	0.701316
H137	H	0.527154	-0.483016	0.323863
H138	H	1.027154	0.016984	0.823863
Cl139	Cl	0.515299	-0.316398	0.513838
Cl140	Cl	1.015299	0.183602	1.013838
Cl141	Cl	0.958870	-0.472292	0.799804
Cl142	Cl	1.458870	0.027708	1.299804
Cl143	Cl	0.631664	-0.472459	0.471809
Cl144	Cl	1.131664	0.027541	0.971809
H145	H	0.619834	-0.232937	0.391380
H146	H	1.119834	0.267063	0.891380
Cl147	Cl	1.187846	-0.243498	0.915807
Cl148	Cl	1.687846	0.256502	1.415807
H149	H	1.106690	-0.482926	0.904320
H150	H	1.606690	0.017074	1.404320
H151	H	1.039807	-0.232860	0.811505
H152	H	1.539807	0.267140	1.311505
H153	H	1.039669	-0.811399	0.232441
H154	H	1.539669	-0.311399	0.732441
