data_functionalizedCrystal
_audit_creation_method	'MofGen! by Chris Wilmer'
_symmetry_space_group_name_H-M	'P1'
_symmetry_Int_Tables_number	1
_symmetry_cell_setting	triclinic
loop_
_symmetry_equiv_pos_as_xyz
  x,y,z
_cell_length_a	16.109301
_cell_length_b	26.809956
_cell_length_c	16.109301
_cell_angle_alpha	89.997081
_cell_angle_beta	83.461481
_cell_angle_gamma	90.006107
loop_
_atom_site_label
_atom_site_type_symbol
_atom_site_fract_x
_atom_site_fract_y
_atom_site_fract_z
O1	O	1.103138	0.041450	0.106855
O2	O	0.861076	0.041458	0.120155
O3	O	0.988757	0.041448	-0.007526
O4	O	0.975458	0.041459	0.234536
O5	O	0.988733	-0.041511	-0.007506
O6	O	0.861052	-0.041501	0.120174
O7	O	1.103114	-0.041510	0.106875
Zn8	Zn	0.982079	-0.054677	0.113528
Zn9	Zn	0.982111	0.054625	0.113502
O10	O	0.975434	-0.041500	0.234556
C11	C	0.830090	-0.000021	0.119626
C12	C	0.737794	-0.000018	0.118011
N13	N	0.982064	-0.129273	0.113545
C14	C	0.515522	-0.000021	0.190018
C15	C	0.428801	-0.000024	0.188494
C16	C	0.448676	-0.000028	0.037006
C17	C	0.535394	-0.000029	0.038530
C18	C	0.568815	-0.000022	0.115039
C19	C	0.395376	-0.000025	0.111990
C20	C	0.301350	-0.000029	0.110337
C21	C	0.662847	-0.000020	0.116693
C22	C	1.038641	-0.473903	0.056979
C23	C	1.038661	-0.682781	0.056966
O24	O	1.086731	-0.709788	0.008877
N25	N	0.982116	-0.708900	0.113484
C26	C	0.925558	-0.682797	0.170005
O27	O	0.877458	-0.709806	0.218070
C28	C	0.925535	-0.473920	0.170013
C29	C	0.982089	-0.447804	0.113497
C30	C	1.095190	-0.447787	0.000468
C31	C	1.095188	-0.395570	0.000474
C32	C	1.038636	-0.369471	0.056993
C33	C	0.982087	-0.395587	0.113504
C34	C	0.868974	-0.447818	0.226529
C35	C	0.868972	-0.395595	0.226524
C36	C	0.925526	-0.369479	0.170009
C37	C	0.925533	-0.317271	0.170029
N38	N	0.982078	-0.291152	0.113512
C39	C	1.038630	-0.317252	0.056993
C40	C	0.925575	-0.792460	0.169997
C41	C	0.925582	-0.844679	0.169997
C42	C	1.038684	-0.844660	0.056957
C43	C	1.038680	-0.792440	0.056963
C44	C	0.982120	-0.766341	0.113480
C45	C	1.038621	-0.207594	0.057012
C46	C	1.038615	-0.155373	0.057026
C47	C	0.925511	-0.155397	0.170063
C48	C	0.925519	-0.207613	0.170052
C49	C	0.982077	-0.233710	0.113520
O50	O	0.877482	-0.290232	0.218087
O51	O	1.086710	-0.290234	0.008923
C52	C	1.038643	-0.526120	0.056972
C53	C	0.982094	-0.552236	0.113484
C54	C	0.925543	-0.526136	0.170002
C55	C	0.982101	-0.604455	0.113483
C56	C	1.038652	-0.630555	0.056965
C57	C	1.095197	-0.604436	0.000447
C58	C	1.095195	-0.552219	0.000454
C59	C	0.868998	-0.552256	0.226519
C60	C	0.869006	-0.604472	0.226508
C61	C	0.925557	-0.630572	0.169990
C62	C	1.134101	-0.000030	0.107404
C63	C	1.226397	-0.000030	0.109019
C64	C	0.988206	-0.000031	-0.038491
C65	C	0.986591	-0.000032	-0.130786
N66	N	0.982133	0.129221	0.113478
C67	C	1.058599	-0.000027	-0.353059
C68	C	1.057075	-0.000022	-0.439779
C69	C	0.905586	-0.000019	-0.419905
C70	C	0.907111	-0.000020	-0.333186
C71	C	0.983620	-0.000026	-0.299766
C72	C	0.980571	-0.000021	-0.473205
C73	C	0.978918	-0.000017	-0.567231
C74	C	0.985273	-0.000030	-0.205734
C75	C	0.975984	-0.000019	0.265521
C76	C	0.977600	-0.000015	0.357816
H77	H	0.385413	-0.000023	0.249550
H78	H	1.118130	-0.000022	-0.483168
N79	N	0.827440	-0.000031	-0.454048
N80	N	0.776894	-0.035004	-0.437706
H81	H	0.721702	-0.035016	-0.461820
N82	N	1.136755	-0.000034	-0.318933
N83	N	1.203694	-0.000035	-0.366530
H84	H	1.258895	-0.000040	-0.342433
N85	N	0.589827	-0.000035	-0.038071
N86	N	0.559979	-0.000039	-0.106376
H87	H	0.598421	-0.000046	-0.160474
H88	H	0.421454	-0.000037	-0.025285
N89	N	0.830509	-0.000014	-0.278754
N90	N	0.762205	-0.000011	-0.308602
H91	H	0.708107	-0.000005	-0.270160
H92	H	1.084672	-0.134110	0.011005
N93	N	0.549647	-0.000025	0.268174
N94	N	0.533297	-0.034996	0.318720
H95	H	0.557395	-0.035001	0.373921
H96	H	1.084674	-0.228836	0.010978
N97	N	1.153022	-0.368905	-0.057201
N98	N	1.203545	-0.392223	-0.107616
H99	H	1.244416	-0.373394	-0.148332
H100	H	1.141241	-0.469033	-0.045560
N101	N	1.096401	-0.765758	-0.000804
N102	N	1.095235	-0.771595	-0.077645
H103	H	1.135985	-0.752748	-0.118457
N104	N	1.096432	-0.871333	-0.000783
N105	N	1.096411	-0.917956	-0.000779
H106	H	1.137185	-0.936797	-0.041564
N107	N	1.152960	-0.525539	-0.057270
N108	N	1.204559	-0.496397	-0.030881
H109	H	1.245357	-0.477556	-0.071651
N110	N	0.867820	-0.871345	0.227744
N111	N	0.817334	-0.848029	0.278199
H112	H	0.776535	-0.866860	0.318983
H113	H	0.879470	-0.134138	0.216082
H114	H	1.141247	-0.625695	-0.045570
H115	H	0.879516	-0.771214	0.216023
N116	N	0.811233	-0.631138	0.284255
N117	N	0.760748	-0.607822	0.334710
H118	H	0.719943	-0.626653	0.375489
H119	H	0.822922	-0.469074	0.272548
N120	N	0.811187	-0.368944	0.284260
N121	N	0.760701	-0.392273	0.334710
H122	H	0.719890	-0.373453	0.375488
H123	H	0.879475	-0.228878	0.216080
N124	N	0.811220	-0.525608	0.284257
N125	N	0.760740	-0.548940	0.334708
H126	H	0.719931	-0.530122	0.375491
