data_functionalizedCrystal
_audit_creation_method	'MofGen! by Chris Wilmer'
_symmetry_space_group_name_H-M	'P1'
_symmetry_Int_Tables_number	1
_symmetry_cell_setting	triclinic
loop_
_symmetry_equiv_pos_as_xyz
  x,y,z
_cell_length_a	21.395364
_cell_length_b	17.637651
_cell_length_c	21.395355
_cell_angle_alpha	101.232233
_cell_angle_beta	90.024516
_cell_angle_gamma	101.214606
loop_
_atom_site_label
_atom_site_type_symbol
_atom_site_fract_x
_atom_site_fract_y
_atom_site_fract_z
Zn1	Zn	0.907462	-0.314926	0.303750
Zn2	Zn	1.407462	0.185074	0.803750
Zn3	Zn	0.886210	-0.447113	0.177772
Zn4	Zn	1.386210	0.052887	0.677772
Zn5	Zn	0.802678	-0.314916	0.198989
Zn6	Zn	1.302678	0.185084	0.698989
Zn7	Zn	0.781497	-0.447083	0.282517
Zn8	Zn	1.281497	0.052917	0.782517
O9	O	0.844462	-0.381010	0.240757
O10	O	1.344462	0.118990	0.740757
O11	O	0.992318	-0.332478	0.287046
O12	O	1.492318	0.167522	0.787046
O13	O	0.875100	-0.429586	0.092907
O14	O	1.375100	0.070414	0.592907
O15	O	0.834336	-0.204284	0.230651
O16	O	1.334336	0.295716	0.730651
O17	O	0.976705	-0.429595	0.194490
O18	O	1.476705	0.070405	0.694490
O19	O	0.911320	-0.204292	0.307619
O20	O	1.411320	0.295708	0.807619
O21	O	0.813730	-0.332461	0.108495
O22	O	1.313730	0.167539	0.608495
O23	O	0.712193	-0.332432	0.210062
O24	O	1.212193	0.167568	0.710062
O25	O	0.798236	-0.429544	0.373013
O26	O	1.298236	0.070456	0.873013
O27	O	0.696631	-0.429534	0.271430
O28	O	1.196631	0.070466	0.771430
O29	O	0.890781	-0.332448	0.388613
O30	O	1.390781	0.167552	0.888613
O31	O	0.854562	-0.557743	0.173901
O32	O	1.354562	-0.057743	0.673901
O33	O	0.777629	-0.557721	0.250856
O34	O	1.277629	-0.057721	0.750856
C35	C	0.681679	-0.380979	0.240744
C36	C	1.181679	0.119021	0.740744
C37	C	0.612037	-0.380986	0.240751
C38	C	1.112037	0.119014	0.740751
C39	C	0.118347	-0.330560	0.289006
C40	C	0.618347	0.169440	0.789006
C41	C	0.183783	-0.330554	0.289007
C42	C	0.683783	0.169446	0.789007
C43	C	0.208391	-0.381034	0.240767
C44	C	0.708391	0.118966	0.740767
C45	C	0.167554	-0.431538	0.192532
C46	C	0.667554	0.068462	0.692532
C47	C	0.102118	-0.431548	0.192536
C48	C	0.602118	0.068452	0.692536
C49	C	0.311047	-0.387156	0.183318
C50	C	0.811047	0.112844	0.683318
C51	C	0.376483	-0.387140	0.183314
C52	C	0.876483	0.112860	0.683314
C53	C	0.410216	-0.381008	0.240754
C54	C	0.910216	0.118992	0.740754
C55	C	0.378508	-0.374874	0.298203
C56	C	0.878508	0.125126	0.798203
C57	C	0.313072	-0.374884	0.298207
C58	C	0.813072	0.125116	0.798207
C59	C	0.279344	-0.381029	0.240758
C60	C	0.779344	0.118971	0.740758
C61	C	0.521997	-0.330505	0.288989
C62	C	1.021997	0.169495	0.788989
C63	C	0.587434	-0.330504	0.288990
C64	C	1.087434	0.169496	0.788990
C65	C	0.571204	-0.431484	0.192511
C66	C	1.071204	0.068516	0.692511
C67	C	0.505768	-0.431488	0.192515
C68	C	1.005768	0.068512	0.692515
C69	C	0.481169	-0.380994	0.240754
C70	C	0.981169	0.119006	0.740754
C71	C	0.811508	-0.586418	0.207786
C72	C	1.311508	-0.086418	0.707786
C73	C	0.797467	-0.674292	0.193701
C74	C	1.297467	-0.174292	0.693701
C75	C	0.951533	-0.963023	0.347951
C76	C	1.451533	-0.463023	0.847951
C77	C	0.938320	-1.045595	0.334706
C78	C	1.438320	-0.545595	0.834706
C79	C	0.858210	-1.045695	0.254482
C80	C	1.358210	-0.545695	0.754482
C81	C	0.871419	-0.963122	0.267718
C82	C	1.371419	-0.463122	0.767718
C83	C	0.918080	-0.921793	0.314454
C84	C	1.418080	-0.421793	0.814454
C85	C	0.837966	-0.921891	0.234221
C86	C	1.337966	-0.421891	0.734221
C87	C	0.851171	-0.839325	0.247459
C88	C	1.351171	-0.339325	0.747459
C89	C	0.897829	-0.797990	0.294194
C90	C	1.397829	-0.297990	0.794194
C91	C	0.931286	-0.839227	0.327692
C92	C	1.431286	-0.339227	0.827692
C93	C	0.791301	-0.963221	0.187489
C94	C	1.291301	-0.463221	0.687489
C95	C	0.757848	-0.921991	0.153991
C96	C	1.257848	-0.421991	0.653991
C97	C	0.771056	-0.839423	0.167226
C98	C	1.271056	-0.339423	0.667226
C99	C	0.817715	-0.798088	0.213961
C100	C	1.317715	-0.298088	0.713961
C101	C	0.737600	-0.798187	0.133728
C102	C	1.237600	-0.298187	0.633728
C103	C	0.750806	-0.715621	0.146966
C104	C	1.250806	-0.215621	0.646966
C105	C	0.830920	-0.715523	0.227199
C106	C	1.330920	-0.215523	0.727199
C107	C	1.007880	-0.381041	0.240770
C108	C	1.507880	0.118959	0.740770
C109	C	1.077519	-0.381054	0.240775
C110	C	1.577519	0.118946	0.740775
C111	C	0.844516	-0.380994	0.404183
C112	C	1.344516	0.119006	0.904183
C113	C	0.844540	-0.380987	0.473825
C114	C	1.344540	0.119013	0.973825
C115	C	0.877561	-0.174800	0.273871
C116	C	1.377561	0.325200	0.773871
C117	C	0.891667	-0.086926	0.287982
C118	C	1.391667	0.413074	0.787982
C119	C	0.844453	-0.380969	0.077976
C120	C	1.344453	0.119031	0.577976
C121	C	0.844586	-0.380753	0.008370
C122	C	1.344586	0.119247	0.508370
C123	C	0.892727	-0.330427	0.514663
C124	C	1.392727	0.169573	1.014663
C125	C	0.892731	-0.330393	0.580104
C126	C	1.392731	0.169607	1.080104
C127	C	0.844553	-0.380933	0.604702
C128	C	1.344553	0.119067	1.104702
C129	C	0.796357	-0.431496	0.563856
C130	C	1.296357	0.068504	1.063856
C131	C	0.796351	-0.431523	0.498418
C132	C	1.296351	0.068477	0.998418
C133	C	0.828185	-0.452118	0.696951
C134	C	1.328185	0.047882	1.196951
C135	C	0.828196	-0.452093	0.762388
C136	C	1.328196	0.047907	1.262388
C137	C	0.844570	-0.380850	0.806537
C138	C	1.344570	0.119150	1.306537
C139	C	0.860947	-0.309630	0.785241
C140	C	1.360947	0.190370	1.285241
C141	C	0.860940	-0.309657	0.719802
C142	C	1.360940	0.190343	1.219802
C143	C	0.844555	-0.380909	0.675658
C144	C	1.344555	0.119091	1.175658
C145	C	0.892765	-0.330249	0.918333
C146	C	1.392765	0.169751	1.418333
C147	C	0.892766	-0.330213	0.983776
C148	C	1.392766	0.169787	1.483776
C149	C	0.796394	-0.431324	0.967526
C150	C	1.296394	0.068676	1.467526
C151	C	0.796391	-0.431352	0.902086
C152	C	1.296391	0.068648	1.402086
C153	C	0.844580	-0.380815	0.877493
C154	C	1.344580	0.119185	1.377493
H155	H	0.472525	-0.472603	0.153238
H156	H	0.972525	0.027397	0.653238
H157	H	0.931965	-0.289276	0.494644
H158	H	1.431965	0.210724	0.994644
H159	H	0.757129	-0.472644	0.583889
H160	H	1.257129	0.027356	1.083889
H161	H	0.932001	-0.289095	0.898310
H162	H	1.432001	0.210905	1.398310
C163	C	0.057203	-0.487091	0.139482
C164	C	0.557203	0.012909	0.639482
H165	H	0.014708	-0.479870	0.146395
H166	H	0.514708	0.020130	0.646395
H167	H	0.069771	-0.475449	0.099266
H168	H	0.569771	0.024551	0.599266
H169	H	0.059412	-0.540228	0.140062
H170	H	0.559412	-0.040228	0.640062
C171	C	0.882251	-0.670052	0.278603
C172	C	1.382251	-0.170052	0.778603
H173	H	0.885325	-0.614974	0.281684
H174	H	1.385325	-0.114974	0.781684
H175	H	0.870905	-0.683566	0.318527
H176	H	1.370905	-0.183566	0.818527
H177	H	0.922196	-0.683555	0.267300
H178	H	1.422196	-0.183555	0.767300
C179	C	0.632345	-0.274957	0.342046
C180	C	1.132345	0.225043	0.842046
H181	H	0.608321	-0.244883	0.370770
H182	H	1.108321	0.255117	0.870770
H183	H	0.653030	-0.305240	0.364448
H184	H	1.153030	0.194760	0.864448
H185	H	0.663388	-0.240464	0.323649
H186	H	1.163388	0.259536	0.823649
C187	C	0.194620	-0.487062	0.139469
C188	C	0.694620	0.012938	0.639469
H189	H	0.239440	-0.479818	0.146370
H190	H	0.739440	0.020182	0.646370
H191	H	0.175385	-0.540200	0.140042
H192	H	0.675385	-0.040200	0.640042
H193	H	0.185740	-0.475412	0.099255
H194	H	0.685740	0.024588	0.599255
C195	C	0.945739	-0.274778	0.625035
C196	C	1.445739	0.225222	1.125035
H197	H	0.938837	-0.281998	0.667531
H198	H	1.438837	0.218002	1.167531
H199	H	0.985976	-0.286363	0.612471
H200	H	1.485976	0.213637	1.112471
H201	H	0.945095	-0.221657	0.622830
H202	H	1.445095	0.278343	1.122830
H203	H	0.814865	-0.510084	0.779721
H204	H	1.314865	-0.010084	1.279721
H205	H	0.932005	-0.289037	1.017026
H206	H	1.432005	0.210963	1.517026
H207	H	0.287257	-0.369891	0.344984
H208	H	0.787257	0.130109	0.844984
H209	H	0.989535	-0.929372	0.386004
H210	H	1.489535	-0.429372	0.886004
H211	H	0.402295	-0.392130	0.136536
H212	H	0.902295	0.107870	0.636536
H213	H	0.098323	-0.289447	0.328288
H214	H	0.598323	0.210553	0.828288
H215	H	0.874273	-0.251667	0.702466
H216	H	1.374273	0.248333	1.202466
H217	H	0.405972	-0.369876	0.344977
H218	H	0.905972	0.130124	0.844977
C219	C	0.273948	-0.393900	0.120130
C220	C	0.773948	0.106100	0.620130
H221	H	0.302204	-0.397539	0.085918
H222	H	0.802204	0.102461	0.585918
H223	H	0.241074	-0.439731	0.113528
H224	H	0.741074	0.060269	0.613528
H225	H	0.255686	-0.348578	0.121960
H226	H	0.755686	0.151422	0.621960
H227	H	0.723564	-0.682051	0.119689
H228	H	1.223564	-0.182051	0.619689
H229	H	0.908581	-0.730760	0.304971
H230	H	1.408581	-0.230760	0.804971
H231	H	0.814687	-0.510118	0.661011
H232	H	1.314687	-0.010118	1.161011
C233	C	0.982601	-0.793760	0.379113
C234	C	1.482601	-0.293760	0.879113
H235	H	1.000629	-0.830139	0.397175
H236	H	1.500629	-0.330139	0.897175
H237	H	1.015068	-0.761531	0.360351
H238	H	1.515068	-0.261531	0.860351
H239	H	0.963749	-0.761567	0.411549
H240	H	1.463749	-0.261567	0.911549
C241	C	0.975127	-1.090946	0.371551
C242	C	1.475127	-0.590946	0.871551
H243	H	1.004811	-1.054504	0.401276
H244	H	1.504811	-0.554504	0.901276
H245	H	0.945996	-1.123163	0.393663
H246	H	1.445996	-0.623163	0.893663
H247	H	0.997292	-1.123143	0.342440
H248	H	1.497292	-0.623143	0.842440
C249	C	0.879359	-0.231305	0.833788
C250	C	1.379359	0.268695	1.333788
H251	H	0.877133	-0.241499	0.875808
H252	H	1.377133	0.258501	1.375808
H253	H	0.921602	-0.206384	0.826925
H254	H	1.421602	0.293616	1.326925
H255	H	0.850809	-0.197730	0.828585
H256	H	1.350809	0.302270	1.328585
H257	H	0.757108	-0.472694	0.465167
H258	H	1.257108	0.027306	0.965167
H259	H	0.591237	-0.472592	0.153237
H260	H	1.091237	0.027408	0.653237
C261	C	0.743402	-0.486922	0.994576
C262	C	1.243402	0.013078	1.494576
H263	H	0.750309	-0.479670	1.039397
H264	H	1.250309	0.020330	1.539397
H265	H	0.703159	-0.475355	0.985692
H266	H	1.203159	0.024645	1.485692
H267	H	0.744053	-0.540048	0.975333
H268	H	1.244053	-0.040048	1.475333
C269	C	0.743391	-0.486974	0.857159
C270	C	1.243391	0.013026	1.357159
H271	H	0.750284	-0.479748	0.814664
H272	H	1.250284	0.020252	1.314664
H273	H	0.744033	-0.540090	0.859367
H274	H	1.244033	-0.040090	1.359367
H275	H	0.703151	-0.475385	0.869724
H276	H	1.203151	0.024615	1.369724
C277	C	0.228702	-0.275006	0.342060
C278	C	0.728702	0.224994	0.842060
H279	H	0.204680	-0.244933	0.370787
H280	H	0.704680	0.255067	0.870787
H281	H	0.249390	-0.305289	0.364459
H282	H	0.749390	0.194711	0.864459
H283	H	0.259742	-0.240512	0.323661
H284	H	0.759742	0.259488	0.823661
C285	C	0.494934	-0.274977	0.342056
C286	C	0.994934	0.225023	0.842056
H287	H	0.528622	-0.244913	0.370788
H288	H	1.028622	0.255087	0.870788
H289	H	0.474923	-0.240487	0.323675
H290	H	0.974923	0.259513	0.823675
H291	H	0.464565	-0.305283	0.364455
H292	H	0.964565	0.194717	0.864455
H293	H	0.820216	-1.079356	0.216431
H294	H	1.320216	-0.579356	0.716431
H295	H	0.780545	-1.030452	0.176718
H296	H	1.280545	-0.530452	0.676718
C297	C	0.706527	-0.967457	0.102583
C298	C	1.206527	-0.467457	0.602583
H299	H	0.703456	-1.022535	0.099492
H300	H	1.203456	-0.522535	0.599492
H301	H	0.666583	-0.953952	0.113872
H302	H	1.166583	-0.453952	0.613872
H303	H	0.717889	-0.953939	0.062660
H304	H	1.217889	-0.453939	0.562660
H305	H	0.699604	-0.831849	0.095680
H306	H	1.199604	-0.331849	0.595680
