data_functionalizedCrystal
_audit_creation_method	'MofGen! by Chris Wilmer'
_symmetry_space_group_name_H-M	'P1'
_symmetry_Int_Tables_number	1
_symmetry_cell_setting	triclinic
loop_
_symmetry_equiv_pos_as_xyz
  x,y,z
_cell_length_a	17.077404
_cell_length_b	16.120484
_cell_length_c	16.120297
_cell_angle_alpha	95.614431
_cell_angle_beta	92.878347
_cell_angle_gamma	92.925780
loop_
_atom_site_label
_atom_site_type_symbol
_atom_site_fract_x
_atom_site_fract_y
_atom_site_fract_z
Zn1	Zn	1.159640	-0.356743	-0.489453
Zn2	Zn	1.492974	-0.023410	-0.156120
Zn3	Zn	1.826307	0.309923	0.177213
Zn4	Zn	1.159541	-0.489433	-0.356764
Zn5	Zn	1.492875	-0.156100	-0.023431
Zn6	Zn	1.826208	0.177234	0.309903
Zn7	Zn	1.035382	-0.349680	-0.349700
Zn8	Zn	1.368715	-0.016346	-0.016366
Zn9	Zn	1.702048	0.316987	0.316967
Zn10	Zn	1.021327	-0.496475	-0.496486
Zn11	Zn	1.354660	-0.163141	-0.163153
Zn12	Zn	1.687994	0.170192	0.170180
O13	O	1.093973	-0.423083	-0.423101
O14	O	1.427306	-0.089749	-0.089768
O15	O	1.760639	0.243584	0.243566
O16	O	1.269473	-0.374354	-0.471865
O17	O	1.602806	-0.041021	-0.138532
O18	O	1.936140	0.292313	0.194802
O19	O	1.148912	-0.464991	-0.238865
O20	O	1.482245	-0.131658	0.094468
O21	O	1.815578	0.201675	0.427802
O22	O	1.057788	-0.233651	-0.362338
O23	O	1.391121	0.099682	-0.029005
O24	O	1.724455	0.433015	0.304328
O25	O	1.269400	-0.471840	-0.374379
O26	O	1.602734	-0.138507	-0.041045
O27	O	1.936067	0.194826	0.292288
O28	O	1.149080	-0.238841	-0.465015
O29	O	1.482414	0.094492	-0.131682
O30	O	1.815747	0.427826	0.201652
O31	O	1.057692	-0.362315	-0.233675
O32	O	1.391025	-0.028982	0.099659
O33	O	1.724359	0.304352	0.432992
O34	O	0.923671	-0.369143	-0.369158
O35	O	1.257005	-0.035810	-0.035825
O36	O	1.590338	0.297523	0.297509
O37	O	1.033834	-0.483842	-0.612515
O38	O	1.367167	-0.150509	-0.279182
O39	O	1.700501	0.182825	0.054151
O40	O	0.913346	-0.476993	-0.477002
O41	O	1.246679	-0.143659	-0.143668
O42	O	1.580012	0.189674	0.189665
O43	O	1.135452	-0.381182	-0.607348
O44	O	1.468786	-0.047849	-0.274015
O45	O	1.802119	0.285485	0.059318
O46	O	1.135284	-0.607332	-0.381198
O47	O	1.468617	-0.273999	-0.047865
O48	O	1.801950	0.059334	0.285468
O49	O	1.033738	-0.612506	-0.483852
O50	O	1.367072	-0.279172	-0.150518
O51	O	1.700405	0.054161	0.182815
C52	C	0.890027	-0.423066	-0.423077
C53	C	1.223360	-0.089733	-0.089744
C54	C	1.556693	0.243600	0.243590
C55	C	0.802776	-0.423080	-0.423088
C56	C	1.136109	-0.089747	-0.089754
C57	C	1.469442	0.243586	0.243579
C58	C	0.756430	-0.479314	-0.479160
C59	C	1.089763	-0.145981	-0.145827
C60	C	1.423096	0.187353	0.187506
C61	C	0.674448	-0.479316	-0.479174
C62	C	1.007782	-0.145983	-0.145840
C63	C	1.341115	0.187350	0.187493
C64	C	0.638815	-0.423089	-0.423110
C65	C	0.972148	-0.089755	-0.089777
C66	C	1.305481	0.243578	0.243557
C67	C	0.685167	-0.366849	-0.367035
C68	C	1.018500	-0.033516	-0.033701
C69	C	1.351834	0.299818	0.299632
C70	C	0.767147	-0.366843	-0.367026
C71	C	1.100480	-0.033510	-0.033693
C72	C	1.433813	0.299823	0.299641
C73	C	0.514295	-0.366867	-0.367056
C74	C	0.847628	-0.033533	-0.033722
C75	C	1.180962	0.299800	0.299611
C76	C	0.432310	-0.366873	-0.367063
C77	C	0.765643	-0.033540	-0.033730
C78	C	1.098976	0.299793	0.299604
C79	C	0.421597	-0.479340	-0.479203
C80	C	0.754930	-0.146006	-0.145870
C81	C	1.088264	0.187327	0.187463
C82	C	0.503577	-0.479334	-0.479195
C83	C	0.836910	-0.146001	-0.145861
C84	C	1.170243	0.187333	0.187472
C85	C	0.549923	-0.423095	-0.423118
C86	C	0.883256	-0.089762	-0.089785
C87	C	1.216590	0.243571	0.243549
C88	C	1.082995	-0.640248	-0.434073
C89	C	1.416329	-0.306914	-0.100740
C90	C	1.749662	0.026419	0.232594
C91	C	1.078370	-0.733153	-0.438795
C92	C	1.411703	-0.399820	-0.105462
C93	C	1.745037	-0.066487	0.227872
C94	C	1.069928	-0.903253	-0.447433
C95	C	1.403262	-0.569920	-0.114100
C96	C	1.736595	-0.236587	0.219234
C97	C	1.118157	-0.942072	-0.398782
C98	C	1.451490	-0.608739	-0.065449
C99	C	1.784823	-0.275405	0.267884
C100	C	1.113460	-1.036721	-0.403589
C101	C	1.446793	-0.703388	-0.070255
C102	C	1.780127	-0.370055	0.263078
C103	C	1.074624	-0.808595	-0.442628
C104	C	1.407958	-0.475262	-0.109294
C105	C	1.741291	-0.141929	0.224039
C106	C	1.298715	-0.423100	-0.423125
C107	C	1.632048	-0.089766	-0.089792
C108	C	1.965382	0.243567	0.243541
C109	C	1.385964	-0.423107	-0.423136
C110	C	1.719297	-0.089774	-0.089802
C111	C	2.052630	0.243560	0.243531
C112	C	1.083086	-0.434085	-0.641107
C113	C	1.416420	-0.100752	-0.307773
C114	C	1.749753	0.232581	0.025560
C115	C	1.078447	-0.438774	-0.734008
C116	C	1.411781	-0.105441	-0.400674
C117	C	1.745114	0.227893	-0.067341
C118	C	1.105013	-0.205070	-0.412104
C119	C	1.438346	0.128263	-0.078771
C120	C	1.771680	0.461596	0.254563
C121	C	1.109718	-0.112167	-0.407418
C122	C	1.443051	0.221167	-0.074085
C123	C	1.776384	0.554500	0.259249
C124	C	1.069950	-0.447316	-0.904098
C125	C	1.403283	-0.113983	-0.570765
C126	C	1.736617	0.219351	-0.237431
C127	C	1.118162	-0.398599	-0.942943
C128	C	1.451496	-0.065265	-0.609610
C129	C	1.784829	0.268068	-0.276276
C130	C	1.113434	-0.403352	-1.037587
C131	C	1.446768	-0.070018	-0.704254
C132	C	1.780101	0.263315	-0.370920
C133	C	1.074677	-0.442564	-0.809445
C134	C	1.408010	-0.109231	-0.476112
C135	C	1.741344	0.224102	-0.142779
C136	C	1.104865	-0.412062	-0.205940
C137	C	1.438198	-0.078729	0.127393
C138	C	1.771531	0.254604	0.460727
C139	C	1.109667	-0.407138	-0.113028
C140	C	1.443001	-0.073805	0.220306
C141	C	1.776334	0.259529	0.553639
H142	H	0.552028	-0.321064	-0.321399
H143	H	0.885362	0.012269	0.011934
H144	H	1.218695	0.345603	0.345267
H145	H	1.162973	-0.904221	-0.353521
H146	H	1.496307	-0.570888	-0.020188
H147	H	1.829640	-0.237555	0.313145
H148	H	0.383857	-0.525129	-0.524865
H149	H	0.717191	-0.191796	-0.191532
H150	H	1.050524	0.141538	0.141801
N151	N	0.646735	-0.306209	-0.306561
N152	N	0.980068	0.027125	0.026773
N153	N	1.313402	0.360458	0.360106
H154	H	0.688537	-0.270583	-0.271038
H155	H	1.021871	0.062750	0.062296
H156	H	1.355204	0.396083	0.395629
H157	H	0.612975	-0.269303	-0.338696
H158	H	0.946308	0.064030	-0.005362
H159	H	1.279641	0.397363	0.327971
N160	N	1.177547	-0.338632	-0.892842
N161	N	1.510880	-0.005299	-0.559509
N162	N	1.844213	0.328034	-0.226175
H163	H	1.232230	-0.352371	-0.908655
H164	H	1.565564	-0.019038	-0.575322
H165	H	1.898897	0.314296	-0.241988
H166	H	1.167578	-0.279676	-0.904970
H167	H	1.500911	0.053658	-0.571637
H168	H	1.834245	0.386991	-0.238304
N169	N	1.010576	-0.507299	-0.954181
N170	N	1.343910	-0.173966	-0.620847
N171	N	1.677243	0.159367	-0.287514
H172	H	0.955889	-0.493571	-0.938371
H173	H	1.289223	-0.160238	-0.605037
H174	H	1.622556	0.173096	-0.271704
H175	H	1.015639	-0.502214	-1.015655
H176	H	1.348972	-0.168880	-0.682322
H177	H	1.682306	0.164453	-0.348988
N178	N	0.393861	-0.306256	-0.306581
N179	N	0.727194	0.027078	0.026752
N180	N	1.060527	0.360411	0.360086
H181	H	0.360091	-0.269300	-0.338648
H182	H	0.693424	0.064033	-0.005314
H183	H	1.026757	0.397367	0.328019
H184	H	0.360119	-0.338304	-0.269540
H185	H	0.693452	-0.004971	0.063793
H186	H	1.026785	0.328363	0.397126
N187	N	0.817138	-0.306186	-0.306554
N188	N	1.150472	0.027147	0.026780
N189	N	1.483805	0.360480	0.360113
H190	H	0.782126	-0.270567	-0.271038
H191	H	1.115460	0.062767	0.062295
H192	H	1.448793	0.396100	0.395628
H193	H	0.851367	-0.338187	-0.269529
H194	H	1.184700	-0.004854	0.063804
H195	H	1.518034	0.328480	0.397138
H196	H	1.025114	-0.941101	-0.492689
H197	H	1.358448	-0.607768	-0.159356
H198	H	1.691781	-0.274435	0.173977
N199	N	0.794856	-0.539967	-0.539627
N200	N	1.128189	-0.206634	-0.206293
N201	N	1.461522	0.126700	0.127040
H202	H	0.778270	-0.530094	-0.598717
H203	H	1.111603	-0.196761	-0.265384
H204	H	1.444936	0.136572	0.067949
H205	H	0.853813	-0.531405	-0.531041
H206	H	1.187147	-0.198072	-0.197708
H207	H	1.520480	0.135262	0.135626
H208	H	0.636717	-0.525108	-0.524833
H209	H	0.970050	-0.191775	-0.191500
H210	H	1.303383	0.141558	0.141834
H211	H	0.532587	-0.525124	-0.524842
H212	H	0.865920	-0.191791	-0.191509
H213	H	1.199253	0.141543	0.141824
