data_functionalizedCrystal
_audit_creation_method	'MofGen! by Chris Wilmer'
_symmetry_space_group_name_H-M	'P1'
_symmetry_Int_Tables_number	1
_symmetry_cell_setting	triclinic
loop_
_symmetry_equiv_pos_as_xyz
  x,y,z
_cell_length_a	10.723024
_cell_length_b	10.654550
_cell_length_c	9.130313
_cell_angle_alpha	90.004369
_cell_angle_beta	90.003216
_cell_angle_gamma	84.476400
loop_
_atom_site_label
_atom_site_type_symbol
_atom_site_fract_x
_atom_site_fract_y
_atom_site_fract_z
O1	O	-1.657213	-0.176149	-0.121789
O2	O	-1.294063	-0.193010	-0.121794
O3	O	-1.483988	-0.001839	-0.121783
O4	O	-1.467289	-0.367320	-0.121801
O5	O	-1.483974	-0.001834	0.121816
O6	O	-1.294050	-0.193004	0.121804
O7	O	-1.657200	-0.176144	0.121809
Cu8	Cu	-1.475624	-0.184574	0.144049
Cu9	Cu	-1.475639	-0.184580	-0.144034
O10	O	-1.467275	-0.367315	0.121798
C11	C	-1.247557	-0.191780	0.000004
C12	C	-1.109002	-0.188109	0.000003
C13	C	-1.482755	0.044961	0.000016
C14	C	-1.479086	0.184404	0.000014
C15	C	-1.703706	-0.177373	0.000007
C16	C	-1.842261	-0.181045	-0.000001
C17	C	-1.034035	-0.295078	-0.000004
C18	C	-0.890831	-0.291287	-0.000005
N19	N	-1.475622	-0.184568	0.346672
C20	C	-1.468508	-0.414115	-0.000004
C21	C	-1.472176	-0.553558	-0.000012
C22	C	-1.590911	0.263907	0.000015
C23	C	-1.587457	0.394927	-0.000003
C24	C	-1.360343	0.366929	-0.000017
C25	C	-1.363799	0.235912	-0.000010
N26	N	-1.475651	-0.184576	-0.346657
C27	C	-1.559749	-0.099954	0.423329
C28	C	-1.559761	-0.099954	0.576666
C29	C	-1.391515	-0.269194	0.576675
C30	C	-1.391498	-0.269187	0.423341
H31	H	-1.075871	-0.389466	-0.000000
H32	H	-1.628246	-0.031050	0.360909
H33	H	-0.826412	-0.382860	-0.000017
H34	H	-1.628263	-0.031052	0.639076
H35	H	-1.323024	-0.338091	0.639114
Cl36	Cl	-1.728043	0.494868	-0.000005
H37	H	-0.906673	-0.089466	-0.000004
Cl38	Cl	-1.285724	-0.375562	0.326963
H39	H	-1.272732	0.171177	-0.000015
H40	H	-1.684785	0.221974	0.000030
H41	H	-1.067166	-0.093722	-0.000030
Cl42	Cl	-1.215419	0.431692	-0.000046
