data_functionalizedCrystal
_audit_creation_method	'MofGen! by Chris Wilmer'
_symmetry_space_group_name_H-M	'P1'
_symmetry_Int_Tables_number	1
_symmetry_cell_setting	triclinic
loop_
_symmetry_equiv_pos_as_xyz
  x,y,z
_cell_length_a	23.532407
_cell_length_b	23.532407
_cell_length_c	7.540329
_cell_angle_alpha	90.009623
_cell_angle_beta	89.995532
_cell_angle_gamma	82.848678
loop_
_atom_site_label
_atom_site_type_symbol
_atom_site_fract_x
_atom_site_fract_y
_atom_site_fract_z
O1	O	0.755256	0.069135	0.147279
O2	O	0.589393	0.079139	0.147334
O3	O	0.677326	-0.008795	0.147272
O4	O	0.667323	0.157069	0.147340
O5	O	0.677325	-0.008799	-0.147693
O6	O	0.589392	0.079135	-0.147632
O7	O	0.755255	0.069132	-0.147686
Cu8	Cu	0.672323	0.074133	-0.174591
Cu9	Cu	0.672325	0.074137	0.174239
O10	O	0.667322	0.157065	-0.147625
C11	C	0.568176	0.078882	-0.000142
C12	C	0.504959	0.078116	-0.000123
C13	C	0.105856	0.125350	-0.000184
C14	C	0.046456	0.124638	-0.000195
O15	O	0.009711	0.168424	-0.000241
N16	N	0.023830	0.072362	-0.000214
C17	C	0.060607	0.020794	-0.000239
O18	O	0.035908	-0.023737	-0.000258
C19	C	0.120006	0.021506	-0.000241
C20	C	0.142629	0.073785	-0.000204
C21	C	0.128479	0.177625	-0.000149
C22	C	0.187876	0.178336	-0.000135
C23	C	0.224649	0.126772	-0.000155
C24	C	0.202025	0.074496	-0.000190
C25	C	0.156783	-0.030062	-0.000279
C26	C	0.216185	-0.029345	-0.000282
C27	C	0.238808	0.022934	-0.000245
C28	C	0.298194	0.023643	-0.000195
N29	N	0.320820	0.075920	-0.000177
C30	C	0.284048	0.127484	-0.000157
C31	C	-0.064135	0.019302	-0.000239
C32	C	-0.123533	0.018589	-0.000225
C33	C	-0.137680	0.122434	-0.000184
C34	C	-0.078281	0.123146	-0.000186
C35	C	-0.041509	0.071578	-0.000220
C36	C	0.408784	0.128974	-0.000125
C37	C	0.468186	0.129680	-0.000103
C38	C	0.482329	0.025836	-0.000153
C39	C	0.422932	0.025129	-0.000165
C40	C	0.386160	0.076702	-0.000157
O41	O	0.334974	-0.020119	-0.000156
O42	O	0.308755	0.172007	-0.000161
C43	C	0.677071	-0.030013	-0.000215
C44	C	0.676305	-0.093230	-0.000228
C45	C	0.723539	-0.492333	-0.000147
C46	C	0.722827	-0.551733	-0.000133
O47	O	0.766613	-0.588478	-0.000082
N48	N	0.670551	-0.574359	-0.000117
C49	C	0.618983	-0.537582	-0.000097
O50	O	0.574452	-0.562281	-0.000080
C51	C	0.619695	-0.478182	-0.000098
C52	C	0.671974	-0.455560	-0.000132
C53	C	0.775814	-0.469710	-0.000179
C54	C	0.776525	-0.410313	-0.000196
C55	C	0.724961	-0.373540	-0.000181
C56	C	0.672685	-0.396164	-0.000149
C57	C	0.568127	-0.441406	-0.000065
C58	C	0.568844	-0.382004	-0.000064
C59	C	0.621123	-0.359381	-0.000098
C60	C	0.621832	-0.299995	-0.000151
N61	N	0.674109	-0.277368	-0.000167
C62	C	0.725673	-0.314141	-0.000182
C63	C	0.617491	-0.662324	-0.000091
C64	C	0.616778	-0.721722	-0.000103
C65	C	0.720623	-0.735869	-0.000136
C66	C	0.721335	-0.676470	-0.000137
C67	C	0.669767	-0.639698	-0.000107
C68	C	0.727163	-0.189405	-0.000219
C69	C	0.727869	-0.130003	-0.000243
C70	C	0.624025	-0.115860	-0.000201
C71	C	0.623318	-0.175257	-0.000186
C72	C	0.674891	-0.212029	-0.000189
O73	O	0.578070	-0.263215	-0.000194
O74	O	0.770196	-0.289433	-0.000175
C75	C	0.776472	0.069388	-0.000206
C76	C	0.839689	0.070154	-0.000214
C77	C	0.667577	0.178283	-0.000134
C78	C	0.668343	0.241500	-0.000109
N79	N	0.672326	0.074136	0.419587
N80	N	0.672326	0.074129	-0.419940
H81	H	0.486602	0.172255	-0.000072
H82	H	-0.034198	-0.022693	-0.000252
H83	H	0.574207	-0.740136	-0.000106
H84	H	0.512280	-0.016146	-0.000163
H85	H	0.819097	-0.391900	-0.000216
H86	H	0.378852	0.170970	-0.000124
H87	H	0.575496	-0.632386	-0.000083
C88	C	0.777344	-0.776327	-0.000119
H89	H	0.769428	-0.814942	-0.000090
H90	H	0.798801	-0.769514	-0.102979
H91	H	0.798789	-0.769492	0.102756
H92	H	0.769159	-0.219337	-0.000214
C93	C	0.832540	-0.510151	-0.000209
H94	H	0.863770	-0.488162	-0.000242
H95	H	0.834431	-0.533615	0.102644
H96	H	0.834420	-0.533619	-0.103091
C97	C	0.778842	-0.651591	-0.000158
H98	H	0.809447	-0.682003	-0.000157
H99	H	0.781281	-0.628717	-0.103015
H100	H	0.781281	-0.628711	0.102720
C101	C	-0.148414	-0.038916	-0.000233
H102	H	-0.189057	-0.031961	-0.000221
H103	H	-0.135766	-0.060137	-0.103096
H104	H	-0.135774	-0.060127	0.102639
H105	H	0.206289	0.220908	-0.000104
C106	C	0.567307	-0.075406	-0.000173
H107	H	0.536068	-0.097383	-0.000162
H108	H	0.565434	-0.051934	0.102687
H109	H	0.565425	-0.051946	-0.103047
H110	H	0.525555	-0.459814	-0.000026
H111	H	0.098544	0.219617	-0.000139
H112	H	0.138375	-0.072634	-0.000310
H113	H	0.526850	-0.352066	-0.000038
C114	C	-0.053402	0.180653	-0.000161
H115	H	-0.083814	0.211258	-0.000157
H116	H	-0.030525	0.183094	0.102695
H117	H	-0.030525	0.183090	-0.103039
H118	H	0.580748	-0.193677	-0.000208
H119	H	0.404512	-0.017441	-0.000169
C120	C	-0.178136	0.179156	-0.000175
H121	H	-0.156159	0.210396	-0.000148
H122	H	-0.201598	0.181031	-0.103037
H123	H	-0.201605	0.181036	0.102697
C124	C	0.785379	-0.105121	-0.000270
H125	H	0.815986	-0.135532	-0.000257
H126	H	0.787818	-0.082252	-0.103135
H127	H	0.787815	-0.082237	0.102599
C128	C	0.256632	-0.086072	-0.000300
H129	H	0.234647	-0.117306	-0.000305
H130	H	0.280105	-0.087957	-0.103152
H131	H	0.280090	-0.087951	0.102583
