data_functionalizedCrystal
_audit_creation_method	'MofGen! by Chris Wilmer'
_symmetry_space_group_name_H-M	'P1'
_symmetry_Int_Tables_number	1
_symmetry_cell_setting	triclinic
loop_
_symmetry_equiv_pos_as_xyz
  x,y,z
_cell_length_a	15.944551
_cell_length_b	9.065218
_cell_length_c	14.421503
_cell_angle_alpha	89.991315
_cell_angle_beta	89.990175
_cell_angle_gamma	95.742688
loop_
_atom_site_label
_atom_site_type_symbol
_atom_site_fract_x
_atom_site_fract_y
_atom_site_fract_z
O1	O	1.115953	-0.190286	0.077011
O2	O	0.871581	-0.213745	0.077034
O3	O	0.998818	0.012745	0.077020
O4	O	0.988716	-0.416776	0.077025
O5	O	0.998832	0.012781	-0.077203
O6	O	0.871595	-0.213709	-0.077190
O7	O	1.115967	-0.190250	-0.077212
Cu8	Cu	0.993783	-0.201976	-0.091283
Cu9	Cu	0.993766	-0.202019	0.091104
O10	O	0.988730	-0.416740	-0.077199
C11	C	0.840287	-0.212753	-0.000075
C12	C	0.747019	-0.209833	-0.000066
C13	C	0.997854	0.067727	-0.000090
C14	C	0.994951	0.231502	-0.000085
N15	N	0.993801	-0.201945	-0.219564
C16	C	0.531045	-0.062466	-0.000086
C17	C	0.470537	-0.130916	0.075955
C18	C	0.576253	-0.204551	-0.000077
C19	C	0.470573	-0.130914	-0.076097
C20	C	0.411301	-0.199439	-0.000092
C21	C	0.516972	-0.273041	0.076026
C22	C	0.517015	-0.273019	-0.076094
C23	C	0.456525	-0.341573	-0.000034
C24	C	0.671277	-0.207492	-0.000068
C25	C	0.316278	-0.196509	-0.000095
C26	C	1.147261	-0.191242	-0.000102
C27	C	1.240530	-0.194162	-0.000104
C28	C	0.989694	-0.471722	-0.000087
C29	C	0.992597	-0.635497	-0.000085
N30	N	0.993754	-0.202038	0.219385
C31	C	0.934808	-0.306538	0.530845
C32	C	1.010868	-0.335462	0.469010
C33	C	0.993787	-0.201977	0.591274
C34	C	0.917713	-0.173152	0.469016
C35	C	0.993767	-0.202011	0.408553
C36	C	1.069886	-0.230967	0.530800
C37	C	0.976681	-0.068599	0.530811
C38	C	1.052795	-0.097467	0.469004
C39	C	0.993797	-0.201961	0.696536
C40	C	0.993765	-0.202026	0.303294
H41	H	0.563485	0.055454	0.000007
H42	H	1.025335	-0.448271	0.441864
H43	H	0.853388	-0.148759	0.441873
O44	O	0.418121	-0.482455	-0.000110
C45	C	0.399209	-0.717243	-0.079567
C46	C	0.442774	-0.557751	-0.079591
H47	H	0.419110	-0.778157	-0.143830
H48	H	0.418286	-0.777651	-0.014741
H49	H	0.327923	-0.713959	-0.080138
H50	H	0.514067	-0.560899	-0.079053
H51	H	0.423628	-0.497407	-0.144412
O52	O	0.875477	-0.412263	0.563205
C53	C	0.826471	-0.672355	0.568381
C54	C	0.893724	-0.552776	0.531688
H55	H	0.841191	-0.785984	0.542899
H56	H	0.826627	-0.670772	0.647426
H57	H	0.761767	-0.648810	0.541928
H58	H	0.958462	-0.576239	0.558072
H59	H	0.893495	-0.554388	0.452644
H60	H	0.962191	0.044173	0.557979
O61	O	0.446042	-0.059009	0.152578
C62	C	0.456566	0.169336	0.239244
C63	C	0.484353	0.088079	0.152425
H64	H	0.487542	0.288261	0.239159
H65	H	0.385107	0.170031	0.238854
H66	H	0.476523	0.109823	0.304033
H67	H	0.464454	0.147529	0.087590
H68	H	0.555810	0.087371	0.152897
H69	H	1.134226	-0.255496	0.557826
H70	H	1.102718	-0.009053	0.442023
H71	H	0.537409	-0.333107	0.140383
H72	H	0.537608	-0.333050	-0.140383
H73	H	0.450038	-0.070776	-0.140382
