data_functionalizedCrystal
_audit_creation_method	'MofGen! by Chris Wilmer'
_symmetry_space_group_name_H-M	'P1'
_symmetry_Int_Tables_number	1
_symmetry_cell_setting	triclinic
loop_
_symmetry_equiv_pos_as_xyz
  x,y,z
_cell_length_a	6.817900
_cell_length_b	12.200863
_cell_length_c	10.992410
_cell_angle_alpha	92.441369
_cell_angle_beta	108.764651
_cell_angle_gamma	107.143441
loop_
_atom_site_label
_atom_site_type_symbol
_atom_site_fract_x
_atom_site_fract_y
_atom_site_fract_z
V1	V	-4.105850	-0.158712	-0.400724
O2	O	-4.072780	0.007627	-0.392961
O3	O	-4.075174	-0.314700	-0.398112
O4	O	-4.083571	-0.156271	-0.575434
O5	O	-4.064325	-0.151899	-0.214412
V6	V	-4.583796	-0.138816	-0.378424
O7	O	-4.379341	-0.202356	-0.449641
O8	O	-4.760503	-0.095173	-0.329506
O9	O	-4.391265	0.017171	-0.381035
O10	O	-4.734263	-0.305156	-0.386186
O11	O	-4.742718	-0.145630	-0.564736
O12	O	-4.382868	-0.141258	-0.203713
C13	C	-3.923642	-0.352727	-0.391824
C14	C	-3.980022	-0.480248	-0.390853
C15	C	-4.083210	-0.713725	-0.389087
C16	C	-4.025781	-0.583802	-0.390070
C17	C	-3.934351	-0.150633	-0.618014
C18	C	-3.997537	-0.149669	-0.760842
C19	C	-3.865124	-0.140887	-0.955958
C20	C	-3.799496	-0.142364	-0.807476
C21	C	-4.189568	-0.262775	-0.838039
C22	C	-4.253934	-0.261775	-0.986604
C23	C	-4.143289	-0.042761	-0.948392
C24	C	-4.072609	-0.042225	-0.799379
C25	C	-4.206140	0.055192	-0.387320
C26	C	-4.128999	0.182712	-0.388299
C27	C	-4.195430	-0.146899	-0.161126
C28	C	-4.111482	-0.147857	-0.018298
H29	H	-3.655344	-0.061037	-0.754068
H30	H	-3.752254	-0.059000	-0.974720
H31	H	-4.435415	-0.271610	-1.029244
H32	H	-3.738265	-0.218926	-0.782724
H33	H	-3.836191	-0.216399	-1.004012
O34	O	-4.230734	-0.356791	-1.041983
C35	C	-4.434398	-0.425643	-1.133542
H36	H	-4.572280	-0.406461	-1.108935
H37	H	-4.452173	-0.521296	-1.130783
H38	H	-4.443428	-0.404849	-1.234942
H39	H	-4.339444	-0.272205	-0.809243
O40	O	-3.907058	0.057560	-0.736636
C41	C	-3.850256	0.059277	-0.601218
H42	H	-3.994778	-0.000228	-0.579483
H43	H	-3.806990	0.151578	-0.551762
H44	H	-3.703073	0.027872	-0.562907
O45	O	-4.242073	-0.040739	-0.760384
C46	C	-4.296687	-0.137257	-0.697065
H47	H	-4.239248	-0.208154	-0.730270
H48	H	-4.481868	-0.171707	-0.722278
H49	H	-4.213112	-0.109961	-0.587450
O50	O	-4.356480	-0.047505	-0.996939
C51	C	-4.383106	0.047147	-0.933589
H52	H	-4.245987	0.079693	-0.834955
H53	H	-4.548095	0.018318	-0.919236
H54	H	-4.376770	0.119965	-0.995348
H55	H	-4.139585	-0.342547	-0.812499
O56	O	-4.025730	0.059608	-0.972670
C57	C	-3.912949	0.037786	-1.053347
H58	H	-3.891200	-0.050906	-1.043238
H59	H	-3.745320	0.107566	-1.023272
H60	H	-4.011123	0.039054	-1.158765
