data_functionalizedCrystal
_audit_creation_method	'MofGen! by Chris Wilmer'
_symmetry_space_group_name_H-M	'P1'
_symmetry_Int_Tables_number	1
_symmetry_cell_setting	triclinic
loop_
_symmetry_equiv_pos_as_xyz
  x,y,z
_cell_length_a	11.792241
_cell_length_b	10.654549
_cell_length_c	9.730223
_cell_angle_alpha	90.001044
_cell_angle_beta	90.006738
_cell_angle_gamma	84.339096
loop_
_atom_site_label
_atom_site_type_symbol
_atom_site_fract_x
_atom_site_fract_y
_atom_site_fract_z
O1	O	0.159422	1.667386	0.114259
O2	O	0.174610	1.301864	0.114269
O3	O	0.001866	1.493495	0.114254
O4	O	0.332166	1.475755	0.114274
O5	O	0.001853	1.493488	-0.114326
O6	O	0.174598	1.301857	-0.114311
O7	O	0.159409	1.667379	-0.114321
Zn8	Zn	0.167002	1.484617	-0.150608
Zn9	Zn	0.167018	1.484626	0.150556
O10	O	0.332154	1.475748	-0.114306
C11	C	0.173489	1.255066	-0.000020
C12	C	0.170153	1.115632	-0.000017
C13	C	0.268718	0.904838	-0.000016
C14	C	0.271862	1.035850	-0.000008
C15	C	0.065293	1.064396	-0.000020
C16	C	0.062151	0.933387	-0.000019
C17	C	-0.040434	1.492377	-0.000036
C18	C	-0.166455	1.489042	-0.000034
C19	C	-0.397182	1.482909	-0.000011
C20	C	-0.268789	1.486316	-0.000024
C21	C	0.374453	1.476866	-0.000014
C22	C	0.500475	1.480201	-0.000006
C23	C	0.160530	1.714177	-0.000029
C24	C	0.163867	1.853611	-0.000024
N25	N	0.166990	1.484620	-0.356145
N26	N	0.167021	1.484633	0.356092
C27	C	0.090665	1.569640	0.571904
C28	C	0.090678	1.569644	0.428021
C29	C	0.243349	1.399604	0.428054
C30	C	0.243330	1.399594	0.571934
H31	H	0.351543	0.839888	-0.000020
C32	C	0.387202	1.092198	-0.000007
C33	C	0.471964	1.062409	-0.118705
C34	C	0.587310	1.118753	-0.118702
C35	C	0.617894	1.204887	-0.000003
C36	C	0.533130	1.234680	0.118703
C37	C	0.417784	1.178335	0.118701
H38	H	0.449326	0.998644	-0.206581
H39	H	0.650058	1.096698	-0.206577
H40	H	0.703281	1.246596	-0.000001
H41	H	0.555769	1.298445	0.206580
H42	H	0.355036	1.200391	0.206576
H43	H	0.028503	1.638871	0.630459
H44	H	0.305505	1.330380	0.369481
C45	C	-0.053195	0.877029	-0.000026
C46	C	-0.137979	0.906804	-0.118726
C47	C	-0.253319	0.850446	-0.118726
C48	C	-0.283874	0.764311	-0.000026
C49	C	-0.199087	0.734531	0.118683
C50	C	-0.083748	0.790890	0.118683
H51	H	-0.115362	0.970570	-0.206603
H52	H	-0.316083	0.872491	-0.206603
H53	H	-0.369255	0.722591	-0.000026
H54	H	-0.221704	0.670766	0.206560
H55	H	-0.020983	0.768845	0.206560
H56	H	-0.017520	1.129365	-0.000019
H57	H	0.028526	1.638874	0.369442
H58	H	0.305483	1.330355	0.630521
