data_functionalizedCrystal
_audit_creation_method	'MofGen! by Chris Wilmer'
_symmetry_space_group_name_H-M	'P1'
_symmetry_Int_Tables_number	1
_symmetry_cell_setting	triclinic
loop_
_symmetry_equiv_pos_as_xyz
  x,y,z
_cell_length_a	17.077404
_cell_length_b	15.299816
_cell_length_c	17.077396
_cell_angle_alpha	99.656369
_cell_angle_beta	89.980499
_cell_angle_gamma	80.351064
loop_
_atom_site_label
_atom_site_type_symbol
_atom_site_fract_x
_atom_site_fract_y
_atom_site_fract_z
Zn1	Zn	1.254116	-0.359055	-0.497975
Zn2	Zn	1.754116	0.140945	0.002025
Zn3	Zn	1.276733	-0.509886	-0.389448
Zn4	Zn	1.776733	-0.009886	0.110552
Zn5	Zn	1.122853	-0.359087	-0.366728
Zn6	Zn	1.622853	0.140913	0.133272
Zn7	Zn	1.145518	-0.509832	-0.520664
Zn8	Zn	1.645518	-0.009832	-0.020664
O9	O	1.199805	-0.434465	-0.443704
O10	O	1.699805	0.065535	0.056296
O11	O	1.366965	-0.379073	-0.483592
O12	O	1.866965	0.120927	0.016408
O13	O	1.256301	-0.489918	-0.276593
O14	O	1.756301	0.010082	0.223407
O15	O	1.121315	-0.232873	-0.365134
O16	O	1.621315	0.267127	0.134866
O17	O	1.383582	-0.489887	-0.403858
O18	O	1.883582	0.010113	0.096142
O19	O	1.217753	-0.232849	-0.461560
O20	O	1.717753	0.267151	0.038440
O21	O	1.143245	-0.379126	-0.259900
O22	O	1.643245	0.120874	0.240100
O23	O	1.016011	-0.379075	-0.387134
O24	O	1.516011	0.120925	0.112866
O25	O	1.159944	-0.489796	-0.627496
O26	O	1.659944	0.010204	-0.127496
O27	O	1.032663	-0.489826	-0.500231
O28	O	1.532663	0.010174	-0.000231
O29	O	1.239731	-0.379021	-0.610826
O30	O	1.739731	0.120979	-0.110826
O31	O	1.278278	-0.636089	-0.425859
O32	O	1.778278	-0.136089	0.074141
O33	O	1.181875	-0.636049	-0.522262
O34	O	1.681875	-0.136049	-0.022262
C35	C	0.995855	-0.434449	-0.443680
C36	C	1.495855	0.065551	0.056320
C37	C	0.908607	-0.434463	-0.443691
C38	C	1.408607	0.065537	0.056309
C39	C	1.235012	-0.668794	-0.479005
C40	C	1.735012	-0.168794	0.020995
C41	C	1.250145	-0.769041	-0.494133
C42	C	1.750145	-0.269041	0.005867
C43	C	0.876321	-0.492219	-0.502513
C44	C	1.376321	0.007781	-0.002513
C45	C	0.794341	-0.492221	-0.502526
C46	C	1.294341	0.007779	-0.002526
C47	C	0.744649	-0.434471	-0.443713
C48	C	1.244649	0.065529	0.056287
C49	C	0.776940	-0.376709	-0.384888
C50	C	1.276940	0.123291	0.115112
C51	C	0.858918	-0.376704	-0.384879
C52	C	1.358918	0.123296	0.115121
C53	C	0.606072	-0.376727	-0.384909
C54	C	1.106072	0.123273	0.115091
C55	C	0.524089	-0.376734	-0.384917
C56	C	1.024089	0.123266	0.115083
C57	C	0.541496	-0.492244	-0.502556
C58	C	1.041496	0.007756	-0.002556
C59	C	0.623474	-0.492239	-0.502547
C60	C	1.123474	0.007761	-0.002547
C61	C	0.655759	-0.434478	-0.443721
C62	C	1.155759	0.065522	0.056279
C63	C	1.092160	-1.051967	-0.335846
C64	C	1.592160	-0.551967	0.164154
C65	C	1.077938	-0.957780	-0.321634
C66	C	1.577938	-0.457780	0.178366
C67	C	1.120989	-0.910591	-0.364757
C68	C	1.620989	-0.410591	0.135243
C69	C	1.178264	-0.957598	-0.422096
C70	C	1.678264	-0.457598	0.077904
C71	C	1.192483	-1.051794	-0.436313
C72	C	1.692483	-0.551794	0.063687
C73	C	1.221311	-0.910417	-0.465225
C74	C	1.721311	-0.410417	0.034775
C75	C	1.278587	-0.957424	-0.522563
C76	C	1.778587	-0.457424	-0.022563
C77	C	1.292804	-1.051611	-0.536778
C78	C	1.792804	-0.551611	-0.036778
C79	C	1.249753	-1.098801	-0.493654
C80	C	1.749753	-0.598801	0.006346
C81	C	1.207092	-0.816221	-0.451007
C82	C	1.707092	-0.316221	0.048993
C83	C	1.307415	-0.816048	-0.551474
C84	C	1.807415	-0.316048	-0.051474
C85	C	1.321637	-0.910235	-0.565686
C86	C	1.821637	-0.410235	-0.065686
C87	C	1.404552	-0.434482	-0.443729
C88	C	1.904552	0.065518	0.056271
C89	C	1.491803	-0.434489	-0.443739
C90	C	1.991803	0.065511	0.056261
C91	C	1.199843	-0.434399	-0.648438
C92	C	1.699843	0.065601	-0.148438
C93	C	1.199859	-0.434370	-0.735684
C94	C	1.699859	0.065630	-0.235684
C95	C	1.164483	-0.199221	-0.408282
C96	C	1.664483	0.300779	0.091718
C97	C	1.149430	-0.098974	-0.393187
C98	C	1.649430	0.401026	0.106813
C99	C	1.241405	-0.376685	-0.767995
C100	C	1.741405	0.123315	-0.267995
C101	C	1.241410	-0.376655	-0.849971
C102	C	1.741410	0.123345	-0.349971
C103	C	1.199873	-0.434315	-0.899635
C104	C	1.699873	0.065685	-0.399635
C105	C	1.158322	-0.492003	-0.867319
C106	C	1.658322	0.007997	-0.367319
C107	C	1.158312	-0.492028	-0.785343
C108	C	1.658312	0.007972	-0.285343
C109	C	1.158345	-0.491949	-1.038181
C110	C	1.658345	0.008051	-0.538181
C111	C	1.158355	-0.491926	-1.120162
C112	C	1.658355	0.008074	-0.620162
C113	C	1.241442	-0.376576	-1.102808
C114	C	1.741442	0.123424	-0.602808
C115	C	1.241433	-0.376601	-1.020832
C116	C	1.741433	0.123399	-0.520832
C117	C	1.199883	-0.434290	-0.988522
C118	C	1.699883	0.065710	-0.488522
C119	C	1.199803	-0.434466	-0.239756
C120	C	1.699803	0.065534	0.260244
C121	C	1.199901	-0.434240	-0.152473
C122	C	1.699901	0.065760	0.347527
H123	H	0.768059	-0.539252	-0.550424
H124	H	1.268059	-0.039252	-0.050424
H125	H	1.124530	-0.538876	-1.160597
H126	H	1.624530	-0.038876	-0.660597
H127	H	1.339438	-1.089881	-0.583470
H128	H	1.839438	-0.589881	-0.083470
H129	H	1.124496	-0.538912	-1.011875
H130	H	1.624496	-0.038912	-0.511875
H131	H	0.663933	-0.539268	-0.550435
H132	H	1.163933	-0.039268	-0.050435
H133	H	0.515205	-0.539273	-0.550457
H134	H	1.015205	-0.039273	-0.050457
H135	H	0.483629	-0.329698	-0.337034
H136	H	0.983629	0.170302	0.162966
H137	H	1.057111	-1.090398	-0.300745
H138	H	1.557111	-0.590398	0.199255
N139	N	1.286227	-0.314432	-0.884805
N140	N	1.786227	0.185568	-0.384805
H141	H	1.328112	-0.351072	-0.924345
H142	H	1.828112	0.148928	-0.424345
H143	H	1.248004	-0.272626	-0.912469
H144	H	1.748004	0.227374	-0.412469
H145	H	1.160458	-0.777957	-0.404322
H146	H	1.660458	-0.277957	0.095678
N147	N	1.286244	-0.314332	-1.137639
N148	N	1.786244	0.185668	-0.637639
H149	H	1.344433	-0.328345	-1.125495
H150	H	1.844433	0.171655	-0.625495
H151	H	1.279885	-0.323077	-1.197095
H152	H	1.779885	0.176923	-0.697095
H153	H	0.632354	-0.329684	-0.337013
H154	H	1.132354	0.170316	0.162987
H155	H	0.736473	-0.329685	-0.337004
H156	H	1.236473	0.170315	0.162996
N157	N	1.113494	-0.554243	-0.750497
N158	N	1.613494	-0.054243	-0.250497
H159	H	1.135359	-0.618683	-0.774466
H160	H	1.635359	-0.118683	-0.274466
H161	H	1.119797	-0.545434	-0.691033
H162	H	1.619797	-0.045434	-0.191033
H163	H	1.124498	-0.538948	-0.907762
H164	H	1.624498	-0.038948	-0.407762
H165	H	1.261333	-1.175495	-0.505220
H166	H	1.761333	-0.675495	-0.005220
H167	H	0.885202	-0.329668	-0.336984
H168	H	1.385202	0.170332	0.163016
H169	H	1.342469	-0.777627	-0.586591
H170	H	1.842469	-0.277627	-0.086591
H171	H	1.109406	-0.833900	-0.353182
H172	H	1.609406	-0.333900	0.146818
H173	H	1.031304	-0.919511	-0.274951
H174	H	1.531304	-0.419511	0.225049
H175	H	1.368271	-0.948521	-0.612372
H176	H	1.868271	-0.448521	-0.112372
H177	H	0.916777	-0.539248	-0.550403
H178	H	1.416777	-0.039248	-0.050403
H179	H	1.275232	-0.329734	-0.727563
H180	H	1.775232	0.170266	-0.227563
H181	H	1.275261	-0.329654	-0.980398
H182	H	1.775261	0.170346	-0.480398
