data_functionalizedCrystal
_audit_creation_method	'MofGen! by Chris Wilmer'
_symmetry_space_group_name_H-M	'P1'
_symmetry_Int_Tables_number	1
_symmetry_cell_setting	triclinic
loop_
_symmetry_equiv_pos_as_xyz
  x,y,z
_cell_length_a	6.817900
_cell_length_b	17.982865
_cell_length_c	11.102228
_cell_angle_alpha	94.239223
_cell_angle_beta	108.604565
_cell_angle_gamma	102.450232
loop_
_atom_site_label
_atom_site_type_symbol
_atom_site_fract_x
_atom_site_fract_y
_atom_site_fract_z
V1	V	-4.080386	-0.105415	-0.396802
O2	O	-4.072045	0.005064	-0.388687
O3	O	-4.026567	-0.209019	-0.394628
O4	O	-4.057639	-0.103795	-0.569614
O5	O	-4.040757	-0.100889	-0.212489
V6	V	-4.561392	-0.092201	-0.374691
O7	O	-4.347165	-0.134403	-0.445304
O8	O	-4.744809	-0.063213	-0.326189
O9	O	-4.392004	0.011403	-0.376865
O10	O	-4.687129	-0.202680	-0.382805
O11	O	-4.718417	-0.096727	-0.559004
O12	O	-4.360931	-0.093821	-0.201878
C13	C	-3.869419	-0.234276	-0.388507
C14	C	-3.906873	-0.318973	-0.387881
C15	C	-3.909054	-0.100050	-0.611719
C16	C	-3.971704	-0.099410	-0.752997
C17	C	-4.079739	-0.827971	-0.267476
C18	C	-4.044549	-0.748390	-0.268081
C19	C	-4.083915	-0.719487	-0.384828
C20	C	-4.158455	-0.770170	-0.500976
C21	C	-4.193629	-0.849749	-0.500370
C22	C	-4.016603	-0.449237	-0.503425
C23	C	-3.981429	-0.369652	-0.504023
C24	C	-3.867523	-0.347878	-0.271137
C25	C	-3.902697	-0.427457	-0.270530
C26	C	-3.977223	-0.478132	-0.386677
C27	C	-4.015375	-0.564423	-0.386020
C28	C	-4.045779	-0.633199	-0.385487
C29	C	-4.040697	-0.168882	-0.837881
C30	C	-4.099576	-0.168279	-0.970628
C31	C	-4.020452	-0.028728	-0.933593
C32	C	-3.961589	-0.029332	-0.800850
C33	C	-4.345101	-0.253725	-1.178459
C34	C	-4.414063	-0.323199	-1.263347
C35	C	-4.312319	-0.382554	-1.232440
C36	C	-4.141566	-0.372436	-1.116646
C37	C	-4.072588	-0.302961	-1.031763
C38	C	-4.174380	-0.243610	-1.062671
C39	C	-3.716049	0.056110	-0.593017
C40	C	-3.647055	0.125587	-0.508132
C41	C	-3.748782	0.184948	-0.539034
C42	C	-3.919502	0.174839	-0.654829
C43	C	-3.988496	0.105362	-0.739715
C44	C	-3.886769	0.046000	-0.708803
C45	C	-4.212493	0.036656	-0.382982
C46	C	-4.154278	0.121353	-0.383616
C47	C	-4.172857	-0.097568	-0.159767
C48	C	-4.089446	-0.098204	-0.018487
H49	H	-4.047687	-0.851496	-0.172407
F50	F	-3.465336	0.136348	-0.384898
F51	F	-4.453418	-0.190559	-1.211356
F52	F	-4.009680	0.045851	-0.984532
H53	H	-3.983861	-0.707131	-0.173508
H54	H	-4.127511	0.097134	-0.834002
H55	H	-4.002335	0.223176	-0.679991
H56	H	-3.870647	-0.450984	-0.175463
F57	F	-4.095776	-0.503157	-0.627035
H58	H	-3.806827	-0.306607	-0.176563
F59	F	-4.272981	-0.903684	-0.623982
F60	F	-3.675326	0.258896	-0.448692
H61	H	-4.013497	-0.346124	-0.599098
F62	F	-4.200329	-0.739408	-0.625227
F63	F	-4.051470	-0.243466	-0.786958
H64	H	-3.933557	-0.294722	-0.937490
F65	F	-4.033264	-0.435608	-1.083769
F66	F	-4.385720	-0.456493	-1.322788
H67	H	-4.553101	-0.331432	-1.357626
F68	F	-3.607773	-0.007070	-0.560117
