data_functionalizedCrystal
_audit_creation_method	'MofGen! by Chris Wilmer'
_symmetry_space_group_name_H-M	'P1'
_symmetry_Int_Tables_number	1
_symmetry_cell_setting	triclinic
loop_
_symmetry_equiv_pos_as_xyz
  x,y,z
_cell_length_a	10.654550
_cell_length_b	10.654550
_cell_length_c	9.130313
_cell_angle_alpha	90.002847
_cell_angle_beta	89.992745
_cell_angle_gamma	95.515084
loop_
_atom_site_label
_atom_site_type_symbol
_atom_site_fract_x
_atom_site_fract_y
_atom_site_fract_z
O1	O	1.667840	-0.176396	-0.121919
O2	O	1.302362	-0.193202	-0.121896
O3	O	1.493504	-0.002059	-0.121899
O4	O	1.476698	-0.367538	-0.121916
O5	O	1.493489	-0.002059	0.121700
O6	O	1.302347	-0.193202	0.121703
O7	O	1.667826	-0.176396	0.121679
Cu8	Cu	1.485085	-0.184799	0.143934
Cu9	Cu	1.485102	-0.184799	-0.144150
O10	O	1.476683	-0.367538	0.121682
C11	C	1.255556	-0.191968	-0.000093
C12	C	1.116113	-0.188276	-0.000084
N13	N	1.485082	-0.184798	0.346556
C14	C	1.492263	0.044739	-0.000100
C15	C	1.488571	0.184182	-0.000102
C16	C	1.036628	-0.300817	-0.000111
C17	C	0.905607	-0.297341	-0.000136
C18	C	0.933570	-0.068771	-0.000114
C19	C	1.064588	-0.072249	-0.000078
C20	C	1.020482	-0.432780	-0.000130
C21	C	0.889461	-0.429304	-0.000155
C22	C	1.714631	-0.177630	-0.000126
C23	C	1.854074	-0.181321	-0.000145
C24	C	1.477925	-0.414336	-0.000120
C25	C	1.481617	-0.553779	-0.000127
C26	C	1.601112	0.263667	-0.000110
C27	C	1.597636	0.394688	-0.000128
C28	C	1.369066	0.366725	-0.000124
C29	C	1.372544	0.235707	-0.000117
N30	N	1.485115	-0.184789	-0.346773
C31	C	1.561913	-0.261680	0.423194
C32	C	1.561934	-0.261673	0.576531
C33	C	1.408281	-0.107899	0.576579
C34	C	1.408268	-0.107900	0.423245
H35	H	1.129302	0.019393	-0.000036
H36	H	1.280893	0.170986	-0.000115
O37	O	1.636387	-0.336427	0.651139
C38	C	1.560559	-0.421429	0.739829
H39	H	1.467043	-0.381472	0.762830
H40	H	1.611178	-0.435885	0.847637
H41	H	1.542140	-0.515661	0.680739
H42	H	1.345702	-0.045287	0.360845
H43	H	0.843784	-0.469185	0.105011
H44	H	1.624461	-0.324295	0.360758
O45	O	1.062949	-0.483126	-0.125512
C46	C	1.006700	-0.607601	-0.141998
H47	H	0.974874	-0.646742	-0.030417
H48	H	1.078079	-0.668802	-0.191084
H49	H	0.921667	-0.607916	-0.217824
H50	H	0.891602	0.025694	-0.000132
H51	H	1.345740	-0.045293	0.639037
O52	O	1.713923	0.213822	-0.000179
C53	C	1.812508	0.312080	-0.000158
H54	H	1.776524	0.401372	-0.046275
H55	H	1.893443	0.284001	-0.070891
H56	H	1.847276	0.330322	0.116703
H57	H	1.274601	0.408693	-0.000132
H58	H	0.847735	-0.479025	-0.102111
O59	O	1.055440	-0.494162	0.121642
C60	C	1.018973	-0.430216	0.247575
H61	H	1.008167	-0.327688	0.218849
H62	H	1.094031	-0.434068	0.336007
H63	H	0.925234	-0.477182	0.289704
H64	H	1.689279	0.459401	-0.000137
