data_functionalizedCrystal
_audit_creation_method	'MofGen! by Chris Wilmer'
_symmetry_space_group_name_H-M	'P1'
_symmetry_Int_Tables_number	1
_symmetry_cell_setting	triclinic
loop_
_symmetry_equiv_pos_as_xyz
  x,y,z
_cell_length_a	27.732048
_cell_length_b	19.188930
_cell_length_c	17.666332
_cell_angle_alpha	89.988397
_cell_angle_beta	89.996139
_cell_angle_gamma	82.893719
loop_
_atom_site_label
_atom_site_type_symbol
_atom_site_fract_x
_atom_site_fract_y
_atom_site_fract_z
O1	O	-0.641184	-0.083079	0.062859
O2	O	-0.307851	0.250254	0.396192
O3	O	0.025482	0.583588	0.729526
O4	O	-0.500430	-0.095711	0.062883
O5	O	-0.167096	0.237622	0.396217
O6	O	0.166237	0.570956	0.729550
O7	O	-0.574869	0.012286	0.062856
O8	O	-0.241536	0.345620	0.396189
O9	O	0.091798	0.678953	0.729522
O10	O	-0.566745	-0.191077	0.062887
O11	O	-0.233412	0.142257	0.396220
O12	O	0.099922	0.475590	0.729553
O13	O	-0.574856	0.012292	-0.063041
O14	O	-0.241523	0.345625	0.270292
O15	O	0.091811	0.678959	0.603626
O16	O	-0.500417	-0.095706	-0.063014
O17	O	-0.167083	0.237628	0.270320
O18	O	0.166250	0.570961	0.603653
O19	O	-0.641171	-0.083074	-0.063038
O20	O	-0.307838	0.250260	0.270296
O21	O	0.025495	0.583593	0.603629
Cu22	Cu	-0.570793	-0.089389	-0.074521
Cu23	Cu	-0.237459	0.243944	0.258812
Cu24	Cu	0.095874	0.577278	0.592146
Cu25	Cu	-0.570808	-0.089396	0.074367
Cu26	Cu	-0.237475	0.243938	0.407700
Cu27	Cu	0.095858	0.577271	0.741033
O28	O	-0.566732	-0.191071	-0.063010
O29	O	-0.233399	0.142262	0.270323
O30	O	0.099935	0.475596	0.603657
C31	C	-0.482415	-0.095443	-0.000062
C32	C	-0.149082	0.237890	0.333271
C33	C	0.184251	0.571223	0.666604
C34	C	-0.428758	-0.094645	-0.000054
C35	C	-0.095425	0.238689	0.333280
C36	C	0.237909	0.572022	0.666613
C37	C	-0.574599	0.038299	-0.000095
C38	C	-0.241266	0.371632	0.333238
C39	C	0.092067	0.704965	0.666572
C40	C	-0.573810	0.115798	-0.000101
C41	C	-0.240476	0.449131	0.333232
C42	C	0.092857	0.782465	0.666565
C43	C	-0.659186	-0.083341	-0.000090
C44	C	-0.325852	0.249992	0.333243
C45	C	0.007481	0.583325	0.666576
C46	C	-0.712843	-0.084140	-0.000094
C47	C	-0.379510	0.249193	0.333239
C48	C	-0.046176	0.582527	0.666573
C49	C	-0.090123	-0.153438	-0.000078
C50	C	0.243211	0.179896	0.333256
C51	C	0.576544	0.513229	0.666589
C52	C	0.111546	-0.150475	-0.000085
C53	C	0.444879	0.182858	0.333249
C54	C	0.778213	0.516192	0.666582
O55	O	0.142637	-0.204237	-0.000109
O56	O	0.475971	0.129096	0.333224
O57	O	0.809304	0.462430	0.666557
N58	N	0.130866	-0.086437	-0.000093
N59	N	0.464199	0.246896	0.333240
N60	N	0.797532	0.580230	0.666573
C61	C	0.099764	-0.023135	-0.000105
C62	C	0.433098	0.310198	0.333229
C63	C	0.766431	0.643532	0.666562
O64	O	0.120824	0.031401	-0.000120
O65	O	0.454158	0.364735	0.333213
O66	O	0.787491	0.698068	0.666547
C67	C	-0.101903	-0.026098	-0.000103
C68	C	0.231430	0.307235	0.333230
C69	C	0.564763	0.640568	0.666564
C70	C	-0.121220	-0.090140	-0.000087
C71	C	0.212114	0.243193	0.333246
C72	C	0.545447	0.576526	0.666580
C73	C	-0.109440	-0.217475	-0.000062
C74	C	0.223894	0.115859	0.333271
C75	C	0.557227	0.449192	0.666604
C76	C	-0.159854	-0.218215	-0.000056
C77	C	0.173479	0.115119	0.333277
C78	C	0.506813	0.448452	0.666610
C79	C	-0.190951	-0.154917	-0.000066
C80	C	0.142382	0.178416	0.333268
C81	C	0.475716	0.511749	0.666601
C82	C	-0.171634	-0.090880	-0.000081
C83	C	0.161699	0.242453	0.333252
C84	C	0.495033	0.575786	0.666586
C85	C	-0.133003	0.037203	-0.000120
C86	C	0.200330	0.370536	0.333213
C87	C	0.533663	0.703870	0.666547
C88	C	-0.183423	0.036457	-0.000121
C89	C	0.149910	0.369790	0.333212
C90	C	0.483244	0.703123	0.666545
C91	C	-0.202740	-0.027586	-0.000105
C92	C	0.130594	0.305748	0.333228
C93	C	0.463927	0.639081	0.666561
C94	C	-0.253145	-0.028323	-0.000084
C95	C	0.080188	0.305010	0.333249
C96	C	0.413521	0.638343	0.666582
N97	N	-0.272465	-0.092361	-0.000076
N98	N	0.060868	0.240972	0.333257
N99	N	0.394202	0.574305	0.666591
C100	C	-0.241368	-0.155658	-0.000067
C101	C	0.091966	0.177675	0.333267
C102	C	0.425299	0.511008	0.666600
C103	C	0.205643	-0.021584	-0.000104
C104	C	0.538977	0.311750	0.333229
C105	C	0.872310	0.645083	0.666562
C106	C	0.256060	-0.020843	-0.000103
C107	C	0.589393	0.312491	0.333230
C108	C	0.922727	0.645824	0.666563
C109	C	0.267838	-0.148183	-0.000085
C110	C	0.601171	0.185150	0.333249
C111	C	0.934505	0.518483	0.666582
C112	C	0.217420	-0.148923	-0.000080
C113	C	0.550754	0.184410	0.333253
C114	C	0.884087	0.517743	0.666586
C115	C	0.186324	-0.085622	-0.000096
C116	C	0.519657	0.247711	0.333237
C117	C	0.852990	0.581045	0.666571
C118	C	-0.347242	-0.157208	-0.000054
C119	C	-0.013908	0.176126	0.333280
C120	C	0.319425	0.509459	0.666613
C121	C	-0.397661	-0.157942	-0.000044
C122	C	-0.064328	0.175391	0.333289
C123	C	0.269006	0.508725	0.666622
C124	C	-0.409435	-0.030602	-0.000067
C125	C	-0.076101	0.302731	0.333266
C126	C	0.257232	0.636065	0.666600
C127	C	-0.359020	-0.029867	-0.000072
C128	C	-0.025687	0.303466	0.333261
C129	C	0.307647	0.636800	0.666595
C130	C	-0.327924	-0.093176	-0.000068
C131	C	0.005409	0.240158	0.333265
C132	C	0.338743	0.573491	0.666599
O133	O	-0.284265	0.025410	-0.000068
O134	O	0.049068	0.358743	0.333265
O135	O	0.382402	0.692076	0.666598
O136	O	-0.262437	-0.210187	-0.000068
O137	O	0.070896	0.123147	0.333265
O138	O	0.404230	0.456480	0.666598
C139	C	-0.039708	-0.152698	-0.000084
C140	C	0.293625	0.180636	0.333250
C141	C	0.626958	0.513969	0.666583
C142	C	-0.020391	-0.088661	-0.000099
C143	C	0.312942	0.244673	0.333235
C144	C	0.646275	0.578006	0.666568
C145	C	-0.051489	-0.025363	-0.000108
C146	C	0.281845	0.307970	0.333225
C147	C	0.615178	0.641303	0.666559
C148	C	0.030025	-0.087920	-0.000098
C149	C	0.363359	0.245414	0.333235
C150	C	0.696692	0.578747	0.666569
C151	C	0.061122	-0.151217	-0.000089
C152	C	0.394456	0.182117	0.333245
C153	C	0.727789	0.515450	0.666578
C154	C	0.041803	-0.215255	-0.000080
C155	C	0.375136	0.118079	0.333253
C156	C	0.708470	0.451412	0.666587
C157	C	-0.008611	-0.215995	-0.000074
C158	C	0.324722	0.117339	0.333259
C159	C	0.658055	0.450672	0.666592
C160	C	-0.032169	0.038675	-0.000116
C161	C	0.301164	0.372008	0.333217
C162	C	0.634498	0.705341	0.666550
C163	C	0.018246	0.039409	-0.000122
C164	C	0.351579	0.372743	0.333212
C165	C	0.684912	0.706076	0.666545
C166	C	0.049343	-0.023888	-0.000112
C167	C	0.382676	0.309446	0.333221
C168	C	0.716010	0.642779	0.666554
C169	C	-0.567002	-0.217083	-0.000058
C170	C	-0.233668	0.116250	0.333275
C171	C	0.099665	0.449583	0.666609
C172	C	-0.567791	-0.294583	-0.000047
C173	C	-0.234458	0.038751	0.333287
C174	C	0.098875	0.372084	0.666620
N175	N	-0.570786	-0.089384	-0.179240
N176	N	-0.237452	0.243949	0.154093
N177	N	0.095881	0.577283	0.487426
C178	C	-0.617488	0.161001	-0.000112
C179	C	-0.284155	0.494334	0.333221
C180	C	0.049179	0.827667	0.666554
C181	C	-0.616746	0.233820	-0.000100
C182	C	-0.283413	0.567153	0.333233
C183	C	0.049920	0.900486	0.666567
C184	C	-0.572323	0.261433	-0.000092
C185	C	-0.238990	0.594766	0.333241
C186	C	0.094343	0.928100	0.666575
C187	C	-0.528639	0.216220	-0.000077
C188	C	-0.195306	0.549554	0.333257
C189	C	0.138028	0.882887	0.666590
C190	C	-0.529382	0.143403	-0.000081
C191	C	-0.196049	0.476736	0.333252
C192	C	0.137285	0.810070	0.666585
N193	N	-0.538363	0.369223	-0.042931
N194	N	-0.205029	0.702556	0.290402
N195	N	0.128304	1.035890	0.623736
N196	N	-0.537660	0.438397	-0.042928
N197	N	-0.204326	0.771731	0.290405
N198	N	0.129007	1.105064	0.623738
C199	C	-0.570081	0.480827	-0.000076
C200	C	-0.236748	0.814161	0.333257
C201	C	0.096585	1.147494	0.666590
N202	N	-0.603240	0.451471	0.042764
N203	N	-0.269907	0.784805	0.376097
N204	N	0.063427	1.118138	0.709430
N205	N	-0.603944	0.382291	0.042757
N206	N	-0.270611	0.715624	0.376091
N207	N	0.062722	1.048958	0.709424
C208	C	-0.571512	0.340390	-0.000086
C209	C	-0.238179	0.673724	0.333247
C210	C	0.095154	1.007057	0.666580
C211	C	-0.612959	0.604989	-0.000073
C212	C	-0.279625	0.938322	0.333260
C213	C	0.053708	1.271656	0.666594
C214	C	-0.612215	0.677809	-0.000056
C215	C	-0.278881	1.011142	0.333277
C216	C	0.054452	1.344476	0.666611
C217	C	-0.524106	0.660208	-0.000040
C218	C	-0.190773	0.993542	0.333293
C219	C	0.142560	1.326875	0.666627
C220	C	-0.524851	0.587390	-0.000049
C221	C	-0.191518	0.920723	0.333284
C222	C	0.141815	1.254057	0.666617
C223	C	-0.569279	0.559785	-0.000069
C224	C	-0.235945	0.893118	0.333264
C225	C	0.097388	1.226452	0.666597
C226	C	-0.603758	-0.041586	-0.218862
C227	C	-0.270425	0.291748	0.114471
C228	C	0.062909	0.625081	0.447804
C229	C	-0.603761	-0.041582	-0.298110
C230	C	-0.270427	0.291751	0.035223
C231	C	0.062906	0.625084	0.368557
C232	C	-0.570796	-0.089389	-0.337733
C233	C	-0.237462	0.243944	-0.004399
C234	C	0.095871	0.577278	0.328934
C235	C	-0.537817	-0.137191	-0.298101
C236	C	-0.204484	0.196142	0.035232
C237	C	0.128849	0.529476	0.368566
C238	C	-0.537812	-0.137188	-0.218855
C239	C	-0.204479	0.196145	0.114478
C240	C	0.128855	0.529478	0.447812
N241	N	-0.564512	-0.151237	-0.462141
N242	N	-0.231179	0.182097	-0.128808
N243	N	0.102155	0.515430	0.204526
N244	N	-0.564520	-0.151237	-0.537422
N245	N	-0.231187	0.182097	-0.204088
N246	N	0.102147	0.515430	0.129245
C247	C	-0.570808	-0.089399	-0.576497
C248	C	-0.237475	0.243935	-0.243163
C249	C	0.095858	0.577268	0.090170
N250	N	-0.577098	-0.027558	-0.537447
N251	N	-0.243765	0.305775	-0.204114
N252	N	0.089568	0.639108	0.129220
N253	N	-0.577093	-0.027559	-0.462160
N254	N	-0.243760	0.305775	-0.128826
N255	N	0.089573	0.639108	0.204507
C256	C	-0.570797	-0.089397	-0.423662
C257	C	-0.237464	0.243936	-0.090328
C258	C	0.095869	0.577270	0.243005
C259	C	-0.603786	-0.041593	-0.702048
C260	C	-0.270452	0.291740	-0.368714
C261	C	0.062881	0.625074	-0.035381
C262	C	-0.603785	-0.041589	-0.781297
C263	C	-0.270452	0.291745	-0.447964
C264	C	0.062882	0.625078	-0.114630
C265	C	-0.537844	-0.137203	-0.781286
C266	C	-0.204511	0.196130	-0.447953
C267	C	0.128823	0.529463	-0.114620
C268	C	-0.537842	-0.137202	-0.702039
C269	C	-0.204509	0.196132	-0.368706
C270	C	0.128824	0.529465	-0.035372
C271	C	-0.570816	-0.089397	-0.662424
C272	C	-0.237482	0.243936	-0.329091
C273	C	0.095851	0.577269	0.004242
N274	N	-0.570819	-0.089395	0.179086
N275	N	-0.237486	0.243938	0.512419
N276	N	0.095847	0.577271	0.845753
H277	H	-0.413385	-0.210095	-0.000031
H278	H	-0.080052	0.123238	0.333302
H279	H	0.253281	0.456572	0.666636
Cl280	Cl	-0.673340	0.126301	-0.000116
Cl281	Cl	-0.340006	0.459634	0.333217
Cl282	Cl	-0.006673	0.792968	0.666551
Cl283	Cl	-0.667130	0.734637	-0.000065
Cl284	Cl	-0.333797	1.067970	0.333268
Cl285	Cl	-0.000464	1.401304	0.666602
H286	H	-0.321929	-0.208759	-0.000053
H287	H	0.011404	0.124574	0.333281
H288	H	0.344738	0.457907	0.666614
H289	H	-0.487936	0.682690	-0.000030
H290	H	-0.154603	1.016023	0.333304
H291	H	0.178730	1.349357	0.666637
Cl292	Cl	-0.469938	0.530561	-0.000039
Cl293	Cl	-0.136604	0.863894	0.333294
Cl294	Cl	0.196729	1.197227	0.666628
Cl295	Cl	-0.496399	-0.197298	-0.831092
Cl296	Cl	-0.163065	0.136035	-0.497759
Cl297	Cl	0.170268	0.469368	-0.164426
H298	H	-0.652316	0.270631	-0.000106
H299	H	-0.318982	0.603964	0.333227
H300	H	0.014351	0.937297	0.666561
H301	H	-0.493813	0.106598	-0.000072
H302	H	-0.160479	0.439932	0.333261
H303	H	0.172854	0.773265	0.666594
Cl304	Cl	0.166557	0.058004	-0.000122
Cl305	Cl	0.499890	0.391337	0.333212
Cl306	Cl	0.833223	0.724671	0.666545
H307	H	-0.510961	-0.176112	-0.186594
H308	H	-0.177628	0.157221	0.146739
H309	H	0.155705	0.490555	0.480073
Cl310	Cl	-0.645207	0.018513	-0.169062
Cl311	Cl	-0.311873	0.351847	0.164272
Cl312	Cl	0.021460	0.685180	0.497605
H313	H	-0.208740	0.088006	-0.000135
H314	H	0.124593	0.421339	0.333199
H315	H	0.457926	0.754672	0.666532
Cl316	Cl	-0.668809	0.570282	-0.000102
Cl317	Cl	-0.335476	0.903615	0.333231
Cl318	Cl	-0.002142	1.236949	0.666564
Cl319	Cl	-0.645237	0.018510	-0.831110
Cl320	Cl	-0.311903	0.351843	-0.497777
Cl321	Cl	0.021430	0.685176	-0.164444
H322	H	-0.630633	-0.002665	-0.669792
H323	H	-0.297300	0.330668	-0.336459
H324	H	0.036033	0.664001	-0.003126
Cl325	Cl	0.280337	0.059671	-0.000105
Cl326	Cl	0.613670	0.393004	0.333229
Cl327	Cl	0.947004	0.726337	0.666562
Cl328	Cl	-0.472793	0.250933	-0.000060
Cl329	Cl	-0.139460	0.584266	0.333273
Cl330	Cl	0.193874	0.917600	0.666606
H331	H	-0.630612	-0.002658	-0.330376
H332	H	-0.297278	0.330676	0.002957
H333	H	0.036055	0.664009	0.336291
Cl334	Cl	-0.184130	-0.298729	-0.000042
Cl335	Cl	0.149204	0.034604	0.333292
Cl336	Cl	0.482537	0.367937	0.666625
H337	H	-0.510995	-0.176126	-0.669777
H338	H	-0.177662	0.157207	-0.336443
H339	H	0.155672	0.490540	-0.003110
Cl340	Cl	-0.070354	-0.297060	-0.000049
Cl341	Cl	0.262979	0.036274	0.333285
Cl342	Cl	0.596312	0.369607	0.666618
Cl343	Cl	-0.496373	-0.197289	-0.347910
Cl344	Cl	-0.163040	0.136045	-0.014577
Cl345	Cl	0.170293	0.469378	0.318756
Cl346	Cl	-0.108733	0.117719	-0.000128
Cl347	Cl	0.224601	0.451052	0.333206
Cl348	Cl	0.557934	0.784385	0.666539
H349	H	0.201697	-0.201072	-0.000071
H350	H	0.535030	0.132261	0.333262
H351	H	0.868363	0.465594	0.666595
H352	H	-0.343292	0.022281	-0.000074
H353	H	-0.009958	0.355615	0.333259
H354	H	0.323375	0.688948	0.666593
Cl355	Cl	0.042522	0.119928	-0.000132
Cl356	Cl	0.375856	0.453262	0.333201
Cl357	Cl	0.709189	0.786595	0.666535
Cl358	Cl	-0.448537	0.048967	-0.000082
Cl359	Cl	-0.115204	0.382301	0.333251
Cl360	Cl	0.218129	0.715634	0.666585
H361	H	0.293166	-0.199722	-0.000077
H362	H	0.626500	0.133611	0.333256
H363	H	0.959833	0.466945	0.666589
H364	H	0.067131	-0.266794	-0.000070
H365	H	0.400465	0.066540	0.333264
H366	H	0.733798	0.399873	0.666597
Cl367	Cl	-0.032887	-0.296509	-0.000055
Cl368	Cl	0.300446	0.036824	0.333278
Cl369	Cl	0.633780	0.370157	0.666612
H370	H	-0.057484	0.090220	-0.000126
H371	H	0.275849	0.423553	0.333207
H372	H	0.609183	0.756887	0.666541
