data_functionalizedCrystal
_audit_creation_method	'MofGen! by Chris Wilmer'
_symmetry_space_group_name_H-M	'P1'
_symmetry_Int_Tables_number	1
_symmetry_cell_setting	triclinic
loop_
_symmetry_equiv_pos_as_xyz
  x,y,z
_cell_length_a	19.805399
_cell_length_b	21.295419
_cell_length_c	19.805404
_cell_angle_alpha	89.954090
_cell_angle_beta	89.970203
_cell_angle_gamma	90.019371
loop_
_atom_site_label
_atom_site_type_symbol
_atom_site_fract_x
_atom_site_fract_y
_atom_site_fract_z
Zn1	Zn	-0.382706	-0.962324	-0.269180
Zn2	Zn	-0.269513	-0.962239	-0.382368
Zn3	Zn	-0.269531	-0.857058	-0.269231
Zn4	Zn	-0.382660	-0.857019	-0.382365
O5	O	-0.326102	-0.909660	-0.325786
O6	O	-0.367702	-1.050402	-0.284174
O7	O	-0.174799	-0.948268	-0.367383
O8	O	-0.284570	-0.871074	-0.174508
O9	O	-0.284540	-1.050340	-0.367333
O10	O	-0.367719	-0.948412	-0.174470
O11	O	-0.174812	-0.870992	-0.284262
O12	O	-0.284526	-0.768963	-0.284259
O13	O	-0.477383	-0.871007	-0.367328
O14	O	-0.367642	-0.768934	-0.367378
O15	O	-0.477416	-0.948374	-0.284171
O16	O	-0.284496	-0.948230	-0.477084
O17	O	-0.367625	-0.870924	-0.477082
C18	C	-0.326081	-0.746108	-0.325824
C19	C	-0.326088	-0.676140	-0.325856
C20	C	-0.369457	-0.643328	-0.282627
C21	C	-0.369459	-0.577586	-0.282611
C22	C	-0.326099	-0.544658	-0.325836
C23	C	-0.282721	-0.577477	-0.369069
C24	C	-0.282716	-0.643219	-0.369079
N25	N	-0.320808	-0.441384	-0.385062
N26	N	-0.320817	-0.378932	-0.385050
C27	C	-0.326111	-0.346583	-0.325808
N28	N	-0.331408	-0.379044	-0.266576
N29	N	-0.331403	-0.441501	-0.266588
C30	C	-0.326099	-0.473372	-0.325830
C31	C	-0.369484	-0.242486	-0.282558
C32	C	-0.369481	-0.176742	-0.282541
C33	C	-0.282747	-0.176635	-0.369004
C34	C	-0.282746	-0.242377	-0.369015
C35	C	-0.326118	-0.275299	-0.325793
C36	C	-0.502645	-0.909695	-0.325743
C37	C	-0.577877	-0.909710	-0.325725
C38	C	-0.613240	-0.949996	-0.282423
C39	C	-0.683928	-0.950003	-0.282404
C40	C	-0.719253	-0.909726	-0.325690
C41	C	-0.683885	-0.869435	-0.368994
C42	C	-0.613198	-0.869426	-0.369009
C43	C	-0.968959	-0.869471	-0.368931
C44	C	-1.039651	-0.869485	-0.368913
C45	C	-1.039689	-0.950048	-0.282325
C46	C	-0.969002	-0.950038	-0.282341
C47	C	-0.933640	-0.909746	-0.325642
C48	C	-0.856992	-0.909738	-0.325661
C49	C	-0.795900	-0.909736	-0.325674
C50	C	-0.150246	-0.909661	-0.325780
C51	C	-0.075015	-0.909768	-0.325607
C52	C	-0.326068	-0.909581	-0.501642
C53	C	-0.326076	-0.909604	-0.576874
C54	C	-0.326121	-0.073850	-0.325757
C55	C	-0.326119	-0.143818	-0.325766
C56	C	-0.369493	-0.950016	-1.038586
C57	C	-0.369478	-0.949991	-0.967898
C58	C	-0.326144	-0.909744	-0.932636
C59	C	-0.282819	-0.869525	-0.968065
C60	C	-0.282831	-0.869553	-1.038753
C61	C	-0.282766	-0.869410	-0.682992
C62	C	-0.282758	-0.869383	-0.612300
C63	C	-0.369413	-0.949847	-0.612138
C64	C	-0.369425	-0.949875	-0.682825
C65	C	-0.326097	-0.909659	-0.718248
C66	C	-0.326114	-0.909687	-0.794897
C67	C	-0.326131	-0.909713	-0.855989
C68	C	-0.326152	-0.909757	-0.149243
C69	C	-0.326173	-0.909798	-0.074011
H70	H	-0.247417	-0.550663	-0.404262
N71	N	-1.077759	-0.826033	-0.415589
H72	H	-1.107084	-0.851598	-0.446945
H73	H	-1.044594	-0.800509	-0.442976
H74	H	-0.940244	-0.982838	-0.247095
N75	N	-0.575142	-0.993442	-0.235740
H76	H	-0.608273	-1.018963	-0.208305
H77	H	-0.545817	-0.967833	-0.204429
N78	N	-0.236104	-0.826179	-1.076964
H79	H	-0.208650	-0.800678	-1.043901
H80	H	-0.263629	-0.797044	-1.106315
H81	H	-0.404752	-0.982739	-0.939055
N82	N	-0.236078	-0.826122	-0.930030
H83	H	-0.263549	-0.796922	-0.900723
H84	H	-0.208642	-0.800691	-0.963240
H85	H	-0.712718	-0.982809	-0.247145
N86	N	-0.930843	-0.826009	-0.415640
H87	H	-0.901508	-0.851558	-0.447015
H88	H	-0.901561	-0.796849	-0.388103
N89	N	-0.721981	-0.825979	-0.415667
H90	H	-0.772128	-0.832094	-0.409084
H91	H	-0.709619	-0.835736	-0.464011
N92	N	-0.416236	-0.542185	-0.235984
H93	H	-0.443710	-0.573017	-0.208604
H94	H	-0.447507	-0.514898	-0.263578
H95	H	-0.404774	-0.670129	-0.247432
H96	H	-0.247399	-0.669934	-0.404282
H97	H	-0.404714	-0.982646	-0.711532
H98	H	-0.404690	-0.982596	-0.583288
H99	H	-0.247442	-0.149825	-0.404199
H100	H	-0.404796	-0.269292	-0.247360
N101	N	-1.077829	-0.993506	-0.235618
H102	H	-1.127969	-0.987401	-0.242172
H103	H	-1.065482	-0.983736	-0.187283
H104	H	-0.404796	-0.150028	-0.247334
H105	H	-0.247433	-0.269093	-0.404220
H106	H	-0.584407	-0.836615	-0.404263
H107	H	-0.404787	-0.982783	-1.067292
N108	N	-0.236017	-0.825974	-0.574265
H109	H	-0.208568	-0.800502	-0.607431
H110	H	-0.204720	-0.851609	-0.544922
H111	H	-0.247486	-0.836663	-0.711826
