data_functionalizedCrystal
_audit_creation_method	'MofGen! by Chris Wilmer'
_symmetry_space_group_name_H-M	'P1'
_symmetry_Int_Tables_number	1
_symmetry_cell_setting	triclinic
loop_
_symmetry_equiv_pos_as_xyz
  x,y,z
_cell_length_a	14.971486
_cell_length_b	14.044220
_cell_length_c	14.048226
_cell_angle_alpha	89.992807
_cell_angle_beta	89.998499
_cell_angle_gamma	88.401503
loop_
_atom_site_label
_atom_site_type_symbol
_atom_site_fract_x
_atom_site_fract_y
_atom_site_fract_z
O1	O	1.196679	0.123538	-0.079053
O2	O	1.696679	0.623538	0.420947
O3	O	0.937444	0.138332	-0.079079
O4	O	1.437444	0.638332	0.420921
O5	O	1.063171	-0.007054	-0.079057
O6	O	1.563171	0.492946	0.420943
O7	O	1.070953	0.268924	-0.079075
O8	O	1.570953	0.768924	0.420925
O9	O	1.063153	-0.007063	0.079264
O10	O	1.563153	0.492937	0.579264
O11	O	0.937427	0.138323	0.079242
O12	O	1.437427	0.638323	0.579242
O13	O	1.196662	0.123529	0.079268
O14	O	1.696662	0.623529	0.579268
Zn15	Zn	1.067042	0.130925	0.104392
Zn16	Zn	1.567042	0.630925	0.604392
Zn17	Zn	1.067064	0.130936	-0.104203
Zn18	Zn	1.567064	0.630936	0.395797
O19	O	1.070936	0.268915	0.079246
O20	O	1.570936	0.768915	0.579246
C21	C	0.904059	0.137666	0.000078
C22	C	1.404059	0.637666	0.500078
C23	C	0.804606	0.135683	0.000069
C24	C	1.304606	0.635683	0.500069
C25	C	0.754109	0.221093	0.000064
C26	C	1.254109	0.721093	0.500064
C27	C	0.660662	0.219225	0.000079
C28	C	1.160662	0.719225	0.500079
C29	C	0.617714	0.131945	0.000090
C30	C	1.117714	0.631945	0.500090
C31	C	0.668218	0.046528	0.000097
C32	C	1.168218	0.546528	0.500097
C33	C	0.761663	0.048398	0.000090
C34	C	1.261663	0.548398	0.500090
C35	C	0.473449	0.042638	0.000111
C36	C	0.973449	0.542638	0.500111
C37	C	0.379997	0.040767	0.000117
C38	C	0.879997	0.540767	0.500117
C39	C	0.372448	0.213465	0.000100
C40	C	0.872448	0.713465	0.500100
C41	C	0.465893	0.215334	0.000092
C42	C	0.965893	0.715334	0.500092
C43	C	0.516390	0.129917	0.000097
C44	C	1.016390	0.629917	0.500097
C45	C	1.059755	-0.042377	0.000104
C46	C	1.559755	0.457623	0.500104
C47	C	1.049594	-0.147614	0.000104
C48	C	1.549594	0.352386	0.500104
C49	C	1.031018	-0.340297	0.000088
C50	C	1.531018	0.159703	0.500088
C51	C	1.103085	-0.397848	0.000093
C52	C	1.603085	0.102152	0.500093
C53	C	1.092748	-0.505063	0.000084
C54	C	1.592748	-0.005063	0.500084
C55	C	1.041353	-0.233071	0.000097
C56	C	1.541353	0.266929	0.500097
C57	C	1.230047	0.124195	0.000109
C58	C	1.730047	0.624195	0.500109
C59	C	1.329501	0.126178	0.000112
C60	C	1.829501	0.626178	0.500112
C61	C	1.074351	0.304238	0.000083
C62	C	1.574351	0.804238	0.500083
C63	C	1.084512	0.409475	0.000077
C64	C	1.584512	0.909475	0.500077
N65	N	1.067033	0.130916	0.246753
N66	N	1.567033	0.630916	0.746753
N67	N	1.067080	0.130937	-0.246564
N68	N	1.567080	0.630937	0.253436
C69	C	1.122726	0.066566	0.296581
C70	C	1.622726	0.566566	0.796581
C71	C	1.122732	0.066566	0.396238
C72	C	1.622732	0.566566	0.896238
C73	C	1.067049	0.130921	0.446066
C74	C	1.567049	0.630921	0.946066
C75	C	1.011350	0.195274	0.396232
C76	C	1.511350	0.695274	0.896232
C77	C	1.011340	0.195269	0.296576
C78	C	1.511340	0.695269	0.796576
C79	C	1.011376	0.195281	0.603946
C80	C	1.511376	0.695281	1.103946
C81	C	1.011387	0.195287	0.703609
C82	C	1.511387	0.695287	1.203609
C83	C	1.122768	0.066577	0.703608
C84	C	1.622768	0.566577	1.203608
C85	C	1.122758	0.066573	0.603953
C86	C	1.622758	0.566573	1.103953
C87	C	1.067060	0.130927	0.554125
C88	C	1.567060	0.630927	1.054125
H89	H	0.633242	-0.024537	0.000121
H90	H	1.133242	0.475463	0.500121
C91	C	0.332757	-0.055245	0.000131
C92	C	0.832757	0.444755	0.500131
N93	N	0.297175	-0.127563	0.000142
N94	N	0.797175	0.372437	0.500142
H95	H	0.961562	-0.371545	0.000079
H96	H	1.461562	0.128455	0.500079
C97	C	1.183975	-0.004248	0.451044
C98	C	1.683975	0.495752	0.951044
N99	N	1.230097	-0.057596	0.492324
N100	N	1.730097	0.442404	0.992324
H101	H	0.802776	-0.021152	0.000093
H102	H	1.302776	0.478848	0.500093
C103	C	1.184033	-0.004217	0.758421
C104	C	1.684033	0.495783	1.258421
N105	N	1.230178	-0.057536	0.799710
N106	N	1.730178	0.442464	1.299710
H107	H	0.514561	-0.026919	0.000117
H108	H	1.014561	0.473081	0.500117
C109	C	0.950128	0.266075	0.758417
C110	C	1.450128	0.766075	1.258417
N111	N	0.903985	0.319393	0.799699
N112	N	1.403985	0.819393	1.299699
C113	C	0.605120	0.313183	0.000091
C114	C	1.105120	0.813183	0.500091
N115	N	0.563285	0.383957	0.000107
N116	N	1.063285	0.883957	0.500107
H117	H	0.789070	0.292167	0.000054
H118	H	1.289070	0.792167	0.500054
H119	H	0.500859	0.286405	0.000073
H120	H	1.000859	0.786405	0.500073
C121	C	1.196925	-0.355633	0.000116
C122	C	1.696925	0.144367	0.500116
N123	N	1.267602	-0.323832	0.000138
N124	N	1.767602	0.176168	0.500138
C125	C	1.183982	-0.004231	0.241779
C126	C	1.683982	0.495769	0.741779
N127	N	1.230119	-0.057561	0.200505
N128	N	1.730119	0.442439	0.700505
C129	C	0.950095	0.266065	0.549137
C130	C	1.450095	0.766065	1.049137
N131	N	0.903939	0.319379	0.507856
N132	N	1.403939	0.819379	1.007856
H133	H	1.168104	0.014175	0.563383
H134	H	1.668104	0.514175	1.063383
C135	C	0.950081	0.266067	0.241766
C136	C	1.450081	0.766067	0.741766
N137	N	0.903940	0.319395	0.200484
N138	N	1.403940	0.819395	0.700484
H139	H	0.331329	0.283015	0.000099
H140	H	0.831329	0.783015	0.500099
H141	H	0.966007	0.247670	0.436807
H142	H	1.466007	0.747670	0.936807
