data_functionalizedCrystal
_audit_creation_method	'MofGen! by Chris Wilmer'
_symmetry_space_group_name_H-M	'P1'
_symmetry_Int_Tables_number	1
_symmetry_cell_setting	triclinic
loop_
_symmetry_equiv_pos_as_xyz
  x,y,z
_cell_length_a	16.109318
_cell_length_b	10.489741
_cell_length_c	14.586319
_cell_angle_alpha	89.996488
_cell_angle_beta	90.000075
_cell_angle_gamma	84.003869
loop_
_atom_site_label
_atom_site_type_symbol
_atom_site_fract_x
_atom_site_fract_y
_atom_site_fract_z
O1	O	1.104133	0.164052	-0.076163
O2	O	1.604133	0.664052	0.423837
O3	O	0.862199	0.184432	-0.076182
O4	O	1.362199	0.684432	0.423818
O5	O	0.988671	-0.011435	-0.076167
O6	O	1.488671	0.488565	0.423833
O7	O	0.977661	0.359919	-0.076179
O8	O	1.477661	0.859919	0.423821
O9	O	0.988662	-0.011438	0.076314
O10	O	1.488662	0.488562	0.576314
O11	O	0.862190	0.184429	0.076299
O12	O	1.362190	0.684429	0.576299
O13	O	1.104124	0.164049	0.076317
O14	O	1.604124	0.664049	0.576317
Cu15	Cu	0.983156	0.174239	0.090231
Cu16	Cu	1.483156	0.674239	0.590231
Cu17	Cu	0.983167	0.174242	-0.090095
Cu18	Cu	1.483167	0.674242	0.409905
O19	O	0.977652	0.359916	0.076302
O20	O	1.477652	0.859916	0.576302
C21	C	0.831214	0.183601	0.000056
C22	C	1.331214	0.683601	0.500056
C23	C	0.738905	0.181115	0.000049
C24	C	1.238905	0.681115	0.500049
C25	C	0.439786	0.173085	-0.083052
C26	C	0.939786	0.673085	0.416948
C27	C	0.526522	0.175413	-0.083057
C28	C	1.026522	0.675413	0.416943
C29	C	0.526531	0.175392	0.083185
C30	C	1.026531	0.675392	0.583185
C31	C	0.439797	0.173055	0.083190
C32	C	0.939797	0.673055	0.583190
C33	C	0.396427	0.171908	0.000069
C34	C	0.896427	0.671908	0.500069
C35	C	0.569896	0.176573	0.000058
C36	C	1.069896	0.676573	0.500058
C37	C	0.663938	0.179097	0.000053
C38	C	1.163938	0.679097	0.500053
C39	C	0.302378	0.169382	0.000074
C40	C	0.802378	0.669382	0.500074
C41	C	0.987835	-0.058956	0.000073
C42	C	1.487835	0.441044	0.500073
C43	C	0.985347	-0.200550	0.000071
C44	C	1.485347	0.299450	0.500071
C45	C	0.904876	-0.267530	0.000058
C46	C	1.404876	0.232470	0.500058
C47	C	0.942886	-0.360202	0.075242
C48	C	1.442886	0.139798	0.575242
C49	C	0.942913	-0.360174	-0.075092
C50	C	1.442913	0.139826	0.424908
C51	C	1.023389	-0.291357	0.075317
C52	C	1.523389	0.208643	0.575317
C53	C	1.023406	-0.291319	-0.075085
C54	C	1.523406	0.208681	0.424915
C55	C	1.061474	-0.383964	0.000118
C56	C	1.561474	0.116036	0.500118
C57	C	1.135108	0.164880	0.000077
C58	C	1.635108	0.664880	0.500077
C59	C	1.227418	0.167367	0.000078
C60	C	1.727418	0.667367	0.500078
C61	C	0.978488	0.407438	0.000060
C62	C	1.478488	0.907438	0.500060
C63	C	0.980976	0.549031	0.000056
C64	C	1.480976	1.049031	0.500056
N65	N	0.983155	0.174236	0.217063
N66	N	1.483155	0.674236	0.717063
N67	N	0.983174	0.174236	-0.216927
N68	N	1.483174	0.674236	0.283073
C69	C	1.039176	0.087535	0.452076
C70	C	1.539176	0.587535	0.952076
C71	C	1.039178	0.087532	0.548057
C72	C	1.539178	0.587532	1.048057
C73	C	0.927148	0.260941	0.548053
C74	C	1.427148	0.760941	1.048053
C75	C	0.927142	0.260937	0.452073
C76	C	1.427142	0.760937	0.952073
C77	C	0.983161	0.174235	0.404087
C78	C	1.483161	0.674235	0.904087
C79	C	0.983169	0.174236	0.596048
C80	C	1.483169	0.674236	1.096048
C81	C	0.983171	0.174233	0.700115
C82	C	1.483171	0.674233	1.200115
C83	C	0.983158	0.174236	0.300014
C84	C	1.483158	0.674236	0.800014
H85	H	0.838714	-0.216925	0.000129
H86	H	1.338714	0.283075	0.500129
H87	H	0.881540	0.331533	0.587133
H88	H	1.381540	0.831533	1.087133
Br89	Br	0.380929	0.171525	-0.195858
Br90	Br	0.880929	0.671525	0.304142
Br91	Br	1.115199	-0.030133	0.386955
Br92	Br	1.615199	0.469867	0.886955
H93	H	1.084789	0.016931	0.587126
H94	H	1.584789	0.516931	1.087126
H95	H	0.881524	0.331539	0.412999
H96	H	1.381524	0.831539	0.912999
H97	H	0.404493	0.172096	0.150881
H98	H	0.904493	0.672096	0.650881
Br99	Br	0.585365	0.177000	-0.195869
Br100	Br	1.085365	0.677000	0.304131
H101	H	0.561853	0.176329	0.150860
H102	H	1.061853	0.676329	0.650860
H103	H	0.908833	-0.390724	0.138800
H104	H	1.408833	0.109276	0.638800
Br105	Br	1.080090	-0.240798	0.181376
Br106	Br	1.580090	0.259202	0.681376
Br107	Br	1.171846	-0.467936	0.000189
Br108	Br	1.671846	0.032064	0.500189
Br109	Br	1.080117	-0.240388	-0.181024
Br110	Br	1.580117	0.259612	0.318976
H111	H	0.908858	-0.390646	-0.138660
H112	H	1.408858	0.109354	0.361340
