data_functionalizedCrystal
_audit_creation_method	'MofGen! by Chris Wilmer'
_symmetry_space_group_name_H-M	'P1'
_symmetry_Int_Tables_number	1
_symmetry_cell_setting	triclinic
loop_
_symmetry_equiv_pos_as_xyz
  x,y,z
_cell_length_a	27.354012
_cell_length_b	27.353283
_cell_length_c	27.349551
_cell_angle_alpha	60.005606
_cell_angle_beta	60.011434
_cell_angle_gamma	59.993282
loop_
_atom_site_label
_atom_site_type_symbol
_atom_site_fract_x
_atom_site_fract_y
_atom_site_fract_z
O1	O	0.067635	-0.714267	0.597330
O2	O	0.025429	-0.556105	0.481282
O3	O	0.125575	-0.656186	0.481214
O4	O	-0.032512	-0.614186	0.597397
O5	O	0.158797	-0.622968	0.514367
O6	O	0.058650	-0.522887	0.514434
O7	O	0.100856	-0.681048	0.630482
Zn8	Zn	0.085028	-0.596693	0.577722
Zn9	Zn	0.041257	-0.640460	0.534042
O10	O	0.000709	-0.580967	0.630549
N11	N	0.114901	-0.566828	0.607534
N12	N	0.011389	-0.670331	0.504229
C13	C	0.179404	-0.338196	0.672015
C14	C	0.179501	-0.502386	0.836160
C15	C	0.179415	-0.502363	0.671996
C16	C	0.343611	-0.502373	0.671960
C17	C	0.197478	-0.392371	0.690061
C18	C	0.197534	-0.484321	0.781984
C19	C	0.289434	-0.484312	0.690032
C20	C	0.197486	-0.484308	0.690051
C21	C	0.156398	-0.269238	0.649045
C22	C	0.156418	-0.525342	0.649015
C23	C	0.220484	-0.461329	0.713032
C24	C	0.443889	-0.485097	0.619172
C25	C	0.506571	-0.505993	0.598266
C26	C	0.506589	-0.607412	0.636940
C27	C	0.443909	-0.586515	0.657848
C28	C	0.171510	-0.237888	0.587422
C29	C	0.150593	-0.175201	0.566543
C30	C	0.099458	-0.175218	0.668913
C31	C	0.120375	-0.237905	0.689792
C32	C	0.094789	-0.510201	0.664176
C33	C	0.073888	-0.531091	0.643278
C34	C	0.176239	-0.582263	0.592072
C35	C	0.197142	-0.561373	0.612963
C36	C	0.094933	-0.510244	0.936476
C37	C	0.074073	-0.531151	0.999161
C38	C	0.176453	-0.582335	0.999126
C39	C	0.197312	-0.561429	0.936439
C40	C	0.156551	-0.525382	0.905116
C41	C	0.412561	-0.525357	0.648961
C42	C	-0.098513	-0.688235	0.485867
C43	C	-0.006461	-0.688368	0.394066
C44	C	-0.006645	-0.780264	0.486040
C45	C	-0.006630	-0.688361	0.486097
C46	C	-0.029562	-0.711308	0.463018
N47	N	0.537030	-0.566846	0.607436
O48	O	0.741877	-0.576849	0.459995
O49	O	0.742050	-0.693241	0.618010
O50	O	0.741986	-0.692977	0.517791
O51	O	0.741941	-0.577114	0.560214
O52	O	0.642405	-0.659839	0.551046
O53	O	0.642469	-0.660104	0.651265
O54	O	0.642296	-0.543712	0.493251
Zn55	Zn	0.626572	-0.596646	0.577538
Zn56	Zn	0.757774	-0.640307	0.533723
O57	O	0.642360	-0.543976	0.593469
N58	N	0.847316	-0.670107	0.503818
N59	N	0.114877	-0.144758	0.607577
O60	O	-0.032498	0.060193	0.597441
O61	O	0.125523	0.060193	0.481067
O62	O	0.025289	0.060179	0.481345
O63	O	0.067736	0.060207	0.597163
O64	O	0.058511	-0.039410	0.514543
O65	O	0.158745	-0.039397	0.514265
O66	O	0.000724	-0.039396	0.630638
Zn67	Zn	0.085009	-0.055208	0.577722
Zn68	Zn	0.041238	0.076005	0.533983
O69	O	0.100958	-0.039382	0.630360
N70	N	0.011362	0.165555	0.504130
N71	N	0.115121	-0.566884	1.029592
O72	O	0.104990	-0.714248	1.234528
O73	O	-0.011371	-0.556177	1.234539
O74	O	-0.011103	-0.656395	1.234497
O75	O	0.104722	-0.614030	1.234569
O76	O	0.022090	-0.623190	1.134913
O77	O	0.021822	-0.522972	1.134954
O78	O	0.138182	-0.681044	1.134943
Zn79	Zn	0.085272	-0.596736	1.119137
Zn80	Zn	0.041539	-0.640484	1.250344
O81	O	0.137914	-0.580826	1.134984
N82	N	0.011689	-0.670343	1.339890
C83	C	0.038085	-0.519567	0.481870
C84	C	0.162104	-0.643505	0.481786
C85	C	0.088200	-0.717587	0.629893
C86	C	-0.035819	-0.593649	0.629977
C87	C	0.692280	-0.692701	0.654545
C88	C	0.692203	-0.692374	0.530435
C89	C	0.692063	-0.544251	0.456717
C90	C	0.692144	-0.544580	0.580825
C91	C	0.162000	0.010521	0.481600
C92	C	0.037914	0.010381	0.481984
C93	C	-0.035795	0.010399	0.630065
C94	C	0.088333	0.010415	0.629722
C95	C	-0.010799	-0.519660	1.184747
C96	C	-0.010461	-0.643761	1.184677
C97	C	0.137610	-0.717561	1.184734
C98	C	0.137280	-0.593452	1.184783
H99	H	0.023897	-0.518815	1.024687
C100	C	0.641008	-0.721137	0.504210
C101	C	0.692222	-0.741513	0.518186
H102	H	0.641019	-0.751476	0.496652
H103	H	0.640970	-0.686287	0.469614
H104	H	0.606301	-0.711840	0.536891
H105	H	0.726928	-0.750806	0.485503
H106	H	0.692265	-0.776373	0.552786
H107	H	-0.047330	-0.474261	1.184750
H108	H	0.692005	-0.507708	0.411338
C109	C	0.692174	-0.517018	0.651509
C110	C	0.692123	-0.495441	0.593076
H111	H	0.692157	-0.486680	0.659072
H112	H	0.726922	-0.551053	0.655945
H113	H	0.657469	-0.527945	0.679139
H114	H	0.726830	-0.484519	0.565445
H115	H	0.657371	-0.461395	0.588635
H116	H	0.207290	0.010797	0.444973
H117	H	0.028825	0.010378	0.445599
H118	H	0.173667	-0.584388	1.184797
C119	C	0.032527	-0.465903	0.382501
C120	C	0.025922	-0.458237	0.432662
H121	H	0.025021	-0.428040	0.352121
H122	H	0.004878	-0.483874	0.393416
H123	H	0.072164	-0.490987	0.367941
H124	H	-0.013716	-0.433156	0.447224
H125	H	0.053571	-0.440257	0.421747
C126	C	0.525836	-0.419436	0.514175
C127	C	0.541014	-0.461740	0.565515
H128	H	0.547103	-0.392119	0.493952
H129	H	0.484024	-0.398239	0.525358
H130	H	0.536097	-0.439262	0.488391
H131	H	0.530749	-0.441914	0.591301
H132	H	0.582835	-0.482939	0.554332
H133	H	0.097215	-0.763020	0.666340
H134	H	-0.081227	-0.584696	0.666460
H135	H	0.692323	-0.729239	0.699929
H136	H	-0.081177	0.010398	0.666600
C137	C	0.059884	0.061617	0.694909
C138	C	0.100601	0.010421	0.678841
H139	H	0.067462	0.061620	0.725230
H140	H	0.020245	0.061610	0.709544
H141	H	0.064339	0.096341	0.660850
H142	H	0.096143	-0.024304	0.712899
H143	H	0.140249	0.010422	0.664208
C144	C	-0.037985	-0.714405	1.184555
C145	C	-0.059563	-0.655968	1.184588
H146	H	-0.068299	-0.721939	1.184496
H147	H	-0.027113	-0.742036	1.219297
H148	H	-0.003914	-0.718868	1.149842
H149	H	-0.093632	-0.651507	1.219304
H150	H	-0.070444	-0.628329	1.149842
H151	H	0.174144	-0.762957	1.184724
H152	H	0.209648	-0.611676	1.024626
C153	C	0.014090	-0.501974	0.917205
C154	C	0.050125	-0.470620	0.902048
H155	H	-0.013570	-0.477514	0.895947
H156	H	-0.007147	-0.512254	0.959020
H157	H	0.038548	-0.537415	0.906917
H158	H	0.025667	-0.435181	0.912340
H159	H	0.071363	-0.460332	0.860223
C160	C	0.291006	-0.640416	0.917110
C161	C	0.265048	-0.578070	0.901972
H162	H	0.332823	-0.650688	0.895835
H163	H	0.273399	-0.654825	0.906835
H164	H	0.284408	-0.658017	0.958927
H165	H	0.271642	-0.560470	0.860155
H166	H	0.282661	-0.563655	0.912242
C167	C	-0.008483	-0.461706	0.712681
C168	C	0.050023	-0.470589	0.703797
H169	H	-0.036119	-0.437248	0.737140
H170	H	-0.014494	-0.499274	0.731818
H171	H	-0.014517	-0.442562	0.675111
H172	H	0.056058	-0.489738	0.741367
H173	H	0.056037	-0.433015	0.684661
H174	H	0.209407	-0.611608	0.562721
C175	C	-0.009029	-0.483084	0.607701
C176	C	0.006144	-0.514448	0.659941
H177	H	-0.050852	-0.472806	0.617990
H178	H	0.012228	-0.507530	0.583243
H179	H	0.001238	-0.447640	0.586447
H180	H	-0.004119	-0.549895	0.681193
H181	H	-0.015121	-0.490002	0.684408
C182	C	0.290788	-0.556737	0.533950
C183	C	0.264885	-0.578006	0.596296
H184	H	0.332610	-0.567007	0.523661
H185	H	0.273163	-0.514446	0.519556
H186	H	0.284168	-0.574342	0.516354
H187	H	0.271502	-0.560396	0.613892
H188	H	0.282517	-0.620304	0.610697
C189	C	0.450233	-0.688863	0.693968
C190	C	0.409475	-0.630772	0.690591
H191	H	0.428973	-0.716185	0.714179
H192	H	0.474693	-0.699348	0.715320
H193	H	0.474667	-0.690452	0.654692
H194	H	0.385043	-0.629181	0.729867
H195	H	0.385004	-0.620284	0.669240
C196	C	0.234119	-0.703707	0.418732
C197	C	0.223398	-0.655588	0.432530
H198	H	0.271962	-0.711168	0.388326
H199	H	0.203668	-0.694227	0.404980
H200	H	0.234008	-0.738362	0.453533
H201	H	0.223505	-0.620932	0.397730
H202	H	0.253858	-0.665065	0.446280
C203	C	0.373371	-0.396203	0.575558
C204	C	0.409430	-0.417869	0.609406
H205	H	0.352103	-0.354699	0.569524
H206	H	0.345742	-0.417185	0.596292
H207	H	0.397818	-0.402023	0.537896
H208	H	0.384983	-0.412053	0.647069
H209	H	0.437062	-0.396881	0.588672
C210	C	0.577115	-0.696301	0.680543
C211	C	0.541050	-0.674636	0.646702
H212	H	0.598394	-0.737802	0.686565
H213	H	0.552677	-0.690490	0.718204
H214	H	0.604742	-0.675308	0.659804
H215	H	0.513420	-0.695626	0.667444
H216	H	0.565491	-0.680453	0.609035
H217	H	0.162897	-0.149674	0.516363
C218	C	0.219942	-0.231571	0.484131
C219	C	0.211103	-0.272328	0.542631
H220	H	0.244383	-0.252836	0.456481
H221	H	0.239079	-0.207122	0.478106
H222	H	0.182358	-0.207121	0.478130
H223	H	0.248688	-0.296775	0.548634
H224	H	0.191968	-0.296787	0.548658
H225	H	0.070133	-0.149706	0.702094
H226	H	0.108067	-0.263426	0.739970
