data_functionalizedCrystal
_audit_creation_method	'MofGen! by Chris Wilmer'
_symmetry_space_group_name_H-M	'P1'
_symmetry_Int_Tables_number	1
_symmetry_cell_setting	triclinic
loop_
_symmetry_equiv_pos_as_xyz
  x,y,z
_cell_length_a	25.639242
_cell_length_b	25.639240
_cell_length_c	25.639243
_cell_angle_alpha	90.013927
_cell_angle_beta	90.014575
_cell_angle_gamma	90.027658
loop_
_atom_site_label
_atom_site_type_symbol
_atom_site_fract_x
_atom_site_fract_y
_atom_site_fract_z
Zn1	Zn	0.799210	-0.208347	0.295708
Zn2	Zn	0.799154	-0.295748	0.208261
Zn3	Zn	0.711797	-0.208321	0.208273
Zn4	Zn	0.711741	-0.295746	0.295652
O5	O	0.755476	-0.252040	0.251974
O6	O	0.872368	-0.219953	0.284126
O7	O	0.787566	-0.284140	0.135098
O8	O	0.723440	-0.135159	0.219900
O9	O	0.872326	-0.284166	0.219880
O10	O	0.787662	-0.135179	0.284138
O11	O	0.723385	-0.219908	0.135106
O12	O	0.638625	-0.219906	0.219845
O13	O	0.723344	-0.284163	0.368825
O14	O	0.638583	-0.284137	0.284042
O15	O	0.787607	-0.219951	0.368866
O16	O	0.787511	-0.368913	0.219826
O17	O	0.723289	-0.368911	0.284031
C18	C	0.619633	-0.252018	0.251939
C19	C	0.561519	-0.252022	0.251937
C20	C	0.310338	-0.218540	0.218604
C21	C	0.364943	-0.218535	0.218597
O22	O	0.393190	-0.190036	0.190227
N23	N	0.392245	-0.252028	0.251964
C24	C	0.364940	-0.285525	0.285343
O25	O	0.393177	-0.314012	0.313723
C26	C	0.310337	-0.285526	0.285351
C27	C	0.283037	-0.252035	0.251979
C28	C	0.283039	-0.185050	0.185235
C29	C	0.228438	-0.185056	0.185241
C30	C	0.201137	-0.218551	0.218616
C31	C	0.228437	-0.252040	0.251985
C32	C	0.283033	-0.319020	0.318733
C33	C	0.228426	-0.319018	0.318739
C34	C	0.201127	-0.285527	0.285367
C35	C	0.146535	-0.285541	0.285367
N36	N	0.119233	-0.252048	0.252000
C37	C	0.146534	-0.218553	0.218625
C38	C	0.479611	-0.285518	0.285322
C39	C	0.534213	-0.285519	0.285311
C40	C	0.534212	-0.218528	0.218566
C41	C	0.479609	-0.218530	0.218575
C42	C	0.452309	-0.252024	0.251956
C43	C	0.031869	-0.218567	0.218640
C44	C	-0.022737	-0.218578	0.218647
C45	C	-0.022730	-0.285566	0.285394
C46	C	0.031870	-0.285558	0.285385
C47	C	0.059169	-0.252055	0.252006
O48	O	0.118253	-0.314023	0.313724
O49	O	0.118291	-0.190065	0.190254
C50	C	0.755402	-0.387883	0.251933
C51	C	0.755418	-0.445997	0.251932
C52	C	0.788933	-0.806332	0.285483
C53	C	0.788948	-0.860936	0.285493
O54	O	0.817355	-0.889149	0.313977
N55	N	0.755548	-0.888280	0.252024
C56	C	0.722127	-0.861016	0.218546
O57	O	0.693719	-0.889287	0.190079
C58	C	0.722109	-0.806412	0.218538
C59	C	0.755515	-0.779072	0.252006
C60	C	0.822335	-0.778991	0.318948
C61	C	0.822320	-0.724391	0.318937
C62	C	0.788903	-0.697131	0.285460
C63	C	0.755500	-0.724471	0.251994
C64	C	0.688686	-0.779149	0.185063
C65	C	0.688671	-0.724542	0.185059
C66	C	0.722077	-0.697202	0.218526
C67	C	0.722068	-0.642611	0.218506
N68	N	0.755468	-0.615268	0.251975
C69	C	0.788885	-0.642528	0.285452
C70	C	0.722166	-0.975686	0.218565
C71	C	0.722186	-1.030289	0.218570
C72	C	0.789006	-1.030205	0.285518
C73	C	0.788989	-0.975602	0.285510
C74	C	0.755566	-0.948343	0.252034
C75	C	0.788852	-0.527862	0.285425
C76	C	0.788835	-0.473257	0.285409
C77	C	0.722013	-0.473345	0.218463
C78	C	0.722031	-0.527946	0.218477
C79	C	0.755452	-0.555203	0.251962
O80	O	0.693673	-0.614363	0.190039
O81	O	0.817284	-0.614249	0.313919
C82	C	0.891849	-0.252063	0.252008
C83	C	0.949963	-0.252073	0.252023
C84	C	0.755476	-0.252060	0.388346
C85	C	0.755476	-0.252068	0.446461
C86	C	0.755564	-0.115667	0.252026
C87	C	0.755602	-0.057553	0.252048
C88	C	0.788936	-0.218609	0.806851
C89	C	0.788936	-0.218606	0.861455
O90	O	0.817377	-0.190162	0.889715
N91	N	0.755479	-0.252038	0.888743
C92	C	0.722017	-0.285471	0.861424
O93	O	0.693559	-0.313907	0.889649
C94	C	0.722015	-0.285471	0.806821
C95	C	0.755478	-0.252041	0.779535
C96	C	0.822395	-0.185182	0.779565
C97	C	0.822396	-0.185185	0.724965
C98	C	0.788938	-0.218617	0.697649
C99	C	0.755478	-0.252045	0.724935
C100	C	0.688550	-0.318902	0.779503
C101	C	0.688551	-0.318898	0.724896
C102	C	0.722014	-0.285468	0.697610
C103	C	0.722020	-0.285481	0.643019
N104	N	0.755477	-0.252049	0.615731
C105	C	0.788936	-0.218617	0.643046
C106	C	0.722023	-0.285468	0.976095
C107	C	0.722027	-0.285471	1.030697
C108	C	0.788946	-0.218606	1.030724
C109	C	0.788944	-0.218606	0.976121
C110	C	0.755480	-0.252037	0.948807
C111	C	0.788935	-0.218628	0.528381
C112	C	0.788934	-0.218636	0.473776
C113	C	0.722014	-0.285500	0.473753
C114	C	0.722017	-0.285494	0.528354
C115	C	0.755479	-0.252054	0.555666
O116	O	0.693593	-0.313909	0.614725
O117	O	0.817384	-0.190181	0.614815
C118	C	0.755475	-0.252036	1.116131
C119	C	0.755484	-0.252037	1.058017
H120	H	0.556436	-0.312797	0.312480
H121	H	0.661483	-0.801401	0.157810
O122	O	0.821541	-1.056668	0.317986
C123	C	0.873658	-1.043285	0.306626
H124	H	0.876332	-1.028287	0.264859
H125	H	0.887295	-1.011572	0.334670
C126	C	0.905271	-1.110188	0.364053
C127	C	0.908556	-1.091770	0.312752
H128	H	0.926798	-1.140094	0.367834
H129	H	0.870159	-1.119203	0.371708
H130	H	0.916634	-1.083755	0.387418
H131	H	0.897187	-1.118200	0.289390
H132	H	0.943667	-1.082760	0.305094
H133	H	0.694775	-0.312721	0.451503
H134	H	0.816190	-0.953345	0.312763
O135	O	-0.049282	-0.318024	0.317870
C136	C	-0.080849	-0.288305	0.351684
H137	H	-0.064368	-0.247133	0.354987
H138	H	-0.122235	-0.286474	0.335522
C139	C	-0.101932	-0.364500	0.401935
C140	C	-0.081687	-0.313933	0.405995
H141	H	-0.102451	-0.380309	0.435436
H142	H	-0.080666	-0.384523	0.379153
H143	H	-0.136418	-0.362967	0.388464
H144	H	-0.047199	-0.315467	0.419459
H145	H	-0.102947	-0.293911	0.428781
H146	H	0.816040	-0.450998	0.312663
H147	H	0.206201	-0.346293	0.345924
O148	O	0.058311	-0.318110	0.317849
C149	C	0.022503	-0.347685	0.347296
H150	H	-0.016413	-0.326279	0.349147
H151	H	0.016678	-0.387364	0.328075
C152	C	0.091622	-0.381600	0.400655
C153	C	0.043826	-0.355307	0.402932
H154	H	0.104776	-0.386304	0.434973
H155	H	0.115748	-0.361676	0.380815
H156	H	0.086762	-0.414663	0.384635
H157	H	0.048689	-0.322242	0.418946
H158	H	0.019702	-0.375225	0.422776
H159	H	0.305251	-0.346293	0.345908
O160	O	0.689774	-0.949151	0.186013
C161	C	0.719558	-0.917567	0.152260
H162	H	0.759162	-0.909342	0.170742
H163	H	0.725345	-0.938626	0.113526
C164	C	0.642136	-0.875833	0.120046
C165	C	0.690776	-0.865727	0.142748
H166	H	0.624382	-0.843856	0.114177
H167	H	0.622070	-0.897113	0.142785
H168	H	0.646966	-0.893383	0.087770
H169	H	0.685946	-0.848183	0.175026
H170	H	0.710841	-0.844442	0.120015
O171	O	0.689690	-1.056763	0.186038
C172	C	0.660205	-1.020987	0.156481
H173	H	0.658370	-0.982057	0.177890
H174	H	0.679383	-1.015181	0.116792
C175	C	0.606823	-1.090151	0.122593
C176	C	0.604565	-1.042338	0.148890
H177	H	0.572502	-1.103322	0.117908
H178	H	0.626689	-1.114255	0.142504
H179	H	0.622807	-1.085306	0.089521
H180	H	0.588587	-1.047185	0.181963
H181	H	0.584695	-1.018236	0.128983
O182	O	0.656119	-0.351402	0.698303
C183	C	0.685867	-0.385186	0.666731
H184	H	0.725502	-0.366753	0.658566
H185	H	0.691585	-0.423932	0.687770
C186	C	0.608416	-0.417292	0.624881
C187	C	0.657095	-0.394650	0.614849
H188	H	0.590667	-0.423132	0.592879
H189	H	0.588374	-0.394532	0.646153
H190	H	0.613188	-0.449577	0.642415
H191	H	0.652321	-0.362362	0.597322
H192	H	0.677135	-0.417405	0.593573
H193	H	0.816063	-0.550049	0.312696
O194	O	0.854785	-0.697917	0.351499
C195	C	0.884288	-0.733696	0.381036
H196	H	0.862878	-0.772633	0.382824
H197	H	0.924014	-0.739481	0.361934
C198	C	0.918068	-0.664542	0.434494
C199	C	0.891770	-0.712364	0.436694
H200	H	0.922686	-0.651383	0.468825
H201	H	0.898193	-0.640437	0.414593
H202	H	0.951171	-0.669370	0.418573
H203	H	0.858666	-0.707534	0.452608
H204	H	0.911640	-0.736468	0.456598
H205	H	0.694807	-0.451141	0.191205
H206	H	0.305261	-0.157772	0.158057
O207	O	0.201856	-0.152510	0.152890
C208	C	0.170295	-0.118781	0.182712
H209	H	0.162126	-0.137275	0.222307
H210	H	0.191346	-0.080035	0.188513
C211	C	0.128453	-0.086582	0.105332
C212	C	0.118415	-0.109298	0.153962
H213	H	0.096452	-0.080730	0.087597
H214	H	0.149717	-0.109304	0.085240
H215	H	0.145996	-0.054296	0.110174
H216	H	0.100878	-0.141586	0.149119
H217	H	0.097147	-0.086581	0.174052
H218	H	0.661452	-0.702351	0.157799
O219	O	0.453151	-0.318036	0.317818
C220	C	0.466513	-0.306690	0.369948
H221	H	0.506166	-0.286587	0.371062
H222	H	0.435800	-0.279844	0.387619
C223	C	0.420333	-0.382406	0.400148
C224	C	0.469037	-0.357719	0.401517
H225	H	0.421887	-0.413883	0.419622
H226	H	0.411328	-0.390049	0.365027
H227	H	0.394743	-0.360030	0.414873
H228	H	0.494625	-0.380093	0.386786
H229	H	0.478046	-0.350081	0.436636
O230	O	0.655992	-0.351390	0.805918
C231	C	0.626471	-0.380899	0.770089
H232	H	0.624686	-0.359480	0.731172
H233	H	0.645587	-0.420614	0.764278
C234	C	0.573009	-0.414725	0.839172
C235	C	0.570812	-0.388416	0.791374
H236	H	0.538676	-0.419364	0.852302
H237	H	0.592898	-0.394846	0.863311
H238	H	0.588940	-0.447818	0.834322
H239	H	0.554886	-0.355321	0.796226
H240	H	0.550918	-0.408289	0.767236
H241	H	-0.044961	-0.191304	0.191470
O242	O	0.854825	-0.152646	0.806116
C243	C	0.825090	-0.118874	0.837712
H244	H	0.783909	-0.115639	0.821257
H245	H	0.823288	-0.135031	0.879094
C246	C	0.901249	-0.068499	0.858765
C247	C	0.850671	-0.064522	0.838551
H248	H	0.917030	-0.034973	0.859285
H249	H	0.921284	-0.091253	0.837480
H250	H	0.899741	-0.081965	0.893248
H251	H	0.852181	-0.051062	0.804067
H252	H	0.830638	-0.041764	0.859831
O253	O	0.854726	-0.805490	0.351524
C254	C	0.824953	-0.837098	0.385265
H255	H	0.783763	-0.820682	0.388450
H256	H	0.823185	-0.878490	0.369108
C257	C	0.901048	-0.858045	0.435730
C258	C	0.850459	-0.837881	0.439646
H259	H	0.916782	-0.858530	0.469274
H260	H	0.921108	-0.836752	0.412997
H261	H	0.899568	-0.892537	0.422264
H262	H	0.851940	-0.803387	0.453105
H263	H	0.830400	-0.859168	0.462382
O264	O	0.689505	-0.318002	0.949644
C265	C	0.659971	-0.347499	0.985444
H266	H	0.681389	-0.349303	1.024370
H267	H	0.620273	-0.328350	0.991246
C268	C	0.626099	-0.400932	0.916317
C269	C	0.652407	-0.403152	0.964126
H270	H	0.621431	-0.435261	0.903167
H271	H	0.645994	-0.381058	0.892198
H272	H	0.593020	-0.384972	0.921159
H273	H	0.685488	-0.419105	0.959283
H274	H	0.632517	-0.423029	0.988244
H275	H	0.694834	-0.550207	0.191221
H276	H	0.816186	-0.191413	0.451562
H277	H	0.816181	-0.191396	0.550613
O278	O	0.854914	-0.152658	0.698544
C279	C	0.884450	-0.123161	0.734372
H280	H	0.863032	-0.121355	0.773289
H281	H	0.924147	-0.142312	0.740185
C282	C	0.918323	-0.069732	0.665286
C283	C	0.892016	-0.067509	0.713083
H284	H	0.922993	-0.035404	0.652154
H285	H	0.898427	-0.089605	0.641148
H286	H	0.951402	-0.085693	0.670137
H287	H	0.858936	-0.051555	0.708231
H288	H	0.911907	-0.047632	0.737220
H289	H	0.054089	-0.191283	0.191462
O290	O	0.821393	-0.186139	1.057344
C291	C	0.814222	-0.193318	1.111388
H292	H	0.773863	-0.210442	1.118826
H293	H	0.845219	-0.221160	1.126889
C294	C	0.868602	-0.119384	1.130303
C295	C	0.819031	-0.140412	1.139437
H296	H	0.871572	-0.086750	1.147606
H297	H	0.873436	-0.114548	1.093892
H298	H	0.894428	-0.142591	1.143220
H299	H	0.793207	-0.117208	1.126514
H300	H	0.814194	-0.145242	1.175846
H301	H	0.457385	-0.191256	0.191402
O302	O	0.689602	-0.318008	1.057220
C303	C	0.719346	-0.351774	1.088814
H304	H	0.760525	-0.355006	1.072373
H305	H	0.721152	-0.335613	1.130203
C306	C	0.643196	-0.402157	1.109818
C307	C	0.693771	-0.406129	1.089622
H308	H	0.627419	-0.435685	1.110319
H309	H	0.623156	-0.379407	1.088535
H310	H	0.644707	-0.388687	1.144307
H311	H	0.692259	-0.419592	1.055132
H312	H	0.713810	-0.428882	1.110900
H313	H	0.816191	-0.191383	0.953909
H314	H	0.556450	-0.191254	0.191391
H315	H	0.694774	-0.312720	0.550571
