data_functionalizedCrystal
_audit_creation_method	'MofGen! by Chris Wilmer'
_symmetry_space_group_name_H-M	'P1'
_symmetry_Int_Tables_number	1
_symmetry_cell_setting	triclinic
loop_
_symmetry_equiv_pos_as_xyz
  x,y,z
_cell_length_a	30.700809
_cell_length_b	30.711276
_cell_length_c	30.700862
_cell_angle_alpha	59.998386
_cell_angle_beta	89.999414
_cell_angle_gamma	60.000191
loop_
_atom_site_label
_atom_site_type_symbol
_atom_site_fract_x
_atom_site_fract_y
_atom_site_fract_z
O1	O	-0.371254	-0.311651	0.012944
O2	O	-0.307913	-0.222487	-0.012907
O3	O	-0.307911	-0.311650	0.076286
O4	O	-0.371257	-0.222488	-0.076249
O5	O	-0.235466	-0.384070	0.076286
O6	O	-0.235468	-0.294907	-0.012907
O7	O	-0.298809	-0.384071	0.012944
Cu8	Cu	-0.260524	-0.346102	0.000018
Cu9	Cu	-0.346199	-0.260456	0.000019
O10	O	-0.298812	-0.294908	-0.076249
C11	C	-0.234796	-0.137097	-0.018777
C12	C	-0.261674	-0.083360	-0.015076
C13	C	-0.182374	-0.163176	-0.019143
C14	C	-0.234798	-0.215942	-0.018783
C15	C	-0.261678	-0.246507	-0.015089
C16	C	-0.182376	-0.241901	-0.019150
C17	C	-0.155920	-0.215947	-0.018777
C18	C	-0.098463	-0.246515	-0.015075
C19	C	-0.261132	-0.163172	-0.019150
C20	C	-0.574961	-0.535511	0.039265
C21	C	-0.548506	-0.588283	0.039634
C22	C	-0.496086	-0.535509	0.039262
C23	C	-0.469751	-0.588281	0.039632
C24	C	-0.496085	-0.614360	0.039265
C25	C	-0.548507	-0.509552	0.039632
C26	C	-0.765169	-0.393516	0.024987
C27	C	-0.819034	-0.364488	0.020950
C28	C	-0.846055	-0.389406	0.018925
C29	C	-0.904462	-0.357927	0.014538
C30	C	-0.819206	-0.443357	0.020941
C31	C	-0.765344	-0.472385	0.024984
C32	C	-0.738325	-0.447463	0.027007
C33	C	-0.447920	-0.790230	0.024988
C34	C	-0.423094	-0.840041	0.020951
C35	C	-0.371150	-0.865027	0.018921
C36	C	-0.344230	-0.919028	0.014536
C37	C	-0.344030	-0.840201	0.020935
C38	C	-0.368852	-0.790399	0.024981
C39	C	-0.420803	-0.765414	0.027004
C40	C	-0.447922	-0.393510	0.024977
C41	C	-0.423099	-0.364475	0.020931
C42	C	-0.371152	-0.389391	0.018903
C43	C	-0.344235	-0.357911	0.014513
C44	C	-0.344034	-0.443338	0.020916
C45	C	-0.368860	-0.472368	0.024960
C46	C	-0.420804	-0.447452	0.026995
C47	C	-0.679920	-0.478941	0.031387
C48	C	-0.633366	-0.504032	0.034880
C49	C	-0.469171	-0.504029	0.034875
C50	C	-0.447717	-0.478936	0.031380
C51	C	-0.469170	-0.668361	0.034880
C52	C	-0.447716	-0.711408	0.031386
C53	C	-0.496432	-0.071057	-0.503890
C54	C	-0.548853	-0.018285	-0.530226
C55	C	-0.496432	-0.071056	-0.425015
C56	C	-0.548854	-0.018284	-0.451470
C57	C	-0.575308	0.007793	-0.503892
C58	C	-0.470097	-0.097014	-0.451469
C59	C	-0.368666	-0.213054	-0.552051
C60	C	-0.343664	-0.242084	-0.576877
C61	C	-0.370616	-0.217167	-0.628824
C62	C	-0.343513	-0.248647	-0.655741
C63	C	-0.422570	-0.163216	-0.655945
C64	C	-0.447565	-0.134187	-0.631122
C65	C	-0.420611	-0.159108	-0.579173
C66	C	-0.765518	0.183662	-0.631659
C67	C	-0.819384	0.233473	-0.656662
C68	C	-0.846408	0.258459	-0.629712
C69	C	-0.904813	0.312461	-0.656813
C70	C	-0.819559	0.233635	-0.577758
C71	C	-0.765694	0.183833	-0.552761
C72	C	-0.738677	0.158847	-0.579717
C73	C	-0.368668	-0.213052	-0.234803
C74	C	-0.343669	-0.242086	-0.180935
C75	C	-0.370621	-0.217169	-0.153914
C76	C	-0.343519	-0.248648	-0.095506
C77	C	-0.422573	-0.163222	-0.180762
C78	C	-0.447570	-0.134193	-0.234627
C79	C	-0.420610	-0.159111	-0.261646
C80	C	-0.447720	-0.127629	-0.552258
C81	C	-0.469327	-0.102536	-0.530805
C82	C	-0.469328	-0.102535	-0.366609
C83	C	-0.447721	-0.127627	-0.320054
C84	C	-0.633714	0.061794	-0.530997
C85	C	-0.680269	0.104841	-0.552605
O86	O	0.076277	-0.384081	0.012960
O87	O	-0.076257	-0.294916	-0.012894
O88	O	0.012931	-0.384083	0.076300
O89	O	-0.012910	-0.294914	-0.076234
O90	O	0.012933	-0.311666	0.076306
O91	O	-0.076254	-0.222499	-0.012888
O92	O	0.076280	-0.311664	0.012966
Cu93	Cu	0.000013	-0.260469	0.000040
Cu94	Cu	0.000010	-0.346111	0.000033
O95	O	-0.012908	-0.222497	-0.076228
O96	O	-0.298805	0.063292	0.012964
O97	O	-0.235462	-0.063346	-0.012888
O98	O	-0.235465	-0.063353	0.076305
O99	O	-0.298803	0.063300	-0.076229
O100	O	-0.307912	-0.063350	0.076299
O101	O	-0.307909	-0.063342	-0.012895
O102	O	-0.371252	0.063295	0.012958
Cu103	Cu	-0.346196	-0.000023	0.000031
Cu104	Cu	-0.260519	-0.000027	0.000039
O105	O	-0.371250	0.063303	-0.076236
O106	O	-1.076607	0.456783	-0.692421
O107	O	-0.924074	0.330140	-0.629074
O108	O	-1.013262	0.330138	-0.629073
O109	O	-0.987418	0.456785	-0.692422
O110	O	-1.013261	0.330136	-0.701518
O111	O	-0.924072	0.330138	-0.701518
O112	O	-1.076605	0.456781	-0.764865
Cu113	Cu	-1.000338	0.393460	-0.739807
Cu114	Cu	-1.000340	0.393461	-0.654133
O115	O	-0.987417	0.456783	-0.764866
O116	O	-0.307911	-0.311650	-0.764507
O117	O	-0.371254	-0.222491	-0.701165
O118	O	-0.371252	-0.311652	-0.701162
O119	O	-0.307912	-0.222489	-0.764510
O120	O	-0.298806	-0.384074	-0.628716
O121	O	-0.298807	-0.294912	-0.628719
O122	O	-0.235464	-0.384072	-0.692061
Cu123	Cu	-0.260521	-0.346105	-0.653775
Cu124	Cu	-0.346197	-0.260458	-0.739451
O125	O	-0.235466	-0.294910	-0.692064
C126	C	-0.155920	-0.469469	0.234827
C127	C	-0.098464	-0.523208	0.261706
C128	C	-0.182375	-0.443392	0.261162
C129	C	-0.234797	-0.390619	0.155950
C130	C	-0.261676	-0.360052	0.098494
C131	C	-0.261132	-0.364662	0.182405
C132	C	-0.234797	-0.390620	0.234826
C133	C	-0.261675	-0.360052	0.261704
C134	C	-0.182375	-0.443391	0.182406
C135	C	0.018810	-0.390643	0.234846
C136	C	0.015111	-0.360079	0.261727
C137	C	0.019176	-0.443414	0.261179
C138	C	0.018812	-0.390637	0.155967
C139	C	0.015115	-0.360067	0.098511
C140	C	0.019178	-0.443408	0.182420
C141	C	0.018807	-0.469488	0.234841
C142	C	0.015106	-0.523226	0.261717
C143	C	0.019180	-0.364683	0.182425
C144	C	-0.234799	-0.215977	0.234834
C145	C	-0.261678	-0.246545	0.261708
C146	C	-0.182376	-0.241940	0.261172
C147	C	-0.234798	-0.137119	0.155964
C148	C	-0.261676	-0.083372	0.098509
C149	C	-0.182375	-0.163202	0.182421
C150	C	-0.155921	-0.215981	0.234841
C151	C	-0.098464	-0.246554	0.261721
C152	C	-0.261134	-0.163198	0.182415
C153	C	-0.039199	0.007461	-0.503869
C154	C	-0.039568	-0.018614	-0.530207
C155	C	-0.039203	-0.071390	-0.424995
C156	C	-0.039572	-0.097344	-0.451452
C157	C	-0.039201	-0.071385	-0.503874
C158	C	-0.039570	-0.018618	-0.451448
C159	C	-0.024912	0.183325	-0.552025
C160	C	-0.020873	0.233135	-0.576849
C161	C	-0.018844	0.258123	-0.628796
C162	C	-0.014454	0.312124	-0.655711
C163	C	-0.020859	0.233301	-0.655918
C164	C	-0.024906	0.183500	-0.631097
C165	C	-0.026932	0.158512	-0.579148
C166	C	-0.024920	-0.133799	-0.631644
C167	C	-0.020882	-0.162650	-0.656647
C168	C	-0.018855	-0.216605	-0.629699
C169	C	-0.014470	-0.247897	-0.656801
C170	C	-0.020872	-0.241704	-0.577746
C171	C	-0.024919	-0.212847	-0.552747
C172	C	-0.026939	-0.158893	-0.579702
C173	C	-0.024929	-0.133823	-0.234783
C174	C	-0.020887	-0.162684	-0.180915
C175	C	-0.018862	-0.216639	-0.153896
C176	C	-0.014477	-0.247936	-0.095488
C177	C	-0.020875	-0.241733	-0.180745
C178	C	-0.024915	-0.212872	-0.234610
C179	C	-0.026947	-0.158912	-0.261627
C180	C	-0.031316	0.104507	-0.552235
C181	C	-0.034811	0.061462	-0.530782
C182	C	-0.034820	-0.102682	-0.366590
C183	C	-0.031328	-0.127624	-0.320035
C184	C	-0.034816	-0.102672	-0.530980
C185	C	-0.031322	-0.127610	-0.552588
O186	O	-0.012940	-0.294936	0.371303
O187	O	0.012923	-0.384099	0.307961
O188	O	-0.076273	-0.294935	0.307950
O189	O	0.076257	-0.384100	0.371315
O190	O	-0.076265	-0.222515	0.235508
O191	O	0.012932	-0.311679	0.235520
O192	O	-0.012931	-0.222517	0.298862
Cu193	Cu	0.000001	-0.260485	0.260576
Cu194	Cu	-0.000009	-0.346130	0.346247
O195	O	0.076266	-0.311681	0.298873
C196	C	-0.574962	0.464558	-0.503864
C197	C	-0.548506	0.490518	-0.530195
C198	C	-0.496085	0.385697	-0.424987
C199	C	-0.469749	0.411776	-0.451438
C200	C	-0.496084	0.464555	-0.503857
C201	C	-0.548507	0.411779	-0.451444
C202	C	-0.765173	0.526994	-0.552039
C203	C	-0.819039	0.555852	-0.576867
C204	C	-0.846061	0.609814	-0.628812
C205	C	-0.904469	0.641114	-0.655732
C206	C	-0.819211	0.634913	-0.655928
C207	C	-0.765348	0.606050	-0.631102
C208	C	-0.738329	0.552088	-0.579155
C209	C	-0.447916	0.606561	-0.631604
C210	C	-0.423088	0.635592	-0.656601
C211	C	-0.371143	0.610674	-0.629648
C212	C	-0.344222	0.642150	-0.656742
C213	C	-0.344023	0.556716	-0.577696
C214	C	-0.368845	0.527681	-0.552704
C215	C	-0.420798	0.552613	-0.579664
C216	C	-0.447920	0.209802	-0.234786
C217	C	-0.423096	0.159988	-0.180919
C218	C	-0.371148	0.134996	-0.153895
C219	C	-0.344230	0.080987	-0.095489
C220	C	-0.344029	0.159823	-0.180737
C221	C	-0.368856	0.209637	-0.234602
C222	C	-0.420801	0.234620	-0.261624
C223	C	-0.679923	0.520797	-0.552238
C224	C	-0.633367	0.495853	-0.530781
C225	C	-0.469169	0.331687	-0.366583
C226	C	-0.447714	0.288634	-0.320030
C227	C	-0.469167	0.496035	-0.530956
C228	C	-0.447712	0.521128	-0.552558
H229	H	-0.426680	-0.610102	0.040221
C230	C	-0.499568	-0.259555	-0.025792
C231	C	-0.452908	-0.305177	0.018715
H232	H	-0.517972	-0.222950	-0.027155
H233	H	-0.490599	-0.251488	-0.057314
H234	H	-0.521783	-0.273286	-0.023086
H235	H	-0.430692	-0.291448	0.016008
H236	H	-0.461876	-0.313244	0.050245
H237	H	-0.161141	-0.284407	0.304244
H238	H	-0.161139	-0.284365	-0.019743
C239	C	-0.181999	-0.073178	-0.065870
C240	C	-0.153691	-0.133707	-0.019998
H241	H	-0.164290	-0.054983	-0.066413
H242	H	-0.183846	-0.073423	-0.096622
H243	H	-0.217057	-0.050075	-0.065680
H244	H	-0.118634	-0.156811	-0.020191
H245	H	-0.151838	-0.133465	0.010762
C246	C	-0.351553	-0.116177	0.182024
C247	C	-0.319279	-0.133722	0.153733
H248	H	-0.387448	-0.097975	0.164313
H249	H	-0.339593	-0.151406	0.217086
H250	H	-0.349511	-0.087240	0.183853
H251	H	-0.321318	-0.162662	0.151908
H252	H	-0.331242	-0.098489	0.118662
H253	H	-0.743487	-0.516312	0.026628
C254	C	-0.351546	-0.073167	-0.065809
C255	C	-0.319280	-0.133710	-0.019960
H256	H	-0.387443	-0.054983	-0.066311
H257	H	-0.339584	-0.050075	-0.065631
H258	H	-0.349501	-0.073386	-0.096581
H259	H	-0.321322	-0.133491	0.010812
H260	H	-0.331245	-0.156808	-0.020133
C261	C	0.029141	-0.178038	-0.108388
C262	C	-0.018674	-0.135099	-0.151406
H263	H	0.030505	-0.161004	-0.090174
H264	H	0.030924	-0.214296	-0.084590
H265	H	0.058421	-0.187928	-0.121227
H266	H	-0.047954	-0.125213	-0.138566
H267	H	-0.020462	-0.098831	-0.175208
C268	C	-0.891932	0.741992	-0.712979
C269	C	-0.848910	0.694229	-0.713021
H270	H	-0.910263	0.778614	-0.748226
H271	H	-0.915628	0.731178	-0.700391
H272	H	-0.879079	0.748583	-0.690297
H273	H	-0.861763	0.687636	-0.735700
H274	H	-0.825210	0.705046	-0.725616
H275	H	-0.026568	-0.089866	-0.653596
H276	H	-0.743175	-0.373219	0.026636
C277	C	-0.040643	-0.172038	-0.371097
C278	C	-0.040395	-0.154654	-0.422792
H279	H	-0.041160	-0.207411	-0.353409
H280	H	-0.009533	-0.181264	-0.351903
H281	H	-0.071410	-0.139230	-0.372921
H282	H	-0.009626	-0.187460	-0.420968
H283	H	-0.071508	-0.145431	-0.441991
H284	H	-0.445183	0.139782	-0.159066
H285	H	-0.304201	-0.322192	0.161160
H286	H	-0.161128	-0.465208	0.161163
H287	H	-0.346761	0.483749	-0.510407
C288	C	-0.040535	0.062722	-0.605958
C289	C	-0.040321	0.010819	-0.588337
H290	H	-0.040984	0.080879	-0.641838
H291	H	-0.071319	0.091691	-0.603963
H292	H	-0.009441	0.050792	-0.584027
H293	H	-0.071417	0.022750	-0.610265
H294	H	-0.009534	-0.018155	-0.590336
C295	C	-0.549258	0.028746	-0.408093
C296	C	-0.577539	0.011188	-0.422810
H297	H	-0.566972	0.046946	-0.390406
H298	H	-0.514195	-0.006477	-0.384812
H299	H	-0.547434	0.057687	-0.439083
H300	H	-0.579359	-0.017757	-0.391819
H301	H	-0.612611	0.046416	-0.446091
H302	H	0.019779	-0.465234	0.161179
C303	C	-0.393976	0.416368	-0.457077
C304	C	-0.411603	0.382310	-0.422767
H305	H	-0.358082	0.398179	-0.439377
H306	H	-0.396012	0.416582	-0.488062
H307	H	-0.415876	0.457438	-0.467055
H308	H	-0.389705	0.341240	-0.412792
H309	H	-0.409563	0.382089	-0.391772
H310	H	-0.019230	0.253339	-0.554762
H311	H	-0.040120	0.003178	-0.430195
C312	C	-0.628864	-0.583710	0.040699
C313	C	-0.577169	-0.617761	0.040454
H314	H	-0.646556	-0.601911	0.041208
H315	H	-0.627043	-0.583485	0.071464
H316	H	-0.648056	-0.542642	0.009586
H317	H	-0.557976	-0.658827	0.071570
H318	H	-0.578988	-0.617992	0.009687
C319	C	-0.025404	-0.430209	0.322303
C320	C	0.019967	-0.472882	0.319321
H321	H	-0.024918	-0.448403	0.358195
H322	H	-0.025565	-0.394992	0.310349
H323	H	-0.056500	-0.418298	0.300393
H324	H	0.051063	-0.484789	0.341228
H325	H	0.020132	-0.508109	0.331282
C326	C	-0.108042	-0.473153	0.322307
C327	C	-0.153716	-0.472846	0.319308
H328	H	-0.090357	-0.491331	0.358203
H329	H	-0.084765	-0.496258	0.310354
H330	H	-0.118033	-0.432077	0.300404
H331	H	-0.143725	-0.513923	0.341209
H332	H	-0.176998	-0.449742	0.331268
H333	H	-0.743523	0.163324	-0.653612
C334	C	-0.848340	0.215681	-0.501479
C335	C	-0.849257	0.261099	-0.548133
H336	H	-0.866672	0.232636	-0.483188
H337	H	-0.865307	0.201138	-0.510444
H338	H	-0.812415	0.182470	-0.479162
H339	H	-0.885182	0.294308	-0.570452
H340	H	-0.832291	0.275651	-0.539169
H341	H	0.019773	-0.322218	0.161189
C342	C	-0.770928	0.687098	-0.711739
C343	C	-0.735838	0.633639	-0.660905
H344	H	-0.752710	0.704132	-0.730136
H345	H	-0.783757	0.677206	-0.731127
H346	H	-0.800111	0.716216	-0.708429
H347	H	-0.706657	0.604519	-0.664215
H348	H	-0.723002	0.643529	-0.641513
C349	C	-0.181988	-0.073203	0.139057
C350	C	-0.153698	-0.133741	0.153762
H351	H	-0.164280	-0.055019	0.121370
H352	H	-0.217051	-0.050105	0.115779
H353	H	-0.183809	-0.073430	0.170052
H354	H	-0.151880	-0.133513	0.122767
H355	H	-0.118625	-0.156845	0.177041
C356	C	-0.499548	0.740518	-0.714803
C357	C	-0.452899	0.694907	-0.713696
H358	H	-0.517949	0.777140	-0.750050
H359	H	-0.521766	0.726797	-0.703785
H360	H	-0.490562	0.748557	-0.691330
H361	H	-0.461885	0.686865	-0.737166
H362	H	-0.430677	0.708631	-0.724720
H363	H	-0.569749	-0.467085	0.040220
C364	C	-0.024530	-0.058587	-0.229539
C365	C	-0.027156	-0.074515	-0.264480
H366	H	-0.025901	-0.021976	-0.247874
H367	H	-0.053811	-0.051976	-0.216702
H368	H	0.007910	-0.091005	-0.200349
H369	H	-0.059598	-0.042098	-0.293668
H370	H	0.002127	-0.081122	-0.277325
H371	H	-0.743837	0.163627	-0.510462
C372	C	-0.523576	-0.795084	0.024607
C373	C	-0.505018	-0.762775	0.027222
H374	H	-0.558824	-0.778134	0.025989
H375	H	-0.523594	-0.791836	-0.007828
H376	H	-0.500900	-0.837194	0.053893
H377	H	-0.527692	-0.720666	-0.002066
H378	H	-0.505004	-0.766017	0.059661
C379	C	-0.024529	0.188171	-0.476365
C380	C	-0.027146	0.155865	-0.494926
H381	H	-0.025910	0.171218	-0.441116
H382	H	0.007907	0.184923	-0.476347
H383	H	-0.053813	0.230281	-0.499041
H384	H	0.002141	0.113756	-0.472253
H385	H	-0.059585	0.159108	-0.494940
C386	C	-0.538426	0.648438	-0.632557
C387	C	-0.505016	0.633961	-0.661240
H388	H	-0.573677	0.665355	-0.650854
H389	H	-0.525831	0.612155	-0.598048
H390	H	-0.538434	0.677631	-0.629325
H391	H	-0.505005	0.604764	-0.664469
H392	H	-0.517615	0.670249	-0.695759
C393	C	-0.014643	0.309716	-0.729073
C394	C	-0.018624	0.260763	-0.713013
H395	H	-0.013258	0.326664	-0.764321
H396	H	-0.044842	0.340521	-0.728247
H397	H	0.016877	0.295157	-0.705548
H398	H	-0.050146	0.275323	-0.736537
H399	H	0.011579	0.229952	-0.713844
C400	C	-0.024482	0.188662	-0.711742
C401	C	-0.027118	0.156216	-0.660907
H402	H	-0.025843	0.171813	-0.730143
H403	H	-0.053764	0.230759	-0.731124
H404	H	0.007956	0.185408	-0.708434
H405	H	-0.059558	0.159474	-0.664215
H406	H	0.002167	0.114108	-0.641520
H407	H	-0.490220	-0.373215	0.026628
C408	C	-0.813457	-0.289439	0.021351
C409	C	-0.848545	-0.305184	0.018725
H410	H	-0.831678	-0.252824	0.019973
H411	H	-0.784279	-0.321906	0.053787
H412	H	-0.800624	-0.282898	-0.007934
H413	H	-0.861375	-0.311729	0.048012
H414	H	-0.877733	-0.272709	-0.013715
C415	C	-0.543198	-0.022829	-0.606024
C416	C	-0.577510	0.011213	-0.588387
H417	H	-0.560887	-0.004610	-0.641932
H418	H	-0.512201	-0.023072	-0.603952
H419	H	-0.533244	-0.063892	-0.584152
H420	H	-0.587462	0.052275	-0.610257
H421	H	-0.608517	0.011462	-0.590463
C422	C	-0.021271	-0.081629	-0.732118
C423	C	-0.018649	-0.135073	-0.713745
H424	H	-0.019885	-0.064609	-0.767365
H425	H	-0.053709	-0.052499	-0.732082
H426	H	0.008011	-0.091538	-0.709370
H427	H	-0.047932	-0.125164	-0.736491
H428	H	0.013793	-0.164209	-0.713784
C429	C	-0.334190	-0.767892	0.074997
C430	C	-0.339050	-0.763103	0.027186
H431	H	-0.315791	-0.751039	0.076355
H432	H	-0.368676	-0.745889	0.076781
H433	H	-0.314797	-0.809997	0.104281
H434	H	-0.358447	-0.720997	-0.002098
H435	H	-0.304558	-0.785104	0.025397
C436	C	-0.901855	-0.433873	0.014740
C437	C	-0.848907	-0.470745	0.018715
H438	H	-0.920190	-0.450782	0.013362
H439	H	-0.902469	-0.432428	0.044938
H440	H	-0.918818	-0.393404	-0.016783
H441	H	-0.831943	-0.511213	0.050240
H442	H	-0.848291	-0.472196	-0.011486
C443	C	-0.270316	-0.321602	-0.098439
C444	C	-0.286564	-0.301382	-0.151425
H445	H	-0.235062	-0.358210	-0.080222
H446	H	-0.271091	-0.290647	-0.097755
H447	H	-0.293773	-0.329671	-0.081404
H448	H	-0.263109	-0.293309	-0.168461
H449	H	-0.285786	-0.332345	-0.152112
H450	H	-0.019230	-0.285631	-0.555806
H451	H	-0.026564	-0.233284	-0.510448
C452	C	-0.334266	-0.197383	-0.495013
C453	C	-0.339017	-0.240441	-0.494960
H454	H	-0.315962	-0.214288	-0.459768
H455	H	-0.314829	-0.187553	-0.517698
H456	H	-0.368787	-0.161111	-0.507599
H457	H	-0.304496	-0.276712	-0.482377
H458	H	-0.358454	-0.250280	-0.472266
C459	C	-0.024496	-0.293907	-0.229032
C460	C	-0.027126	-0.240456	-0.264120
H461	H	-0.025861	-0.310936	-0.247251
H462	H	0.007936	-0.323028	-0.199849
H463	H	-0.053784	-0.284004	-0.216205
H464	H	0.002165	-0.250360	-0.276944
H465	H	-0.059562	-0.211329	-0.293313
C466	C	-0.504724	-0.027034	-0.307156
C467	C	-0.504670	-0.074890	-0.264139
H468	H	-0.539976	0.009577	-0.325376
H469	H	-0.481989	-0.020496	-0.294318
H470	H	-0.492252	-0.037726	-0.330953
H471	H	-0.517139	-0.064199	-0.240339
H472	H	-0.527413	-0.081428	-0.276977
H473	H	-0.569746	0.532985	-0.573266
H474	H	-0.445180	-0.860248	0.019309
C475	C	-0.014700	-0.321064	-0.098104
C476	C	-0.018663	-0.301033	-0.151051
H477	H	-0.013340	-0.357668	-0.079777
H478	H	0.016823	-0.329080	-0.081132
H479	H	-0.044899	-0.290031	-0.097497
H480	H	0.011538	-0.332064	-0.151658
H481	H	-0.050189	-0.293020	-0.168028
C482	C	-0.419293	-0.172693	-0.098116
C483	C	-0.452202	-0.135827	-0.151064
H484	H	-0.437585	-0.155777	-0.079785
H485	H	-0.410334	-0.213158	-0.081149
H486	H	-0.387646	-0.174138	-0.097507
H487	H	-0.483848	-0.134386	-0.151674
H488	H	-0.461169	-0.095351	-0.168036
C489	C	-0.628878	0.416379	-0.457079
C490	C	-0.577179	0.382316	-0.422774
H491	H	-0.646576	0.398187	-0.439378
H492	H	-0.648057	0.457442	-0.467051
H493	H	-0.627062	0.416600	-0.488071
H494	H	-0.578995	0.382099	-0.391783
H495	H	-0.557995	0.341242	-0.412795
C496	C	-0.523586	0.204968	-0.229552
C497	C	-0.505022	0.237270	-0.264487
H498	H	-0.558840	0.221932	-0.247889
H499	H	-0.500922	0.162865	-0.216719
H500	H	-0.523595	0.208209	-0.200358
H501	H	-0.505010	0.234025	-0.293678
H502	H	-0.527692	0.279384	-0.277327
C503	C	-0.270868	-0.916619	0.014731
C504	C	-0.286931	-0.867663	0.018707
H505	H	-0.235619	-0.933569	0.013351
H506	H	-0.271698	-0.947422	0.044931
H507	H	-0.294389	-0.902063	-0.016790
H508	H	-0.263412	-0.882220	0.050231
H509	H	-0.286097	-0.836854	-0.011495
C510	C	-0.288211	-0.547413	0.024553
C511	C	-0.339048	-0.531670	0.027183
H512	H	-0.269805	-0.584027	0.025929
H513	H	-0.291513	-0.514944	-0.007883
H514	H	-0.268834	-0.553955	0.053838
H515	H	-0.358427	-0.525124	-0.002104
H516	H	-0.335749	-0.564147	0.059623
C517	C	-0.270860	-0.433871	0.014729
C518	C	-0.286929	-0.470736	0.018698
H519	H	-0.235606	-0.450790	0.013365
H520	H	-0.294369	-0.393407	-0.016792
H521	H	-0.271701	-0.432423	0.044930
H522	H	-0.286093	-0.472181	-0.011505
H523	H	-0.263414	-0.511211	0.050223
C524	C	-0.394320	-0.171725	-0.457098
C525	C	-0.411951	-0.154337	-0.422794
H526	H	-0.358424	-0.207109	-0.439396
H527	H	-0.416214	-0.180932	-0.467071
H528	H	-0.396357	-0.138926	-0.488090
H529	H	-0.409918	-0.187135	-0.391804
H530	H	-0.390051	-0.145133	-0.412814
C531	C	-0.288155	-0.293915	-0.229567
C532	C	-0.339032	-0.240436	-0.264504
H533	H	-0.269862	-0.310818	-0.247906
H534	H	-0.268710	-0.284088	-0.216723
H535	H	-0.291390	-0.323115	-0.200381
H536	H	-0.335797	-0.211235	-0.293688
H537	H	-0.358481	-0.250262	-0.277356
C538	C	-0.288205	0.204466	-0.229015
C539	C	-0.339044	0.236921	-0.264107
H540	H	-0.269800	0.221308	-0.247233
H541	H	-0.291506	0.207713	-0.199833
H542	H	-0.268829	0.162365	-0.216189
H543	H	-0.358422	0.279022	-0.276930
H544	H	-0.335746	0.233680	-0.293299
H545	H	-0.301364	-0.286010	-0.554791
C546	C	-0.770412	0.451737	-0.476389
C547	C	-0.735475	0.467675	-0.494943
H548	H	-0.752074	0.415115	-0.441142
H549	H	-0.799597	0.484141	-0.476368
H550	H	-0.783251	0.445137	-0.499070
H551	H	-0.722638	0.474279	-0.472264
H552	H	-0.706279	0.435263	-0.494960
H553	H	-0.444508	-0.142931	-0.698242
C554	C	-0.891567	0.571215	-0.542202
C555	C	-0.848552	0.528271	-0.547061
H556	H	-0.909788	0.554188	-0.523803
H557	H	-0.878727	0.581100	-0.522816
H558	H	-0.915363	0.607478	-0.576695
H559	H	-0.824755	0.492010	-0.512568
H560	H	-0.861392	0.518378	-0.566447
C561	C	-0.270859	0.566195	-0.580970
C562	C	-0.286923	0.529320	-0.548066
H563	H	-0.235609	0.549284	-0.562675
H564	H	-0.271691	0.567647	-0.612617
H565	H	-0.294379	0.606662	-0.589926
H566	H	-0.263405	0.488854	-0.539114
H567	H	-0.286087	0.527861	-0.516410
C568	C	-0.286953	0.137128	-0.108001
C569	C	-0.286926	0.132355	-0.151036
H570	H	-0.251701	0.120169	-0.089664
H571	H	-0.309619	0.179233	-0.120839
H572	H	-0.299550	0.115211	-0.084308
H573	H	-0.274333	0.154277	-0.174730
H574	H	-0.264252	0.090243	-0.138198
C575	C	-0.505793	-0.029264	-0.707590
C576	C	-0.504667	-0.074886	-0.660932
H577	H	-0.541047	0.007344	-0.725993
H578	H	-0.482339	-0.021202	-0.698617
H579	H	-0.494765	-0.042991	-0.729806
H580	H	-0.515692	-0.061161	-0.638713
H581	H	-0.528129	-0.082948	-0.669904
C582	C	-0.813807	0.228295	-0.732135
C583	C	-0.848896	0.260748	-0.713760
H584	H	-0.832029	0.245130	-0.767384
H585	H	-0.784631	0.231556	-0.732098
H586	H	-0.800971	0.186191	-0.709390
H587	H	-0.861729	0.302851	-0.736504
H588	H	-0.878081	0.257493	-0.713802
