data_functionalizedCrystal
_audit_creation_method	'MofGen! by Chris Wilmer'
_symmetry_space_group_name_H-M	'P1'
_symmetry_Int_Tables_number	1
_symmetry_cell_setting	triclinic
loop_
_symmetry_equiv_pos_as_xyz
  x,y,z
_cell_length_a	8.559649
_cell_length_b	8.559649
_cell_length_c	7.088929
_cell_angle_alpha	84.655815
_cell_angle_beta	95.325015
_cell_angle_gamma	69.778664
loop_
_atom_site_label
_atom_site_type_symbol
_atom_site_fract_x
_atom_site_fract_y
_atom_site_fract_z
O1	O	2.108185	-0.036318	-0.158958
O2	O	1.632699	0.047464	-0.158965
O3	O	1.912333	-0.232170	-0.158959
O4	O	1.828551	0.243315	-0.158964
O5	O	1.949712	-0.269616	0.159017
O6	O	1.670079	0.010018	0.159011
O7	O	2.145564	-0.073764	0.159018
Cu8	Cu	1.911235	-0.035292	0.188048
Cu9	Cu	1.867029	0.008992	-0.187995
O10	O	1.865931	0.205870	0.159012
C11	C	1.591080	0.035090	0.000022
C12	C	1.411380	0.053990	0.000019
C13	C	1.937372	-0.311201	0.000026
C14	C	1.956269	-0.490899	0.000015
C15	C	2.187183	-0.061390	0.000027
C16	C	2.366881	-0.080288	0.000017
C17	C	1.840892	0.284902	0.000023
C18	C	1.821992	0.464601	0.000021
N19	N	1.942338	-0.066441	0.452537
N20	N	1.835940	0.040127	-0.452484
H21	H	1.311991	0.183419	0.000007
O22	O	1.704571	0.171940	0.449913
C23	C	1.765802	0.274818	0.334146
H24	H	1.897131	0.198027	0.304331
H25	H	1.771273	0.384314	0.411172
C26	C	1.486594	0.437334	0.180532
C27	C	1.647889	0.343014	0.143899
H28	H	1.413857	0.479407	0.063182
H29	H	1.445339	0.368028	0.258531
H30	H	1.491177	0.528568	0.244725
H31	H	1.643307	0.251771	0.079729
H32	H	1.689140	0.412306	0.065885
O33	O	2.073837	-0.198387	0.549732
C34	C	2.061220	-0.349971	0.501004
H35	H	1.981671	-0.325052	0.355630
H36	H	1.999690	-0.403305	0.613638
C37	C	2.335718	-0.507774	0.670551
C38	C	2.238025	-0.477170	0.491993
H39	H	2.444778	-0.586241	0.665001
H40	H	2.344216	-0.405651	0.703388
H41	H	2.284423	-0.552211	0.764394
H42	H	2.289309	-0.432715	0.398159
H43	H	2.229539	-0.579290	0.459141
H44	H	2.085699	-0.590290	0.000033
H45	H	1.692573	-0.436021	0.000025
H46	H	1.466259	-0.209706	0.000009
