data_functionalizedCrystal
_audit_creation_method	'MofGen! by Chris Wilmer'
_symmetry_space_group_name_H-M	'P1'
_symmetry_Int_Tables_number	1
_symmetry_cell_setting	triclinic
loop_
_symmetry_equiv_pos_as_xyz
  x,y,z
_cell_length_a	17.699083
_cell_length_b	17.699083
_cell_length_c	13.930277
_cell_angle_alpha	90.003742
_cell_angle_beta	89.999451
_cell_angle_gamma	83.283015
loop_
_atom_site_label
_atom_site_type_symbol
_atom_site_fract_x
_atom_site_fract_y
_atom_site_fract_z
O1	O	-1.004079	-0.095701	0.079698
O2	O	-0.783701	-0.108153	0.079730
O3	O	-0.900116	0.008262	0.079705
O4	O	-0.887664	-0.212116	0.079723
O5	O	-0.900099	0.008245	-0.079957
O6	O	-0.783684	-0.108171	-0.079932
O7	O	-1.004062	-0.095718	-0.079964
Zn8	Zn	-0.893870	-0.101947	-0.105298
Zn9	Zn	-0.893893	-0.101924	0.105064
O10	O	-0.887647	-0.212134	-0.079938
C11	C	-0.755495	-0.107716	-0.000097
C12	C	-0.671477	-0.106377	-0.000085
C13	C	-0.899662	0.036451	-0.000126
C14	C	-0.898323	0.120469	-0.000127
N15	N	-0.893860	-0.101963	-0.248864
C16	C	-1.032268	-0.096156	-0.000135
C17	C	-1.116286	-0.097494	-0.000140
C18	C	-0.622856	-0.174711	-0.000080
C19	C	-0.543913	-0.173448	-0.000092
C20	C	-0.513592	-0.103852	-0.000103
C21	C	-0.562219	-0.035513	-0.000112
C22	C	-0.641161	-0.036776	-0.000106
C23	C	-0.243856	-0.030418	-0.000136
C24	C	-0.164908	-0.029160	-0.000139
C25	C	-0.146608	-0.167090	-0.000122
C26	C	-0.225550	-0.168353	-0.000116
C27	C	-0.274170	-0.100015	-0.000130
C28	C	-0.359769	-0.101384	-0.000118
C29	C	-0.427995	-0.102481	-0.000108
C30	C	-0.888102	-0.240322	-0.000105
C31	C	-0.889440	-0.324340	-0.000099
C32	C	-0.966656	0.169090	-0.000138
C33	C	-0.965394	0.248033	-0.000129
C34	C	-0.895798	0.278354	-0.000116
C35	C	-0.827459	0.229727	-0.000102
C36	C	-0.828722	0.150785	-0.000104
C37	C	-0.822364	0.548090	-0.000093
C38	C	-0.821106	0.627038	-0.000095
C39	C	-0.959036	0.645338	-0.000119
C40	C	-0.960299	0.566396	-0.000120
C41	C	-0.891961	0.517776	-0.000101
C42	C	-0.893330	0.432177	-0.000109
C43	C	-0.894427	0.363951	-0.000115
C44	C	-0.939720	-0.147757	-0.701126
C45	C	-0.848089	-0.056060	-0.701110
C46	C	-0.848078	-0.056072	-0.600614
C47	C	-0.893889	-0.101927	-0.550369
C48	C	-0.939711	-0.147769	-0.600621
C49	C	-0.802262	-0.010225	-0.550355
C50	C	-0.802249	-0.010235	-0.449853
C51	C	-0.848057	-0.056094	-0.399607
C52	C	-0.893880	-0.101939	-0.449864
C53	C	-0.939691	-0.147793	-0.399620
C54	C	-0.985512	-0.193642	-0.449876
C55	C	-0.985519	-0.193628	-0.550374
C56	C	-0.848050	-0.056109	-0.299108
C57	C	-0.939683	-0.147805	-0.299115
N58	N	-0.893909	-0.101902	0.248630
H59	H	-0.647537	-0.231384	-0.000070
C60	C	-0.751872	0.040209	-0.605629
N61	N	-0.713913	0.078196	-0.647267
C62	C	-0.990121	-0.198188	-0.756407
N63	N	-1.028084	-0.236171	-0.798046
H64	H	-0.764939	0.027098	-0.408944
C65	C	-0.297329	0.044757	-0.000145
N66	N	-0.337607	0.101382	-0.000150
H67	H	-0.810797	-0.018722	-0.742025
H68	H	-1.023330	0.144409	-0.000154
H69	H	-1.022825	-0.230954	-0.591301
C70	C	-0.797651	-0.005677	-0.243832
N71	N	-0.759686	0.032309	-0.202198
H72	H	-0.504328	-0.229092	-0.000087
H73	H	-0.107012	-0.222734	-0.000116
C74	C	-0.258898	-0.244914	-0.000110
N75	N	-0.284014	-0.302582	-0.000112
H76	H	-0.140225	0.027517	-0.000149
C77	C	-1.040567	0.301513	-0.000157
N78	N	-1.097190	0.341794	-0.000183
H79	H	-0.766718	0.508512	-0.000078
H80	H	-1.022814	-0.230974	-0.408953
C81	C	-0.744541	0.660388	-0.000072
N82	N	-0.686875	0.685507	-0.000055
C83	C	-0.750902	0.263082	-0.000096
N84	N	-0.693238	0.288205	-0.000098
C85	C	-0.528864	0.041044	-0.000126
N86	N	-0.503741	0.098708	-0.000133
H87	H	-0.680748	0.018868	-0.000110
H88	H	-1.016971	0.541714	-0.000136
H89	H	-1.014680	0.684934	-0.000129
C90	C	-0.990080	-0.198249	-0.243854
N91	N	-1.028041	-0.236243	-0.202232
H92	H	-0.773078	0.111198	-0.000094
