data_functionalizedCrystal
_audit_creation_method	'MofGen! by Chris Wilmer'
_symmetry_space_group_name_H-M	'P1'
_symmetry_Int_Tables_number	1
_symmetry_cell_setting	triclinic
loop_
_symmetry_equiv_pos_as_xyz
  x,y,z
_cell_length_a	12.827892
_cell_length_b	19.077367
_cell_length_c	19.076919
_cell_angle_alpha	94.478002
_cell_angle_beta	87.724465
_cell_angle_gamma	87.686146
loop_
_atom_site_label
_atom_site_type_symbol
_atom_site_fract_x
_atom_site_fract_y
_atom_site_fract_z
Zn1	Zn	-0.373958	-1.061714	0.355438
Zn2	Zn	-0.040625	-0.728381	0.688771
Zn3	Zn	0.292708	-0.395048	1.022104
Zn4	Zn	-0.541404	-1.066387	0.237564
Zn5	Zn	-0.208071	-0.733054	0.570898
Zn6	Zn	0.125262	-0.399720	0.904231
Zn7	Zn	-0.373984	-0.948569	0.242289
Zn8	Zn	-0.040651	-0.615236	0.575622
Zn9	Zn	0.292683	-0.281903	0.908956
Zn10	Zn	-0.555967	-0.943817	0.360130
Zn11	Zn	-0.222634	-0.610484	0.693463
Zn12	Zn	0.110700	-0.277150	1.026797
O13	O	-0.461328	-1.005122	0.298855
O14	O	-0.127995	-0.671789	0.632189
O15	O	0.205338	-0.338455	0.965522
O16	O	-0.390065	-1.160982	0.335860
O17	O	-0.056732	-0.827648	0.669194
O18	O	0.276601	-0.494315	1.002527
O19	O	-0.513112	-1.054702	0.139544
O20	O	-0.179778	-0.721369	0.472877
O21	O	0.153555	-0.388036	0.806210
O22	O	-0.227743	-0.963612	0.257312
O23	O	0.105590	-0.630278	0.590645
O24	O	0.438923	-0.296945	0.923979
O25	O	-0.513087	-1.164415	0.249259
O26	O	-0.179754	-0.831081	0.582593
O27	O	0.153580	-0.497748	0.915926
O28	O	-0.227725	-1.046739	0.340442
O29	O	0.105609	-0.713406	0.673775
O30	O	0.438942	-0.380072	1.007109
O31	O	-0.390109	-0.968142	0.143015
O32	O	-0.056775	-0.634809	0.476348
O33	O	0.276558	-0.301476	0.809682
O34	O	-0.404230	-0.849291	0.261862
O35	O	-0.070896	-0.515958	0.595195
O36	O	0.262437	-0.182625	0.928529
O37	O	-0.537907	-0.955512	0.458155
O38	O	-0.204574	-0.622179	0.791488
O39	O	0.128760	-0.288845	1.124821
O40	O	-0.537932	-0.845800	0.348439
O41	O	-0.204599	-0.512467	0.681772
O42	O	0.128735	-0.179133	1.015106
O43	O	-0.404186	-1.042131	0.454707
O44	O	-0.070853	-0.708797	0.788041
O45	O	0.262480	-0.375464	1.121374
O46	O	-0.689573	-1.050094	0.253809
O47	O	-0.356240	-0.716761	0.587143
O48	O	-0.022907	-0.383428	0.920476
O49	O	-0.700273	-0.960043	0.343858
O50	O	-0.366939	-0.626709	0.677191
O51	O	-0.033606	-0.293376	1.010524
C52	C	-0.472665	-0.821967	0.306173
C53	C	-0.139331	-0.488634	0.639506
C54	C	0.194002	-0.155301	0.972839
C55	C	-0.477541	-0.743613	0.309320
C56	C	-0.144207	-0.410279	0.642653
C57	C	0.189126	-0.076946	0.975987
C58	C	-0.410123	-0.708595	0.265796
C59	C	-0.076790	-0.375262	0.599130
C60	C	0.256543	-0.041929	0.932463
C61	C	-0.414714	-0.634973	0.268753
C62	C	-0.081381	-0.301639	0.602087
C63	C	0.251953	0.031694	0.935420
C64	C	-0.486717	-0.596368	0.315238
C65	C	-0.153384	-0.263035	0.648571
C66	C	0.179950	0.070299	0.981905
C67	C	-0.554141	-0.631390	0.358763
C68	C	-0.220808	-0.298057	0.692097
C69	C	0.112525	0.035276	1.025430
C70	C	-0.549555	-0.705012	0.355802
C71	C	-0.216222	-0.371679	0.689136
C72	C	0.117111	-0.038345	1.022469
C73	C	-0.507913	-0.375991	0.328916
C74	C	-0.174579	-0.042657	0.662249
C75	C	0.158754	0.290676	0.995583
C76	C	-0.512492	-0.302364	0.331875
C77	C	-0.179158	0.030969	0.665209
C78	C	0.154175	0.364303	0.998542
C79	C	-0.373065	-0.305951	0.241864
C80	C	-0.039732	0.027382	0.575198
C81	C	0.293602	0.360715	0.908531
C82	C	-0.368481	-0.379574	0.238910
C83	C	-0.035148	-0.046241	0.572244
C84	C	0.298186	0.287093	0.905577
C85	C	-0.435909	-0.414590	0.282433
C86	C	-0.102576	-0.081257	0.615766
C87	C	0.230758	0.252077	0.949100
N88	N	-0.491409	-0.521114	0.318263
N89	N	-0.158075	-0.187780	0.651596
N90	N	0.175258	0.145553	0.984930
N91	N	-0.431222	-0.489843	0.279404
N92	N	-0.097888	-0.156510	0.612737
N93	N	0.235445	0.176823	0.946070
C94	C	-0.732840	-1.005078	0.298845
C95	C	-0.399507	-0.671745	0.632178
C96	C	-0.066174	-0.338412	0.965511
C97	C	-0.848992	-1.005123	0.298861
C98	C	-0.515658	-0.671790	0.632194
C99	C	-0.182325	-0.338457	0.965528
C100	C	-0.895447	-1.049733	0.254348
C101	C	-0.562114	-0.716399	0.587681
C102	C	-0.228781	-0.383066	0.921014
C103	C	-1.015496	-1.049780	0.254364
C104	C	-0.682162	-0.716447	0.587697
C105	C	-0.348829	-0.383113	0.921030
C106	C	-0.188756	-1.005184	0.298881
C107	C	0.144577	-0.671851	0.632214
C108	C	0.477911	-0.338518	0.965547
C109	C	-0.072602	-1.005211	0.298891
C110	C	0.260731	-0.671877	0.632225
C111	C	0.594065	-0.338544	0.965558
C112	C	-0.472668	-0.997770	0.482724
C113	C	-0.139335	-0.664437	0.816058
C114	C	0.193998	-0.331103	1.149391
C115	C	-0.477501	-0.994637	0.561079
C116	C	-0.144167	-0.661304	0.894412
C117	C	0.189166	-0.327971	1.227745
C118	C	-0.449943	-0.188992	0.291503
C119	C	-0.116609	0.144342	0.624836
C120	C	0.216724	0.477675	0.958169
C121	C	-0.445075	-0.267347	0.288352
C122	C	-0.111741	0.065986	0.621685
C123	C	0.221592	0.399320	0.955018
C124	C	-0.449955	-1.012486	0.115700
C125	C	-0.116622	-0.679152	0.449033
C126	C	0.216712	-0.345819	0.782366
C127	C	-0.444820	-1.015755	0.037340
C128	C	-0.111486	-0.682422	0.370674
C129	C	0.221847	-0.349089	0.704007
C130	C	-0.410153	-1.038261	0.596096
C131	C	-0.076819	-0.704927	0.929429
C132	C	0.256514	-0.371594	1.262763
C133	C	-0.414690	-1.035308	0.669718
C134	C	-0.081356	-0.701975	1.003052
C135	C	0.251977	-0.368642	1.336385
C136	C	-0.486581	-0.988736	0.708322
C137	C	-0.153247	-0.655402	1.041655
C138	C	0.180086	-0.322069	1.374988
C139	C	-0.553931	-0.945107	0.673300
C140	C	-0.220598	-0.611774	1.006633
C141	C	0.112735	-0.278441	1.339966
C142	C	-0.549389	-0.948057	0.599679
C143	C	-0.216055	-0.614723	0.933012
C144	C	0.117278	-0.281390	1.266345
C145	C	-0.507628	-0.975076	0.928697
C146	C	-0.174294	-0.641743	1.262031
C147	C	0.159039	-0.308409	1.595364
C148	C	-0.512168	-0.972132	1.002323
C149	C	-0.178834	-0.638798	1.335657
C150	C	0.154499	-0.305465	1.668990
C151	C	-0.372924	-1.062332	0.998737
C152	C	-0.039591	-0.728999	1.332070
C153	C	0.293743	-0.395666	1.665403
C154	C	-0.368392	-1.065280	0.925115
C155	C	-0.035059	-0.731947	1.258448
C156	C	0.298275	-0.398614	1.591781
C157	C	-0.435739	-1.021649	0.890099
C158	C	-0.102406	-0.688316	1.223432
C159	C	0.230928	-0.354983	1.556765
N160	N	-0.491222	-0.985718	0.783576
N161	N	-0.157889	-0.652385	1.116909
N162	N	0.175445	-0.319052	1.450242
N163	N	-0.431092	-1.024664	0.814846
N164	N	-0.097758	-0.691330	1.148180
N165	N	0.235575	-0.357997	1.481513
H166	H	-0.359822	-0.606465	0.233308
H167	H	-0.026488	-0.273132	0.566641
H168	H	0.306845	0.060201	0.899974
H169	H	-0.604454	-0.733522	0.391244
H170	H	-0.271120	-0.400188	0.724577
H171	H	0.062213	-0.066855	1.057910
H172	H	-0.562817	-0.404492	0.364355
H173	H	-0.229484	-0.071158	0.697689
H174	H	0.103849	0.262175	1.031022
F175	F	-0.630786	-0.590303	0.408227
F176	F	-0.297452	-0.256970	0.741560
F177	F	0.035881	0.076364	1.074894
F178	F	-0.333483	-0.749675	0.216324
F179	F	-0.000149	-0.416341	0.549657
F180	F	0.333184	-0.083008	0.882991
F181	F	-0.579305	-0.928640	0.891440
F182	F	-0.245972	-0.595306	1.224774
F183	F	0.087361	-0.261973	1.558107
F184	F	-0.291838	-0.420655	0.189440
F185	F	0.041495	-0.087321	0.522774
F186	F	0.374829	0.246012	0.856107
H187	H	-1.032639	-0.967014	0.337001
H188	H	-0.699306	-0.633681	0.670334
H189	H	-0.365972	-0.300348	1.003667
F190	F	-0.291876	-1.114850	0.884035
F191	F	0.041457	-0.781516	1.217368
F192	F	0.374790	-0.448183	1.550702
F193	F	-0.301310	-0.268680	0.195546
F194	F	0.032023	0.064654	0.528880
F195	F	0.365356	0.397987	0.862213
F196	F	-1.067737	-1.099698	0.204546
F197	F	-0.734404	-0.766364	0.537880
F198	F	-0.401070	-0.433031	0.871213
F199	F	-0.589129	-0.261279	0.381354
F200	F	-0.255795	0.072054	0.714688
F201	F	0.077538	0.405387	1.048021
F202	F	-0.913168	-0.955251	0.348694
F203	F	-0.579834	-0.621918	0.682027
F204	F	-0.246501	-0.288585	1.015360
F205	F	-0.831272	-1.099612	0.204522
F206	F	-0.497938	-0.766278	0.537856
F207	F	-0.164605	-0.432945	0.871189
F208	F	-0.630439	-0.895538	0.714386
F209	F	-0.297106	-0.562205	1.047720
F210	F	0.036227	-0.228871	1.381053
H211	H	-0.351614	-1.076188	0.564670
H212	H	-0.018281	-0.742854	0.898003
H213	H	0.315052	-0.409521	1.231336
F214	F	-0.343043	-1.081763	0.706982
F215	F	-0.009709	-0.748430	1.040315
F216	F	0.323624	-0.415096	1.373649
H217	H	-0.318093	-1.097853	1.027255
H218	H	0.015241	-0.764520	1.360588
H219	H	0.348574	-0.431186	1.693921
H220	H	-0.570712	-0.934204	1.033753
H221	H	-0.237379	-0.600871	1.367086
H222	H	0.095954	-0.267538	1.700419
F223	F	-0.621067	-0.901625	0.562411
F224	F	-0.287734	-0.568291	0.895745
F225	F	0.045600	-0.234958	1.229078
