data_functionalizedCrystal
_audit_creation_method	'MofGen! by Chris Wilmer'
_symmetry_space_group_name_H-M	'P1'
_symmetry_Int_Tables_number	1
_symmetry_cell_setting	triclinic
loop_
_symmetry_equiv_pos_as_xyz
  x,y,z
_cell_length_a	26.374263
_cell_length_b	26.373608
_cell_length_c	26.370205
_cell_angle_alpha	60.005297
_cell_angle_beta	60.010839
_cell_angle_gamma	59.993700
loop_
_atom_site_label
_atom_site_type_symbol
_atom_site_fract_x
_atom_site_fract_y
_atom_site_fract_z
O1	O	0.070152	-0.740800	0.619517
O2	O	0.570152	-0.240800	1.119517
O3	O	0.026377	-0.576764	0.499159
O4	O	0.526377	-0.076764	0.999159
O5	O	0.130245	-0.680560	0.499088
O6	O	0.630245	-0.180560	0.999088
O7	O	-0.033715	-0.637003	0.619589
O8	O	0.466285	-0.137003	1.119589
O9	O	0.164701	-0.646107	0.533470
O10	O	0.664701	-0.146107	1.033470
O11	O	0.060833	-0.542310	0.533541
O12	O	0.560833	-0.042310	1.033541
O13	O	0.104608	-0.706346	0.653899
O14	O	0.604608	-0.206346	1.153899
Cu15	Cu	0.085867	-0.621182	0.596859
Cu16	Cu	0.585867	-0.121182	1.096859
Cu17	Cu	0.045119	-0.661927	0.556199
Cu18	Cu	0.545119	-0.161927	1.056199
O19	O	0.000741	-0.602549	0.653971
O20	O	0.500741	-0.102549	1.153971
N21	N	0.114528	-0.592529	0.625461
N22	N	0.614528	-0.092529	1.125461
N23	N	0.016463	-0.690587	0.527598
N24	N	0.516463	-0.190587	1.027598
C25	C	0.181428	-0.355400	0.692330
C26	C	0.681428	0.144600	1.192330
C27	C	0.181530	-0.525690	0.862573
C28	C	0.681530	-0.025690	1.362573
C29	C	0.181440	-0.525667	0.692313
C30	C	0.681440	-0.025667	1.192313
C31	C	0.351736	-0.525673	0.692271
C32	C	0.851736	-0.025673	1.192271
C33	C	0.200174	-0.411588	0.711047
C34	C	0.700174	0.088412	1.211047
C35	C	0.200232	-0.506954	0.806384
C36	C	0.700232	-0.006954	1.306384
C37	C	0.295546	-0.506943	0.711016
C38	C	0.795546	-0.006943	1.211016
C39	C	0.200182	-0.506940	0.711037
C40	C	0.700182	-0.006940	1.211037
C41	C	0.157567	-0.283881	0.668507
C42	C	0.657567	0.216119	1.168507
C43	C	0.157587	-0.549500	0.668479
C44	C	0.657587	-0.049500	1.168479
C45	C	0.224035	-0.483107	0.734871
C46	C	0.724035	0.016893	1.234871
C47	C	0.455739	-0.507754	0.637520
C48	C	0.955739	-0.007754	1.137520
C49	C	0.520749	-0.529425	0.615835
C50	C	1.020749	-0.029425	1.115835
C51	C	0.520768	-0.634611	0.655947
C52	C	1.020768	-0.134611	1.155947
C53	C	0.455759	-0.612939	0.677633
C54	C	0.955759	-0.112939	1.177633
C55	C	0.173240	-0.251367	0.604595
C56	C	0.673240	0.248633	1.104595
C57	C	0.151546	-0.186351	0.582941
C58	C	0.651546	0.313649	1.082941
C59	C	0.098512	-0.186369	0.689113
C60	C	0.598512	0.313631	1.189113
C61	C	0.120206	-0.251385	0.710768
C62	C	0.620206	0.248615	1.210768
C63	C	0.093669	-0.533798	0.684205
C64	C	0.593669	-0.033798	1.184205
C65	C	0.071992	-0.555464	0.662532
C66	C	0.571992	-0.055464	1.162532
C67	C	0.178144	-0.608536	0.609422
C68	C	0.678144	-0.108536	1.109422
C69	C	0.199825	-0.586869	0.631088
C70	C	0.699825	-0.086869	1.131088
C71	C	0.093821	-0.533842	0.966616
C72	C	0.593821	-0.033842	1.466616
C73	C	0.072187	-0.555526	1.031630
C74	C	0.572187	-0.055526	1.531630
C75	C	0.178370	-0.608608	1.031591
C76	C	0.678370	-0.108608	1.531591
C77	C	0.200004	-0.586926	0.966576
C78	C	0.700004	-0.086926	1.466576
C79	C	0.157728	-0.549541	0.934090
C80	C	0.657728	-0.049541	1.434090
C81	C	0.423247	-0.549509	0.668416
C82	C	0.923247	-0.049509	1.168416
C83	C	-0.097522	-0.709158	0.508557
C84	C	0.402478	-0.209158	1.008557
C85	C	-0.002050	-0.709295	0.413344
C86	C	0.497950	-0.209295	0.913344
C87	C	-0.002241	-0.804604	0.508735
C88	C	0.497759	-0.304604	1.008735
C89	C	-0.002225	-0.709288	0.508793
C90	C	0.497775	-0.209288	1.008793
C91	C	-0.026009	-0.733087	0.484858
C92	C	0.473991	-0.233087	0.984858
N93	N	0.552340	-0.592538	0.625346
N94	N	1.052340	-0.092538	1.125346
O95	O	0.750867	-0.598274	0.477076
O96	O	1.250867	-0.098274	0.977076
O97	O	0.751048	-0.718989	0.640960
O98	O	1.251048	-0.218989	1.140960
O99	O	0.750981	-0.718715	0.537020
O100	O	1.250981	-0.218715	1.037020
O101	O	0.750934	-0.598547	0.581017
O102	O	1.250934	-0.098547	1.081017
O103	O	0.647701	-0.684348	0.571512
O104	O	1.147701	-0.184348	1.071512
O105	O	0.647768	-0.684622	0.675452
O106	O	1.147768	-0.184622	1.175452
O107	O	0.647587	-0.563907	0.511569
O108	O	1.147587	-0.063907	1.011569
Cu109	Cu	0.638247	-0.621127	0.596660
Cu110	Cu	1.138247	-0.121127	1.096660
Cu111	Cu	0.760388	-0.661769	0.555869
Cu112	Cu	1.260388	-0.161769	1.055869
O113	O	0.647654	-0.564181	0.615509
O114	O	1.147654	-0.064181	1.115509
N115	N	0.846295	-0.690358	0.527176
N116	N	1.346295	-0.190358	1.027176
N117	N	0.114503	-0.154778	0.625499
N118	N	0.614503	0.345222	1.125499
O119	O	-0.033701	0.043855	0.619632
O120	O	0.466299	0.543855	1.119632
O121	O	0.130190	0.043858	0.498933
O122	O	0.630190	0.543858	0.998933
O123	O	0.026233	0.043841	0.499224
O124	O	0.526233	0.543841	0.999224
O125	O	0.070257	0.043872	0.619341
O126	O	0.570257	0.543872	1.119341
O127	O	0.060690	-0.059448	0.533654
O128	O	0.560690	0.440552	1.033654
O129	O	0.164647	-0.059431	0.533363
O130	O	0.664647	0.440569	1.033363
O131	O	0.000756	-0.059434	0.654062
O132	O	0.500756	0.440566	1.154062
Cu133	Cu	0.085848	-0.068863	0.596857
Cu134	Cu	0.585848	0.431137	1.096857
Cu135	Cu	0.045099	0.053287	0.556138
Cu136	Cu	0.545099	0.553287	1.056138
O137	O	0.104714	-0.059417	0.653771
O138	O	0.604714	0.440583	1.153771
N139	N	0.016435	0.139202	0.527497
N140	N	0.516435	0.639202	1.027497
N141	N	0.114760	-0.592585	1.063190
N142	N	0.614760	-0.092585	1.563190
O143	O	0.108896	-0.740779	1.261808
O144	O	0.608896	-0.240779	1.761808
O145	O	-0.011787	-0.576838	1.261822
O146	O	0.488213	-0.076838	1.761822
O147	O	-0.011509	-0.680779	1.261780
O148	O	0.488491	-0.180779	1.761780
O149	O	0.108618	-0.636838	1.261850
O150	O	0.608618	-0.136838	1.761850
O151	O	0.022916	-0.646341	1.158496
O152	O	0.522916	-0.146341	1.658496
O153	O	0.022638	-0.542399	1.158538
O154	O	0.522638	-0.042399	1.658538
O155	O	0.143321	-0.706341	1.158524
O156	O	0.643321	-0.206341	1.658524
Cu157	Cu	0.086123	-0.621225	1.149100
Cu158	Cu	0.586123	-0.121225	1.649100
Cu159	Cu	0.045411	-0.661953	1.271246
Cu160	Cu	0.545411	-0.161953	1.771246
O161	O	0.143044	-0.602399	1.158566
O162	O	0.643044	-0.102399	1.658566
N163	N	0.016774	-0.690600	1.357156
N164	N	0.516774	-0.190600	1.857156
C165	C	0.039504	-0.538867	0.499769
C166	C	0.539504	-0.038867	0.999769
C167	C	0.168130	-0.667407	0.499680
C168	C	0.668130	-0.167407	0.999680
C169	C	0.091482	-0.744243	0.653289
C170	C	0.591482	-0.244243	1.153289
C171	C	-0.037145	-0.615703	0.653378
C172	C	0.462855	-0.115703	1.153378
C173	C	0.699429	-0.718429	0.678853
C174	C	1.199429	-0.218429	1.178853
C175	C	0.699348	-0.718091	0.550135
C176	C	1.199348	-0.218091	1.050135
C177	C	0.699202	-0.564465	0.473677
C178	C	1.199202	-0.064465	0.973677
C179	C	0.699287	-0.564805	0.602393
C180	C	1.199287	-0.064805	1.102393
C181	C	0.168023	-0.007659	0.499484
C182	C	0.668023	0.492341	0.999484
C183	C	0.039327	-0.007807	0.499887
C184	C	0.539327	0.492193	0.999887
C185	C	-0.037119	-0.007789	0.653468
C186	C	0.462881	0.492211	1.153468
C187	C	0.091620	-0.007770	0.653109
C188	C	0.591620	0.492230	1.153109
C189	C	-0.011194	-0.538964	1.210181
C190	C	0.488806	-0.038964	1.710181
C191	C	-0.010843	-0.667676	1.210109
C192	C	0.489157	-0.167676	1.710109
C193	C	0.142729	-0.744214	1.210165
C194	C	0.642729	-0.244214	1.710165
C195	C	0.142386	-0.615494	1.210214
C196	C	0.642386	-0.115494	1.710214
H197	H	0.059391	-0.503396	0.940172
H198	H	0.559391	-0.003396	1.440172
H199	H	0.180620	-0.791296	1.210154
H200	H	0.680620	-0.291296	1.710154
H201	H	0.101045	-0.007760	0.690842
H202	H	0.601045	0.492240	1.190842
H203	H	0.699278	-0.527058	0.611808
H204	H	1.199278	-0.027058	1.111808
C205	C	0.224040	-0.649003	0.568724
C206	C	0.724040	-0.149003	1.068724
C207	C	0.261298	-0.616339	0.514591
C208	C	0.761298	-0.116339	1.014591
C209	C	0.303578	-0.653591	0.477081
C210	C	0.803578	-0.153591	0.977081
H211	H	0.249480	-0.685777	0.590689
H212	H	0.749480	-0.185777	1.090689
H213	H	0.202002	-0.659648	0.558024
H214	H	0.702002	-0.159648	1.058024
H215	H	0.283334	-0.605703	0.525292
H216	H	0.783334	-0.105703	1.025292
H217	H	0.235876	-0.579568	0.492610
H218	H	0.735876	-0.079568	0.992610
H219	H	0.281540	-0.664236	0.466380
H220	H	0.781540	-0.164236	0.966380
H221	H	0.329013	-0.690363	0.499051
H222	H	0.829013	-0.190363	0.999051
H223	H	0.328858	-0.631432	0.440345
H224	H	0.828858	-0.131432	0.940345
C225	C	0.103823	-0.807076	0.703720
C226	C	0.603823	-0.307076	1.203720
C227	C	0.061475	-0.834406	0.720291
C228	C	0.561475	-0.334406	1.220291
C229	C	0.072819	-0.892284	0.766751
C230	C	0.572819	-0.392284	1.266751
H231	H	0.144906	-0.833160	0.688676
H232	H	0.644906	-0.333160	1.188676
H233	H	0.099151	-0.801711	0.739046
H234	H	0.599151	-0.301711	1.239046
H235	H	0.066152	-0.839774	0.684972
H236	H	0.566152	-0.339774	1.184972
H237	H	0.020388	-0.808339	0.735346
H238	H	0.520388	-0.308339	1.235346
H239	H	0.068147	-0.886919	0.802078
H240	H	0.568147	-0.386919	1.302078
H241	H	0.113903	-0.918362	0.751703
H242	H	0.613903	-0.418362	1.251703
H243	H	0.044084	-0.910831	0.778005
H244	H	0.544084	-0.410831	1.278005
H245	H	0.699142	-0.526565	0.426612
H246	H	1.199142	-0.026565	0.926612
H247	H	0.699474	-0.756325	0.725922
H248	H	1.199474	-0.256325	1.225922
C249	C	-0.099965	-0.603197	0.703770
C250	C	0.400035	-0.103197	1.203770
C251	C	-0.138231	-0.542583	0.681421
C252	C	0.361769	-0.042583	1.181421
C253	C	-0.196102	-0.531038	0.727827
C254	C	0.303898	-0.031038	1.227827
H255	H	-0.118660	-0.631839	0.715117
H256	H	0.381340	-0.131839	1.215117
H257	H	-0.094568	-0.607830	0.739061
H258	H	0.405432	-0.107830	1.239061
H259	H	-0.143630	-0.537956	0.646141
H260	H	0.356370	-0.037956	1.146141
H261	H	-0.119556	-0.513929	0.670078
H262	H	0.380444	-0.013929	1.170078
H263	H	-0.190705	-0.535670	0.763119
H264	H	0.309295	-0.035670	1.263119
H265	H	-0.214791	-0.559683	0.739172
H266	H	0.285209	-0.059683	1.239172
H267	H	-0.222071	-0.489909	0.712673
H268	H	0.277929	0.010091	1.212673
C269	C	-0.061121	-0.680300	1.210118
C270	C	0.438879	-0.180300	1.710118
C271	C	-0.075257	-0.730255	1.263219
C272	C	0.424743	-0.230255	1.763219
C273	C	-0.121564	-0.741907	1.263245
C274	C	0.378436	-0.241907	1.763245
H275	H	-0.097306	-0.644448	1.210136
H276	H	0.402694	-0.144448	1.710136
H277	H	-0.046752	-0.690183	1.174100
H278	H	0.453248	-0.190183	1.674100
H279	H	-0.089628	-0.720369	1.299228
H280	H	0.410372	-0.220369	1.799228
H281	H	-0.039086	-0.766117	1.263212
H282	H	0.460914	-0.266117	1.763212
H283	H	-0.107194	-0.751790	1.227226
H284	H	0.392806	-0.251790	1.727226
H285	H	-0.157745	-0.706052	1.263260
H286	H	0.342255	-0.206052	1.763260
H287	H	-0.131157	-0.775805	1.299269
H288	H	0.368843	-0.275805	1.799269
H289	H	0.699366	-0.755841	0.540718
H290	H	1.199366	-0.255841	1.040718
C291	C	0.224369	-0.649214	1.066749
C292	C	0.724369	-0.149214	1.566749
C293	C	0.284967	-0.658335	1.024349
C294	C	0.784967	-0.158335	1.524349
C295	C	0.327356	-0.695751	1.056714
C296	C	0.827356	-0.195751	1.556714
H297	H	0.218219	-0.629425	1.092120
H298	H	0.718219	-0.129425	1.592120
H299	H	0.218172	-0.688206	1.092088
H300	H	0.718172	-0.188206	1.592088
H301	H	0.291161	-0.619350	0.999021
H302	H	0.791161	-0.119350	1.499021
H303	H	0.291137	-0.678131	0.998977
H304	H	0.791137	-0.178131	1.498977
H305	H	0.321159	-0.734743	1.082053
H306	H	0.821159	-0.234743	1.582053
H307	H	0.321200	-0.675958	1.082084
H308	H	0.821200	-0.175958	1.582084
H309	H	0.368476	-0.701949	1.027951
H310	H	0.868476	-0.201949	1.527951
C311	C	0.026788	-0.007962	0.449633
C312	C	0.526788	0.492038	0.949633
C313	C	0.012311	-0.061121	0.470943
C314	C	0.512311	0.438879	0.970943
C315	C	0.000771	-0.061296	0.424664
C316	C	0.500771	0.438704	0.924664
H317	H	-0.007105	0.028007	0.439926
H318	H	0.492895	0.528007	0.939926
H319	H	0.062683	-0.008002	0.413491
H320	H	0.562683	0.491998	0.913491
H321	H	-0.023580	-0.061075	0.507074
H322	H	0.476420	0.438925	1.007074
H323	H	0.046196	-0.097098	0.480646
H324	H	0.546196	0.402902	0.980646
H325	H	0.036666	-0.061336	0.388522
H326	H	0.536666	0.438664	0.888522
H327	H	-0.033121	-0.025325	0.414960
H328	H	0.466879	0.474675	0.914960
H329	H	-0.009048	-0.097366	0.439114
H330	H	0.490952	0.402634	0.939114
H331	H	0.214995	-0.007372	0.461496
H332	H	0.714995	0.492628	0.961496
C333	C	-0.099933	-0.007744	0.703904
C334	C	0.400067	0.492256	1.203904
C335	C	-0.138284	-0.007734	0.681651
C336	C	0.361716	0.492266	1.181651
C337	C	-0.196157	-0.007679	0.728090
C338	C	0.303843	0.492321	1.228090
H339	H	-0.094576	-0.043745	0.739229
H340	H	0.405424	0.456255	1.239229
H341	H	-0.118538	0.028297	0.715167
H342	H	0.381462	0.528297	1.215167
H343	H	-0.119683	-0.043772	0.670397
H344	H	0.380317	0.456228	1.170397
H345	H	-0.143659	0.028264	0.646332
H346	H	0.356341	0.528264	1.146332
H347	H	-0.214762	0.028363	0.739353
H348	H	0.285238	0.528363	1.239353
H349	H	-0.190794	-0.043680	0.763412
H350	H	0.309206	0.456320	1.263412
H351	H	-0.222187	-0.007666	0.712997
H352	H	0.277813	0.492334	1.212997
H353	H	0.215222	-0.676694	0.461838
H354	H	0.715222	-0.176694	0.961838
C355	C	-0.061649	-0.476154	1.210216
C356	C	0.438351	0.023846	1.710216
C357	C	-0.039403	-0.437835	1.210256
C358	C	0.460597	0.062165	1.710256
C359	C	-0.085867	-0.379973	1.210296
C360	C	0.414133	0.120027	1.710296
H361	H	-0.072964	-0.457489	1.174201
H362	H	0.427036	0.042511	1.674201
H363	H	-0.096943	-0.481563	1.246241
H364	H	0.403057	0.018437	1.746241
H365	H	-0.004120	-0.432425	1.174234
H366	H	0.495880	0.067575	1.674234
H367	H	-0.028092	-0.456480	1.246267
H368	H	0.471908	0.043520	1.746267
H369	H	-0.121160	-0.385382	1.246321
H370	H	0.378840	0.114618	1.746321
H371	H	-0.097179	-0.361314	1.174281
H372	H	0.402821	0.138686	1.674281
H373	H	-0.070781	-0.353968	1.210329
H374	H	0.429219	0.146032	1.710329
C375	C	0.192730	-0.602887	1.210104
C376	C	0.692730	-0.102887	1.710104
C377	C	0.206857	-0.552954	1.156967
C378	C	0.706857	-0.052954	1.656967
C379	C	0.253237	-0.541327	1.156840
C380	C	0.753237	-0.041327	1.656840
H381	H	0.178449	-0.592991	1.246085
H382	H	0.678449	-0.092991	1.746085
H383	H	0.228899	-0.638769	1.210069
H384	H	0.728899	-0.138769	1.710069
H385	H	0.170696	-0.517079	1.157008
H386	H	0.670696	-0.017079	1.657008
H387	H	0.221149	-0.562837	1.120977
H388	H	0.721149	-0.062837	1.620977
H389	H	0.289406	-0.577210	1.156805
H390	H	0.789406	-0.077210	1.656805
H391	H	0.238951	-0.531433	1.192823
H392	H	0.738951	-0.031433	1.692823
H393	H	0.262832	-0.507451	1.120785
H394	H	0.762832	-0.007451	1.620785
C395	C	0.002775	-0.538375	1.066826
C396	C	0.502775	-0.038375	1.566826
C397	C	-0.029612	-0.500978	1.024457
C398	C	0.470388	-0.000978	1.524457
C399	C	-0.093554	-0.485163	1.056856
C400	C	0.406446	0.014837	1.556856
H401	H	-0.007960	-0.575085	1.092187
H402	H	0.492040	-0.075085	1.592187
H403	H	-0.007898	-0.516292	1.092178
H404	H	0.492102	-0.016292	1.592178
H405	H	-0.018943	-0.523062	0.999115
H406	H	0.481057	-0.023062	1.499115
H407	H	-0.018896	-0.464260	0.999095
H408	H	0.481104	0.035740	1.499095
H409	H	-0.104227	-0.463079	1.082209
H410	H	0.395773	0.036921	1.582209
H411	H	-0.104283	-0.521876	1.082216
H412	H	0.395717	-0.021876	1.582216
H413	H	-0.115537	-0.459783	1.028114
H414	H	0.384463	0.040217	1.528114
H415	H	0.252044	-0.599714	0.940097
H416	H	0.752044	-0.099714	1.440097
H417	H	0.059274	-0.503369	0.714648
H418	H	0.559274	-0.003369	1.214648
H419	H	0.429307	-0.646943	0.702793
H420	H	0.929307	-0.146943	1.202793
C421	C	0.002571	-0.538383	0.679701
C422	C	0.502571	-0.038383	1.179701
C423	C	-0.029781	-0.501041	0.717106
C424	C	0.470219	-0.001041	1.217106
C425	C	-0.093731	-0.485304	0.732942
C426	C	0.406269	0.014696	1.232942
H427	H	-0.008200	-0.516285	0.643001
H428	H	0.491800	-0.016285	1.143001
H429	H	-0.008094	-0.575142	0.701783
H430	H	0.491906	-0.075142	1.201783
H431	H	-0.019121	-0.464289	0.695024
H432	H	0.480879	0.035711	1.195024
H433	H	-0.019028	-0.523127	0.753814
H434	H	0.480972	-0.023127	1.253814
H435	H	-0.104396	-0.522062	0.755024
H436	H	0.395604	-0.022062	1.255024
H437	H	-0.104496	-0.463207	0.696239
H438	H	0.395504	0.036793	1.196239
H439	H	-0.115690	-0.459970	0.758328
H440	H	0.384310	0.040030	1.258328
C441	C	0.269199	-0.603823	0.614061
C442	C	0.769199	-0.103823	1.114061
C443	C	0.279146	-0.576838	0.641029
C444	C	0.779146	-0.076838	1.141029
C445	C	0.343044	-0.592438	0.625351
C446	C	0.843044	-0.092438	1.125351
H447	H	0.287540	-0.647679	0.628996
H448	H	0.787540	-0.147679	1.128996
H449	H	0.287454	-0.588843	0.570194
H450	H	0.787454	-0.088843	1.070194
H451	H	0.260899	-0.591822	0.684887
H452	H	0.760899	-0.091822	1.184887
H453	H	0.260819	-0.532983	0.626098
H454	H	0.760819	-0.032983	1.126098
H455	H	0.361299	-0.577457	0.581483
H456	H	0.861299	-0.077457	1.081483
H457	H	0.361380	-0.636293	0.640287
H458	H	0.861380	-0.136293	1.140287
H459	H	0.349802	-0.574126	0.643641
H460	H	0.849802	-0.074126	1.143641
C461	C	0.555957	-0.703504	0.666036
C462	C	1.055957	-0.203504	1.166036
C463	C	0.513587	-0.735437	0.697749
C464	C	1.013587	-0.235437	1.197749
C465	C	0.545982	-0.798903	0.707060
C466	C	1.045982	-0.298903	1.207060
H467	H	0.581304	-0.709617	0.627011
H468	H	1.081304	-0.209617	1.127011
H469	H	0.581320	-0.718783	0.689876
H470	H	1.081320	-0.218783	1.189876
H471	H	0.488234	-0.720163	0.673909
H472	H	0.988234	-0.220163	1.173909
H473	H	0.488238	-0.729343	0.736780
H474	H	0.988238	-0.229343	1.236780
H475	H	0.571346	-0.814183	0.730901
H476	H	1.071346	-0.314183	1.230901
H477	H	0.571329	-0.805010	0.668032
H478	H	1.071329	-0.305010	1.168032
H479	H	0.517239	-0.820579	0.728583
H480	H	1.017239	-0.320579	1.228583
H481	H	0.429268	-0.456103	0.630015
H482	H	0.929268	0.043897	1.130015
C483	C	0.555920	-0.483988	0.582273
C484	C	1.055920	0.016012	1.082273
C485	C	0.513534	-0.423797	0.578827
C486	C	1.013534	0.076203	1.078827
C487	C	0.545911	-0.381924	0.547903
C488	C	1.045911	0.118076	1.047903
H489	H	0.581301	-0.494782	0.604373
H490	H	1.081301	0.005218	1.104373
H491	H	0.581249	-0.485612	0.541523
H492	H	1.081249	0.014388	1.041523
H493	H	0.488216	-0.422174	0.619570
H494	H	0.988216	0.077826	1.119570
H495	H	0.488152	-0.412983	0.556722
H496	H	0.988152	0.087017	1.056722
H497	H	0.571240	-0.383549	0.507153
H498	H	1.071240	0.116451	1.007153
H499	H	0.571291	-0.392725	0.570006
H500	H	1.071291	0.107275	1.070006
H501	H	0.517158	-0.341080	0.545556
H502	H	1.017158	0.158920	1.045556
H503	H	0.203661	-0.277820	0.570179
H504	H	0.703661	0.222180	1.070179
H505	H	0.068098	-0.159910	0.723527
H506	H	0.568098	0.340090	1.223527
C507	C	0.168650	-0.151156	0.513523
C508	C	0.668650	0.348844	1.013523
C509	C	0.206026	-0.193532	0.481149
C510	C	0.706026	0.306468	0.981149
C511	C	0.221799	-0.161136	0.417201
C512	C	0.721799	0.338864	0.917201
H513	H	0.131926	-0.125794	0.502795
H514	H	0.631926	0.374206	1.002795
H515	H	0.190732	-0.125803	0.502831
H516	H	0.690732	0.374197	1.002831
H517	H	0.183944	-0.218874	0.491837
H518	H	0.683944	0.281126	0.991837
H519	H	0.242758	-0.218895	0.491858
H520	H	0.742758	0.281105	0.991858
H521	H	0.243881	-0.135783	0.406509
H522	H	0.743881	0.364217	0.906509
H523	H	0.185072	-0.135775	0.406480
H524	H	0.685072	0.364225	0.906480
H525	H	0.247165	-0.189882	0.395228
H526	H	0.747165	0.310118	0.895228
C527	C	0.026912	-0.476010	0.449430
C528	C	0.526912	0.023990	0.949430
C529	C	-0.033708	-0.437804	0.471847
C530	C	0.466292	0.062196	0.971847
C531	C	-0.045332	-0.379899	0.425490
C532	C	0.454668	0.120101	0.925490
H533	H	0.055530	-0.457286	0.438078
H534	H	0.555530	0.042714	0.938078
H535	H	0.031519	-0.481372	0.414131
H536	H	0.531519	0.018628	0.914131
H537	H	-0.038309	-0.432441	0.507135
H538	H	0.461691	0.067559	1.007135
H539	H	-0.062339	-0.456508	0.483195
H540	H	0.437661	0.043492	0.983195
H541	H	-0.040725	-0.385261	0.390190
H542	H	0.459275	0.114739	0.890190
H543	H	-0.016710	-0.361181	0.414141
H544	H	0.483290	0.138819	0.914141
H545	H	-0.086464	-0.353971	0.440691
H546	H	0.413536	0.146029	0.940691
H547	H	0.107441	-0.277854	0.762810
H548	H	0.607441	0.222146	1.262810
