data_functionalizedCrystal
_audit_creation_method	'MofGen! by Chris Wilmer'
_symmetry_space_group_name_H-M	'P1'
_symmetry_Int_Tables_number	1
_symmetry_cell_setting	triclinic
loop_
_symmetry_equiv_pos_as_xyz
  x,y,z
_cell_length_a	17.766277
_cell_length_b	27.731994
_cell_length_c	19.288865
_cell_angle_alpha	97.121609
_cell_angle_beta	89.988481
_cell_angle_gamma	90.003606
loop_
_atom_site_label
_atom_site_type_symbol
_atom_site_fract_x
_atom_site_fract_y
_atom_site_fract_z
O1	O	-0.062495	-0.641197	0.082470
O2	O	0.437505	-0.141197	0.582470
O3	O	-0.062522	-0.500438	0.095076
O4	O	0.437478	-0.000438	0.595076
O5	O	-0.062493	-0.574885	-0.012384
O6	O	0.437507	-0.074885	0.487616
O7	O	-0.062524	-0.566750	0.189930
O8	O	0.437476	-0.066750	0.689930
O9	O	0.062696	-0.574871	-0.012389
O10	O	0.562696	-0.074871	0.487611
O11	O	0.062667	-0.500424	0.095071
O12	O	0.562667	-0.000424	0.595071
O13	O	0.062693	-0.641184	0.082465
O14	O	0.562693	-0.141184	0.582465
Cu15	Cu	0.074111	-0.570803	0.088767
Cu16	Cu	0.574111	-0.070803	0.588767
Cu17	Cu	-0.073939	-0.570819	0.088773
Cu18	Cu	0.426061	-0.070819	0.588773
O19	O	0.062664	-0.566737	0.189925
O20	O	0.562664	-0.066737	0.689925
C21	C	0.000070	-0.482423	0.094815
C22	C	0.500070	0.017577	0.594815
C23	C	0.000060	-0.428764	0.094035
C24	C	0.500060	0.071236	0.594035
N25	N	0.178241	-0.570795	0.088763
N26	N	0.678241	-0.070795	0.588763
C27	C	0.217641	-0.603771	0.041203
C28	C	0.717641	-0.103771	0.541203
C29	C	0.296443	-0.603773	0.041200
C30	C	0.796443	-0.103773	0.541200
C31	C	0.335842	-0.570805	0.088768
C32	C	0.835842	-0.070805	0.588768
C33	C	0.296433	-0.537823	0.136332
C34	C	0.796433	-0.037823	0.636332
C35	C	0.217632	-0.537818	0.136329
C36	C	0.717632	-0.037818	0.636329
C37	C	0.460669	-0.564333	0.152099
C38	C	0.960669	-0.064333	0.652099
C39	C	0.539468	-0.564341	0.152102
C40	C	1.039468	-0.064341	0.652102
C41	C	0.578888	-0.570817	0.088777
C42	C	1.078888	-0.070817	0.588777
C43	C	0.539500	-0.577294	0.025446
C44	C	1.039500	-0.077294	0.525446
C45	C	0.460699	-0.577289	0.025443
C46	C	0.960699	-0.077289	0.525443
C47	C	0.421287	-0.570806	0.088777
C48	C	0.921287	-0.070806	0.588777
C49	C	0.703734	-0.603797	0.041210
C50	C	1.203734	-0.103797	0.541210
C51	C	0.782537	-0.603796	0.041206
C52	C	1.282537	-0.103796	0.541206
C53	C	0.782525	-0.537848	0.136345
C54	C	1.282525	-0.037848	0.636345
C55	C	0.703724	-0.537846	0.136343
C56	C	1.203724	-0.037846	0.636343
C57	C	0.664332	-0.570823	0.088776
C58	C	1.164332	-0.070823	0.588776
C59	C	0.000104	-0.574616	-0.038261
C60	C	0.500104	-0.074616	0.461739
C61	C	0.000110	-0.573831	-0.115360
C62	C	0.500110	-0.073831	0.384640
N63	N	0.821931	-0.570826	0.088775
N64	N	1.321931	-0.070826	0.588775
C65	C	0.000100	-0.659198	0.082726
C66	C	0.500100	-0.159198	0.582726
C67	C	0.000105	-0.712857	0.083505
C68	C	0.500105	-0.212857	0.583505
C69	C	0.068330	-0.096024	0.089124
C70	C	0.568330	0.403976	0.589124
C71	C	0.068339	0.105643	0.086162
C72	C	0.568339	0.605643	0.586162
O73	O	0.126375	0.131724	0.085747
O74	O	0.626375	0.631724	0.585747
N75	N	0.000099	0.130852	0.085797
N76	N	0.500099	0.630852	0.585797
C77	C	-0.068148	0.105640	0.086168
C78	C	0.431852	0.605640	0.586168
O79	O	-0.126190	0.131708	0.085782
O80	O	0.373810	0.631708	0.585782
C81	C	-0.068156	-0.096026	0.089125
C82	C	0.431844	0.403974	0.589125
C83	C	0.000088	-0.121232	0.089497
C84	C	0.500088	0.378768	0.589497
C85	C	0.136569	-0.121229	0.089496
C86	C	0.636569	0.378771	0.589496
C87	C	0.136566	-0.171642	0.090240
C88	C	0.636566	0.328358	0.590240
C89	C	0.068324	-0.196850	0.090613
C90	C	0.568324	0.303150	0.590613
C91	C	0.000085	-0.171645	0.090242
C92	C	0.500085	0.328355	0.590242
C93	C	-0.136403	-0.121238	0.089491
C94	C	0.363597	0.378762	0.589491
C95	C	-0.136399	-0.171658	0.090229
C96	C	0.363601	0.328342	0.590229
C97	C	-0.068154	-0.196863	0.090601
C98	C	0.431846	0.303137	0.590601
C99	C	-0.068160	-0.247266	0.091359
C100	C	0.431840	0.252734	0.591359
N101	N	0.000081	-0.272475	0.091724
N102	N	0.500081	0.227525	0.591724
C103	C	0.068323	-0.247267	0.091351
C104	C	0.568323	0.252733	0.591351
C105	C	-0.068139	0.211518	0.084616
C106	C	0.431861	0.711518	0.584616
C107	C	-0.068137	0.261935	0.083878
C108	C	0.431863	0.761935	0.583878
C109	C	0.068351	0.261934	0.083871
C110	C	0.568351	0.761934	0.583871
C111	C	0.068348	0.211517	0.084614
C112	C	0.568348	0.711517	0.584614
C113	C	0.000101	0.186310	0.084982
C114	C	0.500101	0.686310	0.584982
C115	C	0.068311	-0.353139	0.092915
C116	C	0.568311	0.146861	0.592915
C117	C	0.068302	-0.403556	0.093662
C118	C	0.568302	0.096444	0.593662
C119	C	-0.068185	-0.403552	0.093666
C120	C	0.431815	0.096448	0.593666
C121	C	-0.068176	-0.353138	0.092922
C122	C	0.431824	0.146862	0.592922
C123	C	0.000078	-0.327933	0.092544
C124	C	0.500078	0.172067	0.592544
O125	O	-0.126165	-0.273378	0.091767
O126	O	0.373835	0.226622	0.591767
O127	O	0.126356	-0.273345	0.091722
O128	O	0.626356	0.226655	0.591722
C129	C	0.068333	-0.045610	0.088380
C130	C	0.568333	0.454390	0.588380
C131	C	0.000094	-0.020405	0.088009
C132	C	0.500094	0.479595	0.588009
C133	C	-0.068148	-0.045613	0.088382
C134	C	0.431852	0.454387	0.588382
C135	C	0.000096	0.030012	0.087271
C136	C	0.500096	0.530012	0.587271
C137	C	0.068338	0.055220	0.086898
C138	C	0.568338	0.555220	0.586898
C139	C	0.136578	0.030011	0.087263
C140	C	0.636578	0.530011	0.587263
C141	C	0.136575	-0.020402	0.088007
C142	C	0.636575	0.479598	0.588007
C143	C	-0.136388	-0.020404	0.088016
C144	C	0.363612	0.479596	0.588016
C145	C	-0.136379	0.030009	0.087273
C146	C	0.363621	0.530009	0.587273
C147	C	-0.068137	0.055217	0.086900
C148	C	0.431863	0.555217	0.586900
C149	C	0.000122	-0.617513	-0.160341
C150	C	0.500122	-0.117513	0.339659
C151	C	0.000110	-0.616774	-0.232783
C152	C	0.500110	-0.116774	0.267217
C153	C	0.000101	-0.572352	-0.260241
C154	C	0.500101	-0.072352	0.239759
C155	C	0.000085	-0.528664	-0.215250
C156	C	0.500085	-0.028664	0.284750
C157	C	0.000090	-0.529403	-0.142809
C158	C	0.500090	-0.029403	0.357191
C159	C	0.043945	-0.537426	-0.368303
C160	C	0.543945	-0.037426	0.131697
C161	C	0.043946	-0.536688	-0.440742
C162	C	0.543946	-0.036688	0.059258
C163	C	0.000084	-0.570069	-0.483672
C164	C	0.500084	-0.070069	0.016328
C165	C	-0.043768	-0.604196	-0.454154
C166	C	0.456232	-0.104196	0.045846
C167	C	-0.043764	-0.604936	-0.381713
C168	C	0.456236	-0.104936	0.118287
C169	C	0.000096	-0.571545	-0.338790
C170	C	0.500096	-0.071545	0.161210
C171	C	0.000082	-0.612954	-0.607203
C172	C	0.500082	-0.112954	-0.107203
C173	C	0.000065	-0.612214	-0.679647
C174	C	0.500065	-0.112214	-0.179647
C175	C	0.000048	-0.524102	-0.662112
C176	C	0.500048	-0.024102	-0.162112
C177	C	0.000057	-0.524844	-0.589671
C178	C	0.500057	-0.024844	-0.089671
C179	C	0.000077	-0.569271	-0.562221
C180	C	0.500077	-0.069271	-0.062221
C181	C	0.000066	-0.567005	0.215802
C182	C	0.500066	-0.067005	0.715802
C183	C	0.000055	-0.567791	0.292900
C184	C	0.500055	-0.067791	0.792900
H185	H	0.185571	-0.630621	0.002470
H186	H	0.685571	-0.130621	0.502470
H187	H	0.000076	-0.492495	-0.237611
H188	H	0.500076	0.007505	0.262389
H189	H	0.185552	-0.510965	0.175059
H190	H	0.685552	-0.010965	0.675059
H191	H	0.192143	0.050545	0.086963
H192	H	0.692143	0.550545	0.586963
H193	H	0.123878	-0.424076	0.093968
H194	H	0.623878	0.075924	0.593968
N195	N	-0.091063	-0.641738	-0.349877
N196	N	0.408937	-0.141738	0.150123
H197	H	-0.084402	-0.637140	-0.297473
H198	H	0.415598	-0.137140	0.202527
H199	H	-0.074659	-0.675602	-0.369306
H200	H	0.425341	-0.175602	0.130694
N201	N	-0.141780	-0.325948	0.092535
N202	N	0.358220	0.174052	0.592535
H203	H	-0.185011	-0.349569	0.092888
H204	H	0.314989	0.150431	0.592888
H205	H	-0.144748	-0.309048	0.049149
H206	H	0.355252	0.190952	0.549149
H207	H	-0.123746	-0.424085	0.093972
H208	H	0.376254	0.075915	0.593972
H209	H	0.428580	-0.559051	0.203669
H210	H	0.928580	-0.059051	0.703669
N211	N	0.091235	-0.499878	-0.472573
N212	N	0.591235	0.000122	0.027427
H213	H	0.084580	-0.504475	-0.524978
H214	H	0.584580	-0.004475	-0.024978
H215	H	0.145945	-0.504515	-0.460820
H216	H	0.645945	-0.004515	0.039180
H217	H	-0.123709	0.282454	0.083586
H218	H	0.376291	0.782454	0.583586
H219	H	0.192147	-0.040920	0.088310
H220	H	0.692147	0.459080	0.588310
N221	N	-0.209991	0.057193	0.086874
N222	N	0.290009	0.557193	0.586874
H223	H	-0.253219	0.033568	0.087220
H224	H	0.246781	0.533568	0.587220
H225	H	-0.212953	0.074090	0.043487
H226	H	0.287047	0.574090	0.543487
N227	N	0.338920	-0.502264	0.187642
N228	N	0.838920	-0.002264	0.687642
H229	H	0.325219	-0.467976	0.179987
H230	H	0.825219	0.032024	0.679987
H231	H	0.394805	-0.507314	0.180404
H232	H	0.894805	-0.007314	0.680404
H233	H	-0.079485	-0.631379	-0.489106
H234	H	0.420515	-0.131379	0.010894
H235	H	0.000095	-0.649129	-0.584853
H236	H	0.500095	-0.149129	-0.084853
N237	N	0.000122	-0.665429	-0.130737
N238	N	0.500122	-0.165429	0.369263
H239	H	0.000120	-0.659271	-0.078020
H240	H	0.500120	-0.159271	0.421980
H241	H	0.046532	-0.684536	-0.147234
H242	H	0.546532	-0.184536	0.352766
N243	N	0.091275	-0.501428	-0.322007
N244	N	0.591275	-0.001428	0.177993
H245	H	0.084627	-0.507075	-0.271638
H246	H	0.584627	-0.007075	0.228362
H247	H	0.074884	-0.467302	-0.327894
H248	H	0.574884	0.032698	0.172106
H249	H	-0.191960	-0.040924	0.088318
H250	H	0.308040	0.459076	0.588318
N251	N	0.141927	-0.325959	0.092507
N252	N	0.641927	0.174041	0.592507
H253	H	0.185147	-0.349627	0.092381
H254	H	0.685147	0.150373	0.592381
H255	H	0.145120	-0.301249	0.135514
H256	H	0.645120	0.198751	0.635514
N257	N	0.000121	-0.663890	-0.281310
N258	N	0.500121	-0.163890	0.218690
H259	H	0.000133	-0.692146	-0.252928
H260	H	0.500133	-0.192146	0.247072
H261	H	0.046530	-0.665492	-0.311756
H262	H	0.546530	-0.165492	0.188244
H263	H	0.000070	-0.647787	-0.716270
H264	H	0.500070	-0.147787	-0.216270
H265	H	0.192143	-0.100710	0.089191
H266	H	0.692143	0.399290	0.589191
H267	H	-0.123717	0.190999	0.084915
H268	H	0.376283	0.690999	0.584915
H269	H	-0.191975	-0.100724	0.089187
H270	H	0.308025	0.399276	0.589187
H271	H	0.000080	-0.493831	-0.106185
H272	H	0.500080	0.006169	0.393815
N273	N	0.581948	-0.557351	0.220406
N274	N	1.081948	-0.057351	0.720406
H275	H	0.568218	-0.584150	0.249100
H276	H	1.068218	-0.084150	0.749100
H277	H	0.568216	-0.524865	0.247023
H278	H	1.068216	-0.024865	0.747023
H279	H	0.814603	-0.511003	0.175073
H280	H	1.314603	-0.011003	0.675073
N281	N	0.000030	-0.476188	-0.691717
N282	N	0.500030	0.023812	-0.191717
H283	H	0.000026	-0.482347	-0.744433
H284	H	0.500026	0.017653	-0.244433
H285	H	0.046435	-0.457073	-0.675238
H286	H	0.546435	0.042927	-0.175238
H287	H	0.000051	-0.489273	-0.553046
H288	H	0.500051	0.010727	-0.053046
H289	H	0.671642	-0.510997	0.175073
H290	H	1.171642	-0.010997	0.675073
H291	H	0.328528	-0.630626	0.002469
H292	H	0.828528	-0.130626	0.502469
N293	N	0.141952	0.184331	0.085007
N294	N	0.641952	0.684331	0.585007
H295	H	0.144989	0.167427	0.128387
H296	H	0.644989	0.667427	0.628387
H297	H	0.185137	0.207982	0.084633
H298	H	0.685137	0.707982	0.584633
N299	N	-0.210009	-0.198846	0.090620
N300	N	0.289991	0.301154	0.590620
H301	H	-0.253236	-0.175225	0.090271
H302	H	0.246764	0.324775	0.590271
H303	H	-0.212997	-0.215748	0.134003
H304	H	0.287003	0.284252	0.634003
N305	N	0.141955	0.289129	0.083470
N306	N	0.641955	0.789129	0.583470
H307	H	0.131596	0.324975	0.083902
H308	H	0.631596	0.824975	0.583902
H309	H	0.171310	0.276758	0.040041
H310	H	0.671310	0.776758	0.540041
N311	N	0.210178	-0.198820	0.090638
N312	N	0.710178	0.301180	0.590638
H313	H	0.240014	-0.194056	0.047432
H314	H	0.740014	0.305944	0.547432
H315	H	0.199775	-0.234574	0.091191
H316	H	0.699775	0.265426	0.591191
N317	N	0.418214	-0.584274	-0.042858
N318	N	0.918214	-0.084274	0.457142
H319	H	0.455138	-0.588378	-0.082977
H320	H	0.955138	-0.088378	0.417023
H321	H	0.385529	-0.554916	-0.046614
H322	H	0.885529	-0.054916	0.453386
H323	H	0.671660	-0.630647	0.002476
H324	H	1.171660	-0.130647	0.502476
N325	N	0.582004	-0.584282	-0.042862
N326	N	1.082004	-0.084282	0.457138
H327	H	0.637900	-0.583300	-0.033253
H328	H	1.137900	-0.083300	0.466747
H329	H	0.568240	-0.557473	-0.071517
H330	H	1.068240	-0.057473	0.428483
H331	H	0.814617	-0.630647	0.002473
H332	H	1.314617	-0.130647	0.502473
