data_functionalizedCrystal
_audit_creation_method	'MofGen! by Chris Wilmer'
_symmetry_space_group_name_H-M	'P1'
_symmetry_Int_Tables_number	1
_symmetry_cell_setting	triclinic
loop_
_symmetry_equiv_pos_as_xyz
  x,y,z
_cell_length_a	15.944545
_cell_length_b	17.699083
_cell_length_c	16.176319
_cell_angle_alpha	90.000237
_cell_angle_beta	89.994591
_cell_angle_gamma	96.610406
loop_
_atom_site_label
_atom_site_type_symbol
_atom_site_fract_x
_atom_site_fract_y
_atom_site_fract_z
O1	O	0.106218	-1.004257	-0.068634
O2	O	0.606218	-0.504257	0.431366
O3	O	0.120038	-0.783902	-0.068662
O4	O	0.620038	-0.283902	0.431338
O5	O	-0.009160	-0.900100	-0.068638
O6	O	0.490840	-0.400100	0.431362
O7	O	0.235416	-0.888060	-0.068659
O8	O	0.735416	-0.388060	0.431341
O9	O	-0.009160	-0.900085	0.068855
O10	O	0.490840	-0.400085	0.568855
O11	O	0.120038	-0.783888	0.068831
O12	O	0.620038	-0.283888	0.568831
O13	O	0.106218	-1.004243	0.068859
O14	O	0.606218	-0.504243	0.568859
Cu15	Cu	0.113128	-0.894064	0.081399
Cu16	Cu	0.613128	-0.394064	0.581399
Cu17	Cu	0.113128	-0.894081	-0.081203
Cu18	Cu	0.613128	-0.394081	0.418797
O19	O	0.235416	-0.888045	0.068834
O20	O	0.735416	-0.388045	0.568834
C21	C	0.119543	-0.755697	0.000081
C22	C	0.619543	-0.255697	0.500081
C23	C	0.118057	-0.671677	0.000071
C24	C	0.618057	-0.171677	0.500071
C25	C	-0.040453	-0.899593	0.000110
C26	C	0.459547	-0.399593	0.500110
C27	C	-0.133696	-0.898097	0.000112
C28	C	0.366304	-0.398097	0.500112
C29	C	0.106713	-1.032448	0.000114
C30	C	0.606713	-0.532448	0.500114
C31	C	0.108199	-1.116468	0.000118
C32	C	0.608199	-0.616468	0.500118
C33	C	-0.404168	-0.821603	0.000085
C34	C	0.095832	-0.321603	0.500085
C35	C	-0.353660	-0.858490	-0.067702
C36	C	0.146340	-0.358490	0.432298
C37	C	-0.469329	-0.892763	0.000088
C38	C	0.030671	-0.392763	0.500088
C39	C	-0.353687	-0.858494	0.067856
C40	C	0.146313	-0.358494	0.567856
C41	C	-0.304421	-0.895380	0.000101
C42	C	0.195579	-0.395380	0.500101
C43	C	-0.420049	-0.929630	-0.067756
C44	C	0.079951	-0.429630	0.432244
C45	C	-0.420079	-0.929625	0.067863
C46	C	0.079921	-0.429625	0.567863
C47	C	-0.369604	-0.966563	0.000059
C48	C	0.130396	-0.466563	0.500059
C49	C	-0.564328	-0.891253	0.000079
C50	C	-0.064328	-0.391253	0.500079
C51	C	-0.209424	-0.896895	0.000103
C52	C	0.290576	-0.396895	0.500103
C53	C	0.266709	-0.888552	0.000085
C54	C	0.766709	-0.388552	0.500085
C55	C	0.359952	-0.890048	0.000078
C56	C	0.859952	-0.390048	0.500078
N57	N	0.113128	-0.894058	0.195764
N58	N	0.613128	-0.394058	0.695764
C59	C	0.193894	-0.623184	0.000065
C60	C	0.693894	-0.123184	0.500065
C61	C	0.192493	-0.544238	0.000075
C62	C	0.692493	-0.044238	0.500075
C63	C	0.115255	-0.513787	0.000087
C64	C	0.615255	-0.013787	0.500087
C65	C	0.039412	-0.562286	0.000095
C66	C	0.539412	-0.062286	0.500095
C67	C	0.040814	-0.641230	0.000091
C68	C	0.540814	-0.141230	0.500091
C69	C	0.033758	-0.243913	0.000116
C70	C	0.533758	0.256087	0.500116
C71	C	0.032362	-0.164963	0.000119
C72	C	0.532362	0.335037	0.500119
C73	C	0.185436	-0.146921	0.000101
C74	C	0.685436	0.353079	0.500101
C75	C	0.186838	-0.225865	0.000096
C76	C	0.686838	0.274135	0.500096
C77	C	0.110996	-0.274358	0.000110
C78	C	0.610996	0.225642	0.500110
C79	C	0.112516	-0.359959	0.000099
C80	C	0.612516	0.140041	0.500099
C81	C	0.113734	-0.428187	0.000091
C82	C	0.613734	0.071813	0.500091
C83	C	0.164011	-0.939958	0.239026
C84	C	0.664011	-0.439958	0.739026
C85	C	0.164008	-0.939966	0.325573
C86	C	0.664008	-0.439966	0.825573
C87	C	0.113126	-0.894068	0.368857
C88	C	0.613126	-0.394068	0.868857
C89	C	0.062237	-0.848166	0.325589
C90	C	0.562237	-0.348166	0.825589
C91	C	0.062236	-0.848163	0.239043
C92	C	0.562236	-0.348163	0.739043
C93	C	0.062239	-0.848178	0.674617
C94	C	0.562239	-0.348178	1.174617
C95	C	0.062246	-0.848183	0.761169
C96	C	0.562246	-0.348183	1.261169
C97	C	0.164011	-0.939981	0.761147
C98	C	0.664011	-0.439981	1.261147
C99	C	0.164010	-0.939978	0.674602
C100	C	0.664010	-0.439978	1.174602
C101	C	0.113118	-0.894079	0.631341
C102	C	0.613118	-0.394079	1.131341
C103	C	0.113121	-0.894072	0.537497
C104	C	0.613121	-0.394072	1.037497
C105	C	0.113127	-0.894071	0.462700
C106	C	0.613127	-0.394071	0.962700
N107	N	0.113125	-0.894088	0.804432
N108	N	0.613125	-0.394088	1.304432
H109	H	-0.419691	-0.760319	0.000012
H110	H	0.080309	-0.260319	0.500012
H111	H	-0.324662	-0.828443	-0.125018
H112	H	0.175338	-0.328443	0.374982
C113	C	-0.049665	-0.297245	0.000125
C114	C	0.450335	0.202755	0.500125
H115	H	-0.095863	-0.267800	0.000124
H116	H	0.404137	0.232200	0.500124
H117	H	-0.052302	-0.328417	0.048071
H118	H	0.447698	0.171583	0.548071
H119	H	-0.052302	-0.328414	-0.047828
H120	H	0.447698	0.171586	0.452172
H121	H	-0.354242	-1.027895	0.000029
H122	H	0.145758	-0.527895	0.500029
H123	H	0.247190	-0.107429	0.000095
H124	H	0.747190	0.392571	0.500095
C125	C	-0.045548	-0.528792	0.000106
C126	C	0.454452	-0.028792	0.500106
H127	H	-0.035523	-0.474830	0.000099
H128	H	0.464477	0.025170	0.500099
H129	H	-0.076768	-0.545438	0.048055
H130	H	0.423232	-0.045438	0.548055
H131	H	-0.076764	-0.545437	-0.047845
H132	H	0.423236	-0.045437	0.452155
H133	H	-0.448918	-0.959666	-0.125128
H134	H	0.051082	-0.459666	0.374872
C135	C	-0.459283	-0.970176	0.145293
C136	C	0.040717	-0.470176	0.645293
H137	H	-0.436448	-0.944804	0.193414
H138	H	0.063552	-0.444804	0.693414
H139	H	-0.446851	-1.021390	0.145788
H140	H	0.053149	-0.521390	0.645788
H141	H	-0.518744	-0.969333	0.144457
H142	H	-0.018744	-0.469333	0.644457
C143	C	-0.052604	-0.131468	0.000139
C144	C	0.447396	0.368532	0.500139
H145	H	-0.097572	-0.171654	0.000155
H146	H	0.402428	0.328346	0.500155
H147	H	-0.056337	-0.101046	-0.047805
H148	H	0.443663	0.398954	0.452195
H149	H	-0.056322	-0.101048	0.048095
H150	H	0.443678	0.398952	0.548095
H151	H	-0.324710	-0.828424	0.125163
H152	H	0.175290	-0.328424	0.625163
H153	H	0.205446	-0.977350	0.639364
H154	H	0.705446	-0.477350	1.139364
C155	C	0.278854	-0.656677	0.000050
C156	C	0.778854	-0.156677	0.500050
H157	H	0.268831	-0.710638	0.000040
H158	H	0.768831	-0.210638	0.500040
H159	H	0.310075	-0.640034	0.047993
H160	H	0.810075	-0.140034	0.547993
H161	H	0.310070	-0.640027	-0.047906
H162	H	0.810070	-0.140027	0.452094
C163	C	0.275913	-0.490899	0.000066
C164	C	0.775913	0.009101	0.500066
H165	H	0.322113	-0.520341	0.000048
H166	H	0.822113	-0.020341	0.500048
H167	H	0.278553	-0.459730	0.048015
H168	H	0.778553	0.040270	0.548015
H169	H	0.278545	-0.459725	-0.047885
H170	H	0.778545	0.040275	0.452115
H171	H	0.249733	-0.250654	0.000083
H172	H	0.749733	0.249346	0.500083
H173	H	-0.020940	-0.680713	0.000095
H174	H	0.479060	-0.180713	0.500095
C175	C	0.219977	-0.990450	0.191422
C176	C	0.719977	-0.490450	0.691422
H177	H	0.250273	-1.017794	0.229586
H178	H	0.750273	-0.517794	0.729586
H179	H	0.258680	-0.959440	0.157655
H180	H	0.758680	-0.459440	0.657655
H181	H	0.185497	-1.025283	0.157666
H182	H	0.685497	-0.525283	0.657666
H183	H	0.205440	-0.977344	0.360793
H184	H	0.705440	-0.477344	0.860793
H185	H	0.020809	-0.810806	0.796408
H186	H	0.520809	-0.310806	1.296408
C187	C	0.219984	-0.990477	0.808736
C188	C	0.719984	-0.490477	1.308736
H189	H	0.212693	-0.983915	0.866478
H190	H	0.712693	-0.483915	1.366478
H191	H	0.277475	-0.976412	0.794547
H192	H	0.777475	-0.476412	1.294547
H193	H	0.204301	-1.042262	0.794548
H194	H	0.704301	-0.542262	1.294548
H195	H	0.020800	-0.810805	0.639405
H196	H	0.520800	-0.310805	1.139405
C197	C	0.006269	-0.797679	0.373198
C198	C	0.506269	-0.297679	0.873198
H199	H	0.013564	-0.804247	0.430938
H200	H	0.513564	-0.304247	0.930938
H201	H	-0.051224	-0.811739	0.359023
H202	H	0.448776	-0.311739	0.859023
H203	H	0.021955	-0.745893	0.359013
H204	H	0.521955	-0.245893	0.859013
H205	H	0.020802	-0.810786	0.203821
H206	H	0.520802	-0.310786	0.703821
