data_functionalizedCrystal
_audit_creation_method	'MofGen! by Chris Wilmer'
_symmetry_space_group_name_H-M	'P1'
_symmetry_Int_Tables_number	1
_symmetry_cell_setting	triclinic
loop_
_symmetry_equiv_pos_as_xyz
  x,y,z
_cell_length_a	10.654550
_cell_length_b	23.532407
_cell_length_c	9.730223
_cell_angle_alpha	89.990960
_cell_angle_beta	89.999957
_cell_angle_gamma	83.666804
loop_
_atom_site_label
_atom_site_type_symbol
_atom_site_fract_x
_atom_site_fract_y
_atom_site_fract_z
O1	O	1.665305	0.079985	-0.114203
O2	O	1.299585	0.087605	-0.114230
O3	O	1.493473	0.000935	-0.114191
O4	O	1.471417	0.166655	-0.114242
O5	O	1.493461	0.000933	0.114389
O6	O	1.299573	0.087603	0.114350
O7	O	1.665293	0.079982	0.114377
Zn8	Zn	1.482431	0.083792	0.150655
Zn9	Zn	1.482447	0.083795	-0.150508
O10	O	1.471404	0.166652	0.114337
C11	C	1.252799	0.087044	0.000057
C12	C	1.113408	0.085370	0.000048
C13	C	1.492905	-0.020286	0.000103
C14	C	1.491217	-0.083514	0.000113
C15	C	1.032306	0.136400	0.000036
C16	C	0.901335	0.134824	0.000060
C17	C	0.932582	0.031183	0.000103
C18	C	1.063550	0.032760	0.000089
C19	C	1.595364	-0.481938	0.000046
C20	C	1.593795	-0.541349	0.000035
O21	O	1.690341	-0.577464	-0.000009
N22	N	1.478529	-0.564726	0.000028
C23	C	1.364824	-0.528689	0.000017
O24	O	1.266636	-0.554029	0.000008
C25	C	1.366394	-0.469280	0.000018
C26	C	1.481668	-0.445906	0.000039
C27	C	1.710629	-0.458564	0.000066
C28	C	1.712197	-0.399158	0.000079
C29	C	1.598500	-0.363126	0.000072
C30	C	1.483236	-0.386500	0.000052
C31	C	1.252690	-0.433244	-0.000003
C32	C	1.254270	-0.373831	-0.000003
C33	C	1.369544	-0.350458	0.000018
C34	C	1.371107	-0.291061	0.000058
N35	N	1.486374	-0.267684	0.000066
C36	C	1.600070	-0.303716	0.000073
C37	C	1.361535	-0.653453	0.000013
C38	C	1.359964	-0.712861	0.000022
C39	C	1.588936	-0.725517	0.000038
C40	C	1.590506	-0.666108	0.000038
C41	C	1.476802	-0.630076	0.000020
C42	C	1.603355	-0.178958	0.000101
C43	C	1.604913	-0.119546	0.000120
C44	C	1.375942	-0.106896	0.000097
C45	C	1.374383	-0.166303	0.000086
C46	C	1.488100	-0.202333	0.000083
O47	O	1.274613	-0.254911	0.000096
O48	O	1.698241	-0.278369	0.000063
C49	C	1.712079	0.080543	0.000087
C50	C	1.851469	0.082217	0.000087
C51	C	1.471972	0.187873	0.000041
C52	C	1.473661	0.251101	0.000022
N53	N	1.482429	0.083790	0.356192
N54	N	1.482459	0.083793	-0.356045
C55	C	1.568311	0.045429	0.428135
C56	C	1.568324	0.045429	0.572018
C57	C	1.396567	0.122156	0.572002
C58	C	1.396550	0.122153	0.428121
H59	H	0.835306	0.176378	0.000053
H60	H	1.698787	-0.100519	0.000141
C61	C	1.125890	-0.458945	-0.000043
H62	H	1.141218	-0.499488	-0.000039
H63	H	1.079129	-0.446596	-0.079764
H64	H	1.079097	-0.446612	0.079668
H65	H	1.072896	0.179239	0.000013
H66	H	1.326608	0.153391	0.369541
C67	C	1.714001	-0.765160	0.000019
H68	H	1.696547	-0.803888	-0.000003
H69	H	1.761311	-0.758037	0.079727
H70	H	1.761289	-0.758017	-0.079704
H71	H	1.695954	-0.208288	0.000094
C72	C	1.662791	0.003233	0.651157
H73	H	1.650496	0.008723	0.747149
H74	H	1.746515	0.009771	0.627565
H75	H	1.649624	-0.034834	0.627593
C76	C	1.302120	0.164358	0.651128
H77	H	1.314438	0.158870	0.747123
H78	H	1.218389	0.157821	0.627569
H79	H	1.315286	0.202423	0.627521
H80	H	1.806065	-0.380133	0.000090
H81	H	0.891971	-0.011650	0.000144
C82	C	1.233166	-0.738569	0.000014
H83	H	1.248503	-0.779112	0.000018
H84	H	1.186389	-0.726222	-0.079697
H85	H	1.186386	-0.726237	0.079735
C86	C	1.152769	-0.023375	0.000096
H87	H	1.104320	-0.054934	0.000102
H88	H	1.204518	-0.024914	0.079800
H89	H	1.204499	-0.024912	-0.079631
C90	C	1.835706	-0.498191	0.000084
H91	H	1.904567	-0.475753	0.000106
H92	H	1.839880	-0.521628	-0.079621
H93	H	1.839849	-0.521631	0.079811
H94	H	1.638237	0.014190	0.369574
C95	C	1.717305	-0.640402	0.000049
H96	H	1.784788	-0.670375	0.000046
H97	H	1.722681	-0.617493	0.079757
H98	H	1.722686	-0.617487	-0.079675
H99	H	1.268937	-0.624119	0.000010
H100	H	1.161675	-0.344497	-0.000020
H101	H	1.280517	-0.185334	0.000106
H102	H	1.283373	-0.077548	0.000097
