data_functionalizedCrystal
_audit_creation_method	'MofGen! by Chris Wilmer'
_symmetry_space_group_name_H-M	'P1'
_symmetry_Int_Tables_number	1
_symmetry_cell_setting	triclinic
loop_
_symmetry_equiv_pos_as_xyz
  x,y,z
_cell_length_a	16.974897
_cell_length_b	16.992696
_cell_length_c	15.455283
_cell_angle_alpha	92.849652
_cell_angle_beta	83.361580
_cell_angle_gamma	92.973182
loop_
_atom_site_label
_atom_site_type_symbol
_atom_site_fract_x
_atom_site_fract_y
_atom_site_fract_z
O1	O	1.062095	-0.106243	-0.146627
O2	O	0.831964	-0.118270	-0.130493
O3	O	0.946106	0.001889	-0.138471
O4	O	0.947954	-0.226402	-0.138648
O5	O	0.939538	0.008068	0.006254
O6	O	0.825396	-0.112092	0.014232
O7	O	1.055527	-0.100064	-0.001902
Cu8	Cu	0.939862	-0.105514	0.019380
Cu9	Cu	0.947630	-0.112821	-0.151774
O10	O	0.941386	-0.220223	0.006076
C11	C	0.799098	-0.114607	-0.056056
C12	C	0.710950	-0.112886	-0.049875
C13	C	0.673111	-0.115448	-0.125854
C14	C	0.590285	-0.113843	-0.120034
C15	C	0.545301	-0.109671	-0.038233
C16	C	0.583145	-0.107112	0.037752
C17	C	0.665969	-0.108722	0.031931
C18	C	0.297211	-0.104500	-0.012363
C19	C	0.214382	-0.102887	-0.006548
C20	C	0.221527	-0.109620	-0.164334
C21	C	0.304352	-0.111225	-0.170148
C22	C	0.342189	-0.108670	-0.094163
N23	N	0.460640	-0.108029	-0.032282
N24	N	0.426848	-0.110318	-0.100116
C25	C	0.940448	0.034196	-0.065938
C26	C	0.933365	0.121254	-0.065428
C27	C	1.001697	0.171361	-0.070211
C28	C	0.995037	0.253160	-0.069740
C29	C	0.920046	0.284853	-0.064480
C30	C	0.851709	0.234740	-0.059699
C31	C	0.858369	0.152941	-0.060177
C32	C	0.892442	0.528506	-0.062520
C33	C	0.885786	0.610311	-0.062040
C34	C	1.029116	0.628726	-0.072082
C35	C	1.035769	0.546925	-0.072554
C36	C	0.967433	0.496819	-0.067778
N37	N	0.913237	0.368465	-0.063996
N38	N	0.974243	0.413208	-0.068269
C39	C	1.088394	-0.103728	-0.076340
C40	C	1.176542	-0.105449	-0.082527
C41	C	0.947041	0.747471	-0.066421
C42	C	0.954118	0.660417	-0.066823
N43	N	0.953093	-0.117954	-0.272155
C44	C	0.904139	-0.072102	-0.314100
C45	C	0.908281	-0.075963	-0.405199
C46	C	0.961373	-0.125681	-0.454352
C47	C	1.010332	-0.171535	-0.412401
C48	C	1.006194	-0.167669	-0.321303
C49	C	0.979225	-0.142362	-0.727191
C50	C	0.983359	-0.146226	-0.818295
C51	C	0.881308	-0.050653	-0.811087
C52	C	0.877171	-0.046795	-0.719988
C53	C	0.926133	-0.092646	-0.678045
N54	N	0.965606	-0.129630	-0.547471
N55	N	0.921903	-0.088692	-0.584928
N56	N	0.934405	-0.100374	0.139760
H57	H	0.709731	-0.118842	-0.192465
H58	H	1.084751	0.669530	-0.075972
N59	N	0.338005	-0.101743	0.069595
H60	H	0.325374	-0.051420	0.104872
H61	H	0.397287	-0.103432	0.053437
H62	H	1.046057	-0.205007	-0.287153
N63	N	0.818738	0.474472	-0.057367
H64	H	0.815868	0.442412	-0.003695
H65	H	0.820789	0.437884	-0.111033
N66	N	1.116649	0.512733	-0.078249
H67	H	1.120176	0.481495	-0.025026
H68	H	1.158888	0.556923	-0.081244
N69	N	0.534631	-0.102620	0.125981
H70	H	0.476355	-0.103054	0.118152
H71	H	0.550147	-0.052341	0.158733
H72	H	0.790649	0.260550	-0.055422
H73	H	0.559480	-0.115929	-0.181904
H74	H	0.841447	-0.013323	-0.845247
H75	H	0.696776	-0.106640	0.093801
H76	H	0.802726	0.112145	-0.056282
N77	N	0.846875	-0.018478	-0.261088
H78	H	0.816494	0.009986	-0.301488
H79	H	0.877384	0.021317	-0.225531
N80	N	1.082583	0.137184	-0.075876
H81	H	1.115190	0.153149	-0.131638
H82	H	1.076367	0.077769	-0.075411
H83	H	0.868420	-0.038623	-0.439347
N84	N	0.352870	-0.115713	-0.258376
H85	H	0.316331	-0.117089	-0.305627
H86	H	0.384050	-0.165095	-0.264011
N87	N	0.819914	0.006838	-0.666979
H88	H	0.824720	0.002328	-0.602904
H89	H	0.763910	-0.009079	-0.678934
H90	H	1.026591	-0.186718	-0.858313
N91	N	1.068737	0.307205	-0.074893
H92	H	1.117254	0.274716	-0.078290
H93	H	1.066653	0.343838	-0.021261
N94	N	0.804899	0.644496	-0.056368
H95	H	0.762618	0.600343	-0.053418
H96	H	0.801457	0.675743	-0.109602
H97	H	1.019093	-0.179698	-0.693052
H98	H	1.053565	-0.212012	-0.452429
H99	H	0.190711	-0.111701	-0.226197
H100	H	0.177755	-0.099512	0.060067
