data_functionalizedCrystal
_audit_creation_method	'MofGen! by Chris Wilmer'
_symmetry_space_group_name_H-M	'P1'
_symmetry_Int_Tables_number	1
_symmetry_cell_setting	triclinic
loop_
_symmetry_equiv_pos_as_xyz
  x,y,z
_cell_length_a	16.959454
_cell_length_b	11.169417
_cell_length_c	11.169409
_cell_angle_alpha	89.980176
_cell_angle_beta	89.967057
_cell_angle_gamma	90.020954
loop_
_atom_site_label
_atom_site_type_symbol
_atom_site_fract_x
_atom_site_fract_y
_atom_site_fract_z
Zn1	Zn	-0.314599	1.834881	-0.678538
Zn2	Zn	-0.446806	1.834736	-0.477852
Zn3	Zn	-0.314647	1.634167	-0.477872
Zn4	Zn	-0.446741	1.634140	-0.678497
O5	O	-0.380698	1.734481	-0.578190
O6	O	-0.332143	2.002812	-0.651925
O7	O	-0.429322	1.808081	-0.309905
O8	O	-0.204030	1.660864	-0.504516
O9	O	-0.429275	2.002705	-0.504482
O10	O	-0.203995	1.808328	-0.651944
O11	O	-0.332225	1.660724	-0.309920
O12	O	-0.332163	1.466214	-0.504477
O13	O	-0.429165	1.660819	-0.846452
O14	O	-0.429212	1.466194	-0.651875
O15	O	-0.332081	1.808302	-0.846482
O16	O	-0.557408	1.808055	-0.504443
O17	O	-0.557361	1.660678	-0.651856
C18	C	-0.380686	1.422657	-0.578174
C19	C	-0.380700	1.289257	-0.578196
C20	C	-0.586065	1.734381	-0.578169
C21	C	-0.673921	1.734447	-0.578201
C22	C	-1.045402	1.657853	-0.654940
C23	C	-1.045391	1.811443	-0.501562
C24	C	-0.962846	1.811401	-0.501551
C25	C	-0.921574	1.734583	-0.578234
C26	C	-0.962849	1.657807	-0.654928
C27	C	-0.921565	1.888168	-0.424850
C28	C	-0.839014	1.888128	-0.424835
C29	C	-0.797741	1.811315	-0.501525
C30	C	-0.839021	1.734536	-0.578223
C31	C	-0.797749	1.657718	-0.654906
C32	C	-0.839027	1.580944	-0.731611
C33	C	-0.921576	1.580993	-0.731618
C34	C	-0.715193	1.811266	-0.501518
C35	C	-0.715196	1.657671	-0.654895
C36	C	-0.174530	1.734615	-0.578237
C37	C	-0.086674	1.734672	-0.578257
C38	C	-0.380611	1.734573	-0.891232
C39	C	-0.380573	1.734613	-1.024633
C40	C	-0.380711	2.047524	-0.578206
C41	C	-0.380716	2.180924	-0.578213
C42	C	-0.380729	1.734459	-0.266365
C43	C	-0.380543	1.734652	-0.132966
H44	H	-0.681597	1.595120	-0.717344
O45	O	-0.675181	1.885770	-0.426847
C46	C	-0.695400	1.859580	-0.307210
H47	H	-0.755360	1.813479	-0.304692
H48	H	-0.648988	1.797865	-0.266737
C49	C	-0.625542	2.033236	-0.237690
C50	C	-0.699189	1.976623	-0.234597
H51	H	-0.627876	2.105431	-0.192896
H52	H	-0.611917	2.050878	-0.318291
H53	H	-0.586873	1.981794	-0.203964
H54	H	-0.737855	2.028059	-0.268336
H55	H	-0.712821	1.958992	-0.154000
O56	O	-0.961550	1.506379	-0.806232
C57	C	-0.907426	1.438546	-0.873895
H58	H	-0.848556	1.487668	-0.878092
H59	H	-0.898708	1.347412	-0.829865
C60	C	-1.011906	1.360866	-0.996461
C61	C	-0.939603	1.421204	-1.001625
H62	H	-1.031756	1.350163	-1.075249
H63	H	-1.048372	1.406563	-0.950872
H64	H	-1.004632	1.284928	-0.959764
H65	H	-0.946880	1.497146	-1.038307
H66	H	-0.903139	1.375520	-1.047223
O67	O	-1.085406	1.583112	-0.729389
C68	C	-1.065321	1.463494	-0.703035
H69	H	-1.005410	1.460995	-0.656878
H70	H	-1.111832	1.423127	-0.641310
C71	C	-1.135068	1.393805	-0.876666
C72	C	-1.061480	1.390735	-0.819985
H73	H	-1.132701	1.348922	-0.948805
H74	H	-1.148602	1.474393	-0.894420
H75	H	-1.173819	1.360168	-0.825217
H76	H	-1.022732	1.424386	-0.871428
H77	H	-1.047939	1.310150	-0.802242
H78	H	-0.805415	1.518393	-0.794042
H79	H	-1.078999	1.873978	-0.439123
H80	H	-0.955174	1.950700	-0.362410
H81	H	-0.805410	1.950642	-0.362380
