data_functionalizedCrystal
_audit_creation_method	'MofGen! by Chris Wilmer'
_symmetry_space_group_name_H-M	'P1'
_symmetry_Int_Tables_number	1
_symmetry_cell_setting	triclinic
loop_
_symmetry_equiv_pos_as_xyz
  x,y,z
_cell_length_a	28.938199
_cell_length_b	28.937346
_cell_length_c	28.934044
_cell_angle_alpha	60.005004
_cell_angle_beta	60.009897
_cell_angle_gamma	59.994060
loop_
_atom_site_label
_atom_site_type_symbol
_atom_site_fract_x
_atom_site_fract_y
_atom_site_fract_z
O1	O	0.064043	-0.675186	0.564597
O2	O	0.564043	-0.175186	1.064597
O3	O	0.024124	-0.525682	0.454913
O4	O	0.524124	-0.025682	0.954913
O5	O	0.118795	-0.620275	0.454833
O6	O	0.618795	-0.120275	0.954833
O7	O	-0.030629	-0.580593	0.564678
O8	O	0.469371	-0.080593	1.064678
O9	O	0.150204	-0.588870	0.486157
O10	O	0.650204	-0.088870	0.986157
O11	O	0.055533	-0.494276	0.486238
O12	O	0.555533	0.005724	0.986238
O13	O	0.095452	-0.643780	0.595921
O14	O	0.595452	-0.143780	1.095921
Cu15	Cu	0.078360	-0.566161	0.543940
Cu16	Cu	0.578360	-0.066161	1.043940
Cu17	Cu	0.041215	-0.603301	0.506895
Cu18	Cu	0.541215	-0.103301	1.006895
O19	O	0.000780	-0.549187	0.596002
O20	O	0.500780	-0.049187	1.096002
N21	N	0.104487	-0.540042	0.569998
N22	N	0.604487	-0.040042	1.069998
N23	N	0.015094	-0.629425	0.480837
N24	N	0.515094	-0.129425	0.980837
C25	C	0.165467	-0.323909	0.630915
C26	C	0.665467	0.176091	1.130915
C27	C	0.165587	-0.479117	0.786068
C28	C	0.665587	0.020883	1.286068
C29	C	0.165481	-0.479095	0.630906
C30	C	0.665481	0.020905	1.130906
C31	C	0.320696	-0.479083	0.630835
C32	C	0.820696	0.020917	1.130835
C33	C	0.182557	-0.375118	0.647971
C34	C	0.682557	0.124882	1.147971
C35	C	0.182626	-0.462038	0.734858
C36	C	0.682626	0.037962	1.234858
C37	C	0.269485	-0.462018	0.647928
C38	C	0.769485	0.037982	1.147928
C39	C	0.182566	-0.462025	0.647966
C40	C	0.682566	0.037975	1.147966
C41	C	0.143714	-0.258726	0.609206
C42	C	0.643714	0.241274	1.109206
C43	C	0.143738	-0.500820	0.609192
C44	C	0.643738	-0.000820	1.109192
C45	C	0.204309	-0.440300	0.669680
C46	C	0.704309	0.059700	1.169680
C47	C	0.415481	-0.462740	0.580919
C48	C	0.915481	0.037260	1.080919
C49	C	0.474732	-0.482485	0.561145
C50	C	0.974732	0.017515	1.061145
C51	C	0.474757	-0.578356	0.597704
C52	C	0.974757	-0.078356	1.097704
C53	C	0.415508	-0.558609	0.617479
C54	C	0.915508	-0.058609	1.117479
C55	C	0.157989	-0.229089	0.550957
C56	C	0.657989	0.270911	1.050957
C57	C	0.138212	-0.169834	0.531225
C58	C	0.638212	0.330166	1.031225
C59	C	0.089890	-0.169857	0.627992
C60	C	0.589890	0.330143	1.127992
C61	C	0.109667	-0.229112	0.647725
C62	C	0.609667	0.270888	1.147725
C63	C	0.085482	-0.486515	0.623535
C64	C	0.585482	0.013485	1.123535
C65	C	0.065722	-0.506265	0.603789
C66	C	0.565722	-0.006265	1.103789
C67	C	0.162467	-0.554625	0.555370
C68	C	0.662467	-0.054625	1.055370
C69	C	0.182230	-0.534875	0.575110
C70	C	0.682230	-0.034875	1.075110
C71	C	0.085661	-0.486557	0.880902
C72	C	0.585661	0.013443	1.380902
C73	C	0.065952	-0.506323	0.940155
C74	C	0.565952	-0.006323	1.440155
C75	C	0.162734	-0.554693	0.940102
C76	C	0.662734	-0.054693	1.440102
C77	C	0.182441	-0.534928	0.880847
C78	C	0.682441	-0.034928	1.380847
C79	C	0.143904	-0.500859	0.851249
C80	C	0.643904	-0.000859	1.351249
C81	C	0.385871	-0.500801	0.609083
C82	C	0.885871	-0.000801	1.109083
C83	C	-0.110907	-0.668480	0.441278
C84	C	0.389093	-0.168480	0.941278
C85	C	-0.024049	-0.668588	0.441475
C86	C	0.475951	-0.168588	0.941475
C87	C	-0.045729	-0.690282	0.419668
C88	C	0.454271	-0.190282	0.919668
C89	C	-0.062146	-0.785032	0.469507
C90	C	0.437854	-0.285032	0.969507
C91	C	-0.042446	-0.844287	0.489286
C92	C	0.457554	-0.344287	0.989286
C93	C	0.053426	-0.844399	0.452899
C94	C	0.553426	-0.344399	0.952899
C95	C	0.033725	-0.785144	0.433120
C96	C	0.533725	-0.285144	0.933120
C97	C	-0.140617	-0.682751	0.499509
C98	C	0.359383	-0.182751	0.999509
C99	C	-0.199867	-0.662928	0.519152
C100	C	0.300133	-0.162928	1.019152
C101	C	-0.199694	-0.614571	0.422330
C102	C	0.300306	-0.114571	0.922330
C103	C	-0.140443	-0.634393	0.402687
C104	C	0.359557	-0.134393	0.902687
C105	C	-0.038320	-0.610337	0.427144
C106	C	0.461680	-0.110337	0.927144
C107	C	-0.018610	-0.590621	0.446974
C108	C	0.481390	-0.090621	0.946974
C109	C	0.029642	-0.687402	0.495454
C110	C	0.529642	-0.187402	0.995454
C111	C	0.009933	-0.707121	0.475630
C112	C	0.509933	-0.207121	0.975630
C113	C	-0.038148	-0.610347	0.324832
C114	C	0.461852	-0.110347	0.824832
C115	C	-0.018301	-0.590634	0.265579
C116	C	0.481699	-0.090634	0.765579
C117	C	0.030035	-0.687421	0.265643
C118	C	0.530035	-0.187421	0.765643
C119	C	0.010190	-0.707133	0.324897
C120	C	0.510190	-0.207133	0.824897
C121	C	-0.023903	-0.668595	0.354491
C122	C	0.476097	-0.168595	0.854491
C123	C	-0.024062	-0.755463	0.441426
C124	C	0.475938	-0.255463	0.941426
N125	N	0.503527	-0.540005	0.569810
N126	N	1.003527	-0.040005	1.069810
O127	O	0.684453	-0.545211	0.434650
O128	O	1.184453	-0.045211	0.934650
O129	O	0.684643	-0.655237	0.584005
O130	O	1.184643	-0.155237	1.084005
O131	O	0.684567	-0.654986	0.489282
O132	O	1.184567	-0.154986	0.989282
O133	O	0.684529	-0.545462	0.529373
O134	O	1.184529	-0.045462	1.029373
O135	O	0.590438	-0.623674	0.520735
O136	O	1.090438	-0.123674	1.020735
O137	O	0.590513	-0.623924	0.615457
O138	O	1.090513	-0.123924	1.115457
O139	O	0.590323	-0.513899	0.466102
O140	O	1.090323	-0.013899	0.966102
Cu141	Cu	0.581823	-0.566053	0.543652
Cu142	Cu	1.081823	-0.066053	1.043652
Cu143	Cu	0.693143	-0.603083	0.506456
Cu144	Cu	1.193143	-0.103083	1.006456
O145	O	0.590399	-0.514149	0.560825
O146	O	1.090399	-0.014149	1.060825
N147	N	0.771439	-0.629131	0.480292
N148	N	1.271439	-0.129131	0.980292
N149	N	0.104456	-0.141061	0.570015
N150	N	0.604456	0.358939	1.070015
O151	O	-0.030629	0.039964	0.564688
O152	O	0.469371	0.539964	1.064688
O153	O	0.118732	0.039984	0.454661
O154	O	0.618732	0.539984	0.954661
O155	O	0.023980	0.039958	0.454946
O156	O	0.523980	0.539958	0.954946
O157	O	0.064123	0.039990	0.564403
O158	O	0.564123	0.539990	1.064403
O159	O	0.055392	-0.054179	0.486321
O160	O	0.555392	0.445821	0.986321
O161	O	0.150144	-0.054153	0.486036
O162	O	0.650144	0.445847	0.986036
O163	O	0.000784	-0.054173	0.596063
O164	O	0.500784	0.445827	1.096063
Cu165	Cu	0.078332	-0.062759	0.543914
Cu166	Cu	0.578332	0.437241	1.043914
Cu167	Cu	0.041183	0.048570	0.506810
Cu168	Cu	0.541183	0.548570	1.006810
O169	O	0.095535	-0.054147	0.595778
O170	O	0.595535	0.445853	1.095778
N171	N	0.015053	0.126872	0.480710
N172	N	0.515053	0.626872	0.980710
N173	N	0.104760	-0.540096	0.968910
N174	N	0.604760	-0.040096	1.468910
O175	O	0.099447	-0.675167	1.149923
O176	O	0.599447	-0.175167	1.649923
O177	O	-0.010552	-0.525757	1.149951
O178	O	0.489448	-0.025757	1.649951
O179	O	-0.010297	-0.620493	1.149918
O180	O	0.489703	-0.120493	1.649918
O181	O	0.099192	-0.580431	1.149956
O182	O	0.599192	-0.080431	1.649956
O183	O	0.021064	-0.589100	1.055785
O184	O	0.521064	-0.089100	1.555785
O185	O	0.020809	-0.494365	1.055818
O186	O	0.520809	0.005635	1.555818
O187	O	0.130808	-0.643774	1.055790
O188	O	0.630808	-0.143774	1.555790
Cu189	Cu	0.078672	-0.566203	1.047209
Cu190	Cu	0.578672	-0.066203	1.547209
Cu191	Cu	0.041584	-0.603328	1.158532
Cu192	Cu	0.541584	-0.103328	1.658532
O193	O	0.130553	-0.549038	1.055823
O194	O	0.630553	-0.049038	1.555823
N195	N	0.015495	-0.629442	1.236831
N196	N	0.515495	-0.129442	1.736831
C197	C	0.036087	-0.491140	0.455465
C198	C	0.536087	0.008860	0.955465
C199	C	0.153325	-0.608283	0.455364
C200	C	0.653325	-0.108283	0.955364
C201	C	0.083488	-0.678322	0.595370
C202	C	0.583488	-0.178322	1.095370
C203	C	-0.033750	-0.561180	0.595470
C204	C	0.466250	-0.061180	1.095470
C205	C	0.637601	-0.654732	0.618548
C206	C	1.137601	-0.154732	1.118548
C207	C	0.637509	-0.654422	0.501245
C208	C	1.137509	-0.154422	1.001245
C209	C	0.637362	-0.514403	0.431560
C210	C	1.137362	-0.014403	0.931560
C211	C	0.637458	-0.514713	0.548862
C212	C	1.137458	-0.014713	1.048862
C213	C	0.153215	-0.006966	0.455158
C214	C	0.653215	0.493034	0.955158
C215	C	0.035916	-0.007114	0.455550
C216	C	0.535916	0.492886	0.955550
C217	C	-0.033739	-0.007106	0.595527
C218	C	0.466261	0.492894	1.095527
C219	C	0.083600	-0.007076	0.595174
C220	C	0.583600	0.492924	1.095174
C221	C	-0.010020	-0.491238	1.102888
C222	C	0.489980	0.008762	1.602888
C223	C	-0.009698	-0.608550	1.102828
C224	C	0.490302	-0.108550	1.602828
C225	C	0.130276	-0.678293	1.102853
C226	C	0.630276	-0.178293	1.602853
C227	C	0.129961	-0.560974	1.102892
C228	C	0.629961	-0.060974	1.602892
H229	H	0.018524	-0.494668	0.964293
H230	H	0.518524	0.005332	1.464293
O231	O	0.093741	-0.729596	0.636398
O232	O	0.593741	-0.229596	1.136398
C233	C	0.149369	-0.764698	0.615866
C234	C	0.649369	-0.264698	1.115866
H235	H	0.164297	-0.749274	0.567656
H236	H	0.664297	-0.249274	1.067656
H237	H	0.150139	-0.810068	0.633155
H238	H	0.650139	-0.310068	1.133155
H239	H	0.178652	-0.763138	0.630185
H240	H	0.678652	-0.263138	1.130185
H241	H	-0.044080	-0.617108	1.102779
H242	H	0.455920	-0.117108	1.602779
O243	O	0.171409	-0.729523	1.102866
O244	O	0.671409	-0.229523	1.602866
C245	C	0.151043	-0.764736	1.102831
C246	C	0.651043	-0.264736	1.602831
H247	H	0.102833	-0.749405	1.120653
H248	H	0.602833	-0.249405	1.620653
H249	H	0.168403	-0.810082	1.130150
H250	H	0.668403	-0.310082	1.630150
H251	H	0.165423	-0.763197	1.057665
H252	H	0.665423	-0.263197	1.557665
H253	H	0.196022	-0.006699	0.420530
H254	H	0.696022	0.493301	0.920530
O255	O	-0.079530	-0.872924	0.516641
O256	O	0.420470	-0.372924	1.016641
C257	C	-0.134762	-0.834019	0.519755
C258	C	0.365238	-0.334019	1.019755
H259	H	-0.137025	-0.791775	0.515810
H260	H	0.362975	-0.291775	1.015810
H261	H	-0.166101	-0.851070	0.562109
H262	H	0.333899	-0.351070	1.062109
H263	H	-0.145823	-0.827754	0.483865
H264	H	0.354177	-0.327754	0.983865
O265	O	0.170985	-0.550813	1.102997
O266	O	0.670985	-0.050813	1.602997
C267	C	0.186239	-0.589626	1.151737
C268	C	0.686239	-0.089626	1.651737
H269	H	0.149986	-0.606216	1.185810
H270	H	0.649986	-0.106216	1.685810
H271	H	0.195414	-0.567572	1.168109
H272	H	0.695414	-0.067572	1.668109
H273	H	0.225652	-0.626475	1.140706
H274	H	0.725652	-0.126475	1.640706
O275	O	-0.111985	-0.715918	0.537048
O276	O	0.388015	-0.215918	1.037048
C277	C	-0.126514	-0.765582	0.571273
C278	C	0.373486	-0.265582	1.071273
H279	H	-0.169512	-0.757583	0.571767
H280	H	0.330488	-0.257583	1.071767
H281	H	-0.128616	-0.778069	0.616236
H282	H	0.371384	-0.278069	1.116236
H283	H	-0.093162	-0.801250	0.553493
H284	H	0.406838	-0.301250	1.053493
H285	H	0.054276	-0.458811	0.856808
H286	H	0.554276	0.041189	1.356808
H287	H	0.027318	-0.007118	0.421162
H288	H	0.527318	0.492882	0.921162
O289	O	-0.084870	-0.007209	0.636786
O290	O	0.415130	0.492791	1.136786
C291	C	-0.077387	-0.055950	0.684484
C292	C	0.422613	0.444050	1.184484
H293	H	-0.035943	-0.090027	0.670844
H294	H	0.464057	0.409973	1.170844
H295	H	-0.114097	-0.072321	0.704754
H296	H	0.385903	0.427679	1.204754
H297	H	-0.076071	-0.044917	0.716422
H298	H	0.423929	0.455083	1.216422
O299	O	0.200246	-0.587800	0.968766
O300	O	0.700246	-0.087800	1.468766
C301	C	0.255880	-0.596173	0.929887
C302	C	0.755880	-0.096173	1.429887
H303	H	0.255743	-0.589539	0.887655
H304	H	0.755743	-0.089539	1.387655
H305	H	0.284029	-0.641115	0.946984
H306	H	0.784029	-0.141115	1.446984
H307	H	0.272853	-0.564638	0.923585
H308	H	0.772853	-0.064638	1.423585
O309	O	-0.051205	-0.440023	1.102796
O310	O	0.448795	0.059977	1.602796
C311	C	-0.066415	-0.414972	1.054047
C312	C	0.433585	0.085028	1.554047
H313	H	-0.030065	-0.433695	1.019968
H314	H	0.469935	0.066305	1.519968
H315	H	-0.075771	-0.367343	1.037693
H316	H	0.424229	0.132657	1.537693
H317	H	-0.105707	-0.423622	1.065060
H318	H	0.394293	0.076378	1.565060
H319	H	0.054136	-0.458786	0.651283
H320	H	0.554136	0.041214	1.151283
O321	O	0.239017	-0.548889	0.852018
O322	O	0.739017	-0.048889	1.352018
C323	C	0.253317	-0.578700	0.817730
C324	C	0.753317	-0.078700	1.317730
H325	H	0.219921	-0.598756	0.835598
H326	H	0.719921	-0.098756	1.335598
H327	H	0.296340	-0.613227	0.817035
H328	H	0.796340	-0.113227	1.317035
H329	H	0.255255	-0.548225	0.772831
H330	H	0.755255	-0.048225	1.272831
H331	H	0.196241	-0.616742	0.420869
H332	H	0.696241	-0.116742	0.920869
O333	O	-0.084971	-0.550992	0.636570
O334	O	0.415029	-0.050992	1.136570
C335	C	-0.120150	-0.495382	0.616107
C336	C	0.379850	0.004618	1.116107
H337	H	-0.092896	-0.468503	0.579754
H338	H	0.407104	0.031497	1.079754
H339	H	-0.147261	-0.476430	0.651626
H340	H	0.352739	0.023570	1.151626
H341	H	-0.148737	-0.496244	0.600393
H342	H	0.351263	0.003756	1.100393
H343	H	-0.029909	-0.543201	0.241439
H344	H	0.470091	-0.043201	0.741439
H345	H	0.637649	-0.689271	0.661445
H346	H	1.137649	-0.189271	1.161445
O347	O	0.637500	-0.695401	0.490929
O348	O	1.137500	-0.195401	0.990929
C349	C	0.637457	-0.674786	0.435299
C350	C	1.137457	-0.174786	0.935299
H351	H	0.619594	-0.626574	0.420426
H352	H	1.119594	-0.126574	0.920426
H353	H	0.610136	-0.692041	0.434499
H354	H	1.110136	-0.192041	0.934499
H355	H	0.682604	-0.689072	0.405988
H356	H	1.182604	-0.189072	0.905988
O357	O	0.199888	-0.587624	0.522184
O358	O	0.699888	-0.087624	1.022184
C359	C	0.234124	-0.557696	0.472492
C360	C	0.734124	-0.057696	0.972492
H361	H	0.211228	-0.510291	0.464270
H362	H	0.711228	-0.010291	0.964270
H363	H	0.243065	-0.568288	0.435166
H364	H	0.743065	-0.068288	0.935166
H365	H	0.275762	-0.570308	0.477858
H366	H	0.775762	-0.070308	0.977858
O367	O	0.093955	-0.007101	0.636150
O368	O	0.593955	0.492899	1.136150
C369	C	0.149586	-0.007080	0.615516
C370	C	0.649586	0.492920	1.115516
H371	H	0.176347	-0.024894	0.579178
H372	H	0.676347	0.475106	1.079178
H373	H	0.168653	-0.034413	0.650954
H374	H	0.668653	0.465587	1.150954
H375	H	0.148744	0.038084	0.599731
H376	H	0.648744	0.538084	1.099731
O377	O	0.637314	-0.473260	0.380352
O378	O	1.137314	0.026740	0.880352
C379	C	0.637281	-0.493634	0.345137
C380	C	1.137281	0.006366	0.845137
H381	H	0.655150	-0.541846	0.360440
H382	H	1.155150	-0.041846	0.860440
H383	H	0.664559	-0.476251	0.299787
H384	H	1.164559	0.023749	0.799787
H385	H	0.592110	-0.479279	0.346708
H386	H	1.092110	0.020721	0.846708
O387	O	0.025978	-0.439884	0.414379
O388	O	0.525978	0.060116	0.914379
C389	C	0.064820	-0.414747	0.399118
C390	C	0.564820	0.085253	0.899118
H391	H	0.081385	-0.433490	0.435397
H392	H	0.581385	0.066510	0.935397
H393	H	0.042805	-0.367135	0.389874
H394	H	0.542805	0.132865	0.889874
H395	H	0.101677	-0.423288	0.359744
H396	H	0.601677	0.076712	0.859744
H397	H	0.018285	-0.494604	0.615454
H398	H	0.518285	0.005396	1.115454
H399	H	0.057785	-0.718806	0.241554
H400	H	0.557785	-0.218806	0.741554
H401	H	0.637450	-0.480310	0.557440
H402	H	1.137450	0.019690	1.057440
H403	H	0.498884	-0.625426	0.604536
H404	H	0.998884	-0.125426	1.104536
O405	O	0.238814	-0.548668	0.561115
O406	O	0.738814	-0.048668	1.061115
C407	C	0.253100	-0.498872	0.531304
C408	C	0.753100	0.001128	1.031304
H409	H	0.219672	-0.463278	0.511276
H410	H	0.719672	0.036722	1.011276
H411	H	0.296099	-0.506665	0.496757
H412	H	0.796099	-0.006665	0.996757
H413	H	0.255083	-0.486407	0.561771
H414	H	0.755083	0.013593	1.061771
H415	H	0.149834	-0.145702	0.483792
H416	H	0.649834	0.354298	0.983792
H417	H	0.391402	-0.589605	0.640414
H418	H	0.891402	-0.089605	1.140414
H419	H	-0.223743	-0.586821	0.390905
H420	H	0.276257	-0.086821	0.890905
O421	O	0.503473	-0.445477	0.533698
O422	O	1.003473	0.054523	1.033698
C423	C	0.488947	-0.405244	0.484868
C424	C	0.988947	0.094756	0.984868
H425	H	0.472643	-0.423503	0.471265
H426	H	0.972643	0.076497	0.971265
H427	H	0.527897	-0.394395	0.449287
H428	H	1.027897	0.105605	0.949287
H429	H	0.454555	-0.365302	0.494565
H430	H	0.954555	0.134698	0.994565
O431	O	0.386603	-0.406599	0.572792
O432	O	0.886603	0.093401	1.072792
C433	C	0.327957	-0.397329	0.596294
C434	C	0.827957	0.102671	1.096294
H435	H	0.319864	-0.433546	0.599149
H436	H	0.819864	0.066454	1.099149
H437	H	0.305417	-0.355712	0.568281
H438	H	0.805417	0.144288	1.068281
H439	H	0.311167	-0.395234	0.640454
H440	H	0.811167	0.104766	1.140454
O441	O	0.191035	-0.257767	0.513463
O442	O	0.691035	0.242233	1.013463
C443	C	0.199400	-0.218900	0.457817
C444	C	0.699400	0.281100	0.957817
H445	H	0.163667	-0.176667	0.457943
H446	H	0.663667	0.323333	0.957943
H447	H	0.199691	-0.236017	0.429692
H448	H	0.699691	0.263983	0.929692
H449	H	0.241604	-0.212588	0.440821
H450	H	0.741604	0.287412	0.940821
H451	H	0.062174	-0.145744	0.659359
H452	H	0.562174	0.354256	1.159359
H453	H	-0.224058	-0.674545	0.566571
H454	H	0.275942	-0.174545	1.066571
O455	O	0.095768	-0.257812	0.704327
O456	O	0.595768	0.242188	1.204327
C457	C	0.061462	-0.218964	0.734090
C458	C	0.561462	0.281036	1.234090
H459	H	0.069003	-0.176720	0.705832
H460	H	0.569003	0.323280	1.205832
H461	H	0.072593	-0.236089	0.773622
H462	H	0.572593	0.263911	1.273622
H463	H	0.015052	-0.212671	0.746882
H464	H	0.515052	0.287329	1.246882
O465	O	0.109543	-0.873260	0.444936
O466	O	0.609543	-0.373260	0.944936
C467	C	0.117504	-0.907541	0.497869
C468	C	0.617504	-0.407541	0.997869
H469	H	0.079960	-0.889646	0.531995
H470	H	0.579960	-0.389646	1.031995
H471	H	0.158009	-0.908261	0.496296
H472	H	0.658009	-0.408261	0.996296
H473	H	0.120981	-0.952436	0.508120
H474	H	0.620981	-0.452436	1.008120
H475	H	-0.065911	-0.578960	0.348925
H476	H	0.434089	-0.078960	0.848925
H477	H	-0.065985	-0.578958	0.399332
H478	H	0.434015	-0.078958	0.899332
O479	O	0.024060	-0.763737	0.353618
O480	O	0.524060	-0.263737	0.853618
C481	C	0.058414	-0.793522	0.314790
C482	C	0.558414	-0.293522	0.814790
H483	H	0.050932	-0.765263	0.272511
H484	H	0.550932	-0.265263	0.772511
H485	H	0.047278	-0.833034	0.331880
H486	H	0.547278	-0.333034	0.831880
H487	H	0.104809	-0.806352	0.308583
H488	H	0.604809	-0.306352	0.808583
H489	H	-0.030233	-0.543188	0.435308
H490	H	0.469767	-0.043188	0.935308
H491	H	0.021552	-0.754553	0.487300
H492	H	0.521552	-0.254553	0.987300
O493	O	0.062627	-0.724911	0.528642
O494	O	0.562627	-0.224911	1.028642
C495	C	0.071008	-0.780551	0.537020
C496	C	0.571008	-0.280551	1.037020
H497	H	0.035316	-0.780400	0.530311
H498	H	0.535316	-0.280400	1.030311
H499	H	0.071238	-0.808672	0.581986
H500	H	0.571238	-0.308672	1.081986
H501	H	0.113246	-0.797573	0.505540
H502	H	0.613246	-0.297573	1.005540
O503	O	-0.118254	-0.756132	0.477467
O504	O	0.381746	-0.256132	0.977467
C505	C	-0.126205	-0.721876	0.424527
C506	C	0.373795	-0.221876	0.924527
H507	H	-0.085430	-0.713061	0.391577
H508	H	0.414570	-0.213061	0.891577
H509	H	-0.161759	-0.680177	0.427886
H510	H	0.338241	-0.180177	0.927886
H511	H	-0.137857	-0.744689	0.411309
H512	H	0.362143	-0.244689	0.911309
H513	H	-0.116252	-0.622767	0.355267
H514	H	0.383748	-0.122767	0.855267
O515	O	0.070795	-0.756508	0.405875
O516	O	0.570795	-0.256508	0.905875
C517	C	0.126025	-0.795414	0.402777
C518	C	0.626025	-0.295414	0.902777
H519	H	0.123711	-0.837633	0.437777
H520	H	0.623711	-0.337633	0.937777
H521	H	0.150325	-0.778327	0.408208
H522	H	0.650325	-0.278327	0.908208
H523	H	0.148697	-0.801744	0.359844
H524	H	0.648697	-0.301744	0.859844
