data_functionalizedCrystal
_audit_creation_method	'MofGen! by Chris Wilmer'
_symmetry_space_group_name_H-M	'P1'
_symmetry_Int_Tables_number	1
_symmetry_cell_setting	triclinic
loop_
_symmetry_equiv_pos_as_xyz
  x,y,z
_cell_length_a	12.594516
_cell_length_b	12.827893
_cell_length_c	12.594509
_cell_angle_alpha	90.020758
_cell_angle_beta	89.973801
_cell_angle_gamma	89.985928
loop_
_atom_site_label
_atom_site_type_symbol
_atom_site_fract_x
_atom_site_fract_y
_atom_site_fract_z
Zn1	Zn	-0.423766	-1.597662	-0.601859
Zn2	Zn	-0.601776	-1.597555	-0.423887
Zn3	Zn	-0.423806	-1.422904	-0.423890
Zn4	Zn	-0.601697	-1.422887	-0.601818
O5	O	-0.512762	-1.510252	-0.512863
O6	O	-0.447396	-1.743884	-0.578266
O7	O	-0.578218	-1.574350	-0.274941
O8	O	-0.274855	-1.446139	-0.447516
O9	O	-0.578180	-1.743805	-0.447511
O10	O	-0.274826	-1.574532	-0.578269
O11	O	-0.447464	-1.446035	-0.274943
O12	O	-0.447387	-1.276666	-0.447476
O13	O	-0.578044	-1.446109	-0.750770
O14	O	-0.578083	-1.276653	-0.578200
O15	O	-0.447319	-1.574516	-0.750799
O16	O	-0.750712	-1.574333	-0.447472
O17	O	-0.750653	-1.446005	-0.578197
C18	C	-0.512732	-1.238742	-0.512835
C19	C	-0.512744	-1.122589	-0.512848
C20	C	-0.448156	-0.950799	-0.577661
C21	C	-0.448142	-1.070849	-0.577649
C22	C	-0.789302	-1.510184	-0.512853
C23	C	-0.907608	-1.510250	-0.512884
C24	C	-0.976868	-1.440446	-0.583936
C25	C	-1.047732	-1.414984	-0.486813
C26	C	-1.047542	-1.535807	-0.610024
C27	C	-0.976914	-1.484738	-0.415710
C28	C	-0.976718	-1.605605	-0.538986
C29	C	-1.047550	-1.580180	-0.441796
C30	C	-0.235141	-1.510349	-0.512897
C31	C	-0.116835	-1.510391	-0.512912
C32	C	-0.512668	-1.510322	-0.790484
C33	C	-0.512629	-1.510352	-0.908790
C34	C	-0.512784	-0.782822	-0.512884
C35	C	-0.512771	-0.898975	-0.512871
C36	C	-0.583689	-1.440534	-0.978027
C37	C	-0.609699	-1.535887	-1.048817
C38	C	-0.486555	-1.415073	-1.048799
C39	C	-0.538689	-1.605756	-0.978022
C40	C	-0.415500	-1.484877	-0.977997
C41	C	-0.441472	-1.580296	-1.048756
C42	C	-0.512778	-1.510243	-0.236322
C43	C	-0.512517	-1.510415	-0.118017
H44	H	-0.568084	-0.943484	-0.457400
O45	O	-1.084407	-1.650791	-0.370197
C46	C	-1.145930	-1.726521	-0.423070
H47	H	-1.121937	-1.729603	-0.510302
H48	H	-1.233576	-1.705199	-0.416599
C49	C	-1.156619	-1.830097	-0.264590
C50	C	-1.127144	-1.833889	-0.371729
H51	H	-1.145036	-1.896326	-0.232918
H52	H	-1.115173	-1.779075	-0.228967
H53	H	-1.229656	-1.812325	-0.259212
H54	H	-1.054106	-1.851647	-0.377105
H55	H	-1.168577	-1.884916	-0.407352
H56	H	-0.945504	-1.686161	-0.561087
O57	O	-1.084900	-1.318793	-0.460653
C58	C	-1.048873	-1.245354	-0.535730
H59	H	-1.028925	-1.286855	-0.613269
H60	H	-0.974871	-1.204757	-0.504027
C61	C	-1.160929	-1.112937	-0.460586
C62	C	-1.136437	-1.163909	-0.555824
H63	H	-1.214940	-1.062695	-0.472979
H64	H	-1.185199	-1.162413	-0.410003
H65	H	-1.099254	-1.079115	-0.434177
H66	H	-1.198108	-1.197741	-0.582224
H67	H	-1.112180	-1.114437	-0.606413
H68	H	-1.078567	-1.557366	-0.692162
O69	O	-0.578633	-1.069483	-0.446516
C70	C	-0.555286	-1.096053	-0.340446
H71	H	-0.470273	-1.126134	-0.335180
H72	H	-0.612369	-1.159307	-0.312466
C73	C	-0.671924	-0.962051	-0.275956
C74	C	-0.567507	-0.998989	-0.269488
H75	H	-0.679467	-0.902179	-0.232184
H76	H	-0.687658	-0.944152	-0.347418
H77	H	-0.719482	-1.014771	-0.252641
H78	H	-0.519953	-0.946274	-0.292815
H79	H	-0.551766	-1.016876	-0.198028
H80	H	-0.643877	-1.381537	-0.946972
O81	O	-0.707695	-1.561463	-1.085888
C82	C	-0.782440	-1.487643	-1.049837
H83	H	-0.740114	-1.411559	-1.029966
H84	H	-0.823800	-1.518685	-0.975785
C85	C	-0.917376	-1.561296	-1.161741
C86	C	-0.865391	-1.467846	-1.137343
H87	H	-0.968548	-1.549087	-1.215715
H88	H	-0.867021	-1.611033	-1.186026
H89	H	-0.951834	-1.587155	-1.100023
H90	H	-0.830923	-1.441996	-1.199056
H91	H	-0.915743	-1.418104	-1.113069
O92	O	-0.565094	-1.701868	-0.940920
C93	C	-0.564852	-1.700669	-0.828978
H94	H	-0.576694	-1.617380	-0.799673
H95	H	-0.485653	-1.731727	-0.798667
C96	C	-0.641034	-1.872210	-0.823223
C97	C	-0.655588	-1.769914	-0.787230
H98	H	-0.697000	-1.914927	-0.797469
H99	H	-0.641193	-1.873020	-0.898640
H100	H	-0.575032	-1.898077	-0.797960
H101	H	-0.721583	-1.744044	-0.812503
H102	H	-0.655442	-1.769101	-0.711815
H103	H	-0.392853	-0.906290	-0.633142
O104	O	-0.382243	-1.124169	-0.643792
C105	C	-0.396886	-1.232162	-0.629043
H106	H	-0.478996	-1.246939	-0.594029
H107	H	-0.333707	-1.263119	-0.572436
C108	C	-0.286460	-1.270201	-0.779699
C109	C	-0.387313	-1.288350	-0.736703
H110	H	-0.280551	-1.304862	-0.846107
H111	H	-0.276591	-1.197444	-0.789634
H112	H	-0.233822	-1.295999	-0.732517
H113	H	-0.439948	-1.262541	-0.783878
H114	H	-0.397190	-1.361104	-0.726778
O115	O	-0.369844	-1.650984	-1.085532
C116	C	-0.397655	-1.751299	-1.049250
H117	H	-0.485973	-1.753249	-1.029494
H118	H	-0.349718	-1.770703	-0.975080
C119	C	-0.265013	-1.829639	-1.160763
C120	C	-0.373489	-1.832036	-1.136507
H121	H	-0.250102	-1.879443	-1.214584
H122	H	-0.246273	-1.762055	-1.185204
H123	H	-0.225078	-1.845806	-1.098947
H124	H	-0.413421	-1.815857	-1.198319
H125	H	-0.392236	-1.899619	-1.112078
O126	O	-0.317646	-1.459164	-0.940668
C127	C	-0.318866	-1.460407	-0.828733
H128	H	-0.386185	-1.512617	-0.799886
H129	H	-0.331475	-1.377830	-0.797696
C130	C	-0.129547	-1.438664	-0.822785
C131	C	-0.212223	-1.502796	-0.787355
H132	H	-0.063763	-1.464807	-0.797259
H133	H	-0.128724	-1.437822	-0.898198
H134	H	-0.140068	-1.369854	-0.796918
H135	H	-0.201708	-1.571601	-0.813233
H136	H	-0.213041	-1.503651	-0.711945
H137	H	-0.464548	-1.334470	-1.079889
O138	O	-0.940011	-1.369824	-0.655526
C139	C	-1.026472	-1.319790	-0.705087
H140	H	-1.099403	-1.325224	-0.651735
H141	H	-1.043845	-1.359334	-0.784272
C142	C	-0.909356	-1.197701	-0.789854
C143	C	-0.998929	-1.204368	-0.724322
H144	H	-0.892366	-1.126504	-0.801724
H145	H	-0.851104	-1.231412	-0.756468
H146	H	-0.923845	-1.230660	-0.855835
H147	H	-0.984434	-1.171421	-0.658339
H148	H	-1.057178	-1.170648	-0.757698
H149	H	-0.946018	-1.463086	-0.333549
