data_functionalizedCrystal
_audit_creation_method	'MofGen! by Chris Wilmer'
_symmetry_space_group_name_H-M	'P1'
_symmetry_Int_Tables_number	1
_symmetry_cell_setting	triclinic
loop_
_symmetry_equiv_pos_as_xyz
  x,y,z
_cell_length_a	21.395362
_cell_length_b	13.032721
_cell_length_c	21.395356
_cell_angle_alpha	97.156746
_cell_angle_beta	89.957023
_cell_angle_gamma	97.222741
loop_
_atom_site_label
_atom_site_type_symbol
_atom_site_fract_x
_atom_site_fract_y
_atom_site_fract_z
Zn1	Zn	0.926248	-0.415642	-0.386225
Zn2	Zn	0.912863	-0.590407	-0.294751
Zn3	Zn	0.821459	-0.415719	-0.281432
Zn4	Zn	0.808143	-0.590401	-0.399455
O5	O	0.867178	-0.503042	-0.340466
O6	O	1.012153	-0.438796	-0.374128
O7	O	0.900709	-0.567269	-0.205309
O8	O	0.846534	-0.269463	-0.284222
O9	O	1.002319	-0.567195	-0.306922
O10	O	0.923522	-0.269407	-0.361213
O11	O	0.833555	-0.438926	-0.195524
O12	O	0.732012	-0.438920	-0.297051
O13	O	0.823839	-0.567184	-0.485375
O14	O	0.722230	-0.567258	-0.383762
O15	O	0.910610	-0.438789	-0.475655
O16	O	0.887797	-0.736651	-0.319751
O17	O	0.810860	-0.736647	-0.396677
C18	C	0.704386	-0.503097	-0.340397
C19	C	0.634741	-0.503146	-0.340385
C20	C	0.596944	-0.570061	-0.385482
C21	C	0.531511	-0.570035	-0.385508
C22	C	0.503876	-0.503106	-0.340426
C23	C	0.541682	-0.436179	-0.295325
C24	C	0.607115	-0.436199	-0.295305
C25	C	0.400791	-0.494702	-0.283381
C26	C	0.335359	-0.494689	-0.283402
C27	C	0.302061	-0.503038	-0.340490
C28	C	0.334200	-0.511421	-0.397562
C29	C	0.399633	-0.511441	-0.397541
C30	C	0.432926	-0.503076	-0.340444
C31	C	0.193313	-0.569928	-0.385619
C32	C	0.127879	-0.569895	-0.385646
C33	C	0.138051	-0.436044	-0.295458
C34	C	0.203485	-0.436072	-0.295437
C35	C	0.231111	-0.503019	-0.340517
C36	C	0.846449	-0.774569	-0.361108
C37	C	0.837638	-0.890729	-0.369960
C38	C	0.871810	-0.942484	-0.335874
C39	C	0.862704	-1.062542	-0.345022
C40	C	1.030606	-0.502987	-0.340535
C41	C	1.100249	-0.502964	-0.340564
C42	C	0.867232	-0.502977	-0.503884
C43	C	0.867256	-0.502950	-0.573523
C44	C	0.888006	-0.230455	-0.319756
C45	C	0.896882	-0.114295	-0.310931
C46	C	0.832300	-0.436114	-0.601131
C47	C	0.832299	-0.436095	-0.666565
C48	C	0.867266	-0.502900	-0.704388
C49	C	0.902224	-0.569749	-0.676774
C50	C	0.902219	-0.569774	-0.611341
C51	C	0.923096	-0.511090	-0.808717
C52	C	0.923102	-0.511058	-0.874147
C53	C	0.867282	-0.502829	-0.906203
C54	C	0.811454	-0.494611	-0.872819
C55	C	0.811449	-0.494636	-0.807387
C56	C	0.867276	-0.502881	-0.775339
C57	C	0.832322	-0.435969	-1.004762
C58	C	0.832320	-0.435957	-1.070197
C59	C	0.902251	-0.569606	-1.080404
C60	C	0.902247	-0.569623	-1.014970
C61	C	0.867284	-0.502799	-0.977152
C62	C	0.867166	-0.503031	-0.177677
C63	C	0.867287	-0.502764	-0.108016
H64	H	0.619433	-0.624573	-0.422191
O65	O	0.983314	-0.519920	-0.910150
H66	H	0.995066	-0.449891	-0.934640
O67	O	0.944574	-1.055270	-0.263304
H68	H	0.932280	-1.076234	-0.215702
H69	H	0.427898	-0.487899	-0.236889
H70	H	0.234260	-0.381588	-0.258711
O71	O	0.815019	-1.121572	-0.392654
H72	H	0.791375	-1.065397	-0.416235
H73	H	0.907810	-0.897915	-0.299921
O74	O	0.751240	-0.485764	-0.771381
H75	H	0.715396	-0.552221	-0.788959
H76	H	0.801643	-0.935301	-0.405918
O77	O	0.794594	-0.364033	-0.560345
H78	H	0.744049	-0.381960	-0.574227
O79	O	0.647890	-0.364030	-0.246661
H80	H	0.674087	-0.410752	-0.218285
H81	H	0.425798	-0.518264	-0.444011
O82	O	0.939943	-0.641802	-0.717563
H83	H	0.934080	-0.630548	-0.767700
O84	O	0.983306	-0.519958	-0.774143
H85	H	1.022128	-0.525649	-0.808346
H86	H	0.803835	-0.381664	-0.689047
O87	O	0.751239	-0.485745	-0.907383
H88	H	0.760617	-0.487123	-0.958491
O89	O	0.939935	-0.641850	-0.581563
H90	H	0.922930	-0.723874	-0.600345
H91	H	0.500730	-0.624524	-0.422234
H92	H	0.307090	-0.518218	-0.444049
O93	O	0.223119	-0.642116	-0.434245
H94	H	0.185841	-0.688630	-0.465617
H95	H	0.097105	-0.624383	-0.422373
H96	H	0.803853	-0.381558	-0.973969
H97	H	0.115552	-0.381544	-0.258754
O98	O	0.794619	-0.363863	-1.099979
H99	H	0.770313	-0.317395	-1.062686
O100	O	0.939969	-0.641662	-1.121189
H101	H	0.934103	-0.630414	-1.171327
O102	O	0.939965	-0.641687	-0.985185
H103	H	0.964288	-0.688129	-1.022476
O104	O	0.300703	-0.485648	-0.221846
H105	H	0.265526	-0.555640	-0.220705
H106	H	0.519179	-0.381683	-0.258621
