data_functionalizedCrystal
_audit_creation_method	'MofGen! by Chris Wilmer'
_symmetry_space_group_name_H-M	'P1'
_symmetry_Int_Tables_number	1
_symmetry_cell_setting	triclinic
loop_
_symmetry_equiv_pos_as_xyz
  x,y,z
_cell_length_a	17.699083
_cell_length_b	16.776229
_cell_length_c	17.699104
_cell_angle_alpha	90.007590
_cell_angle_beta	83.287266
_cell_angle_gamma	90.001114
loop_
_atom_site_label
_atom_site_type_symbol
_atom_site_fract_x
_atom_site_fract_y
_atom_site_fract_z
O1	O	1.004086	0.066178	0.095712
O2	O	0.783708	0.066204	0.108164
O3	O	0.900115	0.066183	-0.008250
O4	O	0.887679	0.066199	0.212126
O5	O	0.900099	-0.066393	-0.008257
O6	O	0.783693	-0.066372	0.108157
O7	O	1.004070	-0.066398	0.095705
Zn8	Zn	0.893879	-0.087435	0.101930
Zn9	Zn	0.893899	0.087241	0.101939
O10	O	0.887664	-0.066377	0.212119
C11	C	0.755503	-0.000081	0.107715
C12	C	0.671485	-0.000071	0.106376
C13	C	0.622869	-0.000066	0.174709
C14	C	0.543926	-0.000076	0.173446
C15	C	0.513600	-0.000086	0.103851
C16	C	0.562222	-0.000093	0.035513
C17	C	0.641164	-0.000088	0.036776
C18	C	0.243859	-0.000113	0.030418
C19	C	0.164911	-0.000115	0.029160
C20	C	0.146621	-0.000101	0.167088
C21	C	0.225563	-0.000097	0.168351
C22	C	0.274178	-0.000108	0.100014
C23	C	0.359777	-0.000098	0.101383
C24	C	0.428002	-0.000090	0.102480
N25	N	0.893871	-0.206646	0.101923
C26	C	0.945431	-0.248372	0.050396
C27	C	0.945435	-0.331824	0.050395
C28	C	0.893882	-0.373549	0.101926
C29	C	0.842316	-0.331816	0.153456
C30	C	0.842309	-0.248366	0.153452
C31	C	0.842343	-0.668364	0.153470
C32	C	0.842356	-0.751820	0.153472
C33	C	0.945470	-0.751822	0.050414
C34	C	0.945463	-0.668372	0.050410
C35	C	0.893894	-0.626647	0.101937
C36	C	0.893890	-0.536158	0.101936
C37	C	0.893890	-0.464036	0.101931
C38	C	1.032275	-0.000112	0.096155
C39	C	1.116293	-0.000116	0.097493
C40	C	0.899659	-0.000105	-0.036450
C41	C	0.898314	-0.000105	-0.120467
N42	N	0.893914	0.206452	0.101940
C43	C	0.959058	-0.000090	-0.645338
C44	C	0.960317	-0.000097	-0.566395
C45	C	0.891982	-0.000091	-0.517777
C46	C	0.822383	-0.000085	-0.548107
C47	C	0.821125	-0.000084	-0.627049
C48	C	0.827456	-0.000092	-0.229741
C49	C	0.828720	-0.000092	-0.150794
C50	C	0.966648	-0.000106	-0.169086
C51	C	0.965390	-0.000104	-0.248029
C52	C	0.895792	-0.000103	-0.278352
C53	C	0.894427	-0.000097	-0.363951
C54	C	0.893345	-0.000091	-0.432179
C55	C	0.888120	-0.000087	0.240319
C56	C	0.889464	-0.000082	0.324337
H57	H	0.250249	-0.000085	0.225023
N58	N	0.786722	-0.623366	0.209039
H59	H	0.754067	-0.662464	0.241683
H60	H	0.815624	-0.588727	0.242465
N61	N	0.132194	-0.000132	-0.045905
H62	H	0.149929	0.049008	-0.075841
H63	H	0.149936	-0.049317	-0.075773
N64	N	1.035380	-0.000083	-0.533689
H65	H	1.025810	-0.000083	-0.476303
H66	H	1.065283	-0.049227	-0.551486
N67	N	0.752393	-0.000102	-0.262441
H68	H	0.709297	-0.000099	-0.219662
H69	H	0.748861	0.049041	-0.294795
N70	N	0.693606	-0.000088	-0.036924
H71	H	0.726766	-0.049234	-0.039474
H72	H	0.662366	-0.000063	-0.081163
N73	N	0.746059	-0.000072	-0.659753
H74	H	0.742466	0.049073	-0.692094
H75	H	0.742503	-0.049252	-0.692065
H76	H	0.647554	-0.000058	0.231382
N77	N	1.001055	-0.376827	-0.005174
H78	H	0.993237	-0.436024	0.002643
H79	H	0.992415	-0.362250	-0.058858
N80	N	1.001033	-0.203385	-0.005198
H81	H	0.972165	-0.168776	-0.038674
H82	H	1.034483	-0.168794	0.023723
H83	H	0.107028	-0.000096	0.222732
N84	N	0.491489	-0.000161	0.247148
H85	H	0.522680	-0.000179	0.291427
H86	H	0.458292	0.048954	0.249687
N87	N	0.296287	-0.000130	-0.043286
H88	H	0.265095	-0.000136	-0.087564
H89	H	0.329443	0.049016	-0.045770
N90	N	1.001069	-0.623369	-0.005166
H91	H	1.033734	-0.662466	-0.037810
H92	H	0.972152	-0.588755	-0.038590
H93	H	0.537525	-0.000112	-0.021153
H94	H	0.987458	-0.785804	0.008455
H95	H	1.021036	-0.000105	-0.287610
N96	N	0.748678	-0.000071	-0.495671
H97	H	0.704400	-0.000066	-0.526863
H98	H	0.746189	-0.049217	-0.462522
N99	N	0.786744	-0.796828	0.209046
H100	H	0.795350	-0.782295	0.262756
H101	H	0.733071	-0.782299	0.200320
N102	N	0.786706	-0.376814	0.209031
H103	H	0.794534	-0.436012	0.201217
H104	H	0.795347	-0.362215	0.262713
N105	N	1.041718	-0.000119	-0.136382
H106	H	1.032151	-0.000125	-0.078995
H107	H	1.071605	-0.049271	-0.154186
H108	H	0.800322	-0.214393	0.195410
N109	N	1.032761	-0.000104	-0.697776
H110	H	1.035323	0.049042	-0.730932
H111	H	1.076998	-0.000144	-0.666533
H112	H	0.773070	-0.000088	-0.111210
