data_functionalizedCrystal
_audit_creation_method	'MofGen! by Chris Wilmer'
_symmetry_space_group_name_H-M	'P1'
_symmetry_Int_Tables_number	1
_symmetry_cell_setting	triclinic
loop_
_symmetry_equiv_pos_as_xyz
  x,y,z
_cell_length_a	17.699077
_cell_length_b	16.974813
_cell_length_c	16.053802
_cell_angle_alpha	91.087450
_cell_angle_beta	92.575374
_cell_angle_gamma	83.338069
loop_
_atom_site_label
_atom_site_type_symbol
_atom_site_fract_x
_atom_site_fract_y
_atom_site_fract_z
O1	O	1.007646	0.096320	0.075925
O2	O	1.507646	0.596320	0.575925
O3	O	0.787317	0.109292	0.076805
O4	O	1.287317	0.609292	0.576805
O5	O	0.903268	-0.011937	0.068608
O6	O	1.403268	0.488063	0.568608
O7	O	0.891696	0.217549	0.084122
O8	O	1.391696	0.717549	0.584122
O9	O	0.896886	-0.005291	-0.069801
O10	O	1.396886	0.494709	0.430199
O11	O	0.780935	0.115937	-0.061605
O12	O	1.280935	0.615937	0.438395
O13	O	1.001264	0.102966	-0.062485
O14	O	1.501264	0.602966	0.437515
Zn15	Zn	0.890086	0.110507	-0.084020
Zn16	Zn	1.390086	0.610507	0.415980
Zn17	Zn	0.898495	0.101751	0.098340
Zn18	Zn	1.398495	0.601751	0.598340
O19	O	0.885313	0.224194	-0.054288
O20	O	1.385313	0.724194	0.445712
C21	C	0.755927	0.112151	0.007569
C22	C	1.255927	0.612151	0.507569
C23	C	0.671904	0.110759	0.007477
C24	C	1.171904	0.610759	0.507477
C25	C	0.628955	0.113725	-0.068015
C26	C	1.128955	0.613725	0.431985
C27	C	0.550007	0.112404	-0.068106
C28	C	1.050007	0.612404	0.431894
C29	C	0.514009	0.108123	0.007298
C30	C	1.014009	0.608123	0.507298
C31	C	0.556964	0.105154	0.082796
C32	C	1.056964	0.605154	0.582796
C33	C	0.635911	0.106469	0.082885
C34	C	1.135911	0.606469	0.582885
C35	C	0.238581	0.099850	0.082439
C36	C	0.738581	0.599850	0.582439
C37	C	0.159628	0.098538	0.082344
C38	C	0.659628	0.598538	0.582344
C39	C	0.152677	0.105786	-0.068552
C40	C	0.652677	0.605786	0.431448
C41	C	0.231623	0.107101	-0.068463
C42	C	0.731623	0.607101	0.431537
C43	C	0.274572	0.104127	0.007035
C44	C	0.774572	0.604127	0.507035
C45	C	0.360176	0.105558	0.007131
C46	C	0.860176	0.605558	0.507131
C47	C	0.428406	0.106698	0.007202
C48	C	0.928406	0.606698	0.507202
C49	C	0.899518	-0.037976	-0.002580
C50	C	1.399518	0.462024	0.497420
C51	C	0.897844	-0.125467	-0.008489
C52	C	1.397844	0.374533	0.491511
C53	C	0.900538	-0.170188	0.064182
C54	C	1.400538	0.329812	0.564182
C55	C	0.898961	-0.252393	0.058627
C56	C	1.398961	0.247607	0.558627
C57	C	0.894694	-0.289877	-0.019599
C58	C	1.394694	0.210123	0.480401
C59	C	0.891997	-0.245150	-0.092275
C60	C	1.391997	0.254850	0.407725
C61	C	0.893569	-0.162945	-0.086719
C62	C	1.393569	0.337055	0.413281
C63	C	0.889613	-0.535344	-0.044304
C64	C	1.389613	-0.035344	0.455696
C65	C	0.888043	-0.617555	-0.049854
C66	C	1.388043	-0.117555	0.450146
C67	C	0.895005	-0.624793	0.101048
C68	C	1.395005	-0.124793	0.601048
C69	C	0.896582	-0.542587	0.106597
C70	C	1.396582	-0.042587	0.606597
C71	C	0.893881	-0.497866	0.033921
C72	C	1.393881	0.002134	0.533921
N73	N	0.893083	-0.373905	-0.025278
N74	N	1.393083	0.126095	0.474722
N75	N	0.895486	-0.413839	0.039601
N76	N	1.395486	0.086161	0.539601
C77	C	1.032654	0.100107	0.006753
C78	C	1.532654	0.600107	0.506753
C79	C	1.116678	0.101499	0.006851
C80	C	1.616678	0.601499	0.506851
C81	C	0.889063	0.250234	0.016902
C82	C	1.389063	0.750234	0.516902
C83	C	0.890737	0.337724	0.022816
C84	C	1.390737	0.837724	0.522816
N85	N	0.884353	0.116481	-0.208477
N86	N	1.384353	0.616481	0.291523
C87	C	0.933708	0.064917	-0.255657
C88	C	1.433708	0.564917	0.244343
C89	C	0.929704	0.069104	-0.342781
C90	C	1.429704	0.569104	0.157219
C91	C	0.876349	0.124860	-0.382722
C92	C	1.376349	0.624860	0.117278
C93	C	0.826988	0.176427	-0.335535
C94	C	1.326988	0.676427	0.164465
C95	C	0.830989	0.172235	-0.248413
C96	C	1.330989	0.672235	0.251587
C97	C	0.858874	0.143146	-0.642895
C98	C	1.358874	0.643146	-0.142895
C99	C	0.854879	0.147335	-0.730023
C100	C	1.354879	0.647335	-0.230023
C101	C	0.957595	0.040010	-0.737263
C102	C	1.457595	0.540010	-0.237263
C103	C	0.961594	0.035827	-0.650139
C104	C	1.461594	0.535827	-0.150139
C105	C	0.912230	0.087391	-0.602960
C106	C	1.412230	0.587391	-0.102960
N107	N	0.872257	0.129143	-0.471776
N108	N	1.372257	0.629143	0.028224
N109	N	0.916319	0.083104	-0.513908
N110	N	1.416319	0.583104	-0.013908
N111	N	0.904234	0.095770	0.222796
N112	N	1.404234	0.595770	0.722796
H113	H	0.515043	0.114807	-0.129580
H114	H	1.015043	0.614807	0.370420
H115	H	0.260928	0.110591	-0.129864
H116	H	0.760928	0.610591	0.370136
H117	H	0.891365	-0.126532	-0.145895
H118	H	1.391365	0.373468	0.354105
H119	H	0.897203	-0.661213	0.160217
H120	H	1.397203	-0.161213	0.660217
C121	C	0.768289	0.237752	-0.379474
C122	C	1.268289	0.737752	0.120526
N123	N	0.724075	0.283943	-0.412568
N124	N	1.224075	0.783943	0.087432
H125	H	0.117699	0.108203	-0.130025
H126	H	0.617699	0.608203	0.369975
C127	C	0.887298	-0.286384	-0.178324
C128	C	1.387298	0.213616	0.321676
N129	N	0.883760	-0.317441	-0.243139
N130	N	1.383760	0.182559	0.256861
C131	C	0.992404	0.003580	-0.211730
C132	C	1.492404	0.503580	0.288270
N133	N	1.036612	-0.042624	-0.178647
N134	N	1.536612	0.457376	0.321353
H135	H	0.969893	0.027115	-0.381195
H136	H	1.469893	0.527115	0.118805
C137	C	1.020285	-0.025513	-0.606210
C138	C	1.520285	0.474487	-0.106210
N139	N	1.064493	-0.071715	-0.573124
N140	N	1.564493	0.428285	-0.073124
C141	C	0.883347	-0.658785	-0.135913
C142	C	1.383347	-0.158785	0.364087
N143	N	0.879810	-0.689840	-0.200729
N144	N	1.379810	-0.189840	0.299271
C145	C	0.776700	0.228967	-0.196515
C146	C	1.276700	0.728967	0.303485
N147	N	0.735808	0.271700	-0.157426
N148	N	1.235808	0.771700	0.342574
H149	H	0.273540	0.097427	0.143913
H150	H	0.773540	0.597427	0.643913
H151	H	0.997783	-0.001972	-0.775684
H152	H	1.497783	0.498028	-0.275684
C153	C	0.517364	0.100442	0.165740
C154	C	1.017364	0.600442	0.665740
N155	N	0.487537	0.096896	0.228216
N156	N	0.987537	0.596896	0.728216
C157	C	0.796179	0.208671	-0.773957
C158	C	1.296179	0.708671	-0.273957
N159	N	0.751969	0.254867	-0.807047
N160	N	1.251969	0.754867	-0.307047
H161	H	0.658257	0.117218	-0.129417
H162	H	1.158257	0.617218	0.370583
C163	C	0.120033	0.093819	0.165297
C164	C	0.620033	0.593819	0.665297
N165	N	0.090210	0.090264	0.227774
N166	N	0.590210	0.590264	0.727774
H167	H	0.818682	0.185133	-0.604489
H168	H	1.318682	0.685133	-0.104489
C169	C	0.905232	-0.128963	0.150237
C170	C	1.405232	0.371037	0.650237
N171	N	0.908764	-0.097915	0.215057
N172	N	1.408764	0.402085	0.715057
H173	H	0.670879	0.104055	0.144358
H174	H	1.170879	0.604055	0.644358
C175	C	0.901994	-0.301592	0.138570
C176	C	1.401994	0.198408	0.638570
N177	N	0.904304	-0.338652	0.198787
N178	N	1.404304	0.161348	0.698787
H179	H	0.900057	-0.512073	0.170297
H180	H	1.400057	-0.012073	0.670297
C181	C	0.886645	-0.486162	-0.124251
C182	C	1.386645	0.013838	0.375749
N183	N	0.884411	-0.449116	-0.184470
N184	N	1.384411	0.050884	0.315530
