data_functionalizedCrystal
_audit_creation_method	'MofGen! by Chris Wilmer'
_symmetry_space_group_name_H-M	'P1'
_symmetry_Int_Tables_number	1
_symmetry_cell_setting	triclinic
loop_
_symmetry_equiv_pos_as_xyz
  x,y,z
_cell_length_a	10.654549
_cell_length_b	10.967829
_cell_length_c	9.730223
_cell_angle_alpha	77.867717
_cell_angle_beta	89.997731
_cell_angle_gamma	84.600152
loop_
_atom_site_label
_atom_site_type_symbol
_atom_site_fract_x
_atom_site_fract_y
_atom_site_fract_z
O1	O	1.667815	0.175275	-0.155766
O2	O	1.302334	0.191975	-0.159731
O3	O	1.493503	0.002047	-0.114739
O4	O	1.476646	0.365202	-0.200759
O5	O	1.493490	0.002042	0.113842
O6	O	1.302321	0.191969	0.068850
O7	O	1.667802	0.175270	0.072815
Zn8	Zn	1.485060	0.183619	0.107125
Zn9	Zn	1.485076	0.183626	-0.194041
O10	O	1.476633	0.365197	0.027823
C11	C	1.255530	0.190746	-0.045151
C12	C	1.116087	0.187078	-0.044286
C13	C	0.905557	0.295448	-0.069950
C14	C	1.036577	0.298904	-0.070777
C15	C	1.064571	0.071788	-0.016980
C16	C	0.933553	0.068333	-0.016164
C17	C	1.492269	-0.044456	0.010563
C18	C	1.488597	-0.183012	0.043374
C19	C	1.486966	-0.244777	-0.060411
C20	C	1.483170	-0.387982	-0.026502
C21	C	1.714606	0.176498	-0.041768
C22	C	1.854049	0.180167	-0.042642
C23	C	1.477867	0.411700	-0.097483
C24	C	1.481540	0.550257	-0.130302
N25	N	1.485058	0.183613	0.312662
N26	N	1.485088	0.183621	-0.399576
C27	C	1.569737	0.099549	0.404502
C28	C	1.569749	0.099550	0.548385
C29	C	1.400400	0.267689	0.508573
C30	C	1.400383	0.267682	0.364694
H31	H	1.488374	-0.191635	-0.174369
O32	O	0.883718	-0.043766	0.010452
C33	C	0.981982	-0.141732	0.033625
H34	H	1.071273	-0.105987	0.068437
H35	H	0.953906	-0.222151	0.119033
H36	H	1.000225	-0.176277	-0.067854
H37	H	1.638683	0.031094	0.362143
O38	O	1.486860	-0.246198	0.179405
C39	C	1.489148	-0.160969	0.269322
H40	H	1.451920	-0.063299	0.209798
H41	H	1.427277	-0.191297	0.363596
H42	H	1.590093	-0.159394	0.307283
H43	H	1.638701	0.031096	0.623160
O44	O	1.481303	-0.451473	0.109402
C45	C	1.370705	-0.513560	0.131461
H46	H	1.334004	-0.528535	0.026791
H47	H	1.392683	-0.608138	0.206471
H48	H	1.295996	-0.454217	0.178957
O49	O	1.482969	-0.386242	-0.266236
C50	C	1.376317	-0.297818	-0.294486
H51	H	1.340709	-0.274016	-0.191888
H52	H	1.403068	-0.209178	-0.368174
H53	H	1.298933	-0.338755	-0.346240
O54	O	1.318000	0.349177	0.275447
C55	C	1.239966	0.281620	0.208218
H56	H	1.237003	0.183188	0.274910
H57	H	1.140582	0.331615	0.194746
H58	H	1.279208	0.275431	0.100636
O59	O	1.086819	0.410781	-0.097351
C60	C	1.219508	0.389858	-0.092375
H61	H	1.249431	0.292734	-0.112633
H62	H	1.260356	0.463688	-0.176244
H63	H	1.256032	0.396233	0.015770
H64	H	1.331461	0.336138	0.550952
O65	O	1.141933	-0.036757	0.008549
C66	C	1.218544	-0.041567	-0.108709
H67	H	1.226020	0.057545	-0.171656
H68	H	1.316599	-0.087195	-0.071270
H69	H	1.174966	-0.098938	-0.178017
O70	O	0.828507	0.404195	-0.095773
C71	C	0.902072	0.506685	-0.120022
H72	H	0.999571	0.475854	-0.155989
H73	H	0.854433	0.585106	-0.204967
H74	H	0.911696	0.541973	-0.018721
