data_functionalizedCrystal
_audit_creation_method	'MofGen! by Chris Wilmer'
_symmetry_space_group_name_H-M	'P1'
_symmetry_Int_Tables_number	1
_symmetry_cell_setting	triclinic
loop_
_symmetry_equiv_pos_as_xyz
  x,y,z
_cell_length_a	19.188930
_cell_length_b	27.732048
_cell_length_c	17.666332
_cell_angle_alpha	89.988553
_cell_angle_beta	89.976766
_cell_angle_gamma	82.893716
loop_
_atom_site_label
_atom_site_type_symbol
_atom_site_fract_x
_atom_site_fract_y
_atom_site_fract_z
O1	O	0.925765	0.060348	-0.063200
O2	O	0.722402	0.068472	-0.063149
O3	O	0.830399	-0.005968	-0.063161
O4	O	0.817767	0.134787	-0.063187
O5	O	0.830380	-0.005971	0.062735
O6	O	0.722383	0.068468	0.062748
O7	O	0.925746	0.060344	0.062697
Cu8	Cu	0.824063	0.064406	0.074218
Cu9	Cu	0.824085	0.064410	-0.074670
O10	O	0.817748	0.134783	0.062710
C11	C	0.696383	0.068207	-0.000194
C12	C	0.618883	0.067417	-0.000174
C13	C	0.573681	0.111096	-0.000194
C14	C	0.500862	0.110354	-0.000202
C15	C	0.473249	0.065931	-0.000205
C16	C	0.518461	0.022246	-0.000181
C17	C	0.591278	0.022990	-0.000165
N18	N	0.365491	0.031976	-0.043078
N19	N	0.296317	0.031273	-0.043094
C20	C	0.253854	0.063689	-0.000251
N21	N	0.283177	0.096841	0.042600
N22	N	0.352357	0.097546	0.042613
C23	C	0.394291	0.065120	-0.000222
C24	C	0.129692	0.106566	-0.000279
C25	C	0.056872	0.105822	-0.000282
C26	C	0.074473	0.017714	-0.000269
C27	C	0.147292	0.018459	-0.000258
C28	C	0.174897	0.062886	-0.000267
C29	C	0.830125	-0.023977	-0.000211
C30	C	0.829326	-0.077635	-0.000204
C31	C	0.888119	-0.416270	-0.000258
C32	C	0.885157	-0.617939	-0.000268
O33	O	0.938918	-0.649030	-0.000314
N34	N	0.821118	-0.637258	-0.000251
C35	C	0.757816	-0.606157	-0.000237
O36	O	0.703280	-0.627217	-0.000231
C37	C	0.760780	-0.404489	-0.000233
C38	C	0.824822	-0.385173	-0.000242
C39	C	0.952156	-0.396953	-0.000268
C40	C	0.952896	-0.346539	-0.000261
C41	C	0.889599	-0.315441	-0.000245
C42	C	0.825562	-0.334759	-0.000235
C43	C	0.697478	-0.373389	-0.000224
C44	C	0.698225	-0.322969	-0.000225
C45	C	0.762267	-0.303653	-0.000234
C46	C	0.763005	-0.253247	-0.000212
N47	N	0.827043	-0.233928	-0.000229
C48	C	0.890340	-0.265025	-0.000245
C49	C	0.756265	-0.712036	-0.000238
C50	C	0.755524	-0.762452	-0.000238
C51	C	0.882865	-0.774231	-0.000270
C52	C	0.883605	-0.723813	-0.000265
C53	C	0.820303	-0.692716	-0.000254
C54	C	0.891889	-0.159151	-0.000231
C55	C	0.892623	-0.108732	-0.000221
C56	C	0.765283	-0.096958	-0.000193
C57	C	0.764549	-0.147373	-0.000198
C58	C	0.827857	-0.178468	-0.000220
O59	O	0.709272	-0.222127	-0.000174
O60	O	0.944868	-0.243956	-0.000268
C61	C	0.887379	-0.466684	-0.000265
C62	C	0.823342	-0.486001	-0.000255
C63	C	0.760045	-0.454904	-0.000238
C64	C	0.822601	-0.536418	-0.000254
C65	C	0.885898	-0.567515	-0.000271
C66	C	0.949936	-0.548195	-0.000288
C67	C	0.950676	-0.497781	-0.000281
C68	C	0.696007	-0.474223	-0.000222
C69	C	0.695272	-0.524638	-0.000227
C70	C	0.758569	-0.555735	-0.000244
C71	C	0.951765	0.060609	-0.000260
C72	C	1.029264	0.061399	-0.000285
C73	C	0.818023	0.152793	-0.000243
C74	C	0.818821	0.206450	-0.000254
N75	N	0.824052	0.064402	0.178937
N76	N	0.824101	0.064410	-0.179389
C77	C	0.871889	0.031456	0.218541
C78	C	0.871893	0.031454	0.297789
C79	C	0.824067	0.064406	0.337429
C80	C	0.776221	0.097354	0.297816
C81	C	0.776214	0.097352	0.218570
N82	N	0.814718	0.107196	0.461842
N83	N	0.814729	0.107196	0.537122
C84	C	0.824085	0.064412	0.576193
N85	N	0.833444	0.021627	0.537140
N86	N	0.833436	0.021628	0.461853
C87	C	0.824069	0.064411	0.423359
C88	C	0.871929	0.031462	0.701727
C89	C	0.871928	0.031459	0.780976
C90	C	0.776260	0.097363	0.781001
C91	C	0.776257	0.097361	0.701754
C92	C	0.824096	0.064411	0.662121
H93	H	0.628083	-0.012580	-0.000150
H94	H	0.737307	0.124191	0.669506
H95	H	0.944776	-0.093007	-0.000226
H96	H	0.646676	-0.297652	-0.000217
H97	H	0.910840	0.004625	0.186275
H98	H	0.737280	0.124183	0.330095
O99	O	0.729705	0.129325	0.819463
C100	C	0.608000	0.157876	0.843727
C101	C	0.660650	0.121646	0.800131
H102	H	0.552158	0.151687	0.828100
H103	H	0.616158	0.152220	0.907179
H104	H	0.616712	0.196572	0.828135
H105	H	0.651970	0.082935	0.815659
H106	H	0.652479	0.127345	0.736689
H107	H	0.596152	0.147272	-0.000202
O108	O	0.918322	-0.000600	0.663231
C109	C	0.960197	-0.084707	0.638943
C110	C	0.907608	-0.048460	0.682586
H111	H	0.951563	-0.123410	0.654588
H112	H	0.951958	-0.079068	0.575498
H113	H	1.016043	-0.078474	0.654474
H114	H	0.851741	-0.054672	0.667119
H115	H	0.915908	-0.054108	0.746021
O116	O	0.702356	-0.166162	-0.000049
C117	C	0.627618	-0.216280	0.065151
C118	C	0.698069	-0.195031	0.065095
H119	H	0.624134	-0.239633	0.117807
H120	H	0.582479	-0.185409	0.065217
H121	H	0.624104	-0.239556	0.012434
H122	H	0.701651	-0.171760	0.117803
H123	H	0.743174	-0.225924	0.064991
H124	H	0.737259	0.124181	0.186323
H125	H	0.495974	-0.013923	-0.000195
O126	O	0.694706	-0.681900	-0.000187
C127	C	0.568325	-0.675552	-0.000191
C128	C	0.637989	-0.709732	-0.000236
H129	H	0.522451	-0.698041	-0.000247
H130	H	0.565430	-0.651670	0.052511
H131	H	0.565524	-0.651637	-0.052865
H132	H	0.640836	-0.733678	0.052402
H133	H	0.640855	-0.733582	-0.052973
O134	O	0.635205	-0.392065	-0.000252
C135	C	0.508981	-0.375039	-0.000192
C136	C	0.579461	-0.353827	-0.000177
H137	H	0.463893	-0.344134	-0.000115
H138	H	0.505410	-0.398322	-0.052895
H139	H	0.505468	-0.398372	0.052481
H140	H	0.583021	-0.330472	-0.052814
H141	H	0.583002	-0.330572	0.052560
O142	O	0.918428	-0.000571	0.336154
C143	C	1.013285	-0.065959	0.327772
C144	C	0.960637	-0.029708	0.284233
H145	H	1.047415	-0.089532	0.285813
H146	H	1.047987	-0.045174	0.364828
H147	H	0.983390	-0.090032	0.364917
H148	H	0.990475	-0.005626	0.247046
H149	H	0.925937	-0.050524	0.247225
H150	H	0.464051	0.145923	-0.000216
H151	H	0.152169	0.142741	-0.000275
H152	H	0.020068	0.141392	-0.000294
O153	O	0.047743	-0.025470	-0.000373
C154	C	0.040508	-0.100988	-0.065611
C155	C	0.070842	-0.052103	-0.065583
H156	H	0.059160	-0.122530	-0.118335
H157	H	0.059158	-0.122600	-0.012953
H158	H	-0.019301	-0.094006	-0.065586
H159	H	0.130651	-0.059040	-0.065634
H160	H	0.052137	-0.030506	-0.118236
H161	H	0.910880	0.004628	0.813222
O162	O	0.191275	-0.023940	-0.000351
C163	C	0.283705	-0.074244	-0.065578
C164	C	0.233945	-0.026203	-0.065560
H165	H	0.318206	-0.076094	-0.118302
H166	H	0.318257	-0.076110	-0.012919
H167	H	0.251447	-0.106115	-0.065546
H168	H	0.266147	0.005694	-0.065619
H169	H	0.199391	-0.024380	-0.118214
O170	O	0.944399	-0.804394	-0.000392
C171	C	1.052986	-0.829909	-0.065685
C172	C	0.983338	-0.795712	-0.065624
H173	H	1.084481	-0.822909	-0.118428
H174	H	1.084580	-0.822907	-0.013046
H175	H	1.041433	-0.869255	-0.065648
H176	H	0.994827	-0.756353	-0.065689
H177	H	0.951765	-0.802755	-0.118259
H178	H	0.703375	-0.778175	-0.000217
O179	O	0.953450	-0.189284	-0.000215
C180	C	1.079831	-0.195631	-0.000282
C181	C	1.010166	-0.161451	-0.000288
H182	H	1.125704	-0.173143	-0.000357
H183	H	1.082711	-0.219529	0.052415
H184	H	1.082646	-0.219532	-0.052960
H185	H	1.007305	-0.137520	0.052354
H186	H	1.007315	-0.137587	-0.053020
O187	O	0.703755	-0.066794	-0.000282
C188	C	0.595187	-0.041259	-0.065521
C189	C	0.664834	-0.075457	-0.065496
H190	H	0.563707	-0.048244	-0.118249
H191	H	0.563577	-0.048273	-0.012867
H192	H	0.606743	-0.001913	-0.065486
H193	H	0.653342	-0.114816	-0.065558
H194	H	0.696423	-0.068401	-0.118146
O195	O	0.633038	-0.543375	-0.000352
C196	C	0.523971	-0.548684	-0.065544
C197	C	0.594429	-0.527444	-0.065496
H198	H	0.492729	-0.535805	-0.118199
H199	H	0.534263	-0.590062	-0.065603
H200	H	0.492737	-0.535883	-0.012827
H201	H	0.625699	-0.540209	-0.118205
H202	H	0.584087	-0.486068	-0.065398
O203	O	1.015169	-0.327859	-0.000310
C204	C	1.141393	-0.344881	-0.000301
C205	C	1.070915	-0.366095	-0.000261
H206	H	1.186482	-0.375785	-0.000245
H207	H	1.144983	-0.321584	-0.053001
H208	H	1.144885	-0.321562	0.052374
H209	H	1.067375	-0.389436	-0.052900
H210	H	1.067355	-0.389365	0.052474
O211	O	1.013602	-0.427206	-0.000182
C212	C	1.086691	-0.490942	0.065055
C213	C	1.017066	-0.456720	0.065036
H214	H	1.089521	-0.514805	0.117786
H215	H	1.089556	-0.514869	0.012404
H216	H	1.132569	-0.468457	0.065010
H217	H	0.971148	-0.479166	0.065108
H218	H	1.014262	-0.432791	0.117683
O219	O	0.945770	-0.704993	-0.000381
C220	C	1.020546	-0.654934	-0.065651
C221	C	0.950109	-0.676202	-0.065602
H222	H	1.024083	-0.631660	-0.118385
H223	H	1.024083	-0.631598	-0.013003
H224	H	1.065643	-0.685832	-0.065625
H225	H	0.904971	-0.645334	-0.065656
H226	H	0.946632	-0.699551	-0.118246
O227	O	1.012905	-0.479044	-0.000430
C228	C	1.121999	-0.473717	-0.065659
C229	C	1.051538	-0.494955	-0.065592
H230	H	1.153260	-0.486581	-0.118330
H231	H	1.111709	-0.432339	-0.065703
H232	H	1.153212	-0.486537	-0.012957
H233	H	1.020290	-0.482172	-0.118286
H234	H	1.061878	-0.536331	-0.065509
O235	O	1.011406	-0.578428	-0.000440
C236	C	1.084444	-0.642203	-0.065672
C237	C	1.014818	-0.607982	-0.065597
H238	H	1.087220	-0.666113	-0.118337
H239	H	1.130376	-0.619765	-0.065731
H240	H	1.087262	-0.666088	-0.012965
H241	H	1.011932	-0.584090	-0.118295
H242	H	0.968920	-0.630449	-0.065498
H243	H	0.644461	-0.448908	-0.000210
