data_functionalizedCrystal
_audit_creation_method	'MofGen! by Chris Wilmer'
_symmetry_space_group_name_H-M	'P1'
_symmetry_Int_Tables_number	1
_symmetry_cell_setting	triclinic
loop_
_symmetry_equiv_pos_as_xyz
  x,y,z
_cell_length_a	19.319731
_cell_length_b	19.318970
_cell_length_c	19.315557
_cell_angle_alpha	60.007379
_cell_angle_beta	60.014690
_cell_angle_gamma	59.991495
loop_
_atom_site_label
_atom_site_type_symbol
_atom_site_fract_x
_atom_site_fract_y
_atom_site_fract_z
O1	O	0.095954	-1.011347	0.845684
O2	O	0.036156	-0.787405	0.681392
O3	O	0.177960	-0.929104	0.681276
O4	O	-0.045850	-0.869648	0.845799
O5	O	0.225008	-0.882072	0.728208
O6	O	0.083204	-0.740373	0.728324
O7	O	0.143002	-0.964315	0.892616
Cu8	Cu	0.117399	-0.848050	0.814755
Cu9	Cu	0.061759	-0.903670	0.759252
O10	O	0.001198	-0.822616	0.892732
N11	N	0.156535	-0.808935	0.853797
N12	N	0.022631	-0.942793	0.720211
C13	C	0.182113	-0.653200	0.879374
C14	C	0.182221	-0.783395	1.009518
C15	C	0.312319	-0.783375	0.879314
C16	C	0.182127	-0.783371	0.879357
C17	C	0.214696	-0.750836	0.911890
C18	C	-0.132988	-0.968144	0.694232
C19	C	-0.002674	-0.968326	0.564242
C20	C	-0.002907	-1.098444	0.694459
C21	C	-0.002887	-0.968321	0.694542
C22	C	-0.035363	-1.000810	0.661869
N23	N	0.389025	-0.808944	0.853717
O24	O	0.660019	-0.816766	0.651282
O25	O	0.660312	-0.981573	0.874999
O26	O	0.660193	-0.981192	0.733108
O27	O	0.660138	-0.817147	0.793174
O28	O	0.519202	-0.934278	0.780210
O29	O	0.519321	-0.934658	0.922102
O30	O	0.519028	-0.769852	0.698384
Cu31	Cu	0.506300	-0.847971	0.814544
Cu32	Cu	0.673039	-0.903453	0.758840
O33	O	0.519147	-0.770232	0.840276
N34	N	0.790314	-0.942480	0.719658
N35	N	0.156514	-0.576494	0.853827
O36	O	-0.045823	-0.305328	0.845846
O37	O	0.177892	-0.305317	0.681053
O38	O	0.035967	-0.305340	0.681465
O39	O	0.096102	-0.305306	0.845434
O40	O	0.083020	-0.446347	0.728459
O41	O	0.224945	-0.446325	0.728047
O42	O	0.001230	-0.446335	0.892839
Cu43	Cu	0.117383	-0.459205	0.814734
Cu44	Cu	0.061738	-0.292448	0.759159
O45	O	0.143154	-0.446313	0.892428
N46	N	0.022597	-0.175159	0.720067
N47	N	0.156703	-0.808977	1.086224
O48	O	0.148753	-1.011298	1.357359
O49	O	-0.016009	-0.787491	1.357400
O50	O	-0.015627	-0.929387	1.357339
O51	O	0.148372	-0.869401	1.357420
O52	O	0.031342	-0.882367	1.216340
O53	O	0.030961	-0.740471	1.216400
O54	O	0.195723	-0.964278	1.216360
Cu55	Cu	0.117631	-0.848081	1.203506
Cu56	Cu	0.062083	-0.903688	1.370254
O57	O	0.195341	-0.822381	1.216420
N58	N	0.023010	-0.942801	1.487536
C59	C	0.054075	-0.735670	0.682223
C60	C	0.229681	-0.911148	0.682079
C61	C	0.125082	-1.016051	0.891784
C62	C	-0.050524	-0.840572	0.891928
C63	C	0.589851	-0.980810	0.926735
C64	C	0.589706	-0.980340	0.751019
C65	C	0.589484	-0.770613	0.646650
C66	C	0.589634	-0.771085	0.822364
C67	C	0.229543	-0.375646	0.681799
C68	C	0.053845	-0.375847	0.682366
C69	C	-0.050480	-0.375832	0.892036
C70	C	0.125277	-0.375807	0.891527
C71	C	-0.015214	-0.735785	1.286905
C72	C	-0.014732	-0.911497	1.286802
C73	C	0.194928	-1.015984	1.286855
C74	C	0.194457	-0.840261	1.286926
H75	H	0.293962	-0.923825	0.630414
C76	C	0.589696	-0.732065	0.922441
C77	C	0.589607	-0.701511	0.839711
H78	H	0.589673	-0.689110	0.933150
H79	H	0.638899	-0.780254	0.928714
H80	H	0.540565	-0.747538	0.961567
H81	H	0.638741	-0.686044	0.800585
H82	H	0.540398	-0.653307	0.833431
H83	H	0.293660	-0.375252	0.629934
C84	C	-0.126221	-0.448310	1.032886
C85	C	-0.137214	-0.375830	0.961875
H86	H	-0.179770	-0.448308	1.075997
H87	H	-0.090593	-0.448295	1.053345
H88	H	-0.100857	-0.497482	1.017477
H89	H	-0.162573	-0.326658	0.977282
H90	H	-0.172857	-0.375837	0.941413
C91	C	0.662271	-1.120950	0.742931
C92	C	0.589735	-1.049913	0.733671
H93	H	0.662289	-1.163898	0.732216
H94	H	0.662324	-1.141664	0.799051
H95	H	0.711393	-1.105465	0.703796
H96	H	0.540612	-1.065397	0.772811
H97	H	0.589674	-1.029196	0.677543
C98	C	-0.103708	-0.996959	1.359126
C99	C	-0.084258	-0.928785	1.286687
H100	H	-0.146626	-1.007633	1.359051
H101	H	-0.123324	-0.983513	1.408315
H102	H	-0.054365	-1.045968	1.359131
H103	H	-0.133599	-0.879773	1.286686
H104	H	-0.064645	-0.942226	1.237486
H105	H	0.041301	-0.671339	0.630625
H106	H	0.138154	-0.375795	0.943037
H107	H	0.246659	-1.080258	1.286832
C108	C	0.233473	-0.740193	1.286962
C109	C	0.264017	-0.822943	1.286942
H110	H	0.276419	-0.729501	1.286965
H111	H	0.185279	-0.733874	1.336131
H112	H	0.218019	-0.701082	1.237791
H113	H	0.279464	-0.862054	1.336116
H114	H	0.312226	-0.829269	1.237767
C115	C	-0.152475	-0.755349	0.981224
C116	C	-0.137298	-0.823474	0.961681
H117	H	-0.206043	-0.744799	1.024292
H118	H	-0.152339	-0.706281	0.931965
H119	H	-0.109343	-0.768774	1.000684
H120	H	-0.180427	-0.810047	0.942216
H121	H	-0.137441	-0.872553	1.010951
H122	H	0.040966	-0.375849	0.630853
H123	H	-0.066941	-0.671507	1.286916
H124	H	0.589926	-1.032546	0.990990
H125	H	0.137858	-1.080380	0.943384
H126	H	0.589389	-0.718870	0.582402
