data_functionalizedCrystal
_audit_creation_method	'MofGen! by Chris Wilmer'
_symmetry_space_group_name_H-M	'P1'
_symmetry_Int_Tables_number	1
_symmetry_cell_setting	triclinic
loop_
_symmetry_equiv_pos_as_xyz
  x,y,z
_cell_length_a	14.908783
_cell_length_b	18.101397
_cell_length_c	14.908308
_cell_angle_alpha	86.737270
_cell_angle_beta	90.211273
_cell_angle_gamma	93.311144
loop_
_atom_site_label
_atom_site_type_symbol
_atom_site_fract_x
_atom_site_fract_y
_atom_site_fract_z
Zn1	Zn	1.345316	-0.259021	0.587809
Zn2	Zn	1.678649	0.074313	0.921143
Zn3	Zn	2.011982	0.407646	1.254476
Zn4	Zn	1.353897	-0.375344	0.437440
Zn5	Zn	1.687230	-0.042011	0.770774
Zn6	Zn	2.020563	0.291323	1.104107
Zn7	Zn	1.203629	-0.258219	0.428781
Zn8	Zn	1.536962	0.075114	0.762114
Zn9	Zn	1.870295	0.408447	1.095447
Zn10	Zn	1.194922	-0.389525	0.579061
Zn11	Zn	1.528255	-0.056192	0.912394
Zn12	Zn	1.861589	0.277142	1.245728
O13	O	1.274441	-0.320527	0.508273
O14	O	1.607774	0.012806	0.841606
O15	O	1.941107	0.346139	1.174940
O16	O	1.472282	-0.268852	0.575148
O17	O	1.805615	0.064481	0.908481
O18	O	2.138948	0.397815	1.241815
O19	O	1.341198	-0.353537	0.310469
O20	O	1.674531	-0.020204	0.643802
O21	O	2.007865	0.313130	0.977136
O22	O	1.222476	-0.154692	0.449913
O23	O	1.555810	0.178641	0.783247
O24	O	1.889143	0.511975	1.116580
O25	O	1.478586	-0.354314	0.464672
O26	O	1.811919	-0.020981	0.798006
O27	O	2.145253	0.312352	1.131339
O28	O	1.326573	-0.155281	0.566751
O29	O	1.659906	0.178053	0.900084
O30	O	1.993240	0.511386	1.233418
O31	O	1.230797	-0.267486	0.304107
O32	O	1.564130	0.065847	0.637440
O33	O	1.897464	0.399181	0.970773
O34	O	1.076646	-0.281237	0.441430
O35	O	1.409979	0.052097	0.774764
O36	O	1.743313	0.385430	1.108097
O37	O	1.207637	-0.378483	0.706044
O38	O	1.540970	-0.045150	1.039378
O39	O	1.874304	0.288183	1.372711
O40	O	1.070249	-0.377706	0.551841
O41	O	1.403583	-0.044373	0.885174
O42	O	1.736916	0.288960	1.218507
O43	O	1.318131	-0.282603	0.712472
O44	O	1.651464	0.050731	1.045805
O45	O	1.984797	0.384064	1.379138
O46	O	1.332756	-0.480859	0.456189
O47	O	1.666089	-0.147526	0.789523
O48	O	1.999422	0.185808	1.122856
O49	O	1.215958	-0.491277	0.560237
O50	O	1.549291	-0.157944	0.893571
O51	O	1.882624	0.175389	1.226904
C52	C	1.040822	-0.330924	0.494747
C53	C	1.374155	0.002409	0.828080
C54	C	1.707489	0.335743	1.161414
C55	C	0.940878	-0.335390	0.488982
C56	C	1.274211	-0.002057	0.822315
C57	C	1.607544	0.331276	1.155649
C58	C	0.746495	-0.254930	0.593363
C59	C	1.079828	0.078403	0.926696
C60	C	1.413161	0.411736	1.260029
C61	C	0.652588	-0.259125	0.587949
C62	C	0.985921	0.074209	0.921282
C63	C	1.319254	0.407542	1.254615
C64	C	0.659156	-0.347969	0.472736
C65	C	0.992489	-0.014636	0.806070
C66	C	1.325822	0.318698	1.139403
C67	C	0.753062	-0.343775	0.478150
C68	C	1.086396	-0.010441	0.811484
C69	C	1.419729	0.322892	1.144817
C70	C	0.796728	-0.297255	0.538466
C71	C	1.130062	0.036079	0.871800
C72	C	1.463395	0.369412	1.205133
C73	C	0.890637	-0.293065	0.543884
C74	C	1.223970	0.040269	0.877218
C75	C	1.557303	0.373602	1.210551
C76	C	0.897203	-0.381905	0.428668
C77	C	1.230536	-0.048571	0.762001
C78	C	1.563870	0.284762	1.095335
C79	C	0.803296	-0.386099	0.423254
C80	C	1.136630	-0.052766	0.756587
C81	C	1.469963	0.280568	1.089921
C82	C	1.274366	-0.512939	0.508225
C83	C	1.607700	-0.179606	0.841558
C84	C	1.941033	0.153728	1.174892
C85	C	1.274415	-0.595252	0.508239
C86	C	1.607748	-0.261918	0.841572
C87	C	1.941082	0.071415	1.174906
C88	C	1.274525	-0.894341	0.508328
C89	C	1.607858	-0.561008	0.841661
C90	C	1.941192	-0.227675	1.174994
C91	C	1.347828	-0.856430	0.442666
C92	C	1.681161	-0.523096	0.776000
C93	C	2.014495	-0.189763	1.109333
C94	C	1.348058	-0.770809	0.442861
C95	C	1.681391	-0.437476	0.776194
C96	C	2.014724	-0.104143	1.109527
C97	C	1.274471	-0.745959	0.508283
C98	C	1.607804	-0.412626	0.841616
C99	C	1.941137	-0.079293	1.174950
C100	C	1.294687	-0.780566	0.604541
C101	C	1.628020	-0.447233	0.937875
C102	C	1.961354	-0.113900	1.271208
C103	C	1.295245	-0.866168	0.604193
C104	C	1.628578	-0.532835	0.937526
C105	C	1.961912	-0.199502	1.270859
C106	C	1.180774	-0.865875	0.478541
C107	C	1.514107	-0.532542	0.811874
C108	C	1.847440	-0.199209	1.145207
C109	C	1.181366	-0.780099	0.476452
C110	C	1.514699	-0.446766	0.809786
C111	C	1.848032	-0.113432	1.143119
C112	C	1.274438	-0.662101	0.508263
C113	C	1.607771	-0.328767	0.841597
C114	C	1.941105	0.004566	1.174930
C115	C	1.274560	-0.978200	0.508354
C116	C	1.607893	-0.644867	0.841687
C117	C	1.941226	-0.311534	1.175021
C118	C	1.508972	-0.310091	0.521852
C119	C	1.842305	0.023243	0.855185
C120	C	2.175638	0.356576	1.188519
C121	C	1.608915	-0.305643	0.527639
C122	C	1.942248	0.027690	0.860972
C123	C	2.275582	0.361023	1.194305
C124	C	1.260955	-0.332214	0.742795
C125	C	1.594289	0.001119	1.076128
C126	C	1.927622	0.334452	1.409461
C127	C	1.255209	-0.337194	0.842734
C128	C	1.588542	-0.003861	1.176067
C129	C	1.921876	0.329472	1.509400
C130	C	1.274539	-0.127364	0.508342
C131	C	1.607872	0.205969	0.841676
C132	C	1.941205	0.539303	1.175009
C133	C	1.274581	-0.045049	0.508372
C134	C	1.607914	0.288284	0.841705
C135	C	1.941247	0.621617	1.175038
C136	C	1.287925	-0.308830	0.274667
C137	C	1.621259	0.024503	0.608000
C138	C	1.954592	0.357837	0.941333
C139	C	1.293846	-0.303633	0.174738
C140	C	1.627179	0.029700	0.508071
C141	C	1.960513	0.363033	0.841405
C142	C	1.359465	-0.246695	1.037224
C143	C	1.692798	0.086638	1.370558
C144	C	2.026131	0.419972	1.703891
C145	C	1.354068	-0.251372	1.131126
C146	C	1.687401	0.081962	1.464460
C147	C	2.020735	0.415295	1.797793
C148	C	1.239015	-0.351221	1.124441
C149	C	1.572348	-0.017887	1.457774
C150	C	1.905682	0.315446	1.791108
C151	C	1.244412	-0.346544	1.030539
C152	C	1.577745	-0.013211	1.363872
C153	C	1.911078	0.320123	1.697206
C154	C	1.304639	-0.294280	0.986934
C155	C	1.637973	0.039053	1.320268
C156	C	1.971306	0.372387	1.653601
C157	C	1.310040	-0.289607	0.893031
C158	C	1.643373	0.043726	1.226364
C159	C	1.976707	0.377059	1.559698
C160	C	1.194983	-0.389452	0.886347
C161	C	1.528316	-0.056119	1.219680
C162	C	1.861650	0.277214	1.553014
C163	C	1.189586	-0.394129	0.980249
C164	C	1.522920	-0.060796	1.313582
C165	C	1.856253	0.272538	1.646915
H166	H	0.782048	-0.217055	0.642478
H167	H	1.115381	0.116278	0.975812
H168	H	1.448715	0.449612	1.309145
H169	H	1.398710	-0.212621	1.172069
H170	H	1.732043	0.120712	1.505403
H171	H	2.065377	0.454046	1.838736
H172	H	0.611691	-0.224658	0.632649
H173	H	0.945024	0.108676	0.965982
H174	H	1.278357	0.442009	1.299316
C175	C	1.387600	-0.890288	0.637403
C176	C	1.720933	-0.556955	0.970736
C177	C	2.054267	-0.223622	1.304070
H178	H	1.388754	-0.942713	0.637486
H179	H	1.722087	-0.609379	0.970819
H180	H	2.055421	-0.276046	1.304153
H181	H	1.433207	-0.868164	0.598604
H182	H	1.766541	-0.534831	0.931937
H183	H	2.099874	-0.201498	1.265271
H184	H	1.397809	-0.874875	0.696619
H185	H	1.731143	-0.541541	1.029952
H186	H	2.064476	-0.208208	1.363285
H187	H	0.767731	-0.423972	0.374144
H188	H	1.101064	-0.090639	0.707477
H189	H	1.434397	0.242695	1.040811
H190	H	1.336020	-0.874252	0.371265
H191	H	1.669354	-0.540919	0.704598
H192	H	2.002687	-0.207585	1.037932
H193	H	1.150343	-0.428201	0.845390
H194	H	1.483676	-0.094868	1.178724
H195	H	1.817009	0.238465	1.512057
H196	H	1.417614	-0.747929	0.463004
H197	H	1.750948	-0.414596	0.796337
H198	H	2.084281	-0.081262	1.129671
H199	H	1.189980	-0.393771	1.159960
H200	H	1.523314	-0.060437	1.493294
H201	H	1.856647	0.272896	1.826627
C202	C	1.107077	-0.899792	0.543046
C203	C	1.440410	-0.566459	0.876379
C204	C	1.773744	-0.233126	1.209712
H205	H	1.050585	-0.882381	0.524707
H206	H	1.383919	-0.549048	0.858041
H207	H	1.717252	-0.215715	1.191374
H208	H	1.105062	-0.952280	0.541936
H209	H	1.438396	-0.618947	0.875269
H210	H	1.771729	-0.285614	1.208603
H211	H	1.120119	-0.885627	0.602294
H212	H	1.453452	-0.552294	0.935627
H213	H	1.786785	-0.218961	1.268960
H214	H	1.140549	-0.436679	1.015765
H215	H	1.473882	-0.103346	1.349098
H216	H	1.807216	0.229988	1.682431
H217	H	0.926188	-0.255186	0.592997
H218	H	1.259521	0.078147	0.926331
H219	H	1.592855	0.411480	1.259664
H220	H	0.623587	-0.385835	0.423620
H221	H	0.956920	-0.052501	0.756954
H222	H	1.290254	0.280832	1.090287
H223	H	0.938113	-0.416375	0.383974
H224	H	1.271447	-0.083041	0.717307
H225	H	1.604780	0.250292	1.050641
H226	H	1.166023	-0.757212	0.405587
H227	H	1.499356	-0.423879	0.738921
H228	H	1.832690	-0.090546	1.072254
H229	H	1.336044	-0.747046	0.371659
H230	H	1.669377	-0.413713	0.704992
H231	H	2.002710	-0.080379	1.038325
C232	C	1.441290	-0.882273	0.469600
C233	C	1.774623	-0.548940	0.802934
C234	C	2.107957	-0.215607	1.136267
H235	H	1.435833	-0.916065	0.520690
H236	H	1.769166	-0.582732	0.854023
H237	H	2.102499	-0.249399	1.187356
H238	H	1.466282	-0.906065	0.421132
H239	H	1.799615	-0.572732	0.754465
H240	H	2.132949	-0.239398	1.087799
H241	H	1.479412	-0.840629	0.483616
H242	H	1.812746	-0.507295	0.816950
H243	H	2.146079	-0.173962	1.150283
C244	C	1.376280	-0.232116	0.845066
C245	C	1.709614	0.101218	1.178399
C246	C	2.042947	0.434551	1.511733
H247	H	1.408151	-0.204440	0.888469
H248	H	1.741484	0.128893	1.221802
H249	H	2.074817	0.462227	1.555136
H250	H	1.417555	-0.256868	0.810690
H251	H	1.750888	0.076465	1.144023
H252	H	2.084222	0.409799	1.477357
H253	H	1.343992	-0.199556	0.806458
H254	H	1.677325	0.133777	1.139791
H255	H	2.010658	0.467111	1.473124
H256	H	1.243894	-0.891733	0.655099
H257	H	1.577227	-0.558400	0.988432
H258	H	1.910561	-0.225067	1.321766
H259	H	1.124254	-0.763492	0.520334
H260	H	1.457588	-0.430159	0.853667
H261	H	1.790921	-0.096825	1.187000
C262	C	1.224455	-0.759610	0.672734
C263	C	1.557788	-0.426277	1.006068
C264	C	1.891122	-0.092944	1.339401
H265	H	1.182081	-0.729494	0.643036
H266	H	1.515414	-0.396161	0.976369
H267	H	1.848747	-0.062827	1.309702
H268	H	1.194328	-0.803376	0.698494
H269	H	1.527661	-0.470042	1.031828
H270	H	1.860995	-0.136709	1.365161
H271	H	1.253631	-0.733016	0.718738
H272	H	1.586965	-0.399683	1.052071
H273	H	1.920298	-0.066350	1.385404
C274	C	1.385997	-0.748841	0.638150
C275	C	1.719331	-0.415508	0.971483
C276	C	2.052664	-0.082174	1.304816
H277	H	1.397639	-0.770134	0.696448
H278	H	1.730973	-0.436801	1.029782
H279	H	2.064306	-0.103468	1.363115
H280	H	1.432043	-0.760240	0.598175
H281	H	1.765376	-0.426907	0.931509
H282	H	2.098709	-0.093573	1.264842
H283	H	1.384645	-0.696586	0.640563
H284	H	1.717978	-0.363252	0.973896
H285	H	2.051312	-0.029919	1.307230
C286	C	1.154502	-0.891941	0.384972
C287	C	1.487836	-0.558608	0.718306
C288	C	1.821169	-0.225275	1.051639
H289	H	1.200471	-0.920431	0.363196
H290	H	1.533805	-0.587098	0.696529
H291	H	1.867138	-0.253764	1.029862
H292	H	1.099711	-0.921435	0.389119
H293	H	1.433044	-0.588101	0.722452
H294	H	1.766377	-0.254768	1.055786
H295	H	1.147141	-0.850033	0.344867
H296	H	1.480474	-0.516700	0.678201
H297	H	1.813808	-0.183366	1.011534
H298	H	1.408509	-0.204143	1.001721
H299	H	1.741842	0.129190	1.335054
H300	H	2.075175	0.462523	1.668388
