data_functionalizedCrystal
_audit_creation_method	'MofGen! by Chris Wilmer'
_symmetry_space_group_name_H-M	'P1'
_symmetry_Int_Tables_number	1
_symmetry_cell_setting	triclinic
loop_
_symmetry_equiv_pos_as_xyz
  x,y,z
_cell_length_a	29.839134
_cell_length_b	29.839131
_cell_length_c	21.295412
_cell_angle_alpha	89.970612
_cell_angle_beta	89.964443
_cell_angle_gamma	90.034165
loop_
_atom_site_label
_atom_site_type_symbol
_atom_site_fract_x
_atom_site_fract_y
_atom_site_fract_z
Zn1	Zn	0.686769	-0.178951	-0.356119
Zn2	Zn	1.186769	0.321049	0.143881
Zn3	Zn	0.686687	-0.254079	-0.250847
Zn4	Zn	1.186687	0.245921	0.249153
Zn5	Zn	0.611638	-0.178954	-0.250842
Zn6	Zn	1.111638	0.321046	0.249158
Zn7	Zn	0.611600	-0.254046	-0.356057
Zn8	Zn	1.111600	0.245954	0.143943
O9	O	0.649173	-0.216507	-0.303466
O10	O	1.149173	0.283493	0.196534
O11	O	0.749626	-0.188930	-0.342183
O12	O	1.249626	0.311070	0.157817
O13	O	0.676713	-0.244128	-0.162757
O14	O	1.176713	0.255872	0.337243
O15	O	0.621654	-0.116087	-0.264832
O16	O	1.121654	0.383913	0.235168
O17	O	0.749565	-0.244126	-0.264840
O18	O	1.249565	0.255874	0.235160
O19	O	0.676853	-0.116085	-0.342178
O20	O	1.176853	0.383915	0.157822
O21	O	0.621574	-0.188935	-0.162753
O22	O	1.121574	0.311065	0.337247
O23	O	0.548765	-0.188902	-0.264771
O24	O	1.048765	0.311098	0.235229
O25	O	0.621590	-0.244069	-0.444154
O26	O	1.121590	0.255931	0.055846
O27	O	0.548738	-0.244072	-0.342071
O28	O	1.048738	0.255928	0.157929
O29	O	0.676817	-0.188898	-0.444200
O30	O	1.176817	0.311102	0.055800
O31	O	0.676676	-0.316941	-0.264779
O32	O	1.176676	0.183059	0.235221
O33	O	0.621510	-0.316917	-0.342076
O34	O	1.121510	0.183083	0.157924
C35	C	0.532451	-0.216484	-0.303414
C36	C	1.032451	0.283516	0.196586
C37	C	0.482517	-0.216485	-0.303407
C38	C	0.982517	0.283515	0.196593
C39	C	0.125931	-0.187738	-0.263298
C40	C	0.625931	0.312262	0.236702
C41	C	0.313604	-0.187726	-0.263260
C42	C	0.813604	0.312274	0.236740
O43	O	0.337870	-0.163246	-0.229099
O44	O	0.837870	0.336754	0.270901
N45	N	0.337071	-0.216492	-0.303438
N46	N	0.837071	0.283508	0.196562
C47	C	0.313617	-0.245262	-0.343632
C48	C	0.813617	0.254738	0.156368
O49	O	0.337884	-0.269726	-0.377811
O50	O	0.837884	0.230274	0.122189
C51	C	0.125945	-0.245272	-0.343673
C52	C	0.625945	0.254728	0.156327
C53	C	0.102480	-0.216507	-0.303488
C54	C	0.602480	0.283493	0.196512
C55	C	0.102466	-0.158975	-0.223116
C56	C	0.602466	0.341025	0.276884
C57	C	0.055551	-0.158980	-0.223123
C58	C	0.555551	0.341020	0.276877
C59	C	0.032100	-0.187749	-0.263313
C60	C	0.532100	0.312251	0.236687
C61	C	0.055565	-0.216512	-0.303495
C62	C	0.555565	0.283488	0.196505
C63	C	0.102492	-0.274039	-0.383870
C64	C	0.602492	0.225961	0.116130
C65	C	0.055571	-0.274038	-0.383878
C66	C	0.555571	0.225962	0.116122
C67	C	0.032106	-0.245273	-0.343692
C68	C	0.532106	0.254727	0.156308
C69	C	-0.014801	-0.245286	-0.343692
C70	C	0.485199	0.254714	0.156308
N71	N	-0.038268	-0.216519	-0.303514
N72	N	0.461732	0.283481	0.196486
C73	C	-0.014818	-0.187751	-0.263324
C74	C	0.485182	0.312249	0.236676
C75	C	0.412148	-0.245255	-0.343607
C76	C	0.912148	0.254745	0.156393
C77	C	0.459066	-0.245253	-0.343596
C78	C	0.959066	0.254747	0.156404
C79	C	0.459049	-0.187716	-0.263224
C80	C	0.959049	0.312284	0.236776
C81	C	0.412131	-0.187721	-0.263232
C82	C	0.912131	0.312279	0.236768
C83	C	0.388681	-0.216489	-0.303429
C84	C	0.888681	0.283511	0.196571
C85	C	-0.113343	-0.187764	-0.263342
C86	C	0.386657	0.312236	0.236658
C87	C	-0.160263	-0.187773	-0.263352
C88	C	0.339737	0.312227	0.236648
C89	C	-0.160243	-0.245308	-0.343726
C90	C	0.339757	0.254692	0.156274
C91	C	-0.113327	-0.245301	-0.343714
C92	C	0.386673	0.254699	0.156286
C93	C	-0.089879	-0.216525	-0.303521
C94	C	0.410121	0.283475	0.196479
O95	O	-0.039096	-0.269749	-0.377840
O96	O	0.460904	0.230251	0.122160
O97	O	-0.039092	-0.163283	-0.229161
O98	O	0.460908	0.336717	0.270839
C99	C	0.172847	-0.187733	-0.263290
C100	C	0.672847	0.312267	0.236710
C101	C	0.196311	-0.216496	-0.303472
C102	C	0.696311	0.283504	0.196528
C103	C	0.172861	-0.245265	-0.343662
C104	C	0.672861	0.254735	0.156338
C105	C	0.243229	-0.216495	-0.303462
C106	C	0.743229	0.283505	0.196538
C107	C	0.266680	-0.187726	-0.263272
C108	C	0.766680	0.312274	0.236728
C109	C	0.243213	-0.158959	-0.223093
C110	C	0.743213	0.341041	0.276907
C111	C	0.196297	-0.158965	-0.223101
C112	C	0.696297	0.341035	0.276899
C113	C	0.196328	-0.274031	-0.383841
C114	C	0.696328	0.225969	0.116159
C115	C	0.243243	-0.274024	-0.383829
C116	C	0.743243	0.225976	0.116171
C117	C	0.266694	-0.245256	-0.343640
C118	C	0.766694	0.254744	0.156360
C119	C	0.649092	-0.333230	-0.303435
C120	C	1.149092	0.166770	0.196565
C121	C	0.649099	-0.383164	-0.303443
C122	C	1.149099	0.116836	0.196557
C123	C	0.677951	-0.692808	-0.263276
C124	C	1.177951	-0.192808	0.236724
C125	C	0.678006	-0.880481	-0.263301
C126	C	1.178006	-0.380481	0.236699
O127	O	0.702473	-0.904746	-0.229126
O128	O	1.202473	-0.404746	0.270874
N129	N	0.649267	-0.903949	-0.303514
N130	N	1.149267	-0.403949	0.196486
C131	C	0.620513	-0.880497	-0.343726
C132	C	1.120513	-0.380497	0.156274
O133	O	0.596073	-0.904765	-0.377935
O134	O	1.096073	-0.404765	0.122065
C135	C	0.620460	-0.692825	-0.343704
C136	C	1.120460	-0.192825	0.156296
C137	C	0.649199	-0.669359	-0.303484
C138	C	1.149199	-0.169359	0.196516
C139	C	0.706687	-0.669342	-0.223060
C140	C	1.206687	-0.169342	0.276940
C141	C	0.706671	-0.622426	-0.223052
C142	C	1.206671	-0.122426	0.276948
C143	C	0.677919	-0.598977	-0.263260
C144	C	1.177919	-0.098977	0.236740
C145	C	0.649183	-0.622443	-0.303476
C146	C	1.149183	-0.122443	0.196524
C147	C	0.591710	-0.669373	-0.383920
C148	C	1.091710	-0.169373	0.116080
C149	C	0.591700	-0.622452	-0.383912
C150	C	1.091700	-0.122452	0.116088
C151	C	0.620438	-0.598986	-0.343692
C152	C	1.120438	-0.098986	0.156308
C153	C	0.620415	-0.552078	-0.343676
C154	C	1.120415	-0.052078	0.156324
N155	N	0.649154	-0.528610	-0.303463
N156	N	1.149154	-0.028610	0.196537
C157	C	0.677906	-0.552059	-0.263255
C158	C	1.177906	-0.052059	0.236745
C159	C	0.620542	-0.979028	-0.343734
C160	C	1.120542	-0.479028	0.156266
C161	C	0.620555	-1.025945	-0.343739
C162	C	1.120555	-0.525945	0.156261
C163	C	0.678049	-1.025926	-0.263314
C164	C	1.178049	-0.525926	0.236686
C165	C	0.678033	-0.979007	-0.263307
C166	C	1.178033	-0.479007	0.236693
C167	C	0.649282	-0.955559	-0.303521
C168	C	1.149282	-0.455559	0.196479
C169	C	0.677871	-0.453533	-0.263241
C170	C	1.177871	0.046467	0.236759
C171	C	0.677851	-0.406614	-0.263235
C172	C	1.177851	0.093386	0.236765
C173	C	0.620359	-0.406637	-0.343661
C174	C	1.120359	0.093363	0.156339
C175	C	0.620377	-0.453553	-0.343666
C176	C	1.120377	0.046447	0.156334
C177	C	0.649136	-0.477000	-0.303453
C178	C	1.149136	0.023000	0.196547
O179	O	0.595965	-0.527785	-0.377838
O180	O	1.095965	-0.027785	0.122162
O181	O	0.702350	-0.527783	-0.229062
O182	O	1.202350	-0.027783	0.270938
C183	C	0.677967	-0.739723	-0.263285
C184	C	1.177967	-0.239723	0.236715
C185	C	0.649230	-0.763190	-0.303501
C186	C	1.149230	-0.263190	0.196499
C187	C	0.620478	-0.739740	-0.343709
C188	C	1.120478	-0.239740	0.156291
C189	C	0.649243	-0.810107	-0.303505
C190	C	1.149243	-0.310107	0.196495
C191	C	0.677995	-0.833557	-0.263297
C192	C	1.177995	-0.333557	0.236703
C193	C	0.706734	-0.810088	-0.223085
C194	C	1.206734	-0.310088	0.276915
C195	C	0.706719	-0.763173	-0.223077
C196	C	1.206719	-0.263173	0.276923
C197	C	0.591739	-0.763209	-0.383922
C198	C	1.091739	-0.263209	0.116078
C199	C	0.591757	-0.810124	-0.383926
C200	C	1.091757	-0.310124	0.116074
C201	C	0.620509	-0.833574	-0.343718
C202	C	1.120509	-0.333574	0.156282
C203	C	0.766352	-0.216531	-0.303519
C204	C	1.266352	0.283469	0.196481
C205	C	0.816286	-0.216541	-0.303541
C206	C	1.316286	0.283459	0.196459
C207	C	0.649209	-0.216480	-0.467657
C208	C	1.149209	0.283520	0.032343
C209	C	0.649224	-0.216468	-0.537625
C210	C	1.149224	0.283532	-0.037625
C211	C	0.649267	-0.099329	-0.303511
C212	C	1.149267	0.400671	0.196489
C213	C	0.649307	-0.049395	-0.303531
C214	C	1.149307	0.450605	0.196469
C215	C	0.620521	-0.187725	-0.570480
C216	C	1.120521	0.312275	-0.070480
C217	C	0.620519	-0.187717	-0.636222
C218	C	1.120519	0.312283	-0.136222
C219	C	0.649228	-0.216446	-0.669107
C220	C	1.149228	0.283554	-0.169107
C221	C	0.677933	-0.245194	-0.636244
C222	C	1.177933	0.254806	-0.136244
C223	C	0.677931	-0.245205	-0.570503
C224	C	1.177931	0.254795	-0.070503
N225	N	0.688554	-0.219882	-0.772357
N226	N	1.188554	0.280118	-0.272357
N227	N	0.688555	-0.219869	-0.834809
N228	N	1.188555	0.280131	-0.334809
C229	C	0.649237	-0.216416	-0.867182
C230	C	1.149237	0.283584	-0.367182
N231	N	0.609916	-0.212968	-0.834745
N232	N	1.109916	0.287032	-0.334745
N233	N	0.609916	-0.212978	-0.772288
N234	N	1.109916	0.287022	-0.272288
C235	C	0.649234	-0.216438	-0.740393
C236	C	1.149234	0.283562	-0.240393
C237	C	0.620530	-0.187663	-0.971323
C238	C	1.120530	0.312337	-0.471323
C239	C	0.620527	-0.187658	-1.037066
C240	C	1.120527	0.312342	-0.537066
C241	C	0.677946	-0.245133	-1.037087
C242	C	1.177946	0.254867	-0.537087
C243	C	0.677944	-0.245141	-0.971345
C244	C	1.177944	0.254859	-0.471345
C245	C	0.649237	-0.216403	-0.938466
C246	C	1.149237	0.283597	-0.438466
C247	C	0.649164	-0.216503	-0.139915
C248	C	1.149164	0.283497	0.360085
C249	C	0.649236	-0.216388	-0.069947
C250	C	1.149236	0.283612	0.430053
H251	H	0.036450	-0.135556	-0.190400
H252	H	0.536450	0.364444	0.309600
Cl253	Cl	0.584439	-0.151539	-0.929987
Cl254	Cl	1.084439	0.348461	-0.429987
Cl255	Cl	0.272736	-0.310192	-0.434351
Cl256	Cl	0.772736	0.189808	0.065649
H257	H	0.177197	-0.135541	-0.190378
H258	H	0.677197	0.364459	0.309622
H259	H	0.121555	-0.135546	-0.190389
H260	H	0.621555	0.364454	0.309611
H261	H	0.597129	-0.959939	-0.376482
H262	H	1.097129	-0.459939	0.123518
Cl263	Cl	0.742879	-0.839576	-0.172537
Cl264	Cl	1.242879	-0.339576	0.327463
H265	H	0.701322	-0.268525	-1.063862
H266	H	1.201322	0.231475	-0.563862
H267	H	0.701460	-1.045026	-0.230575
H268	H	1.201460	-0.545026	0.269425
H269	H	-0.179345	-0.268732	-0.376445
H270	H	0.320655	0.231268	0.123555
Cl271	Cl	0.742851	-0.733679	-0.172514
Cl272	Cl	1.242851	-0.233679	0.327486
H273	H	0.568306	-0.688471	-0.416668
H274	H	1.068306	-0.188471	0.083332
Cl275	Cl	0.488558	-0.281423	-0.394109
Cl276	Cl	0.988558	0.218577	0.105891
Cl277	Cl	0.714025	-0.483002	-0.212687
Cl278	Cl	1.214025	0.016998	0.287313
H279	H	-0.179366	-0.164348	-0.230626
H280	H	0.320634	0.335652	0.269374
H281	H	0.597151	-0.164253	-1.063816
H282	H	1.097151	0.335747	-0.563816
H283	H	0.701318	-0.268545	-0.944594
H284	H	1.201318	0.231455	-0.444594
H285	H	0.596978	-0.472660	-0.376418
H286	H	1.096978	0.027340	0.123582
Cl287	Cl	-0.083828	-0.281468	-0.394228
Cl288	Cl	0.416172	0.218532	0.105772
Cl289	Cl	0.131979	-0.310203	-0.434394
Cl290	Cl	0.631979	0.189797	0.065606
Cl291	Cl	-0.083873	-0.151589	-0.212811
Cl292	Cl	0.416127	0.348411	0.287189
H293	H	0.568288	-0.603363	-0.416661
H294	H	1.068288	-0.103363	0.083339
Cl295	Cl	0.272703	-0.122795	-0.172568
Cl296	Cl	0.772703	0.377205	0.327432
Cl297	Cl	0.382675	-0.281426	-0.394142
Cl298	Cl	0.882675	0.218574	0.105858
H299	H	0.701306	-0.268610	-0.543753
H300	H	1.201306	0.231390	-0.043753
H301	H	0.568326	-0.744120	-0.416665
H302	H	1.068326	-0.244120	0.083335
Cl303	Cl	0.382637	-0.151557	-0.212713
Cl304	Cl	0.882637	0.348443	0.287287
Cl305	Cl	0.166854	-0.310202	-0.434369
Cl306	Cl	0.666854	0.189798	0.065631
H307	H	0.478151	-0.164292	-0.230500
H308	H	0.978151	0.335708	0.269500
H309	H	0.568351	-0.829226	-0.416677
H310	H	1.068351	-0.329226	0.083323
Cl311	Cl	0.584429	-0.151600	-0.529150
Cl312	Cl	1.084429	0.348400	-0.029150
Cl313	Cl	0.026094	-0.310205	-0.434415
Cl314	Cl	0.526094	0.189795	0.065585
H315	H	0.701253	-0.387509	-0.230481
H316	H	1.201253	0.112491	0.269519
Cl317	Cl	0.742808	-0.592933	-0.172497
Cl318	Cl	1.242808	-0.092933	0.327503
H319	H	0.730103	-0.688429	-0.190318
H320	H	1.230103	-0.188429	0.309682
Cl321	Cl	0.714163	-0.949512	-0.212744
Cl322	Cl	1.214163	-0.449512	0.287256
Cl323	Cl	0.584443	-0.151570	-0.677534
Cl324	Cl	1.084443	0.348430	-0.177534
H325	H	0.597149	-1.045048	-0.376484
H326	H	1.097149	-0.545048	0.123516
H327	H	0.596948	-0.387537	-0.376396
H328	H	1.096948	0.112463	0.123604
H329	H	0.701309	-0.268586	-0.663024
H330	H	1.201309	0.231414	-0.163024
