data_functionalizedCrystal
_audit_creation_method	'MofGen! by Chris Wilmer'
_symmetry_space_group_name_H-M	'P1'
_symmetry_Int_Tables_number	1
_symmetry_cell_setting	triclinic
loop_
_symmetry_equiv_pos_as_xyz
  x,y,z
_cell_length_a	11.169417
_cell_length_b	19.121063
_cell_length_c	19.120904
_cell_angle_alpha	94.741613
_cell_angle_beta	92.426083
_cell_angle_gamma	92.469728
loop_
_atom_site_label
_atom_site_type_symbol
_atom_site_fract_x
_atom_site_fract_y
_atom_site_fract_z
Zn1	Zn	1.783215	-0.297092	-0.409709
Zn2	Zn	2.283215	0.202908	0.090291
Zn3	Zn	1.783067	-0.409739	-0.297060
Zn4	Zn	2.283067	0.090261	0.202940
Zn5	Zn	1.591464	-0.292095	-0.292068
Zn6	Zn	2.091464	0.207905	0.207932
Zn7	Zn	1.573510	-0.414721	-0.414687
Zn8	Zn	2.073510	0.085279	0.085313
O9	O	1.682814	-0.353412	-0.353381
O10	O	2.182814	0.146588	0.146619
O11	O	1.951144	-0.312041	-0.394771
O12	O	2.451144	0.187959	0.105229
O13	O	1.765102	-0.389957	-0.197937
O14	O	2.265102	0.110043	0.302063
O15	O	1.624476	-0.194295	-0.303501
O16	O	2.124476	0.305705	0.196499
O17	O	1.951035	-0.394802	-0.312008
O18	O	2.451035	0.105198	0.187992
O19	O	1.765355	-0.197966	-0.389931
O20	O	2.265355	0.302034	0.110069
O21	O	1.624332	-0.303524	-0.194270
O22	O	2.124332	0.196476	0.305730
O23	O	1.421133	-0.308355	-0.308329
O24	O	1.921133	0.191645	0.191671
O25	O	1.593876	-0.403294	-0.512487
O26	O	2.093876	0.096706	-0.012487
O27	O	1.407943	-0.398448	-0.398416
O28	O	1.907943	0.101552	0.101584
O29	O	1.747946	-0.316872	-0.508830
O30	O	2.247946	0.183128	-0.008830
O31	O	1.747692	-0.508863	-0.316835
O32	O	2.247692	-0.008863	0.183165
O33	O	1.593732	-0.512523	-0.403256
O34	O	2.093732	-0.012523	0.096744
C35	C	1.370991	-0.353401	-0.353371
C36	C	1.870991	0.146599	0.146629
C37	C	1.237589	-0.353414	-0.353385
C38	C	1.737589	0.146586	0.146615
C39	C	1.668779	-0.536224	-0.361143
C40	C	2.168779	-0.036224	0.138857
C41	C	1.662883	-0.614433	-0.364487
C42	C	2.162883	-0.114433	0.135513
C43	C	1.740329	-0.649248	-0.321101
C44	C	2.240329	-0.149248	0.178899
C45	C	1.734790	-0.722734	-0.324250
C46	C	2.234790	-0.222734	0.175750
C47	C	1.651799	-0.761403	-0.370783
C48	C	2.151799	-0.261403	0.129217
C49	C	1.574350	-0.726583	-0.414174
C50	C	2.074350	-0.226583	0.085826
C51	C	1.579895	-0.653099	-0.411027
C52	C	2.079895	-0.153099	0.088973
C53	C	1.631049	-0.983375	-0.382535
C54	C	2.131049	-0.483375	0.117465
C55	C	1.625507	-1.056864	-0.385676
C56	C	2.125507	-0.556864	0.114324
C57	C	1.785949	-1.053010	-0.295753
C58	C	2.285949	-0.553010	0.204247
C59	C	1.791482	-0.979524	-0.292608
C60	C	2.291482	-0.479524	0.207392
C61	C	1.714037	-0.944710	-0.336002
C62	C	2.214037	-0.444710	0.163998
C63	C	1.646133	-0.836517	-0.374001
C64	C	2.146133	-0.336517	0.125999
C65	C	1.719710	-0.869598	-0.332786
C66	C	2.219710	-0.369598	0.167214
C67	C	1.995855	-0.353423	-0.353391
C68	C	2.495855	0.146577	0.146609
C69	C	2.129254	-0.353428	-0.353395
C70	C	2.629254	0.146572	0.146605
C71	C	1.668924	-0.361196	-0.536902
C72	C	2.168924	0.138804	-0.036902
C73	C	1.663006	-0.364514	-0.615108
C74	C	2.163006	0.135486	-0.115108
C75	C	1.696935	-0.169887	-0.345604
C76	C	2.196935	0.330113	0.154396
C77	C	1.702953	-0.091679	-0.342290
C78	C	2.202953	0.408321	0.157710
C79	C	1.740437	-0.321079	-0.649946
C80	C	2.240437	0.178921	-0.149946
C81	C	1.734861	-0.324193	-0.723429
C82	C	2.234861	0.175807	-0.223429
C83	C	1.651859	-0.370746	-0.762072
C84	C	2.151859	0.129254	-0.262072
C85	C	1.574420	-0.414183	-0.727229
C86	C	2.074420	0.085817	-0.227229
C87	C	1.579991	-0.411064	-0.653747
C88	C	2.079991	0.088936	-0.153747
C89	C	1.631020	-0.382409	-0.984033
C90	C	2.131020	0.117591	-0.484033
C91	C	1.625458	-0.385526	-1.057520
C92	C	2.125458	0.114474	-0.557520
C93	C	1.785898	-0.295535	-1.053714
C94	C	2.285898	0.204465	-0.553714
C95	C	1.791466	-0.292424	-0.980232
C96	C	2.291466	0.207576	-0.480232
C97	C	1.714023	-0.335858	-0.945395
C98	C	2.214023	0.164142	-0.445395
C99	C	1.646160	-0.373932	-0.837183
C100	C	2.146160	0.126068	-0.337183
C101	C	1.719717	-0.332668	-0.870285
C102	C	2.219717	0.167332	-0.370285
C103	C	1.696722	-0.345607	-0.170572
C104	C	2.196722	0.154393	0.329428
C105	C	1.702889	-0.342091	-0.092358
C106	C	2.202889	0.157909	0.407642
H107	H	1.807904	-0.617768	-0.283206
H108	H	2.307904	-0.117768	0.216794
F109	F	1.537160	-1.098017	-0.435197
F110	F	2.037160	-0.598017	0.064803
F111	F	1.868310	-0.249312	-1.090796
F112	F	2.368310	0.250688	-0.590796
F113	F	1.817223	-0.759783	-0.278074
F114	F	2.317223	-0.259783	0.221926
H115	H	1.567988	-0.955035	-0.417866
H116	H	2.067988	-0.455035	0.082134
H117	H	1.849002	-1.081363	-0.260426
H118	H	2.349002	-0.581363	0.239574
H119	H	1.506782	-0.758073	-0.452064
H120	H	2.006782	-0.258073	0.047936
F121	F	1.497470	-0.616046	-0.457207
F122	F	1.997470	-0.116046	0.042793
H123	H	1.516926	-0.446427	-0.625383
H124	H	2.016926	0.053573	-0.125383
F125	F	1.808037	-0.828442	-0.283268
F126	F	2.308037	-0.328442	0.216732
F127	F	1.557810	-0.877678	-0.423523
F128	F	2.057810	-0.377678	0.076477
F129	F	1.557830	-0.423479	-0.878316
F130	F	2.057830	0.076521	-0.378316
H131	H	1.808029	-0.283173	-0.618488
H132	H	2.308029	0.216827	-0.118488
H133	H	1.797916	-0.288826	-0.751790
H134	H	2.297916	0.211174	-0.251790
H135	H	1.859058	-0.254518	-0.948773
H136	H	2.359058	0.245482	-0.448773
H137	H	1.557864	-0.423437	-1.088981
H138	H	2.057864	0.076563	-0.588981
H139	H	1.567977	-0.417787	-0.955678
H140	H	2.067977	0.082213	-0.455678
H141	H	1.506833	-0.452085	-0.758698
H142	H	2.006833	0.047915	-0.258698
F143	F	1.808040	-0.283118	-0.829157
F144	F	2.308040	0.216882	-0.329157
H145	H	1.859060	-0.948041	-0.254718
H146	H	2.359060	-0.448041	0.245282
