data_functionalizedCrystal
_audit_creation_method	'MofGen! by Chris Wilmer'
_symmetry_space_group_name_H-M	'P1'
_symmetry_Int_Tables_number	1
_symmetry_cell_setting	triclinic
loop_
_symmetry_equiv_pos_as_xyz
  x,y,z
_cell_length_a	21.395362
_cell_length_b	21.395362
_cell_length_c	12.759393
_cell_angle_alpha	90.035235
_cell_angle_beta	90.042133
_cell_angle_gamma	90.049566
loop_
_atom_site_label
_atom_site_type_symbol
_atom_site_fract_x
_atom_site_fract_y
_atom_site_fract_z
Zn1	Zn	-0.957835	0.249143	-0.594580
Zn2	Zn	-0.957736	0.353933	-0.418885
Zn3	Zn	-0.853054	0.249202	-0.418850
Zn4	Zn	-0.853014	0.353915	-0.594458
O5	O	-0.905410	0.301548	-0.506693
O6	O	-1.045500	0.263026	-0.571340
O7	O	-0.943824	0.340072	-0.271860
O8	O	-0.867011	0.161516	-0.442197
O9	O	-1.045427	0.340015	-0.442258
O10	O	-0.943994	0.161473	-0.571305
O11	O	-0.866915	0.263127	-0.271834
O12	O	-0.765370	0.263110	-0.442079
O13	O	-0.866944	0.339985	-0.741495
O14	O	-0.765341	0.340043	-0.571097
O15	O	-0.943956	0.263009	-0.741585
O16	O	-0.943786	0.441608	-0.442139
O17	O	-0.866847	0.441596	-0.571131
C18	C	-0.742622	0.301581	-0.506571
C19	C	-0.672981	0.301611	-0.506544
C20	C	-0.905319	0.464336	-0.506649
C21	C	-0.905337	0.533977	-0.506665
C22	C	-0.905457	0.301488	-0.780727
C23	C	-0.905477	0.301462	-0.897503
C24	C	-1.068833	0.301515	-0.506816
C25	C	-1.138474	0.301501	-0.506869
C26	C	-0.640269	0.341722	-0.573623
C27	C	-0.574834	0.341707	-0.573670
C28	C	-0.542113	0.301587	-0.506619
C29	C	-0.574832	0.261467	-0.439535
C30	C	-0.640266	0.261479	-0.439498
C31	C	-0.438390	0.296555	-0.412037
C32	C	-0.372957	0.296548	-0.412073
C33	C	-0.340292	0.301546	-0.506735
C34	C	-0.373068	0.306564	-0.601365
C35	C	-0.438502	0.306576	-0.601327
C36	C	-0.471160	0.301569	-0.506653
C37	C	-0.236627	0.341643	-0.573871
C38	C	-0.171191	0.341623	-0.573919
C39	C	-0.171191	0.261386	-0.439775
C40	C	-0.236626	0.261403	-0.439736
C41	C	-0.269341	0.301534	-0.506782
C42	C	-0.945505	1.035697	-0.574028
C43	C	-0.945492	0.970262	-0.574014
C44	C	-0.905436	0.937615	-0.506736
C45	C	-0.865401	0.970410	-0.439448
C46	C	-0.865419	1.035844	-0.439457
C47	C	-0.848961	0.834016	-0.498306
C48	C	-0.848942	0.768583	-0.498305
C49	C	-0.905381	0.735795	-0.506703
C50	C	-0.961841	0.768447	-0.515124
C51	C	-0.961859	0.833882	-0.515133
C52	C	-0.905413	0.866663	-0.506718
C53	C	-0.945404	0.632056	-0.573966
C54	C	-0.945393	0.566619	-0.573944
C55	C	-0.865295	0.566768	-0.439384
C56	C	-0.865312	0.632203	-0.439400
C57	C	-0.905366	0.664843	-0.506697
C58	C	-0.905495	1.138125	-0.506752
C59	C	-0.905472	1.068484	-0.506753
C60	C	-0.945580	0.261375	-0.952414
C61	C	-0.945590	0.261348	-1.062138
C62	C	-0.865393	0.341502	-1.062032
C63	C	-0.865380	0.341525	-0.952310
C64	C	-0.968045	0.187419	-1.212140
C65	C	-1.008158	0.147336	-1.267055
C66	C	-1.069296	0.137713	-1.231502
C67	C	-1.090334	0.168182	-1.141038
C68	C	-1.050224	0.208269	-1.086129
C69	C	-0.989078	0.217880	-1.121680
C70	C	-0.842931	0.415455	-0.802305
C71	C	-0.802825	0.455545	-0.747395
C72	C	-0.741685	0.465175	-0.782945
C73	C	-0.720650	0.434717	-0.873413
C74	C	-0.760757	0.394627	-0.928323
C75	C	-0.821895	0.384996	-0.892766
C76	C	-0.905399	0.301563	-0.233726
C77	C	-0.905501	0.301412	-0.116950
H78	H	-0.666901	0.374400	-0.628219
H79	H	-0.263265	0.374317	-0.628469
H80	H	-0.892715	0.407613	-0.773346
C81	C	-0.900790	0.198000	-1.251242
H82	H	-0.879911	0.226230	-1.205578
H83	H	-0.901861	0.215016	-1.319966
H84	H	-0.879103	0.159278	-1.252288
C85	C	-1.157589	0.157603	-1.101937
H86	H	-1.164373	0.181492	-1.040203
H87	H	-1.163565	0.114533	-1.086899
H88	H	-1.186322	0.170268	-1.154584
H89	H	-0.832684	0.540188	-0.384601
C90	C	-1.023960	0.869797	-0.524378
H91	H	-1.057573	0.840903	-0.529371
H92	H	-1.023135	0.895302	-0.585276
H93	H	-1.029488	0.895339	-0.464170
C94	C	-0.737618	0.361121	-1.027834
H95	H	-0.695459	0.372593	-1.041142
H96	H	-0.762940	0.372913	-1.085709
H97	H	-0.740170	0.317181	-1.018029
C98	C	-0.474315	0.291023	-0.307907
H99	H	-0.445425	0.288031	-0.251557
H100	H	-0.499868	0.254702	-0.309402
H101	H	-0.499809	0.326922	-0.298516
C102	C	-1.113417	0.093621	-1.291903
H103	H	-1.092132	0.076853	-1.350865
H104	H	-1.149046	0.116266	-1.314894
H105	H	-1.126282	0.060533	-1.247212
C106	C	-0.135205	0.385746	-0.647711
H107	H	-0.091549	0.379986	-0.638142
H108	H	-0.145871	0.427834	-0.632198
H109	H	-0.145986	0.376627	-0.718327
C110	C	-0.821269	0.668270	-0.365409
H111	H	-0.797406	0.639457	-0.325344
H112	H	-0.845256	0.693789	-0.319688
H113	H	-0.793960	0.693808	-0.405553
H114	H	-0.465185	0.310661	-0.678378
H115	H	-0.978013	0.658633	-0.628770
C116	C	-0.786841	0.732668	-0.489050
H117	H	-0.794912	0.689002	-0.490263
H118	H	-0.766832	0.743438	-0.425046
H119	H	-0.760470	0.743401	-0.546151
C120	C	-0.538840	0.385833	-0.647454
H121	H	-0.495184	0.380075	-0.637876
H122	H	-0.549509	0.427921	-0.631940
H123	H	-0.549616	0.376716	-0.718073
H124	H	-0.832818	1.062538	-0.384672
C125	C	-0.336909	0.291026	-0.307987
H126	H	-0.365733	0.288039	-0.251606
H127	H	-0.311340	0.326922	-0.298649
H128	H	-0.311423	0.254700	-0.309485
H129	H	-0.144550	0.228716	-0.385185
H130	H	-0.832749	0.374121	-1.106668
C131	C	-0.653397	0.445307	-0.912522
H132	H	-0.632522	0.473540	-0.866858
H133	H	-0.654471	0.462323	-0.981246
H134	H	-0.631703	0.406589	-0.913570
H135	H	-0.263260	0.228742	-0.385107
C136	C	-0.697570	0.509276	-0.722545
H137	H	-0.718851	0.526039	-0.663574
H138	H	-0.684703	0.542361	-0.767235
H139	H	-0.661940	0.486628	-0.699550
C140	C	-0.825963	0.489049	-0.647882
H141	H	-0.868117	0.477567	-0.634562
H142	H	-0.823411	0.532986	-0.657675
H143	H	-0.800638	0.477251	-0.590007
C144	C	-0.989678	0.217305	-0.892126
H145	H	-0.983932	0.223063	-0.818914
H146	H	-0.980540	0.175205	-0.910118
H147	H	-1.031774	0.226467	-0.910143
H148	H	-0.832787	0.943825	-0.384668
H149	H	-1.007799	0.741752	-0.521965
H150	H	-0.548187	0.228799	-0.384944
H151	H	-0.802998	0.860707	-0.491472
C152	C	-0.337145	0.312060	-0.705499
H153	H	-0.293481	0.311327	-0.691974
H154	H	-0.347848	0.350229	-0.738974
H155	H	-0.347937	0.278005	-0.749786
H156	H	-0.666900	0.228813	-0.384874
C157	C	-0.989567	1.071598	-0.648041
H158	H	-1.013412	1.042696	-0.688099
H159	H	-0.965593	1.097135	-0.693768
H160	H	-1.016891	1.097106	-0.607907
H161	H	-0.991023	0.122529	-1.340711
C162	C	-0.989526	0.934187	-0.648020
H163	H	-0.983781	0.890542	-0.638371
H164	H	-0.980333	0.944891	-0.718591
H165	H	-1.031636	0.944866	-0.632739
H166	H	-0.977996	0.539924	-0.628724
C167	C	-1.073356	0.241785	-0.986629
H168	H	-1.040711	0.267037	-0.959022
H169	H	-1.085436	0.211634	-0.935900
H170	H	-1.108189	0.267370	-1.003586
