data_functionalizedCrystal
_audit_creation_method	'MofGen! by Chris Wilmer'
_symmetry_space_group_name_H-M	'P1'
_symmetry_Int_Tables_number	1
_symmetry_cell_setting	triclinic
loop_
_symmetry_equiv_pos_as_xyz
  x,y,z
_cell_length_a	6.817900
_cell_length_b	12.840964
_cell_length_c	19.551818
_cell_angle_alpha	81.675540
_cell_angle_beta	77.507686
_cell_angle_gamma	88.344333
loop_
_atom_site_label
_atom_site_type_symbol
_atom_site_fract_x
_atom_site_fract_y
_atom_site_fract_z
V1	V	-3.890585	0.281228	0.098311
O2	O	-3.888541	0.320381	-0.003045
O3	O	-3.835482	0.236500	0.193318
O4	O	-3.786237	0.423410	0.097535
O5	O	-3.938127	0.132177	0.093401
V6	V	-4.382331	0.268601	0.086100
O7	O	-4.133805	0.308929	0.125095
O8	O	-4.589307	0.240900	0.059316
O9	O	-4.214227	0.313329	-0.008908
O10	O	-4.501771	0.229447	0.187456
O11	O	-4.452185	0.417652	0.091010
O12	O	-4.263471	0.126418	0.086876
C13	C	-3.680662	0.221019	0.216456
C14	C	-3.716523	0.185396	0.294131
C15	C	-3.913155	0.172273	0.334197
C16	C	-3.946879	0.138817	0.407183
C17	C	-3.783968	0.118477	0.440101
C18	C	-3.587319	0.131605	0.400030
C19	C	-3.553599	0.165068	0.327046
C20	C	-3.613711	0.577568	0.094282
C21	C	-3.617845	0.459436	0.094281
C22	C	-4.095192	0.090383	0.090138
C23	C	-4.078196	-0.027750	0.090142
V24	V	-3.873525	0.767388	0.098321
O25	O	-3.910456	0.920792	0.093413
O26	O	-3.779319	0.620550	0.097544
O27	O	-3.816885	0.766266	0.193328
O28	O	-3.872629	0.774067	-0.003034
V29	V	-4.363326	0.810298	0.086116
O30	O	-4.118683	0.739872	0.125108
O31	O	-4.567573	0.860500	0.059334
O32	O	-4.234720	0.945888	0.086891
O33	O	-4.443586	0.662809	0.091025
O34	O	-4.481413	0.809535	0.187472
O35	O	-4.197153	0.800172	-0.008893
C36	C	-4.032389	0.328806	-0.032042
C37	C	-3.975764	0.364435	-0.109716
C38	C	-3.661617	0.763446	0.216461
C39	C	-3.696144	0.765672	0.294135
C40	C	-4.016356	0.786025	-0.032033
C41	C	-3.961105	0.782764	-0.109708
C42	C	-3.892124	0.770550	0.334209
C43	C	-3.924565	0.772650	0.407191
C44	C	-3.761017	0.769850	0.440098
C45	C	-3.565009	0.764976	0.400014
C46	C	-3.532573	0.762887	0.327032
C47	C	-3.679975	0.708951	0.559698
C48	C	-3.712419	0.711034	0.632679
C49	C	-3.861054	0.776299	0.665198
C50	C	-3.977276	0.839468	0.624728
C51	C	-3.944840	0.837379	0.551746
C52	C	-3.796169	0.772116	0.519234
C53	C	-4.092223	0.783456	0.784407
C54	C	-4.124657	0.785563	0.857390
C55	C	-3.765096	0.777878	0.850212
C56	C	-3.732667	0.775782	0.777230
C57	C	-3.896238	0.778567	0.744333
C58	C	-4.124118	0.377561	-0.149782
C59	C	-4.070936	0.411022	-0.222767
C60	C	-3.869400	0.431364	-0.255685
C61	C	-3.721036	0.418233	-0.215614
C62	C	-3.774217	0.384765	-0.142631
H63	H	-4.107011	0.128130	0.439799
H64	H	-3.653399	0.374090	-0.110014
F65	F	-4.228866	0.424992	-0.265400
F66	F	-3.323977	0.757693	0.284381
F67	F	-4.068518	0.904611	0.508677
F68	F	-4.135478	0.908931	0.659330
H69	H	-3.826124	0.458614	-0.315113
H70	H	-3.573081	0.771803	0.744602
H71	H	-3.558922	0.655808	0.533227
H72	H	-4.084161	0.776623	0.439826
H73	H	-3.556942	0.434799	-0.242427
F74	F	-4.266305	0.786433	0.749391
H75	H	-4.045830	0.188823	0.307405
H76	H	-4.284250	0.789543	0.890017
H77	H	-3.454688	0.115040	0.426843
H78	H	-3.811453	0.091230	0.499530
H79	H	-3.393477	0.175745	0.294429
H80	H	-4.288229	0.361003	-0.122990
F81	F	-4.066214	0.773510	0.299202
H82	H	-3.631931	0.775605	0.877004
H83	H	-3.617793	0.659591	0.665625
H84	H	-3.431849	0.762699	0.426812
