data_functionalizedCrystal
_audit_creation_method	'MofGen! by Chris Wilmer'
_symmetry_space_group_name_H-M	'P1'
_symmetry_Int_Tables_number	1
_symmetry_cell_setting	triclinic
loop_
_symmetry_equiv_pos_as_xyz
  x,y,z
_cell_length_a	14.908742
_cell_length_b	14.908520
_cell_length_c	14.908308
_cell_angle_alpha	96.360765
_cell_angle_beta	96.760659
_cell_angle_gamma	89.837416
loop_
_atom_site_label
_atom_site_type_symbol
_atom_site_fract_x
_atom_site_fract_y
_atom_site_fract_z
Zn1	Zn	1.325909	-0.462157	-0.460058
Zn2	Zn	1.325807	-0.604797	-0.317434
Zn3	Zn	1.184290	-0.445739	-0.316460
Zn4	Zn	1.165782	-0.604746	-0.477494
O5	O	1.250447	-0.529359	-0.392862
O6	O	1.452134	-0.487971	-0.434249
O7	O	1.314737	-0.576847	-0.190223
O8	O	1.210864	-0.321677	-0.327804
O9	O	1.452059	-0.592767	-0.329464
O10	O	1.314911	-0.333739	-0.433305
O11	O	1.210765	-0.459988	-0.189508
O12	O	1.055596	-0.459939	-0.344712
O13	O	1.179321	-0.592681	-0.602263
O14	O	1.041998	-0.576761	-0.463022
O15	O	1.296965	-0.487921	-0.589453
O16	O	1.296791	-0.731030	-0.346371
O17	O	1.179221	-0.730993	-0.463966
C18	C	1.016065	-0.516564	-0.405654
C19	C	0.915792	-0.511112	-0.411149
C20	C	0.774487	-0.448974	-0.473541
C21	C	0.868702	-0.454088	-0.468381
C22	C	0.868661	-0.563028	-0.359075
C23	C	0.774445	-0.557914	-0.364234
C24	C	0.727362	-0.500883	-0.421468
C25	C	0.633146	-0.495765	-0.426622
C26	C	0.633106	-0.604709	-0.317321
C27	C	0.727321	-0.609823	-0.312161
C28	C	1.236010	-0.763746	-0.407185
C29	C	1.229914	-0.864024	-0.413338
C30	C	1.340998	-1.052446	-0.302536
C31	C	1.335274	-1.146666	-0.308314
C32	C	1.212747	-1.146686	-0.430677
C33	C	1.218471	-1.052466	-0.424898
C34	C	1.282598	-1.005349	-0.360825
C35	C	1.288317	-0.911127	-0.355043
C36	C	1.165795	-0.911149	-0.477409
C37	C	1.160071	-1.005369	-0.483188
C38	C	1.485744	-0.542206	-0.380020
C39	C	1.586014	-0.547680	-0.374547
C40	C	1.236090	-0.542127	-0.629730
C41	C	1.229972	-0.547567	-0.730669
C42	C	1.264964	-0.294060	-0.378501
C43	C	1.271150	-0.193789	-0.372382
C44	C	1.340977	-0.448684	-0.907006
C45	C	1.335232	-0.453793	-1.001847
C46	C	1.212732	-0.562889	-1.015194
C47	C	1.218477	-0.557780	-0.920353
C48	C	1.282603	-0.500676	-0.866262
C49	C	1.288352	-0.495573	-0.771419
C50	C	1.165849	-0.604664	-0.784768
C51	C	1.160103	-0.609773	-0.879609
C52	C	1.264804	-0.516580	-0.156908
C53	C	1.271112	-0.510894	-0.055944
H54	H	0.736151	-0.402528	-0.520134
H55	H	1.160524	-0.609379	-1.059251
H56	H	1.382831	-1.185009	-0.260850
H57	H	0.907067	-0.411818	-0.510785
C58	C	1.358888	-0.432755	-0.711921
N59	N	1.412016	-0.385436	-0.667109
H60	H	0.907012	-0.609462	-0.312481
H61	H	0.765669	-0.656258	-0.265565
C62	C	0.581261	-0.661815	-0.260038
N63	N	0.542211	-0.704824	-0.216892
C64	C	1.142212	-1.198531	-0.501151
N65	N	1.089082	-1.237581	-0.554230
C66	C	1.089531	-1.057208	-0.553660
N67	N	1.036394	-1.096252	-0.606738
H68	H	1.118239	-0.872792	-0.524870
H69	H	1.382764	-0.411452	-1.035017
H70	H	1.340530	-0.872765	-0.302868
H71	H	1.107892	-0.656263	-0.923662
H72	H	0.594812	-0.449324	-0.473221
C73	C	1.411519	-0.385875	-0.847504
N74	N	1.464652	-0.338565	-0.802688
H75	H	1.393207	-1.014082	-0.250358
C76	C	1.101633	-0.661860	-0.739942
N77	N	1.053269	-0.704941	-0.706179
