data_functionalizedCrystal
_audit_creation_method	'MofGen! by Chris Wilmer'
_symmetry_space_group_name_H-M	'P1'
_symmetry_Int_Tables_number	1
_symmetry_cell_setting	triclinic
loop_
_symmetry_equiv_pos_as_xyz
  x,y,z
_cell_length_a	31.640172
_cell_length_b	14.628931
_cell_length_c	14.628931
_cell_angle_alpha	59.999972
_cell_angle_beta	89.994872
_cell_angle_gamma	59.993668
loop_
_atom_site_label
_atom_site_type_symbol
_atom_site_fract_x
_atom_site_fract_y
_atom_site_fract_z
Zr1	Zr	0.407178	1.000488	-0.119998
O2	O	0.339689	1.191209	-0.265953
O3	O	0.427867	0.809778	-0.075254
O4	O	0.427867	1.000483	-0.265960
O5	O	0.339689	1.000503	0.075185
O6	O	0.497423	1.000468	-0.265966
O7	O	0.339689	1.000503	-0.075247
O8	O	0.497423	0.659330	0.075172
O9	O	0.339689	1.341640	-0.265953
O10	O	0.488599	0.888204	-0.056177
O11	O	0.436690	0.888216	0.056094
O12	O	0.436690	1.112747	-0.168438
O13	O	0.384781	1.112759	-0.056168
Zr14	Zr	0.518112	1.000463	0.119914
Zr15	Zr	0.518112	1.000463	-0.120007
Zr16	Zr	0.407178	1.000488	0.119924
Zr17	Zr	0.407178	1.240409	-0.119998
Zr18	Zr	0.518112	0.760542	0.119915
O19	O	0.497423	1.191174	0.075171
O20	O	0.497423	1.191174	-0.265967
O21	O	0.339689	1.191209	0.075185
O22	O	0.585601	0.809743	0.265869
O23	O	0.585601	0.809743	-0.075268
O24	O	0.427867	0.809778	0.265883
O25	O	0.585601	1.000448	-0.075268
O26	O	0.497423	1.000468	0.265877
O27	O	0.427867	1.000483	0.265883
O28	O	0.585601	1.000448	0.075164
O29	O	0.427867	1.341621	-0.265961
O30	O	0.497423	0.659330	0.265877
O31	O	0.585601	0.659311	0.265870
O32	O	0.585601	0.659311	0.075164
O33	O	0.339689	1.341640	-0.075247
O34	O	0.427867	1.341621	-0.075255
O35	O	0.488600	0.888204	0.168355
O36	O	0.540508	0.888193	0.056085
O37	O	0.488600	1.112736	-0.056177
O38	O	0.436691	1.112747	0.056093
C39	C	0.462645	0.700370	-0.000041
C40	C	0.462645	0.598517	-0.000041
C41	C	0.323883	1.000506	-0.000030
C42	C	0.276789	1.000517	-0.000026
C43	C	0.488395	0.553102	-0.055735
C44	C	0.488396	0.447832	-0.055736
C45	C	-0.015217	1.000452	-0.082914
C46	C	-0.192203	1.000436	-0.082922
O47	O	-0.215076	1.000379	-0.153376
N48	N	-0.214334	1.000439	-0.000049
C49	C	-0.192213	1.000437	0.082836
O50	O	-0.215095	1.000425	0.153331
C51	C	-0.015225	1.000444	0.082848
C52	C	0.006900	1.000454	-0.000037
C53	C	0.006909	1.000461	-0.165791
C54	C	0.051151	1.000472	-0.165792
C55	C	0.073268	1.000475	-0.082915
C56	C	0.051142	1.000466	-0.000037
C57	C	0.006897	1.000433	0.165737
C58	C	0.051147	1.000431	0.165735
C59	C	0.073273	1.000442	0.082850
C60	C	0.117501	1.000479	0.082839
N61	N	0.139632	1.000476	-0.000034
C62	C	0.117515	1.000474	-0.082911
C63	C	-0.285135	1.000436	0.082823
C64	C	-0.329382	1.000436	0.082819
C65	C	-0.329369	1.000433	-0.082938
C66	C	-0.285123	1.000442	-0.082938
C67	C	-0.263004	1.000433	-0.000050
C68	C	0.210427	1.000498	-0.082907
C69	C	0.254672	1.000515	-0.082902
C70	C	0.254656	1.000511	0.082858
C71	C	0.210414	1.000502	0.082851
C72	C	0.188301	1.000491	-0.000036
O73	O	0.140405	1.000521	0.153263
O74	O	0.140411	1.000457	-0.153381
C75	C	-0.059459	1.000441	-0.082913
C76	C	-0.081585	1.000432	-0.000035
C77	C	-0.059468	1.000434	0.082842
C78	C	-0.125832	1.000433	-0.000039
C79	C	-0.147949	1.000431	-0.082916
C80	C	-0.125818	1.000428	-0.165789
C81	C	-0.081576	1.000439	-0.165790
C82	C	-0.081599	1.000437	0.165715
C83	C	-0.125841	1.000427	0.165708
C84	C	-0.147958	1.000425	0.082831
C85	C	0.601407	1.000445	-0.000054
C86	C	0.648501	1.000434	-0.000058
C87	C	0.462645	1.000476	-0.300147
C88	C	0.462645	1.000476	-0.402000
C89	C	0.462645	1.300581	-0.000042
C90	C	0.462645	1.402434	-0.000042
C91	C	0.499061	1.000468	-0.447412
C92	C	0.499062	1.000468	-0.552683
C93	C	0.462645	1.000476	0.300064
C94	C	0.462645	1.000476	0.401917
C95	C	0.601406	0.700340	-0.000053
C96	C	0.648501	0.598476	-0.000057
C97	C	0.462645	0.700370	0.300064
C98	C	0.462645	0.598517	0.401917
C99	C	0.601407	0.700340	0.300052
C100	C	0.648501	0.598476	0.401901
C101	C	0.323883	1.300612	-0.300135
C102	C	0.276789	1.402475	-0.401984
C103	C	0.323883	1.300612	-0.000030
C104	C	0.276789	1.402475	-0.000026
C105	C	0.462645	1.300581	-0.300147
C106	C	0.462645	1.402434	-0.402000
C107	C	0.643521	0.550646	-0.058668
C108	C	0.687767	0.454948	-0.058694
C109	C	0.736992	0.407075	-0.000102
C110	C	0.741971	0.454914	0.058511
C111	C	0.697726	0.550617	0.058529
C112	C	0.697718	0.550634	0.391126
C113	C	0.741972	0.454936	0.486815
C114	C	0.737009	0.407075	0.593278
C115	C	0.687787	0.454927	0.604050
C116	C	0.643534	0.550630	0.508362
C117	C	0.227572	1.450329	-0.391210
C118	C	0.183318	1.546057	-0.486899
C119	C	0.188281	1.593923	-0.593361
C120	C	0.237503	1.546065	-0.604133
C121	C	0.281756	1.450345	-0.508445
C122	C	0.281769	1.450315	0.058575
C123	C	0.237523	1.546040	0.058575
C124	C	0.188298	1.593916	-0.000021
C125	C	0.183319	1.546072	-0.058629
C126	C	0.227564	1.450356	-0.058635
C127	C	0.488396	0.553102	0.503016
C128	C	0.488396	0.447832	0.608287
H129	H	0.510443	0.592149	-0.103411
Br130	Br	0.680997	0.390040	-0.138243
Br131	Br	0.525136	0.618196	0.517395
H132	H	0.510443	0.408775	0.695016
H133	H	0.510439	0.408782	-0.103422
H134	H	0.530240	1.000454	-0.408355
H135	H	0.321847	1.411342	0.106298
Br136	Br	0.410672	1.000503	-0.533012
H137	H	0.241587	1.584979	0.106305
Br138	Br	0.704468	0.615574	0.246654
H139	H	0.440601	0.441478	0.511277
H140	H	0.440597	0.559469	0.393299
H141	H	0.440596	0.441489	0.047636
Br142	Br	0.576720	0.615599	-0.138200
Br143	Br	-0.051555	1.000455	-0.278283
Br144	Br	0.551026	1.000471	-0.617776
Br145	Br	0.797035	0.277190	-0.000139
H146	H	0.431469	1.000476	-0.441051
Br147	Br	0.128255	1.723819	-0.000002
H148	H	0.782057	0.415922	0.106214
H149	H	0.223502	1.411407	-0.106352
Br150	Br	0.704494	0.615512	0.138088
H151	H	0.440601	0.559461	0.047642
H152	H	0.782047	0.415985	0.478024
H153	H	0.143243	1.585006	-0.478106
H154	H	0.773047	0.329147	0.671184
H155	H	0.223521	1.411362	-0.304532
H156	H	0.603461	0.589570	0.517151
H157	H	0.272684	1.000527	-0.150401
Br158	Br	0.116509	1.611058	-0.138143
Br159	Br	0.681060	0.389959	0.748543
Br160	Br	0.128217	1.723830	-0.723214
Br161	Br	0.180425	1.000483	-0.195397
Br162	Br	0.244230	1.611037	-0.748627
H163	H	0.321829	1.411384	-0.517232
Br164	Br	-0.255100	1.000456	-0.195429
Br165	Br	0.081176	1.000477	-0.278277
H166	H	-0.011094	1.000455	-0.233280
H167	H	-0.347398	1.000448	0.150301
Br168	Br	-0.255123	1.000427	0.195322
Br169	Br	-0.023121	1.000418	0.278229
Br170	Br	-0.359393	1.000431	-0.195413
H171	H	0.069155	1.000420	0.233235
Br172	Br	0.284678	1.000519	0.195328
Br173	Br	-0.155844	1.000435	-0.278269
Br174	Br	-0.155866	1.000425	0.278199
Br175	Br	0.180382	1.000513	0.195328
H176	H	-0.063594	1.000436	0.233204
