data_functionalizedCrystal
_audit_creation_method	'MofGen! by Chris Wilmer'
_symmetry_space_group_name_H-M	'P1'
_symmetry_Int_Tables_number	1
_symmetry_cell_setting	triclinic
loop_
_symmetry_equiv_pos_as_xyz
  x,y,z
_cell_length_a	17.077404
_cell_length_b	14.908520
_cell_length_c	17.077396
_cell_angle_alpha	93.268321
_cell_angle_beta	89.980499
_cell_angle_gamma	93.320938
loop_
_atom_site_label
_atom_site_type_symbol
_atom_site_fract_x
_atom_site_fract_y
_atom_site_fract_z
Zn1	Zn	1.182024	-0.359154	-0.461868
Zn2	Zn	1.174357	-0.510026	-0.338173
Zn3	Zn	1.050754	-0.359186	-0.330617
Zn4	Zn	1.043152	-0.509972	-0.469394
O5	O	1.112572	-0.434584	-0.400013
O6	O	1.290853	-0.379177	-0.445472
O7	O	1.157933	-0.490052	-0.227326
O8	O	1.074557	-0.232937	-0.341715
O9	O	1.285220	-0.490021	-0.354594
O10	O	1.171001	-0.232913	-0.438145
O11	O	1.067123	-0.379231	-0.221774
O12	O	0.939899	-0.379179	-0.349014
O13	O	1.061601	-0.489930	-0.578241
O14	O	0.934314	-0.489961	-0.450973
O15	O	1.163629	-0.379125	-0.572711
O16	O	1.150562	-0.636263	-0.361892
O17	O	1.054166	-0.636224	-0.458300
C18	C	0.908625	-0.434568	-0.399990
C19	C	0.821374	-0.434583	-0.400001
C20	C	0.777492	-0.492354	-0.453014
C21	C	0.695511	-0.492356	-0.453027
C22	C	0.657414	-0.434591	-0.400022
C23	C	0.701302	-0.376813	-0.347005
C24	C	0.783282	-0.376807	-0.346997
C25	C	0.530432	-0.376831	-0.347025
C26	C	0.448447	-0.376837	-0.347032
C27	C	0.442661	-0.492380	-0.453055
C28	C	0.524640	-0.492374	-0.453047
C29	C	0.568523	-0.434597	-0.400029
C30	C	1.100728	-0.668978	-0.411750
C31	C	1.095734	-0.769252	-0.416797
C32	C	1.186828	-0.957658	-0.325973
C33	C	1.182137	-1.051875	-0.330713
C34	C	1.081667	-1.051904	-0.431020
C35	C	1.086357	-0.957687	-0.426280
C36	C	1.138939	-0.910568	-0.373754
C37	C	1.143625	-0.816349	-0.369011
C38	C	1.043159	-0.816380	-0.469321
C39	C	1.038468	-0.910597	-0.474061
C40	C	1.317315	-0.434601	-0.400036
C41	C	1.404564	-0.434609	-0.400046
C42	C	1.112622	-0.434518	-0.604754
C43	C	1.112644	-0.434490	-0.692002
C44	C	1.124482	-0.199276	-0.388248
C45	C	1.129558	-0.099001	-0.383234
C46	C	1.165772	-0.376788	-0.730114
C47	C	1.165783	-0.376758	-0.812093
C48	C	1.112669	-0.434435	-0.855959
C49	C	1.059535	-0.492138	-0.817842
C50	C	1.059521	-0.492163	-0.735864
C51	C	1.059569	-0.492084	-0.988709
C52	C	1.059584	-0.492061	-1.070693
C53	C	1.165832	-0.376679	-1.064938
C54	C	1.165818	-0.376704	-0.982961
C55	C	1.112684	-0.434409	-0.944849
C56	C	1.112569	-0.434585	-0.196065
C57	C	1.112713	-0.434360	-0.108804
H58	H	0.566159	-0.329775	-0.303859
H59	H	0.417431	-0.329789	-0.303879
H60	H	1.186437	-0.777985	-0.326240
C61	C	0.947276	-1.081027	-0.470607
C62	C	1.023878	-1.103702	-0.488761
H63	H	0.911602	-1.113001	-0.506260
H64	H	0.935052	-1.096530	-0.418643
H65	H	0.943222	-1.018174	-0.474621
H66	H	1.027933	-1.166555	-0.484742
H67	H	1.036105	-1.088206	-0.540738
C68	C	0.715262	-0.262601	-0.242209
C69	C	0.659429	-0.313313	-0.288740
H70	H	0.689411	-0.223396	-0.206240
H71	H	0.745240	-0.301860	-0.214091
H72	H	0.748992	-0.228142	-0.274740
H73	H	0.625702	-0.347777	-0.256210
H74	H	0.629438	-0.274049	-0.316860
H75	H	1.016291	-0.539060	-0.957681
C76	C	0.863555	-0.613722	-0.469819
C77	C	0.819363	-0.555854	-0.511281
H78	H	0.889398	-0.652927	-0.505795
H79	H	0.901422	-0.579318	-0.438253
H80	H	0.829810	-0.648180	-0.437301
H81	H	0.853109	-0.521391	-0.543796
H82	H	0.781491	-0.590262	-0.542861
H83	H	0.819010	-0.329759	-0.303831
H84	H	0.555656	-0.539416	-0.496205
H85	H	1.016286	-0.539096	-0.853564
C86	C	0.698026	-0.606587	-0.557803
C87	C	0.647275	-0.555875	-0.511290
H88	H	0.668245	-0.645809	-0.593767
H89	H	0.731991	-0.567329	-0.585924
H90	H	0.728251	-0.641028	-0.525258
H91	H	0.617054	-0.521428	-0.543833
H92	H	0.613296	-0.595138	-0.483166
H93	H	1.016251	-0.539140	-0.704834
H94	H	0.406928	-0.539421	-0.496226
H95	H	1.229636	-0.919293	-0.283199
C96	C	1.042533	-0.613371	-1.168959
C97	C	1.001192	-0.555443	-1.118917
H98	H	1.006480	-0.652499	-1.198728
H99	H	1.074179	-0.579004	-1.203380
H100	H	1.074966	-0.647906	-1.138704
H101	H	0.968763	-0.520902	-1.149172
H102	H	0.969532	-0.589814	-1.084492
H103	H	1.221135	-1.090213	-0.291806
C104	C	0.998704	-0.939552	-0.608401
C105	C	0.980675	-0.962398	-0.531795
H106	H	0.963025	-0.971537	-0.644043
H107	H	0.994637	-0.876709	-0.612411
H108	H	1.050675	-0.954933	-0.620707
H109	H	0.928706	-0.947012	-0.519488
H110	H	0.984734	-1.025256	-0.527782
C111	C	1.005734	-0.671967	-0.506599
C112	C	0.990516	-0.764616	-0.521849
H113	H	0.973237	-0.640012	-0.539029
H114	H	0.995043	-0.656584	-0.453078
H115	H	1.059242	-0.656471	-0.517361
H116	H	0.937010	-0.780113	-0.511082
H117	H	1.001201	-0.780005	-0.575383
H118	H	1.209027	-0.329824	-0.694404
C119	C	1.270812	-0.262727	-0.798172
C120	C	1.224189	-0.313337	-0.853986
H121	H	1.306873	-0.223576	-0.824036
H122	H	1.238356	-0.228223	-0.764468
H123	H	1.298836	-0.302060	-0.768168
H124	H	1.196160	-0.274004	-0.883986
H125	H	1.256649	-0.347844	-0.887704
C126	C	1.213015	-0.325376	-1.188044
C127	C	1.224225	-0.313232	-1.106827
H128	H	1.249059	-0.286203	-1.213904
H129	H	1.221445	-0.385977	-1.204514
H130	H	1.160938	-0.312169	-1.200794
H131	H	1.276300	-0.326446	-1.094076
H132	H	1.215801	-0.252618	-1.090351
H133	H	1.209072	-0.329744	-0.947247
