data_functionalizedCrystal
_audit_creation_method	'MofGen! by Chris Wilmer'
_symmetry_space_group_name_H-M	'P1'
_symmetry_Int_Tables_number	1
_symmetry_cell_setting	triclinic
loop_
_symmetry_equiv_pos_as_xyz
  x,y,z
_cell_length_a	16.959455
_cell_length_b	25.639239
_cell_length_c	16.959447
_cell_angle_alpha	89.966842
_cell_angle_beta	89.983056
_cell_angle_gamma	90.035633
loop_
_atom_site_label
_atom_site_type_symbol
_atom_site_fract_x
_atom_site_fract_y
_atom_site_fract_z
Zn1	Zn	1.208302	-0.208183	-0.446894
Zn2	Zn	1.708302	0.291817	0.053106
Zn3	Zn	1.208175	-0.295623	-0.314709
Zn4	Zn	1.708175	0.204377	0.185291
Zn5	Zn	1.076124	-0.208199	-0.314731
Zn6	Zn	1.576124	0.291801	0.185269
Zn7	Zn	1.076052	-0.295584	-0.446847
Zn8	Zn	1.576052	0.204416	0.053153
O9	O	1.142164	-0.251897	-0.380795
O10	O	1.642164	0.248103	0.119205
O11	O	1.318896	-0.219791	-0.429369
O12	O	1.818896	0.280209	0.070631
O13	O	1.190636	-0.284050	-0.204101
O14	O	1.690636	0.215950	0.295899
O15	O	1.093741	-0.135032	-0.332291
O16	O	1.593741	0.364968	0.167709
O17	O	1.318803	-0.284034	-0.332253
O18	O	1.818803	0.215966	0.167747
O19	O	1.190851	-0.135020	-0.429391
O20	O	1.690851	0.364980	0.070609
O21	O	1.093619	-0.219820	-0.204117
O22	O	1.593619	0.280180	0.295883
O23	O	0.965504	-0.219781	-0.332247
O24	O	1.465504	0.280219	0.167753
O25	O	1.093618	-0.283967	-0.557464
O26	O	1.593618	0.216033	-0.057464
O27	O	0.965451	-0.283983	-0.429312
O28	O	1.465451	0.216017	0.070688
O29	O	1.190781	-0.219753	-0.557498
O30	O	1.690781	0.280247	-0.057498
O31	O	1.190566	-0.368783	-0.332208
O32	O	1.690566	0.131217	0.167792
O33	O	1.093495	-0.368755	-0.429290
O34	O	1.593495	0.131245	0.070710
C35	C	0.936797	-0.251880	-0.380777
C36	C	1.436797	0.248120	0.119223
C37	C	0.848941	-0.251885	-0.380788
C38	C	1.348941	0.248115	0.119212
C39	C	0.477468	-0.218440	-0.330359
C40	C	0.977468	0.281560	0.169641
C41	C	0.477462	-0.285397	-0.431277
C42	C	0.977462	0.214603	0.068723
C43	C	0.560008	-0.285390	-0.431272
C44	C	1.060008	0.214610	0.068728
C45	C	0.601288	-0.251908	-0.380809
C46	C	1.101288	0.248092	0.119191
C47	C	0.560022	-0.218433	-0.330351
C48	C	1.060022	0.281567	0.169649
C49	C	0.601280	-0.318868	-0.481723
C50	C	1.101280	0.181132	0.018277
C51	C	0.683831	-0.318862	-0.481720
C52	C	1.183831	0.181138	0.018280
C53	C	0.725112	-0.285377	-0.431260
C54	C	1.225112	0.214623	0.068740
C55	C	0.683841	-0.251900	-0.380801
C56	C	1.183841	0.248100	0.119199
C57	C	0.725121	-0.218418	-0.330338
C58	C	1.225121	0.281582	0.169662
C59	C	0.683852	-0.184938	-0.279882
C60	C	1.183852	0.315062	0.220118
C61	C	0.601303	-0.184948	-0.279891
C62	C	1.101303	0.315052	0.220109
C63	C	0.807661	-0.285368	-0.431251
C64	C	1.307661	0.214632	0.068749
C65	C	0.807675	-0.218411	-0.330330
C66	C	1.307675	0.281589	0.169670
C67	C	1.142031	-0.387740	-0.380759
C68	C	1.642031	0.112260	0.119241
C69	C	1.142046	-0.445854	-0.380770
C70	C	1.642046	0.054146	0.119230
C71	C	1.192840	-0.806219	-0.330331
C72	C	1.692840	-0.306219	0.169669
C73	C	1.192871	-0.860824	-0.330341
C74	C	1.692871	-0.360824	0.169659
O75	O	1.235920	-0.889063	-0.287417
O76	O	1.735920	-0.389063	0.212583
N77	N	1.142302	-0.888136	-0.380847
N78	N	1.642302	-0.388136	0.119153
C79	C	1.091706	-0.860842	-0.431352
C80	C	1.591706	-0.360842	0.068648
O81	O	1.048697	-0.889087	-0.474313
O82	O	1.548697	-0.389087	0.025687
C83	C	1.091680	-0.806239	-0.431345
C84	C	1.591680	-0.306239	0.068655
C85	C	1.142246	-0.778929	-0.380830
C86	C	1.642246	-0.278929	0.119170
C87	C	1.243402	-0.778910	-0.279820
C88	C	1.743402	-0.278910	0.220180
C89	C	1.243370	-0.724309	-0.279809
C90	C	1.743370	-0.224309	0.220191
C91	C	1.192776	-0.697018	-0.330308
C92	C	1.692776	-0.197018	0.169692
C93	C	1.142214	-0.724328	-0.380818
C94	C	1.642214	-0.224328	0.119182
C95	C	1.041088	-0.778945	-0.481853
C96	C	1.541088	-0.278945	0.018147
C97	C	1.041067	-0.724338	-0.481842
C98	C	1.541067	-0.224338	0.018158
C99	C	1.091633	-0.697028	-0.431326
C100	C	1.591633	-0.197028	0.068674
C101	C	1.091588	-0.642437	-0.431306
C102	C	1.591588	-0.142437	0.068694
N103	N	1.142156	-0.615124	-0.380800
N104	N	1.642156	-0.115124	0.119200
C105	C	1.192750	-0.642415	-0.330301
C106	C	1.692750	-0.142415	0.169699
C107	C	1.091766	-0.975513	-0.431364
C108	C	1.591766	-0.475513	0.068636
C109	C	1.091787	-1.030115	-0.431368
C110	C	1.591787	-0.530115	0.068632
C111	C	1.192953	-1.030093	-0.330358
C112	C	1.692953	-0.530093	0.169642
C113	C	1.192927	-0.975490	-0.330351
C114	C	1.692927	-0.475490	0.169649
C115	C	1.142334	-0.948200	-0.380858
C116	C	1.642334	-0.448200	0.119142
C117	C	1.192679	-0.527750	-0.330280
C118	C	1.692679	-0.027750	0.169720
C119	C	1.192640	-0.473145	-0.330271
C120	C	1.692640	0.026855	0.169729
C121	C	1.091478	-0.473171	-0.431283
C122	C	1.591478	0.026829	0.068717
C123	C	1.091513	-0.527772	-0.431290
C124	C	1.591513	-0.027772	0.068710
C125	C	1.142120	-0.555060	-0.380786
C126	C	1.642120	-0.055060	0.119214
O127	O	1.048563	-0.614164	-0.474211
O128	O	1.548563	-0.114164	0.025789
O129	O	1.235759	-0.614163	-0.287355
O130	O	1.735759	-0.114163	0.212645
C131	C	1.348332	-0.251915	-0.380814
C132	C	1.848332	0.248085	0.119186
C133	C	1.436188	-0.251923	-0.380822
C134	C	1.936188	0.248077	0.119178
C135	C	1.142206	-0.251854	-0.586963
C136	C	1.642206	0.248146	-0.086963
C137	C	1.142224	-0.251835	-0.674820
C138	C	1.642224	0.248165	-0.174820
C139	C	1.142318	-0.115524	-0.380849
C140	C	1.642318	0.384476	0.119151
C141	C	1.142385	-0.057410	-0.380872
C142	C	1.642385	0.442590	0.119128
C143	C	1.091781	-0.218339	-1.046311
C144	C	1.591781	0.281661	-0.546311
C145	C	1.192806	-0.285222	-1.046281
C146	C	1.692806	0.214778	-0.546281
C147	C	1.192792	-0.285234	-0.963735
C148	C	1.692792	0.214766	-0.463735
C149	C	1.142271	-0.251799	-0.922473
C150	C	1.642271	0.248201	-0.422473
C151	C	1.091764	-0.218351	-0.963757
C152	C	1.591764	0.281649	-0.463757
C153	C	1.243293	-0.318685	-0.922445
C154	C	1.743293	0.181315	-0.422445
C155	C	1.243281	-0.318699	-0.839894
C156	C	1.743281	0.181301	-0.339894
C157	C	1.192763	-0.285260	-0.798631
C158	C	1.692763	0.214740	-0.298631
C159	C	1.142254	-0.251811	-0.839920
C160	C	1.642254	0.248189	-0.339920
C161	C	1.091734	-0.218375	-0.798658
C162	C	1.591734	0.281625	-0.298658
C163	C	1.041228	-0.184923	-0.839945
C164	C	1.541228	0.315077	-0.339945
C165	C	1.041247	-0.184912	-0.922494
C166	C	1.541247	0.315088	-0.422494
C167	C	1.192745	-0.285271	-0.716082
C168	C	1.692745	0.214729	-0.216082
C169	C	1.091717	-0.218388	-0.716104
C170	C	1.591717	0.281612	-0.216104
C171	C	1.142167	-0.251903	-0.175429
C172	C	1.642167	0.248097	0.324571
C173	C	1.142302	-0.251774	-0.087573
C174	C	1.642302	0.248226	0.412427
H175	H	0.841259	-0.312628	-0.472329
H176	H	1.341259	0.187372	0.027671
N177	N	1.297972	-0.808342	-0.225348
N178	N	1.797972	-0.308342	0.274652
H179	H	1.354436	-0.798797	-0.237670
H180	H	1.854436	-0.298797	0.262330
H181	H	1.285650	-0.798855	-0.168885
H182	H	1.785650	-0.298855	0.331115
H183	H	0.567664	-0.346131	-0.522802
H184	H	1.067664	0.153869	-0.022802
N185	N	0.432964	-0.182340	-0.275926
N186	N	0.932964	0.317660	0.224074
H187	H	0.374405	-0.187426	-0.283582
H188	H	0.874405	0.312574	0.216418
H189	H	0.447374	-0.190443	-0.219457
H190	H	0.947374	0.309557	0.280543
N191	N	1.247211	-0.321351	-0.671558
N192	N	1.747211	0.178649	-0.171558
H193	H	1.303699	-0.313236	-0.685937
H194	H	1.803699	0.186764	-0.185937
H195	H	1.239473	-0.316271	-0.613016
H196	H	1.739473	0.183729	-0.113016
H197	H	1.050579	-0.191157	-0.682514
H198	H	1.550579	0.308843	-0.182514
N199	N	1.247188	-0.443688	-0.275793
N200	N	1.747188	0.056312	0.224207
H201	H	1.215080	-0.421072	-0.239125
H202	H	1.715080	0.078928	0.260875
H203	H	1.279235	-0.469298	-0.243861
H204	H	1.779235	0.030702	0.256139
N205	N	0.432943	-0.321514	-0.485695
N206	N	0.932943	0.178486	0.014305
H207	H	0.374387	-0.316440	-0.478041
H208	H	0.874387	0.183560	0.021959
H209	H	0.447396	-0.313421	-0.542169
H210	H	0.947396	0.186579	-0.042169
H211	H	1.284404	-0.345939	-0.806285
H212	H	1.784404	0.154061	-0.306285
N213	N	0.728340	-0.354970	-0.536136
N214	N	1.228340	0.145030	-0.036136
H215	H	0.689662	-0.376182	-0.568103
H216	H	1.189662	0.123818	-0.068103
H217	H	0.762618	-0.333714	-0.572772
H218	H	1.262618	0.166286	-0.072772
H219	H	1.233890	-0.549961	-0.289157
H220	H	1.733890	-0.049961	0.210843
N221	N	1.297785	-0.354747	-0.966938
N222	N	1.797785	0.145253	-0.466938
H223	H	1.285460	-0.392105	-0.952553
H224	H	1.785460	0.107895	-0.452553
H225	H	1.290115	-0.349619	-1.025484
H226	H	1.790115	0.150381	-0.525484
H227	H	0.841279	-0.191142	-0.289241
H228	H	1.341279	0.308858	0.210759
H229	H	0.717473	-0.157679	-0.238791
H230	H	1.217473	0.342321	0.261209
H231	H	1.050604	-1.052346	-0.472495
H232	H	1.550604	-0.552346	0.027505
N233	N	0.556793	-0.148857	-0.225450
N234	N	1.056793	0.351143	0.274550
H235	H	0.498235	-0.153950	-0.233103
H236	H	0.998235	0.346050	0.266897
H237	H	0.571209	-0.156964	-0.168984
H238	H	1.071209	0.343036	0.331016
N239	N	0.986745	-0.148861	-0.795430
N240	N	1.486745	0.351139	-0.295430
H241	H	0.999069	-0.111502	-0.809810
H242	H	1.499069	0.388498	-0.309810
H243	H	0.930281	-0.157015	-0.809800
H244	H	1.430281	0.342985	-0.309800
H245	H	1.234102	-0.953257	-0.289218
H246	H	1.734102	-0.453257	0.210782
N247	N	1.297921	-0.694857	-0.225337
N248	N	1.797921	-0.194857	0.274663
H249	H	1.329977	-0.720438	-0.193357
H250	H	1.829977	-0.220438	0.306643
H251	H	1.334469	-0.672169	-0.257550
H252	H	1.834469	-0.172169	0.242450
N253	N	1.247523	-1.059537	-0.275893
N254	N	1.747523	-0.559537	0.224107
H255	H	1.284141	-1.082153	-0.308058
H256	H	1.784141	-0.582153	0.191942
H257	H	1.279504	-1.033922	-0.243900
H258	H	1.779504	-0.533922	0.256100
N259	N	1.036917	-0.443725	-0.485748
N260	N	1.536917	0.056275	0.014252
H261	H	1.049168	-0.453192	-0.542237
H262	H	1.549168	0.046808	-0.042237
H263	H	0.980471	-0.453275	-0.473364
H264	H	1.480471	0.046725	0.026636
H265	H	1.050560	-0.953296	-0.472491
H266	H	1.550560	-0.453296	0.027509
H267	H	0.999869	-0.702121	-0.522973
H268	H	1.499869	-0.202121	-0.022973
N269	N	0.986544	-0.808392	-0.536333
N270	N	1.486544	-0.308392	-0.036333
H271	H	0.954497	-0.782810	-0.568320
H272	H	1.454497	-0.282810	-0.068320
H273	H	1.018706	-0.831010	-0.572949
H274	H	1.518706	-0.331010	-0.072949
N275	N	1.036968	-0.557232	-0.485763
N276	N	1.536968	-0.057232	0.014237
H277	H	1.004910	-0.531655	-0.517750
H278	H	1.504910	-0.031655	-0.017750
H279	H	1.069135	-0.579845	-0.522379
H280	H	1.569135	-0.079845	-0.022379
H281	H	1.050663	-0.191101	-1.079931
H282	H	1.550663	0.308899	-0.579931
N283	N	0.986753	-0.148850	-0.967023
N284	N	1.486753	0.351150	-0.467023
H285	H	0.994420	-0.153924	-1.025578
H286	H	1.494420	0.346076	-0.525578
H287	H	0.930298	-0.157001	-0.952570
H288	H	1.430298	0.342999	-0.452570
H289	H	1.233932	-0.312448	-1.079881
H290	H	1.733932	0.187552	-0.579881
