data_functionalizedCrystal
_audit_creation_method	'MofGen! by Chris Wilmer'
_symmetry_space_group_name_H-M	'P1'
_symmetry_Int_Tables_number	1
_symmetry_cell_setting	triclinic
loop_
_symmetry_equiv_pos_as_xyz
  x,y,z
_cell_length_a	17.699083
_cell_length_b	16.974959
_cell_length_c	16.176319
_cell_angle_alpha	93.643649
_cell_angle_beta	89.998611
_cell_angle_gamma	83.343198
loop_
_atom_site_label
_atom_site_type_symbol
_atom_site_fract_x
_atom_site_fract_y
_atom_site_fract_z
O1	O	1.004157	0.099989	-0.061950
O2	O	1.504157	0.599989	0.438050
O3	O	0.783789	0.112997	-0.061108
O4	O	1.283789	0.612997	0.438892
O5	O	0.900109	-0.008618	-0.069214
O6	O	1.400109	0.491382	0.430786
O7	O	0.887837	0.221604	-0.053844
O8	O	1.387837	0.721604	0.446156
O9	O	0.900093	-0.008626	0.068279
O10	O	1.400093	0.491374	0.568279
O11	O	0.783773	0.112990	0.076385
O12	O	1.283773	0.612990	0.576385
O13	O	1.004141	0.099981	0.075543
O14	O	1.504141	0.599981	0.575543
Cu15	Cu	0.893956	0.106485	0.088518
Cu16	Cu	1.393956	0.606485	0.588518
Cu17	Cu	0.893974	0.106494	-0.074083
Cu18	Cu	1.393974	0.606494	0.425917
O19	O	0.887821	0.221597	0.083648
O20	O	1.387821	0.721597	0.583648
C21	C	0.755584	0.112527	0.007604
C22	C	1.255584	0.612527	0.507604
C23	C	0.671564	0.111129	0.007500
C24	C	1.171564	0.611129	0.507500
C25	C	0.899632	-0.038079	-0.002436
C26	C	1.399632	0.461921	0.497564
C27	C	0.898224	-0.125850	-0.008301
C28	C	1.398224	0.374150	0.491699
C29	C	0.622999	0.182515	0.012266
C30	C	1.122999	0.682515	0.512266
C31	C	0.544055	0.181196	0.012189
C32	C	1.044055	0.681196	0.512189
C33	C	0.513677	0.108491	0.007339
C34	C	1.013677	0.608491	0.507339
C35	C	0.562248	0.037099	0.002576
C36	C	1.062248	0.537099	0.502576
C37	C	0.641191	0.038419	0.002659
C38	C	1.141191	0.538419	0.502659
C39	C	0.243881	0.031777	0.002241
C40	C	0.743881	0.531777	0.502241
C41	C	0.164932	0.030463	0.002155
C42	C	0.664932	0.530463	0.502155
C43	C	0.146745	0.174554	0.011770
C44	C	0.646745	0.674554	0.511770
C45	C	0.225688	0.175873	0.011854
C46	C	0.725688	0.675873	0.511854
C47	C	0.274252	0.104482	0.007094
C48	C	0.774252	0.604482	0.507094
C49	C	0.359852	0.105913	0.007180
C50	C	0.859852	0.605913	0.507180
C51	C	0.428078	0.107059	0.007248
C52	C	0.928078	0.607059	0.507248
C53	C	0.890372	-0.619917	-0.049454
C54	C	1.390372	-0.119917	0.450546
C55	C	0.891687	-0.537445	-0.043926
C56	C	1.391687	-0.037445	0.456074
C57	C	0.892330	-0.496230	0.033786
C58	C	1.392330	0.003770	0.533786
C59	C	0.891665	-0.537490	0.105974
C60	C	1.391665	-0.037490	0.605974
C61	C	0.890356	-0.619961	0.100445
C62	C	1.390356	-0.119961	0.600445
C63	C	0.896250	-0.249582	0.058358
C64	C	1.396250	0.250418	0.558358
C65	C	0.897558	-0.167105	0.063881
C66	C	1.397558	0.332895	0.563881
C67	C	0.897581	-0.167066	-0.086019
C68	C	1.397581	0.332934	0.413981
C69	C	0.896267	-0.249537	-0.091541
C70	C	1.396267	0.250463	0.408459
C71	C	0.895606	-0.290792	-0.019353
C72	C	1.395606	0.209208	0.480647
N73	N	0.893672	-0.411930	0.039438
N74	N	1.393672	0.088070	0.539438
N75	N	0.894270	-0.375090	-0.025006
N76	N	1.394270	0.124910	0.474994
C77	C	1.032346	0.100451	0.006829
C78	C	1.532346	0.600451	0.506829
C79	C	1.116366	0.101849	0.006927
C80	C	1.616366	0.601849	0.506927
C81	C	0.888298	0.251057	0.016869
C82	C	1.388298	0.751057	0.516869
C83	C	0.889705	0.338828	0.022729
C84	C	1.389705	0.838828	0.522729
N85	N	0.893948	0.106478	0.202882
N86	N	1.393948	0.606478	0.702882
N87	N	0.893988	0.106494	-0.188448
N88	N	1.393988	0.606494	0.311552
C89	C	0.945470	0.052648	0.242559
C90	C	1.445470	0.552648	0.742559
C91	C	0.945474	0.052647	0.329106
C92	C	1.445474	0.552647	0.829106
C93	C	0.893958	0.106480	0.375975
C94	C	1.393958	0.606480	0.875975
C95	C	0.842431	0.160312	0.336293
C96	C	1.342431	0.660312	0.836293
C97	C	0.842424	0.160309	0.249747
C98	C	1.342424	0.660309	0.749747
C99	C	0.842457	0.160327	0.685322
C100	C	1.342457	0.660327	1.185322
C101	C	0.842469	0.160328	0.771874
C102	C	1.342469	0.660328	1.271874
C103	C	0.945506	0.052666	0.764681
C104	C	1.445506	0.552666	1.264681
C105	C	0.945500	0.052662	0.678135
C106	C	1.445500	0.552662	1.178135
C107	C	0.893970	0.106491	0.638460
C108	C	1.393970	0.606491	1.138460
C109	C	0.893965	0.106490	0.544616
C110	C	1.393965	0.606490	1.044616
C111	C	0.893966	0.106486	0.469818
C112	C	1.393966	0.606486	0.969818
H113	H	0.647726	0.241720	0.016214
H114	H	1.147726	0.741720	0.516214
H115	H	0.987450	0.008829	0.639977
H116	H	1.487450	0.508829	1.139977
H117	H	0.895749	-0.283090	-0.154822
H118	H	1.395749	0.216910	0.345178
C119	C	1.002184	-0.006555	0.808330
C120	C	1.502184	0.493445	1.308330
N121	N	1.044874	-0.051158	0.841206
N122	N	1.544874	0.448842	1.341206
H123	H	0.987426	0.008815	0.361410
H124	H	1.487426	0.508815	0.861410
H125	H	0.898119	-0.133468	-0.144790
H126	H	1.398119	0.366532	0.355210
C127	C	0.528830	-0.042877	-0.002757
C128	C	1.028830	0.457123	0.497243
N129	N	0.503661	-0.103118	-0.006777
N130	N	1.003661	0.396882	0.493223
H131	H	0.898058	-0.133546	0.127167
H132	H	1.398058	0.366454	0.627167
H133	H	0.889813	-0.653550	0.159224
H134	H	1.389813	-0.153550	0.659224
H135	H	0.987423	0.008814	0.204403
H136	H	1.487423	0.508814	0.704403
C137	C	0.895512	-0.294949	0.137768
C138	C	1.395512	0.205051	0.637768
N139	N	0.894952	-0.329122	0.197583
N140	N	1.394952	0.170878	0.697583
C141	C	0.694613	-0.040111	-0.002586
C142	C	1.194613	0.459889	0.497414
N143	N	0.734850	-0.099263	-0.006535
N144	N	1.234850	0.400737	0.493465
C145	C	0.889673	-0.665248	-0.134944
C146	C	1.389673	-0.165248	0.365056
N147	N	0.889152	-0.699389	-0.199337
N148	N	1.389152	-0.199389	0.300663
H149	H	0.892232	-0.503860	-0.102705
H150	H	1.392232	-0.003860	0.397295
C151	C	0.785756	0.219522	0.387852
C152	C	1.285756	0.719522	0.887852
N153	N	0.743068	0.264120	0.426685
N154	N	1.243068	0.764120	0.926685
C155	C	0.892369	-0.492150	0.191458
C156	C	1.392369	0.007850	0.691458
N157	N	0.892894	-0.457999	0.255846
N158	N	1.392894	0.042001	0.755846
H159	H	0.107194	0.232684	0.015650
H160	H	0.607194	0.732684	0.515650
C161	C	0.785791	0.219547	0.823428
C162	C	1.285791	0.719547	1.323428
N163	N	0.743102	0.264147	0.862259
N164	N	1.243102	0.764147	1.362259
C165	C	0.259098	0.255855	0.017193
C166	C	0.759098	0.755855	0.517193
N167	N	0.284262	0.316098	0.021221
N168	N	0.784262	0.816098	0.521221
C169	C	0.131519	-0.049523	-0.003169
C170	C	0.631519	0.450477	0.496831
N171	N	0.106353	-0.109765	-0.007178
N172	N	0.606353	0.390235	0.492822
C173	C	0.297292	-0.046756	-0.003000
C174	C	0.797292	0.453244	0.497000
N175	N	0.337524	-0.105910	-0.006949
N176	N	0.837524	0.394090	0.493051
H177	H	0.800501	0.204158	0.653026
H178	H	1.300501	0.704158	1.153026
C179	C	0.785752	0.219532	0.206104
C180	C	1.285752	0.719532	0.706104
N181	N	0.743065	0.264141	0.173234
N182	N	1.243065	0.764141	0.673234
C183	C	0.490636	0.259727	0.017446
C184	C	0.990636	0.759727	0.517446
N185	N	0.450401	0.318879	0.021413
N186	N	0.950401	0.818879	0.521413
