data_functionalizedCrystal
_audit_creation_method	'MofGen! by Chris Wilmer'
_symmetry_space_group_name_H-M	'P1'
_symmetry_Int_Tables_number	1
_symmetry_cell_setting	triclinic
loop_
_symmetry_equiv_pos_as_xyz
  x,y,z
_cell_length_a	12.594517
_cell_length_b	19.805404
_cell_length_c	19.805398
_cell_angle_alpha	90.029553
_cell_angle_beta	89.983881
_cell_angle_gamma	89.964660
loop_
_atom_site_label
_atom_site_type_symbol
_atom_site_fract_x
_atom_site_fract_y
_atom_site_fract_z
Zn1	Zn	1.627056	0.269500	-0.382707
Zn2	Zn	1.626904	0.382685	-0.269512
Zn3	Zn	1.449079	0.269515	-0.269531
Zn4	Zn	1.448980	0.382652	-0.382658
O5	O	1.538005	0.326088	-0.326102
O6	O	1.775982	0.284523	-0.367704
O7	O	1.603293	0.367693	-0.174798
O8	O	1.472793	0.174796	-0.284573
O9	O	1.775870	0.367679	-0.284540
O10	O	1.603552	0.174786	-0.367723
O11	O	1.472645	0.284547	-0.174812
O12	O	1.300120	0.284514	-0.284525
O13	O	1.472625	0.367622	-0.477381
O14	O	1.300048	0.367636	-0.367639
O15	O	1.603456	0.284490	-0.477417
O16	O	1.603197	0.477397	-0.284492
O17	O	1.472478	0.477373	-0.367620
C18	C	1.261464	0.326073	-0.326079
C19	C	1.143158	0.326083	-0.326086
C20	C	1.537839	0.501944	-0.326063
C21	C	1.537866	0.577176	-0.326069
C22	C	1.003150	0.280824	-0.280983
C23	C	1.074008	0.264340	-0.342750
C24	C	1.073873	0.342537	-0.264326
C25	C	1.003230	0.309594	-0.387934
C26	C	1.003089	0.387819	-0.309469
C27	C	1.073915	0.371359	-0.371278
C28	C	1.606107	1.038903	-0.369476
C29	C	1.606078	0.968214	-0.369462
C30	C	1.538039	0.932938	-0.326129
C31	C	1.470032	0.968353	-0.282802
C32	C	1.470067	1.039040	-0.282813
C33	C	1.469888	0.683280	-0.282756
C34	C	1.469856	0.612588	-0.282750
C35	C	1.605899	0.612454	-0.369405
C36	C	1.605935	0.683141	-0.369416
C37	C	1.537932	0.718550	-0.326087
C38	C	1.537966	0.795199	-0.326102
C39	C	1.537998	0.856291	-0.326117
C40	C	1.815626	0.326103	-0.326125
C41	C	1.933931	0.326110	-0.326135
C42	C	1.538047	0.326050	-0.502645
C43	C	1.538064	0.326034	-0.577877
C44	C	1.538155	1.149545	-0.326149
C45	C	1.538103	1.074313	-0.326154
C46	C	1.606317	0.282628	-1.039688
C47	C	1.606300	0.282649	-0.968999
C48	C	1.538174	0.325940	-0.933639
C49	C	1.470067	0.369219	-0.968970
C50	C	1.470090	0.369201	-1.039657
C51	C	1.469975	0.369292	-0.683897
C52	C	1.469955	0.369305	-0.613205
C53	C	1.606185	0.282740	-0.613239
C54	C	1.606207	0.282722	-0.683926
C55	C	1.538105	0.326003	-0.719251
C56	C	1.538126	0.325981	-0.795900
C57	C	1.538147	0.325959	-0.856992
C58	C	1.538025	0.326076	-0.150246
C59	C	1.538213	0.325902	-0.075014
H60	H	1.105138	0.212140	-0.356837
H61	H	1.414448	0.583867	-0.247461
N62	N	0.964141	0.232762	-0.233178
N63	N	0.866376	0.225414	-0.225193
H64	H	0.838821	0.191469	-0.191434
N65	N	1.400432	0.413496	-0.719995
N66	N	1.437864	0.456614	-0.759429
H67	H	1.388751	0.487834	-0.784931
H68	H	1.414691	1.067871	-0.247536
N69	N	1.675626	1.074933	-0.413730
N70	N	1.743498	1.114350	-0.389959
H71	H	1.792602	1.139795	-0.421213
H72	H	1.661453	0.939383	-0.404737
N73	N	1.675903	0.238394	-1.075794
N74	N	1.736703	0.199760	-1.044241
H75	H	1.785852	0.168518	-1.069739
H76	H	1.661759	0.247413	-0.940240
H77	H	0.972328	0.295628	-0.440199
N78	N	1.675434	0.719164	-0.413689
N79	N	1.736149	0.687538	-0.452367
H80	H	1.785238	0.712978	-0.483635
H81	H	1.661274	0.583616	-0.404684
N82	N	1.400529	0.413403	-1.075751
N83	N	1.437938	0.456528	-1.115185
H84	H	1.388809	0.487749	-1.140675
H85	H	1.414636	0.939627	-0.247516
N86	N	1.400397	0.719433	-0.238510
N87	N	1.339636	0.687926	-0.199837
H88	H	1.290544	0.713461	-0.168591
N89	N	0.963970	0.453283	-0.291800
N90	N	0.987909	0.503372	-0.327015
H91	H	0.960278	0.549607	-0.314531
H92	H	1.661679	0.247467	-0.712713
N93	N	1.675745	0.238532	-0.577143
N94	N	1.675720	0.238551	-0.514031
H95	H	1.724842	0.207328	-0.488538
H96	H	1.414471	0.404558	-0.584416
H97	H	1.414602	0.404471	-0.940174
N98	N	1.112639	0.419386	-0.419210
N99	N	1.089796	0.413273	-0.480322
H100	H	1.117146	0.447190	-0.514176
N101	N	1.112818	0.359967	-0.198779
N102	N	1.090127	0.323979	-0.149001
H103	H	1.117635	0.336281	-0.102708
