data_functionalizedCrystal
_audit_creation_method	'MofGen! by Chris Wilmer'
_symmetry_space_group_name_H-M	'P1'
_symmetry_Int_Tables_number	1
_symmetry_cell_setting	triclinic
loop_
_symmetry_equiv_pos_as_xyz
  x,y,z
_cell_length_a	19.188905
_cell_length_b	18.266242
_cell_length_c	14.519709
_cell_angle_alpha	89.993935
_cell_angle_beta	96.592650
_cell_angle_gamma	90.016065
loop_
_atom_site_label
_atom_site_type_symbol
_atom_site_fract_x
_atom_site_fract_y
_atom_site_fract_z
O1	O	0.926570	0.061003	-0.115025
O2	O	1.426570	0.561003	0.384975
O3	O	0.723312	0.060978	-0.130549
O4	O	1.223312	0.560978	0.369451
O5	O	0.830330	0.060985	0.011486
O6	O	1.330330	0.560985	0.511486
O7	O	0.819552	0.060997	-0.257059
O8	O	1.319552	0.560997	0.242941
O9	O	0.830312	-0.060777	0.011490
O10	O	1.330312	0.439223	0.511490
O11	O	0.723293	-0.060784	-0.130545
O12	O	1.223293	0.439216	0.369455
O13	O	0.926552	-0.060759	-0.115021
O14	O	1.426552	0.439241	0.384979
Zn15	Zn	0.824920	-0.080104	-0.122782
Zn16	Zn	1.324920	0.419896	0.377218
Zn17	Zn	0.824944	0.080323	-0.122788
Zn18	Zn	1.324944	0.580323	0.377212
O19	O	0.819533	-0.060765	-0.257055
O20	O	1.319533	0.439235	0.242945
C21	C	0.697289	0.000094	-0.130048
C22	C	1.197289	0.500094	0.369952
C23	C	0.619779	0.000084	-0.128550
C24	C	1.119779	0.500084	0.371450
C25	C	0.583394	0.066459	-0.127833
C26	C	1.083394	0.566459	0.372167
C27	C	0.510565	0.066468	-0.126416
C28	C	1.010565	0.566468	0.373584
C29	C	0.474126	0.000099	-0.125697
C30	C	0.974126	0.500099	0.374303
C31	C	0.510518	-0.066284	-0.126420
C32	C	1.010518	0.433716	0.373580
C33	C	0.583345	-0.066292	-0.127846
C34	C	1.083345	0.433708	0.372154
N35	N	0.364903	-0.049296	-0.070975
N36	N	0.864903	0.450704	0.429025
N37	N	0.295721	-0.049284	-0.069617
N38	N	0.795721	0.450716	0.430383
C39	C	0.254704	0.000116	-0.121401
C40	C	0.754704	0.500116	0.378599
N41	N	0.285483	0.049516	-0.174581
N42	N	0.785483	0.549516	0.325419
N43	N	0.354671	0.049507	-0.175934
N44	N	0.854671	0.549507	0.324066
C45	C	0.395158	0.000099	-0.124151
C46	C	0.895158	0.500099	0.375849
C47	C	0.139350	0.066505	-0.119148
C48	C	0.639350	0.566505	0.380852
C49	C	0.066520	0.066511	-0.117737
C50	C	0.566520	0.566511	0.382263
C51	C	0.066475	-0.066243	-0.117731
C52	C	0.566475	0.433757	0.382269
C53	C	0.139303	-0.066247	-0.119152
C54	C	0.639303	0.433753	0.380848
C55	C	0.175737	0.000129	-0.119856
C56	C	0.675737	0.500129	0.380144
N57	N	0.824908	-0.189590	-0.122778
N58	N	1.324908	0.310410	0.377222
C59	C	0.867317	-0.227885	-0.178573
C60	C	1.367317	0.272115	0.321427
C61	C	0.867328	-0.304530	-0.178570
C62	C	1.367328	0.195470	0.321430
C63	C	0.824918	-0.342877	-0.122784
C64	C	1.324918	0.157123	0.377216
C65	C	0.782507	-0.304573	-0.066977
C66	C	1.282507	0.195427	0.433023
C67	C	0.782502	-0.227930	-0.066975
C68	C	1.282502	0.272070	0.433025
N69	N	0.763762	-0.463238	-0.120519
N70	N	1.263762	0.036762	0.379481
N71	N	0.763768	-0.536046	-0.120527
N72	N	1.263768	-0.036046	0.379473
C73	C	0.824932	-0.573800	-0.122787
C74	C	1.324932	-0.073800	0.377213
N75	N	0.886090	-0.535995	-0.125057
N76	N	1.386090	-0.035995	0.374943
N77	N	0.886082	-0.463181	-0.125054
N78	N	1.386082	0.036819	0.374946
C79	C	0.824920	-0.425984	-0.122780
C80	C	1.324920	0.074016	0.377220
C81	C	0.867357	-0.695202	-0.178582
C82	C	1.367357	-0.195202	0.321418
C83	C	0.867370	-0.771848	-0.178573
C84	C	1.367370	-0.271848	0.321427
C85	C	0.782543	-0.771890	-0.066985
C86	C	1.282543	-0.271890	0.433015
C87	C	0.782536	-0.695245	-0.066989
C88	C	1.282536	-0.195245	0.433011
C89	C	0.824942	-0.656905	-0.122793
C90	C	1.324942	-0.156905	0.377207
C91	C	0.952574	0.000127	-0.115522
C92	C	1.452574	0.500127	0.384478
C93	C	1.030085	0.000141	-0.117020
C94	C	1.530085	0.500141	0.382980
C95	C	0.829818	0.000104	0.045844
C96	C	1.329818	0.500104	0.545844
C97	C	0.828313	0.000103	0.148216
C98	C	1.328313	0.500103	0.648216
N99	N	0.824961	0.189810	-0.122784
N100	N	1.324961	0.689810	0.377216
C101	C	0.820045	0.000118	-0.291414
C102	C	1.320045	0.500118	0.208586
C103	C	0.821550	0.000123	-0.393786
C104	C	1.321550	0.500123	0.106214
C105	C	0.822772	0.000121	0.523077
C106	C	1.322772	0.500121	1.023077
C107	C	0.824311	0.000116	0.418779
C108	C	1.324311	0.500116	0.918779
C109	C	0.825542	0.000112	0.335650
C110	C	1.325542	0.500112	0.835650
C111	C	0.827081	0.000108	0.231345
C112	C	1.327081	0.500108	0.731345
H113	H	0.036806	-0.120282	-0.117152
H114	H	0.536806	0.379718	0.382848
H115	H	0.169015	0.120552	-0.119731
H116	H	0.669015	0.620552	0.380269
O117	O	0.908450	-0.657919	-0.232883
O118	O	1.408450	-0.157919	0.267117
C119	C	0.865954	-0.613583	-0.295942
C120	C	1.365954	-0.113583	0.204058
H121	H	0.810413	-0.636703	-0.306038
H122	H	1.310413	-0.136703	0.193962
H123	H	0.888352	-0.612696	-0.365335
H124	H	1.388352	-0.112696	0.134665
H125	H	0.864733	-0.555500	-0.267447
H126	H	1.364733	-0.055500	0.232553
H127	H	0.901862	-0.335716	-0.224008
H128	H	1.401862	0.164284	0.275992
O129	O	0.618832	0.130914	-0.128365
O130	O	1.118832	0.630914	0.371635
C131	C	0.668794	0.134872	-0.049352
C132	C	1.168794	0.634872	0.450648
H133	H	0.652301	0.097207	0.006894
H134	H	1.152301	0.597207	0.506894
H135	H	0.672267	0.193576	-0.022569
H136	H	1.172267	0.693576	0.477431
H137	H	0.722212	0.117034	-0.068490
H138	H	1.222212	0.617034	0.431510
O139	O	0.741194	-0.190763	-0.012885
O140	O	1.241194	0.309237	0.487115
C141	C	0.670364	-0.209536	-0.038664
C142	C	1.170364	0.290464	0.461336
H143	H	0.663709	-0.230601	-0.113059
H144	H	1.163709	0.269399	0.386941
H145	H	0.636002	-0.159149	-0.033408
H146	H	1.136002	0.340851	0.466592
H147	H	0.654107	-0.254037	0.009628
H148	H	1.154107	0.245963	0.509628
O149	O	0.031108	0.130944	-0.116917
O150	O	0.531108	0.630944	0.383083
C151	C	-0.003188	0.134919	-0.036231
C152	C	0.496812	0.634919	0.463769
H153	H	-0.011512	0.077288	-0.009400
H154	H	0.488488	0.577288	0.490600
H155	H	-0.056148	0.163016	-0.053190
H156	H	0.443852	0.663016	0.446810
H157	H	0.030363	0.167666	0.019140
H158	H	0.530363	0.667666	0.519140
H159	H	0.901850	-0.196674	-0.224009
H160	H	1.401850	0.303326	0.275991
H161	H	0.480844	-0.120323	-0.125837
H162	H	0.980844	0.379677	0.374163
O163	O	0.174548	-0.130790	-0.119795
O164	O	0.674548	0.369210	0.380205
C165	C	0.126769	-0.189369	-0.118881
C166	C	0.626769	0.310631	0.381119
H167	H	0.077721	-0.169907	-0.088675
H168	H	0.577721	0.330093	0.411325
H169	H	0.152178	-0.235794	-0.074527
H170	H	0.652178	0.264206	0.425473
H171	H	0.111775	-0.209774	-0.192698
H172	H	0.611775	0.290226	0.307302
H173	H	0.901909	-0.803026	-0.224005
H174	H	1.401909	-0.303026	0.275995
O175	O	0.741224	-0.658080	-0.012905
O176	O	1.241224	-0.158080	0.487095
C177	C	0.670396	-0.676854	-0.038691
C178	C	1.170396	-0.176854	0.461309
H179	H	0.663744	-0.697914	-0.113088
H180	H	1.163744	-0.197914	0.386912
H181	H	0.636032	-0.626468	-0.033433
H182	H	1.136032	-0.126468	0.466567
H183	H	0.654137	-0.721358	0.009596
H184	H	1.154137	-0.221358	0.509596
O185	O	0.475163	0.130927	-0.125877
O186	O	0.975163	0.630927	0.374123
C187	C	0.425205	0.134901	-0.204890
C188	C	0.925205	0.634901	0.295110
H189	H	0.441674	0.097244	-0.261139
H190	H	0.941674	0.597244	0.238861
H191	H	0.421768	0.193610	-0.231669
H192	H	0.921768	0.693610	0.268331
H193	H	0.371775	0.117065	-0.185754
H194	H	0.871775	0.617065	0.314246
H195	H	0.612968	-0.120343	-0.128431
H196	H	1.112968	0.379657	0.371569
H197	H	0.747978	-0.335801	-0.021554
H198	H	1.247978	0.164199	0.478446
H199	H	0.748013	-0.803111	-0.021561
H200	H	1.248013	-0.303111	0.478439
