data_functionalizedCrystal
_audit_creation_method	'MofGen! by Chris Wilmer'
_symmetry_space_group_name_H-M	'P1'
_symmetry_Int_Tables_number	1
_symmetry_cell_setting	triclinic
loop_
_symmetry_equiv_pos_as_xyz
  x,y,z
_cell_length_a	16.120484
_cell_length_b	12.759401
_cell_length_c	12.759393
_cell_angle_alpha	89.979434
_cell_angle_beta	87.135992
_cell_angle_gamma	87.076339
loop_
_atom_site_label
_atom_site_type_symbol
_atom_site_fract_x
_atom_site_fract_y
_atom_site_fract_z
Zn1	Zn	-0.331905	-1.584980	0.615177
Zn2	Zn	0.001428	-1.251646	0.948510
Zn3	Zn	0.334762	-0.918313	1.281844
Zn4	Zn	-0.471340	-1.575928	0.448390
Zn5	Zn	-0.138007	-1.242595	0.781723
Zn6	Zn	0.195327	-0.909262	1.115056
Zn7	Zn	-0.331941	-1.409276	0.439516
Zn8	Zn	0.001392	-1.075943	0.772849
Zn9	Zn	0.334725	-0.742610	1.106182
Zn10	Zn	-0.471274	-1.400332	0.624024
Zn11	Zn	-0.137940	-1.066999	0.957357
Zn12	Zn	0.195393	-0.733665	1.290690
O13	O	-0.401615	-1.492629	0.531776
O14	O	-0.068282	-1.159296	0.865110
O15	O	0.265052	-0.825962	1.198443
O16	O	-0.350414	-1.730799	0.593064
O17	O	-0.017081	-1.397466	0.926397
O18	O	0.316253	-1.064133	1.259730
O19	O	-0.452891	-1.553777	0.300194
O20	O	-0.119558	-1.220443	0.633527
O21	O	0.213775	-0.887110	0.966861
O22	O	-0.215271	-1.440115	0.455401
O23	O	0.118062	-1.106782	0.788735
O24	O	0.451395	-0.773448	1.122068
O25	O	-0.452856	-1.724149	0.470526
O26	O	-0.119523	-1.390816	0.803859
O27	O	0.213810	-1.057483	1.137192
O28	O	-0.215245	-1.569204	0.584459
O29	O	0.118089	-1.235870	0.917792
O30	O	0.451422	-0.902537	1.251126
O31	O	-0.350476	-1.431338	0.293674
O32	O	-0.017142	-1.098005	0.627008
O33	O	0.316191	-0.764671	0.960341
O34	O	-0.350411	-1.261070	0.463980
O35	O	-0.017078	-0.927736	0.797313
O36	O	0.316255	-0.594403	1.130646
O37	O	-0.452743	-1.424871	0.769869
O38	O	-0.119410	-1.091538	1.103202
O39	O	0.213923	-0.758204	1.436535
O40	O	-0.452778	-1.254498	0.599537
O41	O	-0.119445	-0.921165	0.932870
O42	O	0.213888	-0.587832	1.266204
O43	O	-0.350350	-1.560531	0.763369
O44	O	-0.017016	-1.227197	1.096702
O45	O	0.316317	-0.893864	1.430036
O46	O	-0.587996	-1.545104	0.479104
O47	O	-0.254663	-1.211771	0.812437
O48	O	0.078670	-0.878437	1.145771
O49	O	-0.587948	-1.416094	0.608142
O50	O	-0.254614	-1.082761	0.941475
O51	O	0.078719	-0.749427	1.274808
C52	C	-0.401592	-1.219663	0.531756
C53	C	-0.068259	-0.886330	0.865089
C54	C	0.265074	-0.552997	1.198423
C55	C	-0.401603	-1.102886	0.531773
C56	C	-0.068269	-0.769553	0.865107
C57	C	0.265064	-0.436219	1.198440
C58	C	-0.348356	-1.051481	0.595688
C59	C	-0.015022	-0.718148	0.929021
C60	C	0.318311	-0.384815	1.262354
C61	C	-0.348361	-0.941757	0.595693
C62	C	-0.015027	-0.608423	0.929027
C63	C	0.318306	-0.275090	1.262360
C64	C	-0.454867	-0.934851	0.467868
C65	C	-0.121534	-0.601518	0.801201
C66	C	0.211800	-0.268184	1.134534
C67	C	-0.454857	-1.044574	0.467857
C68	C	-0.121524	-0.711240	0.801191
C69	C	0.211810	-0.377907	1.134524
C70	C	-0.618222	-1.478675	0.545569
C71	C	-0.284889	-1.145341	0.878902
C72	C	0.048445	-0.812008	1.212235
C73	C	-0.710887	-1.472801	0.551504
C74	C	-0.377554	-1.139468	0.884838
C75	C	-0.044221	-0.806134	1.218171
C76	C	-0.880548	-1.462084	0.562362
C77	C	-0.547215	-1.128750	0.895696
C78	C	-0.213881	-0.795417	1.229029
C79	C	-0.921842	-1.523363	0.501208
C80	C	-0.588508	-1.190030	0.834541
C81	C	-0.255175	-0.856696	1.167874
C82	C	-1.016247	-1.517400	0.507249
C83	C	-0.682913	-1.184066	0.840583
C84	C	-0.349580	-0.850733	1.173916
C85	C	-0.786134	-1.468045	0.556322
C86	C	-0.452801	-1.134712	0.889656
C87	C	-0.119468	-0.801379	1.222989
C88	C	-0.184162	-1.506667	0.517953
C89	C	0.149171	-1.173333	0.851287
C90	C	0.482504	-0.840000	1.184620
C91	C	-0.091497	-1.512649	0.512063
C92	C	0.241836	-1.179315	0.845396
C93	C	0.575170	-0.845982	1.178729
C94	C	-0.401535	-1.492713	0.805805
C95	C	-0.068202	-1.159380	1.139138
C96	C	0.265132	-0.826046	1.472471
C97	C	-0.401501	-1.492749	0.922579
C98	C	-0.068168	-1.159415	1.255913
C99	C	0.265166	-0.826082	1.589246
C100	C	-0.401631	-0.766661	0.531793
C101	C	-0.068297	-0.433328	0.865127
C102	C	0.265036	-0.099995	1.198460
C103	C	-0.401618	-0.883439	0.531789
C104	C	-0.068284	-0.550105	0.865123
C105	C	0.265049	-0.216772	1.198456
C106	C	-0.401635	-1.492610	0.258810
C107	C	-0.068301	-1.159277	0.592144
C108	C	0.265032	-0.825943	0.925477
C109	C	-0.401434	-1.492793	0.142021
C110	C	-0.068100	-1.159460	0.475355
C111	C	0.265233	-0.826126	0.808688
C112	C	-0.348176	-1.563392	0.974058
C113	C	-0.014843	-1.230059	1.307391
C114	C	0.318491	-0.896726	1.640725
C115	C	-0.348140	-1.563412	1.083780
C116	C	-0.014807	-1.230079	1.417113
C117	C	0.318527	-0.896746	1.750447
C118	C	-0.454761	-1.422142	1.090535
C119	C	-0.121428	-1.088808	1.423868
C120	C	0.211906	-0.755475	1.757202
C121	C	-0.454792	-1.422117	0.980815
C122	C	-0.121459	-1.088784	1.314148
C123	C	0.211875	-0.755451	1.647482
H124	H	-0.498226	-0.887360	0.415831
H125	H	-0.164892	-0.554027	0.749164
H126	H	0.168441	-0.220693	1.082497
C127	C	-0.928564	-1.385156	0.639206
C128	C	-0.595230	-1.051823	0.972539
C129	C	-0.261897	-0.718489	1.305873
H130	H	-0.986634	-1.391185	0.633224
H131	H	-0.653301	-1.057852	0.966557
H132	H	-0.319968	-0.724518	1.299890
H133	H	-0.914293	-1.401365	0.708919
H134	H	-0.580959	-1.068031	1.042253
H135	H	-0.247626	-0.734698	1.375586
H136	H	-0.914403	-1.315448	0.622863
H137	H	-0.581069	-0.982115	0.956196
H138	H	-0.247736	-0.648782	1.289529
C139	C	-0.513384	-1.344463	1.154598
C140	C	-0.180050	-1.011130	1.487931
C141	C	0.153283	-0.677796	1.821264
H142	H	-0.505735	-1.354601	1.227317
H143	H	-0.172402	-1.021268	1.560650
H144	H	0.160931	-0.687935	1.893984
H145	H	-0.501184	-1.274656	1.135832
H146	H	-0.167850	-0.941322	1.469165
H147	H	0.165483	-0.607989	1.802499
H148	H	-0.569408	-1.356227	1.140176
H149	H	-0.236075	-1.022893	1.473509
H150	H	0.097259	-0.689560	1.806843
H151	H	-0.304780	-1.620902	0.926646
H152	H	0.028553	-1.287569	1.259979
H153	H	0.361886	-0.954235	1.593312
C154	C	-0.513430	-1.101128	0.397550
C155	C	-0.180097	-0.767795	0.730884
C156	C	0.153236	-0.434461	1.064217
H157	H	-0.505790	-1.174826	0.406691
H158	H	-0.172456	-0.841493	0.740025
H159	H	0.160877	-0.508159	1.073358
H160	H	-0.569463	-1.079556	0.416374
H161	H	-0.236130	-0.746222	0.749708
H162	H	0.097203	-0.412889	1.083041
H163	H	-0.501157	-1.083904	0.326202
H164	H	-0.167823	-0.750571	0.659535
H165	H	0.165510	-0.417237	0.992868
C166	C	-0.289772	-1.115622	0.665983
C167	C	0.043561	-0.782288	0.999316
C168	C	0.376895	-0.448955	1.332650
H169	H	-0.258056	-1.069288	0.704041
H170	H	0.075278	-0.735955	1.037374
H171	H	0.408611	-0.402621	1.370708
H172	H	-0.321700	-1.156394	0.713724
H173	H	0.011633	-0.823060	1.047058
H174	H	0.344967	-0.489727	1.380391
H175	H	-0.253402	-1.160742	0.623542
H176	H	0.079932	-0.827408	0.956875
H177	H	0.413265	-0.494075	1.290208
C178	C	-0.289793	-0.885216	0.666005
C179	C	0.043540	-0.551882	0.999338
C180	C	0.376873	-0.218549	1.332671
H181	H	-0.258082	-0.935662	0.704072
H182	H	0.075251	-0.602329	1.037405
H183	H	0.408584	-0.268995	1.370739
H184	H	-0.253430	-0.844733	0.623585
H185	H	0.079903	-0.511399	0.956918
H186	H	0.413236	-0.178066	1.290251
H187	H	-0.321740	-0.840381	0.713754
H188	H	0.011594	-0.507048	1.047087
H189	H	0.344927	-0.173714	1.380421
C190	C	-0.873825	-1.600256	0.424319
C191	C	-0.540492	-1.266923	0.757652
C192	C	-0.207159	-0.933590	1.090986
H193	H	-0.815754	-1.594210	0.430275
H194	H	-0.482421	-1.260877	0.763608
H195	H	-0.149087	-0.927544	1.096942
H196	H	-0.887975	-1.669973	0.440613
H197	H	-0.554641	-1.336640	0.773946
H198	H	-0.221308	-1.003306	1.107280
H199	H	-0.888114	-1.583996	0.354618
H200	H	-0.554781	-1.250662	0.687951
H201	H	-0.221448	-0.917329	1.021284
C202	C	-0.289487	-1.641125	1.140403
C203	C	0.043847	-1.307792	1.473736
C204	C	0.377180	-0.974458	1.807069
H205	H	-0.257760	-1.683189	1.090002
H206	H	0.075574	-1.349855	1.423336
H207	H	0.408907	-1.016522	1.756669
H208	H	-0.253142	-1.603296	1.180889
H209	H	0.080191	-1.269963	1.514222
H210	H	0.413525	-0.936630	1.847555
H211	H	-0.321378	-1.684852	1.185238
H212	H	0.011956	-1.351519	1.518572
H213	H	0.345289	-1.018186	1.851905
H214	H	-0.498215	-1.364583	0.938900
H215	H	-0.164882	-1.031250	1.272233
H216	H	0.168452	-0.697917	1.605567
