data_functionalizedCrystal
_audit_creation_method	'MofGen! by Chris Wilmer'
_symmetry_space_group_name_H-M	'P1'
_symmetry_Int_Tables_number	1
_symmetry_cell_setting	triclinic
loop_
_symmetry_equiv_pos_as_xyz
  x,y,z
_cell_length_a	19.805407
_cell_length_b	19.805404
_cell_length_c	19.805399
_cell_angle_alpha	90.025147
_cell_angle_beta	90.021725
_cell_angle_gamma	90.031990
loop_
_atom_site_label
_atom_site_type_symbol
_atom_site_fract_x
_atom_site_fract_y
_atom_site_fract_z
Zn1	Zn	-1.034715	0.269457	-0.382770
Zn2	Zn	-1.034621	0.382645	-0.269587
Zn3	Zn	-0.921530	0.269478	-0.269590
Zn4	Zn	-0.921485	0.382612	-0.382729
O5	O	-0.978088	0.326048	-0.326169
O6	O	-1.129419	0.284477	-0.367771
O7	O	-1.019599	0.367656	-0.174870
O8	O	-0.936602	0.174758	-0.284623
O9	O	-1.129350	0.367636	-0.284616
O10	O	-1.019759	0.174743	-0.367775
O11	O	-0.936511	0.284513	-0.174873
O12	O	-0.826807	0.284480	-0.284583
O13	O	-0.936525	0.367578	-0.477451
O14	O	-0.826774	0.367599	-0.367705
O15	O	-1.019715	0.284444	-0.477481
O16	O	-1.019556	0.477357	-0.284576
O17	O	-0.936435	0.477333	-0.367702
C18	C	-0.802232	0.326039	-0.326140
C19	C	-0.727000	0.326051	-0.326144
C20	C	-0.265248	0.282819	-0.369544
C21	C	-0.335937	0.282821	-0.369541
C22	C	-0.371238	0.326050	-0.326177
C23	C	-0.335848	0.369285	-0.282818
C24	C	-0.265160	0.369286	-0.282825
C25	C	-0.620921	0.369284	-0.282789
C26	C	-0.691613	0.369278	-0.282784
C27	C	-0.691697	0.282819	-0.369504
C28	C	-0.621010	0.282819	-0.369512
C29	C	-0.585625	0.326057	-0.326156
C30	C	-0.508977	0.326055	-0.326161
C31	C	-0.447885	0.326049	-0.326168
C32	C	-0.977998	0.501904	-0.326149
C33	C	-0.978022	0.577136	-0.326163
C34	C	-0.154631	0.326054	-0.326192
C35	C	-0.229863	0.326049	-0.326187
C36	C	-1.021521	1.038917	-0.283005
C37	C	-1.021490	0.968229	-0.282989
C38	C	-0.978164	0.932897	-0.326226
C39	C	-0.934861	0.968258	-0.369476
C40	C	-0.934888	1.038945	-0.369487
C41	C	-0.934749	0.683185	-0.369429
C42	C	-0.934726	0.612493	-0.369415
C43	C	-1.021351	0.612468	-0.282931
C44	C	-1.021378	0.683155	-0.282942
C45	C	-0.978073	0.718510	-0.326189
C46	C	-0.978105	0.795159	-0.326205
C47	C	-0.978135	0.856250	-0.326214
C48	C	-0.978126	0.326005	-0.502712
C49	C	-0.978142	0.325987	-0.577944
C50	C	-0.978191	1.149505	-0.326212
C51	C	-0.978222	1.074273	-0.326253
C52	C	-1.021460	0.282697	-0.613305
C53	C	-1.021467	0.282677	-0.683993
C54	C	-0.978159	0.325952	-0.719319
C55	C	-0.934836	0.369244	-0.683954
C56	C	-0.934826	0.369259	-0.613266
C57	C	-0.934874	0.369181	-0.969027
C58	C	-0.934889	0.369163	-1.039719
C59	C	-1.021515	0.282598	-1.039754
C60	C	-1.021505	0.282614	-0.969067
C61	C	-0.978180	0.325903	-0.933707
C62	C	-0.978172	0.325923	-0.857058
C63	C	-0.978170	0.325936	-0.795967
C64	C	-0.978089	0.326041	-0.150313
C65	C	-0.978204	0.325869	-0.075081
H66	H	-0.364744	0.247621	-0.404848
C67	C	-0.887795	1.077370	-0.416332
C68	C	-0.844440	1.118001	-0.377971
C69	C	-0.801039	1.153399	-0.421099
H70	H	-0.913600	1.104959	-0.445867
H71	H	-0.861949	1.046226	-0.442070
H72	H	-0.870283	1.149141	-0.352245
H73	H	-0.818620	1.090429	-0.348438
H74	H	-0.775193	1.122255	-0.446837
H75	H	-0.826849	1.180984	-0.450632
H76	H	-0.771613	1.180967	-0.395077
C77	C	-0.887893	0.929779	-0.416393
C78	C	-0.897150	0.860306	-0.407142
C79	C	-0.853902	0.824840	-0.450360
H80	H	-0.842399	0.941329	-0.406488
H81	H	-0.897783	0.941289	-0.461897
H82	H	-0.887255	0.848801	-0.361649
H83	H	-0.942635	0.848736	-0.417052
H84	H	-0.863792	0.836350	-0.495863
H85	H	-0.808410	0.836396	-0.440451
H86	H	-0.860181	0.777699	-0.444093
C87	C	-1.068507	0.235637	-0.575076
C88	C	-1.106431	0.197708	-0.621177
C89	C	-1.149771	0.154341	-0.585988
H90	H	-1.098040	0.261460	-0.547499
H91	H	-1.042644	0.206114	-0.547516
H92	H	-1.132292	0.227228	-0.648725
H93	H	-1.076916	0.171872	-0.648755
H94	H	-1.123908	0.124818	-0.558427
H95	H	-1.179299	0.180169	-0.558412
H96	H	-1.175503	0.128597	-0.617262
C97	C	-1.068383	0.235584	-0.722415
C98	C	-1.030087	0.192174	-0.762975
C99	C	-1.073282	0.148770	-0.798368
H100	H	-1.097879	0.261384	-0.750052
H101	H	-1.094160	0.209778	-0.691268
H102	H	-1.004322	0.217978	-0.794118
H103	H	-1.000594	0.166359	-0.735355
H104	H	-1.099059	0.122964	-0.767222
H105	H	-1.102776	0.174576	-0.826001
H106	H	-1.047305	0.119307	-0.825887
H107	H	-0.592271	0.247615	-0.404820
C108	C	-0.887759	0.416065	-0.930599
C109	C	-0.844385	0.377740	-0.890032
C110	C	-0.800966	0.420907	-0.854622
H111	H	-0.913549	0.445575	-0.902965
H112	H	-0.861927	0.441828	-0.961735
H113	H	-0.870215	0.351989	-0.858898
H114	H	-0.818580	0.348232	-0.917648
H115	H	-0.775134	0.446669	-0.885759
H116	H	-0.826762	0.450415	-0.826992
H117	H	-0.771528	0.394910	-0.827098
C118	C	-1.068475	0.235615	-1.078268
C119	C	-1.059203	0.244845	-1.147734
C120	C	-1.102443	0.201572	-1.183231
H121	H	-1.113972	0.245484	-1.066774
H122	H	-1.058589	0.190126	-1.066726
H123	H	-1.069093	0.290324	-1.159271
H124	H	-1.013715	0.234971	-1.159247
H125	H	-1.092558	0.156083	-1.171690
H126	H	-1.147938	0.211445	-1.171733
H127	H	-1.096154	0.207824	-1.230368
H128	H	-0.899481	0.711962	-0.404638
C129	C	-0.729977	0.416108	-0.235621
C130	C	-0.770545	0.377729	-0.192286
C131	C	-0.805889	0.420841	-0.148828
H132	H	-0.757606	0.445641	-0.261384
H133	H	-0.698802	0.441849	-0.209762
H134	H	-0.801717	0.352000	-0.218142
H135	H	-0.742934	0.348198	-0.166508
H136	H	-0.774713	0.446582	-0.122969
H137	H	-0.833513	0.450372	-0.174597
H138	H	-0.833413	0.394807	-0.119416
H139	H	-0.899545	0.404504	-0.584476
H140	H	-1.056661	0.711919	-0.247737
C141	C	-1.068468	0.929932	-0.235927
C142	C	-1.053796	0.947198	-0.168947
C143	C	-1.097067	0.911940	-0.125573
H144	H	-1.062292	0.882762	-0.242015
H145	H	-1.113953	0.941484	-0.245846
H146	H	-1.008322	0.935641	-0.159032
H147	H	-1.059976	0.994361	-0.162838
H148	H	-1.142552	0.923493	-0.135492
H149	H	-1.090887	0.864773	-0.131667
H150	H	-1.087122	0.923655	-0.080123
H151	H	-0.899571	0.404476	-0.712722
H152	H	-1.056773	0.247378	-0.940307
C153	C	-0.887901	0.416257	-1.077987
C154	C	-0.902576	0.483231	-1.060767
C155	C	-0.859302	0.526630	-1.095998
H156	H	-0.894071	0.410141	-1.125160
H157	H	-0.842417	0.406387	-1.066382
H158	H	-0.948049	0.493097	-1.072377
H159	H	-0.896402	0.489368	-1.013600
H160	H	-0.813818	0.516760	-1.084393
H161	H	-0.865476	0.520508	-1.143170
H162	H	-0.869250	0.572076	-1.084315
H163	H	-0.236511	0.247612	-0.404852
H164	H	-0.236350	0.404490	-0.247521
C165	C	-0.730030	0.235920	-0.416695
C166	C	-0.712842	0.250733	-0.483638
C167	C	-0.748132	0.207539	-0.527125
H168	H	-0.777195	0.242068	-0.410576
H169	H	-0.718452	0.190419	-0.406909
H170	H	-0.724424	0.296223	-0.493421
H171	H	-0.665683	0.244581	-0.489777
H172	H	-0.736554	0.162038	-0.517338
H173	H	-0.795295	0.213690	-0.521000
H174	H	-0.736470	0.217579	-0.572549
C175	C	-0.582631	0.416244	-0.235637
C176	C	-0.628679	0.454084	-0.197645
C177	C	-0.593429	0.497345	-0.154192
H178	H	-0.555050	0.445833	-0.261400
H179	H	-0.555071	0.390328	-0.206158
H180	H	-0.656227	0.479999	-0.227121
H181	H	-0.656262	0.424513	-0.171868
H182	H	-0.565869	0.471429	-0.124713
H183	H	-0.565848	0.526929	-0.179961
H184	H	-0.624667	0.523020	-0.128405
C185	C	-0.374295	0.416147	-0.235762
C186	C	-0.443774	0.406881	-0.245020
C187	C	-0.479210	0.450031	-0.201674
H188	H	-0.362773	0.461666	-0.245546
H189	H	-0.362731	0.406175	-0.190289
H190	H	-0.455333	0.416858	-0.290482
H191	H	-0.455315	0.361372	-0.235231
H192	H	-0.467647	0.440059	-0.156201
H193	H	-0.467683	0.495546	-0.211462
H194	H	-0.526355	0.443745	-0.207945
H195	H	-1.056806	1.067679	-0.247800
C196	C	-1.068291	0.573960	-0.235994
C197	C	-1.058983	0.504493	-0.245219
C198	C	-1.102206	0.469000	-0.201990
H199	H	-1.113794	0.585413	-0.245905
H200	H	-1.058412	0.585545	-0.190495
H201	H	-1.068867	0.492912	-0.290708
H202	H	-1.013489	0.493019	-0.235303
H203	H	-1.092326	0.480586	-0.156491
H204	H	-1.147706	0.480459	-0.211905
H205	H	-1.095892	0.421863	-0.208239
C206	C	-0.887607	0.574254	-0.416384
C207	C	-0.849674	0.620344	-0.454248
C208	C	-0.806259	0.585143	-0.497515
H209	H	-0.913395	0.546636	-0.445957
H210	H	-0.858089	0.546734	-0.390471
H211	H	-0.879188	0.647852	-0.480160
H212	H	-0.823872	0.647964	-0.424693
H213	H	-0.776741	0.557624	-0.471601
H214	H	-0.832053	0.557526	-0.527083
H215	H	-0.780512	0.616410	-0.523206
