data_functionalizedCrystal
_audit_creation_method	'MofGen! by Chris Wilmer'
_symmetry_space_group_name_H-M	'P1'
_symmetry_Int_Tables_number	1
_symmetry_cell_setting	triclinic
loop_
_symmetry_equiv_pos_as_xyz
  x,y,z
_cell_length_a	14.853567
_cell_length_b	22.010155
_cell_length_c	14.853569
_cell_angle_alpha	89.996911
_cell_angle_beta	83.635248
_cell_angle_gamma	90.005502
loop_
_atom_site_label
_atom_site_type_symbol
_atom_site_fract_x
_atom_site_fract_y
_atom_site_fract_z
O1	O	1.196372	0.050485	0.117692
O2	O	0.933913	0.050495	0.131713
O3	O	1.072152	0.050484	-0.006527
O4	O	1.058132	0.050496	0.255932
O5	O	1.072127	-0.050566	-0.006507
O6	O	0.933887	-0.050555	0.131734
O7	O	1.196347	-0.050565	0.117712
Cu8	Cu	1.065115	-0.059787	0.124725
Cu9	Cu	1.065145	0.059717	0.124700
O10	O	1.058107	-0.050554	0.255953
C11	C	0.900311	-0.000028	0.131088
C12	C	0.800228	-0.000025	0.129184
N13	N	1.065101	-0.143839	0.124742
C14	C	0.387693	-0.000042	0.039019
C15	C	0.366413	-0.000034	0.203251
C16	C	0.460447	-0.000032	0.205041
C17	C	0.518108	-0.000034	0.123819
C18	C	0.481736	-0.000038	0.040806
C19	C	0.496826	-0.000022	0.288053
C20	C	0.590866	-0.000019	0.289846
C21	C	0.648529	-0.000026	0.208622
C22	C	0.612151	-0.000030	0.125606
C23	C	0.669813	-0.000033	0.044384
C24	C	0.633437	-0.000042	-0.038633
C25	C	0.539399	-0.000045	-0.040417
C26	C	0.742566	-0.000022	0.210407
C27	C	0.763855	-0.000029	0.046172
C28	C	1.126361	-0.563624	0.063496
C29	C	1.126365	-0.627231	0.063490
O30	O	1.178414	-0.660127	0.011429
N31	N	1.065144	-0.659046	0.124682
C32	C	1.003909	-0.627251	0.185877
O33	O	0.951836	-0.660153	0.237924
C34	C	1.003901	-0.563644	0.185878
C35	C	1.065132	-0.531832	0.124689
C36	C	1.187586	-0.531812	0.002311
C37	C	1.187583	-0.468209	0.002319
C38	C	1.126354	-0.436417	0.063511
C39	C	1.065129	-0.468229	0.124696
C40	C	0.942662	-0.531850	0.247069
C41	C	0.942659	-0.468239	0.247064
C42	C	1.003890	-0.436427	0.185875
C43	C	1.003897	-0.372835	0.185896
N44	N	1.065118	-0.341020	0.124705
C45	C	1.126346	-0.372811	0.063513
C46	C	1.003929	-0.760828	0.185869
C47	C	1.003940	-0.824434	0.185873
C48	C	1.126395	-0.824410	0.063485
C49	C	1.126388	-0.760804	0.063486
C50	C	1.065150	-0.729013	0.124677
C51	C	1.126335	-0.239240	0.063534
C52	C	1.126329	-0.175631	0.063549
C53	C	1.003871	-0.175660	0.185934
C54	C	1.003880	-0.239263	0.185922
C55	C	1.065116	-0.271051	0.124714
O56	O	0.951872	-0.339898	0.237929
O57	O	1.178403	-0.339901	0.011466
C58	C	1.229948	-0.000040	0.118337
C59	C	1.330032	-0.000040	0.120241
C60	C	1.071504	-0.000041	-0.040106
C61	C	1.069600	-0.000042	-0.140189
N62	N	1.065166	0.143769	0.124677
C63	C	0.986589	-0.000039	-0.176566
C64	C	1.150822	-0.000040	-0.197855
C65	C	1.149035	-0.000037	-0.291889
C66	C	1.066024	-0.000035	-0.328266
C67	C	0.984800	-0.000035	-0.270608
C68	C	1.230258	-0.000030	-0.349554
C69	C	1.228475	-0.000027	-0.443594
C70	C	1.145463	-0.000029	-0.479972
C71	C	1.064235	-0.000030	-0.422309
C72	C	0.981224	-0.000028	-0.458685
C73	C	0.899996	-0.000033	-0.401023
C74	C	0.901788	-0.000037	-0.306987
C75	C	1.143670	-0.000025	-0.574009
C76	C	0.979435	-0.000023	-0.552728
C77	C	1.058755	-0.000027	0.289531
C78	C	1.060660	-0.000023	0.389615
H79	H	0.810798	-0.000033	-0.019971
N80	N	1.192420	-0.726504	-0.002531
H81	H	1.157916	-0.700121	-0.042515
H82	H	1.232368	-0.700141	0.032042
N83	N	1.192386	-0.273520	-0.002475
H84	H	1.231169	-0.243708	-0.041227
H85	H	1.232283	-0.299906	0.032116
H86	H	0.680397	-0.000039	-0.104764
N87	N	1.192376	-0.141319	-0.002448
H88	H	1.231161	-0.171115	-0.041214
H89	H	1.157817	-0.114928	-0.042367
H90	H	1.294616	-0.000024	-0.490536
H91	H	0.911837	-0.000027	-0.582338
H92	H	0.509773	-0.000067	-0.108005
H93	H	0.319460	-0.000027	0.269379
H94	H	0.832408	-0.000028	-0.430653
H95	H	1.297841	-0.000070	-0.319929
N96	N	0.876609	-0.566150	0.313056
H97	H	0.836659	-0.592539	0.278519
H98	H	0.911156	-0.592507	0.353032
H99	H	1.237446	-0.557691	-0.047523
N100	N	0.876615	-0.433949	0.313069
H101	H	0.836657	-0.407560	0.278545
H102	H	0.837892	-0.463794	0.351812
H103	H	0.835656	-0.000040	-0.260030
H104	H	0.920455	-0.000046	-0.129613
H105	H	0.620474	-0.000011	0.357443
N106	N	0.937882	-0.726549	0.251888
H107	H	0.972374	-0.700157	0.291873
H108	H	0.897929	-0.700196	0.217308
H109	H	0.358072	-0.000052	-0.028572
N110	N	0.434639	-0.000013	0.375652
H111	H	0.369548	-0.000020	0.361921
H112	H	0.446426	-0.037469	0.411835
H113	H	0.772179	-0.000016	0.277998
N114	N	0.937856	-0.273579	0.251931
H115	H	0.899072	-0.243785	0.290701
H116	H	0.897957	-0.299969	0.217344
H117	H	1.237440	-0.442311	-0.047509
H118	H	1.209806	-0.000015	-0.620953
N119	N	1.192437	-0.858705	-0.002519
H120	H	1.183144	-0.903826	0.006768
H121	H	1.181945	-0.847587	-0.066495
H122	H	0.954022	-0.149765	0.235759
N123	N	1.240348	-0.000048	-0.158621
H124	H	1.275951	0.037410	-0.179635
H125	H	1.229075	-0.000074	-0.090306
N126	N	0.937904	-0.858742	0.251874
H127	H	0.899117	-0.828944	0.290635
H128	H	0.898009	-0.885130	0.217280
