data_functionalizedCrystal
_audit_creation_method	'MofGen! by Chris Wilmer'
_symmetry_space_group_name_H-M	'P1'
_symmetry_Int_Tables_number	1
_symmetry_cell_setting	triclinic
loop_
_symmetry_equiv_pos_as_xyz
  x,y,z
_cell_length_a	16.120530
_cell_length_b	16.625546
_cell_length_c	16.120297
_cell_angle_alpha	92.870382
_cell_angle_beta	90.128140
_cell_angle_gamma	87.117901
loop_
_atom_site_label
_atom_site_type_symbol
_atom_site_fract_x
_atom_site_fract_y
_atom_site_fract_z
Zn1	Zn	1.247449	-0.408498	-0.534548
Zn2	Zn	1.747449	0.091502	-0.034548
Zn3	Zn	1.254402	-0.536856	-0.395486
Zn4	Zn	1.754402	-0.036856	0.104514
Zn5	Zn	1.115439	-0.394873	-0.388467
Zn6	Zn	1.615439	0.105127	0.111533
Zn7	Zn	1.108359	-0.536114	-0.527455
Zn8	Zn	1.608359	-0.036114	-0.027455
O9	O	1.181412	-0.469085	-0.461489
O10	O	1.681412	0.030915	0.038511
O11	O	1.364738	-0.431538	-0.522007
O12	O	1.864738	0.068462	-0.022007
O13	O	1.241841	-0.512630	-0.278189
O14	O	1.741841	-0.012630	0.221811
O15	O	1.133003	-0.283852	-0.407876
O16	O	1.633003	0.216148	0.092124
O17	O	1.369846	-0.525842	-0.419839
O18	O	1.869846	-0.025842	0.080161
O19	O	1.229990	-0.293862	-0.515202
O20	O	1.729990	0.206138	-0.015202
O21	O	1.139746	-0.408316	-0.273033
O22	O	1.639746	0.091684	0.226967
O23	O	0.998133	-0.407596	-0.400998
O24	O	1.498133	0.092404	0.099002
O25	O	1.120936	-0.524577	-0.644761
O26	O	1.620936	-0.024577	-0.144761
O27	O	0.992931	-0.511365	-0.503112
O28	O	1.492931	-0.011365	-0.003112
O29	O	1.223125	-0.430818	-0.649973
O30	O	1.723125	0.069182	-0.149973
O31	O	1.234976	-0.649586	-0.412960
O32	O	1.734976	-0.149586	0.087040
O33	O	1.127678	-0.649041	-0.509918
O34	O	1.627678	-0.149041	-0.009918
C35	C	1.181335	-0.678570	-0.461450
C36	C	1.681335	-0.178570	0.038550
C37	C	1.181377	-0.768194	-0.461465
C38	C	1.681377	-0.268194	0.038535
C39	C	0.965360	-0.457922	-0.450524
C40	C	1.465360	0.042078	0.049476
C41	C	0.872931	-0.453167	-0.445853
C42	C	1.372931	0.046833	0.054147
C43	C	1.181518	-1.096381	-0.461559
C44	C	1.681518	-0.596381	0.038441
C45	C	1.181476	-1.005070	-0.461535
C46	C	1.681476	-0.505070	0.038465
C47	C	1.181447	-0.932291	-0.461512
C48	C	1.681447	-0.432291	0.038488
C49	C	1.181406	-0.840973	-0.461489
C50	C	1.681406	-0.340973	0.038511
C51	C	0.703701	-0.444466	-0.437332
C52	C	1.203701	0.055534	0.062668
C53	C	0.659961	-0.493767	-0.485707
C54	C	1.159961	0.006233	0.014293
C55	C	0.565795	-0.488926	-0.480965
C56	C	1.065795	0.011074	0.019035
C57	C	0.797875	-0.449306	-0.442072
C58	C	1.297875	0.050694	0.057928
C59	C	1.398308	-0.480293	-0.472497
C60	C	1.898308	0.019707	0.027503
C61	C	1.490736	-0.485069	-0.477188
C62	C	1.990736	0.014931	0.022812
C63	C	1.170465	-0.479134	-0.678383
C64	C	1.670465	0.020866	-0.178383
C65	C	1.165800	-0.483417	-0.770810
C66	C	1.665800	0.016583	-0.270810
C67	C	1.181511	-0.258784	-0.461547
C68	C	1.681511	0.241216	0.038453
C69	C	1.181553	-0.169166	-0.461572
C70	C	1.681553	0.330834	0.038428
C71	C	1.157253	-0.491215	-0.940034
C72	C	1.657253	0.008785	-0.440034
C73	C	1.205735	-0.446722	-0.983804
C74	C	1.705735	0.053278	-0.483804
C75	C	1.200979	-0.451061	-1.077966
C76	C	1.700979	0.048939	-0.577966
C77	C	1.162007	-0.486877	-0.845863
C78	C	1.662007	0.013123	-0.345863
C79	C	1.192364	-0.459020	-0.245441
C80	C	1.692364	0.040980	0.254559
C81	C	1.197190	-0.454518	-0.153023
C82	C	1.697190	0.045482	0.346977
H83	H	0.693234	-0.539609	-0.530683
H84	H	1.193234	-0.039609	-0.030683
O85	O	1.103552	-0.540533	-0.979821
O86	O	1.603552	-0.040533	-0.479821
C87	C	1.110696	-0.533929	-1.066341
C88	C	1.610696	-0.033929	-0.566341
H89	H	1.174299	-0.511363	-1.081364
H90	H	1.674299	-0.011363	-0.581364
H91	H	1.103399	-0.595526	-1.099132
H92	H	1.603399	-0.095526	-0.599132
H93	H	1.060170	-0.489561	-1.088490
H94	H	1.560170	0.010439	-0.588490
O95	O	0.664144	-0.389712	-0.383653
O96	O	1.164144	0.110288	0.116347
C97	C	0.723354	-0.344836	-0.339582
C98	C	1.223354	0.155164	0.160418
H99	H	0.783591	-0.346785	-0.376703
H100	H	1.283591	0.153215	0.123297
H101	H	0.698632	-0.279624	-0.329579
H102	H	1.198632	0.220376	0.170421
H103	H	0.735718	-0.371809	-0.276829
H104	H	1.235718	0.128191	0.223171
H105	H	1.250814	-0.405370	-0.950558
H106	H	1.750814	0.094630	-0.450558
