data_functionalizedCrystal
_audit_creation_method	'MofGen! by Chris Wilmer'
_symmetry_space_group_name_H-M	'P1'
_symmetry_Int_Tables_number	1
_symmetry_cell_setting	triclinic
loop_
_symmetry_equiv_pos_as_xyz
  x,y,z
_cell_length_a	10.489741
_cell_length_b	10.489741
_cell_length_c	7.540329
_cell_angle_alpha	89.996684
_cell_angle_beta	89.999730
_cell_angle_gamma	84.539174
loop_
_atom_site_label
_atom_site_type_symbol
_atom_site_fract_x
_atom_site_fract_y
_atom_site_fract_z
O1	O	1.694051	0.179966	-0.147372
O2	O	1.322855	0.196859	-0.147399
O3	O	1.516900	0.002815	-0.147374
O4	O	1.500007	0.374010	-0.147397
O5	O	1.516888	0.002812	0.147591
O6	O	1.322844	0.196856	0.147566
O7	O	1.694039	0.179964	0.147593
Cu8	Cu	1.508440	0.188410	0.174512
Cu9	Cu	1.508454	0.188413	-0.174318
O10	O	1.499995	0.374008	0.147568
C11	C	1.275318	0.195582	0.000080
C12	C	1.133688	0.191765	0.000070
C13	C	1.065548	0.068300	0.000094
C14	C	0.973427	0.126625	-0.145339
C15	C	0.973450	0.126652	0.145473
C16	C	1.043433	0.250140	-0.145484
C17	C	1.043465	0.250150	0.145460
C18	C	0.951371	0.308564	-0.000009
C19	C	1.515618	-0.044718	0.000107
C20	C	1.511801	-0.186348	0.000104
C21	C	1.388336	-0.254488	0.000082
C22	C	1.446654	-0.346612	0.145519
C23	C	1.446695	-0.346584	-0.145294
C24	C	1.570169	-0.276606	0.145661
C25	C	1.570193	-0.276569	-0.145282
C26	C	1.628600	-0.368665	0.000191
C27	C	1.741577	0.181241	0.000110
C28	C	1.883206	0.185058	0.000109
C29	C	1.501277	0.421541	0.000083
C30	C	1.505094	0.563170	0.000075
N31	N	1.508440	0.188407	0.419861
N32	N	1.508465	0.188405	-0.419667
H33	H	1.074265	0.302341	-0.268575
F34	F	1.378368	-0.387148	0.306224
H35	H	1.394443	-0.377547	-0.268261
H36	H	1.622360	-0.245775	0.268755
F37	F	1.255653	-0.189591	0.000254
F38	F	0.932897	0.058348	-0.306046
H39	H	1.115238	-0.033196	-0.000082
F40	F	1.084042	0.318376	0.306171
F41	F	1.761401	-0.433269	0.000301
H42	H	1.622394	-0.245523	-0.268238
F43	F	0.886766	0.441365	-0.000116
H44	H	0.942467	0.074388	0.268426
