data_functionalizedCrystal
_audit_creation_method	'MofGen! by Chris Wilmer'
_symmetry_space_group_name_H-M	'P1'
_symmetry_Int_Tables_number	1
_symmetry_cell_setting	triclinic
loop_
_symmetry_equiv_pos_as_xyz
  x,y,z
_cell_length_a	23.096457
_cell_length_b	23.096457
_cell_length_c	23.096457
_cell_angle_alpha	90.003305
_cell_angle_beta	59.998679
_cell_angle_gamma	60.005235
loop_
_atom_site_label
_atom_site_type_symbol
_atom_site_fract_x
_atom_site_fract_y
_atom_site_fract_z
Zr1	Zr	0.633715	-0.075966	0.557786
O2	O	0.754501	-0.168407	0.465331
O3	O	0.512929	-0.047631	0.586126
O4	O	0.633712	-0.168415	0.586119
O5	O	0.633719	0.047657	0.465346
O6	O	0.633710	-0.168417	0.681401
O7	O	0.633717	-0.047623	0.465338
O8	O	0.417650	0.047643	0.681414
O9	O	0.849779	-0.168403	0.465333
O10	O	0.562608	-0.035544	0.669324
O11	O	0.562611	0.035564	0.598221
O12	O	0.704818	-0.106643	0.598213
O13	O	0.704821	-0.035535	0.527111
Zr14	Zr	0.633714	0.075992	0.709763
Zr15	Zr	0.633711	-0.075969	0.709750
Zr16	Zr	0.633717	0.075996	0.557798
Zr17	Zr	0.785672	-0.075959	0.557790
Zr18	Zr	0.481756	0.075986	0.709759
O19	O	0.754500	0.047658	0.681422
O20	O	0.754496	-0.168412	0.681405
O21	O	0.754505	0.047662	0.465349
O22	O	0.512927	0.168434	0.802218
O23	O	0.512923	-0.047636	0.802200
O24	O	0.512932	0.168438	0.586144
O25	O	0.633709	-0.047630	0.802203
O26	O	0.633716	0.168441	0.681429
O27	O	0.633718	0.168443	0.586147
O28	O	0.633711	0.047650	0.802211
O29	O	0.849776	-0.168406	0.586125
O30	O	0.417652	0.168432	0.681424
O31	O	0.417649	0.168430	0.802215
O32	O	0.417647	0.047641	0.802205
O33	O	0.849781	-0.047614	0.465343
O34	O	0.849778	-0.047617	0.586135
O35	O	0.562610	0.106670	0.669335
O36	O	0.562607	0.035561	0.740438
O37	O	0.704818	-0.035538	0.669327
O38	O	0.704820	0.035570	0.598225
C39	C	0.443639	0.000005	0.633769
C40	C	0.379129	0.000003	0.633768
C41	C	0.633719	0.000017	0.443690
C42	C	0.633720	0.000019	0.379177
C43	C	0.633717	0.190094	0.633790
C44	C	0.633718	0.254605	0.633795
C45	C	0.348826	-0.037118	0.670878
C46	C	0.288204	-0.037112	0.670885
C47	C	0.257898	0.000005	0.633768
C48	C	0.288205	0.037133	0.596656
C49	C	0.348820	0.037132	0.596656
N50	N	0.195504	-0.005141	0.573362
N51	N	0.137923	-0.005144	0.573363
C52	C	0.075266	0.000011	0.633767
N53	N	0.072373	0.005155	0.694168
N54	N	0.129961	0.005154	0.694166
C55	C	0.192170	0.000010	0.633764
C56	C	-0.020771	-0.037105	0.670888
C57	C	-0.081398	-0.037094	0.670897
C58	C	-0.081390	0.037146	0.596662
C59	C	-0.020770	0.037140	0.596660
C60	C	0.009539	0.000011	0.633771
C61	C	0.823790	0.000021	0.633779
C62	C	0.888299	0.000024	0.633781
C63	C	0.633711	-0.190067	0.633759
C64	C	0.633710	-0.254579	0.633753
C65	C	0.707948	0.247798	0.596679
C66	C	0.707950	0.308413	0.596669
C67	C	0.633716	0.375836	0.633788
C68	C	0.559477	0.382641	0.670905
C69	C	0.559478	0.322025	0.670909
N70	N	0.578460	0.498636	0.694189
N71	N	0.578464	0.556215	0.694185
C72	C	0.633709	0.558468	0.633778
N73	N	0.688962	0.500961	0.573377
N74	N	0.688961	0.443375	0.573383
C75	C	0.633707	0.441567	0.633788
C76	C	0.707946	0.617385	0.596647
C77	C	0.707944	0.678003	0.596635
C78	C	0.559469	0.752230	0.670878
C79	C	0.559473	0.691612	0.670884
C80	C	0.633713	0.624192	0.633770
C81	C	0.633725	-0.052475	0.348870
C82	C	0.633718	-0.052475	0.288258
C83	C	0.633722	0.000014	0.257947
C84	C	0.633712	0.052517	0.288264
C85	C	0.633711	0.052520	0.348879
N86	N	0.680077	0.015906	0.139597
N87	N	0.680079	0.015900	0.082014
C88	C	0.633722	0.000010	0.075317
N89	N	0.587373	-0.015886	0.128374
N90	N	0.587374	-0.015883	0.185960
C91	C	0.633722	0.000017	0.192220
C92	C	0.633718	-0.052487	-0.020712
C93	C	0.633706	-0.052482	-0.081323
C94	C	0.633708	0.052507	-0.081320
C95	C	0.633712	0.052505	-0.020706
C96	C	0.633721	0.000004	0.009592
C97	C	0.633710	0.000009	0.823858
C98	C	0.633708	0.000008	0.888371
C99	C	0.443634	0.000001	0.823854
C100	C	0.379123	-0.000003	0.888365
C101	C	0.443642	0.190086	0.633785
C102	C	0.379133	0.254594	0.633789
C103	C	0.443637	0.190082	0.823869
C104	C	0.379127	0.254589	0.888386
C105	C	0.823791	-0.190055	0.443679
C106	C	0.888301	-0.254562	0.379163
C107	C	0.823794	0.000025	0.443695
C108	C	0.888306	0.000029	0.379184
C109	C	0.823786	-0.190059	0.633763
C110	C	0.888295	-0.254568	0.633760
C111	C	0.348828	-0.037127	0.881539
C112	C	0.288221	-0.037145	0.942148
C113	C	0.257906	-0.000034	1.009583
C114	C	0.288207	0.037091	1.016407
C115	C	0.348817	0.037105	0.955798
C116	C	0.348839	0.322011	0.670911
C117	C	0.288234	0.382630	0.670912
C118	C	0.257921	0.375830	0.633794
C119	C	0.288221	0.308407	0.596667
C120	C	0.348829	0.247789	0.596662
C121	C	0.348831	0.247765	0.955804
C122	C	0.288225	0.308370	1.016430
C123	C	0.257912	0.375800	1.009636
C124	C	0.288214	0.382623	0.942210
C125	C	0.348823	0.322018	0.881586
C126	C	0.918605	-0.247738	0.311744
C127	C	0.979230	-0.308344	0.251118
C128	C	1.009545	-0.375773	0.257912
C129	C	0.979239	-0.382596	0.325338
C130	C	0.918620	-0.321991	0.385963
C131	C	0.918607	0.037148	0.386009
C132	C	0.979231	0.037149	0.325400
C133	C	1.009548	0.000036	0.257966
C134	C	0.979244	-0.037087	0.251141
C135	C	0.918625	-0.037092	0.311750
C136	C	0.918589	-0.247746	0.670885
C137	C	0.979194	-0.308353	0.670895
C138	C	1.009508	-0.375781	0.633776
C139	C	0.979208	-0.382602	0.596650
C140	C	0.918600	-0.321996	0.596644
H141	H	0.373500	-0.067349	0.701098
H142	H	0.373502	0.192866	0.961350
H143	H	1.058905	-0.425116	0.208542
H144	H	0.768399	0.302870	0.566442
O145	O	0.381489	0.077183	0.556632
H146	H	0.369845	0.118209	0.594117
O147	O	-0.114078	-0.077137	0.710924
H148	H	-0.180939	-0.039669	0.751961
O149	O	0.192532	0.441166	1.075026
H150	H	0.176555	0.425085	1.123046
H151	H	0.373513	0.327561	0.701137
H152	H	1.003899	-0.437510	0.566428
O153	O	0.255546	0.455346	0.710970
H154	H	0.286797	0.449884	0.736792
O155	O	0.633728	-0.109095	0.381554
H156	H	0.633724	-0.145595	0.350295
H157	H	0.263525	0.437532	0.936689
H158	H	0.499026	0.807126	0.701097
H159	H	0.768393	0.672454	0.566406
H160	H	0.373483	0.327584	0.826693
O161	O	0.255507	0.077116	1.089142
H162	H	0.227890	0.134164	1.095316
O163	O	-0.114047	0.077174	0.556612
H164	H	-0.180911	0.118201	0.594073
O165	O	0.192537	0.441213	0.633814
H166	H	0.176560	0.489232	0.665876
H167	H	0.373475	0.067340	0.961366
H168	H	0.893941	-0.327560	0.566409
O169	O	0.255539	0.301004	1.089149
H170	H	0.286791	0.243933	1.083682
H171	H	0.263531	0.302881	0.566446
H172	H	0.003905	-0.067335	0.701109
O173	O	0.381388	0.175075	0.556735
H174	H	0.350077	0.180539	0.530974
O175	O	0.885918	-0.175014	0.304407
H176	H	0.917190	-0.180462	0.247337
H177	H	0.893927	0.067374	0.440912
H178	H	0.893956	-0.067316	0.306183
O179	O	0.885890	-0.175023	0.710932
H180	H	0.917137	-0.180472	0.736755
O181	O	1.074920	0.000063	0.192606
H182	H	1.130165	-0.055199	0.160588
O183	O	0.479408	0.455357	0.710981
H184	H	0.491877	0.496364	0.704763
O185	O	0.633709	0.109125	0.011983
H186	H	0.689210	0.083890	0.011852
H187	H	0.499026	0.697158	0.701111
O188	O	1.011871	-0.300989	0.710938
H189	H	0.980616	-0.243918	0.736736
H190	H	1.003894	-0.302774	0.196223
H191	H	0.633722	-0.095224	0.263577
O192	O	1.011946	-0.077115	0.178407
H193	H	1.059182	-0.070865	0.137415
O194	O	0.633720	0.109130	0.255575
H195	H	0.633731	0.100305	0.208328
H196	H	1.003930	-0.437504	0.330862
H197	H	1.058859	-0.425125	0.633786
H198	H	0.893947	-0.327556	0.440856
H199	H	1.003894	0.067381	0.330970
H200	H	0.633707	0.095268	0.373556
O201	O	0.255547	-0.077189	0.934778
H202	H	0.188681	-0.039726	0.960627
H203	H	0.263527	-0.067341	0.701105
O204	O	0.479413	0.329363	0.710968
H205	H	0.427791	0.386428	0.736788
H206	H	0.263525	0.067354	0.566436
O207	O	0.633716	-0.109106	-0.114019
H208	H	0.633732	-0.145615	-0.082769
O209	O	0.011930	0.077167	0.556623
H210	H	-0.019321	0.102973	0.530809
H211	H	0.768401	0.192905	0.566457
H212	H	0.768397	0.562488	0.566423
O213	O	0.633714	-0.109102	0.011981
H214	H	0.633701	-0.145598	-0.019272
H215	H	0.633706	0.095247	-0.105996
H216	H	0.208553	-0.000050	1.058928
O217	O	0.381526	-0.077164	0.808810
H218	H	0.350279	-0.102987	0.814258
