data_functionalizedCrystal
_audit_creation_method	'MofGen! by Chris Wilmer'
_symmetry_space_group_name_H-M	'P1'
_symmetry_Int_Tables_number	1
_symmetry_cell_setting	triclinic
loop_
_symmetry_equiv_pos_as_xyz
  x,y,z
_cell_length_a	8.559649
_cell_length_b	12.837942
_cell_length_c	7.088929
_cell_angle_alpha	83.116986
_cell_angle_beta	95.325015
_cell_angle_gamma	82.303802
loop_
_atom_site_label
_atom_site_type_symbol
_atom_site_fract_x
_atom_site_fract_y
_atom_site_fract_z
O1	O	2.100237	-0.022929	-0.158957
O2	O	1.643086	0.029966	-0.158967
O3	O	1.861526	-0.146578	-0.158950
O4	O	1.881797	0.153615	-0.158973
O5	O	1.890711	-0.170219	0.159027
O6	O	1.672271	0.006325	0.159010
O7	O	2.129422	-0.046570	0.159021
Cu8	Cu	1.903512	-0.022281	0.188049
Cu9	Cu	1.868997	0.005677	-0.187996
O10	O	1.910982	0.129974	0.159004
C11	C	1.598759	0.022154	0.000020
C12	C	1.423195	0.034086	0.000017
C13	C	1.869270	-0.196474	0.000037
C14	C	1.848843	-0.309925	0.000034
C15	C	2.094400	-0.570430	-0.000001
C16	C	2.075215	-0.677028	-0.000004
C17	C	1.791288	-0.629721	0.000009
C18	C	1.810473	-0.523122	0.000013
C19	C	1.962034	-0.493482	0.000011
C20	C	1.981219	-0.386882	0.000028
C21	C	1.697292	-0.339576	0.000028
C22	C	1.678107	-0.446175	0.000024
C23	C	2.173749	-0.038758	0.000029
C24	C	2.349312	-0.050689	0.000020
C25	C	1.903238	0.179870	0.000012
C26	C	1.923664	0.293322	0.000003
N27	N	1.927799	-0.041947	0.452539
N28	N	1.844721	0.025334	-0.452486
H29	H	2.104628	-0.362752	0.000033
H30	H	2.217809	-0.546298	0.000016
H31	H	1.758619	0.095056	0.465862
C32	C	1.443758	-0.159726	-0.000068
C33	C	1.340416	-0.235538	-0.000113
C34	C	1.427370	-0.335993	-0.000222
H35	H	1.518495	-0.176379	0.110787
H36	H	1.498090	-0.159793	-0.110999
H37	H	1.286110	-0.235474	0.110806
H38	H	1.265679	-0.218920	-0.110961
H39	H	1.481702	-0.336060	-0.111153
H40	H	1.502104	-0.352635	0.110635
H41	H	1.357265	-0.387442	-0.000271
C42	C	2.219134	-0.760424	0.000086
C43	C	2.355967	-0.711647	0.000130
C44	C	2.488581	-0.788440	0.000235
H45	H	2.207594	-0.794786	-0.110771
H46	H	2.227828	-0.811235	0.111015
H47	H	2.347273	-0.660855	-0.110788
H48	H	2.367558	-0.677290	0.110978
H49	H	2.497276	-0.839250	0.111164
H50	H	2.477025	-0.822798	-0.110624
H51	H	2.581439	-0.755357	0.000283
C52	C	2.042494	-0.135060	0.561170
C53	C	1.996948	-0.230038	0.512594
C54	C	2.102574	-0.315833	0.612608
H55	H	2.040932	-0.133864	0.694705
H56	H	2.146610	-0.130035	0.528396
H57	H	1.892859	-0.235061	0.545381
H58	H	1.998519	-0.231269	0.379076
H59	H	2.206690	-0.310808	0.579834
H60	H	2.101004	-0.314626	0.746139
H61	H	2.071694	-0.380284	0.579651
H62	H	1.352129	0.115800	0.000000
H63	H	1.667891	-0.653873	-0.000010
H64	H	1.589511	-0.276913	0.000052
H65	H	1.554709	-0.470323	0.000018
