data_functionalizedCrystal
_audit_creation_method	'MofGen! by Chris Wilmer'
_symmetry_space_group_name_H-M	'P1'
_symmetry_Int_Tables_number	1
_symmetry_cell_setting	triclinic
loop_
_symmetry_equiv_pos_as_xyz
  x,y,z
_cell_length_a	23.532407
_cell_length_b	23.532407
_cell_length_c	22.610064
_cell_angle_alpha	90.002839
_cell_angle_beta	89.999397
_cell_angle_gamma	97.151322
loop_
_atom_site_label
_atom_site_type_symbol
_atom_site_fract_x
_atom_site_fract_y
_atom_site_fract_z
O1	O	0.069127	-0.755263	-0.049117
O2	O	0.402460	-0.421930	0.284217
O3	O	0.735794	-0.088597	0.617550
O4	O	0.079130	-0.589400	-0.049135
O5	O	0.412464	-0.256067	0.284198
O6	O	0.745797	0.077267	0.617532
O7	O	-0.008803	-0.677333	-0.049114
O8	O	0.324530	-0.344000	0.284219
O9	O	0.657864	-0.010667	0.617552
O10	O	0.157060	-0.667330	-0.049137
O11	O	0.490394	-0.333997	0.284196
O12	O	0.823727	-0.000664	0.617529
O13	O	-0.008790	-0.677318	0.049255
O14	O	0.324543	-0.343985	0.382588
O15	O	0.657876	-0.010651	0.715921
O16	O	0.079143	-0.589385	0.049234
O17	O	0.412476	-0.256051	0.382568
O18	O	0.745810	0.077282	0.715901
O19	O	0.069140	-0.755248	0.049252
O20	O	0.402473	-0.421915	0.382586
O21	O	0.735807	-0.088581	0.715919
Zn22	Zn	0.074144	-0.672314	0.064862
Zn23	Zn	0.407477	-0.338980	0.398195
Zn24	Zn	0.740810	-0.005647	0.731528
Zn25	Zn	0.074127	-0.672334	-0.064744
Zn26	Zn	0.407460	-0.339001	0.268589
Zn27	Zn	0.740793	-0.005668	0.601923
O28	O	0.157073	-0.667315	0.049232
O29	O	0.490407	-0.333981	0.382565
O30	O	0.823740	-0.000648	0.715899
C31	C	-0.030013	-0.677071	0.000072
C32	C	0.303321	-0.343738	0.333405
C33	C	0.636654	-0.010404	0.666738
C34	C	-0.093230	-0.676305	0.000076
C35	C	0.240104	-0.342972	0.333409
C36	C	0.573437	-0.009638	0.666743
C37	C	0.078882	-0.568176	0.000048
C38	C	0.412215	-0.234843	0.333381
C39	C	0.745549	0.098490	0.666714
C40	C	0.078116	-0.504959	0.000041
C41	C	0.411449	-0.171626	0.333374
C42	C	0.744783	0.161707	0.666708
C43	C	0.069388	-0.776472	0.000069
C44	C	0.402722	-0.443138	0.333402
C45	C	0.736055	-0.109805	0.666735
C46	C	0.070154	-0.839689	0.000071
C47	C	0.403487	-0.506355	0.333405
C48	C	0.736821	-0.173022	0.666738
C49	C	-0.492333	-0.723539	0.000049
C50	C	-0.158999	-0.390205	0.333382
C51	C	0.174334	-0.056872	0.666716
C52	C	-0.551733	-0.722827	0.000044
C53	C	-0.218400	-0.389494	0.333378
C54	C	0.114934	-0.056160	0.666711
O55	O	-0.588478	-0.766613	0.000027
O56	O	-0.255144	-0.433280	0.333361
O57	O	0.078189	-0.099946	0.666694
N58	N	-0.574359	-0.670551	0.000039
N59	N	-0.241026	-0.337217	0.333372
N60	N	0.092307	-0.003884	0.666706
C61	C	-0.537582	-0.618983	0.000032
C62	C	-0.204248	-0.285649	0.333366
C63	C	0.129085	0.047684	0.666699
O64	O	-0.562281	-0.574452	0.000027
O65	O	-0.228948	-0.241119	0.333360
O66	O	0.104385	0.092215	0.666693
C67	C	-0.478182	-0.619695	0.000033
C68	C	-0.144849	-0.286361	0.333366
C69	C	0.188484	0.046972	0.666699
C70	C	-0.455560	-0.671974	0.000044
C71	C	-0.122227	-0.338641	0.333377
C72	C	0.211107	-0.005308	0.666711
C73	C	-0.469710	-0.775814	0.000060
C74	C	-0.136376	-0.442481	0.333393
C75	C	0.196957	-0.109147	0.666726
C76	C	-0.410313	-0.776525	0.000065
C77	C	-0.076980	-0.443192	0.333399
C78	C	0.256353	-0.109859	0.666732
C79	C	-0.373540	-0.724961	0.000060
C80	C	-0.040207	-0.391628	0.333394
C81	C	0.293126	-0.058294	0.666727
C82	C	-0.396164	-0.672685	0.000050
C83	C	-0.062830	-0.339352	0.333383
C84	C	0.270503	-0.006019	0.666716
C85	C	-0.441406	-0.568127	0.000022
C86	C	-0.108073	-0.234794	0.333355
C87	C	0.225261	0.098540	0.666688
C88	C	-0.382004	-0.568844	0.000021
C89	C	-0.048670	-0.235510	0.333355
C90	C	0.284663	0.097823	0.666688
C91	C	-0.359381	-0.621123	0.000033
C92	C	-0.026048	-0.287790	0.333366
C93	C	0.307286	0.045543	0.666699
C94	C	-0.299995	-0.621832	0.000050
C95	C	0.033339	-0.288499	0.333384
C96	C	0.366672	0.044834	0.666717
N97	N	-0.277368	-0.674109	0.000056
N98	N	0.055965	-0.340775	0.333389
N99	N	0.389298	-0.007442	0.666722
C100	C	-0.314141	-0.725673	0.000061
C101	C	0.019192	-0.392340	0.333394
C102	C	0.352525	-0.059006	0.666727
C103	C	-0.662324	-0.617491	0.000031
C104	C	-0.328991	-0.284158	0.333364
C105	C	0.004343	0.049176	0.666697
C106	C	-0.721722	-0.616778	0.000034
C107	C	-0.388389	-0.283445	0.333368
C108	C	-0.055055	0.049888	0.666701
C109	C	-0.735869	-0.720623	0.000045
C110	C	-0.402536	-0.387290	0.333379
C111	C	-0.069203	-0.053957	0.666712
C112	C	-0.676470	-0.721335	0.000046
C113	C	-0.343137	-0.388002	0.333379
C114	C	-0.009804	-0.054669	0.666712
C115	C	-0.639698	-0.669767	0.000036
C116	C	-0.306365	-0.336434	0.333369
C117	C	0.026969	-0.003101	0.666702
C118	C	-0.189405	-0.727163	0.000073
C119	C	0.143929	-0.393829	0.333406
C120	C	0.477262	-0.060496	0.666740
C121	C	-0.130003	-0.727869	0.000081
C122	C	0.203331	-0.394536	0.333414
C123	C	0.536664	-0.061203	0.666748
C124	C	-0.115860	-0.624025	0.000067
C125	C	0.217473	-0.290692	0.333400
C126	C	0.550806	0.042642	0.666734
C127	C	-0.175257	-0.623318	0.000062
C128	C	0.158076	-0.289985	0.333395
C129	C	0.491409	0.043349	0.666729
C130	C	-0.212029	-0.674891	0.000063
C131	C	0.121305	-0.341558	0.333396
C132	C	0.454638	-0.008225	0.666730
O133	O	-0.263215	-0.578070	0.000065
O134	O	0.070118	-0.244736	0.333398
O135	O	0.403451	0.088597	0.666732
O136	O	-0.289433	-0.770196	0.000058
O137	O	0.043900	-0.436863	0.333392
O138	O	0.377233	-0.103529	0.666725
C139	C	0.178283	-0.667577	0.000045
C140	C	0.511616	-0.334244	0.333378
C141	C	0.844949	-0.000910	0.666711
C142	C	0.241500	-0.668343	0.000036
C143	C	0.574833	-0.335010	0.333370
C144	C	0.908167	-0.001676	0.666703
N145	N	0.074155	-0.672304	0.153314
N146	N	0.407488	-0.338971	0.486647
N147	N	0.740821	-0.005637	0.819981
C148	C	0.125350	-0.105856	0.000061
C149	C	0.458683	0.227477	0.333395
C150	C	0.792016	0.560810	0.666728
C151	C	0.124638	-0.046456	0.000065
C152	C	0.457971	0.286877	0.333398
C153	C	0.791305	0.620211	0.666732
O154	O	0.168424	-0.009711	0.000081
O155	O	0.501757	0.323622	0.333414
O156	O	0.835091	0.656955	0.666747
N157	N	0.072362	-0.023830	0.000071
N158	N	0.405695	0.309504	0.333405
N159	N	0.739028	0.642837	0.666738
C160	C	0.020794	-0.060607	0.000080
C161	C	0.354127	0.272726	0.333413
C162	C	0.687460	0.606059	0.666746
O163	O	-0.023737	-0.035908	0.000086
O164	O	0.309596	0.297426	0.333419
O165	O	0.642930	0.630759	0.666753
C166	C	0.021506	-0.120006	0.000080
C167	C	0.354839	0.213327	0.333414
C168	C	0.688172	0.546660	0.666747
C169	C	0.073785	-0.142629	0.000068
C170	C	0.407119	0.190704	0.333401
C171	C	0.740452	0.524038	0.666735
C172	C	0.177625	-0.128479	0.000050
C173	C	0.510958	0.204854	0.333383
C174	C	0.844292	0.538187	0.666716
C175	C	0.178336	-0.187876	0.000045
C176	C	0.511670	0.145458	0.333378
C177	C	0.845003	0.478791	0.666712
C178	C	0.126772	-0.224649	0.000052
C179	C	0.460105	0.108685	0.333385
C180	C	0.793439	0.442018	0.666718
C181	C	0.074497	-0.202025	0.000063
C182	C	0.407830	0.131308	0.333397
C183	C	0.741163	0.464641	0.666730
C184	C	-0.030062	-0.156783	0.000093
C185	C	0.303271	0.176550	0.333426
C186	C	0.636605	0.509884	0.666760
C187	C	-0.029345	-0.216185	0.000094
C188	C	0.303988	0.117148	0.333427
C189	C	0.637321	0.450481	0.666761
C190	C	0.022934	-0.238808	0.000082
C191	C	0.356268	0.094525	0.333415
C192	C	0.689601	0.427859	0.666748
C193	C	0.023643	-0.298194	0.000065
C194	C	0.356977	0.035139	0.333398
C195	C	0.690310	0.368472	0.666732
N196	N	0.075920	-0.320820	0.000059
N197	N	0.409253	0.012513	0.333392
N198	N	0.742586	0.345846	0.666726
C199	C	0.127484	-0.284048	0.000052
C200	C	0.460817	0.049286	0.333386
C201	C	0.794151	0.382619	0.666719
C202	C	0.019302	0.064135	0.000080
C203	C	0.352635	0.397468	0.333413
C204	C	0.685969	0.730802	0.666746
C205	C	0.018589	0.123533	0.000075
C206	C	0.351923	0.456866	0.333408
C207	C	0.685256	0.790200	0.666742
C208	C	0.122434	0.137680	0.000061
C209	C	0.455768	0.471014	0.333395
C210	C	0.789101	0.804347	0.666728
C211	C	0.123146	0.078281	0.000062
C212	C	0.456480	0.411615	0.333395
C213	C	0.789813	0.744948	0.666729
C214	C	0.071578	0.041509	0.000074
C215	C	0.404912	0.374842	0.333407
C216	C	0.738245	0.708176	0.666740
C217	C	0.128974	-0.408784	0.000042
C218	C	0.462307	-0.075451	0.333375
C219	C	0.795640	0.257882	0.666708
C220	C	0.129680	-0.468186	0.000034
C221	C	0.463014	-0.134853	0.333368
C222	C	0.796347	0.198480	0.666701
C223	C	0.025836	-0.482329	0.000051
C224	C	0.359169	-0.148995	0.333384
C225	C	0.692503	0.184338	0.666718
C226	C	0.025129	-0.422932	0.000055
C227	C	0.358462	-0.089598	0.333389
C228	C	0.691796	0.243735	0.666722
C229	C	0.076702	-0.386160	0.000052
C230	C	0.410036	-0.052827	0.333386
C231	C	0.743369	0.280506	0.666719
O232	O	-0.020119	-0.334974	0.000052
O233	O	0.313214	-0.001640	0.333385
O234	O	0.646547	0.331693	0.666719
O235	O	0.172007	-0.308755	0.000054
O236	O	0.505340	0.024578	0.333387
O237	O	0.838674	0.357911	0.666721
N238	N	0.074111	-0.672349	-0.153196
N239	N	0.407444	-0.339015	0.180137
N240	N	0.740778	-0.005682	0.513470
C241	C	0.035196	-0.711273	0.561965
C242	C	0.368529	-0.377940	0.895298
C243	C	0.701862	-0.044606	1.228631
C244	C	0.035192	-0.711276	0.623884
C245	C	0.368525	-0.377942	0.957218
C246	C	0.701858	-0.044609	1.290551
O247	O	0.002076	-0.744384	0.655911
O248	O	0.335409	-0.411051	0.989244
O249	O	0.668742	-0.077718	1.322578
N250	N	0.074115	-0.672334	0.654851
N251	N	0.407448	-0.339001	0.988185
N252	N	0.740781	-0.005667	1.321518
C253	C	0.113041	-0.633383	0.623895
C254	C	0.446374	-0.300049	0.957228
C255	C	0.779708	0.033284	1.290562
O256	O	0.146147	-0.600259	0.655920
O257	O	0.479481	-0.266926	0.989254
O258	O	0.812814	0.066407	1.322587
C259	C	0.113042	-0.633377	0.561976
C260	C	0.446375	-0.300044	0.895309
C261	C	0.779709	0.033289	1.228643
C262	C	0.074120	-0.672326	0.531013
C263	C	0.407453	-0.338992	0.864346
C264	C	0.740787	-0.005659	1.197679
C265	C	-0.003724	-0.750218	0.531001
C266	C	0.329610	-0.416884	0.864334
C267	C	0.662943	-0.083551	1.197668
C268	C	-0.003719	-0.750215	0.469085
C269	C	0.329615	-0.416882	0.802419
C270	C	0.662948	-0.083549	1.135752
C271	C	0.035206	-0.711268	0.438133
C272	C	0.368539	-0.377935	0.771467
C273	C	0.701872	-0.044601	1.104800
C274	C	0.074125	-0.672323	0.469097
C275	C	0.407458	-0.338990	0.802430
C276	C	0.740792	-0.005657	1.135764
C277	C	0.151965	-0.594424	0.531021
C278	C	0.485298	-0.261091	0.864354
C279	C	0.818631	0.072243	1.197688
C280	C	0.151962	-0.594422	0.469098
C281	C	0.485295	-0.261089	0.802431
C282	C	0.818629	0.072245	1.135765
C283	C	0.113040	-0.633370	0.438134
C284	C	0.446374	-0.300037	0.771468
C285	C	0.779707	0.033296	1.104801
C286	C	0.113054	-0.633374	0.376229
C287	C	0.446387	-0.300041	0.709563
C288	C	0.779721	0.033293	1.042896
N289	N	0.074131	-0.672316	0.345262
N290	N	0.407464	-0.338983	0.678596
N291	N	0.740798	-0.005649	1.011929
C292	C	0.035207	-0.711263	0.376214
C293	C	0.368540	-0.377930	0.709548
C294	C	0.701873	-0.044596	1.042881
C295	C	0.113035	-0.633396	0.753928
C296	C	0.446369	-0.300063	1.087262
C297	C	0.779702	0.033271	1.420595
C298	C	0.113037	-0.633403	0.815846
C299	C	0.446371	-0.300070	1.149179
C300	C	0.779704	0.033263	1.482513
C301	C	0.035187	-0.711296	0.815831
C302	C	0.368521	-0.377962	1.149165
C303	C	0.701854	-0.044629	1.482498
C304	C	0.035188	-0.711291	0.753913
C305	C	0.368521	-0.377957	1.087246
C306	C	0.701855	-0.044624	1.420579
C307	C	0.074112	-0.672338	0.722962
C308	C	0.407445	-0.339004	1.056295
C309	C	0.740779	-0.005671	1.389628
C310	C	0.035220	-0.711255	0.246187
C311	C	0.368554	-0.377922	0.579520
C312	C	0.701887	-0.044589	0.912854
C313	C	0.035230	-0.711251	0.184266
C314	C	0.368564	-0.377918	0.517599
C315	C	0.701897	-0.044584	0.850933
C316	C	0.113078	-0.633357	0.184286
C317	C	0.446412	-0.300023	0.517619
C318	C	0.779745	0.033310	0.850953
C319	C	0.113071	-0.633363	0.246202
C320	C	0.446404	-0.300029	0.579535
C321	C	0.779737	0.033304	0.912869
C322	C	0.074137	-0.672314	0.277151
C323	C	0.407470	-0.338981	0.610484
C324	C	0.740804	-0.005648	0.943818
O325	O	0.146152	-0.600281	0.344163
O326	O	0.479485	-0.266948	0.677497
O327	O	0.812818	0.066386	1.010830
O328	O	0.002101	-0.744376	0.344182
O329	O	0.335434	-0.411042	0.677515
O330	O	0.668767	-0.077709	1.010848
H331	H	-0.111587	-0.770443	0.000092
H332	H	0.221746	-0.437110	0.333425
H333	H	0.555080	-0.103777	0.666759
H334	H	-0.740136	-0.574207	0.000035
H335	H	-0.406802	-0.240874	0.333369
H336	H	-0.073469	0.092460	0.666702
O337	O	-0.342343	-0.513221	0.000019
O338	O	-0.009010	-0.179888	0.333353
O339	O	0.324324	0.153445	0.666686
H340	H	-0.350352	-0.488192	-0.040076
H341	H	-0.017019	-0.154859	0.293258
H342	H	0.316314	0.178475	0.626591
O343	O	-0.084967	-0.255847	0.000110
O344	O	0.248366	0.077486	0.333444
O345	O	0.581700	0.410820	0.666777
H346	H	-0.087136	-0.283253	-0.039981
H347	H	0.246197	0.050080	0.293352
H348	H	0.579531	0.383413	0.626686
O349	O	0.155058	-0.591352	0.150892
O350	O	0.488392	-0.258019	0.484226
O351	O	0.821725	0.075314	0.817559
H352	H	0.182128	-0.564271	0.182822
H353	H	0.515461	-0.230938	0.516155
H354	H	0.848794	0.102396	0.849489
H355	H	0.144770	-0.601653	0.271413
H356	H	0.478103	-0.268320	0.604746
H357	H	0.811437	0.065014	0.938080
O358	O	-0.086454	-0.132398	0.000114
O359	O	0.246880	0.200935	0.333447
O360	O	0.580213	0.534268	0.666780
H361	H	-0.089285	-0.105681	-0.039979
H362	H	0.244049	0.227653	0.293354
H363	H	0.577382	0.560986	0.626687
H364	H	-0.022693	0.034198	0.000084
H365	H	0.310640	0.367531	0.333417
H366	H	0.643973	0.700864	0.666751
H367	H	-0.765821	-0.762610	0.000047
H368	H	-0.432488	-0.429276	0.333380
H369	H	-0.099154	-0.095943	0.666714
H370	H	-0.658056	-0.763906	0.000054
H371	H	-0.324722	-0.430573	0.333388
H372	H	0.008611	-0.097239	0.666721
O373	O	-0.509364	-0.831437	0.000068
O374	O	-0.176031	-0.498104	0.333401
O375	O	0.157303	-0.164770	0.666735
H376	H	-0.554472	-0.822171	0.000064
H377	H	-0.221139	-0.488838	0.333397
H378	H	0.112194	-0.155504	0.666730
H379	H	-0.035423	-0.781933	0.556197
H380	H	0.297910	-0.448600	0.889530
H381	H	0.631244	-0.115266	1.222863
O382	O	-0.385915	-0.832912	0.000071
O383	O	-0.052582	-0.499579	0.333405
O384	O	0.280751	-0.166245	0.666738
H385	H	-0.359189	-0.835723	-0.040020
H386	H	-0.025855	-0.502390	0.293313
H387	H	0.307478	-0.169057	0.626646
O388	O	-0.229059	-0.782788	0.000085
O389	O	0.104274	-0.449454	0.333418
O390	O	0.437607	-0.116121	0.666751
H391	H	-0.221045	-0.807834	-0.039999
H392	H	0.112289	-0.474501	0.293334
H393	H	0.445622	-0.141167	0.626667
H394	H	0.165717	0.059867	0.000055
H395	H	0.499050	0.393200	0.333389
H396	H	0.832384	0.726533	0.666722
O397	O	-0.622662	-0.561868	0.000036
O398	O	-0.289329	-0.228535	0.333369
O399	O	0.044004	0.104798	0.666702
H400	H	-0.648380	-0.525402	0.000039
H401	H	-0.315047	-0.192069	0.333373
H402	H	0.018287	0.141265	0.666706
H403	H	0.172255	-0.486602	0.000024
H404	H	0.505588	-0.153269	0.333357
H405	H	0.838921	0.180065	0.666691
O406	O	-0.031256	-0.398525	0.000066
O407	O	0.302077	-0.065192	0.333400
O408	O	0.635411	0.268141	0.666733
H409	H	-0.066992	-0.434078	0.000073
H410	H	0.266341	-0.100744	0.333406
H411	H	0.599675	0.232589	0.666739
O412	O	-0.465798	-0.511739	0.000007
O413	O	-0.132465	-0.178406	0.333341
O414	O	0.200869	0.154927	0.666674
H415	H	-0.430240	-0.476009	-0.000003
H416	H	-0.096907	-0.142676	0.333330
H417	H	0.236427	0.190657	0.666663
H418	H	0.170970	-0.378851	0.000041
H419	H	0.504303	-0.045518	0.333375
H420	H	0.837637	0.287815	0.666708
H421	H	0.183658	-0.562709	0.556223
H422	H	0.516992	-0.229375	0.889556
H423	H	0.850325	0.103958	1.222889
O424	O	-0.006797	-0.753293	0.720517
O425	O	0.326537	-0.419959	1.053850
O426	O	0.659870	-0.086626	1.387183
H427	H	-0.033863	-0.780371	0.752448
H428	H	0.299470	-0.447038	1.085782
H429	H	0.632803	-0.113704	1.419115
H430	H	-0.193677	-0.580748	0.000069
H431	H	0.139656	-0.247414	0.333403
H432	H	0.472989	0.085919	0.666736
H433	H	-0.085909	-0.582043	0.000065
H434	H	0.247424	-0.248709	0.333398
H435	H	0.580757	0.084624	0.666732
H436	H	0.220908	-0.206289	0.000035
H437	H	0.554241	0.127044	0.333368
H438	H	0.887574	0.460378	0.666702
H439	H	0.219617	-0.098544	0.000046
H440	H	0.552951	0.234789	0.333380
H441	H	0.886284	0.568123	0.666713
O442	O	0.178054	0.177348	0.000064
O443	O	0.511387	0.510681	0.333397
O444	O	0.844720	0.844014	0.666731
H445	H	0.168771	0.222451	0.000074
H446	H	0.502104	0.555784	0.333408
H447	H	0.835437	0.889117	0.666741
H448	H	-0.023982	0.141947	0.000076
H449	H	0.309352	0.475280	0.333409
H450	H	0.642685	0.808613	0.666742
H451	H	-0.016146	-0.512280	0.000054
H452	H	0.317187	-0.178946	0.333388
H453	H	0.650520	0.154387	0.666721
H454	H	0.144737	-0.601694	0.841052
H455	H	0.478070	-0.268361	1.174386
H456	H	0.811404	0.064973	1.507719
H457	H	0.003535	-0.742969	0.159057
H458	H	0.336869	-0.409636	0.492391
H459	H	0.670202	-0.076303	0.825724
O460	O	-0.006764	-0.753273	0.279564
O461	O	0.326569	-0.419939	0.612898
O462	O	0.659903	-0.086606	0.946231
H463	H	-0.033817	-0.780355	0.247623
H464	H	0.299516	-0.447021	0.580956
H465	H	0.632849	-0.113688	0.914289
H466	H	-0.035414	-0.781929	0.443878
H467	H	0.297920	-0.448595	0.777212
H468	H	0.631253	-0.115262	1.110545
H469	H	0.003492	-0.743008	0.841044
H470	H	0.336825	-0.409675	1.174377
H471	H	0.670159	-0.076341	1.507710
O472	O	0.155028	-0.591388	0.720546
O473	O	0.488361	-0.258055	1.053879
O474	O	0.821694	0.075279	1.387213
H475	H	0.182094	-0.564317	0.752486
H476	H	0.515427	-0.230984	1.085819
H477	H	0.848761	0.102349	1.419153
O478	O	0.193948	-0.552411	0.435714
O479	O	0.527281	-0.219077	0.769047
O480	O	0.860615	0.114256	1.102380
H481	H	0.221013	-0.525335	0.467651
H482	H	0.554346	-0.192002	0.800985
H483	H	0.887679	0.141332	1.134318
