data_functionalizedCrystal
_audit_creation_method	'MofGen! by Chris Wilmer'
_symmetry_space_group_name_H-M	'P1'
_symmetry_Int_Tables_number	1
_symmetry_cell_setting	triclinic
loop_
_symmetry_equiv_pos_as_xyz
  x,y,z
_cell_length_a	18.215407
_cell_length_b	15.298670
_cell_length_c	18.215399
_cell_angle_alpha	99.702305
_cell_angle_beta	89.985640
_cell_angle_gamma	99.662669
loop_
_atom_site_label
_atom_site_type_symbol
_atom_site_fract_x
_atom_site_fract_y
_atom_site_fract_z
Zn1	Zn	1.175788	0.359196	-0.365394
Zn2	Zn	1.509121	0.692530	-0.032060
Zn3	Zn	1.842454	1.025863	0.301273
Zn4	Zn	1.197013	0.510066	-0.221043
Zn5	Zn	1.530347	0.843400	0.112290
Zn6	Zn	1.863680	1.176733	0.445624
Zn7	Zn	1.052731	0.359224	-0.242342
Zn8	Zn	1.386064	0.692558	0.090991
Zn9	Zn	1.719397	1.025891	0.424324
Zn10	Zn	1.073988	0.510002	-0.344082
Zn11	Zn	1.407321	0.843335	-0.010749
Zn12	Zn	1.740655	1.176669	0.322584
O13	O	1.124880	0.434622	-0.293215
O14	O	1.458213	0.767956	0.040118
O15	O	1.791547	1.101289	0.373451
O16	O	1.281590	0.379225	-0.346250
O17	O	1.614923	0.712558	-0.012917
O18	O	1.948256	1.045892	0.320417
O19	O	1.177861	0.490096	-0.120879
O20	O	1.511194	0.823429	0.212455
O21	O	1.844528	1.156762	0.545788
O22	O	1.051275	0.232980	-0.276498
O23	O	1.384609	0.566313	0.056836
O24	O	1.717942	0.899647	0.390169
O25	O	1.297184	0.490069	-0.240197
O26	O	1.630518	0.823402	0.093137
O27	O	1.963851	1.156735	0.426470
O28	O	1.141685	0.232960	-0.366903
O29	O	1.475018	0.566293	-0.033570
O30	O	1.808351	0.899626	0.299764
O31	O	1.071857	0.379273	-0.136527
O32	O	1.405190	0.712606	0.196806
O33	O	1.738524	1.045939	0.530140
O34	O	0.952564	0.379210	-0.255833
O35	O	1.285897	0.712543	0.077500
O36	O	1.619231	1.045877	0.410833
O37	O	1.087505	0.489959	-0.449899
O38	O	1.420838	0.823292	-0.116566
O39	O	1.754172	1.156625	0.216768
O40	O	0.968182	0.489986	-0.330581
O41	O	1.301515	0.823319	0.002752
O42	O	1.634848	1.156652	0.336085
O43	O	1.162297	0.379162	-0.465556
O44	O	1.495630	0.712496	-0.132223
O45	O	1.828964	1.045829	0.201110
O46	O	1.198473	0.636298	-0.219532
O47	O	1.531806	0.969632	0.113801
O48	O	1.865140	1.302965	0.447135
O49	O	1.108087	0.636251	-0.309928
O50	O	1.441420	0.969584	0.023405
O51	O	1.774753	1.302918	0.356738
C52	C	0.933670	0.434595	-0.293206
C53	C	1.267003	0.767928	0.040127
C54	C	1.600336	1.101261	0.373460
C55	C	0.851872	0.434604	-0.293217
C56	C	1.185206	0.767938	0.040116
C57	C	1.518539	1.101271	0.373450
C58	C	0.655574	0.377007	-0.348497
C59	C	0.988907	0.710340	-0.015163
C60	C	1.322241	1.043674	0.318170
C61	C	0.578716	0.377015	-0.348498
C62	C	0.912050	0.710348	-0.015165
C63	C	1.245383	1.043681	0.318169
C64	C	0.594941	0.492263	-0.237943
C65	C	0.928275	0.825596	0.095390
C66	C	1.261608	1.158930	0.428723
C67	C	0.671797	0.492250	-0.237940
C68	C	1.005130	0.825583	0.095394
C69	C	1.338464	1.158917	0.428727
C70	C	0.702111	0.434623	-0.293220
C71	C	1.035445	0.767957	0.040113
C72	C	1.368778	1.101290	0.373446
C73	C	0.548398	0.434644	-0.293225
C74	C	0.881732	0.767977	0.040108
C75	C	1.215065	1.101311	0.373441
C76	C	0.465066	0.434653	-0.293226
C77	C	0.798399	0.767986	0.040107
C78	C	1.131733	1.101320	0.373440
C79	C	0.785449	0.434613	-0.293219
C80	C	1.118782	0.767946	0.040115
C81	C	1.452116	1.101280	0.373448
C82	C	1.157910	0.669008	-0.260123
C83	C	1.491243	1.002341	0.073211
C84	C	1.824577	1.335674	0.406544
C85	C	1.172108	0.769279	-0.245990
C86	C	1.505441	1.102612	0.087343
C87	C	1.838774	1.435945	0.420677
C88	C	1.023759	1.051953	-0.394244
C89	C	1.357093	1.385286	-0.060911
C90	C	1.690426	1.718620	0.272423
C91	C	1.010422	0.957743	-0.407527
C92	C	1.343755	1.291077	-0.074194
C93	C	1.677088	1.624410	0.259139
C94	C	1.050842	0.910622	-0.367144
C95	C	1.384175	1.243956	-0.033811
C96	C	1.717508	1.577289	0.299523
C97	C	1.104602	0.957721	-0.313475
C98	C	1.437936	1.291054	0.019858
C99	C	1.771269	1.624387	0.353191
C100	C	1.117945	1.051939	-0.300194
C101	C	1.451279	1.385273	0.033139
C102	C	1.784612	1.718606	0.366472
C103	C	1.145028	0.910609	-0.273095
C104	C	1.478361	1.243942	0.060239
C105	C	1.811694	1.577276	0.393572
C106	C	1.198788	0.957707	-0.219426
C107	C	1.532122	1.291040	0.113908
C108	C	1.865455	1.624374	0.447241
C109	C	1.212128	1.051916	-0.206147
C110	C	1.545462	1.385250	0.127186
C111	C	1.878795	1.718583	0.460520
C112	C	1.171708	1.099037	-0.246530
C113	C	1.505042	1.432371	0.086803
C114	C	1.838375	1.765704	0.420136
C115	C	1.131685	0.816390	-0.286375
C116	C	1.465018	1.149723	0.046958
C117	C	1.798351	1.483057	0.380291
C118	C	1.225871	0.816377	-0.192326
C119	C	1.559204	1.149710	0.141007
C120	C	1.892537	1.483043	0.474341
C121	C	1.239208	0.910586	-0.179042
C122	C	1.572542	1.243919	0.154291
C123	C	1.905875	1.577253	0.487624
C124	C	1.316837	0.434651	-0.293225
C125	C	1.650170	0.767984	0.040109
C126	C	1.983504	1.101317	0.373442
C127	C	1.398637	0.434663	-0.293229
C128	C	1.731971	0.767996	0.040105
C129	C	2.065304	1.101330	0.373438
C130	C	1.124905	0.434550	-0.485179
C131	C	1.458238	0.767884	-0.151845
C132	C	1.791571	1.101217	0.181488
C133	C	1.124915	0.434520	-0.566982
C134	C	1.458248	0.767853	-0.233648
C135	C	1.791582	1.101186	0.099685
C136	C	1.091717	1.199322	-0.326444
C137	C	1.425050	1.532655	0.006889
C138	C	1.758383	1.865989	0.340223
C139	C	1.077522	1.099051	-0.340580
C140	C	1.410856	1.432384	-0.007247
C141	C	1.744189	1.765718	0.326087
C142	C	1.069753	0.376775	-0.763330
C143	C	1.403086	0.710108	-0.429997
C144	C	1.736420	1.043442	-0.096664
C145	C	1.069763	0.376757	-0.840192
C146	C	1.403097	0.710090	-0.506858
C147	C	1.736430	1.043424	-0.173525
C148	C	1.180150	0.492156	-0.823886
C149	C	1.513483	0.825490	-0.490553
C150	C	1.846816	1.158823	-0.157220
C151	C	1.180136	0.492178	-0.747026
C152	C	1.513469	0.825512	-0.413693
C153	C	1.846803	1.158845	-0.080359
C154	C	1.124938	0.434483	-0.716751
C155	C	1.458271	0.767816	-0.383417
C156	C	1.791605	1.101149	-0.050084
C157	C	1.124962	0.434442	-0.870472
C158	C	1.458295	0.767776	-0.537139
C159	C	1.791629	1.101109	-0.203806
C160	C	1.124973	0.434423	-0.953809
C161	C	1.458307	0.767757	-0.620475
C162	C	1.791640	1.101090	-0.287142
C163	C	1.124925	0.434503	-0.633409
C164	C	1.458259	0.767836	-0.300075
C165	C	1.791592	1.101170	0.033258
C166	C	1.124889	0.434629	-0.102008
C167	C	1.458222	0.767962	0.231325
C168	C	1.791555	1.101296	0.564659
C169	C	1.124985	0.434406	-0.020241
C170	C	1.458318	0.767739	0.313092
C171	C	1.791652	1.101072	0.646425
H172	H	0.709690	0.539169	-0.192923
H173	H	1.043023	0.872502	0.140411
H174	H	1.376356	1.205836	0.473744
C175	C	1.240858	0.555648	-0.695787
C176	C	1.574191	0.888981	-0.362454
C177	C	1.907524	1.222315	-0.029120
N178	N	1.286595	0.603447	-0.657195
N179	N	1.619928	0.936780	-0.323861
N180	N	1.953261	1.270114	0.009472
H181	H	1.024807	0.329796	-0.738683
H182	H	1.358141	0.663129	-0.405350
H183	H	1.691474	0.996462	-0.072016
H184	H	0.570250	0.539181	-0.192937
H185	H	0.903583	0.872515	0.140397
H186	H	1.236916	1.205848	0.473730
C187	C	1.072552	0.764593	-0.345413
C188	C	1.405886	1.097927	-0.012080
C189	C	1.739219	1.431260	0.321254
N190	N	1.028011	0.725581	-0.389885
N191	N	1.361344	1.058914	-0.056551
N192	N	1.694677	1.392247	0.276782
H193	H	1.225090	0.539130	-0.848546
H194	H	1.558424	0.872463	-0.515213
H195	H	1.891757	1.205796	-0.181880
H196	H	0.540828	0.330096	-0.393509
H197	H	0.874161	0.663430	-0.060175
H198	H	1.207495	0.996763	0.273158
H199	H	0.680253	0.330081	-0.393508
H200	H	1.013586	0.663414	-0.060174
H201	H	1.346920	0.996748	0.273159
H202	H	1.039979	0.833913	-0.377963
H203	H	1.373312	1.167246	-0.044629
H204	H	1.706645	1.500579	0.288704
C205	C	0.979303	1.103792	-0.438658
C206	C	1.312636	1.437125	-0.105325
C207	C	1.645970	1.770458	0.228008
N208	N	0.945815	1.142838	-0.472113
N209	N	1.279148	1.476171	-0.138780
N210	N	1.612481	1.809505	0.194554
H211	H	0.966651	0.919400	-0.451225
H212	H	1.299984	1.252733	-0.117891
H213	H	1.633318	1.586066	0.215442
C214	C	1.186373	1.202674	-0.231917
C215	C	1.519706	1.536008	0.101417
C216	C	1.853039	1.869341	0.434750
N217	N	1.197415	1.280735	-0.220910
N218	N	1.530748	1.614068	0.112423
N219	N	1.864082	1.947402	0.445756
H220	H	1.255909	1.090261	-0.162452
H221	H	1.589243	1.423594	0.170882
H222	H	1.922576	1.756928	0.504215
H223	H	1.024826	0.329766	-0.878114
H224	H	1.358159	0.663100	-0.544781
H225	H	1.691492	0.996433	-0.211448
H226	H	1.282981	0.948947	-0.135345
H227	H	1.616315	1.282280	0.197988
H228	H	1.949648	1.615613	0.531322
H229	H	1.258786	0.778011	-0.159444
H230	H	1.592119	1.111345	0.173890
H231	H	1.925452	1.444678	0.507223
