data_functionalizedCrystal
_audit_creation_method	'MofGen! by Chris Wilmer'
_symmetry_space_group_name_H-M	'P1'
_symmetry_Int_Tables_number	1
_symmetry_cell_setting	triclinic
loop_
_symmetry_equiv_pos_as_xyz
  x,y,z
_cell_length_a	14.908558
_cell_length_b	12.827892
_cell_length_c	12.827885
_cell_angle_alpha	90.031912
_cell_angle_beta	86.686119
_cell_angle_gamma	93.279629
loop_
_atom_site_label
_atom_site_type_symbol
_atom_site_fract_x
_atom_site_fract_y
_atom_site_fract_z
Zn1	Zn	1.379203	0.508332	-0.682897
Zn2	Zn	1.379086	0.683102	-0.508143
Zn3	Zn	1.228334	0.498281	-0.498100
Zn4	Zn	1.228296	0.672928	-0.672777
O5	O	1.303730	0.590661	-0.590479
O6	O	1.505433	0.539980	-0.668153
O7	O	1.359055	0.658637	-0.360572
O8	O	1.248412	0.353383	-0.522645
O9	O	1.505346	0.668383	-0.539762
O10	O	1.359255	0.360767	-0.658415
O11	O	1.248298	0.522850	-0.353193
O12	O	1.102084	0.512984	-0.512833
O13	O	1.248348	0.651042	-0.820358
O14	O	1.102056	0.641296	-0.641168
O15	O	1.359218	0.530115	-0.827793
O16	O	1.359018	0.827984	-0.529950
O17	O	1.248234	0.820509	-0.650906
C18	C	1.069336	0.574946	-0.574813
C19	C	0.969062	0.568248	-0.568136
C20	C	0.827717	0.491906	-0.492017
C21	C	0.921934	0.498193	-0.498287
C22	C	0.921966	0.632018	-0.631722
C23	C	0.827749	0.625730	-0.625453
C24	C	0.780628	0.555673	-0.555597
C25	C	0.686409	0.549391	-0.549323
C26	C	0.686442	0.683210	-0.682763
C27	C	0.780659	0.689498	-0.689032
C28	C	1.303634	0.862164	-0.590444
C29	C	1.303675	0.978320	-0.590470
C30	C	1.358491	1.033674	-0.657706
C31	C	1.358535	1.153727	-0.657734
C32	C	1.539039	0.606438	-0.606207
C33	C	1.639313	0.613161	-0.612909
C34	C	1.303792	0.590565	-0.863054
C35	C	1.303818	0.590524	-0.979209
C36	C	1.303814	1.318096	-0.590528
C37	C	1.303756	1.201939	-0.590520
C38	C	1.249030	0.523321	-1.027343
C39	C	1.249056	0.523277	-1.147395
C40	C	1.303720	0.590685	-0.318968
C41	C	1.303868	0.590443	-0.202826
H42	H	0.819038	0.746534	-0.745909
O43	O	1.186874	0.447144	-0.964208
H44	H	1.116047	0.460293	-0.980350
H45	H	1.256826	1.154358	-0.532950
O46	O	1.241556	1.033275	-0.514242
H47	H	1.170716	1.007710	-0.527342
H48	H	0.960347	0.689051	-0.688600
O49	O	0.635655	0.751992	-0.751349
H50	H	0.562223	0.735849	-0.735260
H51	H	1.405469	1.201316	-0.715294
H52	H	0.648045	0.492346	-0.492443
H53	H	1.405387	0.992187	-0.715253
H54	H	1.202154	0.465738	-1.188805
H55	H	1.350780	0.647977	-1.161424
O56	O	1.365973	0.666710	-1.042334
H57	H	1.436799	0.653575	-1.026179
O58	O	0.776873	0.416366	-0.416672
H59	H	0.794964	0.335570	-0.435931
O60	O	0.972728	0.429433	-0.429698
H61	H	0.924130	0.379674	-0.380063
