data_functionalizedCrystal
_audit_creation_method	'MofGen! by Chris Wilmer'
_symmetry_space_group_name_H-M	'P1'
_symmetry_Int_Tables_number	1
_symmetry_cell_setting	triclinic
loop_
_symmetry_equiv_pos_as_xyz
  x,y,z
_cell_length_a	13.596369
_cell_length_b	10.654550
_cell_length_c	10.654558
_cell_angle_alpha	95.513436
_cell_angle_beta	90.005039
_cell_angle_gamma	89.991165
loop_
_atom_site_label
_atom_site_type_symbol
_atom_site_fract_x
_atom_site_fract_y
_atom_site_fract_z
O1	O	0.081870	-1.667848	0.176400
O2	O	0.081854	-1.302370	0.193206
O3	O	0.081858	-1.493506	0.002065
O4	O	0.081866	-1.476711	0.367542
O5	O	-0.081725	-1.493487	0.002054
O6	O	-0.081729	-1.302350	0.193196
O7	O	-0.081713	-1.667828	0.176390
Zn8	Zn	-0.107693	-1.485086	0.184791
Zn9	Zn	0.107835	-1.485112	0.184805
O10	O	-0.081717	-1.476692	0.367531
C11	C	0.000061	-1.255562	0.191967
C12	C	0.000055	-1.116119	0.188275
N13	N	-0.254785	-1.485078	0.184781
C14	C	0.000068	-1.492261	-0.044738
C15	C	0.000071	-1.488565	-0.184181
C16	C	-0.656076	-1.485110	0.184806
C17	C	-0.544424	-1.485097	0.184803
C18	C	-0.455434	-1.485095	0.184795
C19	C	-0.343775	-1.485081	0.184790
N20	N	0.254926	-1.485130	0.184805
C21	C	0.000083	-1.714636	0.177629
C22	C	0.000096	-1.854079	0.181321
C23	C	0.000071	-1.036636	0.300816
C24	C	0.000088	-0.905615	0.297340
C25	C	0.000076	-0.933572	0.068771
C26	C	0.000052	-1.064590	0.072249
C27	C	0.000074	-1.088164	0.416843
C28	C	0.000092	-1.008681	0.529393
C29	C	0.000109	-0.877660	0.525916
C30	C	0.000108	-0.826123	0.409889
C31	C	-0.089097	-1.486816	-0.249700
C32	C	-0.089093	-1.483354	-0.380723
C33	C	0.089254	-1.483386	-0.380695
C34	C	0.089249	-1.486857	-0.249676
C35	C	-0.178275	-1.488524	-0.184206
C36	C	-0.267450	-1.486773	-0.249725
C37	C	-0.267446	-1.483311	-0.380747
C38	C	-0.178268	-1.481600	-0.446251
C39	C	0.000076	-1.477937	0.414334
C40	C	0.000079	-1.481633	0.553777
H41	H	0.000084	-1.050651	0.623858
H42	H	0.000106	-0.719435	0.407068
H43	H	-0.340056	-1.488177	-0.196384
C44	C	0.000089	-0.876883	-0.058845
H45	H	0.000116	-0.787469	-0.044797
H46	H	-0.056959	-0.904065	-0.105243
H47	H	0.057138	-0.904128	-0.105221
C48	C	0.187331	-1.488780	-0.177600
H49	H	0.240443	-1.487248	-0.235367
H50	H	0.191034	-1.563243	-0.135427
H51	H	0.191033	-1.417017	-0.117550
H52	H	0.000065	-1.194847	0.419686
C53	C	0.000047	-1.152026	-0.051543
H54	H	0.000066	-1.102575	-0.121142
H55	H	-0.057004	-1.203695	-0.054945
H56	H	0.057093	-1.203737	-0.054923
H57	H	-0.178272	-1.478792	-0.552940
H58	H	0.161859	-1.481991	-0.434038
H59	H	-0.340057	-1.481898	-0.434091
C60	C	0.000127	-0.790232	0.649713
H61	H	0.000133	-0.839689	0.719307
H62	H	-0.056908	-0.738511	0.653114
H63	H	0.057189	-0.738570	0.653103
H64	H	-0.178288	-1.491338	-0.077520
