data_functionalizedCrystal
_audit_creation_method	'MofGen! by Chris Wilmer'
_symmetry_space_group_name_H-M	'P1'
_symmetry_Int_Tables_number	1
_symmetry_cell_setting	triclinic
loop_
_symmetry_equiv_pos_as_xyz
  x,y,z
_cell_length_a	12.759401
_cell_length_b	21.295417
_cell_length_c	12.759393
_cell_angle_alpha	89.961877
_cell_angle_beta	89.981433
_cell_angle_gamma	90.028746
loop_
_atom_site_label
_atom_site_type_symbol
_atom_site_fract_x
_atom_site_fract_y
_atom_site_fract_z
Zn1	Zn	1.606146	-0.250588	-0.593935
Zn2	Zn	1.605994	-0.355872	-0.418235
Zn3	Zn	1.430448	-0.250619	-0.418275
Zn4	Zn	1.430390	-0.355822	-0.593877
O5	O	1.518245	-0.303225	-0.506081
O6	O	1.753147	-0.264563	-0.570637
O7	O	1.582668	-0.341944	-0.271219
O8	O	1.453842	-0.162526	-0.441617
O9	O	1.753035	-0.341914	-0.441551
O10	O	1.582927	-0.162503	-0.570675
O11	O	1.453695	-0.264615	-0.271248
O12	O	1.283419	-0.264566	-0.441560
O13	O	1.453744	-0.341828	-0.740906
O14	O	1.283377	-0.341858	-0.570574
O15	O	1.582871	-0.264514	-0.740949
O16	O	1.582612	-0.443955	-0.441494
O17	O	1.453597	-0.443918	-0.570536
C18	C	1.245277	-0.303210	-0.506066
C19	C	1.128501	-0.303219	-0.506085
C20	C	1.073690	-0.263018	-0.573404
C21	C	0.963966	-0.263030	-0.573410
C22	C	0.963873	-0.343450	-0.438776
C23	C	1.073595	-0.343434	-0.438765
C24	C	1.073742	-0.216591	-0.651137
C25	C	0.964018	-0.216603	-0.651144
C26	C	1.518111	-0.466777	-0.506027
C27	C	1.518150	-0.536745	-0.506040
C28	C	1.585325	-0.569543	-0.573288
C29	C	1.585362	-0.635285	-0.573314
C30	C	1.518235	-0.668227	-0.506073
C31	C	1.451046	-0.635422	-0.438820
C32	C	1.451003	-0.569681	-0.438803
N33	N	1.510296	-0.771497	-0.414126
N34	N	1.510342	-0.833948	-0.414145
C35	C	1.518357	-0.866302	-0.506120
N36	N	1.526345	-0.833846	-0.598078
N37	N	1.526303	-0.771388	-0.598058
C38	C	1.518273	-0.739513	-0.506084
C39	C	1.585577	-0.970385	-0.573402
C40	C	1.585607	-1.036129	-0.573430
C41	C	1.451296	-1.036265	-0.438927
C42	C	1.451260	-0.970522	-0.438908
C43	C	1.518407	-0.937586	-0.506145
C44	C	1.792278	-0.303241	-0.506096
C45	C	1.909054	-0.303247	-0.506102
C46	C	1.518318	-0.303162	-0.780114
C47	C	1.518350	-0.303135	-0.896891
C48	C	1.518408	-0.139035	-0.506157
C49	C	1.518477	-0.069067	-0.506189
C50	C	1.585595	-0.262873	-0.951777
C51	C	1.585620	-0.262850	-1.061501
C52	C	1.451151	-0.343356	-1.061443
C53	C	1.451122	-0.343375	-0.951721
C54	C	1.663233	-0.216396	-0.951811
C55	C	1.663258	-0.216373	-1.061535
C56	C	1.518232	-0.303243	-0.233113
C57	C	1.518404	-0.303093	-0.116337
H58	H	0.919156	-0.376192	-0.383966
C59	C	1.377118	-0.387651	-0.891359
C60	C	1.294638	-0.360362	-0.815963
C61	C	1.220618	-0.404635	-0.755607
C62	C	1.229079	-0.476197	-0.770647
C63	C	1.311562	-0.503489	-0.846046
C64	C	1.385582	-0.459216	-0.906402
H65	H	1.288372	-0.307385	-0.804827
H66	H	1.159559	-0.384431	-0.699792
H67	H	1.174285	-0.508970	-0.725968
H68	H	1.317828	-0.556466	-0.857182
H69	H	1.446642	-0.479420	-0.962217
H70	H	0.929997	-0.170271	-0.622153
C71	C	1.633847	-0.150541	-0.911614
C72	C	1.711088	-0.113678	-0.842258
C73	C	1.681701	-0.047826	-0.802061
C74	C	1.575074	-0.018837	-0.831220
C75	C	1.497826	-0.055699	-0.900580
C76	C	1.527212	-0.121552	-0.940777
H77	H	1.790027	-0.135138	-0.820669
H78	H	1.738886	-0.020538	-0.750715
H79	H	1.553320	0.029911	-0.801464
H80	H	1.418887	-0.034240	-0.922169
H81	H	1.470027	-0.148840	-0.992123
H82	H	1.103530	-0.167817	-0.629493
H83	H	1.396414	-0.376117	-1.106099
C84	C	1.659426	-0.934153	-0.647369
C85	C	1.613831	-0.888938	-0.729799
C86	C	1.687680	-0.852708	-0.803767
C87	C	1.807126	-0.861694	-0.795306
C88	C	1.852728	-0.906911	-0.712873
C89	C	1.778878	-0.943141	-0.638905
H90	H	1.525404	-0.882284	-0.736065
H91	H	1.653922	-0.819235	-0.864789
H92	H	1.861794	-0.834875	-0.850062
H93	H	1.941154	-0.913565	-0.706607
H94	H	1.812637	-0.976614	-0.577883
H95	H	1.640309	-1.062832	-0.628196
C96	C	1.767611	-0.240000	-0.905815
C97	C	1.857081	-0.260207	-0.979447
C98	C	1.961458	-0.283813	-0.933449
C99	C	1.976365	-0.287212	-0.813819
C100	C	1.886892	-0.267004	-0.740180
C101	C	1.782515	-0.243398	-0.786178
H102	H	1.846048	-0.257692	-1.068011
H103	H	2.027691	-0.298772	-0.987963
H104	H	2.053631	-0.304686	-0.779769
H105	H	1.897925	-0.269519	-0.651616
H106	H	1.716282	-0.228438	-0.731664
C107	C	1.377111	-0.533600	-0.364819
C108	C	1.385756	-0.542694	-0.245393
C109	C	1.311865	-0.506612	-0.171406
C110	C	1.229329	-0.461435	-0.216845
C111	C	1.220681	-0.452339	-0.336278
C112	C	1.294572	-0.488421	-0.410265
H113	H	1.446856	-0.576139	-0.211751
H114	H	1.318267	-0.513346	-0.082995
H115	H	1.174630	-0.434725	-0.162076
H116	H	1.159580	-0.418895	-0.369920
H117	H	1.288169	-0.481687	-0.498676
H118	H	1.744623	-0.229431	-1.091311
C119	C	1.623968	-0.153796	-1.107552
C120	C	1.526628	-0.152790	-1.178851
C121	C	1.487334	-0.090215	-1.224867
C122	C	1.545381	-0.028647	-1.199585
C123	C	1.642728	-0.029651	-1.128283
C124	C	1.682021	-0.092226	-1.082266
H125	H	1.483653	-0.198368	-1.197569
H126	H	1.415271	-0.089473	-1.277650
H127	H	1.516294	0.017674	-1.233649
H128	H	1.685703	0.015927	-1.109564
H129	H	1.754084	-0.092968	-1.029483
C130	C	1.659171	-0.533317	-0.647263
C131	C	1.778618	-0.542298	-0.638807
C132	C	1.852460	-0.506072	-0.712788
C133	C	1.806854	-0.460866	-0.795227
C134	C	1.687401	-0.451883	-0.803687
C135	C	1.613560	-0.488109	-0.729705
H136	H	1.812384	-0.575764	-0.577778
H137	H	1.940887	-0.512721	-0.706525
H138	H	1.861516	-0.434049	-0.849992
H139	H	1.653636	-0.418417	-0.864715
H140	H	1.525132	-0.481460	-0.735968
H141	H	1.107800	-0.234105	-0.728372
C142	C	1.659267	-0.671373	-0.647284
C143	C	1.733124	-0.635146	-0.721239
C144	C	1.807029	-0.671231	-0.795207
C145	C	1.807078	-0.743544	-0.795220
C146	C	1.733217	-0.779775	-0.721262
C147	C	1.659312	-0.743690	-0.647295
H148	H	1.733091	-0.581612	-0.721232
H149	H	1.861706	-0.644410	-0.849955
H150	H	1.861787	-0.770257	-0.849975
H151	H	1.733251	-0.833309	-0.721270
H152	H	1.604636	-0.770511	-0.592546
H153	H	1.396632	-1.063086	-0.384184
H154	H	1.118218	-0.376164	-0.383937
C155	C	1.377374	-0.934440	-0.364923
C156	C	1.303532	-0.970671	-0.290958
C157	C	1.229640	-0.934590	-0.216972
C158	C	1.229589	-0.862277	-0.216952
C159	C	1.303434	-0.826042	-0.290920
C160	C	1.377326	-0.862123	-0.364905
H161	H	1.303567	-1.024205	-0.290971
H162	H	1.174975	-0.961414	-0.162216
H163	H	1.174889	-0.835567	-0.162183
H164	H	1.303399	-0.772508	-0.290907
H165	H	1.431991	-0.835299	-0.419661
H166	H	0.934267	-0.229721	-0.732477
C167	C	1.377206	-0.671656	-0.364852
C168	C	1.422807	-0.716864	-0.282415
C169	C	1.348961	-0.753098	-0.208449
C170	C	1.229514	-0.744123	-0.216919
C171	C	1.183906	-0.698912	-0.299360
C172	C	1.257753	-0.662679	-0.373326
H173	H	1.511235	-0.723510	-0.276142
H174	H	1.382723	-0.786566	-0.147421
H175	H	1.174848	-0.770945	-0.162165
H176	H	1.095479	-0.692266	-0.305633
H177	H	1.223991	-0.629211	-0.434354
