data_functionalizedCrystal
_audit_creation_method	'MofGen! by Chris Wilmer'
_symmetry_space_group_name_H-M	'P1'
_symmetry_Int_Tables_number	1
_symmetry_cell_setting	triclinic
loop_
_symmetry_equiv_pos_as_xyz
  x,y,z
_cell_length_a	18.101398
_cell_length_b	18.215405
_cell_length_c	18.215399
_cell_angle_alpha	90.029420
_cell_angle_beta	90.010431
_cell_angle_gamma	90.019377
loop_
_atom_site_label
_atom_site_type_symbol
_atom_site_fract_x
_atom_site_fract_y
_atom_site_fract_z
Zn1	Zn	1.132163	-0.293079	0.415924
Zn2	Zn	1.632163	0.206921	0.915924
Zn3	Zn	1.132074	-0.416150	0.292854
Zn4	Zn	1.632074	0.083850	0.792854
Zn5	Zn	1.008321	-0.293093	0.292891
Zn6	Zn	1.508321	0.206907	0.792891
Zn7	Zn	1.008289	-0.416099	0.415899
Zn8	Zn	1.508289	0.083901	0.915899
O9	O	1.070212	-0.354605	0.354392
O10	O	1.570212	0.145395	0.854392
O11	O	1.235784	-0.309421	0.399593
O12	O	1.735784	0.190579	0.899593
O13	O	1.115633	-0.399854	0.189875
O14	O	1.615633	0.100146	0.689875
O15	O	1.024800	-0.190107	0.309237
O16	O	1.524800	0.309893	0.809237
O17	O	1.235718	-0.399841	0.309174
O18	O	1.735718	0.100159	0.809174
O19	O	1.115786	-0.190097	0.399629
O20	O	1.615786	0.309903	0.899629
O21	O	1.024713	-0.309444	0.189902
O22	O	1.524713	0.190556	0.689902
O23	O	0.904684	-0.309394	0.309214
O24	O	1.404684	0.190606	0.809214
O25	O	1.024745	-0.399753	0.518887
O26	O	1.524745	0.100247	1.018887
O27	O	0.904660	-0.399766	0.399587
O28	O	1.404660	0.100234	0.899587
O29	O	1.115755	-0.309371	0.518905
O30	O	1.615755	0.190629	1.018905
O31	O	1.115602	-0.519128	0.309151
O32	O	1.615602	-0.019128	0.809151
O33	O	1.024658	-0.519090	0.399551
O34	O	1.524658	-0.019090	0.899551
C35	C	1.070137	-0.545812	0.354361
C36	C	1.570137	-0.045812	0.854361
C37	C	1.070173	-0.627610	0.354372
C38	C	1.570173	-0.127610	0.854372
C39	C	0.877801	-0.354576	0.354402
C40	C	1.377801	0.145424	0.854402
C41	C	0.795487	-0.354582	0.354424
C42	C	1.295487	0.145418	0.854424
C43	C	1.117666	-0.892663	0.307399
C44	C	1.617666	-0.392663	0.807399
C45	C	1.117636	-0.815805	0.307382
C46	C	1.617636	-0.315805	0.807382
C47	C	1.022849	-0.815806	0.401435
C48	C	1.522849	-0.315806	0.901435
C49	C	1.022876	-0.892663	0.401447
C50	C	1.522876	-0.392663	0.901447
C51	C	1.070289	-0.931090	0.354431
C52	C	1.570289	-0.431090	0.854431
C53	C	1.070231	-0.777374	0.354401
C54	C	1.570231	-0.277374	0.854401
C55	C	1.070198	-0.694040	0.354383
C56	C	1.570198	-0.194040	0.854383
C57	C	1.070322	-1.014429	0.354447
C58	C	1.570322	-0.514429	0.854447
C59	C	0.496396	-0.354625	0.354394
C60	C	0.996396	0.145375	0.854394
C61	C	0.527731	-0.411760	0.410973
C62	C	1.027731	0.088240	0.910973
C63	C	0.613350	-0.411581	0.411206
C64	C	1.113350	0.088419	0.911206
C65	C	0.644779	-0.354604	0.354409
C66	C	1.144779	0.145396	0.854409
C67	C	0.613715	-0.277090	0.375605
C68	C	1.113715	0.222910	0.875605
C69	C	0.528070	-0.277433	0.376007
C70	C	1.028070	0.222567	0.876007
C71	C	0.527945	-0.374321	0.276481
C72	C	1.027945	0.125679	0.776481
C73	C	0.613595	-0.376022	0.276897
C74	C	1.113595	0.123978	0.776897
C75	C	0.728638	-0.354588	0.354416
C76	C	1.228638	0.145412	0.854416
C77	C	0.412537	-0.354636	0.354388
C78	C	0.912537	0.145364	0.854388
C79	C	1.263374	-0.354635	0.354382
C80	C	1.763374	0.145365	0.854382
C81	C	1.345688	-0.354647	0.354378
C82	C	1.845688	0.145353	0.854378
C83	C	1.070257	-0.354555	0.546345
C84	C	1.570257	0.145445	1.046345
C85	C	1.070276	-0.354533	0.628144
C86	C	1.570276	0.145467	1.128144
C87	C	1.070307	-0.162652	0.354440
C88	C	1.570307	0.337348	0.854440
C89	C	1.070347	-0.080853	0.354460
C90	C	1.570347	0.419147	0.854460
C91	C	1.070209	-0.354603	0.163186
C92	C	1.570209	0.145397	0.663186
C93	C	1.070334	-0.354417	0.081387
C94	C	1.570334	0.145583	0.581387
C95	C	1.117682	-0.307427	0.816349
C96	C	1.617682	0.192573	1.316349
C97	C	1.117691	-0.307406	0.893207
C98	C	1.617691	0.192594	1.393207
C99	C	1.022922	-0.401525	0.893177
C100	C	1.522922	0.098475	1.393177
C101	C	1.022910	-0.401542	0.816320
C102	C	1.522910	0.098458	1.316320
C103	C	1.070294	-0.354494	0.777908
C104	C	1.570294	0.145506	1.277908
C105	C	1.070315	-0.354456	0.931624
C106	C	1.570315	0.145544	1.431624
C107	C	1.070324	-0.354433	1.014958
C108	C	1.570324	0.145567	1.514958
C109	C	1.070284	-0.354516	0.694569
C110	C	1.570284	0.145484	1.194569
H111	H	1.156213	-0.784520	0.269084
H112	H	1.656213	-0.284520	0.769084
N113	N	0.971712	-0.774360	0.452142
N114	N	1.471712	-0.274360	0.952142
H115	H	0.978883	-0.719840	0.445000
H116	H	1.478883	-0.219840	0.945000
H117	H	0.983206	-0.787751	0.504714
H118	H	1.483206	-0.287751	1.004714
N119	N	0.971768	-0.934116	0.452170
N120	N	1.471768	-0.434116	0.952170
H121	H	0.941731	-0.898112	0.481956
H122	H	1.441731	-0.398112	0.981956
H123	H	1.001899	-0.965964	0.486257
H124	H	1.501899	-0.465964	0.986257
H125	H	0.634352	-0.469062	0.397921
H126	H	1.134352	0.030938	0.897921
N127	N	0.501095	-0.319205	0.220635
N128	N	1.001095	0.180795	0.720635
H129	H	0.521538	-0.332136	0.170689
H130	H	1.021538	0.167864	0.670689
H131	H	0.518425	-0.268506	0.235080
H132	H	1.018425	0.231494	0.735080
N133	N	1.168810	-0.256646	0.934667
N134	N	1.668810	0.243354	1.434667
H135	H	1.161628	-0.263770	0.989185
H136	H	1.661628	0.236230	1.489185
H137	H	1.157309	-0.204088	0.921245
H138	H	1.657309	0.295912	1.421245
N139	N	0.971806	-0.452257	0.934608
N140	N	1.471806	0.047743	1.434608
H141	H	0.979001	-0.445102	0.989130
H142	H	1.479001	0.054898	1.489130
H143	H	0.983294	-0.504825	0.921165
H144	H	1.483294	-0.004825	1.421165
N145	N	0.500424	-0.488145	0.393572
N146	N	1.000424	0.011855	0.893572
H147	H	0.444684	-0.489094	0.395871
H148	H	0.944684	0.010906	0.895871
H149	H	0.521219	-0.523916	0.430533
H150	H	1.021219	-0.023916	0.930533
N151	N	1.168800	-0.934111	0.256690
N152	N	1.668800	-0.434111	0.756690
H153	H	1.198807	-0.898102	0.226892
H154	H	1.698807	-0.398102	0.726892
H155	H	1.138688	-0.966044	0.222614
H156	H	1.638688	-0.466044	0.722614
N157	N	0.499242	-0.394724	0.487001
N158	N	0.999242	0.105276	0.987001
H159	H	0.466127	-0.350157	0.484953
H160	H	0.966127	0.149843	0.984953
H161	H	0.542294	-0.384576	0.520796
H162	H	1.042294	0.115424	1.020796
N163	N	1.168789	-0.256688	0.774916
N164	N	1.668789	0.243312	1.274916
H165	H	1.138710	-0.222588	0.743031
H166	H	1.638710	0.277412	1.243031
H167	H	1.203077	-0.286669	0.743069
H168	H	1.703077	0.213331	1.243069
H169	H	0.984316	-0.439870	0.785021
H170	H	1.484316	0.060130	1.285021
H171	H	0.633851	-0.398549	0.468934
H172	H	1.133851	0.101451	0.968934
H173	H	0.508107	-0.260728	0.432965
H174	H	1.008107	0.239272	0.932965
H175	H	0.507342	-0.233338	0.336687
H176	H	1.007342	0.266662	0.836687
H177	H	0.634073	-0.233367	0.335681
H178	H	1.134073	0.266633	0.835681
H179	H	0.635178	-0.260083	0.431943
H180	H	1.135178	0.239917	0.931943
N181	N	0.499314	-0.447904	0.250960
N182	N	0.999314	0.052096	0.750960
H183	H	0.514902	-0.487185	0.286874
H184	H	1.014902	0.012815	0.786874
H185	H	0.520250	-0.459394	0.200866
H186	H	1.020250	0.040606	0.700866
N187	N	0.640556	-0.451545	0.255682
N188	N	1.140556	0.048455	0.755682
H189	H	0.672828	-0.471811	0.296110
H190	H	1.172828	0.028189	0.796110
H191	H	0.670049	-0.448198	0.208742
H192	H	1.170049	0.051802	0.708742
N193	N	0.641929	-0.324905	0.218051
N194	N	1.141929	0.175095	0.718051
H195	H	0.675529	-0.286968	0.240906
H196	H	1.175529	0.213032	0.740906
H197	H	0.598839	-0.299559	0.193614
H198	H	1.098839	0.200441	0.693614
