data_functionalizedCrystal
_audit_creation_method	'MofGen! by Chris Wilmer'
_symmetry_space_group_name_H-M	'P1'
_symmetry_Int_Tables_number	1
_symmetry_cell_setting	triclinic
loop_
_symmetry_equiv_pos_as_xyz
  x,y,z
_cell_length_a	23.096457
_cell_length_b	23.096457
_cell_length_c	23.096457
_cell_angle_alpha	120.001918
_cell_angle_beta	90.002696
_cell_angle_gamma	60.000612
loop_
_atom_site_label
_atom_site_type_symbol
_atom_site_fract_x
_atom_site_fract_y
_atom_site_fract_z
Zr1	Zr	0.557780	0.633751	0.075994
O2	O	0.465334	0.754541	0.168440
O3	O	0.586118	0.512963	0.047655
O4	O	0.586120	0.633756	0.168446
O5	O	0.465332	0.633743	-0.047634
O6	O	0.681400	0.633758	0.168450
O7	O	0.465332	0.633748	0.047649
O8	O	0.681396	0.417680	-0.047623
O9	O	0.465336	0.849821	0.168439
O10	O	0.669312	0.562645	0.035570
O11	O	0.598206	0.562640	-0.035541
O12	O	0.598209	0.704859	0.106675
O13	O	0.527103	0.704854	0.035563
Zr14	Zr	0.709742	0.633746	-0.075967
Zr15	Zr	0.709741	0.633754	0.075999
Zr16	Zr	0.557781	0.633743	-0.075972
Zr17	Zr	0.557784	0.785710	0.075991
Zr18	Zr	0.709738	0.481787	-0.075965
O19	O	0.681405	0.754534	-0.047628
O20	O	0.681403	0.754545	0.168448
O21	O	0.465335	0.754531	-0.047636
O22	O	0.802188	0.512955	-0.168413
O23	O	0.802187	0.512966	0.047663
O24	O	0.586119	0.512952	-0.168421
O25	O	0.802190	0.633754	0.047661
O26	O	0.681402	0.633741	-0.168419
O27	O	0.586122	0.633739	-0.168423
O28	O	0.802190	0.633749	-0.047622
O29	O	0.586125	0.849823	0.168443
O30	O	0.681397	0.417674	-0.168416
O31	O	0.802186	0.417676	-0.168412
O32	O	0.802185	0.417682	-0.047619
O33	O	0.465337	0.849815	0.047646
O34	O	0.586126	0.849817	0.047650
O35	O	0.669313	0.562638	-0.106648
O36	O	0.740420	0.562643	-0.035536
O37	O	0.669316	0.704857	0.035568
O38	O	0.598210	0.704852	-0.035543
C39	C	0.633756	0.443670	0.000016
C40	C	0.633755	0.379160	0.000017
C41	C	0.581282	-0.028870	0.052504
C42	C	0.581276	0.031749	0.052504
C43	C	0.633766	0.009570	0.000014
C44	C	0.686256	-0.073238	-0.052490
C45	C	0.686257	-0.133854	-0.052492
N46	N	0.696014	0.065672	-0.015877
N47	N	0.696010	0.123258	-0.015871
C48	C	0.633767	0.192200	0.000016
N49	N	0.571523	0.201388	0.015911
N50	N	0.571527	0.143798	0.015908
C51	C	0.633771	0.075292	0.000010
C52	C	0.581271	0.340726	0.052513
C53	C	0.581265	0.401344	0.052508
C54	C	0.686250	0.296354	-0.052482
C55	C	0.686251	0.235739	-0.052480
C56	C	0.633762	0.257930	0.000022
C57	C	0.443681	0.633745	0.000007
C58	C	0.379169	0.633744	0.000004
C59	C	0.385979	0.559512	-0.037105
C60	C	0.325363	0.559511	-0.037108
C61	C	0.257939	0.633746	0.000012
C62	C	0.251132	0.707988	0.037122
C63	C	0.311747	0.707987	0.037119
N64	N	0.135144	0.689005	0.060423
N65	N	0.077565	0.689001	0.060426
C66	C	0.075306	0.633753	0.000024
N67	N	0.132808	0.578498	-0.060378
N68	N	0.190394	0.578500	-0.060379
C69	C	0.192207	0.633755	0.000020
C70	C	0.016392	0.559515	-0.037091
C71	C	-0.044226	0.559517	-0.037096
C72	C	-0.118458	0.707996	0.037141
C73	C	-0.057840	0.707992	0.037139
C74	C	0.009582	0.633749	0.000025
C75	C	0.823841	0.633752	0.000020
C76	C	0.888353	0.633753	0.000023
C77	C	0.633760	0.633758	0.190100
C78	C	0.633760	0.633761	0.254614
C79	C	0.633766	0.823827	0.000011
C80	C	0.633767	0.888337	0.000010
C81	C	0.596662	0.707979	0.752233
C82	C	0.596655	0.707983	0.691619
C83	C	0.633771	0.633750	0.624190
C84	C	0.670881	0.559506	0.617378
C85	C	0.670880	0.559504	0.677992
N86	N	0.694174	0.578496	0.501394
N87	N	0.694173	0.578503	0.443816
C88	C	0.633772	0.633751	0.441562
N89	N	0.573373	0.689005	0.499068
N90	N	0.573376	0.689000	0.556653
C91	C	0.633775	0.633744	0.558461
C92	C	0.596653	0.707994	0.382655
C93	C	0.596645	0.707995	0.322039
C94	C	0.670877	0.559516	0.247798
C95	C	0.670879	0.559517	0.308414
C96	C	0.633769	0.633759	0.375840
C97	C	0.633764	0.633742	0.809928
C98	C	0.633770	0.633746	0.745418
C99	C	0.823837	0.443674	0.000023
C100	C	0.888347	0.379164	0.000027
C101	C	0.633757	0.443661	-0.190070
C102	C	0.633756	0.379147	-0.254583
C103	C	0.823838	0.443664	-0.190063
C104	C	0.888348	0.379151	-0.254574
C105	C	0.443684	0.823833	0.190090
C106	C	0.379174	0.888346	0.254601
C107	C	0.443686	0.823823	0.000004
C108	C	0.379176	0.888333	0.000000
C109	C	0.633765	0.823836	0.190097
C110	C	0.633766	0.888350	0.254610
C111	C	0.881524	0.348871	0.037151
C112	C	0.942132	0.288265	0.037169
C113	C	1.009562	0.257950	0.000057
C114	C	1.016383	0.288249	-0.037069
C115	C	0.955776	0.348858	-0.037082
C116	C	0.670873	0.348849	-0.322002
C117	C	0.670869	0.288240	-0.382624
C118	C	0.633752	0.257926	-0.375826
C119	C	0.596631	0.288229	-0.308400
C120	C	0.596631	0.348841	-0.247779
C121	C	0.955766	0.348858	-0.247749
C122	C	1.016386	0.288250	-0.308357
C123	C	1.009587	0.257932	-0.375790
C124	C	0.942162	0.288231	-0.382613
C125	C	0.881543	0.348842	-0.322006
C126	C	0.311756	0.918646	0.247776
C127	C	0.251136	0.979274	0.308384
C128	C	0.257936	1.009595	0.375817
C129	C	0.325360	0.979291	0.382640
C130	C	0.385979	0.918669	0.322032
C131	C	0.385998	0.918633	-0.037118
C132	C	0.325390	0.979255	-0.037119
C133	C	0.257960	1.009572	-0.000005
C134	C	0.251139	0.979270	0.037118
C135	C	0.311746	0.918653	0.037123
C136	C	0.670890	0.918645	0.247789
C137	C	0.670905	0.979255	0.308400
C138	C	0.633791	1.009572	0.375831
C139	C	0.596666	0.979271	0.382650
C140	C	0.596656	0.918658	0.322040
H141	H	0.728993	-0.091293	-0.095228
Br142	Br	0.302504	0.808738	0.087484
Br143	Br	1.091863	0.175673	-0.458037
H144	H	0.826651	0.373500	-0.327572
H145	H	0.330908	0.499060	-0.067327
H146	H	0.538540	-0.010794	0.095253
Br147	Br	0.757491	-0.246225	-0.123741
H148	H	0.538527	0.099172	0.095244
Br149	Br	0.510022	0.513714	0.123750
Br150	Br	0.721289	1.020369	0.299128
Br151	Br	0.633759	0.175665	-0.458106
H152	H	0.701112	0.893970	0.192889
H153	H	0.566422	0.893998	0.327604
H154	H	0.936636	0.263537	-0.437525
Br155	Br	0.510038	0.370837	0.123763
H156	H	1.071281	0.263586	-0.302789
H157	H	-0.063388	0.768440	0.067362
H158	H	0.440873	0.499058	-0.067322
Br159	Br	0.721253	0.247126	-0.474122
H160	H	0.701100	0.499068	0.302862
H161	H	0.440898	0.893953	-0.067346
H162	H	0.306207	0.893962	0.192874
Br163	Br	0.159628	0.808737	0.087493
H164	H	0.728985	0.278294	-0.095224
Br165	Br	0.159640	1.020385	0.299107
Br166	Br	0.334664	1.020364	-0.087506
Br167	Br	0.175659	1.091868	0.458064
H168	H	0.071291	0.499062	-0.067327
H169	H	0.728993	0.168323	-0.095224
H170	H	0.826624	0.373553	0.067381
Br171	Br	0.477472	0.877550	0.331308
H172	H	-0.173355	0.768440	0.067365
H173	H	-0.038675	0.499066	-0.067320
H174	H	0.208615	1.058930	-0.000014
H175	H	0.566442	0.768432	0.807131
H176	H	0.936564	0.263603	0.067401
Br177	Br	0.334576	1.020448	0.474162
Br178	Br	1.107901	0.247096	-0.087434
Br179	Br	0.721244	0.458751	0.668742
H180	H	0.306181	0.893985	0.067347
H181	H	0.196229	1.003963	0.067336
Br182	Br	0.546256	0.389949	-0.156284
H183	H	0.566412	0.263538	-0.302875
H184	H	0.566434	0.768435	0.697168
Br185	Br	0.633812	1.091835	0.458081
H186	H	0.566450	1.003965	0.437561
Br187	Br	0.721246	0.458760	0.525869
Br188	Br	0.546290	0.808747	0.474164
Br189	Br	0.546258	0.808750	0.331291
H190	H	0.701092	0.499074	0.192897
H191	H	1.058907	0.208598	0.000072
H192	H	0.961341	0.373515	-0.067317
Br193	Br	0.721255	0.389973	-0.331248
H194	H	0.961316	0.373534	-0.192847
