data_functionalizedCrystal
_audit_creation_method	'MofGen! by Chris Wilmer'
_symmetry_space_group_name_H-M	'P1'
_symmetry_Int_Tables_number	1
_symmetry_cell_setting	triclinic
loop_
_symmetry_equiv_pos_as_xyz
  x,y,z
_cell_length_a	16.109301
_cell_length_b	8.965430
_cell_length_c	16.109301
_cell_angle_alpha	89.997898
_cell_angle_beta	96.538519
_cell_angle_gamma	89.994369
loop_
_atom_site_label
_atom_site_type_symbol
_atom_site_fract_x
_atom_site_fract_y
_atom_site_fract_z
O1	O	1.103123	0.123950	-0.106863
O2	O	0.861061	0.123974	-0.120163
O3	O	0.988742	0.123946	0.007518
O4	O	0.975443	0.123978	-0.234544
O5	O	0.988748	-0.124133	0.007514
O6	O	0.861067	-0.124105	-0.120166
O7	O	1.103129	-0.124129	-0.106867
Cu8	Cu	0.982099	-0.146768	-0.113517
Cu9	Cu	0.982092	0.146614	-0.113512
O10	O	0.975449	-0.124101	-0.234548
C11	C	0.830090	-0.000062	-0.119626
C12	C	0.737794	-0.000054	-0.118011
N13	N	0.982110	-0.353118	-0.113520
C14	C	0.515522	-0.000061	-0.190018
C15	C	0.428801	-0.000071	-0.188494
C16	C	0.448676	-0.000085	-0.037006
C17	C	0.535394	-0.000086	-0.038530
C18	C	0.568815	-0.000067	-0.115039
C19	C	0.395376	-0.000075	-0.111990
C20	C	0.301350	-0.000086	-0.110337
C21	C	0.662847	-0.000059	-0.116693
C22	C	1.041177	-0.450396	-0.054476
C23	C	0.966052	-0.549796	-0.038348
C24	C	1.057205	-0.549846	-0.129594
C25	C	0.906948	-0.450328	-0.097355
C26	C	0.998150	-0.450369	-0.188634
C27	C	0.922971	-0.549724	-0.172538
C28	C	1.134101	-0.000089	-0.107404
C29	C	1.226397	-0.000088	-0.109019
C30	C	0.988206	-0.000094	0.038491
C31	C	0.986591	-0.000096	0.130786
N32	N	0.982087	0.352963	-0.113503
C33	C	0.975984	-0.000058	-0.265521
C34	C	0.977600	-0.000046	-0.357816
C35	C	1.058599	-0.000080	0.353059
C36	C	1.057075	-0.000067	0.439779
C37	C	0.905586	-0.000058	0.419905
C38	C	0.907111	-0.000060	0.333186
C39	C	0.983620	-0.000078	0.299766
C40	C	0.980571	-0.000064	0.473205
C41	C	0.978918	-0.000050	0.567231
C42	C	0.985273	-0.000089	0.205734
H43	H	0.542730	-0.000057	-0.252317
H44	H	0.843295	-0.000046	0.447127
N45	N	0.948055	-0.607668	0.045796
H46	H	0.940436	-0.520870	0.084171
H47	H	0.996331	-0.671294	0.070701
H48	H	0.846050	-0.000054	0.289792
H49	H	0.385413	-0.000070	-0.249550
H50	H	1.011756	-0.406663	-0.252143
N51	N	1.141340	-0.607741	-0.147615
H52	H	1.153924	-0.570020	-0.203922
H53	H	1.140491	-0.720380	-0.147968
N54	N	0.592887	-0.000082	0.042341
H55	H	0.629312	-0.092048	0.045081
H56	H	0.558503	-0.000026	0.090996
N57	N	1.141115	-0.000097	0.317010
H58	H	1.188382	-0.000094	0.363933
H59	H	1.145043	0.091866	0.281459
N60	N	1.137945	-0.000068	0.497261
H61	H	1.186640	-0.000081	0.462927
H62	H	1.140613	-0.092032	0.533678
H63	H	0.421454	-0.000110	0.025285
H64	H	0.843416	-0.406798	-0.083680
N65	N	1.107284	-0.392620	0.011690
H66	H	1.095046	-0.428790	0.068415
H67	H	1.107152	-0.279981	0.010789
N68	N	0.856728	-0.607141	-0.238675
H69	H	0.800052	-0.570742	-0.226417
H70	H	0.857477	-0.719784	-0.238603
