data_functionalizedCrystal
_audit_creation_method	'MofGen! by Chris Wilmer'
_symmetry_space_group_name_H-M	'P1'
_symmetry_Int_Tables_number	1
_symmetry_cell_setting	triclinic
loop_
_symmetry_equiv_pos_as_xyz
  x,y,z
_cell_length_a	10.489763
_cell_length_b	9.565339
_cell_length_c	11.792241
_cell_angle_alpha	89.999915
_cell_angle_beta	95.629112
_cell_angle_gamma	89.998309
loop_
_atom_site_label
_atom_site_type_symbol
_atom_site_fract_x
_atom_site_fract_y
_atom_site_fract_z
O1	O	-1.693490	0.116200	0.160250
O2	O	-1.322247	0.116216	0.175255
O3	O	-1.516878	0.116198	0.002607
O4	O	-1.498860	0.116218	0.332898
O5	O	-1.516862	-0.116322	0.002617
O6	O	-1.322232	-0.116304	0.175265
O7	O	-1.693475	-0.116320	0.160261
Zn8	Zn	-1.507851	-0.153230	0.167765
Zn9	Zn	-1.507871	0.153125	0.167751
O10	O	-1.498844	-0.116302	0.332909
C11	C	-1.274712	-0.000042	0.174121
C12	C	-1.133096	-0.000036	0.170715
C13	C	-1.065331	-0.000057	0.060850
C14	C	-0.973035	0.114586	0.112735
C15	C	-0.973054	-0.114660	0.112772
C16	C	-1.042666	0.114702	0.222645
C17	C	-1.042694	-0.114647	0.222666
C18	C	-0.950426	0.000024	0.274631
N19	N	-1.507846	-0.362309	0.167774
C20	C	-1.417809	-0.453504	0.247591
C21	C	-1.533226	-0.546686	0.270565
C22	C	-1.392479	-0.546682	0.144808
C23	C	-1.623322	-0.453440	0.190800
C24	C	-1.482499	-0.453427	0.064998
C25	C	-1.597999	-0.546568	0.087929
C26	C	-0.741012	-0.000063	0.161376
C27	C	-0.882636	-0.000071	0.164729
C28	C	-1.515738	-0.000062	-0.039682
C29	C	-1.512351	-0.000060	-0.165705
N30	N	-1.507886	0.362205	0.167733
C31	C	-1.506121	-0.000037	-0.396435
C32	C	-1.509582	-0.000050	-0.268040
C33	C	-1.499984	-0.000039	0.375197
C34	C	-1.503371	-0.000032	0.501220
H35	H	-1.073341	0.211735	0.269090
H36	H	-1.294898	-0.587643	0.125402
H37	H	-1.073575	-0.211572	0.269119
H38	H	-0.900695	0.000091	0.365034
H39	H	-0.942228	-0.211585	0.066270
H40	H	-1.554692	-0.587649	0.357463
H41	H	-0.942186	0.211506	0.066244
H42	H	-1.341736	-0.412642	0.315152
H43	H	-1.720925	-0.412655	0.210310
H44	H	-1.674242	-0.587174	0.020410
H45	H	-1.115327	0.000081	-0.029458
H46	H	-1.460997	-0.412432	-0.021873
