data_functionalizedCrystal
_audit_creation_method	'MofGen! by Chris Wilmer'
_symmetry_space_group_name_H-M	'P1'
_symmetry_Int_Tables_number	1
_symmetry_cell_setting	triclinic
loop_
_symmetry_equiv_pos_as_xyz
  x,y,z
_cell_length_a	12.827892
_cell_length_b	19.077241
_cell_length_c	19.076919
_cell_angle_alpha	89.886096
_cell_angle_beta	87.724465
_cell_angle_gamma	87.692554
loop_
_atom_site_label
_atom_site_type_symbol
_atom_site_fract_x
_atom_site_fract_y
_atom_site_fract_z
Zn1	Zn	-0.379366	-1.058330	0.440583
Zn2	Zn	-0.546835	-1.062988	0.323084
Zn3	Zn	-0.378815	-0.945546	0.318360
Zn4	Zn	-0.560774	-0.940809	0.435820
O5	O	-0.466447	-1.001918	0.379462
O6	O	-0.395978	-1.157281	0.428966
O7	O	-0.518483	-1.051341	0.224126
O8	O	-0.232651	-0.960540	0.334590
O9	O	-0.519017	-1.160703	0.342641
O10	O	-0.233055	-1.043402	0.424386
O11	O	-0.395039	-0.965056	0.220656
O12	O	-0.408555	-0.846584	0.329972
O13	O	-0.542773	-0.952466	0.534783
O14	O	-0.542239	-0.843104	0.416269
O15	O	-0.409494	-1.038809	0.538282
O16	O	-0.694921	-1.046747	0.338022
O17	O	-0.705162	-0.956983	0.420849
C18	C	-0.476851	-0.819347	0.372091
C19	C	-0.481328	-0.741242	0.368955
C20	C	-0.419481	-0.702765	0.412495
C21	C	-0.423682	-0.629377	0.409542
C22	C	-0.489736	-0.594468	0.363051
C23	C	-0.551585	-0.632951	0.319506
C24	C	-0.547377	-0.706337	0.322456
C25	C	-0.509171	-0.375177	0.349398
C26	C	-0.513376	-0.301785	0.346453
C27	C	-0.385472	-0.298216	0.436488
C28	C	-0.381275	-0.371604	0.439437
C29	C	-0.443119	-0.410080	0.395889
N30	N	-0.494034	-0.519453	0.360033
N31	N	-0.438815	-0.485093	0.398904
C32	C	-0.737959	-1.001875	0.379448
C33	C	-0.854111	-1.001919	0.379468
C34	C	-0.900793	-1.046386	0.338532
C35	C	-1.020842	-1.046434	0.338552
C36	C	-0.193875	-1.001980	0.379492
C37	C	-0.077721	-1.002007	0.379505
C38	C	-0.477750	-0.994590	0.562741
C39	C	-0.482566	-0.991467	0.640844
C40	C	-0.455998	-0.185202	0.386856
C41	C	-0.451530	-0.263307	0.389993
C42	C	-0.455111	-1.009258	0.196897
C43	C	-0.449993	-1.012517	0.118800
C44	C	-0.415440	-1.034951	0.679360
C45	C	-0.419962	-1.032008	0.752746
C46	C	-0.491616	-0.985584	0.787614
C47	C	-0.558745	-0.942095	0.749093
C48	C	-0.554217	-0.945035	0.675709
C49	C	-0.512594	-0.971968	1.006894
C50	C	-0.517119	-0.969033	1.080284
C51	C	-0.378334	-1.058946	1.083931
C52	C	-0.373817	-1.061885	1.010546
C53	C	-0.440942	-1.018393	0.972031
N54	N	-0.496242	-0.982576	0.862626
N55	N	-0.436310	-1.021397	0.897020
H56	H	-0.605362	-0.604522	0.281649
Br57	Br	-1.087780	-1.109885	0.280128
Br58	Br	-0.614366	-0.906022	1.127606
Br59	Br	-0.603690	-0.912942	0.954633
H60	H	-0.617083	-0.904292	0.777489
H61	H	-0.373322	-0.598051	0.444998
H62	H	-0.365696	-0.731182	0.450354
H63	H	-0.597739	-0.737665	0.287001
Br64	Br	-0.291638	-0.418975	0.502540
Br65	Br	-1.010791	-0.938542	0.437918
H66	H	-0.365304	-1.067420	0.784102
H67	H	-0.315472	-1.099690	0.982161
H68	H	-0.335120	-0.266880	0.471941
H69	H	-0.903019	-0.963887	0.414532
Br70	Br	-0.318199	-1.097964	0.632046
Br71	Br	-0.603057	-0.254407	0.283374
Br72	Br	-0.287240	-1.117966	1.136205
Br73	Br	-0.645313	-0.886013	0.623436
H74	H	-0.559530	-0.406496	0.313939
H75	H	-0.851887	-1.084425	0.303473
