data_functionalizedCrystal
_audit_creation_method	'MofGen! by Chris Wilmer'
_symmetry_space_group_name_H-M	'P1'
_symmetry_Int_Tables_number	1
_symmetry_cell_setting	triclinic
loop_
_symmetry_equiv_pos_as_xyz
  x,y,z
_cell_length_a	13.897449
_cell_length_b	18.050589
_cell_length_c	13.897441
_cell_angle_alpha	89.973098
_cell_angle_beta	89.981404
_cell_angle_gamma	90.029500
loop_
_atom_site_label
_atom_site_type_symbol
_atom_site_fract_x
_atom_site_fract_y
_atom_site_fract_z
Zn1	Zn	1.474612	-0.295618	-0.545399
Zn2	Zn	1.807945	0.037716	-0.212066
Zn3	Zn	2.141278	0.371049	0.121267
Zn4	Zn	1.474482	-0.419820	-0.384108
Zn5	Zn	1.807815	-0.086486	-0.050775
Zn6	Zn	2.141149	0.246847	0.282558
Zn7	Zn	1.313307	-0.295651	-0.384118
Zn8	Zn	1.646640	0.037683	-0.050784
Zn9	Zn	1.979974	0.371016	0.282549
Zn10	Zn	1.313253	-0.419773	-0.545361
Zn11	Zn	1.646586	-0.086440	-0.212028
Zn12	Zn	1.979920	0.246894	0.121306
O13	O	1.393913	-0.357715	-0.464747
O14	O	1.727247	-0.024382	-0.131413
O15	O	2.060580	0.308951	0.201920
O16	O	1.609576	-0.312099	-0.524016
O17	O	1.942909	0.021234	-0.190683
O18	O	2.276243	0.354568	0.142651
O19	O	1.453070	-0.403382	-0.249128
O20	O	1.786403	-0.070049	0.084205
O21	O	2.119737	0.263285	0.417539
O22	O	1.334781	-0.191722	-0.405532
O23	O	1.668114	0.141612	-0.072199
O24	O	2.001448	0.474945	0.261135
O25	O	1.609481	-0.403350	-0.405516
O26	O	1.942814	-0.070016	-0.072183
O27	O	2.276148	0.263317	0.261150
O28	O	1.453291	-0.191697	-0.524025
O29	O	1.786624	0.141636	-0.190692
O30	O	2.119958	0.474969	0.142642
O31	O	1.334655	-0.312156	-0.249135
O32	O	1.667989	0.021178	0.084198
O33	O	2.001322	0.354511	0.417532
O34	O	1.178318	-0.312110	-0.405495
O35	O	1.511651	0.021223	-0.072162
O36	O	1.844985	0.354556	0.261172
O37	O	1.334689	-0.403270	-0.680348
O38	O	1.668023	-0.069937	-0.347015
O39	O	2.001356	0.263397	-0.013681
O40	O	1.178278	-0.403302	-0.523960
O41	O	1.511612	-0.069969	-0.190626
O42	O	1.844945	0.263364	0.142707
O43	O	1.453239	-0.312054	-0.680376
O44	O	1.786572	0.021280	-0.347043
O45	O	2.119905	0.354613	-0.013709
O46	O	1.453018	-0.523738	-0.405479
O47	O	1.786351	-0.190405	-0.072146
O48	O	2.119685	0.142929	0.261188
O49	O	1.334564	-0.523704	-0.523951
O50	O	1.667897	-0.190370	-0.190617
O51	O	2.001230	0.142963	0.142716
C52	C	1.143299	-0.357705	-0.464725
C53	C	1.476632	-0.024372	-0.131391
C54	C	1.809966	0.308961	0.201942
C55	C	1.036085	-0.357719	-0.464738
C56	C	1.369418	-0.024386	-0.131405
C57	C	1.702752	0.308948	0.201928
C58	C	0.839790	-0.357722	-0.464763
C59	C	1.173123	-0.024388	-0.131430
C60	C	1.506457	0.308945	0.201903
C61	C	0.949023	-0.357718	-0.464747
C62	C	1.282356	-0.024385	-0.131413
C63	C	1.615689	0.308949	0.201920
C64	C	1.393797	-0.550667	-0.464731
C65	C	1.727130	-0.217334	-0.131397
C66	C	2.060464	0.115999	0.201936
C67	C	1.393835	-0.633213	-0.464756
C68	C	1.727169	-0.299880	-0.131423
C69	C	2.060502	0.033453	0.201911
C70	C	1.329483	-0.832672	-0.529158
C71	C	1.662817	-0.499339	-0.195825
C72	C	1.996150	-0.166005	0.137508
C73	C	1.305969	-0.882117	-0.441140
C74	C	1.639303	-0.548783	-0.107807
C75	C	1.972636	-0.215450	0.225527
C76	C	1.393930	-0.784344	-0.464769
C77	C	1.727263	-0.451010	-0.131435
C78	C	2.060597	-0.117677	0.201898
C79	C	1.417491	-0.881981	-0.552797
C80	C	1.750825	-0.548647	-0.219464
C81	C	2.084158	-0.215314	0.113869
C82	C	1.394020	-0.930329	-0.464789
C83	C	1.727353	-0.596995	-0.131455
C84	C	2.060687	-0.263662	0.201878
C85	C	1.370370	-0.832701	-0.376703
C86	C	1.703704	-0.499368	-0.043370
C87	C	2.037037	-0.166034	0.289963
C88	C	1.481933	-0.832560	-0.488420
C89	C	1.815266	-0.499227	-0.155087
C90	C	2.148599	-0.165894	0.178246
C91	C	1.458453	-0.881983	-0.400341
C92	C	1.791786	-0.548649	-0.067008
C93	C	2.125119	-0.215316	0.266326
C94	C	1.393876	-0.700245	-0.464758
C95	C	1.727209	-0.366912	-0.131425
C96	C	2.060543	-0.033579	0.201908
C97	C	1.394074	-1.014425	-0.464789
C98	C	1.727407	-0.681092	-0.131455
C99	C	2.060741	-0.347758	0.201878
C100	C	1.645506	-0.357726	-0.464769
C101	C	1.978840	-0.024392	-0.131436
C102	C	2.312173	0.308941	0.201897
C103	C	1.752720	-0.357730	-0.464779
C104	C	2.086054	-0.024397	-0.131446
C105	C	2.419387	0.308936	0.201888
C106	C	1.393972	-0.357653	-0.716340
C107	C	1.727306	-0.024320	-0.383006
C108	C	2.060639	0.309014	-0.049673
C109	C	1.393998	-0.357626	-0.823554
C110	C	1.727331	-0.024293	-0.490220
C111	C	2.060664	0.309040	-0.156887
C112	C	1.394057	-0.164010	-0.464784
C113	C	1.727390	0.169324	-0.131451
C114	C	2.060723	0.502657	0.201883
C115	C	1.394118	-0.081464	-0.464800
C116	C	1.727451	0.251870	-0.131466
C117	C	2.060784	0.585203	0.201867
C118	C	1.394017	-0.357605	-0.910624
C119	C	1.727351	-0.024272	-0.577290
C120	C	2.060684	0.309061	-0.243957
C121	C	1.394045	-0.357572	-1.019856
C122	C	1.727378	-0.024239	-0.686523
C123	C	2.060712	0.309095	-0.353190
C124	C	1.393910	-0.357724	-0.214132
C125	C	1.727243	-0.024390	0.119201
C126	C	2.060577	0.308943	0.452534
C127	C	1.394072	-0.357541	-0.106919
C128	C	1.727405	-0.024208	0.226414
C129	C	2.060739	0.309126	0.559748
H130	H	1.274902	-0.811020	-0.583534
H131	H	1.608236	-0.477686	-0.250200
H132	H	1.941569	-0.144353	0.083133
C133	C	1.205482	-0.911524	-0.414118
C134	C	1.538815	-0.578190	-0.080785
C135	C	1.872148	-0.244857	0.252549
N136	N	1.129793	-0.933671	-0.393771
N137	N	1.463126	-0.600338	-0.060438
N138	N	1.796459	-0.267004	0.272895
C139	C	1.343375	-0.803581	-0.276115
C140	C	1.676709	-0.470247	0.057218
C141	C	2.010042	-0.136914	0.390551
N142	N	1.323038	-0.781645	-0.200355
N143	N	1.656372	-0.448312	0.132978
N144	N	1.989705	-0.114979	0.466312
H145	H	1.556295	-0.810779	-0.508449
H146	H	1.889628	-0.477445	-0.175116
H147	H	2.222962	-0.144112	0.158218
C148	C	1.532129	-0.911055	-0.326706
C149	C	1.865463	-0.577722	0.006627
C150	C	2.198796	-0.244389	0.339960
N151	N	1.587618	-0.932955	-0.271242
N152	N	1.920951	-0.599622	0.062092
N153	N	2.254285	-0.266289	0.395425
C154	C	1.444366	-0.911224	-0.653358
C155	C	1.777700	-0.577891	-0.320024
C156	C	2.111033	-0.244558	0.013309
N157	N	1.464602	-0.933247	-0.729102
N158	N	1.797935	-0.599914	-0.395769
N159	N	2.131268	-0.266581	-0.062435
