data_functionalizedCrystal
_audit_creation_method	'MofGen! by Chris Wilmer'
_symmetry_space_group_name_H-M	'P1'
_symmetry_Int_Tables_number	1
_symmetry_cell_setting	triclinic
loop_
_symmetry_equiv_pos_as_xyz
  x,y,z
_cell_length_a	11.169417
_cell_length_b	19.121449
_cell_length_c	11.169409
_cell_angle_alpha	87.522733
_cell_angle_beta	89.980487
_cell_angle_gamma	87.586540
loop_
_atom_site_label
_atom_site_type_symbol
_atom_site_fract_x
_atom_site_fract_y
_atom_site_fract_z
Zn1	Zn	1.855204	-0.279531	-0.658125
Zn2	Zn	1.863599	-0.397003	-0.448866
Zn3	Zn	1.654493	-0.279574	-0.457458
Zn4	Zn	1.662999	-0.396947	-0.649516
O5	O	1.759074	-0.338264	-0.553491
O6	O	2.024267	-0.295119	-0.630374
O7	O	1.835814	-0.381468	-0.282053
O8	O	1.674044	-0.181285	-0.491275
O9	O	2.030436	-0.381426	-0.476632
O10	O	1.821505	-0.181253	-0.638705
O11	O	1.682185	-0.295193	-0.288365
O12	O	1.487671	-0.295139	-0.482927
O13	O	1.688542	-0.381329	-0.818611
O14	O	1.493921	-0.381372	-0.624032
O15	O	1.829754	-0.295064	-0.824936
O16	O	1.844063	-0.495279	-0.468284
O17	O	1.696683	-0.495238	-0.615701
C18	C	1.447248	-0.338254	-0.553478
C19	C	1.313849	-0.338267	-0.553500
C20	C	1.772240	-0.520742	-0.540152
C21	C	1.777982	-0.598808	-0.534486
C22	C	1.703894	-0.635487	-0.608512
C23	C	1.709295	-0.708837	-0.603183
C24	C	1.788790	-0.745507	-0.523833
C25	C	1.862881	-0.708823	-0.449798
C26	C	1.857473	-0.635474	-0.455122
C27	C	1.808954	-0.966974	-0.503916
C28	C	1.814358	-1.040328	-0.498600
C29	C	1.660770	-1.040337	-0.651984
C30	C	1.655375	-0.966987	-0.657306
C31	C	1.729461	-0.930309	-0.583267
C32	C	1.794315	-0.820483	-0.518386
C33	C	1.723929	-0.855334	-0.588708
C34	C	2.072117	-0.338274	-0.553505
C35	C	2.205517	-0.338278	-0.553511
C36	C	1.759160	-0.338186	-0.866539
C37	C	1.759197	-0.338153	-0.999942
C38	C	1.745889	-0.155073	-0.566909
C39	C	1.740270	-0.077007	-0.572626
C40	C	1.759053	-0.338291	-0.241664
C41	C	1.759234	-0.338126	-0.108277
H42	H	1.639166	-0.605635	-0.673133
H43	H	1.869280	-0.937117	-0.443633
Cl44	Cl	1.894261	-0.866589	-0.418647
Cl45	Cl	1.567635	-1.086451	-0.745051
Cl46	Cl	1.555438	-0.920893	-0.757069
Cl47	Cl	1.914302	-1.086427	-0.398838
Cl48	Cl	1.962818	-0.754922	-0.350043
Cl49	Cl	1.616165	-0.754945	-0.696263
H50	H	1.917802	-0.605610	-0.394840
H51	H	1.659199	-0.825476	-0.653311
