data_functionalizedCrystal
_audit_creation_method	'MofGen! by Chris Wilmer'
_symmetry_space_group_name_H-M	'P1'
_symmetry_Int_Tables_number	1
_symmetry_cell_setting	triclinic
loop_
_symmetry_equiv_pos_as_xyz
  x,y,z
_cell_length_a	29.839125
_cell_length_b	12.594517
_cell_length_c	12.594516
_cell_angle_alpha	90.011108
_cell_angle_beta	90.008939
_cell_angle_gamma	90.018428
loop_
_atom_site_label
_atom_site_type_symbol
_atom_site_fract_x
_atom_site_fract_y
_atom_site_fract_z
Zn1	Zn	-0.254110	-1.627175	0.424032
Zn2	Zn	-0.178991	-1.627093	0.601988
Zn3	Zn	-0.178984	-1.449206	0.424009
Zn4	Zn	-0.254084	-1.449161	0.601953
O5	O	-0.216542	-1.538159	0.512996
O6	O	-0.244159	-1.776110	0.447662
O7	O	-0.116123	-1.603480	0.578384
O8	O	-0.188957	-1.472867	0.275066
O9	O	-0.188970	-1.776050	0.578406
O10	O	-0.244152	-1.603620	0.275083
O11	O	-0.116118	-1.472788	0.447623
O12	O	-0.188933	-1.300254	0.447589
O13	O	-0.316955	-1.472790	0.578346
O14	O	-0.244108	-1.300221	0.578324
O15	O	-0.316974	-1.603576	0.447628
O16	O	-0.188945	-1.603437	0.750929
O17	O	-0.244115	-1.472711	0.750904
C18	C	-0.216517	-1.261618	0.512951
C19	C	-0.216517	-1.143312	0.512958
C20	C	-0.186570	-1.003283	0.441763
C21	C	-0.227568	-1.074126	0.415864
C22	C	-0.175524	-1.074040	0.538809
C23	C	-0.257561	-1.003371	0.487035
C24	C	-0.205490	-1.003278	0.610025
C25	C	-0.246516	-1.074090	0.584163
C26	C	-0.333721	-1.538188	0.512986
C27	C	-0.383655	-1.538200	0.512982
C28	C	-0.693312	-1.606372	0.444739
C29	C	-0.880985	-1.606424	0.444648
O30	O	-0.905260	-1.664307	0.386726
N31	N	-0.904441	-1.538341	0.512697
C32	C	-0.880975	-1.470234	0.580768
O33	O	-0.905232	-1.412318	0.638638
C34	C	-0.693303	-1.470177	0.580853
C35	C	-0.669850	-1.538273	0.512807
C36	C	-0.669858	-1.674461	0.376698
C37	C	-0.622943	-1.674451	0.376725
C38	C	-0.599481	-1.606352	0.444794
C39	C	-0.622934	-1.538263	0.512835
C40	C	-0.669839	-1.402066	0.648918
C41	C	-0.622918	-1.402056	0.648932
C42	C	-0.599464	-1.470151	0.580886
C43	C	-0.552557	-1.470154	0.580931
N44	N	-0.529101	-1.538238	0.512882
C45	C	-0.552563	-1.606337	0.444813
C46	C	-0.979506	-1.470271	0.580721
C47	C	-1.026424	-1.470286	0.580701
C48	C	-1.026430	-1.606475	0.444579
C49	C	-0.979511	-1.606464	0.444605
C50	C	-0.956050	-1.538354	0.512672
C51	C	-0.454037	-1.606312	0.444877
C52	C	-0.407117	-1.606299	0.444913
C53	C	-0.407115	-1.470106	0.581031
C54	C	-0.454031	-1.470123	0.580999
C55	C	-0.477490	-1.538229	0.512913
O56	O	-0.528252	-1.412293	0.638814
O57	O	-0.528298	-1.664227	0.386935
C58	C	-0.740227	-1.606381	0.444711
C59	C	-0.763680	-1.538292	0.512752
C60	C	-0.740219	-1.470193	0.580821
C61	C	-0.810598	-1.538308	0.512733
C62	C	-0.834060	-1.606407	0.444664
C63	C	-0.810604	-1.674490	0.376615
C64	C	-0.763689	-1.674481	0.376643
C65	C	-0.763674	-1.402110	0.648870
C66	C	-0.810590	-1.402126	0.648838
C67	C	-0.834052	-1.470225	0.580769
C68	C	-0.099820	-1.538191	0.512928
C69	C	-0.049886	-1.538385	0.512633
C70	C	-0.216538	-1.538089	0.789537
C71	C	-0.216551	-1.538157	0.907842
C72	C	-0.216559	-0.815780	0.513022
C73	C	-0.216542	-0.934085	0.512984
C74	C	-0.216557	-1.538258	0.235375
C75	C	-0.216563	-1.538300	0.117069
C76	C	-0.246537	-1.467048	0.977120
C77	C	-0.205542	-1.441129	1.047954
C78	C	-0.257553	-1.564172	1.047807
C79	C	-0.175535	-1.512187	0.977118
C80	C	-0.227573	-1.635275	0.976965
C81	C	-0.186550	-1.609393	1.047767
H82	H	-0.388023	-1.661754	0.389501
H83	H	-0.196230	-1.359065	1.079159
F84	F	-0.153497	-0.962644	0.362996
H85	H	-0.196138	-0.972135	0.692078
F86	F	-0.239779	-1.114795	0.308583
H87	H	-1.045516	-1.414847	0.636122
F88	F	-0.694821	-1.746957	0.304253
F89	F	-0.130205	-1.483380	0.936705
F90	F	-0.954542	-1.397774	0.653173
H91	H	-0.292223	-1.586118	1.078858
H92	H	-0.473132	-1.661767	0.389431
F93	F	-0.597987	-1.746923	0.304295
H94	H	-0.161167	-1.669589	1.078592
F95	F	-0.130199	-1.114619	0.567375
F96	F	-0.279668	-1.114470	0.662876
F97	F	-0.954554	-1.678939	0.372181
F98	F	-0.302901	-0.962968	0.458344
H99	H	-1.045541	-1.661925	0.389156
F100	F	-0.694789	-1.329591	0.721347
H101	H	-0.236905	-1.717320	0.945762
H102	H	-0.603818	-1.346579	0.704350
F103	F	-0.478992	-1.397655	0.653427
H104	H	-0.388004	-1.414665	0.636454
F105	F	-0.738734	-1.746957	0.304218
H106	H	-0.829715	-1.729943	0.321195
F107	F	-0.835546	-1.329651	0.721274
F108	F	-0.738711	-1.329624	0.721320
F109	F	-0.279635	-1.388311	0.936570
