data_functionalizedCrystal
_audit_creation_method	'MofGen! by Chris Wilmer'
_symmetry_space_group_name_H-M	'P1'
_symmetry_Int_Tables_number	1
_symmetry_cell_setting	triclinic
loop_
_symmetry_equiv_pos_as_xyz
  x,y,z
_cell_length_a	14.908571
_cell_length_b	21.295417
_cell_length_c	14.908308
_cell_angle_alpha	86.739365
_cell_angle_beta	89.824947
_cell_angle_gamma	86.726349
loop_
_atom_site_label
_atom_site_type_symbol
_atom_site_fract_x
_atom_site_fract_y
_atom_site_fract_z
Zn1	Zn	1.345216	-0.328502	0.587528
Zn2	Zn	1.353772	-0.428068	0.437153
Zn3	Zn	1.203534	-0.316411	0.428528
Zn4	Zn	1.194800	-0.427320	0.578804
O5	O	1.274330	-0.375075	0.508003
O6	O	1.472175	-0.347082	0.574841
O7	O	1.341079	-0.408509	0.310185
O8	O	1.222403	-0.229930	0.449662
O9	O	1.478462	-0.420233	0.464361
O10	O	1.326496	-0.238813	0.566479
O11	O	1.230699	-0.326476	0.303848
O12	O	1.076551	-0.325750	0.441202
O13	O	1.207517	-0.418959	0.705785
O14	O	1.070134	-0.407235	0.551609
O15	O	1.318027	-0.346357	0.712195
O16	O	1.332609	-0.516054	0.455901
O17	O	1.215813	-0.515504	0.559972
C18	C	1.040717	-0.365100	0.494524
C19	C	0.940775	-0.360848	0.488779
C20	C	0.746349	-0.437828	0.592795
C21	C	0.652444	-0.433836	0.587400
C22	C	0.659060	-0.348868	0.472599
C23	C	0.752964	-0.352861	0.477994
C24	C	0.796605	-0.397343	0.538093
C25	C	0.890512	-0.401338	0.543483
C26	C	0.897125	-0.316368	0.428687
C27	C	0.803221	-0.312375	0.423292
C28	C	1.274215	-0.538620	0.507947
C29	C	1.274247	-0.608590	0.507957
C30	C	1.335110	-0.641726	0.453830
C31	C	1.335151	-0.707471	0.453852
C32	C	1.274313	-0.740076	0.507992
C33	C	1.213445	-0.706932	0.562131
C34	C	1.213412	-0.641189	0.562114
N35	N	1.195260	-0.840247	0.510308
N36	N	1.195295	-0.902701	0.510320
C37	C	1.274411	-0.938157	0.508050
N38	N	1.353494	-0.908801	0.505750
N39	N	1.353459	-0.846341	0.505734
C40	C	1.274343	-0.811364	0.508018
C41	C	1.335324	-1.042582	0.453944
C42	C	1.335366	-1.108328	0.453973
C43	C	1.213652	-1.107788	0.562246
C44	C	1.213618	-1.042043	0.562223
C45	C	1.274453	-1.009444	0.508066
C46	C	1.508856	-0.385090	0.521536
C47	C	1.608796	-0.389358	0.527303
C48	C	1.260843	-0.383923	0.742527
C49	C	1.255096	-0.387694	0.842467
C50	C	1.274469	-0.210894	0.508081
C51	C	1.274528	-0.140929	0.508114
C52	C	1.287817	-0.366218	0.274395
C53	C	1.293739	-0.362278	0.174465
C54	C	1.359367	-0.319164	1.036941
C55	C	1.353969	-0.322705	1.130844
C56	C	1.238899	-0.398312	1.124177
C57	C	1.244297	-0.394771	1.030274
C58	C	1.304533	-0.355197	0.986660
C59	C	1.309935	-0.351660	0.892756
C60	C	1.194861	-0.427263	0.886090
C61	C	1.189463	-0.430804	0.979993
H62	H	0.781883	-0.474051	0.641725
C63	C	0.655342	-0.518223	0.701416
C64	C	0.597202	-0.478339	0.647529
H65	H	0.621236	-0.545700	0.738535
H66	H	0.690007	-0.493690	0.737981
H67	H	0.694205	-0.542336	0.664273
H68	H	0.558343	-0.454222	0.684672
H69	H	0.562521	-0.502875	0.610960
C70	C	1.130096	-0.469804	1.120980
C71	C	1.123256	-0.474304	1.027940
H72	H	1.089226	-0.496664	1.150577
H73	H	1.116079	-0.427534	1.135621
H74	H	1.189622	-0.482172	1.139842
H75	H	1.063732	-0.461931	1.009077
H76	H	1.137267	-0.516583	1.013292
H77	H	0.623510	-0.312649	0.423674
C78	C	1.188366	-0.507423	0.779738
C79	C	1.134579	-0.466874	0.830821
H80	H	1.151152	-0.531874	0.745615
H81	H	1.225409	-0.534550	0.818622
H82	H	1.225006	-0.483343	0.740322
H83	H	1.097944	-0.490954	0.870242
H84	H	1.097521	-0.439744	0.791933
C85	C	0.910698	-0.439123	0.697322
C86	C	0.938488	-0.450228	0.609546
H87	H	0.940319	-0.469304	0.738108
H88	H	0.847587	-0.442542	0.701931
H89	H	0.925355	-0.397995	0.711458
H90	H	0.923824	-0.491355	0.595407
H91	H	1.001613	-0.446815	0.604933
C92	C	0.662208	-0.268524	0.364050
C93	C	0.755244	-0.263482	0.357234
H94	H	0.632593	-0.238341	0.323264
H95	H	0.643371	-0.261000	0.423598
H96	H	0.647562	-0.309651	0.349897
H97	H	0.769890	-0.222356	0.371394
H98	H	0.774088	-0.271002	0.297673
H99	H	0.938054	-0.283403	0.384142
C100	C	1.455427	-0.648869	0.346814
C101	C	1.401991	-0.605895	0.394315
H102	H	1.496721	-0.626747	0.310080
H103	H	1.418271	-0.671574	0.310135
H104	H	1.487538	-0.677426	0.388018
H105	H	1.369874	-0.577341	0.353112
H106	H	1.439151	-0.583180	0.430998
H107	H	1.358984	-0.319437	0.857246
H108	H	1.384862	-1.016039	0.409849
H109	H	1.189857	-0.430531	1.159704
C110	C	1.456837	-0.786045	0.448411
C111	C	1.402032	-0.743911	0.394333
H112	H	1.498122	-0.808539	0.411661
H113	H	1.420610	-0.814860	0.480666
H114	H	1.488959	-0.763309	0.489573
H115	H	1.369906	-0.766648	0.353176
H116	H	1.438264	-0.715093	0.362063
H117	H	1.163912	-0.733484	0.606214
C118	C	1.418743	-0.280176	0.895953
C119	C	1.425584	-0.275672	0.988993
H120	H	1.459629	-0.253328	0.866355
H121	H	1.359230	-0.267799	0.877089
H122	H	1.432747	-0.322454	0.881317
H123	H	1.411573	-0.233394	1.003630
H124	H	1.485110	-0.288045	1.007864
H125	H	1.163849	-0.614209	0.606192
H126	H	1.384934	-1.135307	0.409897
H127	H	1.164120	-1.134335	0.606333
H128	H	1.164053	-1.015062	0.606295
C129	C	1.468257	-0.247620	1.127998
C130	C	1.414248	-0.283100	1.186114
H131	H	1.505475	-0.223171	1.162122
H132	H	1.431205	-0.220490	1.089127
H133	H	1.504732	-0.275138	1.093341
H134	H	1.377768	-0.255581	1.220767
H135	H	1.451304	-0.310232	1.225001
