data_functionalizedCrystal
_audit_creation_method	'MofGen! by Chris Wilmer'
_symmetry_space_group_name_H-M	'P1'
_symmetry_Int_Tables_number	1
_symmetry_cell_setting	triclinic
loop_
_symmetry_equiv_pos_as_xyz
  x,y,z
_cell_length_a	14.908783
_cell_length_b	16.120444
_cell_length_c	14.908308
_cell_angle_alpha	95.986749
_cell_angle_beta	89.788727
_cell_angle_gamma	96.376156
loop_
_atom_site_label
_atom_site_type_symbol
_atom_site_fract_x
_atom_site_fract_y
_atom_site_fract_z
Zn1	Zn	1.328315	-0.293307	-0.602926
Zn2	Zn	1.828315	0.206693	-0.102926
Zn3	Zn	1.329261	-0.425029	-0.459346
Zn4	Zn	1.829261	0.074971	0.040654
Zn5	Zn	1.186681	-0.292400	-0.443851
Zn6	Zn	1.686681	0.207600	0.056149
Zn7	Zn	1.169356	-0.441087	-0.601794
Zn8	Zn	1.669356	0.058913	-0.101794
O9	O	1.253403	-0.362956	-0.526979
O10	O	1.753403	0.137044	-0.026979
O11	O	1.454636	-0.304440	-0.590838
O12	O	1.954636	0.195560	-0.090838
O13	O	1.317994	-0.400335	-0.331102
O14	O	1.817994	0.099665	0.168898
O15	O	1.212323	-0.175169	-0.458941
O16	O	1.712323	0.324831	0.041059
O17	O	1.455331	-0.401215	-0.485350
O18	O	1.955331	0.098785	0.014650
O19	O	1.316381	-0.175835	-0.575813
O20	O	1.816381	0.324165	-0.075813
O21	O	1.213241	-0.302893	-0.319717
O22	O	1.713241	0.197107	0.180283
O23	O	1.058187	-0.318464	-0.457844
O24	O	1.558187	0.181536	0.042156
O25	O	1.182796	-0.428584	-0.728133
O26	O	1.682796	0.071416	-0.228133
O27	O	1.045459	-0.427704	-0.573884
O28	O	1.545459	0.072296	-0.073884
O29	O	1.299582	-0.320011	-0.728964
O30	O	1.799582	0.179989	-0.228964
O31	O	1.301195	-0.544511	-0.484253
O32	O	1.801195	-0.044511	0.015747
O33	O	1.183713	-0.556308	-0.588909
O34	O	1.683713	-0.056308	-0.088909
C35	C	1.240700	-0.580837	-0.538160
C36	C	1.740700	-0.080837	-0.038160
C37	C	1.235346	-0.674045	-0.542978
C38	C	1.735346	-0.174045	-0.042978
C39	C	1.019102	-0.374729	-0.514060
C40	C	1.519102	0.125271	-0.014060
C41	C	0.918864	-0.379786	-0.508555
C42	C	1.418864	0.120214	-0.008555
C43	C	0.729762	-0.288675	-0.608240
C44	C	1.229762	0.211325	-0.108240
C45	C	0.635580	-0.293425	-0.603071
C46	C	1.135580	0.206575	-0.103071
C47	C	0.636317	-0.394030	-0.493044
C48	C	1.136317	0.105970	0.006956
C49	C	0.730499	-0.389280	-0.498213
C50	C	1.230499	0.110720	0.001787
C51	C	0.777218	-0.336602	-0.555814
C52	C	1.277218	0.163398	-0.055814
C53	C	0.871402	-0.331858	-0.560988
C54	C	1.371402	0.168142	-0.060988
C55	C	0.872137	-0.432458	-0.450956
C56	C	1.372137	0.067542	0.049044
C57	C	0.777955	-0.437207	-0.445787
C58	C	1.277955	0.062793	0.054213
C59	C	1.281385	-0.880361	-0.502191
C60	C	1.781385	-0.380361	-0.002191
C61	C	1.225587	-0.844692	-0.551785
C62	C	1.725587	-0.344692	-0.051785
C63	C	1.231019	-0.749735	-0.546884
C64	C	1.731019	-0.249735	-0.046884
C65	C	1.275955	-0.975326	-0.507092
C66	C	1.775955	-0.475326	-0.007092
C67	C	1.488619	-0.351138	-0.539949
C68	C	1.988619	0.148862	-0.039949
C69	C	1.588854	-0.346101	-0.545476
C70	C	2.088854	0.153899	-0.045476
C71	C	1.239151	-0.376190	-0.762183
C72	C	1.739151	0.123810	-0.262183
C73	C	1.233077	-0.381829	-0.862413
C74	C	1.733077	0.118171	-0.362413
C75	C	1.266179	-0.144223	-0.515775
C76	C	1.766179	0.355777	-0.015775
C77	C	1.271624	-0.051013	-0.511001
C78	C	1.771624	0.448987	-0.011001
C79	C	1.343273	-0.279350	-1.051622
C80	C	1.843273	0.220650	-0.551622
C81	C	1.337569	-0.284646	-1.145797
C82	C	1.837569	0.215354	-0.645797
C83	C	1.215963	-0.397712	-1.144938
C84	C	1.715963	0.102288	-0.644938
C85	C	1.221666	-0.392416	-1.050763
C86	C	1.721666	0.107584	-0.550763
C87	C	1.285324	-0.333234	-1.004109
C88	C	1.785324	0.166766	-0.504109
C89	C	1.291032	-0.327943	-0.909932
C90	C	1.791032	0.172057	-0.409932
C91	C	1.169422	-0.441004	-0.909075
C92	C	1.669422	0.058996	-0.409075
C93	C	1.163718	-0.446300	-1.003250
C94	C	1.663718	0.053700	-0.503250
C95	C	1.267655	-0.349710	-0.292690
C96	C	1.767655	0.150290	0.207310
C97	C	1.273917	-0.343826	-0.192458
C98	C	1.773917	0.156174	0.307542
H99	H	0.909439	-0.288965	-0.607890
H100	H	1.409439	0.211035	-0.107890
N101	N	1.346411	-0.829200	-0.444306
N102	N	1.846411	-0.329200	0.055694
N103	N	1.320937	-0.778721	-0.382607
N104	N	1.820937	-0.278721	0.117393
H105	H	1.366859	-0.742578	-0.341724
H106	H	1.866859	-0.242578	0.158276
N107	N	1.356062	-0.267492	-0.862288
N108	N	1.856062	0.232508	-0.362288
N109	N	1.407795	-0.219385	-0.904726
N110	N	1.907795	0.280615	-0.404726
H111	H	1.453724	-0.176688	-0.871080
H112	H	1.953724	0.323312	-0.371080
N113	N	1.150926	-0.458130	-1.192621
N114	N	1.650926	0.041870	-0.692621
N115	N	1.092017	-0.434432	-1.240484
N116	N	1.592017	0.065568	-0.740484
H117	H	1.046081	-0.477095	-1.274167
H118	H	1.546081	0.022905	-0.774167
H119	H	0.598263	-0.436908	-0.446138
H120	H	1.098263	0.063092	0.053862
N121	N	0.587094	-0.244472	-0.656616
N122	N	1.087094	0.255528	-0.156616
N123	N	0.539560	-0.191861	-0.619353
N124	N	1.039560	0.308139	-0.119353
H125	H	0.505315	-0.157285	-0.657171
H126	H	1.005315	0.342715	-0.157171
N127	N	0.920613	-0.481405	-0.397385
N128	N	1.420613	0.018595	0.102615
N129	N	0.915448	-0.471577	-0.313316
N130	N	1.415448	0.028423	0.186684
H131	H	0.949684	-0.506146	-0.275483
H132	H	1.449684	-0.006146	0.224517
H133	H	1.395110	-0.231166	-1.013635
H134	H	1.895110	0.268834	-0.513635
N135	N	1.396763	-0.229594	-1.194316
N136	N	1.896763	0.270406	-0.694316
N137	N	1.453590	-0.176756	-1.152644
N138	N	1.953590	0.323244	-0.652644
H139	H	1.495397	-0.137871	-1.186910
H140	H	1.995397	0.362129	-0.686910
N141	N	0.777476	-0.234873	-0.667087
N142	N	1.277476	0.265127	-0.167087
N143	N	0.735092	-0.192088	-0.713897
N144	N	1.235092	0.307912	-0.213897
H145	H	0.768788	-0.154088	-0.755459
H146	H	1.268788	0.345912	-0.255459
N147	N	0.730215	-0.491005	-0.386952
N148	N	1.230215	0.008995	0.113048
N149	N	0.646125	-0.495237	-0.382340
N150	N	1.146125	0.004763	0.117660
H151	H	0.612409	-0.533233	-0.340788
H152	H	1.112409	-0.033233	0.159212
H153	H	1.173738	-0.885469	-0.597925
H154	H	1.673738	-0.385469	-0.097925
H155	H	1.111888	-0.494483	-1.041249
H156	H	1.611888	0.005517	-0.541249
H157	H	1.122238	-0.484883	-0.870381
H158	H	1.622238	0.015117	-0.370381
