data_functionalizedCrystal
_audit_creation_method	'MofGen! by Chris Wilmer'
_symmetry_space_group_name_H-M	'P1'
_symmetry_Int_Tables_number	1
_symmetry_cell_setting	triclinic
loop_
_symmetry_equiv_pos_as_xyz
  x,y,z
_cell_length_a	15.944551
_cell_length_b	17.699083
_cell_length_c	16.776229
_cell_angle_alpha	90.002452
_cell_angle_beta	89.994852
_cell_angle_gamma	96.609123
loop_
_atom_site_label
_atom_site_type_symbol
_atom_site_fract_x
_atom_site_fract_y
_atom_site_fract_z
O1	O	0.106207	-1.004258	0.066178
O2	O	0.606207	-0.504258	0.566178
O3	O	0.120026	-0.783903	0.066204
O4	O	0.620026	-0.283903	0.566204
O5	O	-0.009171	-0.900098	0.066183
O6	O	0.490829	-0.400098	0.566183
O7	O	0.235404	-0.888063	0.066199
O8	O	0.735404	-0.388063	0.566199
O9	O	-0.009148	-0.900087	-0.066393
O10	O	0.490852	-0.400087	0.433607
O11	O	0.120049	-0.783892	-0.066372
O12	O	0.620049	-0.283892	0.433628
O13	O	0.106229	-1.004247	-0.066398
O14	O	0.606229	-0.504247	0.433602
Zn15	Zn	0.113143	-0.894068	-0.087435
Zn16	Zn	0.613143	-0.394068	0.412565
Zn17	Zn	0.113113	-0.894082	0.087241
Zn18	Zn	0.613113	-0.394082	0.587241
O19	O	0.235426	-0.888052	-0.066377
O20	O	0.735426	-0.388052	0.433623
C21	C	0.119542	-0.755700	-0.000080
C22	C	0.619542	-0.255700	0.499920
C23	C	0.118057	-0.671679	-0.000071
C24	C	0.618057	-0.171679	0.499929
C25	C	-0.040453	-0.899593	-0.000105
C26	C	0.459547	-0.399593	0.499895
C27	C	-0.133696	-0.898095	-0.000105
C28	C	0.366304	-0.398095	0.499895
C29	C	0.106713	-1.032450	-0.000112
C30	C	0.606713	-0.532450	0.499888
C31	C	0.108199	-1.116471	-0.000116
C32	C	0.608199	-0.616471	0.499884
C33	C	-0.348393	-0.822492	-0.000085
C34	C	0.151607	-0.322492	0.499915
C35	C	-0.409473	-0.857594	-0.065458
C36	C	0.090527	-0.357594	0.434542
C37	C	-0.304416	-0.895385	-0.000099
C38	C	0.195584	-0.395385	0.499901
C39	C	-0.409479	-0.857622	0.065252
C40	C	0.090521	-0.357622	0.565252
C41	C	-0.469323	-0.892762	-0.000089
C42	C	0.030677	-0.392762	0.499911
C43	C	-0.364268	-0.930507	-0.065525
C44	C	0.135732	-0.430507	0.434475
C45	C	-0.364267	-0.930525	0.065244
C46	C	0.135733	-0.430525	0.565244
C47	C	-0.425329	-0.965680	-0.000145
C48	C	0.074671	-0.465680	0.499855
C49	C	-0.209417	-0.896894	-0.000105
C50	C	0.290583	-0.396894	0.499895
C51	C	-0.564321	-0.891259	-0.000089
C52	C	-0.064321	-0.391259	0.499911
C53	C	0.266708	-0.888557	-0.000087
C54	C	0.766708	-0.388557	0.499913
C55	C	0.359951	-0.890055	-0.000082
C56	C	0.859951	-0.390055	0.499918
N57	N	0.113162	-0.894064	-0.206646
N58	N	0.613162	-0.394064	0.293354
C59	C	0.193893	-0.623187	-0.000066
C60	C	0.693893	-0.123187	0.499934
C61	C	0.192492	-0.544242	-0.000076
C62	C	0.692492	-0.044242	0.499924
C63	C	0.115254	-0.513789	-0.000086
C64	C	0.615254	-0.013789	0.499914
C65	C	0.039412	-0.562287	-0.000093
C66	C	0.539412	-0.062287	0.499907
C67	C	0.040814	-0.641231	-0.000088
C68	C	0.540814	-0.141231	0.499912
C69	C	0.033758	-0.243914	-0.000113
C70	C	0.533758	0.256086	0.499887
C71	C	0.032362	-0.164964	-0.000115
C72	C	0.532362	0.335036	0.499885
C73	C	0.185436	-0.146925	-0.000101
C74	C	0.685436	0.353075	0.499899
C75	C	0.186837	-0.225869	-0.000096
C76	C	0.686837	0.274131	0.499904
C77	C	0.110996	-0.274360	-0.000108
C78	C	0.610996	0.225640	0.499892
C79	C	0.112516	-0.359962	-0.000098
C80	C	0.612516	0.140038	0.499902
C81	C	0.113733	-0.428189	-0.000090
C82	C	0.613733	0.071811	0.499910
C83	C	0.062213	-0.848187	-0.751815
C84	C	0.562213	-0.348187	-0.251815
C85	C	0.062220	-0.848186	-0.668363
C86	C	0.562220	-0.348186	-0.168363
C87	C	0.113106	-0.894085	-0.626645
C88	C	0.613106	-0.394085	-0.126645
C89	C	0.163982	-0.939995	-0.668384
C90	C	0.663982	-0.439995	-0.168384
C91	C	0.163969	-0.940000	-0.751834
C92	C	0.663969	-0.440000	-0.251834
C93	C	0.164031	-0.939975	-0.331837
C94	C	0.664031	-0.439975	0.168163
C95	C	0.164041	-0.939965	-0.248380
C96	C	0.664041	-0.439965	0.251620
C97	C	0.062281	-0.848161	-0.248365
C98	C	0.562281	-0.348161	0.251635
C99	C	0.062269	-0.848166	-0.331816
C100	C	0.562269	-0.348166	0.168184
C101	C	0.113141	-0.894079	-0.373547
C102	C	0.613141	-0.394079	0.126453
C103	C	0.113132	-0.894081	-0.464036
C104	C	0.613132	-0.394081	0.035964
C105	C	0.113120	-0.894079	-0.536158
C106	C	0.613120	-0.394079	-0.036158
N107	N	0.113086	-0.894092	0.206452
N108	N	0.613086	-0.394092	0.706452
H109	H	-0.314958	-0.761987	-0.000143
H110	H	0.185042	-0.261987	0.499857
C111	C	-0.078390	-0.818428	-0.222651
C112	C	0.421610	-0.318428	0.277349
C113	C	0.006353	-0.797696	-0.202493
C114	C	0.506353	-0.297696	0.297507
H115	H	-0.112912	-0.787269	-0.194335
H116	H	0.387088	-0.287269	0.305665
H117	H	-0.094065	-0.870202	-0.208966
H118	H	0.405935	-0.370202	0.291034
H119	H	-0.085665	-0.811860	-0.278323
H120	H	0.414335	-0.311860	0.221677
H121	H	0.013630	-0.804269	-0.146821
H122	H	0.513630	-0.304269	0.353179
H123	H	0.022033	-0.745910	-0.216172
H124	H	0.522033	-0.245910	0.283828
C125	C	0.057147	-0.746380	-0.425664
C126	C	0.557147	-0.246380	0.074336
C127	C	0.006333	-0.797713	-0.377671
C128	C	0.506333	-0.297713	0.122329
H129	H	0.022610	-0.715231	-0.453968
H130	H	0.522610	-0.215231	0.046032
H131	H	0.087438	-0.773720	-0.462459
H132	H	0.587438	-0.273720	0.037541
H133	H	0.095846	-0.715365	-0.393110
H134	H	0.595846	-0.215365	0.106890
H135	H	-0.032363	-0.828731	-0.410226
H136	H	0.467637	-0.328731	0.089774
H137	H	-0.023972	-0.770370	-0.340872
H138	H	0.476028	-0.270370	0.159128
H139	H	0.256789	-0.647975	-0.000058
H140	H	0.756789	-0.147975	0.499942
C141	C	0.343943	-0.534340	-0.000050
C142	C	0.843943	-0.034340	0.499950
C143	C	0.275854	-0.490940	-0.000068
C144	C	0.775854	0.009060	0.499932
H145	H	0.395408	-0.501432	-0.000041
H146	H	0.895408	-0.001432	0.499959
H147	H	0.341317	-0.565510	-0.046277
H148	H	0.841317	-0.065510	0.453723
H149	H	0.341288	-0.565504	0.046188
H150	H	0.841288	-0.065504	0.546188
H151	H	0.278506	-0.459780	-0.046309
H152	H	0.778506	0.040220	0.453691
H153	H	0.278482	-0.459757	0.046164
H154	H	0.778482	0.040243	0.546164
H155	H	0.205396	-0.977381	-0.785812
H156	H	0.705396	-0.477381	-0.285812
H157	H	-0.458615	-1.026238	-0.000189
H158	H	0.041385	-0.526238	0.499811
C159	C	-0.359733	-0.933839	0.208237
C160	C	0.140267	-0.433839	0.708237
C161	C	-0.337180	-0.972115	0.139844
C162	C	0.162820	-0.472115	0.639844
H163	H	-0.343003	-0.959509	0.254295
H164	H	0.156997	-0.459509	0.754295
H165	H	-0.419153	-0.932792	0.209038
H166	H	0.080847	-0.432792	0.709038
H167	H	-0.332326	-0.883258	0.207765
H168	H	0.167674	-0.383258	0.707765
H169	H	-0.364592	-1.022694	0.140313
H170	H	0.135408	-0.522694	0.640313
H171	H	-0.277749	-0.973170	0.139043
H172	H	0.222251	-0.473170	0.639043
H173	H	0.020780	-0.810807	-0.785776
H174	H	0.520780	-0.310807	-0.285776
H175	H	0.249732	-0.250659	-0.000085
H176	H	0.749732	0.249341	0.499915
C177	C	0.251270	-0.017897	-0.000112
C178	C	0.751270	0.482103	0.499888
C179	C	0.268805	-0.093621	-0.000100
C180	C	0.768805	0.406379	0.499900
H181	H	0.302738	0.015007	-0.000114
H182	H	0.802738	0.515007	0.499886
H183	H	0.219589	-0.008664	0.046112
H184	H	0.719589	0.491336	0.546112
H185	H	0.219603	-0.008678	-0.046353
H186	H	0.719603	0.491322	0.453647
H187	H	0.300467	-0.102842	0.046144
H188	H	0.800467	0.397158	0.546144
H189	H	0.300499	-0.102858	-0.046329
H190	H	0.800499	0.397142	0.453671
H191	H	-0.429500	-0.826786	0.120524
H192	H	0.070500	-0.326786	0.620524
C193	C	-0.412584	-0.853423	-0.208473
C194	C	0.087416	-0.353423	0.291527
C195	C	-0.436527	-0.815971	-0.140055
C196	C	0.063473	-0.315971	0.359945
H197	H	-0.429280	-0.827721	-0.254523
H198	H	0.070720	-0.327721	0.245477
H199	H	-0.439192	-0.904275	-0.208545
H200	H	0.060808	-0.404275	0.291455
H201	H	-0.353038	-0.853662	-0.208756
H202	H	0.146962	-0.353662	0.291244
H203	H	-0.496074	-0.815738	-0.139770
H204	H	0.003926	-0.315738	0.360230
H205	H	-0.409921	-0.765106	-0.139984
H206	H	0.090079	-0.265106	0.360016
H207	H	-0.344332	-0.961308	-0.120853
H208	H	0.155668	-0.461308	0.379147
C209	C	-0.053488	-0.343146	0.068039
C210	C	0.446512	0.156854	0.568039
C211	C	-0.049607	-0.297207	-0.000114
C212	C	0.450393	0.202793	0.499886
H213	H	-0.104955	-0.376051	0.068036
H214	H	0.395045	0.123949	0.568036
H215	H	-0.050858	-0.311970	0.114261
H216	H	0.449142	0.188030	0.614261
H217	H	-0.007288	-0.372582	0.068033
H218	H	0.492712	0.127418	0.568033
H219	H	-0.095804	-0.267767	-0.000105
H220	H	0.404196	0.232233	0.499895
H221	H	-0.052246	-0.328387	-0.046348
H222	H	0.447754	0.171613	0.453652
C223	C	-0.118818	-0.190721	-0.000148
C224	C	0.381182	0.309279	0.499852
C225	C	-0.052545	-0.131489	-0.000134
C226	C	0.447455	0.368511	0.499866
H227	H	-0.171231	-0.170053	-0.000164
H228	H	0.328769	0.329947	0.499836
H229	H	-0.115105	-0.221134	0.046083
H230	H	0.384895	0.278866	0.546083
H231	H	-0.115070	-0.221140	-0.046382
H232	H	0.384930	0.278860	0.453618
H233	H	-0.056289	-0.101073	0.046104
H234	H	0.443711	0.398927	0.546104
H235	H	-0.056260	-0.101063	-0.046369
H236	H	0.443740	0.398937	0.453631
H237	H	-0.023476	-0.537486	-0.000112
H238	H	0.476524	-0.037486	0.499888
H239	H	0.205481	-0.977344	-0.214416
H240	H	0.705481	-0.477344	0.285584
C241	C	-0.110639	-0.651138	-0.000090
C242	C	0.389361	-0.151138	0.499910
C243	C	-0.042547	-0.694536	-0.000086
C244	C	0.457453	-0.194536	0.499914
H245	H	-0.162103	-0.684047	-0.000085
H246	H	0.337897	-0.184047	0.499915
H247	H	-0.107996	-0.619977	-0.046321
H248	H	0.392004	-0.119977	0.453679
H249	H	-0.108002	-0.619965	0.046144
H250	H	0.391998	-0.119965	0.546144
H251	H	-0.045181	-0.725705	-0.046323
H252	H	0.454819	-0.225705	0.453677
H253	H	-0.045192	-0.725710	0.046150
H254	H	0.454808	-0.225710	0.546150
H255	H	0.020791	-0.810808	-0.634388
H256	H	0.520791	-0.310808	-0.134388
H257	H	0.205455	-0.977360	-0.365804
H258	H	0.705455	-0.477360	0.134196
H259	H	0.205410	-0.977371	-0.634410
H260	H	0.705410	-0.477371	-0.134410
