data_functionalizedCrystal
_audit_creation_method	'MofGen! by Chris Wilmer'
_symmetry_space_group_name_H-M	'P1'
_symmetry_Int_Tables_number	1
_symmetry_cell_setting	triclinic
loop_
_symmetry_equiv_pos_as_xyz
  x,y,z
_cell_length_a	16.109301
_cell_length_b	15.186229
_cell_length_c	16.109295
_cell_angle_alpha	90.000628
_cell_angle_beta	83.460334
_cell_angle_gamma	90.000638
loop_
_atom_site_label
_atom_site_type_symbol
_atom_site_fract_x
_atom_site_fract_y
_atom_site_fract_z
O1	O	-1.103128	-0.073167	-0.106866
O2	O	-0.861066	-0.073180	-0.120166
O3	O	-0.988749	-0.073174	0.007515
O4	O	-0.975445	-0.073173	-0.234547
O5	O	-0.988741	0.073283	0.007517
O6	O	-0.861058	0.073277	-0.120164
O7	O	-1.103120	0.073291	-0.106865
Zn8	Zn	-0.982087	0.096537	-0.113514
Zn9	Zn	-0.982099	-0.096427	-0.113516
O10	O	-0.975437	0.073285	-0.234546
C11	C	-0.830087	0.000047	-0.119626
C12	C	-0.737792	0.000042	-0.118011
N13	N	-0.982086	0.228230	-0.113512
C14	C	-0.988207	0.000052	0.038491
C15	C	-0.986594	0.000046	0.130787
C16	C	-1.134099	0.000062	-0.107404
C17	C	-1.226394	0.000061	-0.109019
C18	C	-0.515518	0.000052	-0.190019
C19	C	-0.428798	0.000058	-0.188495
C20	C	-0.448675	0.000053	-0.037006
C21	C	-0.535394	0.000054	-0.038531
C22	C	-0.568813	0.000049	-0.115040
C23	C	-0.395374	0.000054	-0.111991
C24	C	-0.301348	0.000060	-0.110338
C25	C	-0.662845	0.000044	-0.116693
N26	N	-0.982107	-0.228119	-0.113512
C27	C	-1.038643	0.453955	-0.056994
C28	C	-1.038646	0.546145	-0.056992
C29	C	-0.925543	0.546149	-0.170033
C30	C	-0.925538	0.453961	-0.170030
C31	C	-0.982092	0.407866	-0.113511
C32	C	-0.982101	0.592244	-0.113512
C33	C	-0.982103	0.692200	-0.113510
C34	C	-0.982089	0.307904	-0.113512
C35	C	-1.058606	0.000017	0.353060
C36	C	-1.057084	0.000003	0.439780
C37	C	-0.905595	-0.000001	0.419906
C38	C	-0.907118	0.000007	0.333187
C39	C	-0.983626	0.000021	0.299766
C40	C	-0.980580	-0.000002	0.473206
C41	C	-0.978929	-0.000018	0.567232
C42	C	-0.985277	0.000035	0.205734
C43	C	-0.975984	0.000035	0.734479
C44	C	-0.977612	-0.000027	0.642186
H45	H	-0.385408	0.000062	-0.249551
H46	H	-1.084694	0.583668	-0.010969
H47	H	-0.846056	0.000007	0.289793
C48	C	-0.412228	0.000005	0.045973
C49	C	-0.324876	-0.000020	0.031263
C50	C	-0.291275	-0.000079	0.107685
H51	H	-0.430429	0.051063	0.076912
H52	H	-0.430479	-0.051090	0.076849
H53	H	-0.306633	0.051069	0.000400
H54	H	-0.306652	-0.051074	0.000337
H55	H	-0.309526	-0.051174	0.138561
H56	H	-0.309483	0.050980	0.138618
H57	H	-0.232004	-0.000104	0.097714
C58	C	-0.551918	0.000191	-0.273023
C59	C	-0.601141	0.075527	-0.278311
C60	C	-0.634693	0.075680	-0.354758
H61	H	-0.507842	0.000239	-0.317531
H62	H	-0.585380	-0.050857	-0.276777
H63	H	-0.567681	0.126561	-0.274565
H64	H	-0.645231	0.075494	-0.233820
H65	H	-0.668155	0.024632	-0.358512
H66	H	-0.590611	0.075726	-0.399261
H67	H	-0.668101	0.126790	-0.358353
H68	H	-0.879483	0.416433	-0.216054
H69	H	-0.578789	0.000054	0.022530
C70	C	-1.100074	0.404068	0.004467
C71	C	-1.149584	0.464167	0.053978
C72	C	-1.206175	0.418247	0.110615
H73	H	-1.134752	0.368098	-0.025351
H74	H	-1.070196	0.368129	0.039131
H75	H	-1.179460	0.500091	0.019318
H76	H	-1.114929	0.500140	0.083813
H77	H	-1.176296	0.382308	0.145279
H78	H	-1.240846	0.382278	0.080791
H79	H	-1.239768	0.459017	0.144220
H80	H	-0.879499	0.583688	-0.216050
H81	H	-1.120904	0.000027	0.325852
C82	C	-1.138556	-0.000135	0.497543
C83	C	-1.184637	-0.075467	0.482416
C84	C	-1.259702	-0.075620	0.535602
H85	H	-1.126815	-0.000190	0.554005
H86	H	-1.169970	0.050915	0.487407
H87	H	-1.153230	-0.126505	0.492558
H88	H	-1.196400	-0.075428	0.425964
H89	H	-1.291115	-0.024570	0.525466
H90	H	-1.247952	-0.075673	0.592062
H91	H	-1.290980	-0.126727	0.525341
C92	C	-0.822616	0.000039	0.456355
C93	C	-0.837328	0.000057	0.543707
C94	C	-0.760908	0.000109	0.577309
H95	H	-0.791680	-0.051019	0.438149
H96	H	-0.791737	0.051134	0.438110
H97	H	-0.868194	-0.051033	0.561944
H98	H	-0.868252	0.051111	0.561935
H99	H	-0.730029	0.051204	0.559064
H100	H	-0.729977	-0.050950	0.559097
H101	H	-0.770879	0.000129	0.636580
