data_functionalizedCrystal
_audit_creation_method	'MofGen! by Chris Wilmer'
_symmetry_space_group_name_H-M	'P1'
_symmetry_Int_Tables_number	1
_symmetry_cell_setting	triclinic
loop_
_symmetry_equiv_pos_as_xyz
  x,y,z
_cell_length_a	16.109318
_cell_length_b	17.019294
_cell_length_c	14.586319
_cell_angle_alpha	86.117240
_cell_angle_beta	90.000075
_cell_angle_gamma	83.431560
loop_
_atom_site_label
_atom_site_type_symbol
_atom_site_fract_x
_atom_site_fract_y
_atom_site_fract_z
O1	O	1.103030	0.101460	-0.084173
O2	O	0.860959	0.114064	-0.085186
O3	O	0.988748	-0.007072	-0.075609
O4	O	0.975242	0.222596	-0.093750
O5	O	0.988739	-0.007074	0.076872
O6	O	0.860950	0.114062	0.067295
O7	O	1.103022	0.101458	0.068308
Cu8	Cu	0.981985	0.107760	0.081724
Cu9	Cu	0.981996	0.107762	-0.098602
O10	O	0.975233	0.222594	0.058731
C11	C	0.829980	0.113550	-0.008907
C12	C	0.737687	0.112012	-0.008793
C13	C	0.438623	0.107046	-0.091502
C14	C	0.525343	0.108486	-0.091621
C15	C	0.525352	0.108473	0.074623
C16	C	0.438634	0.107028	0.074742
C17	C	0.395272	0.106318	-0.008324
C18	C	0.568709	0.109204	-0.008562
C19	C	0.662735	0.110765	-0.008691
C20	C	0.301240	0.104756	-0.008195
C21	C	0.988231	-0.036462	0.002951
C22	C	0.986695	-0.124032	0.009862
C23	C	0.985980	-0.165167	-0.070008
C24	C	0.984531	-0.247448	-0.063512
C25	C	0.983803	-0.288593	0.022856
C26	C	0.984516	-0.247452	0.102731
C27	C	0.985959	-0.165172	0.096234
C28	C	0.979441	-0.537025	0.046631
C29	C	0.978001	-0.619311	0.053122
C30	C	0.978014	-0.619301	-0.113122
C31	C	0.979462	-0.537020	-0.119611
C32	C	0.980170	-0.495886	-0.039735
C33	C	0.982325	-0.372697	0.029498
C34	C	0.981643	-0.411782	-0.046379
C35	C	1.134000	0.101972	-0.007972
C36	C	1.226293	0.103510	-0.008093
C37	C	0.975749	0.251984	-0.019831
C38	C	0.977286	0.339554	-0.026748
N39	N	0.981984	0.107758	0.208556
N40	N	0.982003	0.107758	-0.225433
C41	C	1.038587	0.054137	0.447802
C42	C	1.038590	0.054135	0.543784
C43	C	0.925394	0.161381	0.535314
C44	C	0.925388	0.161379	0.439334
C45	C	0.981990	0.107758	0.395581
C46	C	0.981998	0.107758	0.587542
C47	C	0.982000	0.107757	0.691609
C48	C	0.981987	0.107758	0.291507
H49	H	0.403320	0.106468	-0.159139
F50	F	0.571477	0.109258	-0.180151
F51	F	0.865143	0.218449	0.383753
H52	H	0.560668	0.109053	0.142251
H53	H	0.403337	0.106434	0.142479
F54	F	0.982419	-0.367992	-0.138294
H55	H	0.986577	-0.131674	-0.140338
H56	H	1.084674	0.010474	0.412181
H57	H	0.983952	-0.280937	-0.128551
H58	H	0.986529	-0.131679	0.161273
H59	H	0.980056	-0.503526	-0.189941
F60	F	0.977260	-0.663085	-0.198125
H61	H	0.981735	-0.406207	0.099818
H62	H	0.879311	0.205040	0.570947
H63	H	0.977404	-0.652808	0.123456
H64	H	0.980034	-0.503545	0.111672
F65	F	0.983732	-0.291242	0.194650
H66	H	1.084676	0.010471	0.586300
