data_functionalizedCrystal
_audit_creation_method	'MofGen! by Chris Wilmer'
_symmetry_space_group_name_H-M	'P1'
_symmetry_Int_Tables_number	1
_symmetry_cell_setting	triclinic
loop_
_symmetry_equiv_pos_as_xyz
  x,y,z
_cell_length_a	19.188933
_cell_length_b	19.188930
_cell_length_c	17.666332
_cell_angle_alpha	90.011603
_cell_angle_beta	90.007939
_cell_angle_gamma	83.145175
loop_
_atom_site_label
_atom_site_type_symbol
_atom_site_fract_x
_atom_site_fract_y
_atom_site_fract_z
O1	O	0.926149	0.087175	0.062932
O2	O	1.426149	0.587175	0.562932
O3	O	0.722838	0.098908	0.062940
O4	O	1.222838	0.598908	0.562940
O5	O	0.830360	-0.008614	0.062921
O6	O	1.330360	0.491386	0.562921
O7	O	0.818626	0.194697	0.062951
O8	O	1.318626	0.694697	0.562951
O9	O	0.830341	-0.008620	-0.062976
O10	O	1.330341	0.491380	0.437024
O11	O	0.722819	0.098902	-0.062957
O12	O	1.222819	0.598902	0.437043
O13	O	0.926130	0.087170	-0.062965
O14	O	1.426130	0.587170	0.437035
Cu15	Cu	0.824473	0.093035	-0.074456
Cu16	Cu	1.324473	0.593035	0.425544
Cu17	Cu	0.824495	0.093042	0.074431
Cu18	Cu	1.324495	0.593042	0.574431
O19	O	0.818607	0.194692	-0.062946
O20	O	1.318607	0.694692	0.437054
C21	C	0.696817	0.098525	-0.000008
C22	C	1.196817	0.598525	0.499992
C23	C	0.619313	0.097384	-0.000005
C24	C	1.119313	0.597384	0.499995
C25	C	0.829971	-0.034628	-0.000030
C26	C	1.329971	0.465372	0.499970
C27	C	0.828830	-0.112132	-0.000036
C28	C	1.328830	0.387868	0.499964
C29	C	0.066068	0.089242	0.068612
C30	C	0.566068	0.589242	0.568612
C31	C	0.138892	0.090310	0.068615
C32	C	0.638892	0.590310	0.568615
C33	C	0.175299	0.090844	-0.000011
C34	C	0.675299	0.590844	0.499989
C35	C	0.138877	0.090292	-0.068645
C36	C	0.638877	0.590292	0.431355
C37	C	0.066056	0.089217	-0.068647
C38	C	0.566056	0.589217	0.431353
N39	N	0.284311	0.132260	-0.051087
N40	N	0.784311	0.632260	0.448913
N41	N	0.353489	0.133283	-0.051081
N42	N	0.853489	0.633283	0.448919
C43	C	0.394707	0.094082	-0.000012
C44	C	0.894707	0.594082	0.499988
N45	N	0.364134	0.053828	0.051062
N46	N	0.864134	0.553828	0.551062
N47	N	0.294949	0.052808	0.051059
N48	N	0.794949	0.552808	0.551059
C49	C	0.254262	0.092009	-0.000018
C50	C	0.754262	0.592009	0.499982
C51	C	0.510085	0.095787	0.068621
C52	C	1.010085	0.595787	0.568621
C53	C	0.582911	0.096851	0.068621
C54	C	1.082911	0.596851	0.568621
C55	C	0.582894	0.096840	-0.068641
C56	C	1.082894	0.596840	0.431359
C57	C	0.510070	0.095769	-0.068639
C58	C	1.010070	0.595769	0.431361
C59	C	0.473669	0.095246	-0.000006
C60	C	0.973669	0.595246	0.499994
C61	C	0.891921	-0.157056	-0.000043
C62	C	1.391921	0.342944	0.499957
C63	C	0.890849	-0.229880	-0.000030
C64	C	1.390849	0.270120	0.499970
C65	C	0.826683	-0.257777	-0.000027
C66	C	1.326683	0.242223	0.499973
C67	C	0.763584	-0.212843	-0.000017
C68	C	1.263584	0.287157	0.499983
C69	C	0.764658	-0.140021	-0.000021
C70	C	1.264658	0.359979	0.499979
N71	N	0.777630	-0.365784	-0.042870
N72	N	1.277630	0.134216	0.457130
N73	N	0.776614	-0.434963	-0.042868
N74	N	1.276614	0.065037	0.457132
C75	C	0.823445	-0.477185	-0.000012
C76	C	1.323445	0.022815	0.499988
N77	N	0.871341	-0.447618	0.042832
N78	N	1.371341	0.052382	0.542832
N79	N	0.872358	-0.378433	0.042826
N80	N	1.372358	0.121567	0.542826
C81	C	0.825512	-0.336739	-0.000022
C82	C	1.325512	0.163261	0.499978
C83	C	0.885378	-0.601073	-0.000004
C84	C	1.385378	-0.101073	0.499996
C85	C	0.884304	-0.673898	0.000013
C86	C	1.384304	-0.173898	0.500013
C87	C	0.757037	-0.656860	0.000019
C88	C	1.257037	-0.156860	0.500019
C89	C	0.758113	-0.584037	0.000010
C90	C	1.258113	-0.084037	0.500010
C91	C	0.822286	-0.556148	-0.000005
C92	C	1.322286	-0.056148	0.499995
C93	C	0.952150	0.087553	-0.000016
C94	C	1.452150	0.587553	0.499984
C95	C	1.029655	0.088694	-0.000013
C96	C	1.529655	0.588694	0.499987
C97	C	0.818997	0.220705	0.000006
C98	C	1.318997	0.720705	0.500006
C99	C	0.820137	0.298210	0.000018
C100	C	1.320137	0.798210	0.500018
N101	N	0.824462	0.093030	-0.179176
N102	N	1.324462	0.593030	0.320824
C103	C	0.872088	0.045443	-0.218794
C104	C	1.372088	0.545443	0.281206
C105	C	0.872093	0.045439	-0.298042
C106	C	1.372093	0.545439	0.201958
C107	C	0.824477	0.093036	-0.337668
C108	C	1.324477	0.593036	0.162332
C109	C	0.776842	0.140627	-0.298040
C110	C	1.276842	0.640627	0.201960
C111	C	0.776834	0.140624	-0.218794
C112	C	1.276834	0.640624	0.281206
N113	N	0.815401	0.154843	-0.462077
N114	N	1.315401	0.654843	0.037923
N115	N	0.815412	0.154843	-0.537358
N116	N	1.315412	0.654843	-0.037358
C117	C	0.824495	0.093045	-0.576432
C118	C	1.324495	0.593045	-0.076432
N119	N	0.833581	0.031245	-0.537382
N120	N	1.333581	0.531245	-0.037382
N121	N	0.833573	0.031245	-0.462095
N122	N	1.333573	0.531245	0.037905
C123	C	0.824479	0.093043	-0.423597
C124	C	1.324479	0.593043	0.076403
C125	C	0.872129	0.045450	-0.701980
C126	C	1.372129	0.545450	-0.201980
C127	C	0.872128	0.045446	-0.781229
C128	C	1.372128	0.545446	-0.281229
C129	C	0.776880	0.140639	-0.781226
C130	C	1.276880	0.640639	-0.281226
C131	C	0.776878	0.140638	-0.701978
C132	C	1.276878	0.640638	-0.201978
C133	C	0.824506	0.093044	-0.662360
C134	C	1.324506	0.593044	-0.162360
N135	N	0.824511	0.093042	0.179150
N136	N	1.324511	0.593042	0.679150
H137	H	0.036435	0.088813	0.124498
H138	H	0.536435	0.588813	0.624498
H139	H	0.935682	-0.710475	0.000012
H140	H	1.435682	-0.210475	0.500012
H141	H	0.168545	0.090760	0.124499
H142	H	0.668545	0.590760	0.624499
C143	C	1.000737	-0.149149	0.064668
C144	C	1.500737	0.350851	0.564668
C145	C	0.962459	-0.126402	-0.000050
C146	C	1.462459	0.373598	0.499950
H147	H	1.044282	-0.130220	0.064665
H148	H	1.544282	0.369780	0.564665
H149	H	1.009123	-0.198943	0.064663
H150	H	1.509123	0.301057	0.564663
H151	H	0.974769	-0.133700	0.108567
H152	H	1.474769	0.366300	0.608567
H153	H	0.988425	-0.141856	-0.043949
H154	H	1.488425	0.358144	0.456051
H155	H	0.954075	-0.076597	-0.000052
H156	H	1.454075	0.423403	0.499948
C157	C	0.943534	-0.497005	-0.000025
C158	C	1.443534	0.002995	0.499975
C159	C	0.955914	-0.570411	-0.000012
C160	C	1.455914	-0.070411	0.499988
H161	H	0.987080	-0.478078	-0.000035
H162	H	1.487080	0.021922	0.499965
H163	H	0.917576	-0.481563	0.043875
H164	H	1.417576	0.018437	0.543875
H165	H	0.917558	-0.481591	-0.043931
H166	H	1.417558	0.018409	0.456069
H167	H	0.981885	-0.585825	0.043897
H168	H	1.481885	-0.085825	0.543897
H169	H	0.981883	-0.585859	-0.043917
H170	H	1.481883	-0.085859	0.456083
H171	H	0.910868	0.006687	-0.186539
H172	H	1.410868	0.506687	0.313461
H173	H	0.910908	0.006694	-0.669721
H174	H	1.410908	0.506694	-0.169721
H175	H	0.612536	0.097272	-0.124517
H176	H	1.112536	0.597272	0.375483
H177	H	0.704792	-0.679573	0.000025
H178	H	1.204792	-0.179573	0.500025
C179	C	0.963488	-0.321651	0.064678
C180	C	1.463488	0.178349	0.564678
C181	C	0.960203	-0.279272	-0.000042
C182	C	1.460203	0.220728	0.499958
H183	H	1.006306	-0.352139	0.064670
H184	H	1.506306	0.147861	0.564670
H185	H	0.925121	-0.348680	0.064680
H186	H	1.425121	0.151320	0.564680
H187	H	0.961276	-0.292874	0.108576
H188	H	1.461276	0.207126	0.608576
H189	H	0.962410	-0.308049	-0.043940
H190	H	1.462410	0.191951	0.456060
H191	H	0.998580	-0.252241	-0.000051
H192	H	1.498580	0.247759	0.499949
H193	H	0.168525	0.090726	-0.124521
H194	H	0.668525	0.590726	0.375479
H195	H	0.480422	0.095326	-0.124521
H196	H	0.980422	0.595326	0.375479
C197	C	0.966244	-0.048651	-0.290093
C198	C	1.466244	0.451349	0.209907
C199	C	0.924445	-0.006875	-0.341602
C200	C	1.424445	0.493125	0.158398
H201	H	0.998565	-0.080945	-0.316985
H202	H	1.498565	0.419055	0.183015
H203	H	0.937260	-0.073696	-0.259199
H204	H	1.437260	0.426304	0.240801
H205	H	0.991265	-0.019644	-0.259169
H206	H	1.491265	0.480356	0.240831
H207	H	0.899420	-0.035882	-0.372522
H208	H	1.399420	0.464118	0.127478
H209	H	0.953433	0.018171	-0.372509
H210	H	1.453433	0.518171	0.127491
C211	C	0.073355	0.089315	-0.204323
C212	C	0.573355	0.589315	0.295677
C213	C	0.026025	0.088622	-0.144085
C214	C	0.526025	0.588622	0.355915
H215	H	0.048639	0.088954	-0.250894
H216	H	0.548639	0.588954	0.249106
H217	H	0.107204	0.049029	-0.201474
H218	H	0.607204	0.549029	0.298526
H219	H	0.096313	0.130442	-0.201458
H220	H	0.596313	0.630442	0.298542
H221	H	0.003070	0.047493	-0.146947
H222	H	0.503070	0.547493	0.353053
H223	H	-0.007836	0.128912	-0.146935
H224	H	0.492164	0.628912	0.353065
H225	H	0.738071	0.179379	-0.330308
H226	H	1.238071	0.679379	0.169692
H227	H	0.480446	0.095359	0.124506
H228	H	0.980446	0.595359	0.624506
C229	C	0.705432	-0.316911	-0.000019
C230	C	1.205432	0.183089	0.499981
C231	C	0.693051	-0.243505	-0.000017
C232	C	1.193051	0.256495	0.499983
H233	H	0.661885	-0.335837	-0.000021
H234	H	1.161885	0.164163	0.499979
H235	H	0.731403	-0.332332	0.043880
H236	H	1.231403	0.167668	0.543880
H237	H	0.731394	-0.332345	-0.043927
H238	H	1.231394	0.167655	0.456073
H239	H	0.667093	-0.228070	0.043894
H240	H	1.167093	0.271930	0.543894
H241	H	0.667069	-0.228077	-0.043920
H242	H	1.167069	0.271923	0.456080
H243	H	0.612558	0.097292	0.124507
H244	H	1.112558	0.597292	0.624507
H245	H	0.738050	0.179376	-0.186536
H246	H	1.238050	0.679376	0.313464
C247	C	0.638753	-0.130496	-0.000015
C248	C	1.138753	0.369504	0.499985
C249	C	0.695303	-0.090636	-0.000022
C250	C	1.195303	0.409364	0.499978
H251	H	0.595937	-0.100006	-0.000022
H252	H	1.095937	0.399994	0.499978
H253	H	0.640987	-0.159239	0.043889
H254	H	1.140987	0.340761	0.543889
H255	H	0.640979	-0.159269	-0.043918
H256	H	1.140979	0.340731	0.456082
H257	H	0.693080	-0.061867	0.043883
H258	H	1.193080	0.438133	0.543883
H259	H	0.693068	-0.061881	-0.043931
H260	H	1.193068	0.438119	0.456069
H261	H	0.706738	-0.547459	0.000011
H262	H	1.206738	-0.047459	0.500011
C263	C	0.966289	-0.048632	-0.773267
C264	C	1.466289	0.451368	-0.273267
C265	C	0.924486	-0.006864	-0.824780
C266	C	1.424486	0.493136	-0.324780
H267	H	0.998616	-0.080922	-0.800156
H268	H	1.498616	0.419078	-0.300156
H269	H	0.937308	-0.073681	-0.742373
H270	H	1.437308	0.426319	-0.242373
H271	H	0.991302	-0.019618	-0.742343
H272	H	1.491302	0.480382	-0.242343
H273	H	0.899469	-0.035878	-0.855701
H274	H	1.399469	0.464122	-0.355701
H275	H	0.953471	0.018187	-0.855687
H276	H	1.453471	0.518187	-0.355687
H277	H	0.738108	0.179390	-0.813489
H278	H	1.238108	0.679390	-0.313489
C279	C	0.682739	0.234735	-0.709938
C280	C	1.182739	0.734735	-0.209938
C281	C	0.724532	0.192956	-0.658425
C282	C	1.224532	0.692956	-0.158425
H283	H	0.650424	0.267037	-0.683048
H284	H	1.150424	0.767037	-0.183048
H285	H	0.657719	0.205735	-0.740858
H286	H	1.157719	0.705735	-0.240858
H287	H	0.711734	0.259777	-0.740835
H288	H	1.211734	0.759777	-0.240835
H289	H	0.695538	0.167910	-0.627531
H290	H	1.195538	0.667910	-0.127531
H291	H	0.749555	0.221960	-0.627491
H292	H	1.249555	0.721960	-0.127491
