data_functionalizedCrystal
_audit_creation_method	'MofGen! by Chris Wilmer'
_symmetry_space_group_name_H-M	'P1'
_symmetry_Int_Tables_number	1
_symmetry_cell_setting	triclinic
loop_
_symmetry_equiv_pos_as_xyz
  x,y,z
_cell_length_a	16.956984
_cell_length_b	17.019294
_cell_length_c	15.455313
_cell_angle_alpha	88.788101
_cell_angle_beta	87.518126
_cell_angle_gamma	79.732413
loop_
_atom_site_label
_atom_site_type_symbol
_atom_site_fract_x
_atom_site_fract_y
_atom_site_fract_z
O1	O	1.061606	0.028897	-0.074293
O2	O	0.829517	0.056490	-0.076354
O3	O	0.951623	-0.072124	-0.066743
O4	O	0.939501	0.157511	-0.083904
O5	O	0.944640	-0.064798	0.076971
O6	O	0.822535	0.063816	0.067360
O7	O	1.054624	0.036224	0.069422
Cu8	Cu	0.937942	0.050689	0.081513
Cu9	Cu	0.946199	0.042024	-0.088446
O10	O	0.932518	0.164837	0.059811
C11	C	0.796321	0.061566	-0.004602
C12	C	0.707811	0.065766	-0.004916
C13	C	0.675552	-0.004468	0.000334
C14	C	0.592387	-0.000517	0.000032
C15	C	0.541482	0.073670	-0.005513
C16	C	0.573746	0.143910	-0.010766
C17	C	0.656910	0.139958	-0.010471
C18	C	0.291758	0.093234	-0.006981
C19	C	0.208589	0.097181	-0.007274
C20	C	0.227236	-0.047247	0.003523
C21	C	0.310401	-0.051192	0.003823
C22	C	0.342658	0.019047	-0.001434
N23	N	0.456474	0.077711	-0.005819
N24	N	0.427665	0.015005	-0.001135
C25	C	0.947534	-0.097707	0.007298
C26	C	0.945745	-0.184849	0.013804
C27	C	0.948712	-0.229778	-0.061477
C28	C	0.947026	-0.311657	-0.055361
C29	C	0.942378	-0.348606	0.026037
C30	C	0.939408	-0.303671	0.101324
C31	C	0.941088	-0.221792	0.095207
C32	C	0.937107	-0.595624	0.048426
C33	C	0.935429	-0.677509	0.054538
C34	C	0.943046	-0.685489	-0.102149
C35	C	0.944731	-0.603610	-0.108259
C36	C	0.941757	-0.558681	-0.032972
C37	C	0.940656	-0.432299	0.032291
C38	C	0.943472	-0.474988	-0.039226
C39	C	1.087820	0.031147	-0.002332
C40	C	1.176330	0.026946	-0.002024
C41	C	0.936607	0.190420	-0.014232
C42	C	0.938396	0.277562	-0.020744
N43	N	0.932139	0.056782	0.201054
N44	N	0.952008	0.035925	-0.207986
C45	C	0.984032	0.002160	0.250529
C46	C	0.979652	0.006774	0.340993
C47	C	0.923381	0.066015	0.381978
C48	C	0.871483	0.120640	0.332495
C49	C	0.875860	0.116021	0.242034
C50	C	0.904487	0.085931	0.652071
C51	C	0.900115	0.090547	0.742539
C52	C	1.008283	-0.023320	0.751030
C53	C	1.012659	-0.027931	0.660566
C54	C	0.960758	0.026691	0.611092
N55	N	0.918904	0.070735	0.474445
N56	N	0.965232	0.021967	0.518626
H57	H	0.532293	0.204315	-0.015287
H58	H	0.935618	-0.333760	0.167601
H59	H	0.716994	-0.064880	0.004853
O60	O	0.949108	-0.567569	-0.187264
C61	C	0.954631	-0.444883	-0.266131
C62	C	0.949799	-0.485623	-0.176602
H63	H	0.955174	-0.378621	-0.257542
H64	H	1.011870	-0.473614	-0.302947
H65	H	0.900363	-0.452250	-0.304190
H66	H	1.004025	-0.478270	-0.138472
H67	H	0.892526	-0.456884	-0.139852
H68	H	0.566127	-0.057710	0.004307
H69	H	0.683173	0.197151	-0.014742
H70	H	0.833603	0.160499	0.201752
H71	H	0.351843	-0.111603	0.008343
O72	O	0.953194	-0.194008	-0.140618
C73	C	0.960614	-0.210583	-0.295382
C74	C	0.955524	-0.251187	-0.205809
H75	H	0.962516	-0.256797	-0.348113
H76	H	0.905838	-0.161656	-0.303029
H77	H	1.017319	-0.183238	-0.301311
H78	H	0.898853	-0.278579	-0.199818
H79	H	1.010339	-0.300073	-0.198201
H80	H	0.945466	-0.722079	-0.163443
H81	H	1.058478	-0.076169	0.627198
O82	O	0.195770	-0.115398	0.008578
C83	C	0.075915	-0.173321	0.012955
C84	C	0.111442	-0.096075	0.007210
H85	H	0.007730	-0.157725	0.011869
H86	H	0.099729	-0.212781	-0.044485
H87	H	0.093990	-0.206647	0.075804
H88	H	0.093381	-0.062685	-0.055603
H89	H	0.087629	-0.056673	0.064694
O90	O	1.030041	-0.046391	0.388961
C91	C	1.075083	-0.184637	0.427110
C92	C	1.017981	-0.124513	0.372727
H93	H	1.065340	-0.247810	0.414018
H94	H	1.139835	-0.179470	0.408828
H95	H	1.062306	-0.171128	0.498799
H96	H	1.030685	-0.137983	0.301023
H97	H	0.953246	-0.129692	0.391081
H98	H	0.949446	-0.348235	-0.116664
H99	H	0.318012	0.150428	-0.011268
O100	O	0.930873	-0.713270	0.133681
C101	C	0.923535	-0.696727	0.288448
C102	C	0.928673	-0.656123	0.198881
H103	H	0.921772	-0.650545	0.341186
H104	H	0.866803	-0.724023	0.294471
H105	H	0.978291	-0.745694	0.295992
H106	H	0.873958	-0.607123	0.191277
H107	H	0.985440	-0.628881	0.192899
H108	H	0.167143	0.157597	-0.011786
O109	O	0.934090	-0.551935	0.121535
C110	C	0.862600	-0.441459	0.204571
C111	C	0.865905	-0.490881	0.121742
H112	H	0.807487	-0.392076	0.204757
H113	H	0.858943	-0.481898	0.263820
H114	H	0.918965	-0.413783	0.206427
H115	H	0.809554	-0.518564	0.119801
H116	H	0.869603	-0.450407	0.062531
O117	O	1.058770	-0.076427	0.798958
C118	C	1.166470	-0.189899	0.797835
C119	C	1.109358	-0.129788	0.743452
H120	H	1.207373	-0.233067	0.752982
H121	H	1.204392	-0.156427	0.837813
H122	H	1.129881	-0.224740	0.842985
H123	H	1.145884	-0.094930	0.698254
H124	H	1.071434	-0.163306	0.703532
H125	H	0.938661	-0.185210	0.156510
H126	H	0.936874	-0.462393	0.098566
O127	O	0.845372	0.148117	0.782217
C128	C	0.738559	0.260583	0.764254
C129	C	0.800502	0.195421	0.719207
H130	H	0.702277	0.298856	0.713330
H131	H	0.696557	0.231409	0.808937
H132	H	0.771032	0.299760	0.803851
H133	H	0.768097	0.156222	0.679565
H134	H	0.842502	0.224647	0.674575
H135	H	0.947252	-0.444900	-0.105501
O136	O	0.854194	0.139021	0.603926
C137	C	0.842431	0.242283	0.493737
C138	C	0.899478	0.182173	0.548191
H139	H	0.879020	0.277200	0.448675
H140	H	0.804574	0.208807	0.453679
H141	H	0.801455	0.285383	0.538597
H142	H	0.940504	0.139058	0.503395
H143	H	0.937279	0.215702	0.588258
H144	H	1.029857	-0.046077	0.217165
H145	H	0.825663	0.168873	0.365871
