data_functionalizedCrystal
_audit_creation_method	'MofGen! by Chris Wilmer'
_symmetry_space_group_name_H-M	'P1'
_symmetry_Int_Tables_number	1
_symmetry_cell_setting	triclinic
loop_
_symmetry_equiv_pos_as_xyz
  x,y,z
_cell_length_a	19.188930
_cell_length_b	19.188905
_cell_length_c	17.666332
_cell_angle_alpha	90.016479
_cell_angle_beta	90.011603
_cell_angle_gamma	83.139668
loop_
_atom_site_label
_atom_site_type_symbol
_atom_site_fract_x
_atom_site_fract_y
_atom_site_fract_z
O1	O	-0.087086	-0.926161	-0.063081
O2	O	0.246248	-0.592827	0.270252
O3	O	0.579581	-0.259494	0.603585
O4	O	-0.098838	-0.722847	-0.063057
O5	O	0.234495	-0.389514	0.270277
O6	O	0.567829	-0.056180	0.603610
O7	O	0.008694	-0.830371	-0.063055
O8	O	0.342028	-0.497038	0.270278
O9	O	0.675361	-0.163704	0.603612
O10	O	-0.194618	-0.818637	-0.063083
O11	O	0.138715	-0.485303	0.270250
O12	O	0.472049	-0.151970	0.603583
O13	O	0.008700	-0.830352	0.062842
O14	O	0.342033	-0.497019	0.396175
O15	O	0.675367	-0.163686	0.729508
O16	O	-0.098832	-0.722828	0.062840
O17	O	0.234501	-0.389495	0.396173
O18	O	0.567834	-0.056162	0.729507
O19	O	-0.087080	-0.926142	0.062815
O20	O	0.246253	-0.592809	0.396149
O21	O	0.579587	-0.259475	0.729482
Cu22	Cu	-0.092956	-0.824483	0.074323
Cu23	Cu	0.240378	-0.491150	0.407656
Cu24	Cu	0.573711	-0.157817	0.740990
Cu25	Cu	-0.092962	-0.824506	-0.074565
Cu26	Cu	0.240371	-0.491172	0.258769
Cu27	Cu	0.573704	-0.157839	0.592102
O28	O	-0.194612	-0.818618	0.062814
O29	O	0.138721	-0.485285	0.396147
O30	O	0.472054	-0.151951	0.729480
C31	C	0.034708	-0.829982	-0.000104
C32	C	0.368041	-0.496648	0.333229
C33	C	0.701375	-0.163315	0.666562
C34	C	0.112213	-0.828841	-0.000098
C35	C	0.445546	-0.495508	0.333236
C36	C	0.778879	-0.162174	0.666569
C37	C	-0.098458	-0.696826	-0.000105
C38	C	0.234876	-0.363493	0.333228
C39	C	0.568209	-0.030160	0.666562
C40	C	-0.097324	-0.619321	-0.000095
C41	C	0.236009	-0.285987	0.333238
C42	C	0.569343	0.047346	0.666572
C43	C	-0.087460	-0.952163	-0.000138
C44	C	0.245873	-0.618829	0.333195
C45	C	0.579206	-0.285496	0.666529
C46	C	-0.088594	-1.029668	-0.000153
C47	C	0.244739	-0.696335	0.333180
C48	C	0.578073	-0.363001	0.666513
C49	C	-0.220626	-0.819007	-0.000139
C50	C	0.112707	-0.485674	0.333195
C51	C	0.446041	-0.152341	0.666528
C52	C	-0.298131	-0.820148	-0.000150
C53	C	0.035203	-0.486815	0.333183
C54	C	0.368536	-0.153481	0.666516
C55	C	0.157142	-0.891933	-0.000102
C56	C	0.490475	-0.558599	0.333231
C57	C	0.823809	-0.225266	0.666565
C58	C	0.229966	-0.890861	-0.000114
C59	C	0.563299	-0.557528	0.333219
C60	C	0.896633	-0.224194	0.666553
C61	C	0.257857	-0.826694	-0.000107
C62	C	0.591190	-0.493361	0.333227
C63	C	0.924523	-0.160027	0.666560
C64	C	0.212917	-0.763594	-0.000107
C65	C	0.546251	-0.430261	0.333227
C66	C	0.879584	-0.096927	0.666560
C67	C	0.140095	-0.764668	-0.000102
C68	C	0.473428	-0.431334	0.333231
C69	C	0.806762	-0.098001	0.666564
N70	N	0.365859	-0.777640	0.042744
N71	N	0.699193	-0.444306	0.376078
N72	N	1.032526	-0.110973	0.709411
N73	N	0.435038	-0.776624	0.042742
N74	N	0.768371	-0.443291	0.376075
N75	N	1.101704	-0.109958	0.709409
C76	C	0.477265	-0.823456	-0.000122
C77	C	0.810598	-0.490122	0.333212
C78	C	1.143932	-0.156789	0.666545
N79	N	0.447702	-0.871352	-0.042973
N80	N	0.781035	-0.538019	0.290361
N81	N	1.114369	-0.204685	0.623694
N82	N	0.378517	-0.872369	-0.042967
N83	N	0.711851	-0.539036	0.290367
N84	N	1.045184	-0.205703	0.623700
C85	C	0.336819	-0.825523	-0.000112
C86	C	0.670152	-0.492190	0.333221
C87	C	1.003486	-0.158856	0.666555
C88	C	0.601159	-0.885390	-0.000140
C89	C	0.934492	-0.552056	0.333194
C90	C	1.267826	-0.218723	0.666527
C91	C	0.673984	-0.884315	-0.000156
C92	C	1.007317	-0.550982	0.333177
C93	C	1.340650	-0.217649	0.666510
C94	C	0.656933	-0.757047	-0.000142
C95	C	0.990267	-0.423714	0.333192
C96	C	1.323600	-0.090380	0.666525
C97	C	0.584110	-0.758123	-0.000133
C98	C	0.917444	-0.424790	0.333201
C99	C	1.250777	-0.091456	0.666534
C100	C	0.556228	-0.822296	-0.000128
C101	C	0.889561	-0.488963	0.333205
C102	C	1.222894	-0.155630	0.666539
C103	C	-0.096782	-0.582939	-0.068723
C104	C	0.236551	-0.249606	0.264610
C105	C	0.569884	0.083727	0.597944
C106	C	-0.095709	-0.510116	-0.068732
C107	C	0.237624	-0.176782	0.264601
C108	C	0.570957	0.156551	0.597934
C109	C	-0.095164	-0.473678	-0.000110
C110	C	0.238170	-0.140345	0.333224
C111	C	0.571503	0.192988	0.666557
C112	C	-0.095709	-0.510068	0.068528
C113	C	0.237624	-0.176735	0.401861
C114	C	0.570957	0.156599	0.735194
C115	C	-0.096789	-0.582889	0.068535
C116	C	0.236544	-0.249556	0.401868
C117	C	0.569877	0.083777	0.735202
N118	N	-0.053733	-0.364650	0.050966
N119	N	0.279600	-0.031317	0.384299
N120	N	0.612934	0.302016	0.717632
N121	N	-0.052705	-0.295473	0.050954
N122	N	0.280628	0.037860	0.384287
N123	N	0.613961	0.371193	0.717621
C124	C	-0.091911	-0.254272	-0.000127
C125	C	0.241422	0.079062	0.333206
C126	C	0.574755	0.412395	0.666539
N127	N	-0.132174	-0.284861	-0.051208
N128	N	0.201159	0.048472	0.282125
N129	N	0.534492	0.381805	0.615458
N130	N	-0.133199	-0.354045	-0.051199
N131	N	0.200134	-0.020712	0.282135
N132	N	0.533468	0.312622	0.615468
C133	C	-0.093993	-0.394716	-0.000110
C134	C	0.239340	-0.061382	0.333224
C135	C	0.572674	0.271951	0.666557
C136	C	-0.090207	-0.138926	-0.068770
C137	C	0.243126	0.194407	0.264563
C138	C	0.576459	0.527740	0.597896
C139	C	-0.089138	-0.066101	-0.068777
C140	C	0.244195	0.267233	0.264557
C141	C	0.577528	0.600566	0.597890
C142	C	-0.089131	-0.066055	0.068485
C143	C	0.244202	0.267278	0.401819
C144	C	0.577535	0.600611	0.735152
C145	C	-0.090207	-0.138879	0.068490
C146	C	0.243126	0.194455	0.401823
C147	C	0.576460	0.527788	0.735156
C148	C	-0.090742	-0.175310	-0.000140
C149	C	0.242592	0.158023	0.333193
C150	C	0.575925	0.491357	0.666526
N151	N	-0.092950	-0.824473	0.179042
N152	N	0.240383	-0.491139	0.512376
N153	N	0.573716	-0.157806	0.845709
N154	N	-0.092962	-0.824522	-0.179284
N155	N	0.240371	-0.491188	0.154049
N156	N	0.573705	-0.157855	0.487383
C157	C	-0.045358	-0.872100	0.218653
C158	C	0.287975	-0.538766	0.551986
C159	C	0.621308	-0.205433	0.885320
C160	C	-0.045355	-0.872104	0.297901
C161	C	0.287978	-0.538771	0.631234
C162	C	0.621312	-0.205437	0.964567
C163	C	-0.092956	-0.824488	0.337535
C164	C	0.240378	-0.491154	0.670868
C165	C	0.573711	-0.157821	1.004201
C166	C	-0.140552	-0.776852	0.297915
C167	C	0.192782	-0.443518	0.631248
C168	C	0.526115	-0.110185	0.964581
C169	C	-0.140549	-0.776844	0.218668
C170	C	0.192784	-0.443511	0.552002
C171	C	0.526118	-0.110178	0.885335
N172	N	-0.154764	-0.815411	0.461945
N173	N	0.178569	-0.482078	0.795279
N174	N	0.511903	-0.148745	1.128612
N175	N	-0.154764	-0.815422	0.537226
N176	N	0.178569	-0.482089	0.870559
N177	N	0.511903	-0.148756	1.203892
C178	C	-0.092966	-0.824506	0.576299
C179	C	0.240368	-0.491173	0.909632
C180	C	0.573701	-0.157839	1.242965
N181	N	-0.031164	-0.833592	0.537247
N182	N	0.302169	-0.500258	0.870580
N183	N	0.635502	-0.166925	1.203914
N184	N	-0.031165	-0.833584	0.461960
N185	N	0.302169	-0.500251	0.795293
N186	N	0.635502	-0.166917	1.128626
C187	C	-0.092964	-0.824490	0.423464
C188	C	0.240370	-0.491157	0.756797
C189	C	0.573703	-0.157823	1.090130
C190	C	-0.045366	-0.872140	0.701838
C191	C	0.287968	-0.538807	1.035172
C192	C	0.621301	-0.205473	1.368505
C193	C	-0.045361	-0.872139	0.781087
C194	C	0.287972	-0.538806	1.114421
C195	C	0.621305	-0.205473	1.447754
C196	C	-0.140564	-0.776890	0.781100
C197	C	0.192769	-0.443557	1.114433
C198	C	0.526103	-0.110224	1.447767
C199	C	-0.140562	-0.776888	0.701852
C200	C	0.192771	-0.443554	1.035186
C201	C	0.526104	-0.110221	1.368519
C202	C	-0.092964	-0.824516	0.662226
C203	C	0.240369	-0.491183	0.995560
C204	C	0.573703	-0.157850	1.328893
H205	H	0.134445	-0.944187	-0.000101
H206	H	0.467779	-0.610854	0.333233
H207	H	0.801112	-0.277521	0.666566
H208	H	-0.006598	-0.910889	0.330157
H209	H	0.326735	-0.577555	0.663491
H210	H	0.660068	-0.244222	0.996824
O211	O	-0.090780	-0.178223	-0.142791
O212	O	0.242553	0.155110	0.190543
O213	O	0.575887	0.488443	0.523876
H214	H	-0.091607	-0.234976	-0.131257
H215	H	0.241726	0.098358	0.202076
H216	H	0.575059	0.431691	0.535410
O217	O	0.005987	-0.923464	0.175919
O218	O	0.339321	-0.590131	0.509253
O219	O	0.672654	-0.256798	0.842586
H220	H	-0.023314	-0.957307	0.139796
H221	H	0.310019	-0.623974	0.473129
H222	H	0.643353	-0.290641	0.806463
H223	H	-0.097218	-0.612597	-0.124607
H224	H	0.236116	-0.279264	0.208726
H225	H	0.569449	0.054069	0.542060
O226	O	0.535648	-0.690071	-0.000109
O227	O	0.868981	-0.356738	0.333224
O228	O	1.202314	-0.023404	0.666558
H229	H	0.545528	-0.659353	-0.051414
H230	H	0.878861	-0.326020	0.281919
H231	H	1.212194	0.007313	0.615253
H232	H	-0.088691	-0.036388	0.124360
H233	H	0.244642	0.296945	0.457693
H234	H	0.577975	0.630278	0.791026
O235	O	0.687003	-0.687835	-0.000130
O236	O	1.020336	-0.354502	0.333203
O237	O	1.353670	-0.021168	0.666536
H238	H	0.745190	-0.697687	-0.000129
H239	H	1.078523	-0.364353	0.333204
H240	H	1.411856	-0.031020	0.666537
O241	O	0.005991	-0.923479	0.659083
O242	O	0.339324	-0.590146	0.992416
O243	O	0.672658	-0.256813	1.325749
H244	H	-0.023297	-0.957326	0.622950
H245	H	0.310036	-0.623993	0.956284
H246	H	0.643369	-0.290660	1.289617
O247	O	0.005977	-0.923511	0.823810
O248	O	0.339311	-0.590177	1.157144
O249	O	0.672644	-0.256844	1.490477
H250	H	-0.002013	-0.915509	0.885573
H251	H	0.331320	-0.582176	1.218906
H252	H	0.664654	-0.248843	1.552240
O253	O	-0.095123	-0.470768	0.142542
O254	O	0.238210	-0.137435	0.475875
O255	O	0.571544	0.195899	0.809208
H256	H	-0.095687	-0.508303	0.190267
H257	H	0.237646	-0.174970	0.523600
H258	H	0.570980	0.158363	0.856934
H259	H	-0.179308	-0.738081	0.330189
H260	H	0.154026	-0.404747	0.663522
H261	H	0.487359	-0.071414	0.996855
O262	O	-0.191888	-0.725479	0.175938
O263	O	0.141446	-0.392145	0.509271
O264	O	0.474779	-0.058812	0.842604
H265	H	-0.224991	-0.692369	0.216808
H266	H	0.108342	-0.359036	0.550141
H267	H	0.441676	-0.025703	0.883475
O268	O	0.091632	-0.696614	-0.000084
O269	O	0.424965	-0.363281	0.333250
O270	O	0.758298	-0.029947	0.666583
H271	H	0.101509	-0.665897	-0.051391
H272	H	0.434842	-0.332564	0.281943
H273	H	0.768175	0.000769	0.615276
H274	H	0.578456	-0.937644	-0.000139
H275	H	0.911789	-0.604310	0.333194
H276	H	1.245123	-0.270977	0.666527
O277	O	-0.095111	-0.470863	-0.142755
O278	O	0.238222	-0.137530	0.190578
O279	O	0.571555	0.195803	0.523912
H280	H	-0.095657	-0.508432	-0.190475
H281	H	0.237676	-0.175098	0.142858
H282	H	0.571009	0.158235	0.476191
O283	O	0.242993	-0.694383	-0.000090
O284	O	0.576326	-0.361050	0.333243
O285	O	0.909659	-0.027716	0.666576
H286	H	0.301179	-0.704235	-0.000084
H287	H	0.634513	-0.370902	0.333250
H288	H	0.967846	-0.037569	0.666583
H289	H	-0.088702	-0.036479	-0.124664
H290	H	0.244631	0.296854	0.208669
H291	H	0.577965	0.630187	0.542002
O292	O	0.278440	-0.958911	-0.000108
O293	O	0.611773	-0.625578	0.333225
O294	O	0.945107	-0.292245	0.666559
H295	H	0.246817	-1.003714	-0.000098
H296	H	0.580150	-0.670381	0.333235
H297	H	0.913483	-0.337048	0.666569
O298	O	0.722450	-0.952367	-0.000154
O299	O	1.055783	-0.619034	0.333179
O300	O	1.389116	-0.285700	0.666512
H301	H	0.690823	-0.997168	-0.000141
H302	H	1.024157	-0.663834	0.333192
H303	H	1.357490	-0.330501	0.666526
O304	O	-0.097383	-0.622135	0.142558
O305	O	0.235951	-0.288802	0.475891
O306	O	0.569284	0.044531	0.809225
H307	H	-0.096826	-0.584567	0.190277
H308	H	0.236508	-0.251233	0.523610
H309	H	0.569841	0.082100	0.856943
H310	H	-0.090643	-0.168501	0.124374
H311	H	0.242690	0.164832	0.457708
H312	H	0.576023	0.498165	0.791041
O313	O	-0.191909	-0.725532	0.823835
O314	O	0.141424	-0.392198	1.157168
O315	O	0.474757	-0.058865	1.490502
H316	H	-0.183919	-0.733540	0.885595
H317	H	0.149414	-0.400207	1.218929
H318	H	0.482747	-0.066873	1.552262
H319	H	-0.179319	-0.738108	0.669599
H320	H	0.154014	-0.404775	1.002933
H321	H	0.487347	-0.071441	1.336266
