data_functionalizedCrystal
_audit_creation_method	'MofGen! by Chris Wilmer'
_symmetry_space_group_name_H-M	'P1'
_symmetry_Int_Tables_number	1
_symmetry_cell_setting	triclinic
loop_
_symmetry_equiv_pos_as_xyz
  x,y,z
_cell_length_a	17.699083
_cell_length_b	15.944551
_cell_length_c	16.176319
_cell_angle_alpha	89.992246
_cell_angle_beta	89.998611
_cell_angle_gamma	83.390877
loop_
_atom_site_label
_atom_site_type_symbol
_atom_site_fract_x
_atom_site_fract_y
_atom_site_fract_z
O1	O	1.004260	0.106222	-0.068632
O2	O	1.337594	0.439555	0.264701
O3	O	1.670927	0.772889	0.598034
O4	O	0.783905	0.120042	-0.068660
O5	O	1.117239	0.453375	0.264674
O6	O	1.450572	0.786708	0.598007
O7	O	0.900100	-0.009156	-0.068638
O8	O	1.233434	0.324178	0.264695
O9	O	1.566767	0.657511	0.598029
O10	O	0.888065	0.235419	-0.068654
O11	O	1.221399	0.568753	0.264679
O12	O	1.554732	0.902086	0.598012
O13	O	0.900084	-0.009164	0.068855
O14	O	1.233418	0.324169	0.402189
O15	O	1.566751	0.657503	0.735522
O16	O	0.783889	0.120033	0.068833
O17	O	1.117223	0.453367	0.402167
O18	O	1.450556	0.786700	0.735500
O19	O	1.004244	0.106214	0.068861
O20	O	1.337578	0.439547	0.402194
O21	O	1.670911	0.772880	0.735527
Cu22	Cu	0.894065	0.113123	0.081401
Cu23	Cu	1.227399	0.446456	0.414735
Cu24	Cu	1.560732	0.779790	0.748068
Cu25	Cu	0.894084	0.113133	-0.081200
Cu26	Cu	1.227418	0.446466	0.252133
Cu27	Cu	1.560751	0.779799	0.585466
O28	O	0.888049	0.235411	0.068839
O29	O	1.221383	0.568744	0.402172
O30	O	1.554716	0.902078	0.735506
C31	C	0.755700	0.119542	0.000083
C32	C	1.089033	0.452876	0.333417
C33	C	1.422366	0.786209	0.666750
C34	C	0.671679	0.118057	0.000073
C35	C	1.005012	0.451390	0.333407
C36	C	1.338346	0.784723	0.666740
C37	C	0.623187	0.193893	0.000068
C38	C	0.956521	0.527226	0.333402
C39	C	1.289854	0.860560	0.666735
C40	C	0.544242	0.192492	0.000079
C41	C	0.877575	0.525825	0.333413
C42	C	1.210908	0.859159	0.666746
C43	C	0.513789	0.115254	0.000089
C44	C	0.847122	0.448588	0.333422
C45	C	1.180456	0.781921	0.666756
C46	C	0.562287	0.039412	0.000096
C47	C	0.895620	0.372746	0.333430
C48	C	1.228953	0.706079	0.666763
C49	C	0.641231	0.040814	0.000091
C50	C	0.974564	0.374147	0.333425
C51	C	1.307898	0.707481	0.666758
C52	C	0.243914	0.033758	0.000117
C53	C	0.577247	0.367091	0.333450
C54	C	0.910581	0.700424	0.666784
C55	C	0.164964	0.032362	0.000119
C56	C	0.498297	0.365695	0.333453
C57	C	0.831630	0.699028	0.666786
C58	C	0.146925	0.185436	0.000105
C59	C	0.480258	0.518769	0.333438
C60	C	0.813592	0.852102	0.666772
C61	C	0.225869	0.186837	0.000100
C62	C	0.559202	0.520171	0.333433
C63	C	0.892536	0.853504	0.666767
C64	C	0.274360	0.110996	0.000112
C65	C	0.607693	0.444329	0.333445
C66	C	0.941026	0.777663	0.666778
C67	C	0.359962	0.112516	0.000102
C68	C	0.693295	0.445849	0.333435
C69	C	1.026628	0.779182	0.666768
C70	C	0.428189	0.113733	0.000093
C71	C	0.761522	0.447067	0.333427
C72	C	1.094855	0.780400	0.666760
C73	C	0.899593	-0.040453	0.000109
C74	C	1.232926	0.292881	0.333442
C75	C	1.566259	0.626214	0.666775
C76	C	0.898095	-0.133696	0.000109
C77	C	1.231428	0.199638	0.333442
C78	C	1.564761	0.532971	0.666776
C79	C	0.822492	-0.348393	0.000088
C80	C	1.155825	-0.015060	0.333422
C81	C	1.489158	0.318273	0.666755
C82	C	0.857591	-0.409488	0.067885
C83	C	1.190925	-0.076155	0.401218
C84	C	1.524258	0.257178	0.734552
C85	C	0.895385	-0.304416	0.000102
C86	C	1.228718	0.028918	0.333436
C87	C	1.562052	0.362251	0.666769
C88	C	0.857624	-0.409464	-0.067672
C89	C	1.190958	-0.076130	0.265661
C90	C	1.524291	0.257203	0.598994
C91	C	0.892762	-0.469323	0.000092
C92	C	1.226096	-0.135990	0.333426
C93	C	1.559429	0.197344	0.666759
C94	C	0.930505	-0.364283	0.067955
C95	C	1.263838	-0.030949	0.401289
C96	C	1.597171	0.302384	0.734622
C97	C	0.930527	-0.364252	-0.067663
C98	C	1.263861	-0.030918	0.265670
C99	C	1.597194	0.302415	0.599003
C100	C	0.965680	-0.425329	0.000150
C101	C	1.299014	-0.091996	0.333483
C102	C	1.632347	0.241337	0.666817
C103	C	0.896894	-0.209417	0.000109
C104	C	1.230227	0.123917	0.333442
C105	C	1.563561	0.457250	0.666776
C106	C	0.891259	-0.564321	0.000092
C107	C	1.224592	-0.230988	0.333425
C108	C	1.557926	0.102346	0.666758
C109	C	1.032450	0.106713	0.000116
C110	C	1.365783	0.440046	0.333449
C111	C	1.699117	0.773380	0.666782
C112	C	1.116471	0.108199	0.000121
C113	C	1.449804	0.441532	0.333454
C114	C	1.783137	0.774865	0.666787
C115	C	0.888557	0.266708	0.000090
C116	C	1.221890	0.600041	0.333424
C117	C	1.555224	0.933375	0.666757
C118	C	0.890055	0.359951	0.000085
C119	C	1.223388	0.693284	0.333418
C120	C	1.556721	1.026618	0.666751
N121	N	0.894058	0.113116	0.195767
N122	N	1.227391	0.446449	0.529100
N123	N	1.560724	0.779782	0.862433
N124	N	0.894098	0.113133	-0.195565
N125	N	1.227431	0.446467	0.137768
N126	N	1.560765	0.779800	0.471101
C127	C	0.945524	0.055930	0.239040
C128	C	1.278857	0.389264	0.572374
C129	C	1.612191	0.722597	0.905707
C130	C	0.945528	0.055929	0.325588
C131	C	1.278861	0.389263	0.658921
C132	C	1.612195	0.722596	0.992254
C133	C	0.894068	0.113118	0.368859
C134	C	1.227402	0.446452	0.702192
C135	C	1.560735	0.779785	1.035526
C136	C	0.842596	0.170306	0.325579
C137	C	1.175930	0.503640	0.658913
C138	C	1.509263	0.836973	0.992246
C139	C	0.842589	0.170303	0.239034
C140	C	1.175923	0.503636	0.572367
C141	C	1.509256	0.836969	0.905700
C142	C	0.842622	0.170322	0.674608
C143	C	1.175955	0.503655	1.007941
C144	C	1.509289	0.836989	1.341274
C145	C	0.842634	0.170323	0.761159
C146	C	1.175968	0.503657	1.094492
C147	C	1.509301	0.836990	1.427826
C148	C	0.945561	0.055949	0.761161
C149	C	1.278894	0.389282	1.094495
C150	C	1.612227	0.722616	1.427828
C151	C	0.945554	0.055945	0.674616
C152	C	1.278887	0.389278	1.007949
C153	C	1.612221	0.722612	1.341282
C154	C	0.894080	0.113130	0.631343
C155	C	1.227413	0.446463	0.964677
C156	C	1.560746	0.779796	1.298010
C157	C	0.894075	0.113129	0.537499
C158	C	1.227408	0.446462	0.870833
C159	C	1.560742	0.779796	1.204166
C160	C	0.894076	0.113124	0.462702
C161	C	1.227409	0.446457	0.796035
C162	C	1.560742	0.779791	1.129368
H163	H	0.647975	0.256789	0.000060
H164	H	0.981309	0.590122	0.333393
H165	H	1.314642	0.923456	0.666727
H166	H	0.826754	-0.429535	0.125194
H167	H	1.160087	-0.096202	0.458528
H168	H	1.493420	0.237131	0.791861
F169	F	0.970763	-0.338247	0.142954
F170	F	1.304096	-0.004913	0.476287
F171	F	1.637430	0.328420	0.809621
F172	F	1.000299	-0.004935	0.192996
F173	F	1.333633	0.328398	0.526329
F174	F	1.666966	0.661731	0.859662
H175	H	0.987435	0.009364	0.360821
H176	H	1.320769	0.342698	0.694154
H177	H	1.654102	0.676031	1.027487
H178	H	1.026238	-0.458615	0.000196
H179	H	1.359571	-0.125282	0.333529
H180	H	1.692905	0.208051	0.666863
H181	H	0.961339	-0.344183	-0.124975
H182	H	1.294672	-0.010849	0.208358
H183	H	1.628005	0.322484	0.541691
F184	F	1.000326	-0.004920	0.628566
F185	F	1.333660	0.328414	0.961900
F186	F	1.666993	0.661747	1.295233
H187	H	0.826790	-0.429472	-0.124993
H188	H	1.160124	-0.096139	0.208340
H189	H	1.493457	0.237194	0.541673
F190	F	1.000343	-0.004916	0.807221
F191	F	1.333676	0.328418	1.140554
F192	F	1.667009	0.661751	1.473888
H193	H	0.140173	-0.030538	0.000128
H194	H	0.473506	0.302795	0.333462
H195	H	0.806839	0.636128	0.666795
F196	F	0.095311	0.266154	0.000096
F197	F	0.428644	0.599487	0.333429
F198	F	0.761978	0.932820	0.666762
F199	F	0.787861	0.231194	0.807211
F200	F	1.121194	0.564527	1.140544
F201	F	1.454527	0.897861	1.473877
F202	F	0.787842	0.231183	0.628560
F203	F	1.121176	0.564517	0.961894
F204	F	1.454509	0.897850	1.295227
F205	F	0.787824	0.231168	0.371633
F206	F	1.121158	0.564502	0.704966
F207	F	1.454491	0.897835	1.038299
F208	F	0.787809	0.231165	0.192980
F209	F	1.121142	0.564498	0.526313
F210	F	1.454476	0.897832	0.859646
H211	H	0.283386	-0.027997	0.000127
H212	H	0.616720	0.305336	0.333461
H213	H	0.950053	0.638669	0.666794
H214	H	0.537486	-0.023476	0.000116
H215	H	0.870819	0.309857	0.333449
H216	H	1.204153	0.643190	0.666783
H217	H	0.504763	0.254246	0.000074
H218	H	0.838096	0.587579	0.333408
H219	H	1.171429	0.920912	0.666741
H220	H	0.761987	-0.314958	0.000149
H221	H	1.095320	0.018375	0.333482
H222	H	1.428653	0.351708	0.666815
F223	F	0.258274	0.269044	0.000085
F224	F	0.591608	0.602377	0.333418
F225	F	0.924941	0.935711	0.666751
H226	H	0.680713	-0.020940	0.000095
H227	H	1.014046	0.312394	0.333428
H228	H	1.347379	0.645727	0.666761
