data_functionalizedCrystal
_audit_creation_method	'MofGen! by Chris Wilmer'
_symmetry_space_group_name_H-M	'P1'
_symmetry_Int_Tables_number	1
_symmetry_cell_setting	triclinic
loop_
_symmetry_equiv_pos_as_xyz
  x,y,z
_cell_length_a	18.100771
_cell_length_b	13.032831
_cell_length_c	13.032268
_cell_angle_alpha	90.886977
_cell_angle_beta	82.580658
_cell_angle_gamma	96.847532
loop_
_atom_site_label
_atom_site_type_symbol
_atom_site_fract_x
_atom_site_fract_y
_atom_site_fract_z
Zn1	Zn	0.500099	1.494451	-0.784134
Zn2	Zn	0.610429	1.515305	-0.612882
Zn3	Zn	0.469164	1.344559	-0.590171
Zn4	Zn	0.606425	1.321585	-0.762981
O5	O	0.546529	1.418975	-0.687542
O6	O	0.529356	1.641020	-0.779775
O7	O	0.580419	1.510997	-0.465878
O8	O	0.369650	1.365329	-0.615249
O9	O	0.610415	1.656341	-0.653957
O10	O	0.392377	1.475455	-0.757753
O11	O	0.476632	1.385550	-0.449193
O12	O	0.472750	1.197708	-0.594737
O13	O	0.603591	1.326174	-0.909778
O14	O	0.573595	1.180830	-0.721700
O15	O	0.525474	1.453178	-0.925319
O16	O	0.713516	1.488720	-0.633445
O17	O	0.710574	1.346395	-0.743722
C18	C	0.519382	1.151982	-0.653459
C19	C	0.507788	1.037759	-0.638903
C20	C	0.353395	1.420629	-0.686327
C21	C	0.271093	1.421333	-0.685809
C22	C	0.552580	0.978522	-0.695139
C23	C	0.540599	0.860465	-0.680096
C24	C	-0.028038	1.418285	-0.688166
C25	C	0.017588	1.487585	-0.777811
C26	C	0.103227	1.488799	-0.776944
C27	C	0.120364	1.419797	-0.686997
C28	C	0.082613	1.462698	-0.582574
C29	C	-0.002950	1.462341	-0.583784
C30	C	-0.004190	1.306332	-0.701718
C31	C	0.081733	1.307473	-0.703511
C32	C	0.204234	1.420651	-0.686330
C33	C	-0.111909	1.417434	-0.688826
C34	C	0.738917	1.417353	-0.688778
C35	C	0.821233	1.416748	-0.689354
C36	C	0.567537	1.384787	-0.955928
C37	C	0.576489	1.370219	-1.070298
C38	C	0.573783	1.687010	-0.721759
C39	C	0.585397	1.801230	-0.736340
C40	C	0.541829	1.426563	-1.128977
C41	C	0.551080	1.411507	-1.247185
C42	C	0.525556	1.453089	-0.420208
C43	C	0.516416	1.467858	-0.305862
H44	H	0.599797	1.015207	-0.754425
H45	H	0.460567	1.001072	-0.579625
H46	H	0.505303	1.485943	-1.091702
Cl47	Cl	0.460034	1.559566	-1.248331
H48	H	0.587600	1.352111	-1.284454
H49	H	-0.034146	1.414820	-0.515436
Cl50	Cl	0.467687	0.803839	-0.588566
Cl51	Cl	0.632875	1.278525	-1.127838
H52	H	0.002293	1.458905	-0.856301
Cl53	Cl	0.658295	0.857852	-0.827891
H54	H	-0.021551	1.269452	-0.776170
Cl55	Cl	0.143808	1.444975	-0.897214
Cl56	Cl	0.143997	1.617123	-0.764289
Cl57	Cl	-0.006556	1.614494	-0.765932
Cl58	Cl	0.123833	1.589119	-0.560944
Cl59	Cl	-0.025515	1.589372	-0.563474
H60	H	0.092477	1.414821	-0.514225
H61	H	0.106907	1.275342	-0.780310
H62	H	0.092674	1.252428	-0.641535
Cl63	Cl	-0.051736	1.226399	-0.600618
