data_functionalizedCrystal
_audit_creation_method	'MofGen! by Chris Wilmer'
_symmetry_space_group_name_H-M	'P1'
_symmetry_Int_Tables_number	1
_symmetry_cell_setting	triclinic
loop_
_symmetry_equiv_pos_as_xyz
  x,y,z
_cell_length_a	19.288840
_cell_length_b	11.792241
_cell_length_c	17.766277
_cell_angle_alpha	90.006477
_cell_angle_beta	90.016585
_cell_angle_gamma	83.659716
loop_
_atom_site_label
_atom_site_type_symbol
_atom_site_fract_x
_atom_site_fract_y
_atom_site_fract_z
O1	O	0.922168	0.141447	0.062720
O2	O	1.422168	0.641447	0.562720
O3	O	0.720013	0.160576	0.062694
O4	O	1.220013	0.660576	0.562694
O5	O	0.825996	-0.014234	0.062703
O6	O	1.325996	0.485766	0.562703
O7	O	0.816185	0.316257	0.062712
O8	O	1.316185	0.816257	0.562712
O9	O	0.825977	-0.014243	-0.062486
O10	O	1.325977	0.485757	0.437514
O11	O	0.719994	0.160567	-0.062494
O12	O	1.219994	0.660567	0.437506
O13	O	0.922149	0.141438	-0.062468
O14	O	1.422149	0.641438	0.437532
Cu15	Cu	0.821070	0.151002	-0.073912
Cu16	Cu	1.321070	0.651002	0.426088
Cu17	Cu	0.821092	0.151012	0.074138
Cu18	Cu	1.321092	0.651012	0.574138
O19	O	0.816166	0.316248	-0.062477
O20	O	1.316166	0.816248	0.437523
C21	C	0.694124	0.159961	0.000097
C22	C	1.194124	0.659961	0.500097
C23	C	0.617009	0.158127	0.000087
C24	C	1.117009	0.658127	0.500087
C25	C	0.580810	0.157251	0.068329
C26	C	1.080810	0.657251	0.568329
C27	C	0.508354	0.155516	0.068338
C28	C	1.008354	0.655516	0.568338
C29	C	0.472100	0.154634	0.000101
C30	C	0.972100	0.654634	0.500101
C31	C	0.508306	0.155516	-0.068150
C32	C	1.008306	0.655516	0.431850
C33	C	0.580761	0.157263	-0.068157
C34	C	1.080761	0.657263	0.431843
C35	C	0.362371	0.085385	-0.052169
C36	C	0.862371	0.585385	0.447831
C37	C	0.289918	0.083632	-0.052159
C38	C	0.789918	0.583632	0.447841
C39	C	0.248625	0.149251	0.000121
C40	C	0.748625	0.649251	0.500121
C41	C	0.279795	0.216610	0.052403
C42	C	0.779795	0.716610	0.552403
C43	C	0.352250	0.218357	0.052396
C44	C	0.852250	0.718357	0.552396
C45	C	0.393535	0.152740	0.000101
C46	C	0.893535	0.652740	0.500101
C47	C	0.133861	0.146495	0.068377
C48	C	0.633861	0.646495	0.568377
C49	C	0.061403	0.144767	0.068384
C50	C	0.561403	0.644767	0.568384
C51	C	0.061357	0.144756	-0.068106
C52	C	0.561357	0.644756	0.431894
C53	C	0.133814	0.146495	-0.068111
C54	C	0.633814	0.646495	0.431889
C55	C	0.170062	0.147360	0.000133
C56	C	0.670062	0.647360	0.500133
C57	C	0.825370	-0.056520	0.000109
C58	C	1.325370	0.443480	0.500109
C59	C	0.823526	-0.182506	0.000109
C60	C	1.323526	0.317494	0.500109
C61	C	0.820134	-0.413166	0.000121
C62	C	1.320134	0.086834	0.500121
C63	C	0.822018	-0.284810	0.000115
C64	C	1.322018	0.215190	0.500115
C65	C	0.948038	0.142053	0.000131
C66	C	1.448038	0.642053	0.500131
C67	C	1.025153	0.143887	0.000146
C68	C	1.525153	0.643887	0.500146
C69	C	0.816792	0.358534	0.000119
C70	C	1.316792	0.858534	0.500119
C71	C	0.818636	0.484519	0.000124
C72	C	1.318636	0.984519	0.500124
N73	N	0.821059	0.150994	-0.178042
N74	N	1.321059	0.650994	0.321958
C75	C	0.868004	0.073625	-0.217425
C76	C	1.368004	0.573625	0.282575
C77	C	0.868008	0.073620	-0.296227
C78	C	1.368008	0.573620	0.203773
C79	C	0.821074	0.151003	-0.335643
C80	C	1.321074	0.651003	0.164357
C81	C	0.774121	0.228377	-0.296250
C82	C	1.274121	0.728377	0.203750
C83	C	0.774113	0.228372	-0.217450
C84	C	1.274113	0.728372	0.282550
C85	C	0.812363	0.254415	-0.460479
C86	C	1.312363	0.754415	0.039521
C87	C	0.812375	0.254421	-0.539277
C88	C	1.312375	0.754421	-0.039277
C89	C	0.821093	0.151016	-0.578689
C90	C	1.321093	0.651016	-0.078689
C91	C	0.829813	0.047601	-0.539292
C92	C	1.329813	0.547601	-0.039292
C93	C	0.829806	0.047597	-0.460492
C94	C	1.329806	0.547597	0.039508
C95	C	0.821077	0.151016	-0.421088
C96	C	1.321077	0.651016	0.078912
C97	C	0.868044	0.073636	-0.703518
C98	C	1.368044	0.573636	-0.203518
C99	C	0.868043	0.073629	-0.782322
C100	C	1.368043	0.573629	-0.282322
C101	C	0.774159	0.228395	-0.782343
C102	C	1.274159	0.728395	-0.282343
C103	C	0.774157	0.228392	-0.703541
C104	C	1.274157	0.728392	-0.203541
C105	C	0.821103	0.151014	-0.664134
C106	C	1.321103	0.651014	-0.164134
N107	N	0.821108	0.151011	0.178268
N108	N	1.321108	0.651011	0.678268
H109	H	0.031931	0.144061	0.123957
H110	H	0.531931	0.644061	0.623957
H111	H	0.735942	0.291397	-0.814434
H112	H	1.235942	0.791397	-0.314434
Br113	Br	0.630001	0.158426	0.160945
Br114	Br	1.130001	0.658426	0.660945
H115	H	0.163287	0.147201	-0.123681
H116	H	0.663287	0.647201	0.376319
H117	H	0.163375	0.147211	0.123946
H118	H	0.663375	0.647211	0.623946
H119	H	0.031840	0.144044	-0.123666
H120	H	0.531840	0.644044	0.376334
Br121	Br	0.247621	-0.007754	-0.123128
Br122	Br	0.747621	0.492246	0.376872
H123	H	0.395986	0.031947	-0.094746
H124	H	0.895986	0.531947	0.405254
Br125	Br	0.931712	-0.031389	-0.163943
Br126	Br	1.431712	0.468611	0.336057
H127	H	0.377625	0.273205	0.094964
H128	H	0.877625	0.773205	0.594964
Br129	Br	0.841654	-0.092744	-0.592769
Br130	Br	1.341654	0.407256	-0.092769
Br131	Br	0.710445	0.333400	-0.650086
Br132	Br	1.210445	0.833400	-0.150086
Br133	Br	0.710419	0.333389	-0.349740
Br134	Br	1.210419	0.833389	0.150260
Br135	Br	0.459216	0.154330	0.160959
Br136	Br	0.959216	0.654330	0.660959
H137	H	0.478783	0.154801	-0.123709
H138	H	0.978783	0.654801	0.376291
Br139	Br	0.629890	0.158454	-0.160779
Br140	Br	1.129890	0.658454	0.339221
H141	H	0.906237	0.010615	-0.328299
H142	H	1.406237	0.510615	0.171701
Br143	Br	0.841633	-0.092744	-0.407027
Br144	Br	1.341633	0.407256	0.092973
Br145	Br	0.931753	-0.031388	-0.835775
Br146	Br	1.431753	0.468612	-0.335775
Br147	Br	0.800548	0.394767	-0.592737
Br148	Br	1.300548	0.894767	-0.092737
H149	H	0.246176	0.270048	0.094972
H150	H	0.746176	0.770048	0.594972
H151	H	0.906269	0.010626	-0.671431
H152	H	1.406269	0.510626	-0.171431
H153	H	0.805251	0.338624	-0.428396
H154	H	1.305251	0.838624	0.071604
Br155	Br	0.710397	0.333378	-0.163996
Br156	Br	1.210397	0.833378	0.336004
