data_functionalizedCrystal
_audit_creation_method	'MofGen! by Chris Wilmer'
_symmetry_space_group_name_H-M	'P1'
_symmetry_Int_Tables_number	1
_symmetry_cell_setting	triclinic
loop_
_symmetry_equiv_pos_as_xyz
  x,y,z
_cell_length_a	6.817900
_cell_length_b	12.200863
_cell_length_c	12.200737
_cell_angle_alpha	93.008149
_cell_angle_beta	107.141108
_cell_angle_gamma	107.143441
loop_
_atom_site_label
_atom_site_type_symbol
_atom_site_fract_x
_atom_site_fract_y
_atom_site_fract_z
V1	V	-4.086857	-0.158980	-0.357778
V2	V	-3.836857	0.091020	-0.107778
V3	V	-3.586857	0.341020	0.142222
V4	V	-3.336857	0.591020	0.392222
O5	O	-4.054154	0.007364	-0.350847
O6	O	-3.804154	0.257364	-0.100847
O7	O	-3.554154	0.507364	0.149153
O8	O	-3.304154	0.757364	0.399153
O9	O	-4.056305	-0.314966	-0.355447
O10	O	-3.806305	-0.064966	-0.105447
O11	O	-3.556305	0.185034	0.144553
O12	O	-3.306305	0.435034	0.394553
O13	O	-4.056297	-0.156656	-0.513765
O14	O	-3.806297	0.093344	-0.263765
O15	O	-3.556297	0.343344	-0.013765
O16	O	-3.306297	0.593344	0.236235
O17	O	-4.054162	-0.152042	-0.191433
O18	O	-3.804162	0.097958	0.058567
O19	O	-3.554162	0.347958	0.308567
O20	O	-3.304162	0.597958	0.558567
V21	V	-4.565860	-0.139069	-0.337868
V22	V	-4.315860	0.110931	-0.087868
V23	V	-4.065860	0.360931	0.162132
V24	V	-3.815860	0.610931	0.412132
O25	O	-4.358029	-0.202657	-0.401453
O26	O	-4.108029	0.047343	-0.151453
O27	O	-3.858029	0.297343	0.098547
O28	O	-3.608029	0.547343	0.348547
O29	O	-4.744885	-0.095393	-0.294193
O30	O	-4.494885	0.154607	-0.044193
O31	O	-4.244885	0.404607	0.205807
O32	O	-3.994885	0.654607	0.455807
O33	O	-4.373205	0.016917	-0.340199
O34	O	-4.123205	0.266917	-0.090199
O35	O	-3.873205	0.516917	0.159801
O36	O	-3.623205	0.766917	0.409801
O37	O	-4.715959	-0.305414	-0.344798
O38	O	-4.465959	-0.055414	-0.094798
O39	O	-4.215959	0.194586	0.155202
O40	O	-3.965959	0.444586	0.405202
O41	O	-4.715951	-0.146007	-0.504213
O42	O	-4.465951	0.103993	-0.254213
O43	O	-4.215951	0.353993	-0.004213
O44	O	-3.965951	0.603993	0.245787
O45	O	-4.373213	-0.141394	-0.181881
O46	O	-4.123213	0.108606	0.068119
O47	O	-3.873213	0.358606	0.318119
O48	O	-3.623213	0.608606	0.568119
C49	C	-3.905070	-0.352988	-0.349832
C50	C	-3.655070	-0.102988	-0.099832
C51	C	-3.405070	0.147012	0.150168
C52	C	-3.155070	0.397012	0.400168
C53	C	-3.961497	-0.480510	-0.348966
C54	C	-3.711497	-0.230510	-0.098966
C55	C	-3.461497	0.019490	0.151034
C56	C	-3.211497	0.269490	0.401034
C57	C	-3.905059	-0.151046	-0.551781
C58	C	-3.655059	0.098954	-0.301781
C59	C	-3.405059	0.348954	-0.051781
C60	C	-3.155059	0.598954	0.198219
C61	C	-3.961475	-0.150178	-0.679302
C62	C	-3.711475	0.099822	-0.429302
C63	C	-3.461475	0.349822	-0.179302
C64	C	-3.211475	0.599822	0.070698
C65	C	-4.007289	-0.149471	-0.782863
C66	C	-3.757289	0.100529	-0.532863
C67	C	-3.507289	0.350529	-0.282863
C68	C	-3.257289	0.600529	-0.032863
C69	C	-4.064778	-0.148580	-0.912784
C70	C	-3.814778	0.101420	-0.662784
C71	C	-3.564778	0.351420	-0.412784
C72	C	-3.314778	0.601420	-0.162784
C73	C	-4.064769	-0.713985	-0.347388
C74	C	-3.814769	-0.463985	-0.097388
C75	C	-3.564769	-0.213985	0.152612
C76	C	-3.314769	0.036015	0.402612
C77	C	-4.007293	-0.584063	-0.348266
C78	C	-3.757293	-0.334063	-0.098266
C79	C	-3.507293	-0.084063	0.151734
C80	C	-3.257293	0.165937	0.401734
C81	C	-4.187782	0.054933	-0.345811
C82	C	-3.937782	0.304933	-0.095811
C83	C	-3.687782	0.554933	0.154189
C84	C	-3.437782	0.804933	0.404189
C85	C	-4.110595	0.182453	-0.346685
C86	C	-3.860595	0.432453	-0.096685
C87	C	-3.610595	0.682453	0.153315
C88	C	-3.360595	0.932453	0.403315
C89	C	-4.187793	-0.147007	-0.143858
C90	C	-3.937793	0.102993	0.106142
C91	C	-3.687793	0.352993	0.356142
C92	C	-3.437793	0.602993	0.606142
C93	C	-4.110615	-0.147870	-0.016337
C94	C	-3.860615	0.102130	0.233663
C95	C	-3.610615	0.352130	0.483663
C96	C	-3.360615	0.602130	0.733663
