data_functionalizedCrystal
_audit_creation_method	'MofGen! by Chris Wilmer'
_symmetry_space_group_name_H-M	'P1'
_symmetry_Int_Tables_number	1
_symmetry_cell_setting	triclinic
loop_
_symmetry_equiv_pos_as_xyz
  x,y,z
_cell_length_a	14.853567
_cell_length_b	10.489741
_cell_length_c	13.930277
_cell_angle_alpha	89.995758
_cell_angle_beta	89.995755
_cell_angle_gamma	84.087052
loop_
_atom_site_label
_atom_site_type_symbol
_atom_site_fract_x
_atom_site_fract_y
_atom_site_fract_z
O1	O	1.197302	0.166528	-0.079764
O2	O	0.934954	0.186365	-0.079780
O3	O	1.072098	-0.009218	-0.079766
O4	O	1.060158	0.362111	-0.079778
O5	O	1.072078	-0.009222	0.079896
O6	O	0.934935	0.186361	0.079881
O7	O	1.197283	0.166524	0.079898
Zn8	Zn	1.066106	0.176442	0.105239
Zn9	Zn	1.066131	0.176447	-0.105122
O10	O	1.060139	0.362107	0.079883
C11	C	0.901351	0.185464	0.000048
C12	C	0.801252	0.182771	0.000042
C13	C	0.388003	0.055204	0.000068
C14	C	0.368025	0.287562	0.000059
C15	C	0.462072	0.290094	0.000056
C16	C	0.519090	0.175180	0.000057
C17	C	0.482060	0.057733	0.000062
C18	C	0.499110	0.407539	0.000042
C19	C	0.593163	0.410077	0.000038
C20	C	0.650183	0.295161	0.000046
C21	C	0.613147	0.177709	0.000051
C22	C	0.670164	0.062795	0.000053
C23	C	0.633130	-0.054658	0.000065
C24	C	0.539079	-0.057183	0.000070
C25	C	0.744234	0.297685	0.000041
C26	C	0.764221	0.065324	0.000047
C27	C	1.071186	-0.056742	0.000064
C28	C	1.068488	-0.198341	0.000062
C29	C	0.981228	-0.265502	0.000050
C30	C	1.022439	-0.358089	0.078774
C31	C	1.022479	-0.358060	-0.078640
C32	C	1.109736	-0.289063	0.078851
C33	C	1.109763	-0.289024	-0.078633
C34	C	1.151038	-0.381585	0.000110
C35	C	1.230886	0.167425	0.000067
C36	C	1.330985	0.170118	0.000067
C37	C	1.061051	0.409631	0.000051
C38	C	1.063748	0.551230	0.000047
N39	N	1.066095	0.176437	0.248805
N40	N	1.066149	0.176442	-0.248688
C41	C	1.005401	0.263018	0.701068
C42	C	1.126886	0.089867	0.701050
C43	C	1.126875	0.089863	0.600555
C44	C	1.066127	0.176439	0.550311
C45	C	1.005390	0.263019	0.600563
C46	C	1.187617	0.003293	0.550295
C47	C	1.187609	0.003287	0.449793
C48	C	1.126857	0.089858	0.399548
C49	C	1.066117	0.176440	0.449806
C50	C	1.005369	0.263016	0.399563
C51	C	0.944624	0.349593	0.449819
C52	C	0.944638	0.349590	0.550318
C53	C	1.126843	0.089861	0.299049
C54	C	1.005358	0.263017	0.299058
H55	H	0.321596	0.381119	0.000050
H56	H	0.895182	0.420079	0.591243
N57	N	0.973570	-0.398538	-0.166804
H58	H	1.015861	-0.459281	-0.206250
H59	H	0.919400	-0.442910	-0.146648
N60	N	0.879100	0.442960	0.395621
H61	H	0.840618	0.497805	0.442702
H62	H	0.913975	0.499441	0.353916
N63	N	0.437617	0.531475	0.000031
H64	H	0.372417	0.512048	0.000041
H65	H	0.449693	0.582656	0.059213
N66	N	0.939880	0.356387	0.755264
H67	H	0.949099	0.343252	0.826555
H68	H	0.950875	0.446903	0.737692
H69	H	0.623308	0.505714	0.000028
N70	N	1.246153	-0.448133	0.000178
H71	H	1.243814	-0.544017	-0.000386
H72	H	1.279343	-0.421810	-0.058703
N73	N	1.158648	-0.248447	-0.166787
H74	H	1.125638	-0.273257	-0.226226
H75	H	1.160613	-0.152503	-0.165705
N76	N	0.348067	-0.071473	0.000094
H77	H	0.279834	-0.055646	0.000103
H78	H	0.368867	-0.121771	-0.059091
H79	H	1.176349	0.019385	0.741962
N80	N	1.253141	-0.090069	0.604482
H81	H	1.243927	-0.076934	0.675774
H82	H	1.242148	-0.180585	0.586923
H83	H	1.237070	-0.067210	0.408880
H84	H	0.810640	-0.028255	0.000051
N85	N	0.784180	0.424349	0.000017
H86	H	0.733789	0.496762	0.000011
H87	H	0.822766	0.430467	0.059203
N88	N	0.886196	-0.198665	0.000136
H89	H	0.853347	-0.223592	0.059656
H90	H	0.888763	-0.102830	-0.000508
H91	H	0.985509	-0.388688	0.145325
N92	N	1.158588	-0.248806	0.167119
H93	H	1.213130	-0.205112	0.147168
H94	H	1.116392	-0.187517	0.206233
H95	H	0.955886	0.333514	0.258155
N96	N	1.192344	-0.003499	0.244828
H97	H	1.256426	0.011356	0.262293
H98	H	1.181305	-0.094017	0.262343
N99	N	0.694631	-0.178599	0.000059
H100	H	0.759830	-0.159166	0.000049
H101	H	0.682562	-0.229776	0.059253
H102	H	0.508917	-0.152807	0.000103
