data_functionalizedCrystal
_audit_creation_method	'MofGen! by Chris Wilmer'
_symmetry_space_group_name_H-M	'P1'
_symmetry_Int_Tables_number	1
_symmetry_cell_setting	triclinic
loop_
_symmetry_equiv_pos_as_xyz
  x,y,z
_cell_length_a	16.109301
_cell_length_b	14.044220
_cell_length_c	15.186229
_cell_angle_alpha	89.995248
_cell_angle_beta	89.999362
_cell_angle_gamma	88.325179
loop_
_atom_site_label
_atom_site_type_symbol
_atom_site_fract_x
_atom_site_fract_y
_atom_site_fract_z
O1	O	1.112195	0.121835	-0.073175
O2	O	0.871261	0.136997	-0.073189
O3	O	0.988112	-0.008568	-0.073174
O4	O	0.995345	0.267399	-0.073191
O5	O	0.988103	-0.008570	0.073284
O6	O	0.871253	0.136995	0.073268
O7	O	1.112187	0.121832	0.073282
Zn8	Zn	0.991718	0.129413	0.096528
Zn9	Zn	0.991730	0.129416	-0.096435
O10	O	0.995336	0.267397	0.073267
C11	C	0.840236	0.136381	0.000038
C12	C	0.747804	0.134540	0.000033
C13	C	0.531640	0.216634	0.000038
C14	C	0.444790	0.214896	0.000043
C15	C	0.451815	0.042189	0.000050
C16	C	0.538663	0.043927	0.000051
C17	C	0.578573	0.131153	0.000040
C18	C	0.404875	0.127677	0.000045
C19	C	0.310709	0.125792	0.000052
C20	C	0.672745	0.133038	0.000036
C21	C	0.984941	-0.043882	0.000055
C22	C	0.975498	-0.149105	0.000056
C23	C	0.958232	-0.341761	0.000042
C24	C	1.025212	-0.399415	0.000043
C25	C	1.015605	-0.506616	0.000036
C26	C	0.967838	-0.234551	0.000050
C27	C	1.143211	0.122448	0.000053
C28	C	1.235644	0.124289	0.000053
C29	C	0.998506	0.302711	0.000036
C30	C	1.007950	0.407934	0.000030
N31	N	0.991716	0.129411	0.228221
N32	N	0.991737	0.129411	-0.228128
C33	C	1.043479	0.064976	0.453951
C34	C	1.043481	0.064974	0.546141
C35	C	0.939969	0.193848	0.546136
C36	C	0.939963	0.193845	0.453948
C37	C	0.991723	0.129410	0.407858
C38	C	0.991731	0.129411	0.592235
C39	C	0.991734	0.129409	0.692192
C40	C	0.991719	0.129411	0.307895
H41	H	0.406580	0.284504	0.000043
H42	H	1.089769	-0.368264	-0.000012
H43	H	1.085624	0.012505	0.583667
O44	O	0.584348	-0.039052	-0.000067
C45	C	0.634781	-0.043218	-0.075928
H46	H	0.644740	0.032018	-0.101218
H47	H	0.603048	-0.086501	-0.129041
C48	C	0.707057	-0.183339	-0.021821
C49	C	0.719294	-0.090932	-0.052879
H50	H	0.759187	-0.212775	-0.007606
H51	H	0.673077	-0.180535	0.029286
H52	H	0.680609	-0.219396	-0.066088
H53	H	0.745731	-0.054873	-0.008609
H54	H	0.753280	-0.093731	-0.103980
H55	H	0.564132	0.287658	0.000035
O56	O	0.881280	-0.379073	0.000080
C57	C	0.888700	-0.479353	0.000054
H58	H	0.951891	-0.502471	0.027777
H59	H	0.882669	-0.506876	-0.070209
C60	C	0.741982	-0.492093	0.023443
C61	C	0.819591	-0.520486	0.057499
H62	H	0.699350	-0.517467	0.058874
H63	H	0.736981	-0.424532	0.023457
H64	H	0.736967	-0.515030	-0.035110
H65	H	0.824609	-0.497539	0.116046
H66	H	0.824591	-0.588045	0.057496
O67	O	1.093774	0.002290	0.409315
C68	C	1.139470	-0.054566	0.469771
H69	H	1.105307	-0.055643	0.535489
H70	H	1.203514	-0.023771	0.479568
C71	C	1.190977	-0.155494	0.353089
C72	C	1.149015	-0.156823	0.433802
H73	H	1.196869	-0.218570	0.330901
H74	H	1.160194	-0.117188	0.312357
H75	H	1.244343	-0.129827	0.361264
H76	H	1.095647	-0.182478	0.425625
H77	H	1.179789	-0.195137	0.474532
H78	H	0.897829	0.246311	0.583672
H79	H	0.897813	0.246315	0.416416
O80	O	0.413005	-0.042513	-0.000103
C81	C	0.362966	-0.048669	-0.075946
H82	H	0.387148	0.000861	-0.128961
H83	H	0.296201	-0.026787	-0.058800
C84	C	0.336126	-0.212693	-0.045223
C85	C	0.365832	-0.151866	-0.110341
H86	H	0.337891	-0.276350	-0.066439
H87	H	0.369836	-0.208545	0.005875
H88	H	0.280492	-0.194446	-0.030941
H89	H	0.421469	-0.170105	-0.124614
H90	H	0.332132	-0.156019	-0.161443
