data_functionalizedCrystal
_audit_creation_method	'MofGen! by Chris Wilmer'
_symmetry_space_group_name_H-M	'P1'
_symmetry_Int_Tables_number	1
_symmetry_cell_setting	triclinic
loop_
_symmetry_equiv_pos_as_xyz
  x,y,z
_cell_length_a	6.817900
_cell_length_b	7.190334
_cell_length_c	23.752963
_cell_angle_alpha	87.525939
_cell_angle_beta	79.933268
_cell_angle_gamma	119.388224
loop_
_atom_site_label
_atom_site_type_symbol
_atom_site_fract_x
_atom_site_fract_y
_atom_site_fract_z
V1	V	4.206747	0.666238	-0.078248
O2	O	4.207703	0.652268	0.004699
O3	O	4.140809	0.662920	-0.156056
O4	O	4.244246	0.956242	-0.076632
O5	O	4.103550	0.356915	-0.075274
V6	V	4.681517	0.629090	-0.068375
O7	O	4.487206	0.747725	-0.099905
O8	O	4.851255	0.547603	-0.046719
O9	O	4.524248	0.632408	0.009432
O10	O	4.797958	0.643060	-0.151322
O11	O	4.902111	0.938413	-0.071349
O12	O	4.420811	0.339086	-0.069991
C13	C	4.110719	1.026888	-0.073721
C14	C	4.224647	1.268432	-0.072899
C15	C	3.978764	0.652729	-0.175036
C16	C	4.006712	0.651949	-0.238643
C17	C	4.083873	0.451440	-0.625159
C18	C	4.110148	0.450677	-0.684923
O19	O	4.041966	0.284075	-0.709114
N20	N	4.219512	0.645744	-0.722716
C21	C	4.302628	0.841586	-0.700742
O22	O	4.398066	1.007435	-0.738375
C23	C	4.276368	0.842347	-0.640979
C24	C	4.166978	0.647267	-0.603189
C25	C	3.974493	0.256375	-0.587370
C26	C	3.948217	0.257138	-0.527610
C27	C	4.031322	0.452965	-0.505640
C28	C	4.140702	0.648029	-0.543429
C29	C	4.359498	1.038188	-0.619007
C30	C	4.333229	1.038932	-0.559239
C31	C	4.223839	0.843852	-0.521449
C32	C	4.197530	0.844619	-0.461699
N33	N	4.088166	0.649553	-0.423907
C34	C	4.005061	0.453726	-0.445877
C35	C	4.357773	0.839974	-0.826247
C36	C	4.384020	0.839214	-0.886009
C37	C	4.191541	0.448305	-0.870186
C38	C	4.165280	0.449066	-0.810423
C39	C	4.248408	0.644907	-0.788455
C40	C	3.949885	0.455343	-0.320377
C41	C	3.923607	0.456122	-0.260613
C42	C	4.116099	0.847031	-0.276441
C43	C	4.142365	0.846252	-0.336200
C44	C	4.059256	0.650391	-0.358166
O45	O	4.265662	1.011137	-0.437467
O46	O	3.909661	0.287906	-0.408238
C47	C	4.349633	0.642593	0.028410
C48	C	4.300928	0.643386	0.092016
H49	H	3.834521	0.297257	-0.229845
H50	H	4.448573	1.197044	-0.649766
H51	H	4.123875	0.288851	-0.888084
N52	N	3.860299	0.244079	-0.344054
H53	H	3.992511	0.242330	-0.370452
H54	H	3.787030	0.120793	-0.310999
H55	H	4.473060	0.998066	-0.916773
N56	N	3.830139	0.046724	-0.486853
H57	H	3.781463	-0.077431	-0.509848
H58	H	3.940547	0.045708	-0.463666
H59	H	3.906818	0.096901	-0.605251
H60	H	4.231404	1.005100	-0.366970
N61	N	4.047265	0.238660	-0.769665
H62	H	3.998595	0.114499	-0.792658
H63	H	4.157725	0.237691	-0.746490
H64	H	4.183746	1.006468	-0.258542
N65	N	4.447419	1.051214	-0.802554
H66	H	4.520676	1.174657	-0.835568
H67	H	4.315138	1.052780	-0.776136
N68	N	4.422900	1.250167	-0.535545
H69	H	4.496177	1.373618	-0.568557
H70	H	4.290623	1.251743	-0.509128
