data_functionalizedCrystal
_audit_creation_method	'MofGen! by Chris Wilmer'
_symmetry_space_group_name_H-M	'P1'
_symmetry_Int_Tables_number	1
_symmetry_cell_setting	triclinic
loop_
_symmetry_equiv_pos_as_xyz
  x,y,z
_cell_length_a	19.805407
_cell_length_b	16.625545
_cell_length_c	19.805399
_cell_angle_alpha	90.025578
_cell_angle_beta	90.024201
_cell_angle_gamma	90.024805
loop_
_atom_site_label
_atom_site_type_symbol
_atom_site_fract_x
_atom_site_fract_y
_atom_site_fract_z
Zn1	Zn	1.034740	-0.321036	0.382813
Zn2	Zn	1.284740	-0.071036	0.632813
Zn3	Zn	1.534740	0.178964	0.882813
Zn4	Zn	1.784740	0.428964	1.132813
Zn5	Zn	1.034656	-0.455874	0.269628
Zn6	Zn	1.284656	-0.205874	0.519628
Zn7	Zn	1.534656	0.044126	0.769628
Zn8	Zn	1.784656	0.294126	1.019628
Zn9	Zn	0.921554	-0.321057	0.269628
Zn10	Zn	1.171554	-0.071057	0.519628
Zn11	Zn	1.421554	0.178943	0.769628
Zn12	Zn	1.671554	0.428943	1.019628
Zn13	Zn	0.921520	-0.455829	0.382766
Zn14	Zn	1.171520	-0.205829	0.632766
Zn15	Zn	1.421520	0.044171	0.882766
Zn16	Zn	1.671520	0.294171	1.132766
O17	O	0.978117	-0.388449	0.326209
O18	O	1.228117	-0.138449	0.576209
O19	O	1.478117	0.111551	0.826209
O20	O	1.728117	0.361551	1.076209
O21	O	1.129445	-0.338933	0.367818
O22	O	1.379445	-0.088933	0.617818
O23	O	1.629445	0.161067	0.867818
O24	O	1.879445	0.411067	1.117818
O25	O	1.019633	-0.438017	0.174912
O26	O	1.269633	-0.188017	0.424912
O27	O	1.519633	0.061983	0.674912
O28	O	1.769633	0.311983	0.924912
O29	O	0.936618	-0.208222	0.284662
O30	O	1.186618	0.041778	0.534662
O31	O	1.436618	0.291778	0.784662
O32	O	1.686618	0.541778	1.034662
O33	O	1.129384	-0.437997	0.284662
O34	O	1.379384	-0.187997	0.534662
O35	O	1.629384	0.062003	0.784662
O36	O	1.879384	0.312003	1.034662
O37	O	1.019775	-0.208207	0.367818
O38	O	1.269775	0.041793	0.617818
O39	O	1.519775	0.291793	0.867818
O40	O	1.769775	0.541793	1.117818
O41	O	0.936537	-0.338968	0.174912
O42	O	1.186537	-0.088968	0.424912
O43	O	1.436537	0.161032	0.674912
O44	O	1.686537	0.411032	0.924912
O45	O	0.826833	-0.338925	0.284616
O46	O	1.076833	-0.088925	0.534616
O47	O	1.326833	0.161075	0.784616
O48	O	1.576833	0.411075	1.034616
O49	O	0.936559	-0.437921	0.477489
O50	O	1.186559	-0.187921	0.727489
O51	O	1.436559	0.062079	0.977489
O52	O	1.686559	0.312079	1.227489
O53	O	0.826808	-0.437941	0.367738
O54	O	1.076808	-0.187941	0.617738
O55	O	1.326808	0.062059	0.867738
O56	O	1.576808	0.312059	1.117738
O57	O	1.019741	-0.338890	0.477523
O58	O	1.269741	-0.088890	0.727523
O59	O	1.519741	0.161110	0.977523
O60	O	1.769741	0.411110	1.227523
O61	O	1.019599	-0.568700	0.284617
O62	O	1.269599	-0.318700	0.534617
O63	O	1.519599	-0.068700	0.784617
O64	O	1.769599	0.181300	1.034617
O65	O	0.936478	-0.568667	0.367739
O66	O	1.186478	-0.318667	0.617739
O67	O	1.436478	-0.068667	0.867739
O68	O	1.686478	0.181333	1.117739
C69	C	0.802261	-0.388431	0.326173
C70	C	1.052261	-0.138431	0.576173
C71	C	1.302261	0.111569	0.826173
C72	C	1.552261	0.361569	1.076173
C73	C	0.727029	-0.388442	0.326173
C74	C	0.977029	-0.138442	0.576173
C75	C	1.227029	0.111558	0.826173
C76	C	1.477029	0.361558	1.076173
C77	C	0.265243	-0.440104	0.369466
C78	C	0.515243	-0.190104	0.619466
C79	C	0.765243	0.059896	0.869466
C80	C	1.015243	0.309896	1.119466
C81	C	0.335931	-0.440102	0.369451
C82	C	0.585931	-0.190102	0.619451
C83	C	0.835931	0.059898	0.869451
C84	C	1.085931	0.309898	1.119451
C85	C	0.371268	-0.388468	0.326235
C86	C	0.621268	-0.138468	0.576235
C87	C	0.871268	0.111532	0.826235
C88	C	1.121268	0.361532	1.076235
C89	C	0.335912	-0.336838	0.283026
C90	C	0.585912	-0.086838	0.533026
C91	C	0.835912	0.163162	0.783026
C92	C	1.085912	0.413162	1.033026
C93	C	0.265225	-0.336844	0.283037
C94	C	0.515225	-0.086844	0.533037
C95	C	0.765225	0.163156	0.783037
C96	C	1.015225	0.413156	1.033037
C97	C	0.620985	-0.336814	0.282978
C98	C	0.870985	-0.086814	0.532978
C99	C	1.120985	0.163186	0.782978
C100	C	1.370985	0.413186	1.032978
C101	C	0.691677	-0.336810	0.282971
C102	C	0.941677	-0.086810	0.532971
C103	C	1.191677	0.163190	0.782971
C104	C	1.441677	0.413190	1.032971
C105	C	0.691692	-0.440072	0.369392
C106	C	0.941692	-0.190072	0.619392
C107	C	1.191692	0.059928	0.869392
C108	C	1.441692	0.309928	1.119392
C109	C	0.621005	-0.440078	0.369404
C110	C	0.871005	-0.190078	0.619404
C111	C	1.121005	0.059922	0.869404
C112	C	1.371005	0.309922	1.119404
C113	C	0.585655	-0.388451	0.326192
C114	C	0.835655	-0.138451	0.576192
C115	C	1.085655	0.111549	0.826192
C116	C	1.335655	0.361549	1.076192
C117	C	0.509007	-0.388454	0.326207
C118	C	0.759007	-0.138454	0.576207
C119	C	1.009007	0.111546	0.826207
C120	C	1.259007	0.361546	1.076207
C121	C	0.447915	-0.388461	0.326223
C122	C	0.697915	-0.138461	0.576223
C123	C	0.947915	0.111539	0.826223
C124	C	1.197915	0.361539	1.076223
C125	C	0.978044	-0.597940	0.326187
C126	C	1.228044	-0.347940	0.576187
C127	C	1.478044	-0.097940	0.826187
C128	C	1.728044	0.152060	1.076187
C129	C	0.978074	-0.687561	0.326201
C130	C	1.228074	-0.437561	0.576201
C131	C	1.478074	-0.187561	0.826201
C132	C	1.728074	0.062439	1.076201
C133	C	0.978101	-0.760343	0.326214
C134	C	1.228101	-0.510343	0.576214
C135	C	1.478101	-0.260343	0.826214
C136	C	1.728101	-0.010343	1.076214
C137	C	0.978140	-0.851652	0.326229
C138	C	1.228140	-0.601652	0.576229
C139	C	1.478140	-0.351652	0.826229
C140	C	1.728140	-0.101652	1.076229
C141	C	0.978175	-0.924428	0.326238
C142	C	1.228175	-0.674428	0.576238
C143	C	1.478175	-0.424428	0.826238
C144	C	1.728175	-0.174428	1.076238
C145	C	0.978214	-1.015743	0.326252
C146	C	1.228214	-0.765743	0.576252
C147	C	1.478214	-0.515743	0.826252
C148	C	1.728214	-0.265743	1.076252
C149	C	1.154660	-0.388468	0.326245
C150	C	1.404660	-0.138468	0.576245
C151	C	1.654660	0.111532	0.826245
C152	C	1.904660	0.361532	1.076245
C153	C	1.229892	-0.388476	0.326261
C154	C	1.479892	-0.138476	0.576261
C155	C	1.729892	0.111524	0.826261
C156	C	1.979892	0.361524	1.076261
C157	C	0.978155	-0.388398	0.502752
C158	C	1.228155	-0.138398	0.752752
C159	C	1.478155	0.111602	1.002752
C160	C	1.728155	0.361602	1.252752
C161	C	0.978172	-0.388377	0.577984
C162	C	1.228172	-0.138377	0.827984
C163	C	1.478172	0.111623	1.077984
C164	C	1.728172	0.361623	1.327984
C165	C	0.978210	-0.178140	0.326245
C166	C	1.228210	0.071860	0.576245
C167	C	1.478210	0.321860	0.826245
C168	C	1.728210	0.571860	1.076245
C169	C	0.978249	-0.088519	0.326260
C170	C	1.228249	0.161481	0.576260
C171	C	1.478249	0.411481	0.826260
C172	C	1.728249	0.661481	1.076260
C173	C	0.978119	-0.388441	0.150353
C174	C	1.228119	-0.138441	0.400353
C175	C	1.478119	0.111559	0.650353
C176	C	1.728119	0.361559	0.900353
C177	C	0.978234	-0.388236	0.075121
C178	C	1.228234	-0.138236	0.325121
C179	C	1.478234	0.111764	0.575121
C180	C	1.728234	0.361764	0.825121
C181	C	1.021486	-0.336808	0.613347
C182	C	1.271486	-0.086808	0.863347
C183	C	1.521486	0.163192	1.113347
C184	C	1.771486	0.413192	1.363347
C185	C	1.021493	-0.336785	0.684035
C186	C	1.271493	-0.086785	0.934035
C187	C	1.521493	0.163215	1.184035
C188	C	1.771493	0.413215	1.434035
C189	C	0.978188	-0.388334	0.719359
C190	C	1.228188	-0.138334	0.969359
C191	C	1.478188	0.111666	1.219359
C192	C	1.728188	0.361666	1.469359
C193	C	0.934870	-0.439905	0.683991
C194	C	1.184870	-0.189905	0.933991
C195	C	1.434870	0.060095	1.183991
C196	C	1.684870	0.310095	1.433991
C197	C	0.934860	-0.439924	0.613304
C198	C	1.184860	-0.189924	0.863304
C199	C	1.434860	0.060076	1.113304
C200	C	1.684860	0.310076	1.363304
C201	C	0.934908	-0.439830	0.969065
C202	C	1.184908	-0.189830	1.219065
C203	C	1.434908	0.060170	1.469065
C204	C	1.684908	0.310170	1.719065
C205	C	0.934922	-0.439809	1.039757
C206	C	1.184922	-0.189809	1.289757
C207	C	1.434922	0.060191	1.539757
C208	C	1.684922	0.310191	1.789757
C209	C	1.021541	-0.336691	1.039796
C210	C	1.271541	-0.086691	1.289796
C211	C	1.521541	0.163309	1.539796
C212	C	1.771541	0.413309	1.789796
C213	C	1.021531	-0.336710	0.969109
C214	C	1.271531	-0.086710	1.219109
C215	C	1.521531	0.163290	1.469109
C216	C	1.771531	0.413290	1.719109
C217	C	0.978210	-0.388277	0.933747
C218	C	1.228210	-0.138277	1.183747
C219	C	1.478210	0.111723	1.433747
C220	C	1.728210	0.361723	1.683747
C221	C	0.978202	-0.388301	0.857098
C222	C	1.228202	-0.138301	1.107098
C223	C	1.478202	0.111699	1.357098
C224	C	1.728202	0.361699	1.607098
C225	C	0.978199	-0.388315	0.796006
C226	C	1.228199	-0.138315	1.046006
C227	C	1.478199	0.111685	1.296006
C228	C	1.728199	0.361685	1.546006
H229	H	0.364711	-0.482145	0.404631
H230	H	0.614711	-0.232145	0.654631
H231	H	0.864711	0.017855	0.904631
H232	H	1.114711	0.267855	1.154631
N233	N	0.888141	-0.495549	0.575167
N234	N	1.138141	-0.245549	0.825167
N235	N	1.388141	0.004451	1.075167
N236	N	1.638141	0.254451	1.325167
H237	H	0.915624	-0.532927	0.545838
H238	H	1.165624	-0.282927	0.795838
H239	H	1.415624	-0.032927	1.045838
H240	H	1.665624	0.217073	1.295838
H241	H	0.856792	-0.462729	0.545877
H242	H	1.106792	-0.212729	0.795877
H243	H	1.356792	0.037271	1.045877
H244	H	1.606792	0.287271	1.295877
H245	H	0.236477	-0.482146	0.404661
H246	H	0.486477	-0.232146	0.654661
H247	H	0.736477	0.017854	0.904661
H248	H	0.986477	0.267854	1.154661
H249	H	0.592237	-0.482121	0.404597
H250	H	0.842237	-0.232121	0.654597
H251	H	1.092237	0.017879	0.904597
H252	H	1.342237	0.267879	1.154597
N253	N	0.729786	-0.281111	0.236357
N254	N	0.979786	-0.031111	0.486357
N255	N	1.229786	0.218889	0.736357
N256	N	1.479786	0.468889	0.986357
H257	H	0.717457	-0.293563	0.187979
H258	H	0.967457	-0.043563	0.437979
H259	H	1.217457	0.206437	0.687979
H260	H	1.467457	0.456437	0.937979
H261	H	0.779918	-0.288961	0.242966
H262	H	1.029918	-0.038961	0.492966
H263	H	1.279918	0.211039	0.742966
H264	H	1.529918	0.461039	0.992966
H265	H	0.592212	-0.294779	0.247790
H266	H	0.842212	-0.044779	0.497790
H267	H	1.092212	0.205221	0.747790
H268	H	1.342212	0.455221	0.997790
N269	N	1.068202	-0.281216	0.575252
N270	N	1.318202	-0.031216	0.825252
N271	N	1.568202	0.218784	1.075252
N272	N	1.818202	0.468784	1.325252
H273	H	1.061629	-0.289056	0.525105
H274	H	1.311629	-0.039056	0.775105
H275	H	1.561629	0.210944	1.025105
H276	H	1.811629	0.460944	1.275105
H277	H	1.116534	-0.293780	0.587627
H278	H	1.366534	-0.043780	0.837627
H279	H	1.616534	0.206220	1.087627
H280	H	1.866534	0.456220	1.337627
N281	N	1.068266	-0.281068	1.077936
N282	N	1.318266	-0.031068	1.327936
N283	N	1.568266	0.218932	1.577936
N284	N	1.818266	0.468932	1.827936
H285	H	1.061702	-0.288872	1.128076
H286	H	1.311702	-0.038872	1.378076
H287	H	1.561702	0.211128	1.628076
H288	H	1.811702	0.461128	1.878076
H289	H	1.057757	-0.223484	1.065585
H290	H	1.307757	0.026516	1.315585
H291	H	1.557757	0.276516	1.565585
H292	H	1.807757	0.526516	1.815585
H293	H	0.720482	-0.482111	0.404576
H294	H	0.970482	-0.232111	0.654576
H295	H	1.220482	0.017889	0.904576
H296	H	1.470482	0.267889	1.154576
N297	N	0.374021	-0.281150	0.236409
N298	N	0.624021	-0.031150	0.486409
N299	N	0.874021	0.218850	0.736409
N300	N	1.124021	0.468850	0.986409
H301	H	0.424166	-0.288977	0.242959
H302	H	0.674166	-0.038977	0.492959
H303	H	0.924166	0.211023	0.742959
H304	H	1.174166	0.461023	0.992959
H305	H	0.361687	-0.223582	0.247030
H306	H	0.611687	0.026418	0.497030
H307	H	0.861687	0.276418	0.747030
H308	H	1.111687	0.526418	0.997030
H309	H	0.236443	-0.294801	0.247857
H310	H	0.486443	-0.044801	0.497857
H311	H	0.736443	0.205199	0.747857
H312	H	0.986443	0.455199	0.997857
H313	H	1.056765	-0.294795	0.712825
H314	H	1.306765	-0.044795	0.962825
H315	H	1.556765	0.205205	1.212825
H316	H	1.806765	0.455205	1.462825
H317	H	1.056796	-0.294736	0.940351
H318	H	1.306796	-0.044736	1.190351
H319	H	1.556796	0.205264	1.440351
H320	H	1.806796	0.455264	1.690351
H321	H	0.899656	-0.481788	1.068516
H322	H	1.149656	-0.231788	1.318516
H323	H	1.399656	0.018212	1.568516
H324	H	1.649656	0.268212	1.818516
H325	H	0.899643	-0.481831	0.940281
H326	H	1.149643	-0.231831	1.190281
H327	H	1.399643	0.018169	1.440281
H328	H	1.649643	0.268169	1.690281
H329	H	0.899608	-0.481875	0.712758
H330	H	1.149608	-0.231875	0.962758
H331	H	1.399608	0.018125	1.212758
H332	H	1.649608	0.268125	1.462758
