data_functionalizedCrystal
_audit_creation_method	'MofGen! by Chris Wilmer'
_symmetry_space_group_name_H-M	'P1'
_symmetry_Int_Tables_number	1
_symmetry_cell_setting	triclinic
loop_
_symmetry_equiv_pos_as_xyz
  x,y,z
_cell_length_a	16.992694
_cell_length_b	14.421503
_cell_length_c	16.992695
_cell_angle_alpha	90.005252
_cell_angle_beta	90.668223
_cell_angle_gamma	89.996610
loop_
_atom_site_label
_atom_site_type_symbol
_atom_site_fract_x
_atom_site_fract_y
_atom_site_fract_z
O1	O	1.050856	-0.076996	0.166905
O2	O	1.550856	0.423004	0.666905
O3	O	0.822456	-0.077024	0.165074
O4	O	1.322456	0.422976	0.665074
O5	O	0.935740	-0.077003	0.051789
O6	O	1.435740	0.422997	0.551789
O7	O	0.937571	-0.077017	0.280189
O8	O	1.437571	0.422983	0.780189
O9	O	0.935719	0.077221	0.051808
O10	O	1.435719	0.577221	0.551808
O11	O	0.822435	0.077200	0.165093
O12	O	1.322435	0.577200	0.665093
O13	O	1.050835	0.077227	0.166924
O14	O	1.550835	0.577227	0.666924
Cu15	Cu	0.936633	0.091295	0.166010
Cu16	Cu	1.436633	0.591295	0.666010
Cu17	Cu	0.936658	-0.091092	0.165988
Cu18	Cu	1.436658	0.408908	0.665988
O19	O	0.937550	0.077206	0.280208
O20	O	1.437550	0.577206	0.780208
C21	C	0.793085	0.000085	0.162727
C22	C	1.293085	0.500085	0.662727
C23	C	0.705600	0.000074	0.155699
C24	C	1.205600	0.500074	0.655699
C25	C	0.659610	0.000071	0.223517
C26	C	1.159610	0.500071	0.723517
C27	C	0.577409	0.000084	0.216908
C28	C	1.077409	0.500084	0.716908
C29	C	0.541201	0.000094	0.142480
C30	C	1.041201	0.500094	0.642480
C31	C	0.587198	0.000101	0.074657
C32	C	1.087198	0.500101	0.574657
C33	C	0.669397	0.000094	0.081267
C34	C	1.169397	0.500094	0.581267
C35	C	0.295886	0.000121	0.115086
C36	C	0.795886	0.500121	0.615086
C37	C	0.213681	0.000125	0.108481
C38	C	0.713681	0.500125	0.608481
C39	C	0.203898	0.000110	0.250732
C40	C	0.703898	0.500110	0.750732
C41	C	0.286099	0.000098	0.257336
C42	C	0.786099	0.500098	0.757336
C43	C	0.332089	0.000109	0.189512
C44	C	0.832089	0.500109	0.689512
N45	N	0.457178	0.000105	0.135723
N46	N	0.957178	0.500105	0.635723
N47	N	0.416110	0.000105	0.196270
N48	N	0.916110	0.500105	0.696270
N49	N	0.936621	0.219577	0.166026
N50	N	1.436621	0.719577	0.666026
C51	C	0.884224	0.469221	0.218386
C52	C	1.384224	0.969221	0.718386
C53	C	0.956311	0.531031	0.238123
C54	C	1.456311	1.031031	0.738123
C55	C	0.936637	0.408738	0.166011
C56	C	1.436637	0.908738	0.666011
C57	C	0.864567	0.531022	0.146296
C58	C	1.364567	1.031022	0.646296
C59	C	0.936646	0.591459	0.165998
C60	C	1.436646	1.091459	0.665998
C61	C	1.008762	0.469187	0.185785
C62	C	1.508762	0.969187	0.685785
C63	C	0.916969	0.469173	0.093924
C64	C	1.416969	0.969173	0.593924
C65	C	0.989106	0.530955	0.113634
C66	C	1.489106	1.030955	0.613634
C67	C	0.936631	0.303477	0.166020
C68	C	1.436631	0.803477	0.666020
C69	C	0.936660	0.696718	0.165988
C70	C	1.436660	1.196718	0.665988
C71	C	1.080205	0.000117	0.169270
C72	C	1.580205	0.500117	0.669270
C73	C	1.167690	0.000121	0.176299
C74	C	1.667690	0.500121	0.676299
N75	N	0.936662	0.780627	0.165980
N76	N	1.436662	1.280627	0.665980
C77	C	0.933374	0.000109	0.022439
C78	C	1.433374	0.500109	0.522439
C79	C	0.926345	0.000108	-0.065046
C80	C	1.426345	0.500108	0.434954
C81	C	0.994163	0.000117	-0.111037
C82	C	1.494163	0.500117	0.388963
C83	C	0.987554	0.000107	-0.193238
C84	C	1.487554	0.500107	0.306762
C85	C	0.913127	0.000095	-0.229446
C86	C	1.413127	0.500095	0.270554
C87	C	0.845303	0.000083	-0.183449
C88	C	1.345303	0.500083	0.316551
C89	C	0.851913	0.000086	-0.101250
C90	C	1.351913	0.500086	0.398750
C91	C	0.885732	0.000079	-0.474760
C92	C	1.385732	0.500079	0.025240
C93	C	0.879127	0.000079	-0.556966
C94	C	1.379127	0.500079	-0.056966
C95	C	1.021379	0.000101	-0.566749
C96	C	1.521379	0.500101	-0.066749
C97	C	1.027982	0.000109	-0.484547
C98	C	1.527982	0.500109	0.015453
C99	C	0.960159	0.000093	-0.438558
C100	C	1.460159	0.500093	0.061442
N101	N	0.906369	0.000088	-0.313468
N102	N	1.406369	0.500088	0.186532
N103	N	0.966917	0.000093	-0.354537
N104	N	1.466917	0.500093	0.145463
C105	C	0.939917	0.000093	0.309559
C106	C	1.439917	0.500093	0.809559
C107	C	0.946945	0.000088	0.397044
C108	C	1.446945	0.500088	0.897044
H109	H	0.184203	0.000132	0.047870
H110	H	0.684203	0.500132	0.547870
C111	C	0.894460	0.432427	0.011605
C112	C	1.394460	0.932427	0.511605
H113	H	0.936451	0.396181	-0.008321
H114	H	1.436451	0.896181	0.491679
H115	H	0.848485	0.395255	0.015090
H116	H	1.348485	0.895255	0.515090
H117	H	0.884565	0.483180	-0.022746
H118	H	1.384565	0.983180	0.477254
H119	H	0.830505	0.000066	-0.437325
H120	H	1.330505	0.500066	0.062675
C121	C	0.699432	0.000059	0.305388
C122	C	1.199432	0.500059	0.805388
H123	H	0.660265	0.000067	0.344830
H124	H	1.160265	0.500067	0.844830
H125	H	0.731294	-0.053724	0.310918
H126	H	1.231294	0.446276	0.810918
H127	H	0.731293	0.053845	0.310929
H128	H	1.231293	0.553845	0.810929
H129	H	0.803615	0.558186	0.129628
H130	H	1.303615	1.058186	0.629628
H131	H	1.054770	0.000132	-0.081563
H132	H	1.554770	0.500132	0.418437
C133	C	1.049054	0.567354	0.053795
C134	C	1.549054	1.067354	0.553795
H135	H	1.100207	0.546067	0.067924
H136	H	1.600207	1.046067	0.567924
H137	H	1.035517	0.545238	0.002749
H138	H	1.535517	1.045238	0.502749
H139	H	1.048431	0.633224	0.053812
H140	H	1.548431	1.133224	0.553812
C141	C	0.763433	0.000063	-0.223272
C142	C	1.263433	0.500063	0.276728
H143	H	0.723990	0.000047	-0.184106
H144	H	1.223990	0.500047	0.315894
H145	H	0.757885	0.053841	-0.255133
H146	H	1.257885	0.553841	0.244867
H147	H	0.757910	-0.053728	-0.255136
H148	H	1.257910	0.446272	0.244864
C149	C	0.346465	0.000127	0.040483
C150	C	0.846465	0.500127	0.540483
H151	H	0.313125	0.000124	-0.004788
H152	H	0.813125	0.500124	0.495212
H153	H	0.378733	0.053906	0.040109
H154	H	0.878733	0.553906	0.540109
H155	H	0.378734	-0.053663	0.040095
H156	H	0.878734	0.446337	0.540095
H157	H	0.557710	0.000122	0.014056
H158	H	1.057710	0.500122	0.514056
C159	C	0.526822	0.000077	0.291508
C160	C	1.026822	0.500077	0.791508
H161	H	0.560159	0.000059	0.336780
H162	H	1.060159	0.500059	0.836780
H163	H	0.494554	0.053861	0.291898
H164	H	0.994554	0.553861	0.791898
H165	H	0.494552	-0.053708	0.291876
H166	H	0.994552	0.446292	0.791876
H167	H	0.315574	0.000079	0.317942
H168	H	0.815574	0.500079	0.817942
C169	C	0.824421	0.432589	0.278270
C170	C	1.324421	0.932589	0.778270
H171	H	0.838531	0.453770	0.329461
H172	H	1.338531	0.953770	0.829461
H173	H	0.773353	0.454667	0.264775
H174	H	1.273353	0.954667	0.764775
H175	H	0.824501	0.366721	0.277529
H176	H	1.324501	0.866721	0.777529
C177	C	1.062154	0.000126	-0.243824
C178	C	1.562154	0.500126	0.256176
H179	H	1.107427	0.000148	-0.210487
H180	H	1.607427	0.500148	0.289513
H181	H	1.062548	-0.053654	-0.276098
H182	H	1.562548	0.446346	0.223902
H183	H	1.062519	0.053915	-0.276089
H184	H	1.562519	0.553915	0.223911
H185	H	1.088589	0.000119	-0.455073
H186	H	1.588589	0.500119	0.044927
C187	C	1.095977	0.000106	-0.617338
C188	C	1.595977	0.500106	-0.117338
H189	H	1.081384	0.000094	-0.671479
H190	H	1.581384	0.500094	-0.171479
H191	H	1.126280	0.053888	-0.605876
H192	H	1.626280	0.553888	-0.105876
H193	H	1.126286	-0.053681	-0.605878
H194	H	1.626286	0.446319	-0.105878
C195	C	0.978792	0.567750	0.320464
C196	C	1.478792	1.067750	0.820464
H197	H	0.941497	0.546621	0.357623
H198	H	1.441497	1.046621	0.857623
H199	H	1.029632	0.545673	0.334829
H200	H	1.529632	1.045673	0.834829
H201	H	0.979095	0.633618	0.319740
H202	H	1.479095	1.133618	0.819740
C203	C	0.797255	0.000065	-0.596797
C204	C	1.297255	0.500065	-0.096797
H205	H	0.803036	0.000078	-0.652339
H206	H	1.303036	0.500078	-0.152339
H207	H	0.769120	-0.053720	-0.581325
H208	H	1.269120	0.446280	-0.081325
H209	H	0.769107	0.053849	-0.581310
H210	H	1.269107	0.553849	-0.081310
C211	C	0.153312	0.000102	0.325333
C212	C	0.653312	0.500102	0.825333
H213	H	0.186649	0.000088	0.370605
H214	H	0.686649	0.500088	0.870605
H215	H	0.121040	0.053884	0.325722
H216	H	0.621040	0.553884	0.825722
H217	H	0.121045	-0.053685	0.325703
H218	H	0.621045	0.446315	0.825703
C219	C	0.719987	0.000089	0.006667
C220	C	1.219987	0.500089	0.506667
H221	H	0.686651	0.000086	-0.038606
H222	H	1.186651	0.500086	0.461394
H223	H	0.752258	0.053866	0.006293
H224	H	1.252258	0.553866	0.506293
H225	H	0.752253	-0.053703	0.006285
H226	H	1.252253	0.446297	0.506285
H227	H	0.796688	0.000079	-0.063804
H228	H	1.296688	0.500079	0.436196
H229	H	1.069732	0.442140	0.202526
H230	H	1.569732	0.942140	0.702526
