data_functionalizedCrystal
_audit_creation_method	'MofGen! by Chris Wilmer'
_symmetry_space_group_name_H-M	'P1'
_symmetry_Int_Tables_number	1
_symmetry_cell_setting	triclinic
loop_
_symmetry_equiv_pos_as_xyz
  x,y,z
_cell_length_a	21.395362
_cell_length_b	21.395361
_cell_length_c	21.395355
_cell_angle_alpha	89.978489
_cell_angle_beta	89.956060
_cell_angle_gamma	90.046585
loop_
_atom_site_label
_atom_site_type_symbol
_atom_site_fract_x
_atom_site_fract_y
_atom_site_fract_z
Zn1	Zn	-0.957859	0.249246	0.354573
Zn2	Zn	-0.707859	0.499246	0.604573
Zn3	Zn	-0.457859	0.749246	0.854573
Zn4	Zn	-0.207859	0.999246	1.104573
Zn5	Zn	-0.957762	0.354005	0.249790
Zn6	Zn	-0.707762	0.604005	0.499790
Zn7	Zn	-0.457762	0.854005	0.749790
Zn8	Zn	-0.207762	1.104005	0.999790
Zn9	Zn	-0.853074	0.249275	0.249774
Zn10	Zn	-0.603074	0.499275	0.499774
Zn11	Zn	-0.353074	0.749275	0.749774
Zn12	Zn	-0.103074	0.999275	0.999774
Zn13	Zn	-0.853044	0.354018	0.354494
Zn14	Zn	-0.603044	0.604018	0.604494
Zn15	Zn	-0.353044	0.854018	0.854494
Zn16	Zn	-0.103044	1.104018	1.104494
O17	O	-0.905435	0.301636	0.302158
O18	O	-0.655435	0.551636	0.552158
O19	O	-0.405435	0.801636	0.802158
O20	O	-0.155435	1.051636	1.052158
O21	O	-1.045524	0.263125	0.340712
O22	O	-0.795524	0.513125	0.590712
O23	O	-0.545524	0.763125	0.840712
O24	O	-0.295524	1.013125	1.090712
O25	O	-0.943847	0.340119	0.162110
O26	O	-0.693847	0.590119	0.412110
O27	O	-0.443847	0.840119	0.662110
O28	O	-0.193847	1.090119	0.912110
O29	O	-0.867028	0.161593	0.263702
O30	O	-0.617028	0.411593	0.513702
O31	O	-0.367028	0.661593	0.763702
O32	O	-0.117028	0.911593	1.013702
O33	O	-1.045453	0.340091	0.263729
O34	O	-0.795453	0.590091	0.513729
O35	O	-0.545453	0.840091	0.763729
O36	O	-0.295453	1.090091	1.013729
O37	O	-0.944013	0.161572	0.340697
O38	O	-0.694013	0.411572	0.590697
O39	O	-0.444013	0.661572	0.840697
O40	O	-0.194013	0.911572	1.090697
O41	O	-0.866934	0.263174	0.162098
O42	O	-0.616934	0.513174	0.412098
O43	O	-0.366934	0.763174	0.662098
O44	O	-0.116934	1.013174	0.912098
O45	O	-0.765392	0.263187	0.263626
O46	O	-0.515392	0.513187	0.513626
O47	O	-0.265392	0.763187	0.763626
O48	O	-0.015392	1.013187	1.013626
O49	O	-0.866976	0.340113	0.442183
O50	O	-0.616976	0.590113	0.692183
O51	O	-0.366976	0.840113	0.942183
O52	O	-0.116976	1.090113	1.192183
O53	O	-0.765370	0.340141	0.340564
O54	O	-0.515370	0.590141	0.590564
O55	O	-0.265370	0.840141	0.840564
O56	O	-0.015370	1.090141	1.090564
O57	O	-0.943983	0.263137	0.442240
O58	O	-0.693983	0.513137	0.692240
O59	O	-0.443983	0.763137	0.942240
O60	O	-0.193983	1.013137	1.192240
O61	O	-0.943817	0.441685	0.263653
O62	O	-0.693817	0.691685	0.513653
O63	O	-0.443817	0.941685	0.763653
O64	O	-0.193817	1.191685	1.013653
O65	O	-0.866881	0.441695	0.340579
O66	O	-0.616881	0.691695	0.590579
O67	O	-0.366881	0.941695	0.840579
O68	O	-0.116881	1.191695	1.090579
C69	C	-0.742647	0.301669	0.302085
C70	C	-0.492647	0.551669	0.552085
C71	C	-0.242647	0.801669	0.802085
C72	C	0.007353	1.051669	1.052085
C73	C	-0.673006	0.301698	0.302069
C74	C	-0.423006	0.551698	0.552069
C75	C	-0.173006	0.801698	0.802069
C76	C	0.076994	1.051698	1.052069
C77	C	-0.905487	0.301623	0.465581
C78	C	-0.655487	0.551623	0.715581
C79	C	-0.405487	0.801623	0.965581
C80	C	-0.155487	1.051623	1.215581
C81	C	-0.905509	0.301618	0.535222
C82	C	-0.655509	0.551618	0.785222
C83	C	-0.405509	0.801618	1.035222
C84	C	-0.155509	1.051618	1.285222
C85	C	-0.905352	0.464424	0.302123
C86	C	-0.655352	0.714424	0.552123
C87	C	-0.405352	0.964424	0.802123
C88	C	-0.155352	1.214424	1.052123
C89	C	-0.905374	0.534065	0.302129
C90	C	-0.655374	0.784065	0.552129
C91	C	-0.405374	1.034065	0.802129
C92	C	-0.155374	1.284065	1.052129
C93	C	-1.068858	0.301603	0.302231
C94	C	-0.818858	0.551603	0.552231
C95	C	-0.568858	0.801603	0.802231
C96	C	-0.318858	1.051603	1.052231
C97	C	-1.138499	0.301589	0.302262
C98	C	-0.888499	0.551589	0.552262
C99	C	-0.638499	0.801589	0.802262
C100	C	-0.388499	1.051589	1.052262
C101	C	-0.640297	0.341822	0.342070
C102	C	-0.390297	0.591822	0.592070
C103	C	-0.140297	0.841822	0.842070
C104	C	0.109703	1.091822	1.092070
C105	C	-0.574862	0.341806	0.342098
C106	C	-0.324862	0.591806	0.592098
C107	C	-0.074862	0.841806	0.842098
C108	C	0.175138	1.091806	1.092098
C109	C	-0.542138	0.301674	0.302113
C110	C	-0.292138	0.551674	0.552113
C111	C	-0.042138	0.801674	0.802113
C112	C	0.207862	1.051674	1.052113
C113	C	-0.574854	0.261543	0.262109
C114	C	-0.324854	0.511543	0.512109
C115	C	-0.074854	0.761543	0.762109
C116	C	0.175146	1.011543	1.012109
C117	C	-0.640288	0.261555	0.262087
C118	C	-0.390288	0.511555	0.512087
C119	C	-0.140288	0.761555	0.762087
C120	C	0.109712	1.011555	1.012087
C121	C	-0.438413	0.296627	0.245708
C122	C	-0.188413	0.546627	0.495708
C123	C	0.061587	0.796627	0.745708
C124	C	0.311587	1.046627	0.995708
C125	C	-0.372980	0.296619	0.245730
C126	C	-0.122980	0.546619	0.495730
C127	C	0.127020	0.796619	0.745730
C128	C	0.377020	1.046619	0.995730
C129	C	-0.340317	0.301633	0.302182
C130	C	-0.090317	0.551633	0.552182
C131	C	0.159683	0.801633	0.802182
C132	C	0.409683	1.051633	1.052182
C133	C	-0.373095	0.306668	0.358616
C134	C	-0.123095	0.556668	0.608616
C135	C	0.126905	0.806668	0.858616
C136	C	0.376905	1.056668	1.108616
C137	C	-0.438529	0.306681	0.358594
C138	C	-0.188529	0.556681	0.608594
C139	C	0.061471	0.806681	0.858594
C140	C	0.311471	1.056681	1.108594
C141	C	-0.471185	0.301656	0.302133
C142	C	-0.221185	0.551656	0.552133
C143	C	0.028815	0.801656	0.802133
C144	C	0.278815	1.051656	1.052133
C145	C	-0.236656	0.341742	0.342218
C146	C	0.013344	0.591742	0.592218
C147	C	0.263344	0.841742	0.842218
C148	C	0.513344	1.091742	1.092218
C149	C	-0.171219	0.341723	0.342247
C150	C	0.078781	0.591723	0.592247
C151	C	0.328781	0.841723	0.842247
C152	C	0.578781	1.091723	1.092247
C153	C	-0.171213	0.261462	0.262252
C154	C	0.078787	0.511462	0.512252
C155	C	0.328787	0.761462	0.762252
C156	C	0.578787	1.011462	1.012252
C157	C	-0.236648	0.261479	0.262229
C158	C	0.013352	0.511479	0.512229
C159	C	0.263352	0.761479	0.762229
C160	C	0.513352	1.011479	1.012229
C161	C	-0.269366	0.301622	0.302211
C162	C	-0.019366	0.551622	0.552211
C163	C	0.230634	0.801622	0.802211
C164	C	0.480634	1.051622	1.052211
C165	C	-0.905535	0.138213	0.302206
C166	C	-0.655535	0.388213	0.552206
C167	C	-0.405535	0.638213	0.802206
C168	C	-0.155535	0.888213	1.052206
C169	C	-0.905578	0.068571	0.302227
C170	C	-0.655578	0.318571	0.552227
C171	C	-0.405578	0.568571	0.802227
C172	C	-0.155578	0.818571	1.052227
C173	C	-0.945470	0.566752	0.262114
C174	C	-0.695470	0.816752	0.512114
C175	C	-0.445470	1.066752	0.762114
C176	C	-0.195470	1.316752	1.012114
C177	C	-0.945499	0.632188	0.262128
C178	C	-0.695499	0.882188	0.512128
C179	C	-0.445499	1.132188	0.762128
C180	C	-0.195499	1.382188	1.012128
C181	C	-0.905421	0.664933	0.302150
C182	C	-0.655421	0.914933	0.552150
C183	C	-0.405421	1.164933	0.802150
C184	C	-0.155421	1.414933	1.052150
C185	C	-0.865322	0.632238	0.342172
C186	C	-0.615322	0.882238	0.592172
C187	C	-0.365322	1.132238	0.842172
C188	C	-0.115322	1.382238	1.092172
C189	C	-0.865299	0.566804	0.342162
C190	C	-0.615299	0.816804	0.592162
C191	C	-0.365299	1.066804	0.842162
C192	C	-0.115299	1.316804	1.092162
C193	C	-0.849006	0.768664	0.307041
C194	C	-0.599006	1.018664	0.557041
C195	C	-0.349006	1.268664	0.807041
C196	C	-0.099006	1.518664	1.057041
C197	C	-0.849029	0.834097	0.307047
C198	C	-0.599029	1.084097	0.557047
C199	C	-0.349029	1.334097	0.807047
C200	C	-0.099029	1.584097	1.057047
C201	C	-0.905494	0.866754	0.302187
C202	C	-0.655494	1.116754	0.552187
C203	C	-0.405494	1.366754	0.802187
C204	C	-0.155494	1.616754	1.052187
C205	C	-0.961939	0.833970	0.297307
C206	C	-0.711939	1.083970	0.547307
C207	C	-0.461939	1.333970	0.797307
C208	C	-0.211939	1.583970	1.047307
C209	C	-0.961915	0.768536	0.297296
C210	C	-0.711915	1.018536	0.547296
C211	C	-0.461915	1.268536	0.797296
C212	C	-0.211915	1.518536	1.047296
C213	C	-0.905443	0.735886	0.302167
C214	C	-0.655443	0.985886	0.552167
C215	C	-0.405443	1.235886	0.802167
C216	C	-0.155443	1.485886	1.052167
C217	C	-0.945625	0.970394	0.262186
C218	C	-0.695625	1.220394	0.512186
C219	C	-0.445625	1.470394	0.762186
C220	C	-0.195625	1.720394	1.012186
C221	C	-0.945655	1.035830	0.262204
C222	C	-0.695655	1.285830	0.512204
C223	C	-0.445655	1.535830	0.762204
C224	C	-0.195655	1.785830	1.012204
C225	C	-0.865473	1.035879	0.342245
C226	C	-0.615473	1.285879	0.592245
C227	C	-0.365473	1.535879	0.842245
C228	C	-0.115473	1.785879	1.092245
C229	C	-0.865448	0.970444	0.342230
C230	C	-0.615448	1.220444	0.592230
C231	C	-0.365448	1.470444	0.842230
C232	C	-0.115448	1.720444	1.092230
C233	C	-0.905524	0.937705	0.302197
C234	C	-0.655524	1.187705	0.552197
C235	C	-0.405524	1.437705	0.802197
C236	C	-0.155524	1.687705	1.052197
C237	C	-0.905419	0.301603	0.139370
C238	C	-0.655419	0.551603	0.389370
C239	C	-0.405419	0.801603	0.639370
C240	C	-0.155419	1.051603	0.889370
C241	C	-0.905518	0.301432	0.069729
C242	C	-0.655518	0.551432	0.319729
C243	C	-0.405518	0.801432	0.569729
C244	C	-0.155518	1.051432	0.819729
C245	C	-0.945605	0.261535	0.567966
C246	C	-0.695605	0.511535	0.817966
C247	C	-0.445605	0.761535	1.067966
C248	C	-0.195605	1.011535	1.317966
C249	C	-0.945604	0.261508	0.633402
C250	C	-0.695604	0.511508	0.883402
C251	C	-0.445604	0.761508	1.133402
C252	C	-0.195604	1.011508	1.383402
C253	C	-0.905514	0.301575	0.666091
C254	C	-0.655514	0.551575	0.916091
C255	C	-0.405514	0.801575	1.166091
C256	C	-0.155514	1.051575	1.416091
C257	C	-0.865410	0.341661	0.633339
C258	C	-0.615410	0.591661	0.883339
C259	C	-0.365410	0.841661	1.133339
C260	C	-0.115410	1.091661	1.383339
C261	C	-0.865407	0.341682	0.567904
C262	C	-0.615407	0.591682	0.817904
C263	C	-0.365407	0.841682	1.067904
C264	C	-0.115407	1.091682	1.317904
C265	C	-0.900538	0.357992	0.769752
C266	C	-0.650538	0.607992	1.019752
C267	C	-0.400538	0.857992	1.269752
C268	C	-0.150538	1.107992	1.519752
C269	C	-0.900545	0.357972	0.835185
C270	C	-0.650545	0.607972	1.085185
C271	C	-0.400545	0.857972	1.335185
C272	C	-0.150545	1.107972	1.585185
C273	C	-0.905518	0.301509	0.867911
C274	C	-0.655518	0.551509	1.117911
C275	C	-0.405518	0.801509	1.367911
C276	C	-0.155518	1.051509	1.617911
C277	C	-0.910497	0.245065	0.835197
C278	C	-0.660497	0.495065	1.085197
C279	C	-0.410497	0.745065	1.335197
C280	C	-0.160497	0.995065	1.585197
C281	C	-0.910495	0.245086	0.769763
C282	C	-0.660495	0.495086	1.019763
C283	C	-0.410495	0.745086	1.269763
C284	C	-0.160495	0.995086	1.519763
C285	C	-0.905512	0.301556	0.737043
C286	C	-0.655512	0.551556	0.987043
C287	C	-0.405512	0.801556	1.237043
C288	C	-0.155512	1.051556	1.487043
C289	C	-0.945615	0.261393	0.971608
C290	C	-0.695615	0.511393	1.221608
C291	C	-0.445615	0.761393	1.471608
C292	C	-0.195615	1.011393	1.721608
C293	C	-0.945610	0.261365	1.037045
C294	C	-0.695610	0.511365	1.287045
C295	C	-0.445610	0.761365	1.537045
C296	C	-0.195610	1.011365	1.787045
C297	C	-0.865419	0.341524	1.036980
C298	C	-0.615419	0.591524	1.286980
C299	C	-0.365419	0.841524	1.536980
C300	C	-0.115419	1.091524	1.786980
C301	C	-0.865421	0.341547	0.971545
C302	C	-0.615421	0.591547	1.221545
C303	C	-0.365421	0.841547	1.471545
C304	C	-0.115421	1.091547	1.721545
C305	C	-0.905522	0.301482	0.938863
C306	C	-0.655522	0.551482	1.188863
C307	C	-0.405522	0.801482	1.438863
C308	C	-0.155522	1.051482	1.688863
H309	H	-0.548226	0.374479	0.374674
H310	H	-0.298226	0.624479	0.624674
H311	H	-0.048226	0.874479	0.874674
H312	H	0.201774	1.124479	1.124674
H313	H	-0.896321	0.403959	0.743111
H314	H	-0.646321	0.653959	0.993111
H315	H	-0.396321	0.903959	1.243111
H316	H	-0.146321	1.153959	1.493111
O317	O	-0.988841	0.218259	0.668726
O318	O	-0.738841	0.468259	0.918726
O319	O	-0.488841	0.718259	1.168726
O320	O	-0.238841	0.968259	1.418726
H321	H	-0.982097	0.224968	0.719717
H322	H	-0.732097	0.474968	0.969717
H323	H	-0.482097	0.724968	1.219717
H324	H	-0.232097	0.974968	1.469717
H325	H	-0.978153	0.658807	0.229544
H326	H	-0.728153	0.908807	0.479544
H327	H	-0.478153	1.158807	0.729544
H328	H	-0.228153	1.408807	0.979544
O329	O	-0.822171	0.384736	1.072229
O330	O	-0.572171	0.634736	1.322229
O331	O	-0.322171	0.884736	1.572229
O332	O	-0.072171	1.134736	1.822229
H333	H	-0.832880	0.433913	1.059673
H334	H	-0.582880	0.683913	1.309673
H335	H	-0.332880	0.933913	1.559673
H336	H	-0.082880	1.183913	1.809673
O337	O	-0.822166	0.384877	0.668590
O338	O	-0.572166	0.634877	0.918590
O339	O	-0.322166	0.884877	1.168590
O340	O	-0.072166	1.134877	1.418590
H341	H	-0.828907	0.378132	0.719592
H342	H	-0.578907	0.628132	0.969592
H343	H	-0.328907	0.878132	1.219592
H344	H	-0.078907	1.128132	1.469592
O345	O	-0.473636	0.291217	0.184814
O346	O	-0.223636	0.541217	0.434814
O347	O	0.026364	0.791217	0.684814
O348	O	0.276364	1.041217	0.934814
H349	H	-0.524643	0.292064	0.194278
H350	H	-0.274643	0.542064	0.444278
H351	H	-0.024643	0.792064	0.694278
H352	H	0.225357	1.042064	0.944278
O353	O	-0.915844	0.184157	0.870484
O354	O	-0.665844	0.434157	1.120484
O355	O	-0.415844	0.684157	1.370484
O356	O	-0.165844	0.934157	1.620484
H357	H	-0.914996	0.193621	0.921480
H358	H	-0.664996	0.443621	1.171480
H359	H	-0.414996	0.693621	1.421480
H360	H	-0.164996	0.943621	1.671480
O361	O	-1.022841	0.869192	0.292059
O362	O	-0.772841	1.119192	0.542059
O363	O	-0.522841	1.369192	0.792059
O364	O	-0.272841	1.619192	1.042059
H365	H	-1.046226	0.856636	0.247502
H366	H	-0.796226	1.106636	0.497502
H367	H	-0.546226	1.356636	0.747502
H368	H	-0.296226	1.606636	0.997502
H369	H	-0.978258	0.228910	0.541360
H370	H	-0.728258	0.478910	0.791360
H371	H	-0.478258	0.728910	1.041360
H372	H	-0.228258	0.978910	1.291360
O373	O	-0.988857	0.218177	0.936350
O374	O	-0.738857	0.468177	1.186350
O375	O	-0.488857	0.718177	1.436350
O376	O	-0.238857	0.968177	1.686350
H377	H	-1.016732	0.190291	0.970116
H378	H	-0.766732	0.440291	1.220116
H379	H	-0.516732	0.690291	1.470116
H380	H	-0.266732	0.940291	1.720116
O381	O	-0.822037	0.531548	0.385313
O382	O	-0.572037	0.781548	0.635313
O383	O	-0.322037	1.031548	0.885313
O384	O	-0.072037	1.281548	1.135313
H385	H	-0.832755	0.544068	0.434505
H386	H	-0.582755	0.794068	0.684505
H387	H	-0.332755	1.044068	0.934505
H388	H	-0.082755	1.294068	1.184505
H389	H	-0.978259	0.943737	0.229590
H390	H	-0.728259	1.193737	0.479590
H391	H	-0.478259	1.443737	0.729590
H392	H	-0.228259	1.693737	0.979590
H393	H	-0.263280	0.228809	0.229652
H394	H	-0.013280	0.478809	0.479652
H395	H	0.236720	0.728809	0.729652
H396	H	0.486720	0.978809	0.979652
H397	H	-0.548206	0.228866	0.229554
H398	H	-0.298206	0.478866	0.479554
H399	H	-0.048206	0.728866	0.729554
H400	H	0.201794	0.978866	0.979554
H401	H	-0.914547	0.199128	0.743130
H402	H	-0.664547	0.449128	0.993130
H403	H	-0.414547	0.699128	1.243130
H404	H	-0.164547	0.949128	1.493130
H405	H	-0.978103	0.540098	0.229519
H406	H	-0.728103	0.790098	0.479519
H407	H	-0.478103	1.040098	0.729519
H408	H	-0.228103	1.290098	0.979519
H409	H	-0.832774	0.374190	0.944885
H410	H	-0.582774	0.624190	1.194885
H411	H	-0.332774	0.874190	1.444885
H412	H	-0.082774	1.124190	1.694885
O413	O	-0.988853	0.218125	1.072367
O414	O	-0.738853	0.468125	1.322367
O415	O	-0.488853	0.718125	1.572367
O416	O	-0.238853	0.968125	1.822367
H417	H	-1.020706	0.246151	1.102209
H418	H	-0.770706	0.496151	1.352209
H419	H	-0.520706	0.746151	1.602209
H420	H	-0.270706	0.996151	1.852209
O421	O	-0.822197	0.935179	0.385382
O422	O	-0.572197	1.185179	0.635382
O423	O	-0.322197	1.435179	0.885382
O424	O	-0.072197	1.685179	1.135382
H425	H	-0.790330	0.905417	0.357289
H426	H	-0.540330	1.155417	0.607289
H427	H	-0.290330	1.405417	0.857289
H428	H	-0.040330	1.655417	1.107289
O429	O	-0.675573	0.218290	0.218929
O430	O	-0.425573	0.468290	0.468929
O431	O	-0.175573	0.718290	0.718929
O432	O	0.074427	0.968290	0.968929
H433	H	-0.641828	0.190384	0.191124
H434	H	-0.391828	0.440384	0.441124
H435	H	-0.141828	0.690384	0.691124
H436	H	0.108172	0.940384	0.941124
O437	O	-1.022789	0.733173	0.292042
O438	O	-0.772789	0.983173	0.542042
O439	O	-0.522789	1.233173	0.792042
O440	O	-0.272789	1.483173	1.042042
H441	H	-1.062060	0.766869	0.288669
H442	H	-0.812060	1.016869	0.538669
H443	H	-0.562060	1.266869	0.788669
H444	H	-0.312060	1.516869	1.038669
H445	H	-0.465214	0.310778	0.404543
H446	H	-0.215214	0.560778	0.654543
H447	H	0.034786	0.810778	0.904543
H448	H	0.284786	1.060778	1.154543
H449	H	-0.978310	1.062443	0.229621
H450	H	-0.728310	1.312443	0.479621
H451	H	-0.478310	1.562443	0.729621
H452	H	-0.228310	1.812443	0.979621
H453	H	-0.896494	0.403932	0.861815
H454	H	-0.646494	0.653932	1.111815
H455	H	-0.396494	0.903932	1.361815
H456	H	-0.146494	1.153932	1.611815
H457	H	-0.832843	1.062540	0.374834
H458	H	-0.582843	1.312540	0.624834
H459	H	-0.332843	1.562540	0.874834
H460	H	-0.082843	1.812540	1.124834
H461	H	-0.832753	0.374322	0.541245
H462	H	-0.582753	0.624322	0.791245
H463	H	-0.332753	0.874322	1.041245
H464	H	-0.082753	1.124322	1.291245
H465	H	-0.144589	0.374395	0.374824
H466	H	0.105411	0.624395	0.624824
H467	H	0.355411	0.874395	0.874824
H468	H	0.605411	1.124395	1.124824
O469	O	-0.675587	0.385108	0.385200
O470	O	-0.425587	0.635108	0.635200
O471	O	-0.175587	0.885108	0.885200
O472	O	0.074413	1.135108	1.135200
H473	H	-0.641845	0.413001	0.413025
H474	H	-0.391845	0.663001	0.663025
H475	H	-0.141845	0.913001	0.913025
H476	H	0.108155	1.163001	1.163025
H477	H	-0.346502	0.310751	0.404585
H478	H	-0.096502	0.560751	0.654585
H479	H	0.153498	0.810751	0.904585
H480	H	0.403498	1.060751	1.154585
H481	H	-0.803022	0.742081	0.311001
H482	H	-0.553022	0.992081	0.561001
H483	H	-0.303022	1.242081	0.811001
H484	H	-0.053022	1.492081	1.061001
O485	O	-0.788154	0.869456	0.312310
O486	O	-0.538154	1.119456	0.562310
O487	O	-0.288154	1.369456	0.812310
O488	O	-0.038154	1.619456	1.062310
H489	H	-0.748887	0.835756	0.315701
H490	H	-0.498887	1.085756	0.565701
H491	H	-0.248887	1.335756	0.815701
H492	H	0.001113	1.585756	1.065701
O493	O	-0.822089	0.667556	0.385331
O494	O	-0.572089	0.917556	0.635331
O495	O	-0.322089	1.167556	0.885331
O496	O	-0.072089	1.417556	1.135331
H497	H	-0.850123	0.697326	0.417244
H498	H	-0.600123	0.947326	0.667244
H499	H	-0.350123	1.197326	0.917244
H500	H	-0.100123	1.447326	1.167244
O501	O	-0.271958	0.385020	0.385349
O502	O	-0.021958	0.635020	0.635349
O503	O	0.228042	0.885020	0.885349
O504	O	0.478042	1.135020	1.135349
H505	H	-0.259342	0.434180	0.374531
H506	H	-0.009342	0.684180	0.624531
H507	H	0.240658	0.934180	0.874531
H508	H	0.490658	1.184180	1.124531
O509	O	-0.135922	0.218182	0.219120
O510	O	0.114078	0.468182	0.469120
O511	O	0.364078	0.718182	0.719120
O512	O	0.614078	0.968182	0.969120
H513	H	-0.106168	0.186344	0.247230
H514	H	0.143832	0.436344	0.497230
H515	H	0.393832	0.686344	0.747230
H516	H	0.643832	0.936344	0.997230
O517	O	-0.337627	0.291185	0.184867
O518	O	-0.087627	0.541185	0.434867
O519	O	0.162373	0.791185	0.684867
O520	O	0.412373	1.041185	0.934867
H521	H	-0.371331	0.287686	0.145609
H522	H	-0.121331	0.537686	0.395609
H523	H	0.128669	0.787686	0.645609
H524	H	0.378669	1.037686	0.895609
