data_functionalizedCrystal
_audit_creation_method	'MofGen! by Chris Wilmer'
_symmetry_space_group_name_H-M	'P1'
_symmetry_Int_Tables_number	1
_symmetry_cell_setting	triclinic
loop_
_symmetry_equiv_pos_as_xyz
  x,y,z
_cell_length_a	25.639239
_cell_length_b	25.639242
_cell_length_c	12.827885
_cell_angle_alpha	89.968859
_cell_angle_beta	90.035982
_cell_angle_gamma	89.966656
loop_
_atom_site_label
_atom_site_type_symbol
_atom_site_fract_x
_atom_site_fract_y
_atom_site_fract_z
Zn1	Zn	-0.208200	-0.799266	0.591134
Zn2	Zn	0.291800	-0.299266	1.091134
Zn3	Zn	-0.295645	-0.799177	0.416376
Zn4	Zn	0.204355	-0.299177	0.916376
Zn5	Zn	-0.208217	-0.711830	0.416372
Zn6	Zn	0.291783	-0.211830	0.916372
Zn7	Zn	-0.295598	-0.711787	0.591040
Zn8	Zn	0.204402	-0.211787	1.091040
O9	O	-0.251915	-0.755515	0.503730
O10	O	0.248085	-0.255515	1.003730
O11	O	-0.219812	-0.872419	0.567994
O12	O	0.280188	-0.372419	1.067994
O13	O	-0.284074	-0.787571	0.270139
O14	O	0.215926	-0.287571	0.770139
O15	O	-0.135050	-0.723483	0.439593
O16	O	0.364950	-0.223483	0.939593
O17	O	-0.284058	-0.872354	0.439599
O18	O	0.215942	-0.372354	0.939599
O19	O	-0.135037	-0.787722	0.567990
O20	O	0.364963	-0.287722	1.067990
O21	O	-0.219842	-0.723398	0.270136
O22	O	0.280158	-0.223398	0.770136
O23	O	-0.219796	-0.638659	0.439501
O24	O	0.280204	-0.138659	0.939501
O25	O	-0.283978	-0.723410	0.737288
O26	O	0.216022	-0.223410	1.237288
O27	O	-0.283994	-0.638628	0.567828
O28	O	0.216006	-0.138628	1.067828
O29	O	-0.219767	-0.787681	0.737358
O30	O	0.280233	-0.287681	1.237358
O31	O	-0.368804	-0.787530	0.439507
O32	O	0.131196	-0.287530	0.939507
O33	O	-0.368769	-0.723325	0.567832
O34	O	0.131231	-0.223325	1.067832
C35	C	-0.251892	-0.619672	0.503654
C36	C	0.248108	-0.119672	1.003654
C37	C	-0.251895	-0.561558	0.503647
C38	C	0.248105	-0.061558	1.003647
C39	C	-0.218429	-0.310373	0.436999
C40	C	0.281571	0.189627	0.936999
C41	C	-0.218425	-0.364977	0.436989
C42	C	0.281575	0.135023	0.936989
O43	O	-0.189941	-0.393220	0.380279
O44	O	0.310059	0.106780	0.880279
N45	N	-0.251901	-0.392284	0.503689
N46	N	0.248099	0.107716	1.003689
C47	C	-0.285380	-0.364985	0.570411
C48	C	0.214620	0.135015	1.070411
O49	O	-0.313854	-0.393226	0.627144
O50	O	0.186146	0.106774	1.127144
C51	C	-0.285382	-0.310382	0.570425
C52	C	0.214618	0.189618	1.070425
C53	C	-0.251907	-0.283077	0.503714
C54	C	0.248093	0.216923	1.003714
C55	C	-0.184957	-0.283068	0.370294
C56	C	0.315043	0.216932	0.870294
C57	C	-0.184962	-0.228467	0.370303
C58	C	0.315038	0.271533	0.870303
C59	C	-0.218440	-0.201171	0.437017
C60	C	0.281560	0.298829	0.937017
C61	C	-0.251913	-0.228476	0.503723
C62	C	0.248087	0.271524	1.003723
C63	C	-0.318858	-0.283083	0.637151
C64	C	0.181142	0.216917	1.137151
C65	C	-0.318857	-0.228476	0.637161
C66	C	0.181143	0.271524	1.137161
C67	C	-0.285382	-0.201171	0.570449
C68	C	0.214618	0.298829	1.070449
C69	C	-0.285396	-0.146580	0.570446
C70	C	0.214604	0.353420	1.070446
N71	N	-0.251920	-0.119272	0.503746
N72	N	0.248080	0.380728	1.003746
C73	C	-0.218442	-0.146568	0.437032
C74	C	0.281558	0.353432	0.937032
C75	C	-0.285374	-0.479656	0.570376
C76	C	0.214626	0.020344	1.070376
C77	C	-0.285375	-0.534258	0.570357
C78	C	0.214625	-0.034258	1.070357
C79	C	-0.218419	-0.534246	0.436937
C80	C	0.281581	-0.034246	0.936937
C81	C	-0.218420	-0.479643	0.436952
C82	C	0.281580	0.020357	0.936952
C83	C	-0.251898	-0.452348	0.503677
C84	C	0.248102	0.047652	1.003677
C85	C	-0.218456	-0.031903	0.437055
C86	C	0.281544	0.468097	0.937055
C87	C	-0.218466	0.022702	0.437067
C88	C	0.281534	0.522702	0.937067
C89	C	-0.285420	0.022686	0.570490
C90	C	0.214580	0.522686	1.070490
C91	C	-0.285413	-0.031915	0.570475
C92	C	0.214587	0.468085	1.070475
C93	C	-0.251926	-0.059208	0.503754
C94	C	0.248074	0.440792	1.003754
O95	O	-0.313864	-0.118302	0.627130
O96	O	0.186136	0.381698	1.127130
O97	O	-0.189968	-0.118320	0.380318
O98	O	0.310032	0.381680	0.880318
C99	C	-0.387758	-0.755427	0.503683
C100	C	0.112242	-0.255427	1.003683
C101	C	-0.445872	-0.755437	0.503697
C102	C	0.054128	-0.255437	1.003697
C103	C	-0.806240	-0.789034	0.437026
C104	C	-0.306240	-0.289034	0.937026
C105	C	-0.860844	-0.789054	0.437040
C106	C	-0.360844	-0.289054	0.937040
O107	O	-0.889086	-0.817528	0.380301
O108	O	-0.389086	-0.317528	0.880301
N109	N	-0.888154	-0.755607	0.503800
N110	N	-0.388154	-0.255607	1.003800
C111	C	-0.860857	-0.722141	0.570558
C112	C	-0.360857	-0.222141	1.070558
O113	O	-0.889100	-0.693694	0.627344
O114	O	-0.389100	-0.193694	1.127344
C115	C	-0.806253	-0.722124	0.570548
C116	C	-0.306253	-0.222124	1.070548
C117	C	-0.778946	-0.755569	0.503776
C118	C	-0.278946	-0.255569	1.003776
C119	C	-0.778933	-0.822477	0.370260
C120	C	-0.278933	-0.322477	0.870260
C121	C	-0.724333	-0.822456	0.370245
C122	C	-0.224333	-0.322456	0.870245
C123	C	-0.697039	-0.788992	0.436995
C124	C	-0.197039	-0.288992	0.936995
C125	C	-0.724346	-0.755548	0.503761
C126	C	-0.224346	-0.255548	1.003761
C127	C	-0.778957	-0.688661	0.637311
C128	C	-0.278957	-0.188661	1.137311
C129	C	-0.724350	-0.688647	0.637296
C130	C	-0.224350	-0.188647	1.137296
C131	C	-0.697043	-0.722092	0.570524
C132	C	-0.197043	-0.222092	1.070524
C133	C	-0.642452	-0.722063	0.570497
C134	C	-0.142452	-0.222063	1.070497
N135	N	-0.615142	-0.755510	0.503737
N136	N	-0.115142	-0.255510	1.003737
C137	C	-0.642436	-0.788974	0.436986
C138	C	-0.142436	-0.288974	0.936986
C139	C	-0.975527	-0.722180	0.570574
C140	C	-0.475527	-0.222180	1.070574
C141	C	-1.030130	-0.722195	0.570579
C142	C	-0.530130	-0.222195	1.070579
C143	C	-1.030114	-0.789108	0.437062
C144	C	-0.530114	-0.289108	0.937062
C145	C	-0.975510	-0.789091	0.437052
C146	C	-0.475510	-0.289091	0.937052
C147	C	-0.948218	-0.755628	0.503814
C148	C	-0.448218	-0.255628	1.003814
C149	C	-0.527771	-0.788927	0.436959
C150	C	-0.027771	-0.288927	0.936959
C151	C	-0.473165	-0.788902	0.436946
C152	C	0.026835	-0.288902	0.936946
C153	C	-0.473186	-0.721990	0.570467
C154	C	0.026814	-0.221990	1.070467
C155	C	-0.527787	-0.722013	0.570476
C156	C	-0.027787	-0.222013	1.070476
C157	C	-0.555078	-0.755486	0.503718
C158	C	-0.055078	-0.255486	1.003718
O159	O	-0.614176	-0.693605	0.627210
O160	O	-0.114176	-0.193605	1.127210
O161	O	-0.614186	-0.817422	0.380219
O162	O	-0.114186	-0.317422	0.880219
C163	C	-0.115542	-0.755617	0.503801
C164	C	0.384458	-0.255617	1.003801
C165	C	-0.057428	-0.755661	0.503832
C166	C	0.442572	-0.255661	1.003832
C167	C	-0.251865	-0.755551	0.776301
C168	C	0.248135	-0.255551	1.276301
C169	C	-0.251843	-0.755566	0.892454
C170	C	0.248157	-0.255566	1.392454
C171	C	-0.251937	0.108112	0.503793
C172	C	0.248063	0.608112	1.003793
C173	C	-0.251944	0.049998	0.503781
C174	C	0.248056	0.549998	1.003781
C175	C	-0.251927	-0.755510	0.232221
C176	C	0.248073	-0.255510	0.732221
C177	C	-0.251801	-0.755596	0.116068
C178	C	0.248199	-0.255596	0.616068
C179	C	-0.220064	-0.787372	0.944273
C180	C	0.279936	-0.287372	1.444273
C181	C	-0.220041	-0.787388	1.064324
C182	C	0.279959	-0.287388	1.564324
H183	H	-0.157692	-0.305286	0.315967
H184	H	0.342308	0.194714	0.815967
H185	H	-0.312640	-0.556485	0.624670
H186	H	0.187360	-0.056485	1.124670
F187	F	-0.695277	-0.858060	0.299188
F188	F	-0.195277	-0.358060	0.799188
H189	H	-0.191160	-0.457415	0.382633
H190	H	0.308840	0.042585	0.882633
H191	H	-0.192871	-0.814589	0.899761
H192	H	0.307129	-0.314589	1.399761
F193	F	-0.946485	-0.686558	0.641628
F194	F	-0.446485	-0.186558	1.141628
H195	H	-0.192835	-0.814621	1.108887
H196	H	0.307165	-0.314621	1.608887
F197	F	-0.807973	-0.858099	0.299210
F198	F	-0.307973	-0.358099	0.799210
F199	F	-0.287370	-0.720003	1.057831
F200	F	0.212630	-0.220003	1.557831
H201	H	-0.191206	0.044931	0.382739
H202	H	0.308794	0.544931	0.882739
F203	F	-0.182816	-0.060943	0.366042
F204	F	0.317184	0.439057	0.866042
F205	F	-0.321045	-0.060976	0.641466
F206	F	0.178955	0.439024	1.141466
F207	F	-0.321054	0.051745	0.641477
F208	F	0.178946	0.551745	1.141477
H209	H	-0.279031	-0.728344	0.936966
H210	H	0.220969	-0.228344	1.436966
F211	F	-0.444106	-0.824500	0.365875
F212	F	0.055894	-0.324500	0.865875
H213	H	-0.157704	-0.206240	0.315980
H214	H	0.342296	0.293760	0.815980
H215	H	-0.312639	-0.457436	0.624710
H216	H	0.187361	0.042564	1.124710
F217	F	-0.182788	-0.563306	0.365934
F218	F	0.317212	-0.063306	0.865934
H219	H	-0.953280	-0.816326	0.382682
H220	H	-0.453280	-0.316326	0.882682
F221	F	-0.354487	-0.312131	0.708157
F222	F	0.145513	0.187869	1.208157
H223	H	-0.550021	-0.694781	0.624850
H224	H	-0.050021	-0.194781	1.124850
F225	F	-0.556808	-0.824553	0.365908
F226	F	-0.056808	-0.324553	0.865908
F227	F	-1.059171	-0.824724	0.366018
F228	F	-0.559171	-0.324724	0.866018
F229	F	-1.059186	-0.686591	0.641635
F230	F	-0.559186	-0.186591	1.141635
H231	H	-0.346117	-0.206256	0.691501
H232	H	0.153883	0.293744	1.191501
H233	H	-0.801181	-0.661423	0.691679
H234	H	-0.301181	-0.161423	1.191679
H235	H	-0.702131	-0.661397	0.691664
H236	H	-0.202131	-0.161397	1.191664
F237	F	-0.444129	-0.686378	0.641507
F238	F	0.055871	-0.186378	1.141507
