data_functionalizedCrystal
_audit_creation_method	'MofGen! by Chris Wilmer'
_symmetry_space_group_name_H-M	'P1'
_symmetry_Int_Tables_number	1
_symmetry_cell_setting	triclinic
loop_
_symmetry_equiv_pos_as_xyz
  x,y,z
_cell_length_a	11.792241
_cell_length_b	10.654550
_cell_length_c	9.130313
_cell_angle_alpha	90.000110
_cell_angle_beta	89.996046
_cell_angle_gamma	84.339159
loop_
_atom_site_label
_atom_site_type_symbol
_atom_site_fract_x
_atom_site_fract_y
_atom_site_fract_z
O1	O	-1.507300	-0.172130	-0.121653
O2	O	-1.177000	-0.189870	-0.121687
O3	O	-1.349744	0.001761	-0.121664
O4	O	-1.334556	-0.363761	-0.121676
O5	O	-1.349742	0.001756	0.121935
O6	O	-1.176998	-0.189875	0.121912
O7	O	-1.507298	-0.172135	0.121946
Cu8	Cu	-1.342148	-0.181006	0.144171
Cu9	Cu	-1.342150	-0.180999	-0.143912
O10	O	-1.334554	-0.363766	0.121923
C11	C	-1.134705	-0.188758	0.000108
C12	C	-1.008684	-0.185423	0.000095
C13	C	-1.549592	-0.173247	0.000147
C14	C	-1.675614	-0.176582	0.000151
C15	C	-1.348628	0.048553	0.000134
C16	C	-1.345291	0.187987	0.000128
C17	C	-0.777958	-0.179290	0.000138
C18	C	-0.906351	-0.182697	0.000114
C19	C	-1.335670	-0.410558	0.000122
C20	C	-1.339006	-0.549992	0.000118
N21	N	-1.342154	-0.181009	0.346794
C22	C	-1.447000	0.267760	0.000143
C23	C	-1.443858	0.398772	0.000133
C24	C	-1.237290	0.370224	0.000099
C25	C	-1.240433	0.239215	0.000099
C26	C	-1.551859	0.216532	0.000173
C27	C	-1.653577	0.296307	0.000189
C28	C	-1.650435	0.427319	0.000179
C29	C	-1.545575	0.478556	0.000152
N30	N	-1.342152	-0.180986	-0.346535
C31	C	-1.418665	-0.096184	0.423456
C32	C	-1.418662	-0.096169	0.576793
C33	C	-1.265633	-0.265815	0.576792
C34	C	-1.265632	-0.265823	0.423458
C35	C	-1.495187	-0.011370	0.346792
C36	C	-1.571705	0.073461	0.423455
C37	C	-1.571702	0.073476	0.576791
C38	C	-1.495181	-0.011340	0.653466
H39	H	-1.554429	0.109857	0.000186
H40	H	-1.495199	-0.011377	0.221938
H41	H	-1.157612	0.174261	0.000089
C42	C	-1.768917	0.239953	0.000214
C43	C	-1.853696	0.269733	-0.126270
C44	C	-1.969040	0.213383	-0.126247
C45	C	-1.999605	0.127253	0.000261
C46	C	-1.914824	0.097469	0.126755
C47	C	-1.799480	0.153819	0.126732
H48	H	-1.831072	0.333495	-0.219928
H49	H	-2.031801	0.235432	-0.219887
H50	H	-2.084989	0.085540	0.000279
H51	H	-1.937448	0.033707	0.220412
H52	H	-1.736720	0.131770	0.220371
H53	H	-1.733258	0.492268	0.000177
C54	C	-1.181473	-0.359117	0.661128
C55	C	-1.181624	-0.359280	0.829790
C56	C	-1.097465	-0.452587	0.914123
C57	C	-1.013154	-0.545732	0.829796
C58	C	-1.013000	-0.545573	0.661125
C59	C	-1.097159	-0.452266	0.576791
H60	H	-1.244038	-0.290325	0.892222
H61	H	-1.097579	-0.452704	1.038985
H62	H	-0.950855	-0.614804	0.892225
H63	H	-0.950585	-0.614528	0.598692
H64	H	-1.097044	-0.452148	0.451930
H65	H	-1.543025	0.585236	0.000128
H66	H	-1.151918	0.411953	0.000079
H67	H	-1.634000	0.142523	0.361018
H68	H	-1.495177	-0.011312	0.778323
H69	H	-1.633998	0.142557	0.639208
H70	H	-1.203328	-0.334895	0.361039
