data_functionalizedCrystal
_audit_creation_method	'MofGen! by Chris Wilmer'
_symmetry_space_group_name_H-M	'P1'
_symmetry_Int_Tables_number	1
_symmetry_cell_setting	triclinic
loop_
_symmetry_equiv_pos_as_xyz
  x,y,z
_cell_length_a	19.188933
_cell_length_b	14.519731
_cell_length_c	12.996460
_cell_angle_alpha	90.007128
_cell_angle_beta	89.995828
_cell_angle_gamma	96.582789
loop_
_atom_site_label
_atom_site_type_symbol
_atom_site_fract_x
_atom_site_fract_y
_atom_site_fract_z
O1	O	0.926561	-0.115144	-0.085535
O2	O	0.723306	-0.130642	-0.085545
O3	O	0.830315	0.011378	-0.085530
O4	O	0.819553	-0.257164	-0.085549
O5	O	0.830304	0.011385	0.085604
O6	O	0.723295	-0.130634	0.085589
O7	O	0.926550	-0.115137	0.085599
Cu8	Cu	0.824922	-0.122885	0.101220
Cu9	Cu	0.824935	-0.122894	-0.101166
O10	O	0.819542	-0.257156	0.085584
C11	C	0.697288	-0.130136	0.000021
C12	C	0.619778	-0.128628	0.000018
C13	C	0.066490	-0.117874	-0.093256
C14	C	0.139319	-0.119285	-0.093260
C15	C	0.175733	-0.119990	0.000025
C16	C	0.139313	-0.119261	0.093321
C17	C	0.066486	-0.117841	0.093322
N18	N	0.284946	-0.174694	0.069457
N19	N	0.354129	-0.176045	0.069449
C20	C	0.395157	-0.124267	0.000026
N21	N	0.364388	-0.071098	-0.069404
N22	N	0.295199	-0.069751	-0.069400
C23	C	0.254702	-0.121529	0.000034
C24	C	0.510538	-0.126519	-0.093268
C25	C	0.583370	-0.127924	-0.093268
C26	C	0.583361	-0.127910	0.093315
C27	C	0.510532	-0.126495	0.093313
C28	C	0.474125	-0.125805	0.000018
C29	C	0.829805	0.045738	0.000037
C30	C	0.828294	0.148109	0.000038
C31	C	0.952569	-0.115643	0.000031
C32	C	1.030079	-0.117150	0.000028
C33	C	0.820051	-0.291516	0.000015
C34	C	0.821563	-0.393887	0.000008
C35	C	0.827066	0.231245	0.000035
C36	C	0.825532	0.335544	0.000027
C37	C	0.824314	0.418676	0.000020
C38	C	0.822780	0.522982	0.000014
N39	N	0.824918	-0.122877	0.243567
N40	N	0.824945	-0.122893	-0.243513
C41	C	0.824934	-0.122895	0.663381
C42	C	0.824927	-0.122893	0.546576
C43	C	0.824926	-0.122887	0.453478
C44	C	0.824919	-0.122884	0.336665
H45	H	0.168966	-0.119834	0.169274
C46	C	0.436382	-0.045681	-0.201507
C47	C	0.470515	-0.125749	-0.195814
H48	H	0.411672	-0.045210	-0.264813
H49	H	0.470044	0.007524	-0.197630
H50	H	0.404270	-0.045064	-0.145945
H51	H	0.502630	-0.126362	-0.251372
H52	H	0.436848	-0.178968	-0.199700
C53	C	0.051808	-0.038132	0.252357
C54	C	0.026461	-0.117051	0.195869
H55	H	0.027099	-0.037650	0.315668
H56	H	0.045121	0.015852	0.214029
H57	H	0.100393	-0.039084	0.265697
H58	H	-0.022123	-0.116095	0.182522
H59	H	0.033141	-0.171049	0.234206
H60	H	0.613009	-0.128481	0.169269
C61	C	0.154009	-0.199025	-0.252271
C62	C	0.179357	-0.120096	-0.195800
H63	H	0.178729	-0.199530	-0.315571
H64	H	0.105433	-0.198069	-0.265628
H65	H	0.160686	-0.253008	-0.213916
H66	H	0.172675	-0.066112	-0.234153
H67	H	0.227944	-0.121044	-0.182446
C68	C	-0.023145	-0.195547	-0.201511
C69	C	0.026476	-0.117106	-0.195806
H70	H	-0.047844	-0.195072	-0.264825
H71	H	-0.055255	-0.194907	-0.145964
H72	H	0.000018	-0.249861	-0.197629
H73	H	0.003313	-0.062791	-0.199680
H74	H	0.058591	-0.117737	-0.251368
C75	C	0.576056	-0.127817	-0.277694
C76	C	0.623396	-0.128719	-0.195814
H77	H	0.600768	-0.128314	-0.341001
H78	H	0.552905	-0.073502	-0.273818
H79	H	0.542396	-0.181035	-0.273801
H80	H	0.657053	-0.075498	-0.199703
H81	H	0.646559	-0.183040	-0.199692
C82	C	0.436385	-0.045624	0.201557
C83	C	0.470507	-0.125703	0.195857
H84	H	0.411681	-0.045130	0.264871
H85	H	0.404277	-0.045012	0.146010
H86	H	0.470059	0.007579	0.197671
H87	H	0.436832	-0.178907	0.199735
H88	H	0.502618	-0.126324	0.251420
