data_functionalizedCrystal
_audit_creation_method	'MofGen! by Chris Wilmer'
_symmetry_space_group_name_H-M	'P1'
_symmetry_Int_Tables_number	1
_symmetry_cell_setting	triclinic
loop_
_symmetry_equiv_pos_as_xyz
  x,y,z
_cell_length_a	19.288864
_cell_length_b	19.288857
_cell_length_c	9.130313
_cell_angle_alpha	89.993335
_cell_angle_beta	89.982632
_cell_angle_gamma	83.134677
loop_
_atom_site_label
_atom_site_type_symbol
_atom_site_fract_x
_atom_site_fract_y
_atom_site_fract_z
O1	O	0.921345	0.086648	-0.122276
O2	O	0.719084	0.098337	-0.122177
O3	O	0.826062	-0.008638	-0.122212
O4	O	0.814367	0.193623	-0.122241
O5	O	0.826054	-0.008641	0.121387
O6	O	0.719077	0.098334	0.121422
O7	O	0.921338	0.086645	0.121323
Cu8	Cu	0.820207	0.092489	0.143615
Cu9	Cu	0.820215	0.092493	-0.144469
O10	O	0.814360	0.193620	0.121358
C11	C	0.693204	0.097959	-0.000364
C12	C	0.616100	0.096830	-0.000326
C13	C	0.571402	0.159598	-0.000358
C14	C	0.498955	0.158537	-0.000374
C15	C	0.471209	0.094705	-0.000387
C16	C	0.515917	0.031929	-0.000347
C17	C	0.588363	0.032991	-0.000316
C18	C	0.362951	0.044527	-0.085773
C19	C	0.290507	0.043467	-0.085812
C20	C	0.247764	0.091425	-0.000475
C21	C	0.277473	0.140456	0.084882
C22	C	0.349918	0.141518	0.084913
C23	C	0.392656	0.093546	-0.000420
C24	C	0.124510	0.153048	-0.000523
C25	C	0.052062	0.151984	-0.000530
C26	C	0.069026	0.025374	-0.000517
C27	C	0.141472	0.026439	-0.000496
C28	C	0.169210	0.090278	-0.000505
C29	C	0.825683	-0.034516	-0.000411
C30	C	0.824556	-0.111620	-0.000406
C31	C	0.824034	-0.147829	-0.133191
C32	C	0.822965	-0.220275	-0.133202
C33	C	0.822432	-0.256511	-0.000419
C34	C	0.822950	-0.220293	0.132384
C35	C	0.824012	-0.147848	0.132391
C36	C	0.861431	-0.376744	0.101281
C37	C	0.860374	-0.449189	0.101269
C38	C	0.819155	-0.479957	-0.000434
C39	C	0.779002	-0.438273	-0.102150
C40	C	0.780064	-0.365828	-0.102143
C41	C	0.821281	-0.335066	-0.000411
C42	C	0.817473	-0.594720	-0.133240
C43	C	0.816400	-0.667167	-0.133245
C44	C	0.816392	-0.667185	0.132345
C45	C	0.817458	-0.594738	0.132346
C46	C	0.818002	-0.558511	-0.000451
C47	C	0.947218	0.087022	-0.000493
C48	C	1.024321	0.088151	-0.000541
C49	C	0.814739	0.219498	-0.000446
C50	C	0.815866	0.296602	-0.000461
N51	N	0.820206	0.092486	0.346238
N52	N	0.820222	0.092490	-0.347091
C53	C	0.867591	0.045137	0.422874
C54	C	0.867598	0.045137	0.576211
C55	C	0.772831	0.139841	0.576262
C56	C	0.772822	0.139837	0.422927
H57	H	0.242673	0.179508	0.154373
H58	H	0.734253	0.178394	0.638718
H59	H	0.815953	-0.696687	0.240460
H60	H	0.734231	0.178395	0.360526
H61	H	0.147095	0.205029	-0.000509
N62	N	0.601320	0.228450	-0.000379
H63	H	0.562006	0.268052	-0.000405
H64	H	0.630988	0.231654	0.089935
N65	N	0.003850	0.219689	-0.000577
H66	H	-0.046254	0.209331	-0.000588
H67	H	0.012790	0.247523	0.089722
N68	N	0.450733	0.226239	-0.000412
H69	H	0.479298	0.266841	-0.000413
H70	H	0.420330	0.228549	-0.090735
N71	N	0.918715	-0.005922	0.658871
H72	H	0.948733	-0.035914	0.587016
H73	H	0.949332	0.020607	0.722441
H74	H	0.374104	0.181438	0.154419
H75	H	0.822536	-0.249762	-0.241335
H76	H	0.817911	-0.565222	-0.241371
N77	N	0.734513	-0.471445	-0.211803
H78	H	0.709232	-0.434045	-0.276219
H79	H	0.765257	-0.505691	-0.274316
N80	N	0.039111	-0.043476	-0.000515
H81	H	-0.013566	-0.034626	-0.000534
H82	H	0.055497	-0.070934	-0.090810
H83	H	0.906173	0.006580	0.360437
N84	N	0.189688	-0.041261	-0.000461
H85	H	0.161120	-0.081861	-0.000469
H86	H	0.220139	-0.043579	-0.090750
H87	H	0.824434	-0.118366	0.240524
H88	H	0.817889	-0.565257	0.240475
H89	H	0.397748	0.005472	-0.155273
N90	N	0.258464	-0.009412	-0.177868
H91	H	0.270234	-0.002764	-0.284357
H92	H	0.277623	-0.058072	-0.145858
N93	N	0.736757	-0.320861	-0.211822
H94	H	0.751759	-0.335489	-0.314354
H95	H	0.685818	-0.326683	-0.198096
N96	N	0.485997	-0.036920	-0.000344
H97	H	0.433320	-0.028069	-0.000370
H98	H	0.502385	-0.064381	-0.090635
H99	H	0.815971	-0.696647	-0.241379
H100	H	0.624757	-0.018124	-0.000291
N101	N	0.824617	-0.108755	-0.276415
H102	H	0.824124	-0.142691	-0.360537
H103	H	0.782008	-0.072931	-0.282181
H104	H	0.893071	-0.483123	0.184087
N105	N	0.905889	-0.343562	0.210986
H106	H	0.931168	-0.380960	0.275409
H107	H	0.941081	-0.318155	0.157353
N108	N	0.822380	-0.259372	0.275602
H109	H	0.821633	-0.310762	0.255450
H110	H	0.865615	-0.252475	0.333561
