data_functionalizedCrystal
_audit_creation_method	'MofGen! by Chris Wilmer'
_symmetry_space_group_name_H-M	'P1'
_symmetry_Int_Tables_number	1
_symmetry_cell_setting	triclinic
loop_
_symmetry_equiv_pos_as_xyz
  x,y,z
_cell_length_a	18.215407
_cell_length_b	12.594516
_cell_length_c	18.215399
_cell_angle_alpha	89.976218
_cell_angle_beta	89.980167
_cell_angle_gamma	90.012264
loop_
_atom_site_label
_atom_site_type_symbol
_atom_site_fract_x
_atom_site_fract_y
_atom_site_fract_z
Zn1	Zn	1.125139	-0.423740	-0.416137
Zn2	Zn	1.458472	-0.090407	-0.082804
Zn3	Zn	1.791805	0.242926	0.250529
Zn4	Zn	1.125075	-0.601738	-0.293080
Zn5	Zn	1.458409	-0.268404	0.040253
Zn6	Zn	1.791742	0.064929	0.373587
Zn7	Zn	1.002071	-0.423775	-0.293085
Zn8	Zn	1.335405	-0.090442	0.040249
Zn9	Zn	1.668738	0.242892	0.373582
Zn10	Zn	1.002065	-0.601679	-0.416105
Zn11	Zn	1.335399	-0.268345	-0.082771
Zn12	Zn	1.668732	0.064988	0.250562
O13	O	1.063588	-0.512733	-0.354602
O14	O	1.396921	-0.179400	-0.021268
O15	O	1.730254	0.153934	0.312065
O16	O	1.228115	-0.447362	-0.399825
O17	O	1.561448	-0.114029	-0.066492
O18	O	1.894781	0.219304	0.266842
O19	O	1.108734	-0.578170	-0.190096
O20	O	1.442068	-0.244837	0.143237
O21	O	1.775401	0.088497	0.476570
O22	O	1.018426	-0.274825	-0.309423
O23	O	1.351759	0.058509	0.023910
O24	O	1.685092	0.391842	0.357243
O25	O	1.228068	-0.578136	-0.309415
O26	O	1.561401	-0.244803	0.023918
O27	O	1.894735	0.088530	0.357251
O28	O	1.108843	-0.274799	-0.399830
O29	O	1.442176	0.058534	-0.066496
O30	O	1.775509	0.391868	0.266837
O31	O	1.018364	-0.447422	-0.190100
O32	O	1.351697	-0.114088	0.143234
O33	O	1.685031	0.219245	0.476567
O34	O	0.899086	-0.447364	-0.309392
O35	O	1.232420	-0.114031	0.023941
O36	O	1.565753	0.219303	0.357275
O37	O	1.018415	-0.578035	-0.519093
O38	O	1.351749	-0.244702	-0.185760
O39	O	1.685082	0.088631	0.147573
O40	O	0.899082	-0.578069	-0.399774
O41	O	1.232415	-0.244736	-0.066441
O42	O	1.565749	0.088598	0.266892
O43	O	1.108837	-0.447305	-0.519117
O44	O	1.442170	-0.113971	-0.185784
O45	O	1.775504	0.219362	0.147549
O46	O	1.108729	-0.750676	-0.309384
O47	O	1.442062	-0.417342	0.023949
O48	O	1.775395	-0.084009	0.357283
O49	O	1.018354	-0.750632	-0.399770
O50	O	1.351687	-0.417299	-0.066436
O51	O	1.685020	-0.083966	0.266897
C52	C	0.872381	-0.512715	-0.354580
C53	C	1.205715	-0.179381	-0.021247
C54	C	1.539048	0.153952	0.312086
C55	C	0.790583	-0.512733	-0.354589
C56	C	1.123916	-0.179399	-0.021256
C57	C	1.457249	0.153934	0.312078
C58	C	1.063554	-0.789274	-0.354589
C59	C	1.396887	-0.455941	-0.021255
C60	C	1.730220	-0.122607	0.312078
C61	C	1.063606	-0.907579	-0.354608
C62	C	1.396940	-0.574246	-0.021275
C63	C	1.730273	-0.240913	0.312059
C64	C	0.602406	-0.580898	-0.401592
C65	C	0.935739	-0.247564	-0.068259
C66	C	1.269072	0.085769	0.265075
C67	C	0.525547	-0.580901	-0.401601
C68	C	0.858880	-0.247568	-0.068268
C69	C	1.192213	0.085766	0.265065
C70	C	0.525522	-0.444588	-0.307627
C71	C	0.858855	-0.111254	0.025706
C72	C	1.192188	0.222079	0.359039
C73	C	0.602379	-0.444580	-0.307622
C74	C	0.935712	-0.111246	0.025711
C75	C	1.269046	0.222087	0.359044
C76	C	0.640819	-0.512741	-0.354604
C77	C	0.974152	-0.179407	-0.021270
C78	C	1.307486	0.153926	0.312063
C79	C	0.487103	-0.512752	-0.354618
C80	C	0.820436	-0.179419	-0.021284
C81	C	1.153770	0.153915	0.312049
C82	C	0.403769	-0.512755	-0.354627
C83	C	0.737103	-0.179422	-0.021294
C84	C	1.070436	0.153912	0.312039
C85	C	0.724158	-0.512736	-0.354595
C86	C	1.057491	-0.179403	-0.021262
C87	C	1.390825	0.153930	0.312071
C88	C	1.112818	-0.976817	-0.305499
C89	C	1.446152	-0.643484	0.027834
C90	C	1.779485	-0.310151	0.361167
C91	C	1.130801	-1.047521	-0.372671
C92	C	1.464134	-0.714187	-0.039337
C93	C	1.797468	-0.380854	0.293996
C94	C	1.045716	-1.047675	-0.287480
C95	C	1.379049	-0.714342	0.045854
C96	C	1.712382	-0.381008	0.379187
C97	C	1.081623	-0.976724	-0.421814
C98	C	1.414957	-0.643391	-0.088481
C99	C	1.748290	-0.310058	0.244852
C100	C	0.996507	-0.976872	-0.336578
C101	C	1.329840	-0.643539	-0.003245
C102	C	1.663173	-0.310206	0.330089
C103	C	1.014464	-1.047544	-0.403795
C104	C	1.347797	-0.714210	-0.070462
C105	C	1.681131	-0.380877	0.262871
C106	C	1.255541	-0.512752	-0.354623
C107	C	1.588874	-0.179419	-0.021290
C108	C	1.922207	0.153915	0.312043
C109	C	1.337339	-0.512760	-0.354632
C110	C	1.670673	-0.179427	-0.021299
C111	C	2.004006	0.153907	0.312034
C112	C	1.063633	-0.512660	-0.546555
C113	C	1.396966	-0.179326	-0.213221
C114	C	1.730299	0.154007	0.120112
C115	C	1.063652	-0.512628	-0.628354
C116	C	1.396985	-0.179295	-0.295020
C117	C	1.730318	0.154038	0.038313
C118	C	1.063642	-0.235112	-0.354631
C119	C	1.396975	0.098221	-0.021297
C120	C	1.730309	0.431555	0.312036
C121	C	1.063665	-0.116807	-0.354643
C122	C	1.396998	0.216527	-0.021310
C123	C	1.730332	0.549860	0.312024
C124	C	1.110751	-0.444493	-0.816561
C125	C	1.444084	-0.111160	-0.483228
C126	C	1.777418	0.222173	-0.149894
C127	C	1.110760	-0.444462	-0.893420
C128	C	1.444093	-0.111129	-0.560087
C129	C	1.777426	0.222204	-0.226753
C130	C	1.016604	-0.580599	-0.893384
C131	C	1.349938	-0.247265	-0.560051
C132	C	1.683271	0.086068	-0.226717
C133	C	1.016592	-0.580624	-0.816526
C134	C	1.349926	-0.247290	-0.483193
C135	C	1.683259	0.086043	-0.149860
C136	C	1.063670	-0.512572	-0.778117
C137	C	1.397003	-0.179239	-0.444784
C138	C	1.730337	0.154094	-0.111450
C139	C	1.063691	-0.512517	-0.931833
C140	C	1.397024	-0.179183	-0.598500
C141	C	1.730357	0.154150	-0.265167
C142	C	1.063700	-0.512483	-1.015167
C143	C	1.397033	-0.179150	-0.681834
C144	C	1.730366	0.154183	-0.348500
C145	C	1.063660	-0.512604	-0.694778
C146	C	1.396993	-0.179270	-0.361445
C147	C	1.730327	0.154063	-0.028111
C148	C	1.063585	-0.512729	-0.163395
C149	C	1.396919	-0.179396	0.169938
C150	C	1.730252	0.153937	0.503271
C151	C	1.063709	-0.512461	-0.081597
C152	C	1.397042	-0.179127	0.251736
C153	C	1.730375	0.154206	0.585070
H154	H	0.633701	-0.636396	-0.439849
H155	H	0.967034	-0.303063	-0.106516
H156	H	1.300368	0.030271	0.226818
Cl157	Cl	1.177078	-0.928865	-0.241438
Cl158	Cl	1.510411	-0.595532	0.091895
Cl159	Cl	1.843745	-0.262198	0.425228
H160	H	1.149097	-0.389024	-0.924718
H161	H	1.482430	-0.055690	-0.591384
H162	H	1.815764	0.277643	-0.258051
Cl163	Cl	0.477259	-0.666586	-0.460676
Cl164	Cl	0.810592	-0.333253	-0.127343
Cl165	Cl	1.143925	0.000081	0.205990
H166	H	0.494215	-0.389095	-0.269376
H167	H	0.827548	-0.055762	0.063958
H168	H	1.160881	0.277572	0.397291
Cl169	Cl	0.957428	-0.666150	-0.941675
Cl170	Cl	1.290762	-0.332816	-0.608342
Cl171	Cl	1.624095	0.000517	-0.275008
Cl172	Cl	0.950249	-1.095195	-0.468008
Cl173	Cl	1.283583	-0.761861	-0.134674
Cl174	Cl	1.616916	-0.428528	0.198659
H175	H	0.633656	-0.389071	-0.269359
H176	H	0.966990	-0.055738	0.063975
H177	H	1.300323	0.277595	0.397308
Cl178	Cl	1.218451	-1.095414	-0.396259
Cl179	Cl	1.551785	-0.762080	-0.062926
Cl180	Cl	1.885118	-0.428747	0.270407
Cl181	Cl	1.169931	-0.358939	-0.768278
Cl182	Cl	1.503264	-0.025606	-0.434944
Cl183	Cl	1.836598	0.307727	-0.101611
H184	H	1.096723	-0.945692	-0.478647
H185	H	1.430057	-0.612358	-0.145314
H186	H	1.763390	-0.279025	0.188019
H187	H	1.030559	-1.078839	-0.230696
H188	H	1.363893	-0.745506	0.102638
H189	H	1.697226	-0.412173	0.435971
H190	H	0.939753	-0.945814	-0.321288
H191	H	1.273087	-0.612481	0.012045
H192	H	1.606420	-0.279147	0.345378
Cl193	Cl	0.957395	-0.666210	-0.768193
Cl194	Cl	1.290729	-0.332877	-0.434860
Cl195	Cl	1.624062	0.000457	-0.101526
