data_functionalizedCrystal
_audit_creation_method	'MofGen! by Chris Wilmer'
_symmetry_space_group_name_H-M	'P1'
_symmetry_Int_Tables_number	1
_symmetry_cell_setting	triclinic
loop_
_symmetry_equiv_pos_as_xyz
  x,y,z
_cell_length_a	13.032831
_cell_length_b	16.120484
_cell_length_c	13.032268
_cell_angle_alpha	80.357249
_cell_angle_beta	89.113023
_cell_angle_gamma	86.078521
loop_
_atom_site_label
_atom_site_type_symbol
_atom_site_fract_x
_atom_site_fract_y
_atom_site_fract_z
Zn1	Zn	1.458766	-0.562103	0.811459
Zn2	Zn	1.471747	-0.686112	0.646236
Zn3	Zn	1.311081	-0.527333	0.615806
Zn4	Zn	1.278313	-0.681612	0.796116
O5	O	1.379976	-0.614290	0.717404
O6	O	1.603247	-0.594988	0.808698
O7	O	1.469580	-0.652382	0.497592
O8	O	1.338953	-0.415480	0.635446
O9	O	1.612784	-0.686097	0.687309
O10	O	1.447456	-0.441026	0.779192
O11	O	1.351539	-0.535727	0.475236
O12	O	1.163974	-0.531364	0.620568
O13	O	1.283104	-0.678427	0.942758
O14	O	1.139900	-0.644712	0.753041
O15	O	1.415682	-0.590624	0.954031
O16	O	1.437806	-0.801980	0.672431
O17	O	1.295691	-0.798674	0.782547
C18	C	1.114921	-0.583777	0.681838
C19	C	1.001525	-0.570746	0.666648
C20	C	0.939092	-0.621091	0.725332
C21	C	0.821890	-0.607624	0.709634
C22	C	1.364626	-0.830530	0.729153
C23	C	1.358148	-0.923053	0.734226
C24	C	1.346324	-1.092455	0.743510
C25	C	1.413810	-1.135307	0.691340
C26	C	1.407231	-1.229569	0.696506
C27	C	1.352901	-0.998185	0.738345
C28	C	1.646067	-0.644923	0.753110
C29	C	1.759458	-0.657977	0.768325
C30	C	1.344290	-0.637902	0.986938
C31	C	1.329082	-0.647964	1.101797
C32	C	1.395412	-0.397210	0.705636
C33	C	1.401989	-0.304704	0.700622
C34	C	1.415587	-0.590717	0.448924
C35	C	1.431009	-0.580443	0.334079
C36	C	1.387900	-0.609007	1.158582
C37	C	1.372183	-0.619405	1.277296
H38	H	1.476527	-1.101202	0.642796
C39	C	1.165034	-1.104039	0.771965
C40	C	1.261654	-1.138483	0.809034
H41	H	1.112764	-1.132460	0.812420
H42	H	1.158394	-1.110483	0.701299
H43	H	1.158415	-1.045815	0.777053
H44	H	1.268276	-1.196706	0.803938
H45	H	1.268296	-1.132047	0.879718
C46	C	1.426010	-0.488127	1.032889
C47	C	1.471590	-0.553591	1.105576
H48	H	1.477682	-0.453921	1.000164
H49	H	1.378306	-0.454837	1.067311
H50	H	1.391144	-0.511231	0.981888
H51	H	1.506450	-0.530488	1.156582
H52	H	1.519313	-0.586887	1.071153
C53	C	1.289130	-0.674412	1.437638
C54	C	1.288497	-0.674834	1.330295
H55	H	1.237471	-0.708636	1.470357
H56	H	1.275848	-0.618314	1.450236
H57	H	1.354497	-0.696012	1.465122
H58	H	1.223131	-0.653228	1.302810
H59	H	1.301771	-0.730943	1.317690
C60	C	0.955497	-0.770239	0.787443
C61	C	0.984051	-0.692741	0.808851
H62	H	0.983246	-0.814471	0.839011
H63	H	0.981245	-0.778230	0.720970
H64	H	0.882633	-0.770577	0.787849
H65	H	1.056916	-0.692400	0.808438
H66	H	0.958308	-0.684748	0.875342
H67	H	0.792768	-0.711049	0.830198
H68	H	0.788578	-0.554544	0.647771
H69	H	1.492999	-0.539383	1.294813
C70	C	1.194011	-0.737415	1.079593
C71	C	1.245392	-0.703383	1.154798
H72	H	1.142339	-0.771624	1.112314
H73	H	1.241729	-0.770706	1.045187
H74	H	1.163104	-0.692992	1.030286
H75	H	1.276305	-0.747806	1.204101
H76	H	1.197666	-0.670090	1.189222
C77	C	0.849161	-0.499639	0.583726
C78	C	0.956561	-0.499107	0.583118
H79	H	0.821408	-0.455417	0.532148
H80	H	0.823424	-0.491630	0.650198
H81	H	0.829815	-0.552230	0.569227
H82	H	0.975908	-0.446518	0.597625
H83	H	0.982308	-0.507109	0.516632
