data_functionalizedCrystal
_audit_creation_method	'MofGen! by Chris Wilmer'
_symmetry_space_group_name_H-M	'P1'
_symmetry_Int_Tables_number	1
_symmetry_cell_setting	triclinic
loop_
_symmetry_equiv_pos_as_xyz
  x,y,z
_cell_length_a	12.837943
_cell_length_b	15.995350
_cell_length_c	11.295483
_cell_angle_alpha	94.097343
_cell_angle_beta	85.461227
_cell_angle_gamma	89.160657
loop_
_atom_site_label
_atom_site_type_symbol
_atom_site_fract_x
_atom_site_fract_y
_atom_site_fract_z
O1	O	1.382434	0.212589	-0.098992
O2	O	1.080629	0.201836	-0.099000
O3	O	1.239781	0.085983	-0.098995
O4	O	1.223282	0.328442	-0.098997
O5	O	1.225803	0.096142	0.099056
O6	O	1.066650	0.211995	0.099051
O7	O	1.368455	0.222747	0.099058
Cu8	Cu	1.216276	0.218299	0.117138
Cu9	Cu	1.232808	0.206285	-0.117080
O10	O	1.209303	0.338600	0.099053
C11	C	1.035019	0.203283	0.000024
C12	C	0.919942	0.192449	0.000021
C13	C	0.678983	0.322688	0.000037
C14	C	0.570857	0.312513	0.000035
C15	C	0.595562	0.161925	0.000024
C16	C	0.703688	0.172100	0.000026
C17	C	0.745394	0.252484	0.000031
C18	C	0.853523	0.262658	0.000024
C19	C	0.878225	0.112072	0.000021
C20	C	0.770100	0.101896	0.000019
C21	C	1.232110	0.059813	0.000028
C22	C	1.230066	-0.033301	0.000021
C23	C	1.222721	-0.371634	0.000025
C24	C	1.109407	-0.333266	-0.000422
C25	C	1.111421	-0.236390	0.000025
C26	C	1.226364	-0.203783	0.000023
C27	C	1.274288	-0.234599	0.113118
C28	C	1.271434	-0.331457	0.113213
C29	C	1.289672	-0.343180	-0.112007
C30	C	1.289750	-0.246314	-0.113502
C31	C	1.228429	-0.108920	0.000025
C32	C	1.220659	-0.466496	0.000031
C33	C	1.414065	0.221301	0.000031
C34	C	1.529143	0.232134	0.000027
C35	C	1.216974	0.364770	0.000027
C36	C	1.219019	0.457884	0.000026
N37	N	1.204657	0.226748	0.281874
N38	N	1.244436	0.197830	-0.281816
C39	C	1.328081	0.136958	0.531167
C40	C	1.319308	0.143350	0.655831
C41	C	1.178331	0.245919	0.655866
C42	C	1.187105	0.239527	0.531203
C43	C	1.261983	0.185046	0.468858
C44	C	1.270762	0.178659	0.344192
C45	C	1.129781	0.281223	0.344230
C46	C	1.121007	0.287615	0.468893
H47	H	1.069828	-0.359572	-0.081525
H48	H	1.060039	0.331970	0.519669
H49	H	0.712940	0.388139	0.000039
C50	C	1.096868	0.304941	0.723513
C51	C	0.997143	0.281616	0.693232
C52	C	0.922070	0.335956	0.755540
H53	H	1.109406	0.360712	0.703152
H54	H	1.101043	0.301840	0.806691
H55	H	0.992971	0.284725	0.610073
H56	H	0.984571	0.225853	0.713597
H57	H	0.926244	0.332855	0.838718
H58	H	0.934618	0.391725	0.735174
H59	H	0.854397	0.320133	0.735012
H60	H	1.058612	-0.352322	0.080227
H61	H	0.932310	0.054906	0.000008
H62	H	1.075962	0.320382	0.293483
C63	C	1.409526	0.077968	0.463424
C64	C	1.478024	0.124016	0.391884
C65	C	1.553084	0.069710	0.329483
H66	H	1.375820	0.037599	0.414691
H67	H	1.447700	0.050273	0.518365
H68	H	1.439855	0.151698	0.336949
H69	H	1.511755	0.164382	0.440587
H70	H	1.591258	0.042014	0.384424
H71	H	1.519369	0.029344	0.280757
H72	H	1.599574	0.100946	0.280944
C73	C	0.898602	0.350001	0.000093
C74	C	0.817290	0.409305	0.000133
C75	C	0.858772	0.489777	0.000216
H76	H	0.945125	0.353684	-0.068952
H77	H	0.935363	0.360683	0.069186
H78	H	0.780546	0.398627	-0.068954
H79	H	0.770761	0.405649	0.069172
H80	H	0.895533	0.500458	0.069309
H81	H	0.905295	0.493451	-0.068830
H82	H	0.803609	0.530025	0.000254
C83	C	0.724967	0.014568	-0.000178
C84	C	0.765930	-0.033604	-0.102063
C85	C	0.724392	-0.114060	-0.102283
H86	H	0.651068	0.018440	-0.000238
H87	H	0.742922	-0.011211	0.068846
H88	H	0.747968	-0.007832	-0.171069
H89	H	0.839826	-0.037501	-0.102024
H90	H	0.742347	-0.139839	-0.033259
H91	H	0.650493	-0.110179	-0.102340
H92	H	0.752186	-0.146757	-0.171404
C93	C	1.402226	-0.217538	-0.122735
C94	C	1.469775	-0.286923	-0.121373
C95	C	1.573396	-0.260442	-0.129913
H96	H	1.412836	-0.178822	-0.057242
H97	H	1.416091	-0.191235	-0.194965
H98	H	1.455916	-0.313213	-0.049151
H99	H	1.459199	-0.325647	-0.186862
H100	H	1.587260	-0.234139	-0.202143
H101	H	1.583995	-0.221725	-0.064418
H102	H	1.619240	-0.307516	-0.129000
H103	H	0.516788	0.369680	0.000043
C104	C	1.391031	0.090995	0.723332
C105	C	1.376371	0.005814	0.692986
C106	C	1.442434	-0.042444	0.755133
H107	H	1.375156	0.102493	0.806524
H108	H	1.461675	0.104537	0.702861
H109	H	1.305743	-0.007723	0.713465
H110	H	1.392254	-0.005709	0.609804
H111	H	1.513078	-0.028902	0.734662
H112	H	1.426553	-0.030939	0.838323
H113	H	1.432503	-0.100244	0.734545
C114	C	0.550419	0.074601	-0.000163
C115	C	0.591370	0.026418	-0.102045
C116	C	0.549817	-0.054032	-0.102250
H117	H	0.476520	0.078481	-0.000220
H118	H	0.568372	0.048825	0.068863
H119	H	0.573411	0.052188	-0.171053
H120	H	0.665265	0.022513	-0.102009
H121	H	0.567770	-0.079809	-0.033224
H122	H	0.475919	-0.050143	-0.102304
H123	H	0.577603	-0.086737	-0.171369
C124	C	1.060360	-0.208868	-0.108104
C125	C	1.027421	-0.279517	-0.174434
C126	C	0.980359	-0.254201	-0.274040
H127	H	1.109334	-0.179412	-0.156087
H128	H	1.001787	-0.173236	-0.082687
H129	H	1.085987	-0.315136	-0.199852
H130	H	0.978436	-0.308982	-0.126486
H131	H	0.921786	-0.218568	-0.248624
H132	H	1.029339	-0.224744	-0.322014
H133	H	0.957996	-0.302131	-0.319052
C134	C	1.243125	-0.220140	-0.225109
C135	C	1.210287	-0.291334	-0.290315
C136	C	1.167319	-0.267248	-0.393125
H137	H	1.294353	-0.192390	-0.272449
H138	H	1.185006	-0.183265	-0.203273
H139	H	1.268398	-0.328194	-0.312154
H140	H	1.159047	-0.319092	-0.243011
H141	H	1.109201	-0.230373	-0.371289
H142	H	1.218553	-0.239497	-0.440455
H143	H	1.145025	-0.315548	-0.437374
C144	C	1.044800	-0.198539	0.108416
C145	C	1.002573	-0.262909	0.173758
C146	C	0.941211	-0.228073	0.273633
H147	H	0.989774	-0.165397	0.083356
H148	H	1.086856	-0.164395	0.156916
H149	H	0.960519	-0.297039	0.125267
H150	H	1.057575	-0.296055	0.198848
H151	H	0.983267	-0.193928	0.322133
H152	H	0.886191	-0.194932	0.248561
H153	H	0.912560	-0.271741	0.317985
H154	H	1.224700	-0.348675	0.197755
H155	H	1.354288	-0.356802	0.118343
H156	H	1.358437	-0.213520	0.117323
C157	C	1.214583	-0.195302	0.225445
C158	C	1.171767	-0.258622	0.292426
C159	C	1.116766	-0.222456	0.395913
H160	H	1.160056	-0.159837	0.204403
H161	H	1.260855	-0.163292	0.271266
H162	H	1.125498	-0.290618	0.246615
H163	H	1.226271	-0.294091	0.313500
H164	H	1.163038	-0.190446	0.441733
H165	H	1.062244	-0.186991	0.374859
H166	H	1.087717	-0.265413	0.441378
H167	H	1.258664	-0.371073	-0.197727
H168	H	1.373295	-0.368312	-0.112769
H169	H	1.331734	0.134300	0.293432
