data_functionalizedCrystal
_audit_creation_method	'MofGen! by Chris Wilmer'
_symmetry_space_group_name_H-M	'P1'
_symmetry_Int_Tables_number	1
_symmetry_cell_setting	triclinic
loop_
_symmetry_equiv_pos_as_xyz
  x,y,z
_cell_length_a	13.897449
_cell_length_b	13.897448
_cell_length_c	13.897441
_cell_angle_alpha	90.029627
_cell_angle_beta	90.021257
_cell_angle_gamma	90.018519
loop_
_atom_site_label
_atom_site_type_symbol
_atom_site_fract_x
_atom_site_fract_y
_atom_site_fract_z
Zn1	Zn	1.474682	-0.383972	0.545450
Zn2	Zn	1.808016	-0.050639	0.878783
Zn3	Zn	2.141349	0.282695	1.212116
Zn4	Zn	1.474582	-0.545291	0.384151
Zn5	Zn	1.807916	-0.211958	0.717484
Zn6	Zn	2.141249	0.121376	1.050818
Zn7	Zn	1.313377	-0.384014	0.384161
Zn8	Zn	1.646711	-0.050681	0.717494
Zn9	Zn	1.980044	0.282653	1.050827
Zn10	Zn	1.313353	-0.545229	0.545396
Zn11	Zn	1.646686	-0.211896	0.878730
Zn12	Zn	1.980020	0.121438	1.212063
O13	O	1.393999	-0.464627	0.464789
O14	O	1.727332	-0.131293	0.798123
O15	O	2.060665	0.202040	1.131456
O16	O	1.609651	-0.405380	0.524071
O17	O	1.942984	-0.072046	0.857405
O18	O	2.276317	0.261287	1.190738
O19	O	1.453166	-0.523941	0.249171
O20	O	1.786500	-0.190607	0.582504
O21	O	2.119833	0.142726	0.915837
O22	O	1.334827	-0.249027	0.405582
O23	O	1.668160	0.084307	0.738916
O24	O	2.001494	0.417640	1.072249
O25	O	1.609577	-0.523900	0.405566
O26	O	1.942911	-0.190567	0.738899
O27	O	2.276244	0.142767	1.072233
O28	O	1.453337	-0.248996	0.524081
O29	O	1.786670	0.084337	0.857414
O30	O	2.120004	0.417671	1.190747
O31	O	1.334730	-0.405451	0.249178
O32	O	1.668063	-0.072118	0.582511
O33	O	2.001397	0.261215	0.915844
O34	O	1.178393	-0.405391	0.405530
O35	O	1.511726	-0.072058	0.738864
O36	O	1.845059	0.261276	1.072197
O37	O	1.334785	-0.523795	0.680385
O38	O	1.668119	-0.190461	1.013718
O39	O	2.001452	0.142872	1.347052
O40	O	1.178375	-0.523835	0.523990
O41	O	1.511708	-0.190502	0.857323
O42	O	1.845041	0.142831	1.190656
O43	O	1.453313	-0.405320	0.680424
O44	O	1.786647	-0.071986	1.013758
O45	O	2.119980	0.261347	1.347091
O46	O	1.453143	-0.680264	0.405514
O47	O	1.786476	-0.346931	0.738848
O48	O	2.119810	-0.013598	1.072181
O49	O	1.334689	-0.680219	0.523980
O50	O	1.668022	-0.346886	0.857314
O51	O	2.001355	-0.013552	1.190647
C52	C	1.143384	-0.464612	0.464756
C53	C	1.476718	-0.131278	0.798089
C54	C	1.810051	0.202055	1.131422
C55	C	1.036171	-0.464629	0.464764
C56	C	1.369504	-0.131295	0.798098
C57	C	1.702837	0.202038	1.131431
C58	C	0.949101	-0.464632	0.464780
C59	C	1.282434	-0.131298	0.798114
C60	C	1.615767	0.202035	1.131447
C61	C	0.839868	-0.464639	0.464810
C62	C	1.173202	-0.131305	0.798143
C63	C	1.506535	0.202028	1.131476
C64	C	1.393928	-0.715241	0.464761
C65	C	1.727262	-0.381908	0.798095
C66	C	2.060595	-0.048574	1.131428
C67	C	1.393987	-0.822455	0.464782
C68	C	1.727320	-0.489121	0.798115
C69	C	2.060653	-0.155788	1.131448
C70	C	1.394088	-1.018750	0.464842
C71	C	1.727421	-0.685417	0.798176
C72	C	2.060754	-0.352083	1.131509
C73	C	1.394029	-0.909517	0.464812
C74	C	1.727362	-0.576184	0.798145
C75	C	2.060695	-0.242851	1.131478
C76	C	1.645592	-0.464642	0.464824
C77	C	1.978925	-0.131309	0.798157
C78	C	2.312258	0.202025	1.131490
C79	C	1.752806	-0.464649	0.464838
C80	C	2.086139	-0.131315	0.798172
C81	C	2.419472	0.202018	1.131505
C82	C	1.394058	-0.464546	0.716382
C83	C	1.727391	-0.131212	1.049716
C84	C	2.060725	0.202121	1.383049
C85	C	1.394083	-0.464511	0.823596
C86	C	1.727416	-0.131178	1.156930
C87	C	2.060750	0.202156	1.490263
C88	C	1.394096	-0.213034	0.464838
C89	C	1.727429	0.120300	0.798172
C90	C	2.060762	0.453633	1.131505
C91	C	1.394137	-0.105820	0.464859
C92	C	1.727470	0.227514	0.798193
C93	C	2.060804	0.560847	1.131526
C94	C	1.393995	-0.464638	0.214175
C95	C	1.727329	-0.131304	0.547508
C96	C	2.060662	0.202029	0.880842
C97	C	1.394157	-0.464400	0.106962
C98	C	1.727491	-0.131067	0.440295
C99	C	2.060824	0.202266	0.773628
C100	C	1.394103	-0.464484	0.910666
C101	C	1.727436	-0.131150	1.244000
C102	C	2.060769	0.202183	1.577333
C103	C	1.394130	-0.464440	1.019899
C104	C	1.727464	-0.131107	1.353232
C105	C	2.060797	0.202226	1.686566
