data_functionalizedCrystal
_audit_creation_method	'MofGen! by Chris Wilmer'
_symmetry_space_group_name_H-M	'P1'
_symmetry_Int_Tables_number	1
_symmetry_cell_setting	triclinic
loop_
_symmetry_equiv_pos_as_xyz
  x,y,z
_cell_length_a	14.044220
_cell_length_b	17.699097
_cell_length_c	16.176319
_cell_angle_alpha	89.988988
_cell_angle_beta	89.992517
_cell_angle_gamma	88.238654
loop_
_atom_site_label
_atom_site_type_symbol
_atom_site_fract_x
_atom_site_fract_y
_atom_site_fract_z
O1	O	0.119911	1.012344	-0.068818
O2	O	0.135490	0.793042	-0.068805
O3	O	-0.010277	0.899401	-0.068803
O4	O	0.265678	0.905985	-0.068820
O5	O	-0.010286	0.899385	0.068690
O6	O	0.135481	0.793025	0.068688
O7	O	0.119901	1.012327	0.068675
Cu8	Cu	0.127690	0.902675	0.081236
Cu9	Cu	0.127701	0.902694	-0.081366
O10	O	0.265668	0.905968	0.068673
C11	C	0.134925	0.764798	-0.000057
C12	C	0.133244	0.680664	-0.000051
C13	C	0.122944	0.164244	-0.075032
C14	C	0.124518	0.243297	-0.075028
C15	C	0.125301	0.282808	-0.000077
C16	C	0.124501	0.243263	0.074875
C17	C	0.122921	0.164212	0.074870
C18	C	0.130871	0.562067	0.074896
C19	C	0.132454	0.641123	0.074895
C20	C	0.132468	0.641152	-0.075001
C21	C	0.130888	0.562101	-0.075006
C22	C	0.130083	0.522563	-0.000055
C23	C	0.128376	0.436845	-0.000060
C24	C	0.127015	0.368524	-0.000071
C25	C	-0.045589	0.896511	-0.000056
C26	C	-0.150796	0.887915	-0.000055
C27	C	-0.343422	0.872200	-0.000066
C28	C	-0.401192	0.933166	-0.000072
C29	C	-0.508376	0.924422	-0.000078
C30	C	-0.236228	0.880943	-0.000059
C31	C	0.300981	0.908858	-0.000076
C32	C	0.406188	0.917454	-0.000083
C33	C	0.120466	1.040571	-0.000075
C34	C	0.122148	1.124705	-0.000086
N35	N	0.127682	0.902666	0.195601
N36	N	0.127702	0.902708	-0.195731
C37	C	0.063163	0.949780	0.238866
C38	C	0.063162	0.949783	0.325413
C39	C	0.127685	0.902677	0.368694
C40	C	0.192208	0.855559	0.325423
C41	C	0.192204	0.855552	0.238877
C42	C	0.192226	0.855586	0.674451
C43	C	0.192227	0.855598	0.761002
C44	C	0.063184	0.949818	0.760987
C45	C	0.063180	0.949811	0.674441
C46	C	0.127698	0.902690	0.631178
C47	C	0.127697	0.902685	0.537334
C48	C	0.127692	0.902685	0.462536
H49	H	0.133119	0.673353	-0.136030
C50	C	0.129999	0.518584	0.157339
H51	H	0.130704	0.553439	0.201975
H52	H	0.074139	0.489787	0.160463
H53	H	0.184636	0.485706	0.160448
H54	H	0.010642	0.988171	0.639205
C55	C	0.125365	0.286723	0.157319
H56	H	0.126430	0.339466	0.146590
H57	H	0.069859	0.275805	0.188120
H58	H	0.180356	0.271717	0.188108
H59	H	0.244771	0.817236	0.796240
C60	C	0.122049	0.120718	0.157310
H61	H	0.122751	0.155570	0.201950
H62	H	0.066188	0.091921	0.160428
H63	H	0.176685	0.087839	0.160420
H64	H	0.010646	0.988184	0.796221
C65	C	0.263201	0.803762	0.626872
H66	H	0.301635	0.775717	0.665046
H67	H	0.229159	0.769955	0.593126
H68	H	0.302614	0.833648	0.593096
H69	H	0.244741	0.817200	0.360667
C70	C	-0.359267	1.012548	-0.000058
H71	H	-0.291682	1.008089	-0.000044
H72	H	-0.380107	1.039278	-0.048001
H73	H	-0.380135	1.039243	0.047898
H74	H	-0.374459	0.813443	-0.000064
C75	C	-0.007816	1.001596	0.191265
H76	H	-0.046247	1.029650	0.229431
H77	H	0.026224	1.035395	0.157486
H78	H	-0.047232	0.971703	0.157521
H79	H	0.125161	0.275487	-0.136056
C80	C	-0.007809	1.001606	0.373005
H81	H	0.001424	0.994858	0.430747
H82	H	0.002407	1.052804	0.358807
H83	H	-0.071052	0.989114	0.358830
C84	C	0.122091	0.120789	-0.157479
H85	H	0.122785	0.155662	-0.202113
H86	H	0.176722	0.087911	-0.160598
H87	H	0.066225	0.091992	-0.160597
C88	C	0.130023	0.518642	-0.157452
H89	H	0.130714	0.553514	-0.202088
H90	H	0.184650	0.485761	-0.160575
H91	H	0.074153	0.489850	-0.160562
C92	C	0.263178	0.803731	0.191286
H93	H	0.301614	0.775682	0.229456
H94	H	0.229132	0.769927	0.157539
H95	H	0.302591	0.833617	0.157510
H96	H	0.133092	0.673291	0.135933
