data_functionalizedCrystal
_audit_creation_method	'MofGen! by Chris Wilmer'
_symmetry_space_group_name_H-M	'P1'
_symmetry_Int_Tables_number	1
_symmetry_cell_setting	triclinic
loop_
_symmetry_equiv_pos_as_xyz
  x,y,z
_cell_length_a	11.792241
_cell_length_b	11.792241
_cell_length_c	7.540329
_cell_angle_alpha	90.003744
_cell_angle_beta	89.998758
_cell_angle_gamma	84.193416
loop_
_atom_site_label
_atom_site_type_symbol
_atom_site_fract_x
_atom_site_fract_y
_atom_site_fract_z
O1	O	1.506906	0.155566	0.147311
O2	O	1.176565	0.171599	0.147352
O3	O	1.349752	-0.001588	0.147318
O4	O	1.333719	0.328753	0.147345
O5	O	1.349742	-0.001590	-0.147647
O6	O	1.176555	0.171597	-0.147613
O7	O	1.506896	0.155564	-0.147654
Cu8	Cu	1.341725	0.163580	-0.174566
Cu9	Cu	1.341737	0.163583	0.174264
O10	O	1.333709	0.328751	-0.147620
C11	C	1.134269	0.170591	-0.000125
C12	C	1.008255	0.167576	-0.000110
C13	C	0.777543	0.162034	-0.000161
C14	C	0.905928	0.165113	-0.000133
C15	C	1.348740	-0.043880	-0.000164
C16	C	1.345726	-0.169894	-0.000162
C17	C	1.340183	-0.400606	-0.000131
C18	C	1.343262	-0.272221	-0.000148
C19	C	1.549192	0.156572	-0.000173
C20	C	1.675206	0.159587	-0.000177
C21	C	1.334721	0.371043	-0.000134
C22	C	1.337736	0.497057	-0.000125
N23	N	1.341724	0.163578	-0.419915
N24	N	1.341746	0.163576	0.419613
