data_functionalizedCrystal
_audit_creation_method	'MofGen! by Chris Wilmer'
_symmetry_space_group_name_H-M	'P1'
_symmetry_Int_Tables_number	1
_symmetry_cell_setting	triclinic
loop_
_symmetry_equiv_pos_as_xyz
  x,y,z
_cell_length_a	14.044220
_cell_length_b	10.654541
_cell_length_c	9.130307
_cell_angle_alpha	90.003083
_cell_angle_beta	89.996652
_cell_angle_gamma	88.836403
loop_
_atom_site_label
_atom_site_type_symbol
_atom_site_fract_x
_atom_site_fract_y
_atom_site_fract_z
O1	O	-1.259693	-0.302984	-0.121643
O2	O	-0.983652	-0.292051	-0.121680
O3	O	-1.128020	-0.115416	-0.121651
O4	O	-1.115324	-0.479619	-0.121671
O5	O	-1.128015	-0.115413	0.121948
O6	O	-0.983647	-0.292048	0.121919
O7	O	-1.259688	-0.302982	0.121956
Cu8	Cu	-1.121667	-0.297515	0.144180
Cu9	Cu	-1.121672	-0.297518	-0.143904
O10	O	-1.115319	-0.479617	0.121928
C11	C	-1.127086	-0.068523	0.000147
C12	C	-1.124298	0.071201	0.000144
C13	C	-0.948303	-0.287264	0.000115
C14	C	-0.842984	-0.272988	0.000101
C15	C	-1.295036	-0.307769	0.000158
C16	C	-1.400356	-0.322044	0.000163
C17	C	-0.650151	-0.246889	0.000132
C18	C	-0.593183	-0.348138	0.000132
C19	C	-0.485884	-0.333616	0.000149
C20	C	-0.757460	-0.261409	0.000115
C21	C	-1.116253	-0.526510	0.000126
C22	C	-1.119041	-0.666233	0.000120
N23	N	-1.121670	-0.297513	0.346803
C24	C	-1.296930	0.081824	0.000186
C25	C	-1.381932	0.152776	0.000210
C26	C	-1.379307	0.284058	0.000205
C27	C	-1.291671	0.344390	0.000172
C28	C	-1.206668	0.273437	0.000148
C29	C	-1.209303	0.142153	0.000158
C30	C	-1.034039	0.262814	0.000096
C31	C	-1.036662	0.131533	0.000111
C32	C	-0.946402	0.323146	0.000063
C33	C	-0.861398	0.252194	0.000050
C34	C	-0.864026	0.120904	0.000056
C35	C	-0.951659	0.060580	0.000088
N36	N	-1.121677	-0.297511	-0.346526
C37	C	-1.249561	-0.141158	0.346818
C38	C	-1.313512	-0.062984	0.423493
C39	C	-1.313522	-0.062984	0.576826
C40	C	-1.249571	-0.141164	0.653489
C41	C	-1.185619	-0.219337	0.576814
C42	C	-1.185619	-0.219331	0.423478
C43	C	-1.057725	-0.375684	0.576799
C44	C	-1.057719	-0.375692	0.423466
C45	C	-0.993774	-0.453863	0.653462
C46	C	-0.929826	-0.532045	0.576788
C47	C	-0.929819	-0.532042	0.423445
C48	C	-0.993767	-0.453865	0.346792
H49	H	-0.624995	-0.445725	0.000120
H50	H	-1.448524	0.341828	0.000213
H51	H	-1.365593	0.000676	0.639254
H52	H	-0.790051	0.301327	0.000013
H53	H	-0.953808	-0.046316	0.000102
Cl54	Cl	-0.849433	-0.630309	0.673167
H55	H	-1.249575	-0.141148	0.778341
Cl56	Cl	-0.601038	-0.096230	0.000142
H57	H	-1.299076	-0.025072	0.000210
H58	H	-1.453284	0.103639	0.000250
H59	H	-1.289541	0.451287	0.000150
Cl60	Cl	-0.993779	-0.453860	0.846225
H61	H	-0.944271	0.430043	0.000050
Cl62	Cl	-0.849412	-0.630317	0.327068
H63	H	-0.993771	-0.453861	0.221939
H64	H	-0.794807	0.063142	0.000031
H65	H	-1.249567	-0.141161	0.221966
Cl66	Cl	-1.393902	0.035299	0.327115
