data_functionalizedCrystal
_audit_creation_method	'MofGen! by Chris Wilmer'
_symmetry_space_group_name_H-M	'P1'
_symmetry_Int_Tables_number	1
_symmetry_cell_setting	triclinic
loop_
_symmetry_equiv_pos_as_xyz
  x,y,z
_cell_length_a	16.974897
_cell_length_b	10.654545
_cell_length_c	16.053802
_cell_angle_alpha	92.592866
_cell_angle_beta	83.774775
_cell_angle_gamma	83.942301
loop_
_atom_site_label
_atom_site_type_symbol
_atom_site_fract_x
_atom_site_fract_y
_atom_site_fract_z
O1	O	1.056716	0.149419	-0.140750
O2	O	1.556716	0.649419	0.359250
O3	O	0.825882	0.170974	-0.125170
O4	O	1.325882	0.670974	0.374830
O5	O	0.946606	-0.022652	-0.133318
O6	O	1.446606	0.477348	0.366682
O7	O	0.935992	0.343045	-0.132603
O8	O	1.435992	0.843045	0.367397
O9	O	0.939961	-0.012038	0.005990
O10	O	1.439961	0.487962	0.505990
O11	O	0.819237	0.181588	0.014137
O12	O	1.319237	0.681588	0.514137
O13	O	1.050071	0.160033	-0.001442
O14	O	1.550071	0.660033	0.498558
Zn15	Zn	0.933599	0.172496	0.028465
Zn16	Zn	1.433599	0.672496	0.528465
Zn17	Zn	0.942354	0.158511	-0.155078
Zn18	Zn	1.442354	0.658511	0.344922
O19	O	0.929347	0.353659	0.006705
O20	O	1.429347	0.853659	0.506705
C21	C	0.793002	0.175655	-0.053522
C22	C	1.293002	0.675655	0.446478
C23	C	0.704931	0.173775	-0.047578
C24	C	1.204931	0.673775	0.452422
C25	C	0.667169	0.167109	-0.120716
C26	C	1.167169	0.667109	0.379284
C27	C	0.584414	0.165363	-0.115118
C28	C	1.084414	0.665363	0.384882
C29	C	0.539424	0.170274	-0.036383
C30	C	1.039424	0.670274	0.463617
C31	C	0.577190	0.176944	0.036761
C32	C	1.077190	0.676944	0.536761
C33	C	0.659943	0.178699	0.031163
C34	C	1.159943	0.678699	0.531163
C35	C	0.291542	0.165656	-0.011497
C36	C	0.791542	0.665656	0.488503
C37	C	0.208784	0.163897	-0.005905
C38	C	0.708784	0.663897	0.494095
C39	C	0.216014	0.152319	-0.157784
C40	C	0.716014	0.652319	0.342216
C41	C	0.298768	0.154066	-0.163376
C42	C	0.798768	0.654066	0.336624
C43	C	0.336527	0.160743	-0.090232
C44	C	0.836527	0.660743	0.409768
N45	N	0.454835	0.168486	-0.030659
N46	N	0.954835	0.668486	0.469341
N47	N	0.421113	0.162540	-0.095956
N48	N	0.921113	0.662540	0.404044
C49	C	0.942504	-0.064127	-0.063613
C50	C	1.442504	0.435873	0.436387
C51	C	0.940172	-0.203523	-0.063461
C52	C	1.440172	0.296477	0.436539
C53	C	0.947426	-0.215103	-0.215338
C54	C	1.447426	0.284897	0.284662
C55	C	0.949961	-0.286381	-0.291203
C56	C	1.449961	0.213619	0.208797
C57	C	0.947770	-0.417354	-0.291056
C58	C	1.447770	0.082646	0.208944
C59	C	0.943041	-0.477053	-0.215036
C60	C	1.443041	0.022947	0.284964
C61	C	0.940507	-0.405775	-0.139171
C62	C	1.440507	0.094225	0.360829
C63	C	0.942701	-0.274799	-0.139327
C64	C	1.442701	0.225201	0.360673
C65	C	0.933247	-0.394194	0.012705
C66	C	1.433247	0.105806	0.512705
C67	C	0.935443	-0.263221	0.012560
C68	C	1.435443	0.236779	0.512560
C69	C	0.928519	-0.453892	0.088725
C70	C	1.428519	0.046108	0.588725
C71	C	0.925990	-0.382615	0.164591
C72	C	1.425990	0.117385	0.664591
C73	C	0.928182	-0.251634	0.164441
C74	C	1.428182	0.248366	0.664441
C75	C	0.932909	-0.191943	0.088424
C76	C	1.432909	0.308057	0.588424
C77	C	1.082951	0.155352	-0.073093
C78	C	1.582951	0.655352	0.426907
C79	C	1.171022	0.157232	-0.079042
C80	C	1.671022	0.657232	0.420958
C81	C	0.933449	0.395134	-0.063002
C82	C	1.433449	0.895134	0.436998
C83	C	0.935781	0.534529	-0.063160
C84	C	1.435781	1.034529	0.436840
N85	N	0.927629	0.182039	0.153728
N86	N	1.427629	0.682039	0.653728
N87	N	0.948330	0.148958	-0.280342
N88	N	1.448330	0.648958	0.219658
C89	C	0.979016	0.099680	0.193954
C90	C	1.479016	0.599680	0.693954
C91	C	0.974848	0.106367	0.281642
C92	C	1.474848	0.606367	0.781642
C93	C	0.919296	0.195420	0.329103
C94	C	1.419296	0.695420	0.829103
C95	C	0.867903	0.277783	0.288871
C96	C	1.367903	0.777783	0.788871
C97	C	0.872068	0.271089	0.201185
C98	C	1.372068	0.771089	0.701185
C99	C	0.901102	0.224626	0.591740
C100	C	1.401102	0.724626	1.091740
C101	C	0.896943	0.231317	0.679432
C102	C	1.396943	0.731317	1.179432
C103	C	1.003887	0.059899	0.672198
C104	C	1.503887	0.559899	1.172198
C105	C	1.008050	0.053217	0.584510
C106	C	1.508050	0.553217	1.084510
C107	C	0.956655	0.135575	0.544286
C108	C	1.456655	0.635575	1.044286
N109	N	0.915036	0.202261	0.418734
N110	N	1.415036	0.702261	0.918734
N111	N	0.960912	0.128728	0.454656
N112	N	1.460912	0.628728	0.954656
H113	H	0.690686	0.184132	0.090719
H114	H	1.190686	0.684132	0.590719
H115	H	0.540551	0.180950	0.100869
H116	H	1.040551	0.680950	0.600869
H117	H	1.024256	0.027168	0.155317
H118	H	1.524256	0.527168	0.655317
H119	H	0.926730	-0.560537	0.088840
H120	H	1.426730	-0.060537	0.588840
H121	H	1.045730	-0.007155	0.704956
H122	H	1.545730	0.492845	1.204956
H123	H	0.185261	0.146886	-0.217333
H124	H	0.685261	0.646886	0.282667
H125	H	0.953809	-0.237760	-0.353097
H126	H	1.453809	0.262240	0.146903
H127	H	0.172151	0.167932	0.058215
H128	H	0.672151	0.667932	0.558215
H129	H	0.322275	0.171084	0.048061
H130	H	0.822275	0.671084	0.548061
H131	H	0.822667	0.350288	0.327519
H132	H	1.322667	0.850288	0.827519
N133	N	0.950511	-0.494243	-0.372879
N134	N	1.450511	0.005757	0.127121
H135	H	0.953842	-0.436558	-0.421060
H136	H	1.453842	0.063442	0.078940
H137	H	0.998851	-0.559340	-0.379420
H138	H	1.498851	-0.059340	0.120580
N139	N	0.715694	0.161798	-0.205639
N140	N	1.215694	0.661798	0.294361
H141	H	0.679211	0.157312	-0.251121
H142	H	1.179211	0.657312	0.248879
H143	H	0.744190	0.240115	-0.210868
H144	H	1.244190	0.740115	0.289132
N145	N	0.935265	-0.050679	0.088251
N146	N	1.435265	0.449321	0.588251
H147	H	0.885279	-0.006350	0.121333
H148	H	1.385279	0.493650	0.621333
H149	H	0.983481	-0.027458	0.114702
H150	H	1.483481	0.472542	0.614702
H151	H	0.830222	0.338153	0.168434
H152	H	1.330222	0.838153	0.668434
N153	N	0.940690	-0.618318	-0.214876
N154	N	1.440690	-0.118318	0.285124
H155	H	0.943016	-0.654414	-0.274470
H156	H	1.443016	-0.154414	0.225530
H157	H	0.987831	-0.657982	-0.188296
H158	H	1.487831	-0.157982	0.311704
H159	H	0.859255	0.291688	0.558997
H160	H	1.359255	0.791688	1.058997
N161	N	0.949804	-0.073843	-0.215497
N162	N	1.449804	0.426157	0.284503
H163	H	0.953187	-0.046841	-0.275164
H164	H	1.453187	0.453159	0.224836
H165	H	0.899818	-0.029596	-0.182374
H166	H	1.399818	0.470404	0.317626
H167	H	0.922135	-0.431231	0.226481
H168	H	1.422135	0.068769	0.726481
N169	N	0.925442	-0.174757	0.246268
N170	N	1.425442	0.325243	0.746268
H171	H	0.922114	-0.232454	0.294443
H172	H	1.422114	0.267546	0.794443
H173	H	0.975281	-0.130678	0.246211
H174	H	1.475281	0.369322	0.746211
H175	H	0.335395	0.150058	-0.227491
H176	H	0.835395	0.650058	0.272509
H177	H	1.016691	0.039303	0.314394
H178	H	1.516691	0.539303	0.814394
H179	H	1.053285	-0.019297	0.545869
H180	H	1.553285	0.480703	1.045869
N181	N	0.837031	0.327384	0.730624
N182	N	1.337031	0.827384	1.230624
H183	H	0.805104	0.378544	0.691838
H184	H	1.305104	0.878544	1.191838
H185	H	0.799976	0.282297	0.769411
H186	H	1.299976	0.782297	1.269411
H187	H	0.553673	0.159936	-0.174675
H188	H	1.053673	0.659936	0.325325
