data_functionalizedCrystal
_audit_creation_method	'MofGen! by Chris Wilmer'
_symmetry_space_group_name_H-M	'P1'
_symmetry_Int_Tables_number	1
_symmetry_cell_setting	triclinic
loop_
_symmetry_equiv_pos_as_xyz
  x,y,z
_cell_length_a	12.645331
_cell_length_b	21.295412
_cell_length_c	12.645330
_cell_angle_alpha	89.976318
_cell_angle_beta	90.011881
_cell_angle_gamma	89.983251
loop_
_atom_site_label
_atom_site_type_symbol
_atom_site_fract_x
_atom_site_fract_y
_atom_site_fract_z
Zn1	Zn	1.620779	-0.355828	-0.422087
Zn2	Zn	1.620673	-0.250567	-0.599365
Zn3	Zn	1.443490	-0.250586	-0.422114
Zn4	Zn	1.443491	-0.355811	-0.599307
O5	O	1.532108	-0.303198	-0.510718
O6	O	1.769112	-0.341864	-0.445617
O7	O	1.597125	-0.162480	-0.575888
O8	O	1.467052	-0.264562	-0.273763
O9	O	1.769034	-0.264529	-0.575862
O10	O	1.597305	-0.341883	-0.273744
O11	O	1.466950	-0.162494	-0.445662
O12	O	1.295143	-0.264545	-0.445605
O13	O	1.467053	-0.443902	-0.575763
O14	O	1.295144	-0.341853	-0.575789
O15	O	1.597306	-0.443915	-0.445561
O16	O	1.597125	-0.264512	-0.747705
O17	O	1.466950	-0.341834	-0.747662
C18	C	1.256679	-0.303199	-0.510694
C19	C	1.138849	-0.303215	-0.510710
C20	C	0.971320	-0.351596	-0.593057
C21	C	1.093880	-0.351798	-0.592791
C22	C	1.094361	-0.321341	-0.399057
C23	C	0.971763	-0.321682	-0.399559
C24	C	0.971603	-0.236554	-0.539116
C25	C	1.094210	-0.236914	-0.541558
C26	C	1.532191	-0.467388	-0.510652
C27	C	1.532227	-0.537356	-0.510624
C28	C	1.464462	-0.570220	-0.442808
C29	C	1.464459	-0.635963	-0.442788
C30	C	1.532238	-0.668839	-0.510574
C31	C	1.600007	-0.635967	-0.578403
C32	C	1.600001	-0.570226	-0.578428
N33	N	1.625039	-0.772071	-0.518671
N34	N	1.625042	-0.834523	-0.518641
C35	C	1.532258	-0.866914	-0.510503
N36	N	1.439469	-0.834494	-0.502376
N37	N	1.439468	-0.772037	-0.502401
C38	C	1.532251	-0.740124	-0.510554
C39	C	1.464483	-0.971063	-0.442662
C40	C	1.464478	-1.036807	-0.442650
C41	C	1.600036	-1.036810	-0.578259
C42	C	1.600032	-0.971067	-0.578277
C43	C	1.532257	-0.938198	-0.510473
C44	C	1.808613	-0.303197	-0.510743
C45	C	1.926444	-0.303196	-0.510754
C46	C	1.532055	-0.303183	-0.786148
C47	C	1.532129	-0.303198	-0.903978
C48	C	1.532087	-0.139646	-0.510707
C49	C	1.532257	-0.069679	-0.510437
C50	C	1.613891	-0.254455	-1.071525
C51	C	1.614157	-0.254575	-0.948964
C52	C	1.562431	-0.369550	-0.948367
C53	C	1.563080	-0.369292	-1.070965
C54	C	1.420034	-0.286241	-1.071302
C55	C	1.420571	-0.284753	-0.948698
C56	C	1.532190	-0.303227	-0.234213
C57	C	1.532226	-0.303239	-0.116383
H58	H	0.943188	-0.370400	-0.375501
H59	H	0.942076	-0.288046	-0.336040
H60	H	1.392479	-0.238700	-1.102306
O61	O	1.135084	-0.385163	-0.366577
H62	H	1.186988	-0.404077	-0.429773
H63	H	1.409271	-0.543462	-0.387601
O64	O	1.390287	-0.220076	-0.910278
H65	H	1.454412	-0.201141	-0.859539
H66	H	1.504761	-0.406871	-0.919224
H67	H	1.409279	-0.662726	-0.387559
O68	O	1.723377	-0.269185	-1.112213
H69	H	1.723517	-0.266781	-1.199896
O70	O	0.932260	-0.336723	-0.703099
H71	H	0.844574	-0.338904	-0.704498
O72	O	0.930557	-0.416629	-0.568517
H73	H	0.878476	-0.414630	-0.497954
H74	H	1.124820	-0.198917	-0.485961
O75	O	1.673102	-0.671425	-0.651522
H76	H	1.720216	-0.637525	-0.698695
O77	O	1.132772	-0.417201	-0.567907
H78	H	1.064013	-0.448807	-0.556007
O79	O	1.132945	-0.276114	-0.315608
H80	H	1.184365	-0.240153	-0.352918
H81	H	1.655188	-0.543468	-0.633651
H82	H	0.940688	-0.220079	-0.619145
O83	O	1.132788	-0.218780	-0.650361
H84	H	1.183540	-0.256826	-0.682346
O85	O	1.391379	-0.935604	-0.369546
H86	H	1.344242	-0.969504	-0.322397
O87	O	1.589067	-0.189404	-0.909201
H88	H	1.576635	-0.157517	-0.977540
H89	H	1.595169	-0.205112	-1.101072
O90	O	0.933159	-0.188779	-0.459719
H91	H	0.882134	-0.212343	-0.400341
H92	H	1.409288	-1.063564	-0.387429
O93	O	1.673146	-1.072258	-0.651372
H94	H	1.661771	-1.123494	-0.639959
H95	H	1.655216	-0.944309	-0.633498
H96	H	1.697254	-0.265817	-0.919559
O97	O	1.671707	-0.388356	-1.108751
H98	H	1.723282	-0.397670	-1.039459
H99	H	1.506205	-0.406891	-1.100635
H100	H	1.643512	-0.384189	-0.917581
H101	H	1.356441	-0.317680	-0.918086
O102	O	1.339377	-0.333210	-1.109941
H103	H	1.378941	-0.368502	-1.160978
H104	H	1.123959	-0.340438	-0.675588
