data_functionalizedCrystal
_audit_creation_method	'MofGen! by Chris Wilmer'
_symmetry_space_group_name_H-M	'P1'
_symmetry_Int_Tables_number	1
_symmetry_cell_setting	triclinic
loop_
_symmetry_equiv_pos_as_xyz
  x,y,z
_cell_length_a	16.109301
_cell_length_b	16.109304
_cell_length_c	15.186229
_cell_angle_alpha	90.000934
_cell_angle_beta	90.000638
_cell_angle_gamma	83.462059
loop_
_atom_site_label
_atom_site_type_symbol
_atom_site_fract_x
_atom_site_fract_y
_atom_site_fract_z
O1	O	1.103132	0.106866	0.073167
O2	O	0.861070	0.120165	0.073181
O3	O	0.988749	-0.007515	0.073174
O4	O	0.975452	0.234546	0.073174
O5	O	0.988741	-0.007517	-0.073283
O6	O	0.861061	0.120163	-0.073277
O7	O	1.103123	0.106864	-0.073290
Zn8	Zn	0.982091	0.113513	-0.096537
Zn9	Zn	0.982102	0.113516	0.096427
O10	O	0.975444	0.234545	-0.073283
C11	C	0.830091	0.119626	-0.000046
C12	C	0.737795	0.118010	-0.000041
C13	C	0.515524	0.190018	-0.000051
C14	C	0.428803	0.188494	-0.000057
C15	C	0.448676	0.037005	-0.000053
C16	C	0.535395	0.038530	-0.000054
C17	C	0.568816	0.115039	-0.000048
C18	C	0.395377	0.111990	-0.000053
C19	C	0.301351	0.110337	-0.000059
C20	C	0.662848	0.116693	-0.000044
C21	C	0.988206	-0.038491	-0.000052
C22	C	0.986590	-0.130786	-0.000046
C23	C	0.982861	-0.343123	0.079784
C24	C	0.981335	-0.429843	0.079784
C25	C	0.981330	-0.429842	-0.079892
C26	C	0.982850	-0.343122	-0.079890
C27	C	0.983620	-0.299766	-0.000050
C28	C	0.980573	-0.473205	-0.000052
C29	C	0.978919	-0.567231	-0.000053
C30	C	0.985273	-0.205734	-0.000048
C31	C	1.134102	0.107404	-0.000061
C32	C	1.226398	0.109019	-0.000061
C33	C	0.975987	0.265520	-0.000055
C34	C	0.977603	0.357816	-0.000055
N35	N	0.982089	0.113511	-0.228229
C36	C	1.038645	0.056993	-0.453955
C37	C	1.038648	0.056991	-0.546145
C38	C	0.925549	0.170032	-0.546148
C39	C	0.925543	0.170029	-0.453960
C40	C	0.982096	0.113511	-0.407866
C41	C	0.982104	0.113512	-0.592243
C42	C	0.982107	0.113510	-0.692200
C43	C	0.982092	0.113511	-0.307903
N44	N	0.982110	0.113511	0.228120
H45	H	0.542732	0.252316	-0.000053
N46	N	0.864560	0.230987	-0.595871
H47	H	0.896322	0.267810	-0.634113
H48	H	0.828746	0.266734	-0.552630
H49	H	0.980715	-0.465140	0.144792
N50	N	1.099626	-0.003965	-0.404226
H51	H	1.158632	0.005620	-0.420260
H52	H	1.089993	-0.062949	-0.420290
N53	N	0.371343	0.269377	-0.000095
H54	H	0.382085	0.302774	0.054186
H55	H	0.311353	0.256757	-0.000144
N56	N	0.592883	-0.042343	-0.000061
H57	H	0.558553	-0.091043	-0.000059
H58	H	0.629300	-0.045010	0.054230
N59	N	0.864541	0.230984	-0.404241
H60	H	0.828718	0.266791	-0.447429
H61	H	0.896352	0.267747	-0.365983
H62	H	0.983485	-0.307824	0.144796
N63	N	0.412629	-0.045511	-0.000063
H64	H	0.349606	-0.035102	-0.000063
H65	H	0.432126	-0.078322	0.054229
H66	H	0.980705	-0.465154	-0.144896
N67	N	0.983665	-0.296351	-0.166001
H68	H	0.982954	-0.336975	-0.216580
H69	H	1.035805	-0.267124	-0.169476
N70	N	1.099651	-0.003955	-0.595856
H71	H	1.135478	-0.039753	-0.552664
H72	H	1.136390	0.027901	-0.634095
