data_functionalizedCrystal
_audit_creation_method	'MofGen! by Chris Wilmer'
_symmetry_space_group_name_H-M	'P1'
_symmetry_Int_Tables_number	1
_symmetry_cell_setting	triclinic
loop_
_symmetry_equiv_pos_as_xyz
  x,y,z
_cell_length_a	17.699104
_cell_length_b	15.995350
_cell_length_c	16.776229
_cell_angle_alpha	89.991668
_cell_angle_beta	90.004464
_cell_angle_gamma	83.391946
loop_
_atom_site_label
_atom_site_type_symbol
_atom_site_fract_x
_atom_site_fract_y
_atom_site_fract_z
O1	O	1.004242	0.105953	0.066300
O2	O	0.783889	0.119711	0.066298
O3	O	0.900089	-0.009068	0.066299
O4	O	0.888042	0.234731	0.066300
O5	O	0.900078	-0.009045	-0.066278
O6	O	0.783878	0.119733	-0.066279
O7	O	1.004232	0.105975	-0.066276
Zn8	Zn	0.894053	0.112858	-0.087327
Zn9	Zn	0.894067	0.112828	0.087349
O10	O	0.888031	0.234754	-0.066277
C11	C	0.755686	0.119226	0.000009
C12	C	0.671666	0.117738	0.000009
C13	C	0.899586	-0.040250	0.000012
C14	C	0.898093	-0.133198	0.000016
C15	C	0.146907	0.184938	0.000017
C16	C	0.225853	0.186331	0.000020
C17	C	0.274345	0.110733	0.000019
C18	C	0.243887	0.033737	0.000024
C19	C	0.164943	0.032345	0.000028
C20	C	0.562263	0.039349	0.000012
C21	C	0.641212	0.040748	0.000006
C22	C	0.623173	0.193335	0.000004
C23	C	0.544229	0.191943	0.000007
C24	C	0.513778	0.114948	0.000016
C25	C	0.428175	0.113438	0.000015
C26	C	0.359946	0.112242	0.000014
C27	C	0.892730	-0.470935	0.000014
C28	C	0.809975	-0.423339	0.000310
C29	C	0.811468	-0.326652	0.000011
C30	C	0.895390	-0.303379	0.000015
C31	C	0.936202	-0.344524	-0.075691
C32	C	0.934123	-0.441155	-0.075754
C33	C	0.935845	-0.441542	0.075010
C34	C	0.935825	-0.344597	0.076011
C35	C	0.896898	-0.208685	0.000014
C36	C	0.891225	-0.565629	0.000010
C37	C	1.032435	0.106460	0.000014
C38	C	1.116454	0.107948	0.000020
C39	C	0.888535	0.265936	0.000012
C40	C	0.890028	0.358884	0.000013
N41	N	0.894049	0.112878	-0.206538
C42	C	0.848176	0.062086	-0.751711
C43	C	0.848174	0.062093	-0.668258
C44	C	0.894071	0.112821	-0.626537
C45	C	0.939977	0.163540	-0.668273
C46	C	0.939983	0.163527	-0.751723
C47	C	0.939958	0.163589	-0.331726
C48	C	0.939947	0.163599	-0.248269
C49	C	0.848149	0.062154	-0.248261
C50	C	0.848154	0.062142	-0.331711
C51	C	0.894064	0.112857	-0.373439
C52	C	0.894067	0.112847	-0.463928
C53	C	0.894065	0.112836	-0.536051
N54	N	0.894078	0.112802	0.206560
H55	H	0.107430	0.246498	0.000012
Br56	Br	0.785879	-0.006758	-0.808324
H57	H	0.283376	-0.027816	0.000029
Br58	Br	1.002286	0.232353	-0.808358
H59	H	0.680694	-0.020817	0.000007
Br60	Br	0.520946	-0.065144	0.000048
Br61	Br	0.267179	0.290821	0.000024
H62	H	0.140150	-0.030348	0.000032
H63	H	0.810799	0.020792	-0.634286
Br64	Br	1.037540	-0.494677	0.075865
H65	H	0.504750	0.253503	0.000003
Br66	Br	0.757998	-0.279186	0.090463
H67	H	0.908793	-0.462039	0.132391
Br68	Br	1.038966	-0.321185	-0.080383
Br69	Br	0.886510	-0.298561	0.169373
H70	H	0.647975	0.256028	-0.000001
Br71	Br	0.884504	-0.471551	-0.170079
Br72	Br	0.754847	-0.454129	0.090799
Br73	Br	0.754923	-0.456273	-0.089399
H74	H	0.994881	-0.473521	-0.079186
H75	H	0.779163	-0.298715	-0.054351
H76	H	0.907847	-0.316077	-0.132031
H77	H	0.810778	0.020837	-0.365676
H78	H	0.997025	-0.329355	0.080585
Br79	Br	0.785843	-0.006676	-0.191625
Br80	Br	1.002272	0.232380	-0.611652
H81	H	0.977324	0.204911	-0.214302
H82	H	0.977340	0.204885	-0.365691
