data_functionalizedCrystal
_audit_creation_method	'MofGen! by Chris Wilmer'
_symmetry_space_group_name_H-M	'P1'
_symmetry_Int_Tables_number	1
_symmetry_cell_setting	triclinic
loop_
_symmetry_equiv_pos_as_xyz
  x,y,z
_cell_length_a	8.559649
_cell_length_b	8.597340
_cell_length_c	7.088899
_cell_angle_alpha	75.476948
_cell_angle_beta	97.658429
_cell_angle_gamma	102.374922
loop_
_atom_site_label
_atom_site_type_symbol
_atom_site_fract_x
_atom_site_fract_y
_atom_site_fract_z
O1	O	-0.254997	2.068119	-0.181703
O2	O	-0.266106	1.602915	-0.105066
O3	O	-0.029212	1.876502	-0.150139
O4	O	-0.491891	1.794532	-0.136630
O5	O	-0.059278	1.902032	-0.472320
O6	O	-0.296172	1.628445	-0.427247
O7	O	-0.285064	2.093649	-0.503883
Cu8	Cu	-0.293363	1.863378	-0.494983
Cu9	Cu	-0.257806	1.833186	-0.113967
O10	O	-0.521958	1.820062	-0.458810
C11	C	-0.278271	1.556675	-0.256437
C12	C	-0.269705	1.380861	-0.227473
C13	C	-0.566263	1.801085	-0.296696
C14	C	-0.743074	1.782594	-0.293647
C15	C	0.015094	1.895479	-0.312250
C16	C	0.191905	1.913968	-0.315286
C17	C	-0.272899	2.139889	-0.352509
C18	C	-0.281463	2.315702	-0.381459
N19	N	-0.318372	1.884625	-0.762971
N20	N	-0.232786	1.811953	0.154019
H21	H	-0.253082	1.302135	-0.073464
C22	C	-0.436758	1.985072	-0.888027
C23	C	-0.511705	2.048649	-0.768195
C24	C	-0.620789	2.141172	-0.883337
H25	H	-0.381273	2.072405	-0.980496
H26	H	-0.515425	1.917357	-0.954931
H27	H	-0.433050	2.116360	-0.701323
H28	H	-0.567222	1.961351	-0.675728
H29	H	-0.699456	2.073457	-0.950241
H30	H	-0.565291	2.228497	-0.975801
H31	H	-0.671664	2.184308	-0.802046
H32	H	-0.822681	1.655966	-0.272797
C33	C	-0.114748	1.711205	-0.720629
C34	C	-0.158324	1.549787	-0.742601
C35	C	-0.049640	1.456927	-0.627140
H36	H	-0.009750	1.756362	-0.760691
H37	H	-0.116484	1.712531	-0.587321
H38	H	-0.156571	1.548469	-0.875880
H39	H	-0.263303	1.504583	-0.702525
H40	H	-0.051377	1.458252	-0.493832
H41	H	0.055350	1.502098	-0.667213
H42	H	-0.079200	1.347392	-0.642019
H43	H	-0.298073	1.394422	-0.535459
H44	H	-0.728498	2.040591	-0.336157
