data_functionalizedCrystal
_audit_creation_method	'MofGen! by Chris Wilmer'
_symmetry_space_group_name_H-M	'P1'
_symmetry_Int_Tables_number	1
_symmetry_cell_setting	triclinic
loop_
_symmetry_equiv_pos_as_xyz
  x,y,z
_cell_length_a	23.532407
_cell_length_b	23.532361
_cell_length_c	22.610064
_cell_angle_alpha	89.989007
_cell_angle_beta	89.996958
_cell_angle_gamma	97.160828
loop_
_atom_site_label
_atom_site_type_symbol
_atom_site_fract_x
_atom_site_fract_y
_atom_site_fract_z
O1	O	-0.069007	0.755286	-0.049116
O2	O	0.430993	1.255286	0.450884
O3	O	-0.079038	0.589419	-0.049129
O4	O	0.420962	1.089419	0.450871
O5	O	0.008910	0.677354	-0.049129
O6	O	0.508910	1.177354	0.450871
O7	O	-0.156955	0.667350	-0.049115
O8	O	0.343045	1.167350	0.450885
O9	O	0.008910	0.677328	0.049240
O10	O	0.508910	1.177328	0.549240
O11	O	-0.079038	0.589393	0.049240
O12	O	0.420962	1.089393	0.549240
O13	O	-0.069007	0.755260	0.049253
O14	O	0.430993	1.255260	0.549253
Zn15	Zn	-0.074023	0.672322	0.064865
Zn16	Zn	0.425977	1.172322	0.564865
Zn17	Zn	-0.074023	0.672356	-0.064741
Zn18	Zn	0.425977	1.172356	0.435259
O19	O	-0.156955	0.667325	0.049254
O20	O	0.343045	1.167325	0.549254
C21	C	-0.078787	0.568189	0.000054
C22	C	0.421213	1.068189	0.500054
C23	C	-0.078032	0.504971	0.000049
C24	C	0.421968	1.004971	0.500049
C25	C	-0.074728	0.231741	-0.053569
C26	C	0.425272	0.731741	0.446431
C27	C	-0.075443	0.291141	-0.053571
C28	C	0.424557	0.791141	0.446429
O29	O	-0.075793	0.321879	-0.099172
O30	O	0.424207	0.821879	0.400828
N31	N	-0.075804	0.320832	0.000051
N32	N	0.424196	0.820832	0.500051
C33	C	-0.075445	0.291122	0.053677
C34	C	0.424555	0.791122	0.553677
O35	O	-0.075817	0.321832	0.099286
O36	O	0.424183	0.821832	0.599286
C37	C	-0.074726	0.231724	0.053678
C38	C	0.425274	0.731724	0.553678
C39	C	-0.074370	0.202035	0.000053
C40	C	0.425630	0.702035	0.500053
C41	C	-0.074372	0.202052	-0.107190
C42	C	0.425628	0.702052	0.392810
C43	C	-0.073658	0.142656	-0.107188
C44	C	0.426342	0.642656	0.392812
C45	C	-0.073301	0.112949	-0.053566
C46	C	0.426699	0.612949	0.446434
C47	C	-0.073657	0.142639	0.000055
C48	C	0.426343	0.642639	0.500055
C49	C	-0.074362	0.202015	0.107303
C50	C	0.425638	0.702015	0.607303
C51	C	-0.073642	0.142613	0.107299
C52	C	0.426358	0.642613	0.607299
C53	C	-0.073287	0.112924	0.053675
C54	C	0.426713	0.612924	0.553675
C55	C	-0.072585	0.053537	0.053678
C56	C	0.427415	0.553537	0.553678
N57	N	-0.072224	0.023845	0.000057
N58	N	0.427776	0.523845	0.500057
C59	C	-0.072582	0.053551	-0.053565
C60	C	0.427418	0.553551	0.446435
C61	C	-0.076954	0.415862	0.053671
C62	C	0.423046	0.915862	0.553671
C63	C	-0.077677	0.475259	0.053671
C64	C	0.422323	0.975259	0.553671
C65	C	-0.077674	0.475273	-0.053577
C66	C	0.422326	0.975273	0.446423
C67	C	-0.076955	0.415875	-0.053576
C68	C	0.423045	0.915875	0.446424
C69	C	-0.076593	0.386171	0.000050
C70	C	0.423407	0.886171	0.500050
C71	C	-0.071083	-0.071184	-0.053558
C72	C	0.428917	0.428816	0.446442
C73	C	-0.070372	-0.130586	-0.053551
C74	C	0.429628	0.369414	0.446449
C75	C	-0.070371	-0.130595	0.053696
C76	C	0.429629	0.369405	0.553696
C77	C	-0.071086	-0.071199	0.053690
C78	C	0.428914	0.428801	0.553690
C79	C	-0.071440	-0.041495	0.000058
C80	C	0.428560	0.458505	0.500058
O81	O	-0.072232	0.022761	0.099256
O82	O	0.427768	0.522761	0.599256
O83	O	-0.072202	0.022836	-0.099166
O84	O	0.427798	0.522836	0.400834
C85	C	-0.178171	0.667592	0.000071
C86	C	0.321829	1.167592	0.500071
C87	C	-0.241388	0.668358	0.000077
C88	C	0.258612	1.168358	0.500077
C89	C	-0.640499	0.621124	0.000043
C90	C	-0.140499	1.121124	0.500043
C91	C	-0.699899	0.621835	0.000039
C92	C	-0.199899	1.121835	0.500039
O93	O	-0.736651	0.578048	0.000014
O94	O	-0.236651	1.078048	0.500014
N95	N	-0.722517	0.674113	0.000044
N96	N	-0.222517	1.174113	0.500044
C97	C	-0.685730	0.725682	0.000047
C98	C	-0.185730	1.225682	0.500047
O99	O	-0.710423	0.770214	0.000050
O100	O	-0.210423	1.270214	0.500050
C101	C	-0.626331	0.724970	0.000046
C102	C	-0.126331	1.224970	0.500046
C103	C	-0.603718	0.672689	0.000048
C104	C	-0.103718	1.172689	0.500048
C105	C	-0.617885	0.568847	0.000044
C106	C	-0.117885	1.068847	0.500044
C107	C	-0.558489	0.568136	0.000049
C108	C	-0.058489	1.068136	0.500049
C109	C	-0.521707	0.619701	0.000053
C110	C	-0.021707	1.119701	0.500053
C111	C	-0.544322	0.671978	0.000053
C112	C	-0.044322	1.171978	0.500053
C113	C	-0.589546	0.776539	0.000045
C114	C	-0.089546	1.276539	0.500045
C115	C	-0.530144	0.775822	0.000044
C116	C	-0.030144	1.275822	0.500044
C117	C	-0.507530	0.723541	0.000046
C118	C	-0.007530	1.223541	0.500046
C119	C	-0.448144	0.722832	0.000063
C120	C	0.051856	1.222832	0.500063
N121	N	-0.425527	0.670555	0.000058
N122	N	0.074473	1.170555	0.500058
C123	C	-0.462308	0.618989	0.000053
C124	C	0.037692	1.118989	0.500053
C125	C	-0.810473	0.727174	0.000046
C126	C	-0.310473	1.227174	0.500046
C127	C	-0.869870	0.727886	0.000050
C128	C	-0.369870	1.227886	0.500050
C129	C	-0.884035	0.624039	0.000041
C130	C	-0.384035	1.124039	0.500041
C131	C	-0.824636	0.623327	0.000041
C132	C	-0.324636	1.123327	0.500041
C133	C	-0.787855	0.674896	0.000041
C134	C	-0.287855	1.174896	0.500041
C135	C	-0.337572	0.617499	0.000065
C136	C	0.162428	1.117499	0.500065
C137	C	-0.278170	0.616793	0.000072
C138	C	0.221830	1.116793	0.500072
C139	C	-0.264010	0.720640	0.000078
C140	C	0.235990	1.220640	0.500078
C141	C	-0.323407	0.721347	0.000073
C142	C	0.176593	1.221347	0.500073
C143	C	-0.360187	0.669772	0.000065
C144	C	0.139813	1.169772	0.500065
O145	O	-0.411357	0.766596	0.000085
O146	O	0.088643	1.266596	0.500085
O147	O	-0.437608	0.574465	0.000042
O148	O	0.062392	1.074465	0.500042
C149	C	0.030126	0.677086	0.000052
C150	C	0.530126	1.177086	0.500052
C151	C	0.093343	0.676320	0.000042
C152	C	0.593343	1.176320	0.500042
C153	C	-0.069258	0.776489	0.000069
C154	C	0.430742	1.276489	0.500069
C155	C	-0.070014	0.839708	0.000071
C156	C	0.429986	1.339708	0.500071
N157	N	-0.074022	0.672304	0.153318
N158	N	0.425978	1.172304	0.653318
N159	N	-0.074018	0.672380	-0.153193
N160	N	0.425982	1.172380	0.346807
C161	C	-0.108377	0.706702	0.561965
C162	C	0.391623	1.206702	1.061965
C163	C	-0.108376	0.706709	0.623885
C164	C	0.391624	1.206709	1.123885
O165	O	-0.137582	0.735933	0.655909
O166	O	0.362418	1.235933	1.155909
N167	N	-0.074016	0.672367	0.654855
N168	N	0.425984	1.172367	1.154855
C169	C	-0.039651	0.638021	0.623901
C170	C	0.460349	1.138021	1.123901
O171	O	-0.010425	0.608811	0.655929
O172	O	0.489575	1.108811	1.155929
C173	C	-0.039650	0.638017	0.561983
C174	C	0.460350	1.138017	1.061983
C175	C	-0.074016	0.672356	0.531016
C176	C	0.425984	1.172356	1.031016
C177	C	-0.142741	0.741039	0.530998
C178	C	0.357259	1.241039	1.030998
C179	C	-0.142743	0.741031	0.469083
C180	C	0.357257	1.241031	0.969083
C181	C	-0.108382	0.706685	0.438134
C182	C	0.391618	1.206685	0.938134
C183	C	-0.074018	0.672348	0.469100
C184	C	0.425982	1.172348	0.969100
C185	C	-0.005282	0.603674	0.531030
C186	C	0.494718	1.103674	1.031030
C187	C	-0.005284	0.603673	0.469107
C188	C	0.494716	1.103673	0.969107
C189	C	-0.039650	0.638013	0.438141
C190	C	0.460350	1.138013	0.938141
C191	C	-0.039659	0.637995	0.376236
C192	C	0.460341	1.137995	0.876236
N193	N	-0.074019	0.672336	0.345266
N194	N	0.425981	1.172336	0.845266
C195	C	-0.108380	0.706682	0.376215
C196	C	0.391620	1.206682	0.876215
C197	C	-0.039656	0.638032	0.753935
C198	C	0.460344	1.138032	1.253935
C199	C	-0.039659	0.638032	0.815853
C200	C	0.460341	1.138032	1.315853
C201	C	-0.108384	0.706721	0.815832
C202	C	0.391616	1.206721	1.315832
C203	C	-0.108382	0.706717	0.753913
C204	C	0.391618	1.206717	1.253913
C205	C	-0.074015	0.672373	0.722965
C206	C	0.425985	1.172373	1.222965
C207	C	-0.108383	0.706662	0.246188
C208	C	0.391617	1.206662	0.746188
C209	C	-0.108383	0.706649	0.184266
C210	C	0.391617	1.206649	0.684266
C211	C	-0.039657	0.637962	0.184293
C212	C	0.460343	1.137962	0.684293
C213	C	-0.039658	0.637973	0.246208
C214	C	0.460342	1.137973	0.746208
C215	C	-0.074023	0.672327	0.277154
C216	C	0.425977	1.172327	0.777154
O217	O	-0.010466	0.608788	0.344173
O218	O	0.489534	1.108788	0.844173
O219	O	-0.137596	0.735892	0.344179
O220	O	0.362404	1.235892	0.844179
H221	H	-0.070084	-0.154756	-0.097221
H222	H	0.429916	0.345244	0.402779
C223	C	-0.894742	0.785393	0.000059
C224	C	-0.394742	1.285393	0.500059
H225	H	-0.935386	0.778438	0.000061
H226	H	-0.435386	1.278438	0.500061
H227	H	-0.882090	0.806622	-0.034241
H228	H	-0.382090	1.306622	0.465759
H229	H	-0.882099	0.806597	0.034371
H230	H	-0.382099	1.306597	0.534371
H231	H	-0.780528	0.769170	0.000050
H232	H	-0.280528	1.269170	0.500050
H233	H	-0.071386	-0.047026	0.097356
H234	H	0.428614	0.452974	0.597356
H235	H	-0.500199	0.817817	0.000041
H236	H	-0.000199	1.317817	0.500041
H237	H	-0.136365	0.734637	0.271376
H238	H	0.363635	1.234637	0.771376
C239	C	-0.658336	0.512120	0.000043
C240	C	-0.158336	1.012120	0.500043
H241	H	-0.636352	0.480889	0.000048
H242	H	-0.136352	0.980889	0.500048
H243	H	-0.681803	0.510238	-0.034258
H244	H	-0.181803	1.010238	0.465742
H245	H	-0.681801	0.510230	0.034353
H246	H	-0.181801	1.010230	0.534353
H247	H	-0.071372	-0.047006	-0.097230
H248	H	0.428628	0.452994	0.402770
H249	H	0.022703	0.575711	0.556233
H250	H	0.522703	1.075711	1.056233
C251	C	-0.799766	0.565819	0.000034
C252	C	-0.299766	1.065819	0.500034
H253	H	-0.830184	0.535213	0.000027
H254	H	-0.330184	1.035213	0.500027
H255	H	-0.776890	0.563368	0.034335
H256	H	-0.276890	1.063368	0.534335
H257	H	-0.776890	0.563392	-0.034277
H258	H	-0.276890	1.063392	0.465723
C259	C	-0.078075	0.507912	0.112657
C260	C	0.421925	1.007912	0.612657
H261	H	-0.078556	0.547543	0.104982
H262	H	0.421444	1.047543	0.604982
H263	H	-0.044743	0.502705	0.134688
H264	H	0.455257	1.002705	0.634688
H265	H	-0.111179	0.493637	0.134688
H266	H	0.388821	0.993637	0.634688
H267	H	-0.076666	0.391706	-0.097242
H268	H	0.423334	0.891706	0.402758
C269	C	-0.076566	0.383190	0.112663
C270	C	0.423434	0.883190	0.612663
H271	H	-0.076890	0.409384	0.144594
H272	H	0.423110	0.909384	0.644594
H273	H	-0.043072	0.364552	0.114898
H274	H	0.456928	0.864552	0.614898
H275	H	-0.109508	0.355486	0.114895
H276	H	0.390492	0.855486	0.614895
C277	C	-0.078065	0.507959	-0.112561
C278	C	0.421935	1.007959	0.387439
H279	H	-0.078539	0.547586	-0.104877
H280	H	0.421461	1.047586	0.395123
H281	H	-0.111162	0.493696	-0.134594
H282	H	0.388838	0.993696	0.365406
H283	H	-0.044727	0.502766	-0.134595
H284	H	0.455273	1.002766	0.365405
H285	H	-0.234052	0.762623	0.000085
H286	H	0.265948	1.262623	0.500085
H287	H	0.022703	0.575706	0.443913
H288	H	0.522703	1.075706	0.943913
C289	C	-0.146185	0.744425	0.150204
C290	C	0.353815	1.244425	0.650204
H291	H	-0.141271	0.739500	0.108894
H292	H	0.358729	1.239500	0.608894
H293	H	-0.135399	0.783452	0.160339
H294	H	0.364601	1.283452	0.660339
H295	H	-0.185210	0.733617	0.160359
H296	H	0.314790	1.233617	0.660359
H297	H	-0.074662	0.226233	-0.150858
H298	H	0.425338	0.726233	0.349142
H299	H	-0.341820	0.763918	0.000081
H300	H	0.158180	1.263918	0.500081
H301	H	-0.136367	0.734679	0.728704
H302	H	0.363633	1.234679	1.228704
C303	C	-0.074754	0.234661	0.166292
C304	C	0.425246	0.734661	0.666292
H305	H	-0.074432	0.208454	0.198222
H306	H	0.425568	0.708454	0.698222
H307	H	-0.108249	0.253297	0.168529
H308	H	0.391751	0.753297	0.668529
H309	H	-0.041814	0.262366	0.168522
H310	H	0.458186	0.762366	0.668522
H311	H	-0.073352	0.118430	0.150969
H312	H	0.426648	0.618430	0.650969
H313	H	-0.073367	0.118488	-0.150855
H314	H	0.426633	0.618488	0.349145
C315	C	-0.001862	0.600253	0.849909
C316	C	0.498138	1.100253	1.349909
H317	H	0.018602	0.579801	0.822604
H318	H	0.518602	1.079801	1.322604
H319	H	-0.025335	0.573911	0.874074
H320	H	0.474665	1.073911	1.374074
H321	H	0.024477	0.623744	0.874053
H322	H	0.524477	1.123744	1.374053
C323	C	-0.069929	-0.163273	0.112676
C324	C	0.430071	0.336727	0.612676
H325	H	-0.069432	-0.202897	0.104992
H326	H	0.430568	0.297103	0.604992
H327	H	-0.103245	-0.158095	0.134747
H328	H	0.396755	0.341905	0.634747
H329	H	-0.036810	-0.148990	0.134671
H330	H	0.463190	0.351010	0.634671
H331	H	-0.607948	0.819111	0.000044
H332	H	-0.107948	1.319111	0.500044
H333	H	-0.170725	0.768996	0.443875
H334	H	0.329275	1.268996	0.943875
H335	H	-0.136363	0.734686	0.841042
H336	H	0.363637	1.234686	1.341042
H337	H	-0.913994	0.582052	0.000038
H338	H	-0.413994	1.082052	0.500038
C339	C	-0.253298	0.559282	0.000069
C340	C	0.246702	1.059282	0.500069
H341	H	-0.283714	0.528675	0.000058
H342	H	0.216286	1.028675	0.500058
H343	H	-0.230425	0.556832	0.034373
H344	H	0.269575	1.056832	0.534373
H345	H	-0.230417	0.556856	-0.034239
H346	H	0.269583	1.056856	0.465761
C347	C	-0.378021	0.560769	0.000060
C348	C	0.121979	1.060769	0.500060
H349	H	-0.356038	0.529537	0.000066
H350	H	0.143962	1.029537	0.500066
H351	H	-0.401484	0.558889	-0.034244
H352	H	0.098516	1.058889	0.465756
H353	H	-0.401490	0.558878	0.034367
H354	H	0.098510	1.058878	0.534367
C355	C	-0.180545	0.778818	0.565033
C356	C	0.319455	1.278818	1.065033
H357	H	-0.201010	0.799261	0.537714
H358	H	0.298990	1.299261	1.037714
H359	H	-0.157078	0.805168	0.589182
H360	H	0.342922	1.305168	1.089182
H361	H	-0.206883	0.755328	0.589190
H362	H	0.293117	1.255328	1.089190
C363	C	-0.001874	0.600183	0.280273
C364	C	0.498126	1.100183	0.780273
H365	H	0.018587	0.579725	0.252970
H366	H	0.518587	1.079725	0.752970
H367	H	-0.025357	0.573848	0.304435
H368	H	0.474643	1.073848	0.804435
H369	H	0.024469	0.623668	0.304420
H370	H	0.524469	1.123668	0.804420
H371	H	-0.011672	0.610059	0.728741
H372	H	0.488328	1.110059	1.228741
C373	C	-0.533621	0.510627	0.000042
C374	C	-0.033621	1.010627	0.500042
H375	H	-0.564040	0.480022	0.000032
H376	H	-0.064040	0.980022	0.500032
H377	H	-0.510747	0.508173	0.034344
H378	H	-0.010747	1.008173	0.534344
H379	H	-0.510743	0.508199	-0.034268
H380	H	-0.010743	1.008199	0.465732
C381	C	-0.001856	0.600192	0.150241
C382	C	0.498144	1.100192	0.650241
H383	H	-0.006775	0.605116	0.108930
H384	H	0.493225	1.105116	0.608930
H385	H	-0.012631	0.561164	0.160394
H386	H	0.487369	1.061164	0.660394
H387	H	0.037169	0.611010	0.160384
H388	H	0.537169	1.111010	0.660384
