data_functionalizedCrystal
_audit_creation_method	'MofGen! by Chris Wilmer'
_symmetry_space_group_name_H-M	'P1'
_symmetry_Int_Tables_number	1
_symmetry_cell_setting	triclinic
loop_
_symmetry_equiv_pos_as_xyz
  x,y,z
_cell_length_a	9.065215
_cell_length_b	14.519709
_cell_length_c	8.140239
_cell_angle_alpha	89.995533
_cell_angle_beta	89.997810
_cell_angle_gamma	84.347421
loop_
_atom_site_label
_atom_site_type_symbol
_atom_site_fract_x
_atom_site_fract_y
_atom_site_fract_z
O1	O	1.957866	0.135212	-0.136599
O2	O	2.291200	0.468546	0.196735
O3	O	2.624533	0.801879	0.530068
O4	O	1.528373	0.146307	-0.136606
O5	O	1.861706	0.479640	0.196727
O6	O	2.195040	0.812974	0.530060
O7	O	1.754507	0.006605	-0.136588
O8	O	2.087840	0.339938	0.196746
O9	O	2.421174	0.673271	0.530079
O10	O	1.731732	0.274915	-0.136618
O11	O	2.065066	0.608248	0.196716
O12	O	2.398399	0.941582	0.530049
O13	O	1.754495	0.006603	0.136640
O14	O	2.087828	0.339936	0.469973
O15	O	2.421161	0.673270	0.803306
O16	O	1.528361	0.146305	0.136621
O17	O	1.861694	0.479639	0.469954
O18	O	2.195027	0.812972	0.803287
O19	O	1.957854	0.135211	0.136628
O20	O	2.291187	0.468544	0.469962
O21	O	2.624521	0.801877	0.803295
Zn22	Zn	1.743105	0.140758	0.180005
Zn23	Zn	2.076439	0.474091	0.513339
Zn24	Zn	2.409772	0.807424	0.846672
Zn25	Zn	1.743122	0.140760	-0.179983
Zn26	Zn	2.076455	0.474093	0.153350
Zn27	Zn	2.409788	0.807427	0.486683
O28	O	1.731720	0.274913	0.136610
O29	O	2.065053	0.608247	0.469943
O30	O	2.398387	0.941580	0.803276
C31	C	1.473400	0.145241	0.000006
C32	C	1.806734	0.478574	0.333340
C33	C	2.140067	0.811907	0.666673
C34	C	1.309617	0.142054	0.000004
C35	C	1.642950	0.475388	0.333337
C36	C	1.976283	0.808721	0.666670
C37	C	1.753439	-0.027764	0.000026
C38	C	2.086773	0.305570	0.333360
C39	C	2.420106	0.638903	0.666693
C40	C	1.750259	-0.130168	0.000027
C41	C	2.083592	0.203165	0.333360
C42	C	2.416926	0.536498	0.666694
C43	C	1.738550	-0.505150	-0.000016
C44	C	2.071883	-0.171816	0.333318
C45	C	2.405216	0.161517	0.666651
C46	C	1.741801	-0.400818	-0.000003
C47	C	2.075135	-0.067485	0.333330
C48	C	2.408468	0.265849	0.666663
C49	C	1.744404	-0.317662	0.000007
C50	C	2.077737	0.015671	0.333341
C51	C	2.411071	0.349004	0.666674
C52	C	1.747656	-0.213324	0.000017
C53	C	2.080990	0.120009	0.333350
C54	C	2.414323	0.453343	0.666683
C55	C	2.012827	0.136277	0.000012
C56	C	2.346160	0.469611	0.333345
C57	C	2.679494	0.802944	0.666679
C58	C	2.176610	0.139464	0.000004
C59	C	2.509944	0.472797	0.333337
C60	C	2.843277	0.806130	0.666671
C61	C	1.732788	0.309282	-0.000008
C62	C	2.066121	0.642615	0.333325
C63	C	2.399454	0.975948	0.666659
C64	C	1.735968	0.411686	-0.000019
C65	C	2.069301	0.745019	0.333314
C66	C	2.402635	1.078353	0.666647
N67	N	1.743105	0.140756	0.425688
N68	N	2.076438	0.474089	0.759021
N69	N	2.409772	0.807422	1.092355
N70	N	1.743134	0.140755	-0.425666
N71	N	2.076467	0.474088	-0.092332
N72	N	2.409801	0.807422	0.241001
