data_functionalizedCrystal
_audit_creation_method	'MofGen! by Chris Wilmer'
_symmetry_space_group_name_H-M	'P1'
_symmetry_Int_Tables_number	1
_symmetry_cell_setting	triclinic
loop_
_symmetry_equiv_pos_as_xyz
  x,y,z
_cell_length_a	8.597340
_cell_length_b	11.792254
_cell_length_c	7.681481
_cell_angle_alpha	84.218036
_cell_angle_beta	103.474906
_cell_angle_gamma	84.768620
loop_
_atom_site_label
_atom_site_type_symbol
_atom_site_fract_x
_atom_site_fract_y
_atom_site_fract_z
O1	O	2.101213	0.156958	0.172362
O2	O	1.637309	0.175042	0.101975
O3	O	1.880509	0.000779	0.138888
O4	O	1.858012	0.331220	0.135449
O5	O	1.910443	-0.020718	0.436289
O6	O	1.667243	0.153544	0.399376
O7	O	2.131146	0.135460	0.469763
Zn8	Zn	1.903947	0.141089	0.481788
Zn9	Zn	1.864508	0.169413	0.089950
O10	O	1.887946	0.309723	0.432850
C11	C	1.592886	0.163548	0.241665
C12	C	1.415922	0.161316	0.214815
C13	C	1.894059	-0.052254	0.287373
C14	C	1.889818	-0.178248	0.286728
C15	C	1.886371	-0.280569	0.286198
C16	C	1.882060	-0.408935	0.285528
C17	C	2.175569	0.146954	0.330069
C18	C	2.352532	0.149187	0.356907
C19	C	1.874396	0.362756	0.284362
C20	C	1.878636	0.488751	0.284995
N21	N	1.930874	0.121758	0.749210
N22	N	1.837593	0.188735	-0.177470
H23	H	1.433645	0.140501	0.499106
O24	O	1.319056	0.171872	0.045188
C25	C	1.204684	0.269570	0.018424
H26	H	1.252125	0.332217	0.116145
H27	H	1.182441	0.312884	-0.126145
H28	H	1.087003	0.242612	0.043628
O29	O	1.724186	0.270351	0.715427
C30	C	1.799476	0.348089	0.620222
H31	H	1.920948	0.304813	0.611194
H32	H	1.719966	0.375527	0.478454
H33	H	1.818396	0.426788	0.694030
H34	H	2.026113	0.053399	0.838871
