data_functionalizedCrystal
_audit_creation_method	'MofGen! by Chris Wilmer'
_symmetry_space_group_name_H-M	'P1'
_symmetry_Int_Tables_number	1
_symmetry_cell_setting	triclinic
loop_
_symmetry_equiv_pos_as_xyz
  x,y,z
_cell_length_a	10.540514
_cell_length_b	10.540514
_cell_length_c	15.455313
_cell_angle_alpha	92.694936
_cell_angle_beta	87.291564
_cell_angle_gamma	84.515160
loop_
_atom_site_label
_atom_site_type_symbol
_atom_site_fract_x
_atom_site_fract_y
_atom_site_fract_z
O1	O	1.691405	0.173247	-0.072135
O2	O	1.321986	0.190136	-0.072134
O3	O	1.515140	-0.003018	-0.072136
O4	O	1.498250	0.366401	-0.072134
O5	O	1.504094	0.007981	0.072126
O6	O	1.310940	0.201136	0.072128
O7	O	1.680359	0.184246	0.072127
Cu8	Cu	1.494641	0.193695	0.085300
Cu9	Cu	1.507704	0.180687	-0.085307
O10	O	1.487204	0.377400	0.072129
C11	C	1.269159	0.194376	-0.000003
C12	C	1.128210	0.190607	-0.000003
C13	C	1.057492	0.328748	-0.000003
C14	C	0.910905	0.324849	-0.000335
C15	C	0.942175	0.109210	-0.082229
C16	C	1.088719	0.114058	-0.082293
C17	C	1.076560	0.124523	0.081766
C18	C	0.929499	0.123272	0.082842
C19	C	1.508357	-0.044822	-0.000007
C20	C	1.504589	-0.185772	-0.000013
C21	C	1.642730	-0.256490	-0.000012
C22	C	1.638830	-0.403077	0.000322
C23	C	1.423165	-0.371831	0.082214
C24	C	1.428014	-0.225287	0.082278
C25	C	1.438531	-0.237397	-0.081781
C26	C	1.437280	-0.384458	-0.082856
C27	C	1.733185	0.180006	-0.000006
C28	C	1.874135	0.183775	-0.000012
C29	C	1.493987	0.419204	-0.000002
C30	C	1.497756	0.560153	-0.000001
N31	N	1.485462	0.202844	0.205295
N32	N	1.516892	0.171529	-0.205303
C33	C	1.567550	0.120816	0.250689
C34	C	1.560620	0.127746	0.341497
C35	C	1.471608	0.216712	0.386910
C36	C	1.389512	0.298743	0.341510
C37	C	1.396436	0.291806	0.250704
C38	C	1.441720	0.246623	0.658491
C39	C	1.434804	0.253557	0.749304
C40	C	1.605912	0.082557	0.749285
C41	C	1.612834	0.075632	0.658477
C42	C	1.530733	0.157659	0.613085
N43	N	1.464526	0.223801	0.479730
N44	N	1.537810	0.150564	0.520266
H45	H	1.081513	0.389282	0.058946
C46	C	1.290577	-0.160048	0.087021
H47	H	1.292608	-0.070129	0.087089
H48	H	1.247017	-0.181572	0.138694
H49	H	1.247326	-0.188187	0.038198
H50	H	1.317030	0.371177	0.378490
H51	H	1.374872	0.313415	0.621541
H52	H	1.687779	-0.440292	0.059605
H53	H	1.329590	0.358600	0.213745
H54	H	1.672754	0.015773	0.786251
C55	C	1.300973	-0.173616	-0.082865
H56	H	1.283832	-0.115800	-0.033757
H57	H	1.242892	-0.237145	-0.081185
H58	H	1.291344	-0.128523	-0.134317
H59	H	1.627462	0.060952	0.378456
H60	H	1.121662	0.159236	-0.143986
H61	H	0.920086	0.005361	-0.085054
H62	H	0.883842	0.177821	0.143667
C63	C	0.891033	0.166166	-0.165204
H64	H	0.932790	0.120394	-0.214611
H65	H	0.906975	0.253293	-0.166142
H66	H	0.801777	0.159930	-0.166055
H67	H	0.863724	0.383059	0.058587
C68	C	1.336819	0.351355	0.799257
H69	H	1.288887	0.399187	0.759219
H70	H	1.380187	0.407372	0.834692
H71	H	1.280899	0.307809	0.834670
H72	H	1.103277	0.175260	0.144103
C73	C	1.711245	-0.209614	0.079517
H74	H	1.794638	-0.252815	0.079017
H75	H	1.664469	-0.226727	0.131008
H76	H	1.716915	-0.120373	0.077579
C77	C	1.104397	0.397292	-0.079529
H78	H	1.061198	0.480685	-0.079028
H79	H	1.087303	0.350536	-0.131023
H80	H	1.193637	0.402959	-0.077588
C81	C	0.860639	0.391037	-0.080403
H82	H	0.929834	0.420400	-0.112860
H83	H	0.800760	0.461435	-0.062173
H84	H	0.820328	0.332105	-0.115580
C85	C	1.298905	-0.417705	-0.089926
H86	H	1.264811	-0.383091	-0.140542
H87	H	1.248805	-0.382754	-0.040231
H88	H	1.297737	-0.507807	-0.093387
C89	C	1.153959	-0.023376	-0.087031
H90	H	1.243878	-0.021346	-0.087098
H91	H	1.132453	-0.066926	-0.138702
H92	H	1.125803	-0.066637	-0.038206
C93	C	0.896263	-0.015112	0.089901
H94	H	0.847985	-0.037908	0.042192
H95	H	0.847612	-0.021963	0.142505
H96	H	0.972689	-0.070843	0.089346
C97	C	1.507095	-0.201294	-0.165997
H98	H	1.465732	-0.233347	-0.214549
H99	H	1.593422	-0.237209	-0.168324
H100	H	1.504415	-0.111039	-0.167073
H101	H	1.697061	-0.450240	-0.058600
H102	H	1.491849	-0.430097	-0.143681
H103	H	1.685315	0.003190	0.621503
C104	C	1.140332	-0.013039	0.082844
H105	H	1.198159	-0.030166	0.033734
H106	H	1.076797	-0.071112	0.081163
H107	H	1.185411	-0.022695	0.134294
H108	H	1.703276	-0.232470	-0.058970
C109	C	1.489026	-0.180802	0.165612
H110	H	1.510626	-0.252285	0.199107
H111	H	1.430170	-0.121199	0.198413
H112	H	1.563945	-0.141499	0.150725
H113	H	1.319315	-0.393920	0.085040
H114	H	1.640038	0.048376	0.213720
C115	C	1.480098	-0.423003	0.165188
H116	H	1.549301	-0.485787	0.149903
H117	H	1.416393	-0.459992	0.198381
H118	H	1.509754	-0.354792	0.198463
