data_functionalizedCrystal
_audit_creation_method	'MofGen! by Chris Wilmer'
_symmetry_space_group_name_H-M	'P1'
_symmetry_Int_Tables_number	1
_symmetry_cell_setting	triclinic
loop_
_symmetry_equiv_pos_as_xyz
  x,y,z
_cell_length_a	23.532407
_cell_length_b	23.532407
_cell_length_c	22.610064
_cell_angle_alpha	90.002839
_cell_angle_beta	89.995564
_cell_angle_gamma	97.151287
loop_
_atom_site_label
_atom_site_type_symbol
_atom_site_fract_x
_atom_site_fract_y
_atom_site_fract_z
O1	O	0.069127	-0.755264	-0.049122
O2	O	0.402460	-0.421930	0.284212
O3	O	0.735794	-0.088597	0.617545
O4	O	0.079130	-0.589400	-0.049140
O5	O	0.412464	-0.256067	0.284193
O6	O	0.745797	0.077266	0.617526
O7	O	-0.008803	-0.677333	-0.049114
O8	O	0.324530	-0.344000	0.284220
O9	O	0.657864	-0.010667	0.617553
O10	O	0.157060	-0.667330	-0.049148
O11	O	0.490394	-0.333997	0.284185
O12	O	0.823727	-0.000664	0.617519
O13	O	-0.008790	-0.677318	0.049255
O14	O	0.324543	-0.343985	0.382589
O15	O	0.657876	-0.010651	0.715922
O16	O	0.079143	-0.589385	0.049229
O17	O	0.412476	-0.256051	0.382562
O18	O	0.745810	0.077282	0.715895
O19	O	0.069140	-0.755248	0.049248
O20	O	0.402473	-0.421915	0.382581
O21	O	0.735807	-0.088581	0.715914
Zn22	Zn	0.074144	-0.672314	0.064856
Zn23	Zn	0.407477	-0.338981	0.398190
Zn24	Zn	0.740810	-0.005647	0.731523
Zn25	Zn	0.074127	-0.672334	-0.064749
Zn26	Zn	0.407460	-0.339001	0.268584
Zn27	Zn	0.740793	-0.005668	0.601917
O28	O	0.157073	-0.667315	0.049221
O29	O	0.490407	-0.333981	0.382554
O30	O	0.823740	-0.000648	0.715888
C31	C	-0.030013	-0.677071	0.000074
C32	C	0.303321	-0.343738	0.333407
C33	C	0.636654	-0.010404	0.666740
C34	C	-0.093230	-0.676305	0.000083
C35	C	0.240104	-0.342972	0.333416
C36	C	0.573437	-0.009638	0.666749
C37	C	0.078882	-0.568176	0.000042
C38	C	0.412215	-0.234843	0.333375
C39	C	0.745549	0.098490	0.666709
C40	C	0.078116	-0.504959	0.000036
C41	C	0.411449	-0.171626	0.333369
C42	C	0.744783	0.161707	0.666702
C43	C	0.069388	-0.776472	0.000064
C44	C	0.402722	-0.443138	0.333397
C45	C	0.736055	-0.109805	0.666731
C46	C	0.070154	-0.839689	0.000066
C47	C	0.403487	-0.506356	0.333400
C48	C	0.736821	-0.173022	0.666733
C49	C	-0.359397	-0.621110	0.000039
C50	C	-0.026064	-0.287776	0.333373
C51	C	0.307270	0.045557	0.666706
C52	C	-0.299997	-0.621821	0.000044
C53	C	0.033336	-0.288488	0.333377
C54	C	0.366670	0.044846	0.666711
O55	O	-0.263252	-0.578035	0.000020
O56	O	0.070081	-0.244702	0.333354
O57	O	0.403414	0.088632	0.666687
N58	N	-0.277371	-0.674097	0.000057
N59	N	0.055963	-0.340764	0.333390
N60	N	0.389296	-0.007431	0.666724
C61	C	-0.314148	-0.725666	0.000059
C62	C	0.019185	-0.392332	0.333392
C63	C	0.352518	-0.058999	0.666726
O64	O	-0.289449	-0.770196	0.000070
O65	O	0.043885	-0.436863	0.333403
O66	O	0.377218	-0.103529	0.666736
C67	C	-0.373547	-0.724954	0.000050
C68	C	-0.040214	-0.391620	0.333383
C69	C	0.293119	-0.058287	0.666717
C70	C	-0.396170	-0.672674	0.000043
C71	C	-0.062837	-0.339341	0.333377
C72	C	0.270497	-0.006007	0.666710
C73	C	-0.382020	-0.568834	0.000032
C74	C	-0.048687	-0.235501	0.333365
C75	C	0.284646	0.097833	0.666699
C76	C	-0.441417	-0.568123	0.000029
C77	C	-0.108083	-0.234790	0.333362
C78	C	0.225250	0.098544	0.666695
C79	C	-0.478189	-0.619687	0.000032
C80	C	-0.144856	-0.286354	0.333366
C81	C	0.188477	0.046979	0.666699
C82	C	-0.455566	-0.671963	0.000040
C83	C	-0.122233	-0.338629	0.333373
C84	C	0.211101	-0.005296	0.666706
C85	C	-0.410324	-0.776521	0.000048
C86	C	-0.076990	-0.443188	0.333381
C87	C	0.256343	-0.109854	0.666715
C88	C	-0.469726	-0.775805	0.000039
C89	C	-0.136393	-0.442471	0.333372
C90	C	0.196940	-0.109138	0.666705
C91	C	-0.492349	-0.723525	0.000032
C92	C	-0.159016	-0.390192	0.333365
C93	C	0.174318	-0.056858	0.666699
C94	C	-0.551735	-0.722816	0.000040
C95	C	-0.218402	-0.389482	0.333374
C96	C	0.114931	-0.056149	0.666707
N97	N	-0.574361	-0.670539	0.000027
N98	N	-0.241028	-0.337206	0.333361
N99	N	0.092305	-0.003873	0.666694
C100	C	-0.537589	-0.618975	0.000024
C101	C	-0.204255	-0.285642	0.333357
C102	C	0.129078	0.047691	0.666690
C103	C	-0.189406	-0.727157	0.000077
C104	C	0.143928	-0.393824	0.333410
C105	C	0.477261	-0.060490	0.666743
C106	C	-0.130008	-0.727870	0.000090
C107	C	0.203326	-0.394536	0.333423
C108	C	0.536659	-0.061203	0.666756
C109	C	-0.115860	-0.624025	0.000074
C110	C	0.217473	-0.290691	0.333407
C111	C	0.550806	0.042642	0.666740
C112	C	-0.175260	-0.623313	0.000065
C113	C	0.158074	-0.289979	0.333398
C114	C	0.491407	0.043354	0.666731
C115	C	-0.212032	-0.674881	0.000064
C116	C	0.121301	-0.341547	0.333397
C117	C	0.454635	-0.008214	0.666730
C118	C	-0.662325	-0.617486	0.000017
C119	C	-0.328992	-0.284152	0.333350
C120	C	0.004341	0.049181	0.666683
C121	C	-0.721727	-0.616779	0.000016
C122	C	-0.388394	-0.283446	0.333349
C123	C	-0.055061	0.049888	0.666682
C124	C	-0.735869	-0.720623	0.000028
C125	C	-0.402536	-0.387290	0.333362
C126	C	-0.069203	-0.053957	0.666695
C127	C	-0.676473	-0.721330	0.000033
C128	C	-0.343139	-0.387997	0.333366
C129	C	-0.009806	-0.054664	0.666699
C130	C	-0.639701	-0.669757	0.000025
C131	C	-0.306368	-0.336423	0.333358
C132	C	0.026965	-0.003090	0.666691
O133	O	-0.588514	-0.766579	0.000061
O134	O	-0.255181	-0.433245	0.333395
O135	O	0.078152	-0.099912	0.666728
O136	O	-0.562296	-0.574452	0.000005
O137	O	-0.228963	-0.241119	0.333338
O138	O	0.104370	0.092215	0.666672
C139	C	0.178283	-0.667577	0.000032
C140	C	0.511616	-0.334244	0.333366
C141	C	0.844949	-0.000911	0.666699
C142	C	0.241500	-0.668343	0.000019
C143	C	0.574833	-0.335010	0.333353
C144	C	0.908166	-0.001676	0.666686
N145	N	0.074155	-0.672304	0.153309
N146	N	0.407488	-0.338971	0.486642
N147	N	0.740821	-0.005637	0.819976
C148	C	0.125350	-0.105856	0.000053
C149	C	0.458683	0.227477	0.333386
C150	C	0.792016	0.560810	0.666719
C151	C	0.124638	-0.046456	0.000056
C152	C	0.457971	0.286877	0.333390
C153	C	0.791305	0.620211	0.666723
O154	O	0.168424	-0.009711	0.000069
O155	O	0.501757	0.323622	0.333402
O156	O	0.835091	0.656955	0.666735
N157	N	0.072362	-0.023830	0.000066
N158	N	0.405695	0.309503	0.333400
N159	N	0.739028	0.642837	0.666733
C160	C	0.020794	-0.060607	0.000078
C161	C	0.354127	0.272726	0.333412
C162	C	0.687460	0.606059	0.666745
O163	O	-0.023737	-0.035908	0.000088
O164	O	0.309596	0.297426	0.333421
O165	O	0.642930	0.630759	0.666754
C166	C	0.021506	-0.120006	0.000079
C167	C	0.354839	0.213327	0.333412
C168	C	0.688172	0.546660	0.666745
C169	C	0.073785	-0.142629	0.000063
C170	C	0.407119	0.190704	0.333396
C171	C	0.740452	0.524038	0.666730
C172	C	0.177625	-0.128480	0.000037
C173	C	0.510958	0.204854	0.333371
C174	C	0.844292	0.538187	0.666704
C175	C	0.178336	-0.187876	0.000033
C176	C	0.511670	0.145458	0.333366
C177	C	0.845003	0.478791	0.666699
C178	C	0.126772	-0.224649	0.000043
C179	C	0.460105	0.108685	0.333376
C180	C	0.793439	0.442018	0.666710
C181	C	0.074497	-0.202025	0.000058
C182	C	0.407830	0.131308	0.333391
C183	C	0.741163	0.464641	0.666725
C184	C	-0.030062	-0.156783	0.000095
C185	C	0.303271	0.176550	0.333428
C186	C	0.636605	0.509884	0.666762
C187	C	-0.029345	-0.216185	0.000096
C188	C	0.303988	0.117148	0.333429
C189	C	0.637321	0.450481	0.666763
C190	C	0.022934	-0.238808	0.000080
C191	C	0.356268	0.094525	0.333413
C192	C	0.689601	0.427859	0.666747
C193	C	0.023643	-0.298194	0.000063
C194	C	0.356977	0.035139	0.333397
C195	C	0.690310	0.368472	0.666730
N196	N	0.075920	-0.320821	0.000054
N197	N	0.409253	0.012513	0.333387
N198	N	0.742586	0.345846	0.666720
C199	C	0.127484	-0.284048	0.000043
C200	C	0.460817	0.049286	0.333377
C201	C	0.794151	0.382619	0.666710
C202	C	0.019302	0.064135	0.000078
C203	C	0.352635	0.397468	0.333412
C204	C	0.685969	0.730802	0.666745
C205	C	0.018589	0.123533	0.000074
C206	C	0.351923	0.456866	0.333407
C207	C	0.685256	0.790200	0.666740
C208	C	0.122434	0.137680	0.000053
C209	C	0.455768	0.471014	0.333386
C210	C	0.789101	0.804347	0.666720
C211	C	0.123146	0.078281	0.000053
C212	C	0.456480	0.411615	0.333387
C213	C	0.789813	0.744948	0.666720
C214	C	0.071578	0.041509	0.000069
C215	C	0.404912	0.374842	0.333402
C216	C	0.738245	0.708176	0.666735
C217	C	0.128974	-0.408784	0.000033
C218	C	0.462307	-0.075451	0.333366
C219	C	0.795640	0.257882	0.666699
C220	C	0.129680	-0.468186	0.000025
C221	C	0.463014	-0.134853	0.333359
C222	C	0.796347	0.198480	0.666692
C223	C	0.025836	-0.482329	0.000049
C224	C	0.359169	-0.148995	0.333383
C225	C	0.692503	0.184338	0.666716
C226	C	0.025129	-0.422932	0.000053
C227	C	0.358462	-0.089598	0.333387
C228	C	0.691796	0.243735	0.666720
C229	C	0.076702	-0.386160	0.000047
C230	C	0.410036	-0.052827	0.333380
C231	C	0.743369	0.280506	0.666714
O232	O	-0.020119	-0.334974	0.000053
O233	O	0.313214	-0.001640	0.333387
O234	O	0.646547	0.331693	0.666720
O235	O	0.172007	-0.308756	0.000042
O236	O	0.505340	0.024578	0.333375
O237	O	0.838674	0.357911	0.666709
N238	N	0.074111	-0.672349	-0.153202
N239	N	0.407444	-0.339015	0.180132
N240	N	0.740778	-0.005682	0.513465
C241	C	0.035196	-0.711273	0.561962
C242	C	0.368529	-0.377940	0.895295
C243	C	0.701862	-0.044606	1.228629
C244	C	0.035192	-0.711276	0.623882
C245	C	0.368525	-0.377942	0.957215
C246	C	0.701858	-0.044609	1.290549
O247	O	0.002076	-0.744384	0.655911
O248	O	0.335409	-0.411051	0.989244
O249	O	0.668742	-0.077718	1.322577
N250	N	0.074115	-0.672334	0.654846
N251	N	0.407448	-0.339001	0.988179
N252	N	0.740781	-0.005667	1.321513
C253	C	0.113041	-0.633383	0.623887
C254	C	0.446374	-0.300049	0.957220
C255	C	0.779708	0.033284	1.290554
O256	O	0.146147	-0.600260	0.655910
O257	O	0.479481	-0.266926	0.989243
O258	O	0.812814	0.066407	1.322577
C259	C	0.113042	-0.633378	0.561968
C260	C	0.446375	-0.300044	0.895302
C261	C	0.779709	0.033289	1.228635
C262	C	0.074120	-0.672326	0.531007
C263	C	0.407453	-0.338992	0.864341
C264	C	0.740787	-0.005659	1.197674
C265	C	-0.003724	-0.750218	0.531001
C266	C	0.329610	-0.416884	0.864335
C267	C	0.662943	-0.083551	1.197668
C268	C	-0.003719	-0.750215	0.469086
C269	C	0.329615	-0.416882	0.802419
C270	C	0.662948	-0.083549	1.135752
C271	C	0.035206	-0.711268	0.438131
C272	C	0.368539	-0.377935	0.771464
C273	C	0.701872	-0.044601	1.104797
C274	C	0.074125	-0.672323	0.469092
C275	C	0.407458	-0.338990	0.802425
C276	C	0.740792	-0.005657	1.135758
C277	C	0.151965	-0.594424	0.531010
C278	C	0.485298	-0.261091	0.864344
C279	C	0.818631	0.072243	1.197677
C280	C	0.151962	-0.594422	0.469087
C281	C	0.485295	-0.261089	0.802421
C282	C	0.818629	0.072245	1.135754
C283	C	0.113040	-0.633370	0.438126
C284	C	0.446374	-0.300037	0.771460
C285	C	0.779707	0.033296	1.104793
C286	C	0.113054	-0.633374	0.376221
C287	C	0.446387	-0.300041	0.709555
C288	C	0.779721	0.033293	1.042888
N289	N	0.074131	-0.672316	0.345257
N290	N	0.407464	-0.338983	0.678591
N291	N	0.740798	-0.005649	1.011924
C292	C	0.035207	-0.711263	0.376212
C293	C	0.368540	-0.377930	0.709545
C294	C	0.701873	-0.044596	1.042879
C295	C	0.113035	-0.633396	0.753921
C296	C	0.446369	-0.300063	1.087254
C297	C	0.779702	0.033271	1.420587
C298	C	0.113037	-0.633403	0.815838
C299	C	0.446371	-0.300070	1.149172
C300	C	0.779704	0.033263	1.482505
C301	C	0.035187	-0.711296	0.815829
C302	C	0.368521	-0.377963	1.149162
C303	C	0.701854	-0.044629	1.482496
C304	C	0.035188	-0.711291	0.753910
C305	C	0.368521	-0.377957	1.087244
C306	C	0.701855	-0.044624	1.420577
C307	C	0.074112	-0.672338	0.722957
C308	C	0.407445	-0.339004	1.056290
C309	C	0.740779	-0.005671	1.389623
C310	C	0.035220	-0.711255	0.246185
C311	C	0.368554	-0.377922	0.579518
C312	C	0.701887	-0.044589	0.912851
C313	C	0.035230	-0.711251	0.184264
C314	C	0.368564	-0.377918	0.517597
C315	C	0.701897	-0.044584	0.850930
C316	C	0.113078	-0.633357	0.184278
C317	C	0.446412	-0.300024	0.517612
C318	C	0.779745	0.033310	0.850945
C319	C	0.113071	-0.633363	0.246194
C320	C	0.446404	-0.300030	0.579527
C321	C	0.779737	0.033304	0.912861
C322	C	0.074137	-0.672314	0.277146
C323	C	0.407470	-0.338981	0.610479
C324	C	0.740804	-0.005648	0.943812
O325	O	0.146151	-0.600281	0.344153
O326	O	0.479485	-0.266948	0.677487
O327	O	0.812818	0.066386	1.010820
O328	O	0.002101	-0.744376	0.344181
O329	O	0.335434	-0.411042	0.677515
O330	O	0.668767	-0.077709	1.010848
H331	H	-0.740143	-0.574205	0.000013
H332	H	-0.406810	-0.240871	0.333346
H333	H	-0.073476	0.092462	0.666679
N334	N	0.155056	-0.591346	0.150887
N335	N	0.488389	-0.258013	0.484220
N336	N	0.821722	0.075320	0.817553
H337	H	0.195447	-0.597668	0.161655
H338	H	0.528780	-0.264335	0.494988
H339	H	0.862113	0.068999	0.828322
H340	H	0.149097	-0.597276	0.106975
H341	H	0.482431	-0.263943	0.440308
H342	H	0.815764	0.069390	0.773642
H343	H	-0.071339	-0.246123	0.000109
H344	H	0.261994	0.087210	0.333442
H345	H	0.595327	0.420543	0.666775
H346	H	-0.193674	-0.580742	0.000062
H347	H	0.139659	-0.247409	0.333395
H348	H	0.472992	0.085925	0.666728
N349	N	-0.509390	-0.831424	0.000045
N350	N	-0.176057	-0.498091	0.333379
N351	N	0.157277	-0.164757	0.666712
H352	H	-0.534347	-0.833451	-0.036421
H353	H	-0.201013	-0.500118	0.296912
H354	H	0.132320	-0.166784	0.630246
H355	H	-0.486003	-0.864616	0.000075
H356	H	-0.152670	-0.531283	0.333408
H357	H	0.180664	-0.197949	0.666741
N358	N	-0.006804	-0.753293	0.720528
N359	N	0.326529	-0.419960	1.053861
N360	N	0.659863	-0.086626	1.387195
H361	H	-0.031913	-0.731671	0.694848
H362	H	0.301421	-0.398338	1.028181
H363	H	0.634754	-0.065004	1.361514
H364	H	0.014862	-0.778379	0.694863
H365	H	0.348195	-0.445045	1.028196
H366	H	0.681528	-0.111712	1.361530
H367	H	-0.632392	-0.575489	0.000010
H368	H	-0.299059	-0.242156	0.333343
H369	H	0.034274	0.091177	0.666677
H370	H	-0.219343	-0.769152	0.000080
H371	H	0.113990	-0.435819	0.333413
H372	H	0.447323	-0.102486	0.666747
H373	H	0.003492	-0.743008	0.841044
H374	H	0.336825	-0.409675	1.174377
H375	H	0.670159	-0.076341	1.507710
H376	H	0.144737	-0.601694	0.841042
H377	H	0.478070	-0.268361	1.174376
H378	H	0.811404	0.064973	1.507709
H379	H	0.183658	-0.562700	0.443888
H380	H	0.516991	-0.229367	0.777221
H381	H	0.850325	0.103967	1.110554
N382	N	-0.086449	-0.132390	0.000118
N383	N	0.246884	0.200943	0.333451
N384	N	0.580218	0.534276	0.666784
H385	H	-0.109034	-0.145826	-0.036339
H386	H	0.224300	0.187507	0.296994
H387	H	0.557633	0.520841	0.630327
H388	H	-0.108965	-0.145832	0.036616
H389	H	0.224369	0.187502	0.369949
H390	H	0.557702	0.520835	0.703282
H391	H	-0.035423	-0.781933	0.556199
H392	H	0.297910	-0.448600	0.889532
H393	H	0.631244	-0.115266	1.222866
N394	N	-0.031256	-0.398527	0.000059
N395	N	0.302077	-0.065194	0.333393
N396	N	0.635410	0.268140	0.666726
H397	H	-0.063814	-0.430838	0.000062
H398	H	0.269520	-0.097505	0.333395
H399	H	0.602853	0.235829	0.666729
H400	H	-0.033810	-0.374193	0.036530
H401	H	0.299523	-0.040859	0.369863
H402	H	0.632856	0.292474	0.703197
H403	H	0.144736	-0.601677	0.728721
H404	H	0.478070	-0.268344	1.062054
H405	H	0.811403	0.064990	1.395388
N406	N	-0.037797	0.147930	0.000080
N407	N	0.295536	0.481263	0.333413
N408	N	0.628869	0.814597	0.666747
H409	H	-0.070352	0.115616	0.000085
H410	H	0.262981	0.448950	0.333419
H411	H	0.596315	0.782283	0.666752
H412	H	-0.040353	0.172266	0.036549
H413	H	0.292980	0.505600	0.369882
H414	H	0.626314	0.838933	0.703216
N415	N	-0.006749	-0.753263	0.150870
N416	N	0.326584	-0.419929	0.484203
N417	N	0.659917	-0.086596	0.817537
H418	H	-0.031409	-0.777934	0.179879
H419	H	0.301925	-0.444600	0.513213
H420	H	0.635258	-0.111267	0.846546
H421	H	-0.031816	-0.731605	0.125181
H422	H	0.301517	-0.398272	0.458514
H423	H	0.634850	-0.064938	0.791848
H424	H	0.220908	-0.206289	0.000019
H425	H	0.554241	0.127044	0.333353
H426	H	0.887574	0.460378	0.666686
H427	H	-0.765820	-0.762606	0.000034
H428	H	-0.432487	-0.429272	0.333368
H429	H	-0.099154	-0.095939	0.666701
H430	H	0.172255	-0.486602	0.000012
H431	H	0.505588	-0.153269	0.333345
H432	H	0.838921	0.180065	0.666679
N433	N	-0.029777	-0.521998	0.000068
N434	N	0.303557	-0.188665	0.333401
N435	N	0.636890	0.144669	0.666735
H436	H	-0.063006	-0.498657	0.000079
H437	H	0.270328	-0.165324	0.333413
H438	H	0.603661	0.168010	0.666746
H439	H	-0.031750	-0.546955	-0.036397
H440	H	0.301584	-0.213622	0.296936
H441	H	0.634917	0.119712	0.630269
N442	N	0.178042	0.177365	0.000074
N443	N	0.511375	0.510698	0.333408
N444	N	0.844708	0.844031	0.666741
H445	H	0.200855	0.170119	0.036544
H446	H	0.534188	0.503453	0.369878
H447	H	0.867521	0.836786	0.703211
H448	H	0.200840	0.170127	-0.036411
H449	H	0.534173	0.503461	0.296922
H450	H	0.867507	0.836794	0.630256
N451	N	0.179531	0.053880	0.000044
N452	N	0.512864	0.387214	0.333378
N453	N	0.846198	0.720547	0.666711
H454	H	0.182139	0.029548	-0.036421
H455	H	0.515472	0.362881	0.296912
H456	H	0.848805	0.696215	0.630246
H457	H	0.212054	0.086224	0.000059
H458	H	0.545387	0.419557	0.333392
H459	H	0.878721	0.752890	0.666726
H460	H	0.219617	-0.098544	0.000031
H461	H	0.552951	0.234789	0.333365
H462	H	0.886284	0.568122	0.666698
N463	N	-0.006768	-0.753269	0.279563
N464	N	0.326566	-0.419936	0.612896
N465	N	0.659899	-0.086603	0.946230
H466	H	-0.031417	-0.777939	0.250546
H467	H	0.301917	-0.444606	0.583880
H468	H	0.635250	-0.111272	0.917213
H469	H	0.014910	-0.778322	0.305248
H470	H	0.348244	-0.444989	0.638581
H471	H	0.681577	-0.111656	0.971914
H472	H	-0.022693	0.034198	0.000085
H473	H	0.310640	0.367531	0.333419
H474	H	0.643973	0.700864	0.666752
H475	H	-0.459830	-0.525552	0.000018
H476	H	-0.126497	-0.192218	0.333351
H477	H	0.206837	0.141115	0.666685
H478	H	-0.035414	-0.781929	0.443881
H479	H	0.297920	-0.448595	0.777214
H480	H	0.631253	-0.115262	1.110547
H481	H	0.183658	-0.562709	0.556210
H482	H	0.516992	-0.229375	0.889543
H483	H	0.850325	0.103958	1.222877
H484	H	-0.352085	-0.526842	0.000027
H485	H	-0.018752	-0.193509	0.333360
H486	H	0.314582	0.139825	0.666694
H487	H	0.144770	-0.601653	0.271403
H488	H	0.478103	-0.268320	0.604736
H489	H	0.811437	0.065014	0.938069
N490	N	0.184598	-0.369129	0.000040
N491	N	0.517931	-0.035796	0.333373
N492	N	0.851264	0.297537	0.666707
H493	H	0.217818	-0.392482	0.000033
H494	H	0.551151	-0.059149	0.333366
H495	H	0.884484	0.274185	0.666700
H496	H	0.186571	-0.344170	-0.036422
H497	H	0.519904	-0.010837	0.296912
H498	H	0.853238	0.322496	0.630245
N499	N	-0.076187	-0.568410	0.000063
N500	N	0.257146	-0.235077	0.333396
N501	N	0.590480	0.098256	0.666730
H502	H	-0.083423	-0.545594	-0.036408
H503	H	0.249910	-0.212260	0.296926
H504	H	0.583243	0.121073	0.630259
H505	H	-0.083449	-0.545622	0.036547
H506	H	0.249884	-0.212289	0.369881
H507	H	0.583218	0.121045	0.703214
N508	N	-0.105611	-0.784256	0.000110
N509	N	0.227723	-0.450923	0.333443
N510	N	0.561056	-0.117590	0.666776
H511	H	-0.137925	-0.816811	0.000112
H512	H	0.195409	-0.483478	0.333446
H513	H	0.528742	-0.150144	0.666779
H514	H	-0.081270	-0.786824	-0.036354
H515	H	0.252064	-0.453491	0.296979
H516	H	0.585397	-0.120158	0.630312
N517	N	-0.385933	-0.832909	0.000056
N518	N	-0.052600	-0.499576	0.333390
N519	N	0.280733	-0.166242	0.666723
H520	H	-0.418250	-0.865461	0.000054
H521	H	-0.084916	-0.532128	0.333387
H522	H	0.248417	-0.198794	0.666721
H523	H	-0.361592	-0.835474	-0.036408
H524	H	-0.028259	-0.502140	0.296925
H525	H	0.305074	-0.168807	0.630258
H526	H	-0.658053	-0.763901	0.000047
H527	H	-0.324719	-0.430567	0.333380
H528	H	0.008614	-0.097234	0.666713
