data_functionalizedCrystal
_audit_creation_method	'MofGen! by Chris Wilmer'
_symmetry_space_group_name_H-M	'P1'
_symmetry_Int_Tables_number	1
_symmetry_cell_setting	triclinic
loop_
_symmetry_equiv_pos_as_xyz
  x,y,z
_cell_length_a	19.805407
_cell_length_b	19.077068
_cell_length_c	19.077237
_cell_angle_alpha	85.344389
_cell_angle_beta	92.313575
_cell_angle_gamma	92.327086
loop_
_atom_site_label
_atom_site_type_symbol
_atom_site_fract_x
_atom_site_fract_y
_atom_site_fract_z
Zn1	Zn	1.039064	-0.296669	0.409869
Zn2	Zn	1.289064	-0.046669	0.659869
Zn3	Zn	1.539064	0.203331	0.909869
Zn4	Zn	1.789064	0.453331	1.159869
Zn5	Zn	1.030244	-0.409826	0.296714
Zn6	Zn	1.280244	-0.159826	0.546714
Zn7	Zn	1.530244	0.090174	0.796714
Zn8	Zn	1.780244	0.340174	1.046714
Zn9	Zn	0.921518	-0.291957	0.291997
Zn10	Zn	1.171518	-0.041957	0.541997
Zn11	Zn	1.421518	0.208043	0.791997
Zn12	Zn	1.671518	0.458043	1.041997
Zn13	Zn	0.921467	-0.414518	0.414556
Zn14	Zn	1.171467	-0.164518	0.664556
Zn15	Zn	1.421467	0.085482	0.914556
Zn16	Zn	1.671467	0.335482	1.164556
O17	O	0.978073	-0.353242	0.353284
O18	O	1.228073	-0.103242	0.603284
O19	O	1.478073	0.146758	0.853284
O20	O	1.728073	0.396758	1.103284
O21	O	1.132610	-0.311687	0.394872
O22	O	1.382610	-0.061687	0.644872
O23	O	1.632610	0.188313	0.894872
O24	O	1.882610	0.438313	1.144872
O25	O	1.012151	-0.390255	0.197441
O26	O	1.262151	-0.140255	0.447441
O27	O	1.512151	0.109745	0.697441
O28	O	1.762151	0.359745	0.947441
O29	O	0.940823	-0.193933	0.303698
O30	O	1.190823	0.056067	0.553698
O31	O	1.440823	0.306067	0.803698
O32	O	1.690823	0.556067	1.053698
O33	O	1.126130	-0.394823	0.311737
O34	O	1.376130	-0.144823	0.561737
O35	O	1.626130	0.105177	0.811737
O36	O	1.876130	0.355177	1.061737
O37	O	1.027183	-0.197394	0.390298
O38	O	1.277183	0.052606	0.640298
O39	O	1.527183	0.302606	0.890298
O40	O	1.777183	0.552606	1.140298
O41	O	0.932271	-0.303657	0.193975
O42	O	1.182271	-0.053657	0.443975
O43	O	1.432271	0.196343	0.693975
O44	O	1.682271	0.446343	0.943975
O45	O	0.826794	-0.308207	0.308242
O46	O	1.076794	-0.058207	0.558242
O47	O	1.326794	0.191793	0.808242
O48	O	1.576794	0.441793	1.058242
O49	O	0.940736	-0.402821	0.512581
O50	O	1.190736	-0.152821	0.762581
O51	O	1.440736	0.097179	1.012581
O52	O	1.690736	0.347179	1.262581
O53	O	0.826757	-0.398252	0.398285
O54	O	1.076757	-0.148252	0.648285
O55	O	1.326757	0.101748	0.898285
O56	O	1.576757	0.351748	1.148285
O57	O	1.027134	-0.316237	0.509138
O58	O	1.277134	-0.066237	0.759138
O59	O	1.527134	0.183763	1.009138
O60	O	1.777134	0.433763	1.259138
O61	O	1.012102	-0.509098	0.316281
O62	O	1.262102	-0.259098	0.566281
O63	O	1.512102	-0.009098	0.816281
O64	O	1.762102	0.240902	1.066281
O65	O	0.932184	-0.512545	0.402859
O66	O	1.182184	-0.262545	0.652859
O67	O	1.432184	-0.012545	0.902859
O68	O	1.682184	0.237455	1.152859
C69	C	0.802217	-0.353228	0.353261
C70	C	1.052217	-0.103228	0.603261
C71	C	1.302217	0.146772	0.853261
C72	C	1.552217	0.396772	1.103261
C73	C	0.726985	-0.353240	0.353268
C74	C	0.976985	-0.103240	0.603268
C75	C	1.226985	0.146760	0.853268
C76	C	1.476985	0.396760	1.103268
C77	C	0.691633	-0.400191	0.400083
C78	C	0.941633	-0.150191	0.650083
C79	C	1.191633	0.099809	0.900083
C80	C	1.441633	0.349809	1.150083
C81	C	0.620945	-0.400193	0.400093
C82	C	0.870945	-0.150193	0.650093
C83	C	1.120945	0.099807	0.900093
C84	C	1.370945	0.349807	1.150093
C85	C	0.585609	-0.353246	0.353284
C86	C	0.835609	-0.103246	0.603284
C87	C	1.085609	0.146754	0.853284
C88	C	1.335609	0.396754	1.103284
C89	C	0.620966	-0.306289	0.306466
C90	C	0.870966	-0.056289	0.556466
C91	C	1.120966	0.193711	0.806466
C92	C	1.370966	0.443711	1.056466
C93	C	0.691653	-0.306285	0.306460
C94	C	0.941653	-0.056285	0.556460
C95	C	1.191653	0.193715	0.806460
C96	C	1.441653	0.443715	1.056460
C97	C	0.335893	-0.306306	0.306490
C98	C	0.585893	-0.056306	0.556490
C99	C	0.835893	0.193694	0.806490
C100	C	1.085893	0.443694	1.056490
C101	C	0.265200	-0.306315	0.306499
C102	C	0.515200	-0.056315	0.556499
C103	C	0.765200	0.193685	0.806499
C104	C	1.015200	0.443685	1.056499
C105	C	0.265185	-0.400214	0.400123
C106	C	0.515185	-0.150214	0.650123
C107	C	0.765185	0.099786	0.900123
C108	C	1.015185	0.349786	1.150123
C109	C	0.335872	-0.400209	0.400117
C110	C	0.585872	-0.150209	0.650117
C111	C	0.835872	0.099791	0.900117
C112	C	1.085872	0.349791	1.150117
C113	C	0.371222	-0.353250	0.353303
C114	C	0.621222	-0.103250	0.603303
C115	C	0.871222	0.146750	0.853303
C116	C	1.121222	0.396750	1.103303
C117	C	0.447871	-0.353248	0.353293
C118	C	0.697871	-0.103248	0.603293
C119	C	0.947871	0.146752	0.853293
C120	C	1.197871	0.396752	1.103293
C121	C	0.508962	-0.353251	0.353289
C122	C	0.758962	-0.103251	0.603289
C123	C	1.008962	0.146749	0.853289
C124	C	1.258962	0.396749	1.103289
C125	C	0.971199	-0.536401	0.360605
C126	C	1.221199	-0.286401	0.610605
C127	C	1.471199	-0.036401	0.860605
C128	C	1.721199	0.213599	1.110605
C129	C	0.968321	-0.614757	0.363761
C130	C	1.218321	-0.364757	0.613761
C131	C	1.468321	-0.114757	0.863761
C132	C	1.718321	0.135243	1.113761
C133	C	1.008613	-0.649753	0.320205
C134	C	1.258613	-0.399753	0.570205
C135	C	1.508613	-0.149753	0.820205
C136	C	1.758613	0.100247	1.070205
C137	C	1.005910	-0.723377	0.323177
C138	C	1.255910	-0.473377	0.573177
C139	C	1.505910	-0.223377	0.823177
C140	C	1.755910	0.026623	1.073177
C141	C	0.962912	-0.762005	0.369703
C142	C	1.212912	-0.512005	0.619703
C143	C	1.462912	-0.262005	0.869703
C144	C	1.712912	-0.012005	1.119703
C145	C	0.922619	-0.727005	0.413264
C146	C	1.172619	-0.477005	0.663264
C147	C	1.422619	-0.227005	0.913264
C148	C	1.672619	0.022995	1.163264
C149	C	0.925325	-0.653382	0.410295
C150	C	1.175325	-0.403382	0.660295
C151	C	1.425325	-0.153382	0.910295
C152	C	1.675325	0.096618	1.160295
C153	C	0.950355	-0.982391	0.383416
C154	C	1.200355	-0.732391	0.633416
C155	C	1.450355	-0.482391	0.883416
C156	C	1.700355	-0.232391	1.133416
C157	C	0.947650	-1.056019	0.386380
C158	C	1.197650	-0.806019	0.636380
C159	C	1.447650	-0.556019	0.886380
C160	C	1.697650	-0.306019	1.136380
C161	C	1.030943	-1.052386	0.296294
C162	C	1.280943	-0.802386	0.546294
C163	C	1.530943	-0.552386	0.796294
C164	C	1.780943	-0.302386	1.046294
C165	C	1.033643	-0.978762	0.293326
C166	C	1.283643	-0.728762	0.543326
C167	C	1.533643	-0.478762	0.793326
C168	C	1.783643	-0.228762	1.043326
C169	C	0.993352	-0.943768	0.336889
C170	C	1.243352	-0.693768	0.586889
C171	C	1.493352	-0.443768	0.836889
C172	C	1.743352	-0.193768	1.086889
N173	N	0.960147	-0.837262	0.372740
N174	N	1.210147	-0.587262	0.622740
N175	N	1.460147	-0.337262	0.872740
N176	N	1.710147	-0.087262	1.122740
N177	N	0.996121	-0.868513	0.333855
N178	N	1.246121	-0.618513	0.583855
N179	N	1.496121	-0.368513	0.833855
N180	N	1.746121	-0.118513	1.083855
C181	C	1.154616	-0.353257	0.353308
C182	C	1.404616	-0.103257	0.603308
C183	C	1.654616	0.146743	0.853308
C184	C	1.904616	0.396743	1.103308
C185	C	1.229848	-0.353264	0.353318
C186	C	1.479848	-0.103264	0.603318
C187	C	1.729848	0.146736	0.853318
C188	C	1.979848	0.396736	1.103318
C189	C	0.984913	-0.360578	0.537153
C190	C	1.234913	-0.110578	0.787153
C191	C	1.484913	0.139422	1.037153
C192	C	1.734913	0.389422	1.287153
C193	C	0.987828	-0.363704	0.615507
C194	C	1.237828	-0.113704	0.865507
C195	C	1.487828	0.136296	1.115507
C196	C	1.737828	0.386296	1.365507
C197	C	0.984993	-0.169370	0.345949
C198	C	1.234993	0.080630	0.595949
C199	C	1.484993	0.330630	0.845949
C200	C	1.734993	0.580630	1.095949
C201	C	0.987942	-0.091014	0.342824
C202	C	1.237942	0.158986	0.592824
C203	C	1.487942	0.408986	0.842824
C204	C	1.737942	0.658986	1.092824
C205	C	0.971300	-0.345885	0.170128
C206	C	1.221300	-0.095885	0.420128
C207	C	1.471300	0.154115	0.670128
C208	C	1.721300	0.404115	0.920128
C209	C	0.968524	-0.342560	0.091766
C210	C	1.218524	-0.092560	0.341766
C211	C	1.468524	0.157440	0.591766
C212	C	1.718524	0.407440	0.841766
C213	C	1.008738	-0.386176	1.056753
C214	C	1.258738	-0.136176	1.306753
C215	C	1.508738	0.113824	1.556753
C216	C	1.758738	0.363824	1.806753
C217	C	1.005989	-0.383234	0.983131
C218	C	1.255989	-0.133234	1.233131
C219	C	1.505989	0.116766	1.483131
C220	C	1.755989	0.366766	1.733131
C221	C	0.963029	-0.336673	0.944523
C222	C	1.213029	-0.086673	1.194523
C223	C	1.463029	0.163327	1.444523
C224	C	1.713029	0.413327	1.694523
C225	C	0.922811	-0.293056	0.979541
C226	C	1.172811	-0.043056	1.229541
C227	C	1.422811	0.206944	1.479541
C228	C	1.672811	0.456944	1.729541
C229	C	0.925556	-0.296002	1.053162
C230	C	1.175556	-0.046002	1.303162
C231	C	1.425556	0.203998	1.553162
C232	C	1.675556	0.453998	1.803162
C233	C	0.950355	-0.323032	0.724147
C234	C	1.200355	-0.073032	0.974147
C235	C	1.450355	0.176968	1.224147
C236	C	1.700355	0.426968	1.474147
C237	C	0.947614	-0.320088	0.650521
C238	C	1.197614	-0.070088	0.900521
C239	C	1.447614	0.179912	1.150521
C240	C	1.697614	0.429912	1.400521
C241	C	1.030792	-0.410268	0.654115
C242	C	1.280792	-0.160268	0.904115
C243	C	1.530792	0.089732	1.154115
C244	C	1.780792	0.339732	1.404115
C245	C	1.033537	-0.413206	0.727737
C246	C	1.283537	-0.163206	0.977737
C247	C	1.533537	0.086794	1.227737
C248	C	1.783537	0.336794	1.477737
C249	C	0.993316	-0.369592	0.762749
C250	C	1.243316	-0.119592	1.012749
C251	C	1.493316	0.130408	1.262749
C252	C	1.743316	0.380408	1.512749
N253	N	0.960220	-0.333664	0.869269
N254	N	1.210220	-0.083664	1.119269
N255	N	1.460220	0.166336	1.369269
N256	N	1.710220	0.416336	1.619269
N257	N	0.996122	-0.372605	0.838002
N258	N	1.246122	-0.122605	1.088002
N259	N	1.496122	0.127395	1.338002
N260	N	1.746122	0.377395	1.588002
H261	H	0.364666	-0.268074	0.268366
H262	H	0.614666	-0.018074	0.518366
H263	H	0.864666	0.231926	0.768366
H264	H	1.114666	0.481926	1.018366
H265	H	1.068519	-0.451122	0.759167
H266	H	1.318519	-0.201122	1.009167
H267	H	1.568519	0.048878	1.259167
H268	H	1.818519	0.298878	1.509167
F269	F	1.054374	-0.608648	0.270681
F270	F	1.304374	-0.358648	0.520681
F271	F	1.554374	-0.108648	0.770681
F272	F	1.804374	0.141352	1.020681
H273	H	0.720399	-0.438423	0.438199
H274	H	0.970399	-0.188423	0.688199
H275	H	1.220399	0.061577	0.938199
H276	H	1.470399	0.311577	1.188199
H277	H	0.887829	-0.255148	0.948101
H278	H	1.137829	-0.005148	1.198101
H279	H	1.387829	0.244852	1.448101
H280	H	1.637829	0.494852	1.698101
F281	F	0.882443	-0.616137	0.456655
F282	F	1.132443	-0.366137	0.706655
F283	F	1.382443	-0.116137	0.956655
F284	F	1.632443	0.133863	1.206655
H285	H	0.917547	-0.953904	0.418886
H286	H	1.167547	-0.703904	0.668886
H287	H	1.417547	-0.453904	0.918886
H288	H	1.667547	-0.203904	1.168886
F289	F	1.079415	-0.937656	0.243814
F290	F	1.329415	-0.687656	0.493814
F291	F	1.579415	-0.437656	0.743814
F292	F	1.829415	-0.187656	0.993814
F293	F	0.729276	-0.256311	0.256635
F294	F	0.979276	-0.006311	0.506635
F295	F	1.229276	0.243689	0.756635
F296	F	1.479276	0.493689	1.006635
F297	F	0.373475	-0.450179	0.449935
F298	F	0.623475	-0.200179	0.699935
F299	F	0.873475	0.049821	0.949935
F300	F	1.123475	0.299821	1.199935
F301	F	0.227557	-0.450191	0.449949
F302	F	0.477557	-0.200191	0.699949
F303	F	0.727557	0.049809	0.949949
F304	F	0.977557	0.299809	1.199949
F305	F	0.882758	-0.249577	1.090426
F306	F	1.132758	0.000423	1.340426
F307	F	1.382758	0.250423	1.590426
F308	F	1.632758	0.500423	1.840426
H309	H	0.887611	-0.758462	0.451149
H310	H	1.137611	-0.508462	0.701149
H311	H	1.387611	-0.258462	0.951149
H312	H	1.637611	-0.008462	1.201149
F313	F	0.227595	-0.256344	0.256676
F314	F	0.477595	-0.006344	0.506676
F315	F	0.727595	0.243656	0.756676
F316	F	0.977595	0.493656	1.006676
H317	H	0.592190	-0.268061	0.268356
H318	H	0.842190	-0.018061	0.518356
H319	H	1.092190	0.231939	0.768356
H320	H	1.342190	0.481939	1.018356
F321	F	1.054466	-0.435729	1.097835
F322	F	1.304466	-0.185729	1.347835
F323	F	1.554466	0.064271	1.597835
F324	F	1.804466	0.314271	1.847835
F325	F	1.073594	-0.456683	0.616847
F326	F	1.323594	-0.206683	0.866847
F327	F	1.573594	0.043317	1.116847
F328	F	1.823594	0.293317	1.366847
F329	F	1.048792	-0.429655	0.945870
F330	F	1.298792	-0.179655	1.195870
F331	F	1.548792	0.070345	1.445870
F332	F	1.798792	0.320345	1.695870
F333	F	1.048797	-0.760619	0.276820
F334	F	1.298797	-0.510619	0.526820
F335	F	1.548797	-0.260619	0.776820
F336	F	1.798797	-0.010619	1.026820
H337	H	0.592165	-0.438426	0.438214
H338	H	0.842165	-0.188426	0.688214
H339	H	1.092165	0.061574	0.938214
H340	H	1.342165	0.311574	1.188214
H341	H	1.063746	-1.080886	0.260828
H342	H	1.313746	-0.830886	0.510828
H343	H	1.563746	-0.580886	0.760828
H344	H	1.813746	-0.330886	1.010828
H345	H	0.912644	-1.087468	0.424279
H346	H	1.162644	-0.837468	0.674279
H347	H	1.412644	-0.587468	0.924279
H348	H	1.662644	-0.337468	1.174279
H349	H	0.912633	-0.282168	0.619088
H350	H	1.162633	-0.032168	0.869088
H351	H	1.412633	0.217832	1.119088
H352	H	1.662633	0.467832	1.369088
F353	F	0.907523	-0.276638	0.761401
F354	F	1.157523	-0.026638	1.011401
F355	F	1.407523	0.223362	1.261401
F356	F	1.657523	0.473362	1.511401
