data_functionalizedCrystal
_audit_creation_method	'MofGen! by Chris Wilmer'
_symmetry_space_group_name_H-M	'P1'
_symmetry_Int_Tables_number	1
_symmetry_cell_setting	triclinic
loop_
_symmetry_equiv_pos_as_xyz
  x,y,z
_cell_length_a	10.654550
_cell_length_b	10.654550
_cell_length_c	9.130313
_cell_angle_alpha	90.000263
_cell_angle_beta	89.999724
_cell_angle_gamma	95.515070
loop_
_atom_site_label
_atom_site_type_symbol
_atom_site_fract_x
_atom_site_fract_y
_atom_site_fract_z
O1	O	-1.667839	0.176399	0.121675
O2	O	-1.302361	0.193205	0.121700
O3	O	-1.493503	0.002063	0.121693
O4	O	-1.476697	0.367541	0.121682
O5	O	-1.493490	0.002057	-0.121906
O6	O	-1.302348	0.193199	-0.121899
O7	O	-1.667826	0.176393	-0.121924
Cu8	Cu	-1.485086	0.184796	-0.144154
Cu9	Cu	-1.485101	0.184802	0.143930
O10	O	-1.476684	0.367535	-0.121917
C11	C	-1.255556	0.191968	-0.000096
C12	C	-1.116113	0.188276	-0.000085
C13	C	-1.714631	0.177630	-0.000125
C14	C	-1.854074	0.181322	-0.000126
C15	C	-1.477925	0.414336	-0.000119
C16	C	-1.481616	0.553779	-0.000123
C17	C	-1.492263	-0.044738	-0.000102
C18	C	-1.488571	-0.184181	-0.000087
C19	C	-1.036628	0.300818	-0.000093
C20	C	-0.905607	0.297341	-0.000118
C21	C	-0.933570	0.068772	-0.000122
C22	C	-1.064588	0.072250	-0.000107
C23	C	-1.369075	0.633265	-0.000112
C24	C	-1.372551	0.764286	-0.000089
C25	C	-1.601121	0.736323	-0.000094
C26	C	-1.597643	0.605304	-0.000107
N27	N	-1.485084	0.184790	-0.346776
C28	C	-1.569751	0.100188	-0.423431
C29	C	-1.569763	0.100189	-0.576768
C30	C	-1.400437	0.269404	-0.576781
C31	C	-1.400420	0.269396	-0.423447
N32	N	-1.485113	0.184798	0.346553
H33	H	-0.840894	0.388984	-0.000127
O34	O	-1.719036	0.519564	-0.000137
H35	H	-1.774517	0.538002	0.099142
H36	H	-1.638704	0.031297	-0.639177
O37	O	-1.251164	0.850014	-0.000099
H38	H	-1.195685	0.831555	0.099173
H39	H	-1.695586	0.778291	-0.000096
H40	H	-1.638687	0.031295	-0.361010
H41	H	-1.129309	-0.019401	-0.000105
O42	O	-1.309138	0.360670	-0.659474
H43	H	-1.323383	0.346475	-0.778976
H44	H	-1.331468	0.338290	-0.361031
H45	H	-1.274599	0.591318	-0.000130
O46	O	-1.092200	0.425958	-0.000101
H47	H	-1.060332	0.480104	0.099170
O48	O	-0.877999	-0.056369	-0.000136
H49	H	-0.773539	-0.039883	-0.000134
