data_functionalizedCrystal
_audit_creation_method	'MofGen! by Chris Wilmer'
_symmetry_space_group_name_H-M	'P1'
_symmetry_Int_Tables_number	1
_symmetry_cell_setting	triclinic
loop_
_symmetry_equiv_pos_as_xyz
  x,y,z
_cell_length_a	14.519731
_cell_length_b	14.048226
_cell_length_c	14.971486
_cell_angle_alpha	90.007287
_cell_angle_beta	83.651491
_cell_angle_gamma	90.002441
loop_
_atom_site_label
_atom_site_type_symbol
_atom_site_fract_x
_atom_site_fract_y
_atom_site_fract_z
O1	O	-1.223781	-0.079186	-0.117345
O2	O	-0.955298	-0.079182	-0.131133
O3	O	-1.096735	-0.079177	0.005957
O4	O	-1.082343	-0.079191	-0.254434
O5	O	-1.096732	0.079144	0.005968
O6	O	-0.955295	0.079139	-0.131122
O7	O	-1.223778	0.079136	-0.117334
Zn8	Zn	-1.089536	0.104274	-0.124226
Zn9	Zn	-1.089540	-0.104321	-0.124241
O10	O	-1.082340	0.079131	-0.254423
C11	C	-0.920938	-0.000021	-0.130481
C12	C	-0.818559	-0.000020	-0.128545
N13	N	-1.089543	-0.246681	-0.124244
C14	C	-1.096090	-0.000017	0.039287
C15	C	-1.094162	-0.000018	0.138586
C16	C	-0.735415	-0.000022	-0.126972
C17	C	-0.631108	-0.000020	-0.125007
C18	C	-0.547970	-0.000018	-0.123447
C19	C	-0.443655	-0.000019	-0.121481
C20	C	-0.258138	-0.000023	-0.117985
C21	C	-0.360517	-0.000017	-0.119921
C22	C	-1.152288	-0.296497	-0.063661
C23	C	-1.152292	-0.396155	-0.063658
C24	C	-1.089546	-0.445995	-0.124235
C25	C	-1.026797	-0.396172	-0.184825
C26	C	-1.026799	-0.296516	-0.184831
C27	C	-1.026797	-0.603886	-0.184806
C28	C	-1.026795	-0.703549	-0.184799
C29	C	-1.152291	-0.703525	-0.063632
C30	C	-1.152292	-0.603869	-0.063639
C31	C	-1.089543	-0.554053	-0.124228
N32	N	-1.089540	0.246635	-0.124215
C33	C	-1.082985	-0.000032	-0.287754
C34	C	-1.084914	-0.000037	-0.387052
C35	C	-1.177252	-0.000018	0.195758
C36	C	-1.175434	-0.000028	0.289059
C37	C	-1.090525	-0.000030	0.325185
C38	C	-1.007428	-0.000032	0.268005
C39	C	-1.009247	-0.000030	0.174706
C40	C	-1.003643	-0.000036	0.462470
C41	C	-1.001824	-0.000037	0.555775
C42	C	-1.169830	-0.000034	0.576822
C43	C	-1.171649	-0.000031	0.483524
C44	C	-1.088552	-0.000032	0.426350
H45	H	-1.203380	-0.255924	-0.014328
H46	H	-1.246395	-0.000010	0.166352
F47	F	-0.920810	-0.000032	0.113859
F48	F	-0.917061	-0.000046	0.306456
F49	F	-1.262019	-0.000031	0.445077
F50	F	-1.258270	-0.000037	0.637671
F51	F	-0.960012	-0.756586	-0.249275
H52	H	-1.203385	-0.436715	-0.014327
F53	F	-0.911454	-0.000038	0.594222
F54	F	-1.219068	-0.550825	0.000838
H55	H	-1.243095	-0.000026	0.335605
F56	F	-1.219072	-0.756547	0.000851
F57	F	-0.960014	-0.550873	-0.249296
H58	H	-0.975711	-0.436758	-0.234153
H59	H	-0.935976	-0.000039	0.415921
F60	F	-0.960019	-0.243500	-0.249316
