data_functionalizedCrystal
_audit_creation_method	'MofGen! by Chris Wilmer'
_symmetry_space_group_name_H-M	'P1'
_symmetry_Int_Tables_number	1
_symmetry_cell_setting	triclinic
loop_
_symmetry_equiv_pos_as_xyz
  x,y,z
_cell_length_a	16.109302
_cell_length_b	19.188924
_cell_length_c	14.586319
_cell_angle_alpha	89.994146
_cell_angle_beta	89.994552
_cell_angle_gamma	83.301872
loop_
_atom_site_label
_atom_site_type_symbol
_atom_site_fract_x
_atom_site_fract_y
_atom_site_fract_z
O1	O	1.102830	0.089747	-0.076286
O2	O	0.860731	0.100915	-0.076279
O3	O	0.988770	-0.006309	-0.076272
O4	O	0.974791	0.196970	-0.076293
O5	O	0.988761	-0.006311	0.076209
O6	O	0.860722	0.100913	0.076202
O7	O	1.102822	0.089745	0.076195
Cu8	Cu	0.981771	0.095329	0.090121
Cu9	Cu	0.981782	0.095331	-0.090205
O10	O	0.974782	0.196969	0.076188
C11	C	0.829753	0.100461	-0.000038
C12	C	0.737463	0.099105	-0.000035
C13	C	0.525127	0.095967	0.083074
C14	C	0.438412	0.094685	0.083071
C15	C	0.438432	0.094690	-0.083172
C16	C	0.525147	0.095968	-0.083168
C17	C	0.568492	0.096609	-0.000042
C18	C	0.395061	0.094050	-0.000050
C19	C	0.301040	0.092660	-0.000053
C20	C	0.662519	0.097998	-0.000038
C21	C	0.988314	-0.032322	-0.000031
C22	C	0.986958	-0.109830	-0.000028
C23	C	0.986330	-0.146229	-0.083145
C24	C	0.985044	-0.219055	-0.083152
C25	C	0.984403	-0.255480	-0.000037
C26	C	0.985026	-0.219072	0.083091
C27	C	0.986304	-0.146246	0.083096
N28	N	1.029706	-0.375038	0.061822
N29	N	1.028494	-0.444219	0.061812
C30	C	0.980552	-0.474898	-0.000046
N31	N	0.933878	-0.433784	-0.061908
N32	N	0.935094	-0.364597	-0.061900
C33	C	0.983017	-0.334447	-0.000033
C34	C	0.978528	-0.590264	-0.083177
C35	C	0.977237	-0.663090	-0.083180
C36	C	0.977228	-0.663106	0.083066
C37	C	0.978511	-0.590280	0.083067
C38	C	0.979165	-0.553864	-0.000057
C39	C	1.133799	0.090198	-0.000048
C40	C	1.226090	0.091555	-0.000057
C41	C	0.975239	0.222982	-0.000055
C42	C	0.976595	0.300490	-0.000064
N43	N	0.981770	0.095327	0.216953
N44	N	0.981789	0.095327	-0.217037
C45	C	1.038484	0.047864	0.451963
C46	C	1.038487	0.047863	0.547944
C47	C	0.925069	0.142792	0.547947
C48	C	0.925063	0.142790	0.451967
C49	C	0.981776	0.095327	0.403978
C50	C	0.981784	0.095327	0.595938
C51	C	0.981786	0.095326	0.700006
C52	C	0.981773	0.095327	0.299904
H53	H	0.984527	-0.248697	-0.150839
O54	O	0.979115	-0.554987	-0.164000
C55	C	0.979035	-0.562660	-0.328891
C56	C	0.978350	-0.602693	-0.237425
H57	H	0.978434	-0.601215	-0.388279
H58	H	0.921451	-0.522176	-0.333105
H59	H	1.037793	-0.534951	-0.332998
H60	H	0.919630	-0.630444	-0.233257
H61	H	1.035973	-0.643138	-0.233250
H62	H	1.084661	0.009216	0.412892
O63	O	1.093541	0.001664	0.594455
C64	C	1.142678	-0.119730	0.623870
C65	C	1.080294	-0.067483	0.571124
H66	H	1.131978	-0.175646	0.605042
H67	H	1.209249	-0.110671	0.604969
H68	H	1.132953	-0.111544	0.700708
H69	H	1.089943	-0.075638	0.494274
H70	H	1.013746	-0.076554	0.590102
H71	H	0.878896	0.181436	0.587030
H72	H	0.976699	-0.692762	0.150740
H73	H	0.560416	0.096490	0.150760
H74	H	0.878880	0.181440	0.412895
H75	H	0.403108	0.094162	0.150752
H76	H	0.560455	0.096489	-0.150856
H77	H	0.986860	-0.116583	-0.150832
O78	O	0.396456	0.094049	-0.163998
C79	C	0.405620	0.094247	-0.328888
C80	C	0.453261	0.094952	-0.237417
H81	H	0.451524	0.094991	-0.388271
H82	H	0.372831	0.044808	-0.333114
H83	H	0.357217	0.142474	-0.332991
H84	H	0.501704	0.046759	-0.233253
H85	H	0.485993	0.144422	-0.233230
O86	O	0.984257	-0.254403	0.163854
C87	C	0.911869	-0.268743	0.305963
C88	C	0.912633	-0.228689	0.214520
H89	H	0.853976	-0.247958	0.346961
H90	H	0.910797	-0.327049	0.291740
H91	H	0.970314	-0.260841	0.346915
H92	H	0.854199	-0.236533	0.173522
H93	H	0.913748	-0.170397	0.228808
O94	O	0.986772	-0.110837	0.163816
C95	C	0.916228	-0.020662	0.260272
C96	C	0.915583	-0.060721	0.168834
H97	H	0.858687	0.019876	0.264350
H98	H	0.915492	-0.059163	0.319716
H99	H	0.975025	0.006992	0.264415
H100	H	0.856795	-0.088376	0.164601
H101	H	0.916362	-0.022187	0.109433
H102	H	0.979029	-0.560644	0.150750
O103	O	0.976480	-0.698463	-0.163904
C104	C	0.903066	-0.772774	-0.260383
C105	C	0.903807	-0.732734	-0.168939
H106	H	0.844325	-0.800505	-0.264475
H107	H	0.903702	-0.734256	-0.319821
H108	H	0.960666	-0.813246	-0.264524
H109	H	0.846218	-0.692262	-0.164708
H110	H	0.903214	-0.771295	-0.109544
