data_functionalizedCrystal
_audit_creation_method	'MofGen! by Chris Wilmer'
_symmetry_space_group_name_H-M	'P1'
_symmetry_Int_Tables_number	1
_symmetry_cell_setting	triclinic
loop_
_symmetry_equiv_pos_as_xyz
  x,y,z
_cell_length_a	31.640172
_cell_length_b	14.446369
_cell_length_c	14.446369
_cell_angle_alpha	59.999168
_cell_angle_beta	89.989330
_cell_angle_gamma	59.987431
loop_
_atom_site_label
_atom_site_type_symbol
_atom_site_fract_x
_atom_site_fract_y
_atom_site_fract_z
Zr1	Zr	0.407162	1.013128	-0.121567
O2	O	0.339667	1.206274	-0.269358
O3	O	0.427856	0.820000	-0.076263
O4	O	0.427850	1.013130	-0.269381
O5	O	0.339674	1.013136	0.076098
O6	O	0.497408	1.013110	-0.269398
O7	O	0.339673	1.013145	-0.076239
O8	O	0.497417	0.667637	0.076056
O9	O	0.339664	1.358609	-0.269356
O10	O	0.488588	0.899414	-0.056952
O11	O	0.436679	0.899423	0.056748
O12	O	0.436673	1.126808	-0.170624
O13	O	0.384764	1.126817	-0.056924
Zr14	Zr	0.518100	1.013082	0.121366
Zr15	Zr	0.518098	1.013095	-0.121594
Zr16	Zr	0.407164	1.013114	0.121393
Zr17	Zr	0.407157	1.256085	-0.121564
Zr18	Zr	0.518105	0.770125	0.121363
O19	O	0.497407	1.206209	0.076062
O20	O	0.497404	1.206228	-0.269396
O21	O	0.339670	1.206255	0.076100
O22	O	0.585595	0.819936	0.269157
O23	O	0.585592	0.819955	-0.076301
O24	O	0.427859	0.819981	0.269195
O25	O	0.585588	1.013073	-0.076299
O26	O	0.497412	1.013080	0.269181
O27	O	0.427855	1.013100	0.269198
O28	O	0.585590	1.013065	0.076038
O29	O	0.427844	1.358584	-0.269377
O30	O	0.497419	0.667626	0.269177
O31	O	0.585598	0.667600	0.269155
O32	O	0.585596	0.667611	0.076034
O33	O	0.339666	1.358599	-0.076235
O34	O	0.427845	1.358573	-0.076256
O35	O	0.488590	0.899402	0.170423
O36	O	0.540499	0.899393	0.056723
O37	O	0.488583	1.126787	-0.056949
O38	O	0.436675	1.126795	0.056751
C39	C	0.462637	0.709202	-0.000104
C40	C	0.462639	0.606061	-0.000105
C41	C	0.495211	0.459739	-0.072166
C42	C	0.495396	0.566664	-0.071859
C43	C	0.486523	0.479189	0.123420
C44	C	0.486760	0.371811	0.123030
C45	C	0.406138	0.546818	-0.050556
C46	C	0.406228	0.655292	-0.053060
C47	C	0.323867	1.013145	-0.000067
C48	C	0.276772	1.013159	-0.000055
C49	C	-0.059500	1.013074	0.083843
C50	C	0.117481	1.013112	0.083861
O51	O	0.140374	1.013060	0.155263
N52	N	0.139615	1.013121	-0.000063
C53	C	0.117502	1.013113	-0.083993
O54	O	0.140392	1.013109	-0.155369
C55	C	-0.059477	1.013066	-0.084005
C56	C	-0.081611	1.013070	-0.000082
C57	C	-0.081634	1.013076	0.167760
C58	C	-0.125879	1.013074	0.167751
C59	C	-0.147989	1.013070	0.083826
C60	C	-0.125855	1.013068	-0.000091
C61	C	-0.081587	1.013048	-0.167929
C62	C	-0.125833	1.013033	-0.167923
C63	C	-0.147967	1.013037	-0.084000
C64	C	-0.192210	1.013061	-0.084025
N65	N	-0.214344	1.013051	-0.000101
C66	C	-0.192233	1.013056	0.083824
C67	C	0.210418	1.013140	-0.083982
C68	C	0.254662	1.013154	-0.083981
C69	C	0.254639	1.013151	0.083875
C70	C	0.210392	1.013146	0.083868
C71	C	0.188284	1.013131	-0.000058
C72	C	-0.285150	1.013052	0.083799
C73	C	-0.329399	1.013055	0.083780
C74	C	-0.329371	1.013052	-0.084071
C75	C	-0.285127	1.013056	-0.084057
C76	C	-0.263016	1.013051	-0.000112
O77	O	-0.215127	1.013097	-0.155382
O78	O	-0.215124	1.013031	0.155204
C79	C	-0.015256	1.013077	0.083852
C80	C	0.006878	1.013074	-0.000065
C81	C	-0.015233	1.013070	-0.083990
C82	C	0.051122	1.013088	-0.000063
C83	C	0.073232	1.013093	0.083863
C84	C	0.051099	1.013083	0.167787
C85	C	0.006855	1.013081	0.167778
C86	C	0.006901	1.013079	-0.167914
C87	C	0.051145	1.013083	-0.167899
C88	C	0.073255	1.013088	-0.083974
C89	C	0.601395	1.013065	-0.000134
C90	C	0.648490	1.013051	-0.000145
C91	C	0.462629	1.013122	-0.304006
C92	C	0.462628	1.013127	-0.407149
C93	C	0.462625	1.317007	-0.000097
C94	C	0.462623	1.420149	-0.000096
C95	C	0.429727	1.156529	-0.625509
C96	C	0.429866	1.156626	-0.518277
C97	C	0.519035	0.941879	-0.410487
C98	C	0.518858	0.942790	-0.518256
C99	C	0.439589	0.939859	-0.516873
C100	C	0.438444	0.942562	-0.410904
C101	C	0.462634	1.013088	0.303806
C102	C	0.462635	1.013082	0.406949
C103	C	0.601401	0.709162	-0.000138
C104	C	0.648498	0.606007	-0.000150
C105	C	0.462640	0.709186	0.303802
C106	C	0.462643	0.606038	0.406944
C107	C	0.601403	0.709145	0.303769
C108	C	0.648501	0.605984	0.406899
C109	C	0.323859	1.317064	-0.303969
C110	C	0.276761	1.420225	-0.407100
C111	C	0.323861	1.317048	-0.000063
C112	C	0.276764	1.420203	-0.000051
C113	C	0.462623	1.317024	-0.304003
C114	C	0.462620	1.420171	-0.407145
C115	C	0.643519	0.557575	-0.059503
C116	C	0.687767	0.460663	-0.059538
C117	C	0.736995	0.412178	-0.000212
C118	C	0.741973	0.460619	0.059143
C119	C	0.697725	0.557536	0.059170
C120	C	0.697720	0.557534	0.395980
C121	C	0.741978	0.460617	0.492872
C122	C	0.737016	0.412145	0.600683
C123	C	0.687793	0.460605	0.611600
C124	C	0.643536	0.557527	0.514708
C125	C	0.227543	1.468687	-0.396180
C126	C	0.183285	1.565635	-0.493073
C127	C	0.188246	1.614112	-0.600884
C128	C	0.237470	1.565646	-0.611801
C129	C	0.281726	1.468707	-0.514909
C130	C	0.281744	1.468645	0.059293
C131	C	0.237495	1.565584	0.059300
C132	C	0.188268	1.614072	-0.000029
C133	C	0.183289	1.565626	-0.059380
C134	C	0.227537	1.468696	-0.059393
C135	C	0.429748	0.459725	0.481937
C136	C	0.429884	0.566658	0.374603
C137	C	0.519051	0.479161	0.481486
C138	C	0.518877	0.371775	0.588350
C139	C	0.439604	0.546770	0.589957
C140	C	0.438457	0.655252	0.481281
H141	H	0.379905	0.687423	-0.006021
Cl142	Cl	0.454172	1.243021	-0.710405
Cl143	Cl	0.374285	1.022759	-0.411681
Cl144	Cl	0.803864	0.399647	0.133725
Cl145	Cl	0.792617	0.290335	-0.000255
Cl146	Cl	0.374289	0.794962	0.401924
H147	H	0.445851	1.212865	-0.520733
Cl148	Cl	0.703994	0.618401	0.133803
H149	H	0.544727	0.341806	0.666927
H150	H	0.143202	1.605121	-0.107684
Cl151	Cl	0.343625	1.407715	0.133881
Cl152	Cl	-0.020890	1.013076	-0.273431
H153	H	0.603439	0.597050	-0.107828
H154	H	0.782053	0.421171	0.483963
Cl155	Cl	0.182572	1.013146	0.189377
H156	H	0.388107	0.496977	0.479612
Cl157	Cl	-0.257362	1.013050	0.189330
H158	H	0.143209	1.605079	-0.484162
Cl159	Cl	0.243698	1.626597	-0.747343
Cl160	Cl	0.703971	0.618459	0.260458
Cl161	Cl	0.132603	1.735977	-0.722681
Cl162	Cl	0.221292	1.407764	-0.260659
Cl163	Cl	0.343599	1.407786	-0.528656
Cl164	Cl	0.243766	1.626461	0.133924
H165	H	0.537307	0.993408	-0.568606
Cl166	Cl	0.132646	1.735927	0.000003
H167	H	0.479380	0.656020	-0.162820
Cl168	Cl	0.221268	1.407800	-0.133995
Cl169	Cl	0.792659	0.290296	0.722480
Cl170	Cl	-0.357224	1.013063	0.189289
H171	H	0.388329	1.212539	-0.519889
H172	H	0.683760	0.421124	0.699392
Cl173	Cl	0.581663	0.618416	0.528455
H174	H	0.388347	0.656023	0.320344
Cl175	Cl	0.454200	0.321284	0.480327
Cl176	Cl	0.454566	0.508819	0.291542
Cl177	Cl	0.547363	0.231649	0.587919
H178	H	0.544630	0.501399	0.508713
H179	H	0.537631	0.440601	0.429872
Cl180	Cl	0.376446	0.607884	0.596331
H181	H	0.459921	0.837871	-0.331753
Cl182	Cl	0.471608	0.704852	0.520675
Cl183	Cl	0.282477	1.013176	-0.189501
Cl184	Cl	0.368474	0.508553	0.030102
H185	H	0.479272	0.496992	-0.163361
Cl186	Cl	0.559729	0.508802	-0.017818
Cl187	Cl	0.559156	0.321284	-0.018636
Cl188	Cl	0.550934	0.231667	0.185401
Cl189	Cl	0.476426	0.508476	0.710720
H190	H	0.464558	0.341858	0.179645
H191	H	0.463931	0.501439	0.179447
H192	H	0.544708	0.837544	-0.491610
Cl193	Cl	0.375336	0.607935	-0.188870
Cl194	Cl	0.550090	0.419628	0.186233
Cl195	Cl	0.681497	0.399780	-0.134156
H196	H	0.388386	0.745793	-0.144064
H197	H	0.544616	0.836369	-0.332227
H198	H	-0.143897	1.013072	0.236091
H199	H	-0.063635	1.013076	0.236108
Cl200	Cl	0.282444	1.013153	0.189381
H201	H	0.192421	1.013129	-0.152328
H202	H	-0.143830	1.013017	-0.236265
Cl203	Cl	-0.053769	1.013039	-0.273435
H204	H	0.463444	0.834186	-0.489432
Cl205	Cl	0.365431	1.243470	-0.708799
H206	H	-0.347381	1.013054	-0.152406
Cl207	Cl	-0.257307	1.013072	-0.189573
H208	H	0.069107	1.013094	0.236119
Cl209	Cl	-0.020965	1.013083	0.273288
H210	H	0.069161	1.013091	-0.236249
H211	H	0.398682	0.985768	-0.566886
Cl212	Cl	0.547721	1.018255	-0.407200
