data_functionalizedCrystal
_audit_creation_method	'MofGen! by Chris Wilmer'
_symmetry_space_group_name_H-M	'P1'
_symmetry_Int_Tables_number	1
_symmetry_cell_setting	triclinic
loop_
_symmetry_equiv_pos_as_xyz
  x,y,z
_cell_length_a	11.169417
_cell_length_b	19.121063
_cell_length_c	11.169409
_cell_angle_alpha	87.599247
_cell_angle_beta	90.019824
_cell_angle_gamma	92.469728
loop_
_atom_site_label
_atom_site_type_symbol
_atom_site_fract_x
_atom_site_fract_y
_atom_site_fract_z
Zn1	Zn	1.814442	-0.279539	0.698851
Zn2	Zn	2.147775	0.053794	1.032184
Zn3	Zn	2.481108	0.387128	1.365518
Zn4	Zn	1.805707	-0.397012	0.506702
Zn5	Zn	2.139041	-0.063679	0.840036
Zn6	Zn	2.472374	0.269654	1.173369
Zn7	Zn	1.613724	-0.279582	0.498188
Zn8	Zn	1.947058	0.053751	0.831522
Zn9	Zn	2.280391	0.387085	1.164855
Zn10	Zn	1.605116	-0.396955	0.707343
Zn11	Zn	1.938449	-0.063622	1.040676
Zn12	Zn	2.271782	0.269712	1.374010
O13	O	1.709747	-0.338272	0.602771
O14	O	2.043081	-0.004939	0.936104
O15	O	2.376414	0.328395	1.269438
O16	O	1.981232	-0.295128	0.673371
O17	O	2.314566	0.038205	1.006704
O18	O	2.647899	0.371539	1.340038
O19	O	1.780188	-0.381477	0.337626
O20	O	2.113521	-0.048143	0.670959
O21	O	2.446855	0.285190	1.004293
O22	O	1.647608	-0.181292	0.517690
O23	O	1.980941	0.152041	0.851023
O24	O	2.314275	0.485375	1.184357
O25	O	1.974815	-0.381435	0.532200
O26	O	2.308149	-0.048102	0.865534
O27	O	2.641482	0.285232	1.198867
O28	O	1.795074	-0.181261	0.665116
O29	O	2.128407	0.152073	0.998449
O30	O	2.461741	0.485406	1.331782
O31	O	1.639139	-0.295201	0.331371
O32	O	1.972472	0.038132	0.664704
O33	O	2.305805	0.371466	0.998038
O34	O	1.444633	-0.295146	0.525924
O35	O	1.777966	0.038188	0.859257
O36	O	2.111300	0.371521	1.192591
O37	O	1.632936	-0.381338	0.874163
O38	O	1.966269	-0.048004	1.207497
O39	O	2.299602	0.285329	1.540830
O40	O	1.438308	-0.381379	0.679589
O41	O	1.771642	-0.048046	1.012922
O42	O	2.104975	0.285287	1.346256
O43	O	1.786727	-0.295073	0.867924
O44	O	2.120060	0.038261	1.201258
O45	O	2.453393	0.371594	1.534591
O46	O	1.771840	-0.495289	0.540435
O47	O	2.105174	-0.161955	0.873768
O48	O	2.438507	0.171378	1.207101
O49	O	1.624466	-0.495247	0.687844
O50	O	1.957800	-0.161913	1.021178
O51	O	2.291133	0.171420	1.354511
C52	C	1.397923	-0.338261	0.602755
C53	C	1.731257	-0.004928	0.936088
C54	C	2.064590	0.328405	1.269422
C55	C	1.264522	-0.338274	0.602778
C56	C	1.597856	-0.004940	0.936111
C57	C	1.931189	0.328393	1.269444
C58	C	1.696304	-0.520752	0.616011
C59	C	2.029637	-0.187418	0.949344
C60	C	2.362971	0.145915	1.282678
C61	C	1.690663	-0.598817	0.621715
C62	C	2.023996	-0.265484	0.955049
C63	C	2.357329	0.067850	1.288382
C64	C	1.764802	-0.635491	0.547710
C65	C	2.098135	-0.302158	0.881044
C66	C	2.431468	0.031176	1.214377
C67	C	1.759503	-0.708842	0.553082
C68	C	2.092837	-0.375509	0.886415
C69	C	2.426170	-0.042175	1.219749
C70	C	1.680059	-0.745518	0.632454
C71	C	2.013392	-0.412184	0.965787
C72	C	2.346725	-0.078851	1.299120
C73	C	1.605917	-0.708838	0.706467
C74	C	1.939250	-0.375505	1.039800
C75	C	2.272583	-0.042172	1.373133
C76	C	1.611222	-0.635489	0.701100
C77	C	1.944555	-0.302156	1.034433
C78	C	2.277889	0.031178	1.367767
C79	C	1.660204	-0.966986	0.652499
C80	C	1.993537	-0.633652	0.985833
C81	C	2.326871	-0.300319	1.319166
C82	C	1.654902	-1.040340	0.657858
C83	C	1.988235	-0.707007	0.991191
C84	C	2.321568	-0.373674	1.324525
C85	C	1.808490	-1.040339	0.504474
C86	C	2.141824	-0.707005	0.837808
C87	C	2.475157	-0.373672	1.171141
C88	C	1.813784	-0.966988	0.499110
C89	C	2.147117	-0.633655	0.832443
C90	C	2.480450	-0.300321	1.165776
C91	C	1.739646	-0.930315	0.573127
C92	C	2.072979	-0.596982	0.906460
C93	C	2.406313	-0.263649	1.239794
C94	C	1.674638	-0.820494	0.637944
C95	C	2.007972	-0.487161	0.971277
C96	C	2.341305	-0.153827	1.304610
C97	C	1.745073	-0.855340	0.567642
C98	C	2.078407	-0.522007	0.900975
C99	C	2.411740	-0.188674	1.234309
C100	C	2.022789	-0.338283	0.602788
C101	C	2.356122	-0.004950	0.936121
C102	C	2.689455	0.328383	1.269455
C103	C	2.156188	-0.338288	0.602795
C104	C	2.489522	-0.004955	0.936129
C105	C	2.822855	0.328379	1.269462
C106	C	1.709845	-0.338194	0.915808
C107	C	2.043178	-0.004861	1.249141
C108	C	2.376512	0.328473	1.582475
C109	C	1.709887	-0.338161	1.049206
C110	C	2.043220	-0.004827	1.382539
C111	C	2.376553	0.328506	1.715872
C112	C	1.723276	-0.155080	0.589506
C113	C	2.056609	0.178253	0.922839
C114	C	2.389942	0.511587	1.256173
C115	C	1.729041	-0.077014	0.583853
C116	C	2.062374	0.256319	0.917186
C117	C	2.395707	0.589652	1.250520
C118	C	1.709722	-0.338299	0.290948
C119	C	2.043056	-0.004966	0.624282
C120	C	2.376389	0.328368	0.957615
C121	C	1.709928	-0.338134	0.157537
C122	C	2.043261	-0.004801	0.490870
C123	C	2.376594	0.328532	0.824204
H124	H	1.829489	-0.605635	0.483072
H125	H	2.162822	-0.272301	0.816406
H126	H	2.496155	0.061032	1.149739
H127	H	1.599836	-0.937133	0.712765
H128	H	1.933169	-0.603799	1.046099
H129	H	2.266502	-0.270466	1.379432
F130	F	1.829626	-0.816306	0.483177
F131	F	2.162960	-0.482973	0.816510
F132	F	2.496293	-0.149639	1.149844
H133	H	1.590223	-1.070200	0.722513
H134	H	1.923556	-0.736866	1.055846
H135	H	2.256889	-0.403533	1.389179
H136	H	1.541236	-0.738706	0.771098
H137	H	1.874570	-0.405372	1.104431
H138	H	2.207903	-0.072039	1.437765
H139	H	1.609952	-0.850363	0.702566
H140	H	1.943285	-0.517030	1.035899
H141	H	2.276619	-0.183697	1.369233
F142	F	1.887393	-1.079374	0.425711
F143	F	2.220726	-0.746040	0.759044
F144	F	2.554059	-0.412707	1.092377
H145	H	1.550852	-0.605630	0.761364
H146	H	1.884185	-0.272296	1.094698
H147	H	2.217518	0.061037	1.428031
H148	H	1.819874	-0.738699	0.492818
H149	H	2.153208	-0.405365	0.826152
H150	H	2.486541	-0.072032	1.159485
H151	H	1.878474	-0.937128	0.434479
H152	H	2.211807	-0.603795	0.767812
H153	H	2.545140	-0.270461	1.101146
