data_functionalizedCrystal
_audit_creation_method	'MofGen! by Chris Wilmer'
_symmetry_space_group_name_H-M	'P1'
_symmetry_Int_Tables_number	1
_symmetry_cell_setting	triclinic
loop_
_symmetry_equiv_pos_as_xyz
  x,y,z
_cell_length_a	10.686220
_cell_length_b	19.121063
_cell_length_c	19.120904
_cell_angle_alpha	94.741613
_cell_angle_beta	96.594686
_cell_angle_gamma	96.652836
loop_
_atom_site_label
_atom_site_type_symbol
_atom_site_fract_x
_atom_site_fract_y
_atom_site_fract_z
Zn1	Zn	1.887718	-0.212808	-0.325674
Zn2	Zn	1.887561	-0.325462	-0.213032
Zn3	Zn	1.684730	-0.216874	-0.217070
Zn4	Zn	1.665723	-0.340349	-0.340535
O5	O	1.781433	-0.273873	-0.274078
O6	O	2.065489	-0.219820	-0.302822
O7	O	1.868543	-0.306529	-0.114756
O8	O	1.719677	-0.117513	-0.226947
O9	O	2.065373	-0.302586	-0.220065
O10	O	1.868811	-0.114526	-0.306738
O11	O	1.719524	-0.226749	-0.117722
O12	O	1.504417	-0.241185	-0.241357
O13	O	1.687283	-0.327959	-0.437375
O14	O	1.490453	-0.331902	-0.332066
O15	O	1.850382	-0.234255	-0.426457
O16	O	1.850114	-0.426257	-0.234475
O17	O	1.687130	-0.437195	-0.328151
C18	C	1.451336	-0.288600	-0.288763
C19	C	1.310116	-0.294919	-0.295063
C20	C	1.766576	-0.457349	-0.282501
C21	C	1.760334	-0.535836	-0.286123
C22	C	1.842318	-0.566991	-0.239087
C23	C	1.836455	-0.640738	-0.242497
C24	C	1.748601	-0.683330	-0.292941
C25	C	1.666613	-0.652171	-0.339982
C26	C	1.672483	-0.578424	-0.336574
C27	C	1.726634	-0.906282	-0.305671
C28	C	1.720768	-0.980034	-0.309073
C29	C	1.890612	-0.968596	-0.211590
C30	C	1.896470	-0.894849	-0.208184
C31	C	1.814486	-0.863696	-0.255227
C32	C	1.742603	-0.758712	-0.296426
C33	C	1.820491	-0.788315	-0.251744
C34	C	2.112819	-0.259089	-0.259335
C35	C	2.254036	-0.252788	-0.253053
C36	C	1.766730	-0.282314	-0.458253
C37	C	1.760464	-0.285911	-0.536738
C38	C	1.796382	-0.089680	-0.265635
C39	C	1.802752	-0.011188	-0.262038
C40	C	1.842433	-0.238817	-0.567927
C41	C	1.836530	-0.242195	-0.641672
C42	C	1.748664	-0.292671	-0.684227
C43	C	1.666686	-0.339767	-0.653033
C44	C	1.672584	-0.336386	-0.579289
C45	C	1.726604	-0.305319	-0.907171
C46	C	1.720715	-0.308698	-0.980919
C47	C	1.890558	-0.211124	-0.969553
C48	C	1.896453	-0.207750	-0.895808
C49	C	1.814471	-0.254844	-0.864621
C50	C	1.742631	-0.296126	-0.759607
C51	C	1.820499	-0.251385	-0.789243
C52	C	1.796156	-0.265411	-0.090613
C53	C	1.802684	-0.261604	-0.012108
H54	H	1.314061	-0.211886	-0.212266
H55	H	1.659878	-0.880924	-0.343974
H56	H	1.250084	-0.335828	-0.335848
H57	H	1.649240	-1.014710	-0.350162
H58	H	1.605824	-0.374728	-0.553897
H59	H	1.649160	-0.349804	-1.015566
H60	H	1.913854	-0.532317	-0.198008
H61	H	1.659866	-0.343676	-0.881787
H62	H	1.903215	-0.666100	-0.204195
H63	H	1.671069	-0.793399	-0.337496
H64	H	1.903281	-0.203847	-0.667063
H65	H	1.913987	-0.197716	-0.533284
H66	H	1.957302	-0.172782	-0.994954
H67	H	1.968008	-0.860172	-0.167109
H68	H	1.957360	-0.993969	-0.173291
H69	H	1.968006	-0.166649	-0.861164
H70	H	1.595085	-0.686855	-0.381057
H71	H	1.892034	-0.210285	-0.754592
H72	H	1.605724	-0.553059	-0.374876
H73	H	1.892027	-0.753635	-0.210675
H74	H	1.595139	-0.380864	-0.687688
H75	H	1.671096	-0.337227	-0.794263
