data_functionalizedCrystal
_audit_creation_method	'MofGen! by Chris Wilmer'
_symmetry_space_group_name_H-M	'P1'
_symmetry_Int_Tables_number	1
_symmetry_cell_setting	triclinic
loop_
_symmetry_equiv_pos_as_xyz
  x,y,z
_cell_length_a	12.759401
_cell_length_b	12.645324
_cell_length_c	12.759400
_cell_angle_alpha	90.033283
_cell_angle_beta	89.985155
_cell_angle_gamma	89.980419
loop_
_atom_site_label
_atom_site_type_symbol
_atom_site_fract_x
_atom_site_fract_y
_atom_site_fract_z
Zn1	Zn	1.606267	-0.599339	0.418182
Zn2	Zn	1.606158	-0.422075	0.593906
Zn3	Zn	1.430565	-0.422094	0.418242
Zn4	Zn	1.430557	-0.599301	0.593820
O5	O	1.518387	-0.510702	0.506038
O6	O	1.753273	-0.575833	0.441503
O7	O	1.582823	-0.273730	0.570665
O8	O	1.453921	-0.445631	0.271213
O9	O	1.753193	-0.445597	0.570607
O10	O	1.583009	-0.575852	0.271169
O11	O	1.453816	-0.273744	0.441606
O12	O	1.283543	-0.445593	0.441522
O13	O	1.453908	-0.747653	0.570460
O14	O	1.283537	-0.575786	0.570518
O15	O	1.583001	-0.747682	0.441419
O16	O	1.582815	-0.445560	0.740916
O17	O	1.453802	-0.575767	0.740852
C18	C	1.245419	-0.510688	0.506018
C19	C	1.128643	-0.510707	0.506035
C20	C	1.073805	-0.578386	0.573311
C21	C	0.964081	-0.578398	0.573324
C22	C	0.964042	-0.443042	0.438783
C23	C	1.073764	-0.443036	0.438765
C24	C	1.128684	-0.646057	0.640581
C25	C	1.073846	-0.713741	0.707863
C26	C	0.964122	-0.713752	0.707877
C27	C	0.909236	-0.646080	0.640608
C28	C	1.518466	-0.787208	0.505923
C29	C	1.518499	-0.905038	0.505875
C30	C	1.600028	-1.072620	0.424931
C31	C	1.599766	-0.950060	0.424638
C32	C	1.407814	-0.949523	0.475788
C33	C	1.408309	-1.072122	0.475174
C34	C	1.546758	-1.072231	0.617023
C35	C	1.549179	-0.949626	0.616464
C36	C	1.792420	-0.510717	0.506058
C37	C	1.909197	-0.510724	0.506066
C38	C	1.518324	-0.510680	0.779005
C39	C	1.518394	-0.510706	0.895782
C40	C	1.518369	-0.235273	0.506076
C41	C	1.518539	-0.117443	0.505828
C42	C	1.518478	-0.510748	0.232004
C43	C	1.518517	-0.510767	0.115228
C44	C	1.585645	-0.442982	0.950642
C45	C	1.585710	-0.443015	1.060366
C46	C	1.451262	-0.578498	1.060360
C47	C	1.451204	-0.578470	0.950638
C48	C	1.652835	-0.375218	0.895785
C49	C	1.720092	-0.307488	0.950646
C50	C	1.720156	-0.307521	1.060370
C51	C	1.652964	-0.375284	1.115233
H52	H	1.118542	-0.768844	0.762624
H53	H	0.919476	-0.768871	0.762653
H54	H	0.819891	-0.646104	0.640615
H55	H	1.682374	-1.102107	0.443535
Br56	Br	0.889554	-0.351206	0.347497
Br57	Br	1.811289	-0.215542	0.876191
H58	H	1.581082	-0.920750	0.342267
H59	H	1.396557	-0.633667	1.105039
H60	H	1.396443	-0.633618	0.905970
H61	H	1.118414	-0.387934	0.383976
H62	H	1.681841	-0.919984	0.443480
H63	H	1.774927	-0.252379	1.105034
Br64	Br	1.652574	-0.374841	1.264145
H65	H	1.384389	-1.100735	0.393891
H66	H	1.581583	-1.103447	0.343015
H67	H	1.218027	-0.646053	0.640580
H68	H	1.345445	-0.920359	0.532900
Br69	Br	1.303656	-1.121547	0.569089
Br70	Br	1.367214	-0.898381	0.341819
H71	H	1.626059	-1.103211	0.644414
H72	H	1.630634	-0.920549	0.639151
Br73	Br	1.457439	-0.898551	0.722337
H74	H	1.487410	-1.101226	0.677301
Br75	Br	1.653075	-0.375497	0.746875
