data_functionalizedCrystal
_audit_creation_method	'MofGen! by Chris Wilmer'
_symmetry_space_group_name_H-M	'P1'
_symmetry_Int_Tables_number	1
_symmetry_cell_setting	triclinic
loop_
_symmetry_equiv_pos_as_xyz
  x,y,z
_cell_length_a	18.050591
_cell_length_b	19.121063
_cell_length_c	18.050583
_cell_angle_alpha	92.401387
_cell_angle_beta	89.977979
_cell_angle_gamma	92.465257
loop_
_atom_site_label
_atom_site_type_symbol
_atom_site_fract_x
_atom_site_fract_y
_atom_site_fract_z
Zn1	Zn	1.122689	-0.279636	-0.432625
Zn2	Zn	1.117299	-0.397107	-0.313726
Zn3	Zn	0.998504	-0.279667	-0.308438
Zn4	Zn	0.993161	-0.397042	-0.437858
O5	O	1.057914	-0.338363	-0.373162
O6	O	1.225898	-0.295233	-0.416876
O7	O	1.101522	-0.381568	-0.209102
O8	O	1.019470	-0.181379	-0.320508
O9	O	1.221938	-0.381538	-0.329521
O10	O	1.110707	-0.181356	-0.411749
O11	O	1.014243	-0.295286	-0.205216
O12	O	0.893872	-0.295223	-0.325583
O13	O	1.010363	-0.381427	-0.541087
O14	O	0.889946	-0.381457	-0.420668
O15	O	1.105526	-0.295170	-0.537242
O16	O	1.096340	-0.495382	-0.334595
O17	O	1.005137	-0.495334	-0.425795
C18	C	0.864963	-0.338337	-0.373120
C19	C	0.782417	-0.338342	-0.373120
C20	C	0.585082	-0.291394	-0.321525
C21	C	0.532772	-0.355457	-0.306134
C22	C	0.631285	-0.338364	-0.373154
C23	C	0.536512	-0.274323	-0.388544
C24	C	0.485299	-0.338379	-0.373186
C25	C	0.580062	-0.402461	-0.357730
C26	C	0.583807	-0.321283	-0.440170
C27	C	0.531518	-0.385391	-0.424807
C28	C	0.715384	-0.338354	-0.373134
C29	C	0.401202	-0.338395	-0.373207
C30	C	1.049594	-0.520842	-0.381353
C31	C	1.046103	-0.598907	-0.384882
C32	C	1.091985	-0.635584	-0.339097
C33	C	1.088706	-0.708935	-0.342420
C34	C	1.039541	-0.745607	-0.391526
C35	C	0.993657	-0.708925	-0.437316
C36	C	0.996940	-0.635576	-0.433996
C37	C	1.027253	-0.967075	-0.403928
C38	C	1.023972	-1.040429	-0.407243
C39	C	1.119022	-1.040434	-0.312347
C40	C	1.122297	-0.967083	-0.309028
C41	C	1.076417	-0.930407	-0.354822
C42	C	1.036186	-0.820583	-0.394923
C43	C	1.079775	-0.855432	-0.351428
C44	C	1.251618	-0.338390	-0.373205
C45	C	1.334163	-0.338401	-0.373223
C46	C	1.057950	-0.338288	-0.566864
C47	C	1.057965	-0.338256	-0.649409
C48	C	1.066286	-0.155171	-0.364955
C49	C	1.069853	-0.077106	-0.361458
C50	C	1.109766	-0.291327	-0.846768
C51	C	1.042808	-0.274132	-0.895381
C52	C	1.057995	-0.338244	-0.800538
C53	C	1.124983	-0.355393	-0.899005
C54	C	1.058031	-0.338231	-0.946523
C55	C	0.991003	-0.321017	-0.848063
C56	C	1.073222	-0.402308	-0.851684
C57	C	1.006217	-0.385138	-0.900276
C58	C	1.057976	-0.338250	-0.716440
C59	C	1.058042	-0.338225	-1.030619
C60	C	1.057922	-0.338387	-0.180211
C61	C	1.058060	-0.338221	-0.097658
H62	H	0.517247	-0.220165	-0.401523
N63	N	0.616152	-0.238835	-0.263641
H64	H	0.574084	-0.215311	-0.237066
H65	H	0.646578	-0.263674	-0.226742
N66	N	0.977761	-0.927526	-0.453311
H67	H	0.944727	-0.897141	-0.421719
H68	H	1.009332	-0.897086	-0.486374
N69	N	0.503110	-0.374615	-0.231086
H70	H	0.522307	-0.338880	-0.192166
H71	H	0.447138	-0.375330	-0.231990
N72	N	0.940631	-0.748475	-0.490284
H73	H	0.945509	-0.800507	-0.485439
H74	H	0.888171	-0.735698	-0.478091
N75	N	0.605398	-0.474231	-0.340418
H76	H	0.661370	-0.473777	-0.340490
H77	H	0.586318	-0.487201	-0.289990
H78	H	1.086112	-0.456475	-0.832379
N79	N	0.970942	-1.079981	-0.460213
H80	H	0.999742	-1.110370	-0.496029
H81	H	0.935192	-1.110418	-0.431319
H82	H	0.959580	-0.605714	-0.471280
N83	N	0.500630	-0.438068	-0.482664
H84	H	0.516491	-0.486406	-0.470955
H85	H	0.444711	-0.437439	-0.482628
H86	H	1.029939	-0.219950	-0.914670
N87	N	0.948182	-0.437686	-0.931128
H88	H	0.911225	-0.412902	-0.961533
H89	H	0.972855	-0.474193	-0.963531
H90	H	0.934354	-0.306443	-0.825801
N91	N	0.613491	-0.302114	-0.515201
H92	H	0.597763	-0.253698	-0.526770
H93	H	0.669407	-0.302745	-0.514716
H94	H	1.162331	-0.937226	-0.269043
N95	N	1.145010	-0.596033	-0.286130
H96	H	1.173580	-0.630401	-0.257631
H97	H	1.180723	-0.565551	-0.315017
N98	N	1.138192	-0.748494	-0.293038
H99	H	1.169832	-0.714132	-0.261422
H100	H	1.106617	-0.778977	-0.260021
H101	H	1.156376	-1.070303	-0.275066
N102	N	1.132799	-0.815877	-0.298467
H103	H	1.120724	-0.828689	-0.245972
H104	H	1.185266	-0.828607	-0.310690
N105	N	0.983154	-0.860142	-0.447877
H106	H	0.930668	-0.847427	-0.435710
H107	H	0.995286	-0.847315	-0.500353
N108	N	1.199999	-0.374620	-0.928614
H109	H	1.239049	-0.339150	-0.909089
H110	H	1.211822	-0.422682	-0.912004
H111	H	1.153479	-0.251625	-0.823337
