data_functionalizedCrystal
_audit_creation_method	'MofGen! by Chris Wilmer'
_symmetry_space_group_name_H-M	'P1'
_symmetry_Int_Tables_number	1
_symmetry_cell_setting	triclinic
loop_
_symmetry_equiv_pos_as_xyz
  x,y,z
_cell_length_a	10.686220
_cell_length_b	19.121175
_cell_length_c	10.686285
_cell_angle_alpha	92.138587
_cell_angle_beta	89.654569
_cell_angle_gamma	91.730287
loop_
_atom_site_label
_atom_site_type_symbol
_atom_site_fract_x
_atom_site_fract_y
_atom_site_fract_z
Zn1	Zn	1.980474	-0.296776	0.372977
Zn2	Zn	2.480474	0.203224	0.872977
Zn3	Zn	1.986132	-0.170532	0.573880
Zn4	Zn	2.486132	0.329468	1.073880
Zn5	Zn	1.761820	-0.188303	0.381497
Zn6	Zn	2.261820	0.311697	0.881497
Zn7	Zn	1.786685	-0.295391	0.598701
Zn8	Zn	2.286685	0.204609	1.098701
O9	O	1.878778	-0.237750	0.481764
O10	O	2.378778	0.262250	0.981764
O11	O	2.156200	-0.273172	0.385674
O12	O	2.656200	0.226828	0.885674
O13	O	1.948338	-0.075239	0.541539
O14	O	2.448338	0.424761	1.041539
O15	O	1.778050	-0.210709	0.205388
O16	O	2.278050	0.289291	0.705388
O17	O	2.160357	-0.180421	0.533277
O18	O	2.660357	0.319579	1.033277
O19	O	1.938694	-0.290404	0.199128
O20	O	2.438694	0.209596	0.699128
O21	O	1.783537	-0.088295	0.400196
O22	O	2.283537	0.411705	0.900196
O23	O	1.590142	-0.209366	0.424263
O24	O	2.090142	0.290634	0.924263
O25	O	1.820430	-0.393225	0.575579
O26	O	2.320430	0.106775	1.075579
O27	O	1.608411	-0.288043	0.583841
O28	O	2.108411	0.211957	1.083841
O29	O	1.962806	-0.394243	0.409741
O30	O	2.462806	0.105757	0.909741
O31	O	1.972449	-0.179078	0.752152
O32	O	2.472449	0.320922	1.252152
O33	O	1.825917	-0.270811	0.770387
O34	O	2.325917	0.229189	1.270387
C35	C	1.553907	-0.250483	0.507671
C36	C	2.053907	0.249517	1.007671
C37	C	1.414930	-0.255945	0.518785
C38	C	1.914930	0.244055	1.018785
C39	C	1.893761	-0.419761	0.494478
C40	C	2.393761	0.080239	0.994478
C41	C	1.900145	-0.497323	0.499897
C42	C	2.400145	0.002677	0.999897
C43	C	1.817346	-0.540559	0.428854
C44	C	2.317346	-0.040559	0.928854
C45	C	1.823341	-0.613437	0.433955
C46	C	2.323341	-0.113437	0.933955
C47	C	1.912142	-0.643077	0.510094
C48	C	2.412142	-0.143077	1.010094
C49	C	1.994946	-0.599836	0.581145
C50	C	2.494946	-0.099836	1.081145
C51	C	1.988944	-0.526959	0.576050
C52	C	2.488944	-0.026959	1.076050
C53	C	1.934552	-0.862776	0.529168
C54	C	2.434552	-0.362776	1.029168
C55	C	1.940550	-0.935658	0.534256
C56	C	2.440550	-0.435658	1.034256
C57	C	1.768942	-0.949254	0.387067
C58	C	2.268942	-0.449254	0.887067
C59	C	1.762953	-0.876376	0.381972
C60	C	2.262953	-0.376376	0.881972
C61	C	1.845752	-0.833141	0.453028
C62	C	2.345752	-0.333141	0.953028
C63	C	1.918275	-0.717570	0.515308
C64	C	2.418275	-0.217570	1.015308
C65	C	1.839613	-0.758650	0.447820
C66	C	2.339613	-0.258650	0.947820
C67	C	2.204917	-0.224969	0.455756
C68	C	2.704917	0.275031	0.955756
C69	C	2.343898	-0.219522	0.444673
C70	C	2.843898	0.280478	0.944673
C71	C	1.902530	-0.222879	0.806638
C72	C	2.402530	0.277121	1.306638
C73	C	1.912808	-0.216536	0.945613
C74	C	2.412808	0.283464	1.445613
C75	C	1.863918	-0.056449	0.469002
C76	C	2.363918	0.443551	0.969002
C77	C	1.857750	0.021106	0.463213
C78	C	2.357750	0.521106	0.963213
C79	C	1.854968	-0.252693	0.155619
C80	C	2.354968	0.247307	0.655619
C81	C	1.844821	-0.259061	0.016635
C82	C	2.344821	0.240939	0.516635
H83	H	1.389407	-0.184160	0.372721
H84	H	1.889407	0.315840	0.872721
H85	H	1.978872	-0.175268	0.991135
H86	H	2.478872	0.324732	1.491135
H87	H	1.369415	-0.291304	0.590750
H88	H	1.869415	0.208696	1.090750
H89	H	2.056377	-0.491757	0.633890
H90	H	2.556377	0.008243	1.133890
H91	H	1.745040	-0.516432	0.366846
H92	H	2.245040	-0.016432	0.866846
H93	H	1.990577	-0.741711	0.577302
H94	H	2.490577	-0.241711	1.077302
H95	H	1.701531	-0.984464	0.329218
H96	H	2.201531	-0.484464	0.829218
H97	H	1.755912	-0.648637	0.376110
H98	H	2.255912	-0.148637	0.876110
H99	H	2.012868	-0.959788	0.596258
H100	H	2.512868	-0.459788	1.096258
H101	H	1.690638	-0.852248	0.319975
H102	H	2.190638	-0.352248	0.819975
H103	H	1.778753	-0.300323	0.971121
H104	H	2.278753	0.199677	1.471121
H105	H	2.001960	-0.827582	0.587042
H106	H	2.501960	-0.327582	1.087042
H107	H	2.067244	-0.623974	0.643146
H108	H	2.567244	-0.123974	1.143146
H109	H	1.767307	-0.734513	0.385833
H110	H	2.267307	-0.234513	0.885833
