data_functionalizedCrystal
_audit_creation_method	'MofGen! by Chris Wilmer'
_symmetry_space_group_name_H-M	'P1'
_symmetry_Int_Tables_number	1
_symmetry_cell_setting	triclinic
loop_
_symmetry_equiv_pos_as_xyz
  x,y,z
_cell_length_a	13.897449
_cell_length_b	18.050582
_cell_length_c	13.897448
_cell_angle_alpha	89.979070
_cell_angle_beta	90.018972
_cell_angle_gamma	89.986245
loop_
_atom_site_label
_atom_site_type_symbol
_atom_site_fract_x
_atom_site_fract_y
_atom_site_fract_z
Zn1	Zn	1.474636	-0.419898	-0.384043
Zn2	Zn	1.474550	-0.295711	-0.545338
Zn3	Zn	1.313345	-0.295725	-0.384062
Zn4	Zn	1.313307	-0.419863	-0.545302
O5	O	1.393959	-0.357799	-0.464686
O6	O	1.609606	-0.403434	-0.405447
O7	O	1.453145	-0.191789	-0.523967
O8	O	1.334793	-0.312217	-0.249078
O9	O	1.609543	-0.312194	-0.523949
O10	O	1.453293	-0.403446	-0.249064
O11	O	1.334709	-0.191798	-0.405478
O12	O	1.178358	-0.312182	-0.405443
O13	O	1.334728	-0.523792	-0.523887
O14	O	1.178330	-0.403386	-0.523905
O15	O	1.453256	-0.523818	-0.405412
O16	O	1.453109	-0.312160	-0.680315
O17	O	1.334644	-0.403373	-0.680288
C18	C	1.143345	-0.357782	-0.464673
C19	C	1.036131	-0.357793	-0.464691
C20	C	0.839836	-0.357812	-0.464694
C21	C	0.949069	-0.357799	-0.464690
C22	C	1.393997	-0.551505	-0.464643
C23	C	1.394013	-0.634051	-0.464625
C24	C	1.329607	-0.833487	-0.528964
C25	C	1.417615	-0.882878	-0.552541
C26	C	1.394061	-0.785181	-0.464552
C27	C	1.306102	-0.882872	-0.440948
C28	C	1.394099	-0.931166	-0.464482
C29	C	1.482115	-0.833484	-0.488174
C30	C	1.370542	-0.833475	-0.376541
C31	C	1.458611	-0.882843	-0.400084
C32	C	1.394038	-0.701083	-0.464594
C33	C	1.394132	-1.015263	-0.464440
C34	C	1.645552	-0.357817	-0.464700
C35	C	1.752766	-0.357824	-0.464706
C36	C	1.393889	-0.357778	-0.715301
C37	C	1.393947	-0.357793	-0.822514
C38	C	1.393977	-0.164847	-0.464659
C39	C	1.394148	-0.082302	-0.464406
C40	C	1.394048	-0.357840	-1.018809
C41	C	1.393989	-0.357816	-0.909577
C42	C	1.394056	-0.357837	-0.213093
C43	C	1.394098	-0.357853	-0.105879
H44	H	1.275152	-0.811817	-0.583507
O45	O	1.346586	-0.807592	-0.287840
C46	C	1.226754	-0.803382	-0.162683
C47	C	1.253767	-0.832731	-0.263153
H48	H	1.151717	-0.823708	-0.142684
H49	H	1.227598	-0.740230	-0.163382
H50	H	1.280990	-0.824524	-0.107572
H51	H	1.199558	-0.811644	-0.318320
H52	H	1.252953	-0.895883	-0.262374
O53	O	1.441216	-0.908738	-0.641354
C54	C	1.399998	-0.912893	-0.809698
C55	C	1.373155	-0.883576	-0.709167
H56	H	1.344996	-0.892549	-0.864556
H57	H	1.400429	-0.976046	-0.808691
H58	H	1.474492	-0.891746	-0.830280
H59	H	1.298655	-0.904669	-0.688523
H60	H	1.372789	-0.820424	-0.710228
O61	O	1.570909	-0.807808	-0.512200
C62	C	1.696320	-0.804364	-0.631810
C63	C	1.595767	-0.833507	-0.604709
H64	H	1.716439	-0.825117	-0.706612
H65	H	1.751375	-0.825137	-0.577275
H66	H	1.695556	-0.741210	-0.631624
H67	H	1.596436	-0.896659	-0.604904
H68	H	1.540755	-0.812677	-0.659250
H69	H	1.513196	-0.904377	-0.345582
O70	O	1.217317	-0.908792	-0.417326
C71	C	1.081010	-0.982225	-0.466133
C72	C	1.181541	-0.952910	-0.493005
H73	H	1.052063	-1.017913	-0.527296
H74	H	1.030284	-0.933567	-0.453378
H75	H	1.086290	-1.016938	-0.397789
H76	H	1.176353	-0.918208	-0.561362
H77	H	1.232227	-1.001601	-0.505698
