data_functionalizedCrystal
_audit_creation_method	'MofGen! by Chris Wilmer'
_symmetry_space_group_name_H-M	'P1'
_symmetry_Int_Tables_number	1
_symmetry_cell_setting	triclinic
loop_
_symmetry_equiv_pos_as_xyz
  x,y,z
_cell_length_a	19.077399
_cell_length_b	16.120444
_cell_length_c	19.076919
_cell_angle_alpha	95.047308
_cell_angle_beta	94.479523
_cell_angle_gamma	95.104436
loop_
_atom_site_label
_atom_site_type_symbol
_atom_site_fract_x
_atom_site_fract_y
_atom_site_fract_z
Zn1	Zn	1.048305	-0.299594	-0.368745
Zn2	Zn	1.548305	0.200406	0.131255
Zn3	Zn	1.046973	-0.433752	-0.256844
Zn4	Zn	1.546973	0.066248	0.243156
Zn5	Zn	0.935159	-0.299617	-0.255601
Zn6	Zn	1.435159	0.200383	0.244399
Zn7	Zn	0.923881	-0.445422	-0.379933
Zn8	Zn	1.423881	0.054578	0.120067
O9	O	0.988580	-0.369596	-0.315281
O10	O	1.488580	0.130404	0.184719
O11	O	1.146995	-0.312497	-0.349740
O12	O	1.646995	0.187503	0.150260
O13	O	1.036303	-0.411084	-0.157815
O14	O	1.536303	0.088916	0.342185
O15	O	0.955446	-0.182449	-0.265408
O16	O	1.455446	0.317551	0.234592
O17	O	1.146016	-0.411062	-0.267526
O18	O	1.646016	0.088938	0.232474
O19	O	1.038574	-0.182432	-0.348534
O20	O	1.538574	0.317568	0.151466
O21	O	0.954154	-0.312536	-0.156901
O22	O	1.454154	0.187464	0.343099
O23	O	0.834796	-0.323852	-0.276255
O24	O	1.334796	0.176148	0.223745
O25	O	0.936223	-0.430952	-0.477313
O26	O	1.436223	0.069048	0.022687
O27	O	0.826510	-0.430974	-0.367601
O28	O	1.326510	0.069026	0.132399
O29	O	1.027638	-0.323813	-0.469094
O30	O	1.527638	0.176187	0.030906
O31	O	1.025367	-0.552465	-0.278374
O32	O	1.525367	-0.052465	0.221626
O33	O	0.934931	-0.561039	-0.368807
O34	O	1.434931	-0.061039	0.131193
C35	C	0.805018	-0.378682	-0.323008
C36	C	1.305018	0.121318	0.176992
C37	C	0.726488	-0.382590	-0.326331
C38	C	1.226488	0.117410	0.173669
C39	C	0.693889	-0.328577	-0.280404
C40	C	1.193889	0.171423	0.219596
C41	C	0.620101	-0.332256	-0.283527
C42	C	1.120101	0.167744	0.216473
C43	C	0.578914	-0.389946	-0.332580
C44	C	1.078914	0.110054	0.167420
C45	C	0.611519	-0.443965	-0.378510
C46	C	1.111519	0.056035	0.121490
C47	C	0.685305	-0.440289	-0.375383
C48	C	1.185305	0.059711	0.124617
C49	C	0.357776	-0.406932	-0.347021
C50	C	0.857776	0.093068	0.152979
C51	C	0.283985	-0.410602	-0.350145
C52	C	0.783985	0.089398	0.149855
C53	C	0.292573	-0.298893	-0.255161
C54	C	0.792573	0.201107	0.244839
C55	C	0.366360	-0.295219	-0.252042
C56	C	0.866360	0.204781	0.247958
C57	C	0.398958	-0.349242	-0.297968
C58	C	0.898958	0.150758	0.202032
N59	N	0.503492	-0.393706	-0.335775
N60	N	1.003492	0.106294	0.164225
N61	N	0.474380	-0.345485	-0.294770
N62	N	0.974380	0.154515	0.205230
C63	C	0.978799	-0.587131	-0.324954
C64	C	1.478799	-0.087131	0.175046
C65	C	0.974678	-0.680192	-0.329113
C66	C	1.474678	-0.180192	0.170887
C67	C	1.010122	-0.887767	-0.293850
C68	C	1.510122	-0.387767	0.206150
C69	C	0.967168	-0.850568	-0.336713
C70	C	1.467168	-0.350568	0.163287
C71	C	0.971348	-0.755762	-0.332483
C72	C	1.471348	-0.255762	0.167517
C73	C	1.005943	-0.982581	-0.298079
C74	C	1.505943	-0.482581	0.201921
C75	C	1.172858	-0.360475	-0.307524
C76	C	1.672858	0.139525	0.192476
C77	C	1.251386	-0.356588	-0.304218
C78	C	1.751386	0.143412	0.195782
C79	C	0.980821	-0.378682	-0.499555
C80	C	1.480821	0.121318	0.000445
C81	C	0.977515	-0.382553	-0.578081
C82	C	1.477515	0.117447	-0.078081
C83	C	0.998417	-0.151211	-0.305584
C84	C	1.498417	0.348789	0.194416
C85	C	1.002609	-0.058149	-0.301452
C86	C	1.502609	0.441851	0.198548
C87	C	1.023554	-0.328593	-0.610695
C88	C	1.523554	0.171407	-0.110695
C89	C	1.020439	-0.332229	-0.684479
C90	C	1.520439	0.167771	-0.184479
C91	C	0.971288	-0.389828	-0.725648
C92	C	1.471288	0.110172	-0.225648
C93	C	0.925244	-0.443791	-0.693030
C94	C	1.425244	0.056209	-0.193030
C95	C	0.928356	-0.440151	-0.619247
C96	C	1.428356	0.059849	-0.119247
C97	C	0.956873	-0.406692	-0.946775
C98	C	1.456873	0.093308	-0.446775
C99	C	0.953766	-0.410329	-1.020563
C100	C	1.453766	0.089671	-0.520563
C101	C	1.048960	-0.298765	-1.012008
C102	C	1.548960	0.201235	-0.512008
C103	C	1.052071	-0.295134	-0.938224
C104	C	1.552071	0.204866	-0.438224
C105	C	1.006025	-0.349094	-0.905611
C106	C	1.506025	0.150906	-0.405611
N107	N	0.968104	-0.393547	-0.801068
N108	N	1.468104	0.106453	-0.301068
N109	N	1.009206	-0.345370	-0.830193
N110	N	1.509206	0.154630	-0.330193
C111	C	0.996351	-0.360484	-0.131719
C112	C	1.496351	0.139516	0.368281
C113	C	0.999805	-0.356369	-0.053177
C114	C	1.499805	0.143631	0.446823
H115	H	0.577978	-0.490941	-0.418447
H116	H	1.077978	0.009059	0.081553
H117	H	0.727418	-0.281593	-0.240464
H118	H	1.227418	0.218407	0.259536
H119	H	0.919389	-0.450641	-0.920231
H120	H	1.419389	0.049359	-0.420231
H121	H	0.913739	-0.457236	-1.054081
H122	H	1.413739	0.042764	-0.554081
H123	H	1.086448	-0.254834	-1.038569
H124	H	1.586448	0.245166	-0.538569
H125	H	1.057930	-0.288291	-0.711030
H126	H	1.557930	0.211709	-0.211030
H127	H	1.050032	-0.848416	-0.253978
H128	H	1.550032	-0.348416	0.246022
H129	H	1.063580	-0.281692	-0.577180
H130	H	1.563580	0.218308	-0.077180
O131	O	0.877560	-0.499717	-0.733124
O132	O	1.377560	0.000283	-0.233124
C133	C	0.884673	-0.491347	-0.805241
C134	C	1.384673	0.008653	-0.305241
H135	H	0.940007	-0.461727	-0.811810
H136	H	1.440007	0.038273	-0.311810
H137	H	0.843893	-0.449866	-0.825961
H138	H	1.343893	0.050134	-0.325961
C139	C	0.804820	-0.614632	-0.839085
C140	C	1.304820	-0.114632	-0.339085
C141	C	0.872784	-0.578258	-0.847154
C142	C	1.372784	-0.078258	-0.347154
H143	H	0.797483	-0.668242	-0.864940
H144	H	1.297483	-0.168242	-0.364940
H145	H	0.800025	-0.620270	-0.790498
H146	H	1.300025	-0.120270	-0.290498
H147	H	0.770844	-0.580056	-0.856351
H148	H	1.270844	-0.080056	-0.356351
H149	H	0.906758	-0.612829	-0.829879
H150	H	1.406758	-0.112829	-0.329879
H151	H	0.877584	-0.572629	-0.895739
H152	H	1.377584	-0.072629	-0.395739
O153	O	0.717006	-0.492839	-0.419900
O154	O	1.217006	0.007161	0.080100
C155	C	0.758964	-0.542715	-0.380194
C156	C	1.258964	-0.042715	0.119806
H157	H	0.738829	-0.546148	-0.325712
H158	H	1.238829	-0.046148	0.174288
H159	H	0.816147	-0.513920	-0.374275
H160	H	1.316147	-0.013920	0.125725
C161	C	0.779485	-0.627240	-0.485328
C162	C	1.279485	-0.127240	0.014672
C163	C	0.754750	-0.631463	-0.418415
C164	C	1.254750	-0.131463	0.081585
H165	H	0.776888	-0.681983	-0.508905
H166	H	1.276888	-0.181983	-0.008905
H167	H	0.751219	-0.593636	-0.512080
H168	H	1.251219	-0.093636	-0.012080
H169	H	0.827135	-0.603241	-0.480387
H170	H	1.327135	-0.103241	0.019613
H171	H	0.707098	-0.655452	-0.423358
H172	H	1.207098	-0.155452	0.076642
H173	H	0.783008	-0.665073	-0.391665
H174	H	1.283008	-0.165073	0.108335
H175	H	0.250452	-0.457580	-0.390095
H176	H	0.750452	0.042420	0.109905
O177	O	0.919568	-0.897637	-0.384220
O178	O	1.419568	-0.397637	0.115780
C179	C	0.925944	-0.983189	-0.377929
C180	C	1.425944	-0.483189	0.122071
H181	H	0.950914	-0.991191	-0.322969
H182	H	1.450914	-0.491191	0.177031
H183	H	0.960695	-1.008147	-0.419368
H184	H	1.460695	-0.508147	0.080632
C185	C	0.821566	-1.022289	-0.456823
C186	C	1.321566	-0.522289	0.043177
C187	C	0.852230	-1.032118	-0.389318
C188	C	1.352230	-0.532118	0.110682
H189	H	0.776097	-1.052473	-0.463851
H190	H	1.276097	-0.552473	0.036149
H191	H	0.817272	-0.964651	-0.461064
H192	H	1.317272	-0.464651	0.038936
H193	H	0.850532	-1.043087	-0.491348
H194	H	1.350532	-0.543087	0.008652
H195	H	0.823269	-1.011311	-0.354794
H196	H	1.323269	-0.511311	0.145206
H197	H	0.856518	-1.089754	-0.385071
H198	H	1.356518	-0.589754	0.114929
H199	H	1.092097	-0.248233	-0.904708
H200	H	1.592097	0.251767	-0.404708
H201	H	0.890859	-0.484083	-0.592693
H202	H	1.390859	0.015917	-0.092693
H203	H	0.593562	-0.288277	-0.246124
H204	H	1.093562	0.211723	0.253876
H205	H	0.384308	-0.450921	-0.384418
H206	H	0.884308	0.049079	0.115582
H207	H	0.399890	-0.248248	-0.212092
H208	H	0.899890	0.251752	0.287908
O209	O	0.260793	-0.246512	-0.210576
O210	O	0.760793	0.253488	0.289424
C211	C	0.186836	-0.262110	-0.223862
C212	C	0.686836	0.237890	0.276138
H213	H	0.172894	-0.328403	-0.250217
H214	H	0.672894	0.171597	0.249783
H215	H	0.166542	-0.215413	-0.260231
H216	H	0.666542	0.284587	0.239769
C217	C	0.169421	-0.171254	-0.121278
C218	C	0.669421	0.328746	0.378722
C219	C	0.152296	-0.252679	-0.153642
C220	C	0.652296	0.247321	0.346358
H221	H	0.148114	-0.165433	-0.077964
H222	H	0.648114	0.334567	0.422036
H223	H	0.219247	-0.160742	-0.112328
H224	H	0.719247	0.339258	0.387672
H225	H	0.152508	-0.132349	-0.151592
H226	H	0.652508	0.367651	0.348408
H227	H	0.169217	-0.291580	-0.123331
H228	H	0.669217	0.208420	0.376669
H229	H	0.102472	-0.263196	-0.162585
H230	H	0.602472	0.236804	0.337415
