data_functionalizedCrystal
_audit_creation_method	'MofGen! by Chris Wilmer'
_symmetry_space_group_name_H-M	'P1'
_symmetry_Int_Tables_number	1
_symmetry_cell_setting	triclinic
loop_
_symmetry_equiv_pos_as_xyz
  x,y,z
_cell_length_a	27.271600
_cell_length_b	9.582860
_cell_length_c	9.582880
_cell_angle_alpha	90.100092
_cell_angle_beta	68.792966
_cell_angle_gamma	111.206767
loop_
_atom_site_label
_atom_site_type_symbol
_atom_site_fract_x
_atom_site_fract_y
_atom_site_fract_z
V1	V	1.039088	0.206425	-0.466328
O2	O	1.025088	-0.010569	-0.457733
O3	O	1.036614	0.409930	-0.462867
O4	O	1.036615	0.202964	-0.669833
O5	O	1.025088	0.197829	-0.249334
V6	V	1.157500	0.180503	-0.440407
O7	O	1.109817	0.263285	-0.523188
O8	O	1.199320	0.123643	-0.383546
O9	O	1.104172	-0.023002	-0.443867
O10	O	1.200849	0.397497	-0.449001
O11	O	1.200849	0.189098	-0.657401
O12	O	1.104171	0.183964	-0.236901
V13	V	1.289088	0.206425	-0.466328
O14	O	1.275088	-0.010569	-0.457733
O15	O	1.286614	0.409930	-0.462867
O16	O	1.286615	0.202964	-0.669833
O17	O	1.275088	0.197829	-0.249334
V18	V	1.407500	0.180503	-0.440407
O19	O	1.359817	0.263285	-0.523188
O20	O	1.449320	0.123643	-0.383546
O21	O	1.354172	-0.023002	-0.443867
O22	O	1.450849	0.397497	-0.449001
O23	O	1.450849	0.189098	-0.657401
O24	O	1.354171	0.183964	-0.236901
V25	V	0.907496	0.180503	-0.440407
O26	O	0.921496	0.189098	-0.657401
O27	O	0.909969	0.183964	-0.236901
O28	O	0.909970	-0.023002	-0.443867
O29	O	0.921496	0.397497	-0.449001
V30	V	0.789084	0.206425	-0.466328
O31	O	0.836767	0.123643	-0.383546
O32	O	0.747264	0.263285	-0.523188
O33	O	0.842413	0.202964	-0.669833
O34	O	0.745735	0.197829	-0.249334
O35	O	0.745735	-0.010569	-0.457733
O36	O	0.842412	0.409930	-0.462867
V37	V	1.539088	0.206425	-0.466328
O38	O	1.525088	-0.010569	-0.457733
O39	O	1.536614	0.409930	-0.462867
O40	O	1.536615	0.202964	-0.669833
O41	O	1.525088	0.197829	-0.249334
V42	V	1.657500	0.180503	-0.440407
O43	O	1.609817	0.263285	-0.523188
O44	O	1.699320	0.123643	-0.383546
O45	O	1.604172	-0.023002	-0.443867
O46	O	1.700849	0.397497	-0.449001
O47	O	1.700849	0.189098	-0.657401
O48	O	1.604171	0.183964	-0.236901
C49	C	0.999895	0.459549	-0.455441
C50	C	1.018259	0.625916	-0.453968
C51	C	0.999895	0.195542	-0.719445
C52	C	1.018258	0.194059	-0.885810
C53	C	1.056727	-0.072614	-0.451290
C54	C	1.033173	-0.238979	-0.452773
C55	C	1.056726	0.191391	-0.187282
C56	C	1.033173	0.192866	-0.020915
C57	C	1.249895	0.459549	-0.455441
C58	C	1.268259	0.625916	-0.453968
C59	C	1.249895	0.195542	-0.719445
C60	C	1.268258	0.194059	-0.885810
C61	C	1.306727	-0.072614	-0.451290
C62	C	1.283173	-0.238979	-0.452773
C63	C	1.306726	0.191391	-0.187282
C64	C	1.283173	0.192866	-0.020915
C65	C	0.946689	0.191391	-0.187282
C66	C	0.928325	0.192867	-0.020916
C67	C	0.946690	-0.072613	-0.451291
C68	C	0.928328	-0.238978	-0.452777
C69	C	0.889858	0.195541	-0.719445
C70	C	0.913411	0.194057	-0.885809
C71	C	0.889858	0.459550	-0.455443
C72	C	0.913412	0.625918	-0.453976
C73	C	1.499895	0.459549	-0.455441
C74	C	1.518259	0.625916	-0.453968
C75	C	1.499895	0.195542	-0.719445
C76	C	1.518258	0.194059	-0.885810
C77	C	1.556727	-0.072614	-0.451290
C78	C	1.533173	-0.238979	-0.452773
C79	C	1.556726	0.191391	-0.187282
C80	C	1.533173	0.192866	-0.020915
