data_functionalizedCrystal
_audit_creation_method	'MofGen! by Chris Wilmer'
_symmetry_space_group_name_H-M	'P1'
_symmetry_Int_Tables_number	1
_symmetry_cell_setting	triclinic
loop_
_symmetry_equiv_pos_as_xyz
  x,y,z
_cell_length_a	25.639239
_cell_length_b	17.077404
_cell_length_c	17.077396
_cell_angle_alpha	89.980301
_cell_angle_beta	90.031074
_cell_angle_gamma	89.964245
loop_
_atom_site_label
_atom_site_type_symbol
_atom_site_fract_x
_atom_site_fract_y
_atom_site_fract_z
Zn1	Zn	-0.208192	-1.199968	0.443833
Zn2	Zn	-0.295629	-1.199839	0.312561
Zn3	Zn	-0.208205	-1.068700	0.312580
Zn4	Zn	-0.295593	-1.068632	0.443784
O5	O	-0.251905	-1.134285	0.378189
O6	O	-0.219800	-1.309798	0.426431
O7	O	-0.284053	-1.182418	0.202716
O8	O	-0.135038	-1.086196	0.330020
O9	O	-0.284040	-1.309703	0.329986
O10	O	-0.135028	-1.182638	0.426450
O11	O	-0.219823	-1.086071	0.202731
O12	O	-0.219788	-0.958844	0.329972
O13	O	-0.283979	-1.086080	0.553637
O14	O	-0.283992	-0.958794	0.426367
O15	O	-0.219765	-1.182572	0.553673
O16	O	-0.368790	-1.182352	0.329939
O17	O	-0.368763	-1.085954	0.426348
C18	C	-0.251888	-0.930337	0.378167
C19	C	-0.251893	-0.843087	0.378176
C20	C	-0.218503	-0.802147	0.428471
C21	C	-0.218505	-0.720167	0.428472
C22	C	-0.251901	-0.679128	0.378183
C23	C	-0.285294	-0.720074	0.327883
C24	C	-0.285288	-0.802053	0.327878
C25	C	-0.285304	-0.549204	0.327898
C26	C	-0.285310	-0.467219	0.327904
C27	C	-0.218521	-0.467318	0.428493
C28	C	-0.218515	-0.549297	0.428488
C29	C	-0.251908	-0.590237	0.378189
C30	C	-0.387748	-1.134153	0.378153
C31	C	-0.445862	-1.134168	0.378164
C32	C	-0.806226	-1.184610	0.328075
C33	C	-0.860830	-1.184641	0.328085
O34	O	-0.889068	-1.227391	0.285458
N35	N	-0.888144	-1.134423	0.378241
C36	C	-0.860851	-1.084177	0.428396
O37	O	-0.889097	-1.041467	0.471059
C38	C	-0.806247	-1.084151	0.428389
C39	C	-0.778936	-1.134367	0.378224
C40	C	-0.778915	-1.234822	0.277914
C41	C	-0.724314	-1.234790	0.277903
C42	C	-0.697025	-1.184547	0.328052
C43	C	-0.724336	-1.134335	0.378212
C44	C	-0.778955	-1.033910	0.478547
C45	C	-0.724348	-1.033889	0.478536
C46	C	-0.697037	-1.084104	0.428371
C47	C	-0.642446	-1.084060	0.428350
N48	N	-0.615132	-1.134277	0.378194
C49	C	-0.642421	-1.184521	0.328045
C50	C	-0.975521	-1.084236	0.428408
C51	C	-1.030124	-1.084258	0.428412
C52	C	-1.030099	-1.184722	0.328102
C53	C	-0.975496	-1.184696	0.328095
C54	C	-0.948207	-1.134454	0.378252
C55	C	-0.527756	-1.184450	0.328024
C56	C	-0.473151	-1.184412	0.328015
C57	C	-0.473180	-1.083951	0.428328
C58	C	-0.527781	-1.083986	0.428334
C59	C	-0.555067	-1.134242	0.378180
O60	O	-0.614174	-1.041333	0.470958
O61	O	-0.614168	-1.227232	0.285396
C62	C	-0.115532	-1.134439	0.378243
C63	C	-0.057418	-1.134504	0.378265
C64	C	-0.251866	-1.134332	0.582934
C65	C	-0.251850	-1.134353	0.670184
C66	C	-0.251920	-0.339029	0.378206
C67	C	-0.251919	-0.426279	0.378199
C68	C	-0.251906	-1.134283	0.174241
C69	C	-0.251775	-1.134415	0.086992
C70	C	-0.218411	-1.184598	0.711194
C71	C	-0.218394	-1.184608	0.793174
C72	C	-0.251818	-1.134375	0.834143
C73	C	-0.285259	-1.084124	0.793127
C74	C	-0.285273	-1.084111	0.711148
C75	C	-0.285227	-1.084156	0.963997
C76	C	-0.285214	-1.084169	1.045982
C77	C	-0.218348	-1.184652	1.046023
C78	C	-0.218362	-1.184639	0.964044
C79	C	-0.251803	-1.134389	0.923034
H80	H	-0.312483	-0.686653	0.286932
C81	C	-0.147988	-1.195647	1.138222
C82	C	-0.181579	-1.239881	1.091092
H83	H	-0.125288	-1.229743	1.166042
H84	H	-0.167890	-1.165743	1.174355
H85	H	-0.127999	-1.161464	1.106229
H86	H	-0.201571	-1.274059	1.123086
H87	H	-0.161675	-1.269798	1.054955
C88	C	-0.148045	-1.195585	0.871895
C89	C	-0.181612	-1.239845	0.919017
H90	H	-0.125356	-1.229665	0.844097
H91	H	-0.128048	-1.161414	0.903886
H92	H	-0.167970	-1.165669	0.835736
H93	H	-0.161687	-1.269758	0.955179
H94	H	-0.201611	-1.274030	0.887023
C95	C	-0.351301	-0.984832	1.037711
C96	C	-0.321950	-1.028948	1.091017
H97	H	-0.373978	-0.950737	1.065516
H98	H	-0.371312	-1.018998	1.005735
H99	H	-0.328516	-0.954830	1.005740
H100	H	-0.344734	-1.058954	1.122985
H101	H	-0.301938	-0.994777	1.123007
H102	H	-0.191330	-0.433980	0.469447
C103	C	-0.640657	-0.989233	0.523076
C104	C	-0.694353	-0.978659	0.533671
H105	H	-0.622142	-0.955138	0.557116
H106	H	-0.631742	-0.977764	0.470329
H107	H	-0.631673	-1.041965	0.534610
H108	H	-0.703338	-0.925928	0.522131
H109	H	-0.703273	-0.990122	0.586429
C110	C	-0.355566	-1.073173	0.871766
C111	C	-0.321986	-1.028929	0.918907
H112	H	-0.378257	-1.039082	0.843924
H113	H	-0.375560	-1.107346	0.903749
H114	H	-0.335651	-1.103086	0.835646
H115	H	-0.341901	-0.999020	0.955031
H116	H	-0.301990	-0.994742	0.886922
H117	H	-0.549967	-1.225375	0.287186
H118	H	-0.191195	-1.225506	0.677843
H119	H	-0.312505	-0.433807	0.286954
C120	C	-0.351333	-0.540876	0.228481
C121	C	-0.322014	-0.594207	0.272615
H122	H	-0.373999	-0.568661	0.194359
H123	H	-0.328531	-0.508912	0.198514
H124	H	-0.371358	-0.508894	0.262640
H125	H	-0.301985	-0.626184	0.238456
H126	H	-0.344818	-0.626184	0.302584
H127	H	-0.312471	-1.043221	0.826491
H128	H	-0.191309	-0.835555	0.469424
H129	H	-0.953306	-1.043317	0.469250
H130	H	-0.191166	-1.225524	0.826561
C131	C	-0.351379	-0.984812	0.719336
C132	C	-0.322039	-1.028894	0.666067
H133	H	-0.374080	-0.950728	0.691504
H134	H	-0.328594	-0.954809	0.751308
H135	H	-0.371369	-1.019008	0.751316
H136	H	-0.302046	-0.994698	0.634091
H137	H	-0.344828	-1.058899	0.634081
C138	C	-0.351313	-0.793726	0.228461
C139	C	-0.321996	-0.847057	0.272597
H140	H	-0.373977	-0.821511	0.194335
H141	H	-0.328511	-0.761759	0.198499
H142	H	-0.371341	-0.761747	0.262619
H143	H	-0.301964	-0.879032	0.238440
H144	H	-0.344801	-0.879037	0.302562
H145	H	-0.191316	-0.686837	0.469429
H146	H	-0.450916	-1.225303	0.287162
C147	C	-0.729791	-1.334107	0.178767
C148	C	-0.694298	-1.290001	0.222771
H149	H	-0.711262	-1.368198	0.144736
H150	H	-0.751119	-1.299933	0.148711
H151	H	-0.751058	-1.364111	0.213015
H152	H	-0.673034	-1.259992	0.188523
H153	H	-0.672961	-1.324178	0.252830
H154	H	-0.801128	-1.275740	0.237077
H155	H	-0.953262	-1.225586	0.287247
H156	H	-0.191324	-0.582708	0.469442
H157	H	-1.052356	-1.043360	0.469254
C158	C	-1.091394	-1.290411	0.317397
C159	C	-1.060079	-1.240021	0.273015
H160	H	-1.109894	-1.324567	0.283400
H161	H	-1.115487	-1.260505	0.347234
H162	H	-1.070036	-1.320343	0.351648
H163	H	-1.081438	-1.210084	0.238768
H164	H	-1.035984	-1.269929	0.243165
C165	C	-0.773471	-0.934624	0.577711
C166	C	-0.808966	-0.978716	0.533696
H167	H	-0.791999	-0.900552	0.611764
H168	H	-0.752212	-0.904607	0.543478
H169	H	-0.752137	-0.968813	0.607752
H170	H	-0.830298	-0.944527	0.503650
H171	H	-0.830234	-1.008736	0.567934
H172	H	-0.450953	-1.043040	0.469156
C173	C	-0.522317	-0.984683	0.527490
C174	C	-0.557804	-1.028789	0.483476
H175	H	-0.540851	-0.950615	0.561540
H176	H	-0.501062	-0.954660	0.493256
H177	H	-0.500978	-1.018863	0.557534
H178	H	-0.579141	-0.994609	0.453427
H179	H	-0.579069	-1.058814	0.517714
