data_functionalizedCrystal
_audit_creation_method	'MofGen! by Chris Wilmer'
_symmetry_space_group_name_H-M	'P1'
_symmetry_Int_Tables_number	1
_symmetry_cell_setting	triclinic
loop_
_symmetry_equiv_pos_as_xyz
  x,y,z
_cell_length_a	10.540510
_cell_length_b	10.540539
_cell_length_c	9.616153
_cell_angle_alpha	89.999323
_cell_angle_beta	89.991036
_cell_angle_gamma	95.480599
loop_
_atom_site_label
_atom_site_type_symbol
_atom_site_fract_x
_atom_site_fract_y
_atom_site_fract_z
O1	O	1.685918	-0.178714	-0.115647
O2	O	1.316500	-0.195609	-0.115647
O3	O	1.509637	-0.002454	-0.115646
O4	O	1.492781	-0.371869	-0.115649
O5	O	1.509603	-0.002461	0.115646
O6	O	1.316466	-0.195616	0.115644
O7	O	1.685884	-0.178721	0.115644
Zn8	Zn	1.501170	-0.187170	0.152367
Zn9	Zn	1.501214	-0.187160	-0.152370
O10	O	1.492747	-0.371876	0.115642
C11	C	1.269179	-0.194354	-0.000002
C12	C	1.128229	-0.190587	-0.000002
C13	C	0.910774	-0.324771	-0.000535
C14	C	1.057370	-0.328789	-0.000005
C15	C	1.083450	-0.119845	0.132074
C16	C	0.936689	-0.116806	0.132176
C17	C	0.936922	-0.113919	-0.130845
C18	C	1.083263	-0.120474	-0.132583
C19	C	1.508356	0.044845	-0.000002
C20	C	1.504574	0.185793	-0.000010
C21	C	1.733204	-0.179976	-0.000004
C22	C	1.874154	-0.183743	-0.000013
C23	C	1.494028	-0.419175	-0.000004
C24	C	1.497810	-0.560123	-0.000006
N25	N	1.501149	-0.187176	0.360341
C26	C	1.359655	0.369204	-0.000529
C27	C	1.363489	0.222587	-0.000008
C28	C	1.572451	0.247454	0.132069
C29	C	1.567636	0.393997	0.132180
C30	C	1.570544	0.394525	-0.130841
C31	C	1.571844	0.247543	-0.132588
C32	C	1.397511	-0.290158	0.580710
C33	C	1.397744	-0.290541	0.419543
C34	C	1.633872	-0.217296	0.418790
C35	C	1.633302	-0.218028	0.580008
C36	C	1.473369	-0.053744	0.580254
C37	C	1.470328	-0.054606	0.419027
N38	N	1.501215	-0.187159	0.639656
H39	H	1.132332	-0.019576	-0.140558
O40	O	1.340989	-0.024369	0.368436
H41	H	1.351410	0.065380	0.307367
O42	O	1.096261	-0.402121	-0.125404
H43	H	1.048893	-0.500734	-0.121472
O44	O	0.855198	-0.396100	-0.125986
H45	H	0.892707	-0.347754	-0.222120
H46	H	0.913693	-0.013440	0.138177
O47	O	1.563765	0.051807	0.365694
H48	H	1.633947	0.011689	0.296220
H49	H	1.548981	0.022918	0.618371
O50	O	1.510150	0.436352	-0.263472
H51	H	1.477307	0.351255	-0.326455
O52	O	1.420900	-0.420535	0.634346
H53	H	1.437229	-0.483939	0.545267
H54	H	1.303937	0.397802	-0.095245
O55	O	1.509964	0.191016	0.262267
H56	H	1.472199	0.267783	0.324428
O57	O	1.121184	-0.188642	-0.262020
H58	H	1.034515	-0.221332	-0.322537
H59	H	0.894388	-0.157499	-0.230953
O60	O	1.666855	-0.344773	0.365298
H61	H	1.760897	-0.365003	0.407340
H62	H	1.415645	-0.389523	0.380962
O63	O	0.853155	-0.395679	0.124237
H64	H	0.747839	-0.396410	0.120537
O65	O	1.292737	0.166144	-0.125418
H66	H	1.295413	0.061132	-0.125175
O67	O	1.702034	0.457553	0.140158
H68	H	1.712608	0.517189	0.235341
H69	H	1.522179	0.206682	-0.230296
O70	O	1.095014	-0.402392	0.125719
H71	H	1.008460	-0.435257	0.186373
O72	O	1.266470	-0.266533	0.632134
H73	H	1.204244	-0.250470	0.541970
H74	H	1.674706	0.223333	-0.140563
O75	O	0.907577	0.023524	-0.132047
H76	H	0.848582	0.042077	-0.039969
O77	O	1.286106	0.409176	0.124237
H78	H	1.347522	0.479158	0.186622
H79	H	0.896459	-0.165157	0.230904
H80	H	1.130839	-0.018103	0.136987
O81	O	1.347858	-0.015784	0.634179
H82	H	1.330428	0.078581	0.590805
O83	O	1.738599	-0.120638	0.367999
H84	H	1.809229	-0.169898	0.307862
H85	H	1.657656	-0.315363	0.617595
H86	H	1.309676	0.180822	0.094829
O87	O	1.705526	0.457098	-0.132041
H88	H	1.720799	0.520200	-0.039959
O89	O	1.501146	0.431359	0.262951
H90	H	1.402910	0.382964	0.265258
H91	H	1.114290	-0.168980	0.230365
O92	O	1.709690	0.217854	0.138586
H93	H	1.755459	0.262498	0.232813
H94	H	1.299127	-0.272420	0.380028
H95	H	1.712945	-0.146030	0.618997
