data_functionalizedCrystal
_audit_creation_method	'MofGen! by Chris Wilmer'
_symmetry_space_group_name_H-M	'P1'
_symmetry_Int_Tables_number	1
_symmetry_cell_setting	triclinic
loop_
_symmetry_equiv_pos_as_xyz
  x,y,z
_cell_length_a	18.050591
_cell_length_b	18.050590
_cell_length_c	18.050582
_cell_angle_alpha	90.023337
_cell_angle_beta	90.010544
_cell_angle_gamma	90.017393
loop_
_atom_site_label
_atom_site_type_symbol
_atom_site_fract_x
_atom_site_fract_y
_atom_site_fract_z
Zn1	Zn	1.135342	-0.295730	0.419822
Zn2	Zn	1.135274	-0.419913	0.295630
Zn3	Zn	1.011162	-0.295739	0.295655
Zn4	Zn	1.011131	-0.419880	0.419788
O5	O	1.073227	-0.357815	0.357724
O6	O	1.239258	-0.312213	0.403351
O7	O	1.118795	-0.403459	0.191709
O8	O	1.027676	-0.191813	0.312151
O9	O	1.239208	-0.403450	0.312108
O10	O	1.118911	-0.191806	0.403376
O11	O	1.027610	-0.312228	0.191727
O12	O	0.907233	-0.312196	0.312118
O13	O	1.027623	-0.403393	0.523717
O14	O	0.907210	-0.403402	0.403318
O15	O	1.118881	-0.312181	0.523742
O16	O	1.118764	-0.523833	0.312075
O17	O	1.027557	-0.523809	0.403294
C18	C	0.880275	-0.357797	0.357718
C19	C	0.797729	-0.357807	0.357733
C20	C	0.548913	-0.407508	0.407260
C21	C	0.598286	-0.425579	0.339473
C22	C	0.500609	-0.357831	0.357731
C23	C	0.598317	-0.339783	0.425514
C24	C	0.646594	-0.357821	0.357736
C25	C	0.548895	-0.375937	0.289909
C26	C	0.548922	-0.290110	0.375996
C27	C	0.598273	-0.308155	0.308163
C28	C	0.416511	-0.357838	0.357730
C29	C	0.730690	-0.357813	0.357730
C30	C	1.073170	-0.550767	0.357694
C31	C	1.073214	-0.633313	0.357706
C32	C	1.122915	-0.832750	0.308171
C33	C	1.141051	-0.882089	0.375950
C34	C	1.073256	-0.784444	0.357736
C35	C	1.055196	-0.882186	0.289988
C36	C	1.073298	-0.930429	0.357759
C37	C	1.091426	-0.832695	0.425550
C38	C	1.005539	-0.832788	0.339543
C39	C	1.023649	-0.882105	0.407368
C40	C	1.073233	-0.700345	0.357722
C41	C	1.073320	-1.014525	0.357780
C42	C	1.266933	-0.357834	0.357730
C43	C	1.349478	-0.357842	0.357733
C44	C	1.073256	-0.357782	0.551430
C45	C	1.073269	-0.357768	0.633975
C46	C	1.073305	-0.164110	0.357770
C47	C	1.073338	-0.081564	0.357789
C48	C	1.073241	-0.357794	0.164772
C49	C	1.073372	-0.357599	0.082226
C50	C	1.023680	-0.407302	0.833413
C51	C	1.091439	-0.425457	0.882799
C52	C	1.073305	-0.357712	0.785106
C53	C	1.005584	-0.339536	0.882802
C54	C	1.073335	-0.357658	0.931091
C55	C	1.141099	-0.375902	0.833405
C56	C	1.055199	-0.289950	0.833403
C57	C	1.123004	-0.308079	0.882767
C58	C	1.073287	-0.357744	0.701008
C59	C	1.073360	-0.357626	1.015188
H60	H	1.164925	-0.811079	0.266299
O61	O	0.937163	-0.807015	0.321232
C62	C	0.807311	-0.803918	0.352024
C63	C	0.884701	-0.833171	0.372846
H64	H	0.764877	-0.825041	0.393751
H65	H	0.791914	-0.824239	0.294228
H66	H	0.807860	-0.740767	0.352705
H67	H	0.884211	-0.896321	0.372208
H68	H	0.900067	-0.812794	0.430630
O69	O	1.109631	-0.806913	0.493979
C70	C	1.078339	-0.803433	0.623705
C71	C	1.057625	-0.832668	0.546252
H72	H	1.036312	-0.824256	0.665991
H73	H	1.078160	-0.740277	0.623182
H74	H	1.135920	-0.824164	0.639287
H75	H	1.000040	-0.811991	0.530622
H76	H	1.057855	-0.895822	0.546816
H77	H	0.527277	-0.391267	0.232572
O78	O	1.173195	-0.258014	0.908335
C79	C	1.265436	-0.166730	0.877001
C80	C	1.208629	-0.223410	0.847946
H81	H	1.294089	-0.138726	0.828191
H82	H	1.308466	-0.196293	0.912530
H83	H	1.235764	-0.123171	0.911801
H84	H	1.238237	-0.266984	0.813114
H85	H	1.165602	-0.193796	0.812457
H86	H	0.981754	-0.449294	0.811743
H87	H	1.198335	-0.903747	0.391353
O88	O	1.036756	-0.221657	0.807525
C89	C	0.944496	-0.125293	0.803324
C90	C	0.965293	-0.202647	0.832669
H91	H	0.886724	-0.109892	0.823653
H92	H	0.945146	-0.125830	0.740171
H93	H	0.986254	-0.082863	0.824465
H94	H	0.923556	-0.245119	0.811582
H95	H	0.964666	-0.202048	0.895820
O96	O	0.937192	-0.321305	0.908601
C97	C	0.807587	-0.353056	0.912818
C98	C	0.884997	-0.373769	0.883540
H99	H	0.765369	-0.395470	0.892581
H100	H	0.791670	-0.295738	0.891633
H101	H	0.808427	-0.352650	0.975969
H102	H	0.884216	-0.374218	0.820392
H103	H	0.900883	-0.431074	0.904782
H104	H	0.619809	-0.266140	0.266232
O105	O	0.523061	-0.221835	0.394580
C106	C	0.518894	-0.125603	0.487046
C107	C	0.548219	-0.202937	0.466090
H108	H	0.539235	-0.110293	0.544856
H109	H	0.455741	-0.126119	0.486381
H110	H	0.540039	-0.083120	0.445385
H111	H	0.527128	-0.245463	0.507731
H112	H	0.611370	-0.202359	0.466732
O113	O	0.624129	-0.321659	0.493952
C114	C	0.628358	-0.353600	0.623489
C115	C	0.599065	-0.374191	0.546027
H116	H	0.608118	-0.396069	0.665610
H117	H	0.607186	-0.296299	0.639525
H118	H	0.691508	-0.353211	0.622665
H119	H	0.535917	-0.374623	0.546793
H120	H	0.620294	-0.431479	0.530022
H121	H	0.527240	-0.449554	0.449090
O122	O	0.973579	-0.907926	0.457382
C123	C	0.917009	-1.015179	0.513199
C124	C	0.973721	-0.986035	0.456517
H125	H	0.917116	-1.078333	0.512529
H126	H	0.859411	-0.994082	0.498178
H127	H	0.932555	-0.994691	0.570895
H128	H	0.958244	-1.006511	0.398801
H129	H	1.031303	-1.007126	0.471602
H130	H	1.039903	-0.903925	0.232685
H131	H	1.198399	-0.391318	0.811797
O132	O	0.624123	-0.493940	0.321159
C133	C	0.628246	-0.623598	0.352611
C134	C	0.598957	-0.546217	0.373441
H135	H	0.607898	-0.665888	0.394861
H136	H	0.691399	-0.622846	0.352292
H137	H	0.607081	-0.639353	0.295217
H138	H	0.620067	-0.530414	0.430839
H139	H	0.535805	-0.547011	0.373709
O140	O	1.109609	-0.493836	0.908655
C141	C	1.077872	-0.623446	0.912807
C142	C	1.057206	-0.546045	0.883494
H143	H	1.035525	-0.665680	0.892463
H144	H	1.078204	-0.622671	0.975960
H145	H	1.135226	-0.639294	0.891655
H146	H	0.999848	-0.530148	0.904590
H147	H	1.056925	-0.546861	0.820342
