data_functionalizedCrystal
_audit_creation_method	'MofGen! by Chris Wilmer'
_symmetry_space_group_name_H-M	'P1'
_symmetry_Int_Tables_number	1
_symmetry_cell_setting	triclinic
loop_
_symmetry_equiv_pos_as_xyz
  x,y,z
_cell_length_a	14.519709
_cell_length_b	10.489741
_cell_length_c	13.596369
_cell_angle_alpha	89.994306
_cell_angle_beta	90.000291
_cell_angle_gamma	84.109659
loop_
_atom_site_label
_atom_site_type_symbol
_atom_site_fract_x
_atom_site_fract_y
_atom_site_fract_z
O1	O	1.224779	0.167203	-0.081663
O2	O	1.724779	0.667203	0.418337
O3	O	0.956410	0.186894	-0.081693
O4	O	1.456410	0.686894	0.418307
O5	O	1.096701	-0.008613	-0.081671
O6	O	1.596701	0.491387	0.418329
O7	O	1.084488	0.362710	-0.081684
O8	O	1.584488	0.862710	0.418316
O9	O	1.096687	-0.008623	0.081912
O10	O	1.596687	0.491377	0.581912
O11	O	0.956396	0.186883	0.081890
O12	O	1.456396	0.686883	0.581890
O13	O	1.224765	0.167193	0.081920
O14	O	1.724765	0.667193	0.581920
Zn15	Zn	1.090578	0.177037	0.107878
Zn16	Zn	1.590578	0.677037	0.607878
Zn17	Zn	1.090597	0.177050	-0.107650
Zn18	Zn	1.590597	0.677050	0.392350
O19	O	1.084474	0.362700	0.081899
O20	O	1.584474	0.862700	0.581899
C21	C	0.922038	0.185971	0.000095
C22	C	1.422038	0.685971	0.500095
C23	C	0.819642	0.183221	0.000084
C24	C	1.319642	0.683221	0.500084
C25	C	0.444691	0.173098	0.000129
C26	C	0.944691	0.673098	0.500129
C27	C	0.549014	0.175909	0.000116
C28	C	1.049014	0.675909	0.500116
C29	C	0.632163	0.178159	0.000105
C30	C	1.132163	0.678159	0.500105
C31	C	0.736493	0.180971	0.000094
C32	C	1.236493	0.680971	0.500094
C33	C	1.095772	-0.056140	0.000120
C34	C	1.595772	0.443860	0.500120
C35	C	1.093012	-0.197741	0.000118
C36	C	1.593012	0.302259	0.500118
C37	C	1.003749	-0.264951	0.000100
C38	C	1.503749	0.235049	0.500100
C39	C	1.045909	-0.357518	0.080760
C40	C	1.545909	0.142482	0.580760
C41	C	1.045944	-0.357482	-0.080520
C42	C	1.545944	0.142518	0.419480
C43	C	1.135209	-0.288443	0.080844
C44	C	1.635209	0.211557	0.580844
C45	C	1.135232	-0.288398	-0.080509
C46	C	1.635232	0.211602	0.419491
C47	C	1.177457	-0.380938	0.000171
C48	C	1.677457	0.119062	0.500171
C49	C	1.259137	0.168116	0.000130
C50	C	1.759137	0.668116	0.500130
C51	C	1.361533	0.170866	0.000135
C52	C	1.861533	0.670866	0.500135
C53	C	1.085403	0.410227	0.000106
C54	C	1.585403	0.910227	0.500106
C55	C	1.088163	0.551828	0.000101
C56	C	1.588163	1.051828	0.500101
N57	N	1.090572	0.177026	0.254969
N58	N	1.590572	0.677026	0.754969
N59	N	1.090610	0.177050	-0.254742
N60	N	1.590610	0.677050	0.245258
C61	C	1.090596	0.177052	0.656260
C62	C	1.590596	0.677052	1.156260
C63	C	1.090586	0.177049	0.544609
C64	C	1.590586	0.677049	1.044609
C65	C	1.090584	0.177040	0.455618
C66	C	1.590584	0.677040	0.955618
C67	C	1.090574	0.177035	0.343960
C68	C	1.590574	0.677035	0.843960
H69	H	1.008134	-0.388140	0.148944
H70	H	1.508134	0.111860	0.648944
H71	H	1.008169	-0.388048	-0.148718
H72	H	1.508169	0.111952	0.351282
H73	H	0.930357	-0.214534	0.000173
H74	H	1.430357	0.285466	0.500173
C75	C	1.185414	-0.247302	-0.171458
C76	C	1.685414	0.252698	0.328542
C77	C	1.125697	-0.161290	-0.226260
C78	C	1.625697	0.338710	0.273740
C79	C	1.171889	-0.123388	-0.310050
C80	C	1.671889	0.376612	0.189950
H81	H	1.204512	-0.320394	-0.210453
H82	H	1.704512	0.179606	0.289547
H83	H	1.238154	-0.206821	-0.152121
H84	H	1.738154	0.293179	0.347879
H85	H	1.072974	-0.201773	-0.245598
H86	H	1.572974	0.298227	0.254402
H87	H	1.106596	-0.088180	-0.187294
H88	H	1.606596	0.411820	0.312706
H89	H	1.224629	-0.082907	-0.290713
H90	H	1.724629	0.417093	0.209287
H91	H	1.190985	-0.196487	-0.349037
H92	H	1.690985	0.303513	0.150963
H93	H	1.131381	-0.065017	-0.347239
H94	H	1.631381	0.434983	0.152761
C95	C	1.185448	-0.247612	0.171840
C96	C	1.685448	0.252388	0.671840
C97	C	1.187395	-0.114447	0.170820
C98	C	1.687395	0.385553	0.670820
C99	C	1.233652	-0.076783	0.254635
C100	C	1.733652	0.423217	0.754635
H101	H	1.247003	-0.288241	0.172167
H102	H	1.747003	0.211759	0.672167
H103	H	1.153935	-0.271750	0.229067
H104	H	1.653935	0.228250	0.729067
H105	H	1.218909	-0.090322	0.113608
H106	H	1.718909	0.409678	0.613608
H107	H	1.125852	-0.073786	0.170508
H108	H	1.625852	0.426214	0.670508
H109	H	1.202139	-0.100920	0.311862
H110	H	1.702139	0.399080	0.811862
H111	H	1.295204	-0.117419	0.254954
H112	H	1.795204	0.382581	0.754954
H113	H	1.234971	0.013574	0.253958
H114	H	1.734971	0.513574	0.753958
C115	C	1.275420	-0.447808	0.000440
C116	C	1.775420	0.052192	0.500440
C117	C	1.321705	-0.412807	0.085043
C118	C	1.821705	0.087193	0.585043
C119	C	1.411943	-0.474398	0.085336
C120	C	1.911943	0.025602	0.585336
H121	H	1.307485	-0.423146	-0.056242
H122	H	1.807485	0.076854	0.443758
H123	H	1.273168	-0.538003	-0.000052
H124	H	1.773168	-0.038003	0.499948
H125	H	1.323961	-0.322632	0.085525
H126	H	1.823961	0.177368	0.585525
H127	H	1.289668	-0.437471	0.141738
H128	H	1.789668	0.062529	0.641738
H129	H	1.409691	-0.564593	0.084844
H130	H	1.909691	-0.064593	0.584844
H131	H	1.443999	-0.449731	0.028651
H132	H	1.943999	0.050269	0.528651
H133	H	1.443356	-0.450668	0.142742
H134	H	1.943356	0.049332	0.642742
