data_functionalizedCrystal
_audit_creation_method	'MofGen! by Chris Wilmer'
_symmetry_space_group_name_H-M	'P1'
_symmetry_Int_Tables_number	1
_symmetry_cell_setting	triclinic
loop_
_symmetry_equiv_pos_as_xyz
  x,y,z
_cell_length_a	17.038272
_cell_length_b	19.188930
_cell_length_c	16.098538
_cell_angle_alpha	92.708456
_cell_angle_beta	87.069734
_cell_angle_gamma	87.128169
loop_
_atom_site_label
_atom_site_type_symbol
_atom_site_fract_x
_atom_site_fract_y
_atom_site_fract_z
O1	O	1.040399	0.148677	-0.069168
O2	O	1.540399	0.648677	0.430832
O3	O	0.812777	0.146269	-0.069192
O4	O	1.312777	0.646269	0.430808
O5	O	0.933156	0.046226	-0.069163
O6	O	1.433156	0.546226	0.430837
O7	O	0.920020	0.248720	-0.069197
O8	O	1.420020	0.748720	0.430803
O9	O	0.926124	0.052046	0.069348
O10	O	1.426124	0.552046	0.569348
O11	O	0.805745	0.152089	0.069319
O12	O	1.305745	0.652089	0.569319
O13	O	1.033367	0.154497	0.069343
O14	O	1.533367	0.654497	0.569343
Zn15	Zn	0.918440	0.154217	0.091323
Zn16	Zn	1.418440	0.654217	0.591323
Zn17	Zn	0.927705	0.146549	-0.091172
Zn18	Zn	1.427705	0.646549	0.408828
O19	O	0.912989	0.254540	0.069314
O20	O	1.412989	0.754540	0.569314
C21	C	0.780140	0.146990	0.000061
C22	C	1.280140	0.646990	0.500061
C23	C	0.693368	0.140458	0.000052
C24	C	1.193368	0.640458	0.500052
C25	C	0.929215	0.023099	0.000095
C26	C	1.429215	0.523099	0.500095
C27	C	0.927937	-0.054485	0.000102
C28	C	1.427937	0.445515	0.500102
C29	C	0.643067	0.200424	0.000043
C30	C	1.143067	0.700424	0.500043
C31	C	0.561535	0.194283	0.000055
C32	C	1.061535	0.694283	0.500055
C33	C	0.530306	0.128176	0.000071
C34	C	1.030306	0.628176	0.500071
C35	C	0.580613	0.068205	0.000083
C36	C	1.080613	0.568205	0.500083
C37	C	0.662144	0.074347	0.000077
C38	C	1.162144	0.574347	0.500077
C39	C	0.284615	0.106479	0.000097
C40	C	0.784615	0.606479	0.500097
C41	C	0.203078	0.100342	0.000101
C42	C	0.703078	0.600342	0.500101
C43	C	0.184005	0.226420	0.000075
C44	C	0.684005	0.726420	0.500075
C45	C	0.265538	0.232556	0.000063
C46	C	0.765538	0.732556	0.500063
C47	C	0.315838	0.172586	0.000080
C48	C	0.815838	0.672586	0.500080
C49	C	0.446968	0.121897	0.000081
C50	C	0.946968	0.621897	0.500081
C51	C	0.399175	0.178865	0.000075
C52	C	0.899175	0.678865	0.500075
C53	C	0.998572	-0.095020	0.000113
C54	C	1.498572	0.404980	0.500113
C55	C	0.997373	-0.167919	0.000100
C56	C	1.497373	0.332081	0.500100
C57	C	0.925534	-0.200279	0.000092
C58	C	1.425534	0.299721	0.500092
C59	C	0.854890	-0.159735	0.000076
C60	C	1.354890	0.340265	0.500076
C61	C	0.856092	-0.086838	0.000081
C62	C	1.356092	0.413162	0.500081
N63	N	0.868229	-0.309715	0.047224
N64	N	1.368229	0.190285	0.547224
N65	N	0.867092	-0.378964	0.047221
N66	N	1.367092	0.121036	0.547221
C67	C	0.921910	-0.419913	0.000075
C68	C	1.421910	0.080087	0.500075
N69	N	0.977918	-0.388997	-0.047058
N70	N	1.477918	0.111003	0.452942
N71	N	0.979057	-0.319742	-0.047051
N72	N	1.479057	0.180258	0.452949
C73	C	0.924223	-0.279323	0.000086
C74	C	1.424223	0.220677	0.500086
C75	C	0.991249	-0.539494	0.000070
C76	C	1.491249	-0.039494	0.500070
C77	C	0.990047	-0.612395	0.000052
C78	C	1.490047	-0.112395	0.500052
C79	C	0.847562	-0.604208	0.000036
C80	C	1.347562	-0.104208	0.500036
C81	C	0.848767	-0.531310	0.000046
C82	C	1.348767	-0.031310	0.500046
C83	C	0.920612	-0.498957	0.000067
C84	C	1.420612	0.001043	0.500067
C85	C	1.066005	0.153776	0.000089
C86	C	1.566005	0.653776	0.500089
C87	C	1.152777	0.160308	0.000092
C88	C	1.652777	0.660308	0.500092
C89	C	0.916930	0.277667	0.000054
C90	C	1.416930	0.777667	0.500054
C91	C	0.918208	0.355250	0.000042
C92	C	1.418208	0.855250	0.500042
N93	N	0.912123	0.159449	0.215871
N94	N	1.412123	0.659449	0.715871
N95	N	0.934028	0.141311	-0.215719
N96	N	1.434028	0.641311	0.284281
C97	C	0.963235	0.117004	0.259468
C98	C	1.463235	0.617004	0.759468
C99	C	0.958823	0.120672	0.346656
C100	C	1.458823	0.620672	0.846656
C101	C	0.903302	0.166789	0.390245
C102	C	1.403302	0.666789	0.890245
C103	C	0.852184	0.209235	0.346641
C104	C	1.352184	0.709235	0.846641
C105	C	0.856593	0.205564	0.259455
C106	C	1.356593	0.705564	0.759455
C107	C	0.887319	0.180086	0.653491
C108	C	1.387319	0.680086	1.153491
C109	C	0.882916	0.183756	0.740683
C110	C	1.382916	0.683756	1.240683
C111	C	0.989554	0.095192	0.740692
C112	C	1.489554	0.595192	1.240692
C113	C	0.993961	0.091527	0.653504
C114	C	1.493961	0.591527	1.153504
C115	C	0.942841	0.133971	0.609908
C116	C	1.442841	0.633971	1.109908
C117	C	0.898792	0.170540	0.479365
C118	C	1.398792	0.670540	0.979365
C119	C	0.947347	0.130216	0.520790
C120	C	1.447347	0.630216	1.020790
H121	H	0.668487	0.254256	0.000029
H122	H	1.168487	0.754256	0.500029
H123	H	0.814971	0.240126	0.223959
H124	H	1.314971	0.740126	0.723959
Cl125	Cl	0.828997	0.228516	0.534166
Cl126	Cl	1.328997	0.728516	1.034166
Cl127	Cl	0.725380	-0.001042	0.000092
Cl128	Cl	1.225380	0.498958	0.500092
H129	H	1.047569	-0.645398	0.000056
H130	H	1.547569	-0.145398	0.500056
H131	H	0.789070	-0.630555	0.000025
H132	H	1.289070	-0.130555	0.500025
H133	H	1.049750	-0.513152	0.000084
H134	H	1.549750	-0.013152	0.500084
Cl135	Cl	1.017140	0.072240	0.465992
Cl136	Cl	1.517140	0.572240	0.965992
H137	H	0.520582	0.243114	0.000047
H138	H	1.020582	0.743114	0.500047
Cl139	Cl	1.088893	-0.054353	0.000117
Cl140	Cl	1.588893	0.445647	0.500117
H141	H	0.290958	0.286387	0.000041
H142	H	0.790958	0.786387	0.500041
Cl143	Cl	1.023078	0.067311	0.401466
Cl144	Cl	1.523078	0.567311	0.901466
Cl145	Cl	0.163820	0.017230	0.000140
Cl146	Cl	0.663820	0.517230	0.500140
H147	H	0.791248	-0.498305	0.000041
H148	H	1.291248	0.001695	0.500041
Cl149	Cl	1.086177	-0.218888	0.000114
Cl150	Cl	1.586177	0.281112	0.500114
Cl151	Cl	1.053813	0.041834	0.795502
Cl152	Cl	1.553813	0.541834	1.295502
H153	H	0.325560	0.057646	0.000111
H154	H	0.825560	0.557646	0.500111
Cl155	Cl	0.541354	-0.014902	0.000108
Cl156	Cl	1.041354	0.485098	0.500108
H157	H	1.039171	0.053976	0.618016
H158	H	1.539171	0.553976	1.118016
Cl159	Cl	0.764579	-0.200415	0.000058
Cl160	Cl	1.264579	0.299585	0.500058
H161	H	0.806974	0.246782	0.382136
H162	H	1.306974	0.746782	0.882136
H163	H	0.798571	-0.053834	0.000072
H164	H	1.298571	0.446166	0.500072
Cl165	Cl	1.033040	0.059030	0.204680
Cl166	Cl	1.533040	0.559030	0.704680
Cl167	Cl	0.813112	0.241738	0.795475
Cl168	Cl	1.313112	0.741738	1.295475
Cl169	Cl	0.120767	0.301807	0.000058
Cl170	Cl	0.620767	0.801807	0.500058
Cl171	Cl	0.823059	0.233446	0.598690
Cl172	Cl	1.323059	0.733446	1.098690
Cl173	Cl	0.438435	0.261969	0.000058
Cl174	Cl	0.938435	0.761969	0.500058
H175	H	0.421531	0.068073	0.000118
H176	H	0.921531	0.568073	0.500118
