data_functionalizedCrystal
_audit_creation_method	'MofGen! by Chris Wilmer'
_symmetry_space_group_name_H-M	'P1'
_symmetry_Int_Tables_number	1
_symmetry_cell_setting	triclinic
loop_
_symmetry_equiv_pos_as_xyz
  x,y,z
_cell_length_a	14.560438
_cell_length_b	21.606444
_cell_length_c	21.606444
_cell_angle_alpha	59.991153
_cell_angle_beta	90.003088
_cell_angle_gamma	60.004423
loop_
_atom_site_label
_atom_site_type_symbol
_atom_site_fract_x
_atom_site_fract_y
_atom_site_fract_z
Zr1	Zr	0.884752	0.677523	-0.081327
O2	O	0.738100	0.806656	-0.180177
O3	O	0.929708	0.548392	-0.051009
O4	O	0.929700	0.677528	-0.180153
O5	O	0.738116	0.677516	0.050822
O6	O	1.080838	0.677530	-0.180151
O7	O	0.738108	0.677520	-0.051032
O8	O	1.080853	0.446530	0.050864
O9	O	0.738100	0.908516	-0.180194
O10	O	1.061675	0.601507	-0.038095
O11	O	0.948888	0.601502	0.037916
O12	O	0.948878	0.753543	-0.114135
O13	O	0.836091	0.753538	-0.038123
Zr14	Zr	1.125812	0.677519	0.081122
Zr15	Zr	1.125800	0.677526	-0.081324
Zr16	Zr	0.884764	0.677516	0.081119
Zr17	Zr	0.884753	0.839979	-0.081354
Zr18	Zr	1.125811	0.515064	0.081149
O19	O	1.080856	0.806650	0.050804
O20	O	1.080839	0.806660	-0.180173
O21	O	0.738117	0.806646	0.050800
O22	O	1.272465	0.548386	0.179972
O23	O	1.272447	0.548396	-0.051005
O24	O	0.929726	0.548383	0.179968
O25	O	1.272449	0.677527	-0.051027
O26	O	1.080865	0.677514	0.179948
O27	O	0.929727	0.677513	0.179946
O28	O	1.272456	0.677522	0.050827
O29	O	0.929701	0.908519	-0.180192
O30	O	1.080863	0.446524	0.179987
O31	O	1.272464	0.446526	0.179989
O32	O	1.272454	0.446532	0.050866
O33	O	0.738110	0.908511	-0.051071
O34	O	0.929711	0.908513	-0.051069
O35	O	1.061687	0.601500	0.113930
O36	O	1.174474	0.601505	0.037918
O37	O	1.061676	0.753541	-0.038121
O38	O	0.948889	0.753536	0.037890
C39	C	1.005281	0.474315	-0.000068
C40	C	1.005280	0.405348	-0.000057
C41	C	0.922009	0.429084	-0.056186
C42	C	0.922012	0.364295	-0.056202
C43	C	1.005282	0.275770	-0.000085
C44	C	1.088561	0.252034	0.056047
C45	C	1.088562	0.316823	0.056059
C46	C	1.088561	-0.009252	0.056000
C47	C	1.088551	-0.074041	0.055985
C48	C	0.922011	0.038220	-0.056261
C49	C	0.922012	0.103009	-0.056249
C50	C	1.005294	0.079267	-0.000120
C51	C	1.005291	0.149520	-0.000104
C52	C	1.005281	0.205518	-0.000096
C53	C	0.703768	0.677518	-0.000106
C54	C	0.601437	0.677517	-0.000107
C55	C	0.612237	0.598157	0.039585
C56	C	0.516082	0.598161	0.039591
C57	C	0.398329	0.756892	-0.039791
C58	C	0.494483	0.756887	-0.039793
C59	C	0.719190	0.518787	0.079271
C60	C	0.729996	0.439420	0.118965
C61	C	0.633841	0.439425	0.118971
C62	C	0.526880	0.518795	0.079284
C63	C	1.306797	0.677525	-0.000099
C64	C	1.409128	0.677526	-0.000098
C65	C	1.005267	0.677530	-0.203297
C66	C	1.005262	0.677533	-0.272259
C67	C	1.005284	0.880728	-0.000136
C68	C	1.005284	0.949695	-0.000148
C69	C	0.946382	0.756894	-0.344350
C70	C	0.946392	0.756891	-0.409145
C71	C	1.005275	0.677527	-0.401848
C72	C	1.064162	0.598160	-0.329750
C73	C	1.064158	0.598164	-0.264956
C74	C	1.064180	0.598145	-0.591053
C75	C	1.064176	0.598148	-0.655853
C76	C	0.946413	0.756873	-0.735241
C77	C	0.946410	0.756876	-0.670448
C78	C	1.005301	0.677510	-0.598356
C79	C	1.005291	0.677513	-0.528098
C80	C	1.005279	0.677523	-0.472103
C81	C	1.005297	0.677513	0.203092
C82	C	1.005303	0.677510	0.272055
C83	C	1.306795	0.474318	-0.000065
C84	C	1.409126	0.405353	-0.000053
C85	C	1.005296	0.474306	0.203126
C86	C	1.005300	0.405336	0.272100
C87	C	1.306810	0.474309	0.203129
C88	C	1.409146	0.405341	0.272104
C89	C	0.703754	0.880733	-0.203334
C90	C	0.601418	0.949702	-0.272309
C91	C	0.703770	0.880725	-0.000140
C92	C	0.601439	0.949690	-0.000152
C93	C	1.005269	0.880737	-0.203331
C94	C	1.005264	0.949706	-0.272305
C95	C	1.398301	0.372967	-0.039732
C96	C	1.494443	0.308176	-0.039735
C97	C	1.601407	0.275767	-0.000054
C98	C	1.612229	0.308159	0.039626
C99	C	1.516089	0.372954	0.039625
C100	C	1.064182	0.372947	0.344176
C101	C	1.064182	0.308152	0.408991
C102	C	1.005307	0.275743	0.401728
C103	C	0.946417	0.308139	0.329644
C104	C	0.946411	0.372938	0.264831
C105	C	1.516088	0.372955	0.264819
C106	C	1.612252	0.308161	0.329622
C107	C	1.601473	0.275750	0.401710
C108	C	1.494520	0.308142	0.408994
C109	C	1.398358	0.372939	0.344192
C110	C	0.494477	0.982095	-0.265024
C111	C	0.398312	1.046909	-0.329827
C112	C	0.409092	1.079324	-0.401915
C113	C	0.516045	1.046928	-0.409199
C114	C	0.612207	0.982119	-0.344397
C115	C	0.612263	0.982082	0.039520
C116	C	0.516122	1.046892	0.039506
C117	C	0.409157	1.079303	-0.000178
C118	C	0.398335	1.046907	-0.039855
C119	C	0.494476	0.982104	-0.039844
C120	C	1.064151	0.982094	-0.265017
C121	C	1.064169	1.046890	-0.329820
C122	C	1.005292	1.079301	-0.401909
C123	C	0.946403	1.046906	-0.409195
C124	C	0.946392	0.982107	-0.344393
H125	H	1.156365	0.179951	0.101736
F126	F	1.126821	0.947612	-0.188301
H127	H	0.797491	0.518774	0.079268
H128	H	1.156374	-0.028594	0.101704
H129	H	0.699281	0.955745	-0.350338
H130	H	1.112122	1.073258	-0.323872
F131	F	0.843827	0.354954	0.161210
H132	H	0.699350	0.955698	0.071840
H133	H	1.112112	0.533541	-0.323813
H134	H	1.005309	1.132064	-0.454668
H135	H	0.898467	1.073305	-0.467898
F136	F	0.883707	0.841365	-0.352125
H137	H	0.524808	1.073328	-0.467901
H138	H	0.898467	0.399301	0.206146
H139	H	0.898435	0.955744	-0.350337
H140	H	0.854202	0.057545	-0.101967
F141	F	1.284471	0.407449	-0.081971
H142	H	0.330883	1.132070	-0.000180
F143	F	1.177193	0.291557	0.115797
F144	F	1.527586	0.407442	0.188103
H145	H	0.524955	1.073257	0.071819
F146	F	1.483065	0.273638	0.485722
H147	H	0.642644	0.374801	0.151298
H148	H	1.005320	0.222980	0.454509
H149	H	1.112133	0.533520	-0.532361
F150	F	0.883762	0.273638	0.321925
H151	H	1.311284	0.399300	0.350135
F152	F	1.703828	0.206785	0.470673
H153	H	0.854190	0.501163	-0.101875
F154	F	0.883724	0.841346	-0.678220
F155	F	0.833381	0.389564	-0.115940
F156	F	0.424546	0.518795	0.079299
H157	H	1.156364	-0.146126	0.101685
F158	F	1.126854	0.407424	0.351924
H159	H	1.699329	0.281794	0.323677
H160	H	0.485678	0.955707	-0.206332
H161	H	0.854201	0.175088	-0.101943
H162	H	1.112130	0.533516	-0.649904
H163	H	0.485685	0.821509	-0.072099
F164	F	0.284496	1.081374	-0.322058
F165	F	0.284487	1.081408	-0.082084
H166	H	0.311238	0.821512	-0.072104
H167	H	0.898448	0.821515	-0.467842
F168	F	0.883739	0.841342	-0.811973
H169	H	1.112104	0.533540	-0.206257
H170	H	0.330781	1.132095	-0.454675
F171	F	1.482902	0.273711	-0.081968
F172	F	1.703719	0.206805	-0.000059
F173	F	0.482938	0.947631	-0.082067
H174	H	1.524918	0.399314	0.071941
F175	F	1.726078	0.273657	0.081857
F176	F	1.126866	0.273683	0.485700
