data_functionalizedCrystal
_audit_creation_method	'MofGen! by Chris Wilmer'
_symmetry_space_group_name_H-M	'P1'
_symmetry_Int_Tables_number	1
_symmetry_cell_setting	triclinic
loop_
_symmetry_equiv_pos_as_xyz
  x,y,z
_cell_length_a	10.489763
_cell_length_b	13.262430
_cell_length_c	12.376457
_cell_angle_alpha	116.832113
_cell_angle_beta	78.610517
_cell_angle_gamma	84.487058
loop_
_atom_site_label
_atom_site_type_symbol
_atom_site_fract_x
_atom_site_fract_y
_atom_site_fract_z
O1	O	-0.027032	-1.512628	-0.559098
O2	O	-0.071727	-1.185866	-0.458633
O3	O	0.136842	-1.356664	-0.511125
O4	O	-0.235601	-1.341829	-0.506606
O5	O	0.084768	-1.313979	-0.309994
O6	O	-0.123802	-1.143181	-0.257503
O7	O	-0.079107	-1.469943	-0.357967
Zn8	Zn	-0.109722	-1.299785	-0.275801
Zn9	Zn	-0.041112	-1.356024	-0.540799
O10	O	-0.287676	-1.299145	-0.305476
C11	C	-0.100049	-1.122681	-0.345203
C12	C	-0.106840	-0.998004	-0.306870
C13	C	0.158239	-1.334194	-0.410210
C14	C	0.299578	-1.330822	-0.409164
C15	C	0.358470	-1.222132	-0.375749
C16	C	0.429282	-1.252420	-0.292357
C17	C	0.480601	-1.294530	-0.490664
C18	C	0.368508	-1.361138	-0.325704
C19	C	0.419838	-1.403251	-0.524096
C20	C	0.490623	-1.433613	-0.440704
C21	C	-0.012418	-0.739644	-0.637378
C22	C	-0.006031	-0.856785	-0.673396
C23	C	-0.031233	-0.892096	-0.581767
C24	C	-0.062823	-0.810254	-0.454115
C25	C	-0.069201	-0.693102	-0.418093
C26	C	-0.088015	-0.845554	-0.362483
C27	C	-0.119606	-0.763712	-0.234830
C28	C	-0.125983	-0.646573	-0.198815
C29	C	-0.100781	-0.611262	-0.290443
C30	C	-0.081638	-0.962706	-0.398504
C31	C	-0.138420	-0.916164	-0.179220
C32	C	-0.144808	-0.799023	-0.143201
C33	C	0.690918	-1.321592	-0.406367
C34	C	0.549553	-1.324900	-0.407342
C35	C	-0.050786	-0.533127	-0.471397
C36	C	-0.043998	-0.657803	-0.509728
N37	N	-0.156546	-1.261411	-0.094949
N38	N	0.005722	-1.394406	-0.721654
C39	C	0.114440	-1.483483	0.191786
C40	C	0.147211	-1.510334	0.065194
C41	C	0.071275	-1.448106	0.025152
C42	C	-0.037439	-1.359021	0.111714
C43	C	-0.070220	-1.332173	0.238317
C44	C	-0.113384	-1.296796	0.071683
C45	C	-0.222098	-1.207712	0.158245
C46	C	-0.254873	-1.180868	0.284835
C47	C	-0.178937	-1.243097	0.324877
C48	C	-0.080603	-1.323644	-0.054920
C49	C	-0.265263	-1.172334	-0.008389
C50	C	-0.298034	-1.145483	0.118203
H51	H	0.301192	-1.132754	-0.348180
N52	N	0.541793	-1.259165	-0.578114
N53	N	0.640375	-1.325072	-0.667789
H54	H	0.683587	-1.300091	-0.729547
N55	N	0.436059	-1.172427	-0.169439
N56	N	0.388702	-1.186626	-0.077598
H57	H	0.393484	-1.130127	0.009213
H58	H	-0.343403	-1.108339	0.355314
H59	H	0.319855	-1.389276	-0.255902
N60	N	0.104773	-1.475512	-0.104152
N61	N	0.134083	-1.400570	-0.133906
H62	H	0.157751	-1.419925	-0.225232
N63	N	0.013354	-0.703574	-0.730961
N64	N	0.106702	-0.653018	-0.738258
H65	H	0.124911	-0.627544	-0.804357
H66	H	-0.327099	-1.121664	-0.040989
H67	H	0.547641	-1.523039	-0.468143
H68	H	-0.055919	-1.029331	-0.502440
N69	N	0.258195	-1.601411	-0.023168
N70	N	0.372267	-1.596042	-0.008280
H71	H	0.450630	-1.660404	-0.070675
N72	N	-0.177054	-0.715436	-0.012806
N73	N	-0.199549	-0.746966	0.069000
H74	H	-0.222322	-0.687933	0.161092
N75	N	0.030447	-1.414617	-0.143343
N76	N	0.059712	-1.438579	-0.256371
H77	H	0.138150	-1.502832	-0.318823
N78	N	0.413027	-1.483239	-0.646995
N79	N	0.468950	-1.587257	-0.696410
H80	H	0.464142	-1.643746	-0.783215
N81	N	-0.409099	-1.054506	0.206623
N82	N	-0.523148	-1.059996	0.191709
H83	H	-0.601588	-0.995743	0.254155
N84	N	-0.024768	-1.011770	-0.618691
N85	N	-0.099845	-1.064709	-0.680819
H86	H	-0.095300	-1.149241	-0.706946
N87	N	0.026244	-0.940364	-0.803785
N88	N	0.048744	-0.908827	-0.885584
H89	H	0.071540	-0.967856	-0.977680
H90	H	-0.105984	-0.515877	-0.261123
H91	H	0.176251	-1.534148	0.224397
H92	H	-0.158940	-0.944912	-0.104608
N93	N	-0.212388	-1.215675	0.454190
N94	N	-0.144566	-1.271239	0.489920
H95	H	-0.168185	-1.251875	0.581248
H96	H	-0.151682	-0.579940	-0.094872
