data_functionalizedCrystal
_audit_creation_method	'MofGen! by Chris Wilmer'
_symmetry_space_group_name_H-M	'P1'
_symmetry_Int_Tables_number	1
_symmetry_cell_setting	triclinic
loop_
_symmetry_equiv_pos_as_xyz
  x,y,z
_cell_length_a	13.339070
_cell_length_b	14.519709
_cell_length_c	11.804365
_cell_angle_alpha	101.851959
_cell_angle_beta	74.875130
_cell_angle_gamma	99.654719
loop_
_atom_site_label
_atom_site_type_symbol
_atom_site_fract_x
_atom_site_fract_y
_atom_site_fract_z
O1	O	1.363544	0.449147	-0.099080
O2	O	1.068905	0.388436	-0.099072
O3	O	1.224034	0.286542	-0.099066
O4	O	1.208414	0.551041	-0.099087
O5	O	1.183194	0.313329	0.098989
O6	O	1.028065	0.415223	0.098982
O7	O	1.322704	0.475934	0.098974
Cu8	Cu	1.171656	0.448024	0.117062
Cu9	Cu	1.219953	0.416345	-0.117160
O10	O	1.167575	0.577828	0.098968
C11	C	1.010777	0.391574	-0.000044
C12	C	0.898419	0.361005	-0.000040
C13	C	0.534064	0.598691	-0.000078
C14	C	0.639630	0.627415	-0.000085
C15	C	0.704332	0.560815	-0.000073
C16	C	0.663459	0.465486	-0.000055
C17	C	0.557884	0.436759	-0.000058
C18	C	0.728152	0.398882	-0.000053
C19	C	0.687279	0.303554	-0.000035
C20	C	0.581714	0.274831	-0.000037
C21	C	0.517012	0.341431	-0.000048
C22	C	0.833727	0.427610	-0.000051
C23	C	0.857547	0.265677	-0.000031
C24	C	0.751981	0.236954	-0.000024
C25	C	1.202886	0.265390	-0.000038
C26	C	1.200704	0.162454	-0.000038
C27	C	1.192677	-0.214489	-0.000068
C28	C	1.194906	-0.109613	-0.000059
C29	C	1.196690	-0.026021	-0.000052
C30	C	1.198920	0.078862	-0.000045
C31	C	1.380832	0.472796	-0.000057
C32	C	1.493192	0.503364	-0.000068
C33	C	1.188723	0.598979	-0.000062
C34	C	1.190907	0.701915	-0.000071
N35	N	1.137693	0.470307	0.281801
N36	N	1.253924	0.394058	-0.281899
C37	C	1.335480	0.340531	0.655758
C38	C	1.361172	0.323670	0.531097
C39	C	1.305304	0.360328	0.468767
C40	C	1.223741	0.413850	0.531110
C41	C	1.198052	0.430719	0.655783
C42	C	1.167876	0.450515	0.468792
C43	C	1.086313	0.504037	0.531135
C44	C	1.060628	0.520903	0.655795
C45	C	1.116496	0.484245	0.718126
C46	C	1.193565	0.433646	0.344119
C47	C	1.056137	0.523834	0.344144
C48	C	1.030445	0.540695	0.468805
H49	H	0.672904	0.705029	-0.000109
H50	H	0.718688	0.159335	-0.000019
H51	H	0.964035	0.584274	0.519580
H52	H	1.427580	0.280094	0.480342
C53	C	1.004891	0.663128	0.305757
C54	C	0.994719	0.564134	0.275644
H55	H	0.966984	0.688006	0.263456
H56	H	0.977919	0.680827	0.388915
H57	H	1.076669	0.687688	0.285301
H58	H	0.922941	0.539574	0.296108
H59	H	1.021687	0.546427	0.192468
C60	C	0.931359	0.122727	-0.101830
C61	C	0.928659	0.192462	-0.000019
H62	H	0.975270	0.077535	-0.101827
H63	H	0.862644	0.091980	-0.101822
H64	H	0.958011	0.151374	-0.170889
H65	H	0.901999	0.163816	0.069041
H66	H	0.997387	0.223212	-0.000016
H67	H	0.866995	0.505227	-0.000061
C68	C	0.883043	0.544109	-0.101879
C69	C	0.820372	0.592389	-0.000076
H70	H	0.954682	0.563612	-0.101878
H71	H	0.867962	0.477814	-0.101858
H72	H	0.868997	0.558174	-0.170943
H73	H	0.834412	0.578318	0.068989
H74	H	0.835458	0.658699	-0.000086
H75	H	0.481377	0.652905	-0.000097
H76	H	1.095575	0.497970	0.819635
H77	H	1.380966	0.310695	0.706515
H78	H	0.548441	0.197207	-0.000035
H79	H	0.431050	0.318049	-0.000042
H80	H	0.994223	0.564492	0.706555
H81	H	1.259973	0.390069	0.293371
C82	C	1.416917	0.287062	0.290180
C83	C	1.333534	0.341785	0.331738
H84	H	1.434339	0.275607	0.205580
H85	H	1.475806	0.320097	0.318355
H86	H	1.397146	0.228362	0.318406
H87	H	1.353308	0.400489	0.303518
H88	H	1.274633	0.308751	0.303550
