data_functionalizedCrystal
_audit_creation_method	'MofGen! by Chris Wilmer'
_symmetry_space_group_name_H-M	'P1'
_symmetry_Int_Tables_number	1
_symmetry_cell_setting	triclinic
loop_
_symmetry_equiv_pos_as_xyz
  x,y,z
_cell_length_a	21.395362
_cell_length_b	19.121063
_cell_length_c	21.395355
_cell_angle_alpha	92.420740
_cell_angle_beta	89.956060
_cell_angle_gamma	92.485681
loop_
_atom_site_label
_atom_site_type_symbol
_atom_site_fract_x
_atom_site_fract_y
_atom_site_fract_z
Zn1	Zn	0.947241	-0.279403	-0.365205
Zn2	Zn	0.942680	-0.396839	-0.264891
Zn3	Zn	0.842454	-0.279436	-0.260407
Zn4	Zn	0.837961	-0.396853	-0.369596
O5	O	0.892584	-0.338133	-0.315025
O6	O	1.034314	-0.294962	-0.351936
O7	O	0.929357	-0.381273	-0.176618
O8	O	0.860144	-0.181145	-0.270595
O9	O	1.030964	-0.381241	-0.278236
O10	O	0.937130	-0.181121	-0.347589
O11	O	0.855721	-0.295017	-0.173324
O12	O	0.754180	-0.295031	-0.274853
O13	O	0.852486	-0.381266	-0.456691
O14	O	0.750879	-0.381297	-0.355073
O15	O	0.932773	-0.294976	-0.453465
O16	O	0.925000	-0.495127	-0.282494
O17	O	0.848063	-0.495138	-0.359420
C18	C	0.729795	-0.338170	-0.314953
C19	C	0.660152	-0.338203	-0.314938
C20	C	0.625735	-0.383181	-0.356651
C21	C	0.560300	-0.383164	-0.356679
C22	C	0.529285	-0.338176	-0.314982
C23	C	0.563711	-0.293189	-0.273266
C24	C	0.629145	-0.293202	-0.273244
C25	C	0.425776	-0.332517	-0.258362
C26	C	0.360343	-0.332509	-0.258383
C27	C	0.327466	-0.338130	-0.315049
C28	C	0.360030	-0.343774	-0.371698
C29	C	0.425463	-0.343788	-0.371676
C30	C	0.458334	-0.338156	-0.315001
C31	C	0.222096	-0.383092	-0.356795
C32	C	0.156661	-0.383070	-0.356824
C33	C	0.160073	-0.293098	-0.273405
C34	C	0.225508	-0.293117	-0.273383
C35	C	0.256516	-0.338117	-0.315077
C36	C	0.885566	-0.520617	-0.321934
C37	C	0.882621	-0.598685	-0.324911
C38	C	0.921325	-0.635332	-0.286291
C39	C	0.918559	-0.708685	-0.289094
C40	C	0.877085	-0.745389	-0.330515
C41	C	0.838379	-0.708736	-0.369139
C42	C	0.841149	-0.635385	-0.366338
C43	C	0.866720	-0.966864	-0.340976
C44	C	0.863952	-1.040221	-0.343772
C45	C	0.944133	-1.040164	-0.263728
C46	C	0.946896	-0.966812	-0.260928
C47	C	0.908193	-0.930165	-0.299555
C48	C	0.874256	-0.820367	-0.333380
C49	C	0.911026	-0.855188	-0.296692
C50	C	1.056009	-0.338096	-0.315097
C51	C	1.125651	-0.338080	-0.315127
C52	C	0.892637	-0.338119	-0.478447
C53	C	0.892659	-0.338112	-0.548089
C54	C	0.899647	-0.154936	-0.308102
C55	C	0.902656	-0.076868	-0.305152
C56	C	0.934463	-0.293179	-0.579123
C57	C	0.934463	-0.293149	-0.644557
C58	C	0.892666	-0.338065	-0.678955
C59	C	0.850854	-0.383001	-0.647913
C60	C	0.850851	-0.383025	-0.582480
C61	C	0.885286	-0.401308	-0.785023
C62	C	0.885294	-0.401285	-0.850455
C63	C	0.892672	-0.337990	-0.880773
C64	C	0.900056	-0.274717	-0.845651
C65	C	0.900053	-0.274741	-0.780218
C66	C	0.892664	-0.338043	-0.749907
C67	C	0.934479	-0.293021	-0.982759
C68	C	0.934475	-0.292989	-1.048194
C69	C	0.850869	-0.382847	-1.051549
C70	C	0.850870	-0.382872	-0.986115
C71	C	0.892678	-0.337960	-0.951723
C72	C	0.892570	-0.338096	-0.152236
C73	C	0.892676	-0.337904	-0.082588
H74	H	0.657168	-0.256574	-0.239276
H75	H	0.830186	-1.070103	-0.377512
H76	H	0.333835	-0.327917	-0.212256
H77	H	0.816830	-0.419411	-1.079555
H78	H	0.451974	-0.348381	-0.417801
O79	O	0.810241	-0.426591	-0.956064
C80	C	0.773337	-0.466215	-1.000452
H81	H	0.798909	-0.468627	-1.047207
H82	H	0.764516	-0.521561	-0.983644
H83	H	0.726744	-0.440500	-1.006400
H84	H	0.955095	-0.605453	-0.252559
O85	O	0.975049	-0.249405	-0.674641
C86	C	0.964053	-0.179407	-0.655999
H87	H	0.940023	-0.177965	-0.608416
H88	H	1.010490	-0.147911	-0.652601
H89	H	0.932756	-0.155744	-0.691905
H90	H	0.950076	-0.738520	-0.257645
O91	O	0.810180	-0.426579	-0.552299
C92	C	0.771264	-0.386618	-0.512885
H93	H	0.769525	-0.331292	-0.530496
H94	H	0.722066	-0.412033	-0.513072
H95	H	0.790730	-0.384215	-0.463218
H96	H	0.816820	-0.419569	-0.675924
O97	O	0.328199	-0.349255	-0.426804
C98	C	0.370971	-0.354212	-0.476796
H99	H	0.416798	-0.374564	-0.459258
H100	H	0.350637	-0.391830	-0.515032
H101	H	0.380065	-0.300254	-0.496521
H102	H	0.879285	-0.452806	-0.879046
O103	O	0.987156	-0.931240	-0.220612
C104	C	0.972809	-0.949204	-0.158832
H105	H	0.946709	-1.002490	-0.159537
H106	H	1.017950	-0.951678	-0.130892
H107	H	0.942167	-0.907970	-0.136112
O108	O	0.833881	-0.855944	-0.373579
C109	C	0.772113	-0.838123	-0.359114
H110	H	0.772833	-0.784881	-0.332995
H111	H	0.744088	-0.835626	-0.404201
H112	H	0.749469	-0.879452	-0.328451
H113	H	0.452538	-0.327937	-0.212214
H114	H	0.968506	-0.256607	-0.551125
O115	O	0.981801	-1.075792	-0.226306
C116	C	1.020640	-1.118160	-0.263650
H117	H	1.025313	-1.096023	-0.312158
H118	H	1.068843	-1.118940	-0.241086
H119	H	0.999173	-1.173777	-0.267903
O120	O	0.655757	-0.426911	-0.397216
C121	C	0.611341	-0.466619	-0.434028
H122	H	0.565819	-0.437844	-0.435165
H123	H	0.630004	-0.474199	-0.483664
H124	H	0.602284	-0.519922	-0.413025
O125	O	0.829053	-0.931381	-0.378511
C126	C	0.791861	-0.979509	-0.415674
H127	H	0.787738	-1.031814	-0.392004
H128	H	0.743286	-0.958377	-0.421480
H129	H	0.814481	-0.987252	-0.463588
H130	H	0.804613	-0.738626	-0.402867
O131	O	0.803490	-0.599892	-0.403879
C132	C	0.766302	-0.648015	-0.441051
H133	H	0.762164	-0.700318	-0.417380
H134	H	0.717734	-0.626875	-0.446873
H135	H	0.788936	-0.655765	-0.488958
O136	O	0.907199	-0.213217	-0.746195
C137	C	0.913729	-0.157344	-0.786979
H138	H	0.892039	-0.173957	-0.834241
H139	H	0.888934	-0.110151	-0.766257
H140	H	0.965493	-0.142742	-0.793417
H141	H	0.879111	-0.452836	-0.760343
O142	O	0.907103	-0.213230	-0.875117
C143	C	0.854114	-0.204192	-0.912586
H144	H	0.812588	-0.236453	-0.894062
H145	H	0.842697	-0.146462	-0.911113
H146	H	0.864209	-0.222351	-0.962880
H147	H	0.944797	-0.825302	-0.262970
O148	O	0.975021	-0.249291	-0.949368
C149	C	0.964037	-0.179286	-0.962693
H150	H	0.914120	-0.175743	-0.980509
H151	H	0.970770	-0.144605	-0.918344
H152	H	0.998338	-0.160900	-0.999999
O153	O	0.252124	-0.426818	-0.397361
C154	C	0.207711	-0.466521	-0.434180
H155	H	0.162189	-0.437745	-0.435317
H156	H	0.226378	-0.474095	-0.483815
H157	H	0.198651	-0.519826	-0.413182
O158	O	0.526790	-0.426895	-0.397115
C159	C	0.487151	-0.472201	-0.363100
H160	H	0.478263	-0.447344	-0.314719
H161	H	0.440799	-0.481651	-0.388980
H162	H	0.510339	-0.524243	-0.358098
O163	O	0.123202	-0.426664	-0.397410
C164	C	0.086941	-0.386740	-0.436433
H165	H	0.108817	-0.331434	-0.438288
H166	H	0.085263	-0.412228	-0.485577
H167	H	0.037423	-0.384275	-0.416991
O168	O	0.974996	-0.249258	-1.078365
C169	C	0.941075	-0.203894	-1.114470
H170	H	0.891894	-0.199577	-1.094548
H171	H	0.965820	-0.149837	-1.113168
H172	H	0.938081	-0.225585	-1.164886
H173	H	0.134822	-0.256465	-0.239458
H174	H	0.253531	-0.256494	-0.239412
H175	H	0.538455	-0.256558	-0.239317
