data_functionalizedCrystal
_audit_creation_method	'MofGen! by Chris Wilmer'
_symmetry_space_group_name_H-M	'P1'
_symmetry_Int_Tables_number	1
_symmetry_cell_setting	triclinic
loop_
_symmetry_equiv_pos_as_xyz
  x,y,z
_cell_length_a	16.959455
_cell_length_b	16.959454
_cell_length_c	16.959447
_cell_angle_alpha	90.026736
_cell_angle_beta	90.016723
_cell_angle_gamma	90.019023
loop_
_atom_site_label
_atom_site_type_symbol
_atom_site_fract_x
_atom_site_fract_y
_atom_site_fract_z
Zn1	Zn	1.208384	-0.314688	0.446979
Zn2	Zn	1.208306	-0.446881	0.314809
Zn3	Zn	1.076212	-0.314718	0.314811
Zn4	Zn	1.076177	-0.446826	0.446942
O5	O	1.142270	-0.380778	0.380885
O6	O	1.318984	-0.332234	0.429461
O7	O	1.190766	-0.429384	0.204198
O8	O	1.093792	-0.204103	0.332360
O9	O	1.318927	-0.429355	0.332356
O10	O	1.190898	-0.204081	0.429463
O11	O	1.093717	-0.332284	0.204200
O12	O	0.965597	-0.332232	0.332324
O13	O	1.093732	-0.429263	0.557558
O14	O	0.965571	-0.429291	0.429400
O15	O	1.190864	-0.332181	0.557585
O16	O	1.190732	-0.557484	0.332320
O17	O	1.093657	-0.557444	0.429398
C18	C	0.936904	-0.380759	0.380858
C19	C	0.849047	-0.380770	0.380866
C20	C	0.807763	-0.330164	0.330404
C21	C	0.807777	-0.431383	0.431339
C22	C	0.725231	-0.431392	0.431351
C23	C	0.683948	-0.380785	0.380889
C24	C	0.725209	-0.330169	0.330415
C25	C	0.683963	-0.482001	0.481829
C26	C	0.601412	-0.482011	0.481844
C27	C	0.560127	-0.431408	0.431377
C28	C	0.601394	-0.380791	0.380901
C29	C	0.560110	-0.330184	0.330439
C30	C	0.601376	-0.279571	0.279958
C31	C	0.683924	-0.279566	0.279949
C32	C	0.477579	-0.431413	0.431386
C33	C	0.477557	-0.330190	0.330450
C34	C	1.142204	-0.586144	0.380872
C35	C	1.142248	-0.674001	0.380892
C36	C	1.091796	-1.045486	0.431428
C37	C	1.192964	-1.045467	0.330423
C38	C	1.192936	-0.962921	0.330415
C39	C	1.142337	-0.921654	0.380914
C40	C	1.091765	-0.962932	0.431421
C41	C	1.243501	-0.921637	0.279905
C42	C	1.243475	-0.839086	0.279895
C43	C	1.192879	-0.797817	0.330398
C44	C	1.142306	-0.839100	0.380907
C45	C	1.091707	-0.797833	0.431406
C46	C	1.041137	-0.839115	0.481919
C47	C	1.041170	-0.921663	0.481924
C48	C	1.192847	-0.715269	0.330393
C49	C	1.091676	-0.715279	0.431399
C50	C	1.348438	-0.380798	0.380912
C51	C	1.436295	-0.380806	0.380924
C52	C	1.142303	-0.380713	0.587053
C53	C	1.142317	-0.380685	0.674910
C54	C	1.142358	-0.174610	0.380916
C55	C	1.142395	-0.086753	0.380929
C56	C	1.142283	-0.380786	0.175519
C57	C	1.142422	-0.380591	0.087663
C58	C	1.091839	-0.431147	1.046374
C59	C	1.192983	-0.330056	1.046398
C60	C	1.192962	-0.330072	0.963852
C61	C	1.142380	-0.380628	0.922563
C62	C	1.091818	-0.431167	0.963821
C63	C	1.243529	-0.279540	0.922588
C64	C	1.243510	-0.279555	0.840037
C65	C	1.192923	-0.330108	0.798747
C66	C	1.142359	-0.380648	0.840010
C67	C	1.091776	-0.431204	0.798721
C68	C	1.041207	-0.481741	0.839982
C69	C	1.041231	-0.481719	0.922530
C70	C	1.192899	-0.330129	0.716199
C71	C	1.091755	-0.431224	0.716167
H72	H	1.050475	-0.681684	0.472524
H73	H	1.234074	-0.288985	0.682608
C74	C	0.384694	-0.319101	0.224146
C75	C	0.432186	-0.274567	0.274968
H76	H	0.356691	-0.284762	0.189888
H77	H	0.348301	-0.349228	0.254209
H78	H	0.416885	-0.353507	0.193863
H79	H	0.399994	-0.240165	0.305255
H80	H	0.468583	-0.244427	0.244902
H81	H	1.234154	-1.079072	0.289304
H82	H	0.717530	-0.238359	0.238851
C83	C	1.377397	-0.241054	0.948020
C84	C	1.299131	-0.223973	0.967969
H85	H	1.411723	-0.206750	0.976042
H86	H	1.384617	-0.233834	0.892958
H87	H	1.388932	-0.294163	0.961544
H88	H	1.287594	-0.170867	0.954439
H89	H	1.291907	-0.231188	1.023042
C90	C	1.282049	-0.145714	0.814678
C91	C	1.299085	-0.223993	0.794694
H92	H	1.316355	-0.111410	0.786683
H93	H	1.289301	-0.138484	0.869745
H94	H	1.228939	-0.134159	0.801147
H95	H	1.352194	-0.235550	0.808231
H96	H	1.291840	-0.231227	0.739615
C97	C	0.934292	-0.285206	0.285560
C98	C	0.853117	-0.274528	0.274919
H99	H	0.962291	-0.250854	0.251309
H100	H	0.947797	-0.338293	0.273900
H101	H	0.947842	-0.273698	0.338687
H102	H	0.839567	-0.286041	0.221793
H103	H	0.839607	-0.221428	0.286574
C104	C	0.900655	-0.442477	0.537626
C105	C	0.853158	-0.487006	0.486804
H106	H	0.928677	-0.476820	0.571864
H107	H	0.868471	-0.408088	0.567923
H108	H	0.937039	-0.412332	0.507556
H109	H	0.816770	-0.517146	0.516874
H110	H	0.885345	-0.521408	0.456504
H111	H	0.717583	-0.523200	0.522915
H112	H	1.050665	-0.472291	1.079972
C113	C	0.508495	-0.268479	0.173670
C114	C	0.555994	-0.223946	0.224487
H115	H	0.480481	-0.234138	0.139422
H116	H	0.472111	-0.298612	0.203737
H117	H	0.540682	-0.302878	0.143376
H118	H	0.523805	-0.189550	0.254784
H119	H	0.592381	-0.193799	0.194415
H120	H	1.050626	-1.079101	0.472557
H121	H	0.999936	-0.805505	0.523033
C122	C	0.907308	-0.947143	0.520307
C123	C	0.985582	-0.967037	0.537443
H124	H	0.872992	-0.975154	0.554585
H125	H	0.895786	-0.960712	0.467195
H126	H	0.900060	-0.892073	0.527534
H127	H	0.992831	-1.022107	0.530210
H128	H	0.997108	-0.953474	0.590567
H129	H	0.567821	-0.523225	0.522947
C130	C	1.288349	-1.048171	0.234961
C131	C	1.299034	-0.966998	0.224317
H132	H	1.322615	-1.076176	0.200621
H133	H	1.235231	-1.061696	0.223422
H134	H	1.299968	-1.061692	0.288057
H135	H	1.287410	-0.953477	0.171222
H136	H	1.352164	-0.953468	0.235850
C137	C	0.485888	-0.531446	0.531170
C138	C	0.432220	-0.487035	0.486875
H139	H	0.457884	-0.565788	0.565426
H140	H	0.518107	-0.497035	0.561448
H141	H	0.518063	-0.561645	0.496675
H142	H	0.400049	-0.456832	0.521371
H143	H	0.399988	-0.521450	0.456595
H144	H	1.284651	-0.805480	0.238765
C145	C	1.292839	-0.723546	0.230546
C146	C	1.248424	-0.669892	0.274873
H147	H	1.327154	-0.695531	0.196271
H148	H	1.258428	-0.755782	0.200286
H149	H	1.323065	-0.755705	0.265021
H150	H	1.218193	-0.637736	0.240398
H151	H	1.282839	-0.637643	0.305134
H152	H	1.050557	-0.472386	0.682556
C153	C	0.996275	-0.526653	0.713424
C154	C	0.985607	-0.537310	0.794592
H155	H	0.961947	-0.560955	0.685402
H156	H	1.049370	-0.538233	0.699907
H157	H	0.984729	-0.473543	0.699916
H158	H	0.997159	-0.590419	0.808101
H159	H	0.932499	-0.525736	0.808114
H160	H	1.000063	-0.522866	0.956132
C161	C	1.237927	-0.285147	1.172949
C162	C	1.248584	-0.274490	1.091780
H163	H	1.272252	-0.250837	1.200967
H164	H	1.249477	-0.338248	1.186457
H165	H	1.184825	-0.273569	1.186472
H166	H	1.301685	-0.286073	1.078256
H167	H	1.237040	-0.221376	1.078267
