data_functionalizedCrystal
_audit_creation_method	'MofGen! by Chris Wilmer'
_symmetry_space_group_name_H-M	'P1'
_symmetry_Int_Tables_number	1
_symmetry_cell_setting	triclinic
loop_
_symmetry_equiv_pos_as_xyz
  x,y,z
_cell_length_a	16.625546
_cell_length_b	18.215407
_cell_length_c	18.215399
_cell_angle_alpha	90.020595
_cell_angle_beta	89.970824
_cell_angle_gamma	89.977611
loop_
_atom_site_label
_atom_site_type_symbol
_atom_site_fract_x
_atom_site_fract_y
_atom_site_fract_z
Zn1	Zn	-0.321012	-1.125084	-0.416125
Zn2	Zn	0.178988	-0.625084	0.083875
Zn3	Zn	-0.455852	-1.124998	-0.293056
Zn4	Zn	0.044148	-0.624998	0.206944
Zn5	Zn	-0.321037	-1.002017	-0.293070
Zn6	Zn	0.178963	-0.502017	0.206930
Zn7	Zn	-0.455806	-1.001988	-0.416079
Zn8	Zn	0.044194	-0.501988	0.083921
O9	O	-0.388426	-1.063522	-0.354582
O10	O	0.111574	-0.563522	0.145418
O11	O	-0.338907	-1.228057	-0.399812
O12	O	0.161093	-0.728057	0.100188
O13	O	-0.437998	-1.108660	-0.190073
O14	O	0.062002	-0.608660	0.309927
O15	O	-0.208201	-1.018390	-0.309419
O16	O	0.291799	-0.518390	0.190581
O17	O	-0.437974	-1.227994	-0.309394
O18	O	0.062026	-0.727994	0.190606
O19	O	-0.208183	-1.108807	-0.399826
O20	O	0.291817	-0.608807	0.100174
O21	O	-0.338950	-1.018307	-0.190084
O22	O	0.161050	-0.518307	0.309916
O23	O	-0.338905	-0.899029	-0.309375
O24	O	0.161095	-0.399029	0.190625
O25	O	-0.437895	-1.018341	-0.519069
O26	O	0.062105	-0.518341	-0.019069
O27	O	-0.437920	-0.899008	-0.399749
O28	O	0.062080	-0.399008	0.100251
O29	O	-0.338862	-1.108779	-0.519103
O30	O	0.161138	-0.608779	-0.019103
O31	O	-0.568678	-1.108632	-0.309350
O32	O	-0.068678	-0.608632	0.190650
O33	O	-0.568644	-1.018257	-0.399734
O34	O	-0.068644	-0.518257	0.100266
C35	C	-0.388411	-0.872315	-0.354559
C36	C	0.111589	-0.372315	0.145441
C37	C	-0.388423	-0.790517	-0.354566
C38	C	0.111577	-0.290517	0.145434
C39	C	-0.440059	-0.602331	-0.401562
C40	C	0.059941	-0.102331	0.098438
C41	C	-0.440061	-0.525472	-0.401570
C42	C	0.059939	-0.025472	0.098430
C43	C	-0.336798	-0.525465	-0.307605
C44	C	0.163202	-0.025465	0.192395
C45	C	-0.336793	-0.602322	-0.307601
C46	C	0.163207	-0.102322	0.192399
C47	C	-0.388428	-0.640753	-0.354579
C48	C	0.111572	-0.140753	0.145421
C49	C	-0.388435	-0.487037	-0.354591
C50	C	0.111565	0.012963	0.145409
C51	C	-0.388437	-0.403703	-0.354599
C52	C	0.111563	0.096297	0.145401
C53	C	-0.388426	-0.724092	-0.354571
C54	C	0.111574	-0.224092	0.145429
C55	C	-0.597917	-1.063452	-0.354552
C56	C	-0.097917	-0.563452	0.145448
C57	C	-0.687538	-1.063490	-0.354563
C58	C	-0.187538	-0.563490	0.145437
C59	C	-1.015714	-1.063618	-0.354640
C60	C	-0.515714	-0.563618	0.145360
C61	C	-0.924406	-1.063580	-0.354620
C62	C	-0.424406	-0.563580	0.145380
C63	C	-0.851629	-1.063553	-0.354601
C64	C	-0.351629	-0.563553	0.145399
C65	C	-0.760315	-1.063516	-0.354582
C66	C	-0.260315	-0.563516	0.145418
C67	C	-0.178118	-1.063612	-0.354629
C68	C	0.321882	-0.563612	0.145371
C69	C	-0.088496	-1.063650	-0.354649
C70	C	0.411504	-0.563650	0.145351
C71	C	-0.388371	-1.063567	-0.546535
C72	C	0.111629	-0.563567	-0.046535
C73	C	-0.388347	-1.063586	-0.628334
C74	C	0.111653	-0.563586	-0.128334
C75	C	-0.388440	-0.255475	-0.354603
C76	C	0.111560	0.244525	0.145397
C77	C	-0.388440	-0.337274	-0.354604
C78	C	0.111560	0.162726	0.145396
C79	C	-0.336733	-1.110694	-0.816547
C80	C	0.163267	-0.610694	-0.316547
C81	C	-0.336709	-1.110703	-0.893406
C82	C	0.163291	-0.610703	-0.393406
C83	C	-0.439837	-1.016530	-0.893360
C84	C	0.060163	-0.516530	-0.393360
C85	C	-0.439856	-1.016518	-0.816502
C86	C	0.060144	-0.516518	-0.316502
C87	C	-0.388305	-1.063604	-0.778098
C88	C	0.111695	-0.563604	-0.278098
C89	C	-0.388263	-1.063625	-0.931814
C90	C	0.111737	-0.563625	-0.431814
C91	C	-0.388237	-1.063634	-1.015148
C92	C	0.111763	-0.563634	-0.515148
C93	C	-0.388329	-1.063594	-0.694759
C94	C	0.111671	-0.563594	-0.194759
C95	C	-0.388424	-1.063519	-0.163376
C96	C	0.111576	-0.563519	0.336624
C97	C	-0.388220	-1.063643	-0.081578
C98	C	0.111780	-0.563643	0.418422
H99	H	-0.294760	-0.494165	-0.269357
H100	H	0.205240	0.005835	0.230643
H101	H	-0.482103	-0.494192	-0.439830
H102	H	0.017897	0.005808	0.060170
H103	H	-0.294713	-1.149047	-0.924708
H104	H	0.205287	-0.649047	-0.424708
C105	C	-0.496545	-0.964746	-0.935607
C106	C	0.003455	-0.464746	-0.435607
H107	H	-0.489155	-0.971502	-0.986887
H108	H	0.010845	-0.471502	-0.486887
H109	H	-0.484749	-0.915301	-0.923006
H110	H	0.015251	-0.415301	-0.423006
H111	H	-0.550726	-0.975500	-0.922997
H112	H	-0.050726	-0.475500	-0.422997
H113	H	-0.294744	-0.633606	-0.269342
H114	H	0.205256	-0.133606	0.230658
H115	H	-0.294754	-1.149033	-0.785280
H116	H	0.205246	-0.649033	-0.285280
C117	C	-0.496593	-0.964721	-0.774205
C118	C	0.003407	-0.464721	-0.274205
H119	H	-0.527302	-0.936688	-0.808084
H120	H	-0.027302	-0.436688	-0.308084
H121	H	-0.465758	-0.932663	-0.744222
H122	H	0.034242	-0.432663	-0.244222
H123	H	-0.531734	-0.992863	-0.744222
H124	H	-0.031734	-0.492863	-0.244222
H125	H	-0.482102	-0.633619	-0.439816
H126	H	0.017898	-0.133619	0.060184
