data_functionalizedCrystal
_audit_creation_method	'MofGen! by Chris Wilmer'
_symmetry_space_group_name_H-M	'P1'
_symmetry_Int_Tables_number	1
_symmetry_cell_setting	triclinic
loop_
_symmetry_equiv_pos_as_xyz
  x,y,z
_cell_length_a	6.817900
_cell_length_b	11.102285
_cell_length_c	11.102228
_cell_angle_alpha	91.949783
_cell_angle_beta	108.604565
_cell_angle_gamma	108.605686
loop_
_atom_site_label
_atom_site_type_symbol
_atom_site_fract_x
_atom_site_fract_y
_atom_site_fract_z
V1	V	-4.111520	-0.175843	-0.396263
O2	O	-4.070549	0.008447	-0.388713
O3	O	-4.088301	-0.348664	-0.393559
O4	O	-4.088296	-0.173139	-0.569084
O5	O	-4.070555	-0.168293	-0.211973
V6	V	-4.588623	-0.153799	-0.374219
O7	O	-4.386862	-0.224197	-0.444616
O8	O	-4.763479	-0.105446	-0.325866
O9	O	-4.388636	0.019022	-0.376923
O10	O	-4.746991	-0.338089	-0.381769
O11	O	-4.746986	-0.161349	-0.558509
O12	O	-4.388642	-0.156503	-0.201398
C13	C	-3.938613	-0.390794	-0.387309
C14	C	-4.001083	-0.532078	-0.386250
C15	C	-4.090598	-0.616607	-0.502135
C16	C	-4.149268	-0.749355	-0.501128
C17	C	-4.028906	-0.713033	-0.268343
C18	C	-3.970224	-0.580286	-0.269350
C19	C	-4.183491	-0.948428	-0.635507
C20	C	-4.273046	-1.032963	-0.751398
C21	C	-4.425423	-1.010077	-0.858562
C22	C	-4.488298	-0.902659	-0.849841
C23	C	-4.398764	-0.818130	-0.733948
C24	C	-4.246341	-0.841014	-0.626787
C25	C	-3.936021	-0.381213	-0.134981
C26	C	-3.846499	-0.296683	-0.019087
C27	C	-3.694127	-0.319565	0.088088
C28	C	-3.631278	-0.426986	0.079378
C29	C	-3.720800	-0.511517	-0.036516
C30	C	-3.873164	-0.488625	-0.143690
C31	C	-3.938605	-0.166893	-0.611207
C32	C	-4.001066	-0.165826	-0.752489
C33	C	-4.090577	-0.281710	-0.837018
C34	C	-4.149278	-0.280705	-0.969767
C35	C	-4.028937	-0.047921	-0.933446
C36	C	-3.970252	-0.048928	-0.800700
C37	C	-4.420040	-0.423237	-1.177161
C38	C	-4.509522	-0.539127	-1.261694
C39	C	-4.425308	-0.638136	-1.230484
C40	C	-4.251567	-0.621259	-1.114741
C41	C	-4.162069	-0.505367	-1.030214
C42	C	-4.246332	-0.406364	-1.061425
C43	C	-3.699476	0.093597	-0.593304
C44	C	-3.609962	0.209491	-0.508774
C45	C	-3.694157	0.308511	-0.539980
C46	C	-3.867863	0.291648	-0.655723
C47	C	-3.957377	0.175754	-0.740253
C48	C	-3.873182	0.076733	-0.709038
C49	C	-4.201667	0.061145	-0.383169
C50	C	-4.118436	0.202428	-0.384236
C51	C	-4.201675	-0.162753	-0.159268
C52	C	-4.118451	-0.163814	-0.017985
H53	H	-4.003795	-0.752301	-0.173167
H54	H	-4.612404	-0.884045	-0.937105
H55	H	-4.488648	-0.342630	-1.202577
H56	H	-4.003854	0.047254	-0.972716
O57	O	-4.460206	-0.713925	-0.725575
C58	C	-4.689969	-0.754908	-0.752400
H59	H	-4.771876	-0.854802	-0.812080
H60	H	-4.759454	-0.684709	-0.808453
H61	H	-4.724368	-0.758353	-0.658362
O62	O	-3.617673	-0.002625	-0.563204
C63	C	-3.536267	-0.031481	-0.658235
H64	H	-3.619838	0.000357	-0.751544
H65	H	-3.572835	-0.139495	-0.675207
H66	H	-3.350305	0.021357	-0.624800
O67	O	-4.035153	-0.970476	-0.531436
C68	C	-3.834511	-0.865498	-0.492831
H69	H	-3.823018	-0.812089	-0.577633
H70	H	-3.690506	-0.902035	-0.458518
H71	H	-3.827761	-0.797485	-0.411128
H72	H	-4.115740	-0.577361	-0.597323
O73	O	-4.170071	-0.717588	-1.084603
C74	C	-4.286280	-0.823483	-1.184041
H75	H	-4.455191	-0.818866	-1.240249
H76	H	-4.308230	-0.916530	-1.140908
H77	H	-4.189391	-0.820683	-1.251373
H78	H	-4.020605	-0.491623	-0.935983
H79	H	-4.498337	-1.078914	-0.952925
O80	O	-4.212010	-1.137349	-0.759669
C81	C	-4.267099	-1.216316	-0.670027
H82	H	-4.280160	-1.156413	-0.589405
H83	H	-4.133537	-1.259532	-0.628105
H84	H	-4.432140	-1.296856	-0.720084
H85	H	-3.669609	-0.598983	-0.043601
O86	O	-4.120019	-0.395180	-0.790045
C87	C	-3.914771	-0.396583	-0.708174
H88	H	-3.776196	-0.326023	-0.733647
H89	H	-3.908539	-0.497495	-0.720588
H90	H	-3.893608	-0.367366	-0.604086
O91	O	-3.483464	-0.449183	0.183620
C92	C	-3.567705	-0.464183	0.284974
H93	H	-3.695210	-0.414942	0.270053
H94	H	-3.427175	-0.418830	0.380247
H95	H	-3.648846	-0.570904	0.286582
O96	O	-4.126192	0.159555	-0.852604
C97	C	-4.181285	0.271814	-0.862044
H98	H	-4.125514	0.327542	-0.761773
H99	H	-4.367652	0.244285	-0.909514
H100	H	-4.095245	0.334390	-0.922475
H101	H	-3.621256	-0.250733	0.182456
H102	H	-4.498171	-0.732495	-1.299321
H103	H	-3.897700	-0.209221	-0.011999
H104	H	-4.060089	-0.362568	-0.222249
O105	O	-3.607386	0.421197	-0.458039
C106	C	-3.719007	0.504958	-0.510393
H107	H	-3.797776	0.476274	-0.619188
H108	H	-3.596656	0.607757	-0.486649
H109	H	-3.852843	0.498578	-0.467677
H110	H	-4.650991	-0.552860	-1.355931
H111	H	-3.936419	0.372279	-0.681133
H112	H	-3.468495	0.223222	-0.414538
