data_functionalizedCrystal
_audit_creation_method	'MofGen! by Chris Wilmer'
_symmetry_space_group_name_H-M	'P1'
_symmetry_Int_Tables_number	1
_symmetry_cell_setting	triclinic
loop_
_symmetry_equiv_pos_as_xyz
  x,y,z
_cell_length_a	12.759401
_cell_length_b	16.625545
_cell_length_c	12.759393
_cell_angle_alpha	89.967170
_cell_angle_beta	89.980324
_cell_angle_gamma	90.025984
loop_
_atom_site_label
_atom_site_type_symbol
_atom_site_fract_x
_atom_site_fract_y
_atom_site_fract_z
Zn1	Zn	1.606187	-0.320953	-0.593968
Zn2	Zn	1.606045	-0.455808	-0.418281
Zn3	Zn	1.430486	-0.320994	-0.418307
Zn4	Zn	1.430444	-0.455749	-0.593922
O5	O	1.518291	-0.388376	-0.506119
O6	O	1.753189	-0.338850	-0.570671
O7	O	1.582714	-0.437966	-0.271263
O8	O	1.453870	-0.208156	-0.441639
O9	O	1.753085	-0.437927	-0.441594
O10	O	1.582957	-0.208126	-0.570696
O11	O	1.453732	-0.338919	-0.271282
O12	O	1.283459	-0.338862	-0.441594
O13	O	1.453799	-0.437826	-0.740949
O14	O	1.283429	-0.437865	-0.570618
O15	O	1.582917	-0.338793	-0.740983
O16	O	1.582674	-0.568632	-0.441550
O17	O	1.453661	-0.568589	-0.570592
C18	C	1.245323	-0.388362	-0.506104
C19	C	1.128547	-0.388376	-0.506123
C20	C	1.073740	-0.336879	-0.573437
C21	C	0.964016	-0.336888	-0.573444
C22	C	0.963915	-0.439895	-0.438820
C23	C	1.073637	-0.439882	-0.438809
C24	C	0.814119	-0.241848	-0.611217
C25	C	0.759309	-0.190359	-0.678547
C26	C	0.794970	-0.178070	-0.781086
C27	C	0.885441	-0.217281	-0.816316
C28	C	0.940246	-0.268776	-0.748992
C29	C	0.904586	-0.281050	-0.646438
C30	C	1.223535	-0.534923	-0.401046
C31	C	1.278342	-0.586423	-0.333726
C32	C	1.242683	-0.598720	-0.231185
C33	C	1.152209	-0.559523	-0.195959
C34	C	1.097402	-0.508023	-0.263279
C35	C	1.133069	-0.495724	-0.365819
C36	C	1.518176	-0.597867	-0.506086
C37	C	1.518224	-0.687488	-0.506107
C38	C	1.518264	-0.760270	-0.506128
C39	C	1.518326	-0.851579	-0.506151
C40	C	1.518380	-0.924355	-0.506164
C41	C	1.518440	-1.015669	-0.506186
C42	C	1.792324	-0.388390	-0.506135
C43	C	1.909100	-0.388397	-0.506141
C44	C	1.518369	-0.388299	-0.780153
C45	C	1.518403	-0.388266	-0.896929
C46	C	1.518434	-0.178067	-0.506175
C47	C	1.518495	-0.088446	-0.506199
C48	C	1.585639	-0.336691	-0.951811
C49	C	1.585657	-0.336656	-1.061535
C50	C	1.451199	-0.439778	-1.061487
C51	C	1.451177	-0.439808	-0.951765
C52	C	1.623292	-0.241525	-1.211517
C53	C	1.690545	-0.189957	-1.266402
C54	C	1.793061	-0.177594	-1.230809
C55	C	1.828345	-0.216811	-1.140333
C56	C	1.761098	-0.268385	-1.085454
C57	C	1.658567	-0.280733	-1.121045
C58	C	1.413552	-0.534940	-0.801780
C59	C	1.346309	-0.586519	-0.746899
C60	C	1.243792	-0.598889	-0.782490
C61	C	1.208511	-0.559687	-0.872970
C62	C	1.275754	-0.508108	-0.927851
C63	C	1.378271	-0.495736	-0.892252
C64	C	1.518273	-0.388395	-0.233152
C65	C	1.518443	-0.388201	-0.116376
H66	H	1.252584	-0.524908	-0.484541
H67	H	1.396468	-0.481744	-1.106147
Br68	Br	1.484151	-0.258286	-1.259817
H69	H	1.247020	-0.476187	-1.001525
H70	H	1.125035	-0.569762	-0.901951
H71	H	0.914463	-0.207278	-0.899818
H72	H	1.189047	-0.640896	-0.737801
Br73	Br	0.974636	-0.454801	-0.215460
H74	H	1.123170	-0.569540	-0.112464
H75	H	0.750336	-0.136145	-0.835907
Br76	Br	0.636515	-0.137162	-0.630747
Br77	Br	1.394195	-0.639735	-0.624113
Br78	Br	1.552674	-0.518123	-0.753444
H79	H	1.118444	-0.294937	-0.628245
H80	H	0.785083	-0.251840	-0.527718
Br81	Br	1.063018	-0.321992	-0.796793
H82	H	0.919194	-0.481831	-0.384016
H83	H	1.287297	-0.640678	-0.176386
Br84	Br	1.401124	-0.639627	-0.381537
Br85	Br	1.676872	-0.266739	-0.877394
H86	H	1.789827	-0.300318	-1.011793
Br87	Br	1.967490	-0.200045	-1.092045
H88	H	1.661807	-0.158027	-1.340068
Br89	Br	1.884332	-0.107613	-1.305301
