data_functionalizedCrystal
_audit_creation_method	'MofGen! by Chris Wilmer'
_symmetry_space_group_name_H-M	'P1'
_symmetry_Int_Tables_number	1
_symmetry_cell_setting	triclinic
loop_
_symmetry_equiv_pos_as_xyz
  x,y,z
_cell_length_a	14.971491
_cell_length_b	12.996460
_cell_length_c	14.971486
_cell_angle_alpha	90.006353
_cell_angle_beta	83.615182
_cell_angle_gamma	90.007431
loop_
_atom_site_label
_atom_site_type_symbol
_atom_site_fract_x
_atom_site_fract_y
_atom_site_fract_z
O1	O	1.186943	0.085611	0.116586
O2	O	1.686943	0.585611	0.616586
O3	O	0.926544	0.085604	0.130540
O4	O	1.426544	0.585604	0.630540
O5	O	1.063723	0.085601	-0.006637
O6	O	1.563723	0.585601	0.493363
O7	O	1.049764	0.085615	0.253763
O8	O	1.549764	0.585615	0.753763
O9	O	1.063708	-0.085533	-0.006644
O10	O	1.563708	0.414467	0.493356
O11	O	0.926529	-0.085530	0.130533
O12	O	1.426529	0.414470	0.630533
O13	O	1.186929	-0.085522	0.116579
O14	O	1.686929	0.414478	0.616579
Cu15	Cu	1.056728	-0.101152	0.123555
Cu16	Cu	1.556728	0.398848	0.623555
Cu17	Cu	1.056745	0.101234	0.123564
Cu18	Cu	1.556745	0.601234	0.623564
O19	O	1.049750	-0.085519	0.253756
O20	O	1.549750	0.414481	0.753756
C21	C	0.893212	0.000036	0.129912
C22	C	1.393212	0.500036	0.629912
C23	C	0.793915	0.000033	0.128039
C24	C	1.293915	0.500033	0.628039
C25	C	0.366217	0.093341	0.119963
C26	C	0.866217	0.593341	0.619963
C27	C	0.459517	0.093338	0.121720
C28	C	0.959517	0.593338	0.621720
C29	C	0.506155	0.000049	0.122600
C30	C	1.006155	0.500049	0.622600
C31	C	0.459489	-0.093242	0.121714
C32	C	0.959489	0.406758	0.621714
C33	C	0.366192	-0.093237	0.119951
C34	C	0.866192	0.406763	0.619951
C35	C	0.653951	-0.093246	0.125391
C36	C	1.153951	0.406754	0.625391
C37	C	0.747255	-0.093251	0.127156
C38	C	1.247255	0.406749	0.627156
C39	C	0.747277	0.093329	0.127160
C40	C	1.247277	0.593329	0.627160
C41	C	0.653979	0.093334	0.125397
C42	C	1.153979	0.593334	0.625397
C43	C	0.607319	0.000043	0.124513
C44	C	1.107319	0.500043	0.624513
N45	N	1.056722	-0.243499	0.123548
N46	N	1.556722	0.256501	0.623548
C47	C	1.056743	-0.663313	0.123565
C48	C	1.556743	-0.163313	0.623565
C49	C	1.056735	-0.546508	0.123563
C50	C	1.556735	-0.046508	0.623563
C51	C	1.056733	-0.453410	0.123557
C52	C	1.556733	0.046590	0.623557
C53	C	1.056724	-0.336597	0.123554
C54	C	1.556724	0.163403	0.623554
C55	C	1.220261	0.000048	0.117207
C56	C	1.720261	0.500048	0.617207
C57	C	1.319557	0.000058	0.119080
C58	C	1.819557	0.500058	0.619080
C59	C	1.063091	0.000034	-0.039965
C60	C	1.563091	0.500034	0.460035
C61	C	1.061221	0.000035	-0.139262
C62	C	1.561221	0.500035	0.360738
N63	N	1.056757	0.243581	0.123564
N64	N	1.556757	0.743581	0.623564
C65	C	1.141810	0.000036	-0.196486
C66	C	1.641810	0.500036	0.303514
C67	C	1.140046	0.000047	-0.289786
C68	C	1.640046	0.500047	0.210214
C69	C	1.057693	0.000048	-0.325859
C70	C	1.557693	0.500048	0.174141
C71	C	0.977098	0.000050	-0.268628
C72	C	1.477098	0.500050	0.231372
C73	C	0.978862	0.000047	-0.175331
C74	C	1.478862	0.500047	0.324669
C75	C	0.973427	0.000053	-0.463091
C76	C	1.473427	0.500053	0.036909
C77	C	0.971663	0.000054	-0.556395
C78	C	1.471663	0.500054	-0.056395
C79	C	1.134611	0.000053	-0.577546
C80	C	1.634611	0.500053	-0.077546
C81	C	1.136375	0.000050	-0.484248
C82	C	1.636375	0.500050	0.015752
C83	C	1.055780	0.000050	-0.427023
C84	C	1.555780	0.500050	0.072977
C85	C	1.050381	0.000050	0.287084
C86	C	1.550381	0.500050	0.787084
C87	C	1.052252	0.000056	0.386381
C88	C	1.552252	0.500056	0.886381
H89	H	0.497470	-0.169199	0.122425
H90	H	0.997470	0.330801	0.622425
Cl91	Cl	1.235932	0.000059	-0.649485
Cl92	Cl	1.735932	0.500059	-0.149485
Cl93	Cl	0.868132	0.000055	-0.601744
Cl94	Cl	1.368132	0.500055	-0.101744
Cl95	Cl	0.307534	-0.210513	0.118832
Cl96	Cl	0.807534	0.289487	0.618832
Cl97	Cl	1.241363	0.000046	-0.361721
Cl98	Cl	1.741363	0.500046	0.138279
H99	H	0.497504	0.169298	0.122433
H100	H	0.997504	0.669298	0.622433
H101	H	0.907797	0.000055	-0.416500
H102	H	1.407797	0.500055	0.083500
H103	H	1.208871	0.000029	-0.167123
H104	H	1.708871	0.500029	0.332877
Cl105	Cl	0.595296	-0.210528	0.124269
Cl106	Cl	1.095296	0.289472	0.624269
Cl107	Cl	0.805933	0.210610	0.128282
Cl108	Cl	1.305933	0.710610	0.628282
Cl109	Cl	1.239907	0.000054	-0.438899
Cl110	Cl	1.739907	0.500054	0.061101
H111	H	0.785225	-0.169215	0.127877
H112	H	1.285225	0.330785	0.627877
Cl113	Cl	0.873568	0.000064	-0.313978
Cl114	Cl	1.373568	0.500064	0.186022
Cl115	Cl	0.877546	0.000048	-0.103391
Cl116	Cl	1.377546	0.500048	0.396609
H117	H	0.328250	0.169308	0.119253
H118	H	0.828250	0.669308	0.619253
H119	H	0.616008	0.169298	0.124686
H120	H	1.116008	0.669298	0.624686
