data_functionalizedCrystal
_audit_creation_method	'MofGen! by Chris Wilmer'
_symmetry_space_group_name_H-M	'P1'
_symmetry_Int_Tables_number	1
_symmetry_cell_setting	triclinic
loop_
_symmetry_equiv_pos_as_xyz
  x,y,z
_cell_length_a	14.044191
_cell_length_b	10.723024
_cell_length_c	9.198806
_cell_angle_alpha	89.996352
_cell_angle_beta	89.999488
_cell_angle_gamma	91.170177
loop_
_atom_site_label
_atom_site_type_symbol
_atom_site_fract_x
_atom_site_fract_y
_atom_site_fract_z
O1	O	-0.133040	1.670502	-0.120871
O2	O	0.366960	2.170502	0.379129
O3	O	-0.145775	1.308624	-0.120875
O4	O	0.354225	1.808624	0.379125
O5	O	-0.001387	1.484127	-0.120876
O6	O	0.498613	1.984127	0.379124
O7	O	-0.277427	1.495000	-0.120870
O8	O	0.222573	1.995000	0.379130
O9	O	-0.001387	1.484112	0.120909
O10	O	0.498613	1.984112	0.620909
O11	O	-0.145774	1.308609	0.120910
O12	O	0.354226	1.808609	0.620910
O13	O	-0.133040	1.670487	0.120914
O14	O	0.366960	2.170487	0.620914
Cu15	Cu	-0.139407	1.489547	0.142989
Cu16	Cu	0.360593	1.989547	0.642989
Cu17	Cu	-0.139407	1.489565	-0.142950
Cu18	Cu	0.360593	1.989565	0.357050
O19	O	-0.277427	1.494985	0.120915
O20	O	0.222573	1.994985	0.620915
C21	C	-0.144848	1.262025	0.000017
C22	C	0.355152	1.762025	0.500017
C23	C	-0.142075	1.123193	0.000015
C24	C	0.357925	1.623193	0.500015
C25	C	-0.222867	1.056296	0.000016
C26	C	0.277133	1.556296	0.500016
C27	C	-0.220003	0.912806	0.000014
C28	C	0.279997	1.412806	0.500014
C29	C	-0.312773	1.499749	0.000023
C30	C	0.187227	1.999749	0.500023
C31	C	-0.418091	1.513937	0.000025
C32	C	0.081909	2.013937	0.500025
C33	C	-0.667892	1.439251	0.000011
C34	C	-0.167892	1.939251	0.500011
C35	C	-0.610917	1.539855	0.000015
C36	C	-0.110917	2.039855	0.500015
C37	C	-0.503619	1.525431	0.000021
C38	C	-0.003619	2.025431	0.500021
C39	C	-0.775200	1.453674	0.000006
C40	C	-0.275200	1.953674	0.500006
C41	C	0.033958	1.479363	0.000013
C42	C	0.533958	1.979363	0.500013
C43	C	0.139277	1.465175	0.000001
C44	C	0.639277	1.965175	0.500001
C45	C	-0.133967	1.717087	0.000019
C46	C	0.366033	2.217087	0.500019
C47	C	-0.136739	1.855919	0.000011
C48	C	0.363261	2.355919	0.500011
N49	N	-0.139406	1.489543	0.344103
N50	N	0.360594	1.989543	0.844103
N51	N	-0.139401	1.489577	-0.344064
N52	N	0.360599	1.989577	0.155936
C53	C	-0.078515	1.563205	0.416300
C54	C	0.421485	2.063205	0.916300
C55	C	-0.078511	1.563224	0.583712
C56	C	0.421489	2.063224	1.083712
H57	H	-0.070786	1.074236	-0.000024
H58	H	0.429214	1.574236	0.499976
H59	H	-0.191532	1.426488	0.406231
H60	H	0.308468	1.926488	0.906231
H61	H	-0.191539	1.426514	0.593860
H62	H	0.308461	1.926514	1.093860
F63	F	-0.046329	0.931077	-0.000000
F64	F	0.453671	1.431077	0.500000
H65	H	-0.294155	1.105252	0.000026
H66	H	0.205845	1.605252	0.500026
H67	H	-0.026381	1.626252	0.354173
H68	H	0.473619	2.126252	0.854173
F69	F	-0.626322	1.312521	0.000012
F70	F	-0.126322	1.812521	0.500012
F71	F	-0.310409	0.837640	0.000004
F72	F	0.189591	1.337640	0.500004
F73	F	-0.652487	1.666594	0.000018
F74	F	-0.152487	2.166594	0.500018
F75	F	-0.010374	1.645664	0.664859
F76	F	0.489626	2.145664	1.164859
