data_functionalizedCrystal
_audit_creation_method	'MofGen! by Chris Wilmer'
_symmetry_space_group_name_H-M	'P1'
_symmetry_Int_Tables_number	1
_symmetry_cell_setting	triclinic
loop_
_symmetry_equiv_pos_as_xyz
  x,y,z
_cell_length_a	14.519709
_cell_length_b	17.699083
_cell_length_c	16.776229
_cell_angle_alpha	89.992455
_cell_angle_beta	89.998478
_cell_angle_gamma	83.481580
loop_
_atom_site_label
_atom_site_type_symbol
_atom_site_fract_x
_atom_site_fract_y
_atom_site_fract_z
O1	O	1.223449	0.099215	-0.066186
O2	O	0.954923	0.110899	-0.066211
O3	O	1.096772	-0.005110	-0.066191
O4	O	1.081599	0.215225	-0.066206
O5	O	1.096754	-0.005117	0.066386
O6	O	0.954904	0.110892	0.066366
O7	O	1.223430	0.099208	0.066390
Zn8	Zn	1.089164	0.105049	0.087428
Zn9	Zn	1.089189	0.105058	-0.087248
O10	O	1.081580	0.215218	0.066370
C11	C	1.096219	-0.033312	0.000098
C12	C	1.094588	-0.117335	0.000098
C13	C	0.920556	0.110351	0.000075
C14	C	0.818181	0.108719	0.000065
C15	C	1.177851	-0.165718	0.000107
C16	C	1.176313	-0.244665	0.000099
C17	C	1.091511	-0.275229	0.000089
C18	C	1.008242	-0.226840	0.000078
C19	C	1.009781	-0.147894	0.000080
C20	C	1.002033	-0.545221	0.000071
C21	C	1.000501	-0.624173	0.000072
C22	C	1.168566	-0.641992	0.000091
C23	C	1.170105	-0.563046	0.000092
C24	C	1.086836	-0.514664	0.000077
C25	C	1.088505	-0.429060	0.000083
C26	C	1.089841	-0.360831	0.000089
C27	C	0.443311	0.102712	0.000102
C28	C	0.547612	0.104380	0.000092
C29	C	0.630743	0.105716	0.000083
C30	C	0.735050	0.107384	0.000074
C31	C	1.257797	0.099756	0.000104
C32	C	1.360171	0.101388	0.000107
C33	C	1.082134	0.243420	0.000080
C34	C	1.083765	0.327442	0.000075
N35	N	1.089154	0.105042	0.206639
N36	N	1.089206	0.105059	-0.206459
C37	C	1.151984	0.053694	0.248365
C38	C	1.151989	0.053694	0.331817
C39	C	1.089168	0.105045	0.373542
C40	C	1.026331	0.156395	0.331810
C41	C	1.026322	0.156392	0.248359
C42	C	1.026364	0.156410	0.668357
C43	C	1.026380	0.156411	0.751814
C44	C	1.152031	0.053712	0.751815
C45	C	1.152022	0.053709	0.668364
C46	C	1.089183	0.105056	0.626640
C47	C	1.089177	0.105055	0.536151
C48	C	1.089177	0.105050	0.464028
H49	H	1.244114	-0.284056	0.000108
H50	H	1.239159	-0.538166	0.000105
N51	N	1.216226	0.001254	0.794426
N52	N	1.301459	0.002450	0.785095
H53	H	1.346798	-0.034597	0.815187
N54	N	1.264477	-0.134503	0.000101
N55	N	1.284094	-0.092434	-0.055783
H56	H	1.345276	-0.070390	-0.055791
H57	H	1.236367	-0.681395	0.000099
H58	H	0.931441	-0.649055	0.000065
H59	H	1.203180	0.011896	0.634394
N60	N	0.962200	0.208874	0.794424
N61	N	0.906098	0.254715	0.757162
H62	H	0.860773	0.291765	0.787254
N63	N	0.962146	0.208837	0.374430
N64	N	0.904968	0.184715	0.421006
H65	H	0.859636	0.221754	0.451107
H66	H	0.975158	0.198203	0.214387
H67	H	0.934231	-0.505837	0.000059
H68	H	0.941980	-0.108501	0.000072
N69	N	0.921626	-0.258070	0.000058
N70	N	0.920262	-0.328558	0.000057
H71	H	0.859087	-0.350614	0.000044
N72	N	1.216113	0.001193	0.205760
N73	N	1.272169	-0.044680	0.243030
H74	H	1.317440	-0.081779	0.212943
H75	H	1.203150	0.011882	0.365790
N76	N	0.962168	0.208860	0.625756
N77	N	0.906084	0.254704	0.663023
H78	H	0.860741	0.291749	0.632934
