data_functionalizedCrystal
_audit_creation_method	'MofGen! by Chris Wilmer'
_symmetry_space_group_name_H-M	'P1'
_symmetry_Int_Tables_number	1
_symmetry_cell_setting	triclinic
loop_
_symmetry_equiv_pos_as_xyz
  x,y,z
_cell_length_a	11.792241
_cell_length_b	10.654541
_cell_length_c	9.130307
_cell_angle_alpha	89.996917
_cell_angle_beta	90.002681
_cell_angle_gamma	84.338672
loop_
_atom_site_label
_atom_site_type_symbol
_atom_site_fract_x
_atom_site_fract_y
_atom_site_fract_z
O1	O	1.507300	0.172134	-0.121656
O2	O	1.177000	0.189874	-0.121691
O3	O	1.349746	-0.001757	-0.121664
O4	O	1.334555	0.363765	-0.121683
O5	O	1.349740	-0.001759	0.121935
O6	O	1.176994	0.189872	0.121908
O7	O	1.507295	0.172132	0.121943
Cu8	Cu	1.342144	0.181002	0.144168
Cu9	Cu	1.342151	0.181004	-0.143916
O10	O	1.334549	0.363763	0.121916
C11	C	1.348628	-0.048553	0.000135
C12	C	1.345293	-0.187987	0.000132
C13	C	1.134704	0.188759	0.000105
C14	C	1.008682	0.185423	0.000092
C15	C	1.551857	-0.216542	0.000172
C16	C	1.653568	-0.296324	0.000195
C17	C	1.650427	-0.427333	0.000190
C18	C	1.545564	-0.478562	0.000158
C19	C	1.443854	-0.398780	0.000135
C20	C	1.447006	-0.267770	0.000144
C21	C	1.237292	-0.370225	0.000085
C22	C	1.240430	-0.239216	0.000100
C23	C	1.132429	-0.421454	0.000053
C24	C	1.030716	-0.341672	0.000040
C25	C	1.033861	-0.210655	0.000047
C26	C	1.138720	-0.159434	0.000077
C27	C	0.777956	0.179290	0.000134
C28	C	0.906349	0.182698	0.000111
C29	C	1.549591	0.173247	0.000144
C30	C	1.675612	0.176582	0.000147
C31	C	1.335667	0.410559	0.000114
C32	C	1.339002	0.549993	0.000107
N33	N	1.342148	0.180999	0.346791
N34	N	1.342156	0.180996	-0.346539
C35	C	1.495177	0.011360	0.346805
C36	C	1.571699	-0.073457	0.423478
C37	C	1.571711	-0.073458	0.576812
C38	C	1.495189	0.011365	0.653475
C39	C	1.418667	0.096181	0.576801
C40	C	1.418666	0.096175	0.423464
C41	C	1.265634	0.265813	0.576788
C42	C	1.265626	0.265822	0.423454
C43	C	1.189113	0.350635	0.653451
C44	C	1.112594	0.435459	0.576777
C45	C	1.112587	0.435457	0.423435
C46	C	1.189104	0.350638	0.346781
H47	H	1.554425	-0.109869	0.000196
H48	H	1.141291	-0.052761	0.000091
O49	O	1.495382	0.011361	0.197857
C50	C	1.603302	0.037744	0.146634
H51	H	1.669975	0.012510	0.235000
H52	H	1.601115	0.142386	0.119429
C53	C	1.552193	-0.009715	-0.100469
C54	C	1.634082	-0.040717	0.008059
H55	H	1.571178	-0.058107	-0.185953
H56	H	1.479483	-0.027484	-0.065961
H57	H	1.550378	0.077488	-0.123122
H58	H	1.635886	-0.127914	0.030723
H59	H	1.706794	-0.022963	-0.026449
H60	H	1.738945	-0.254599	0.000233
O61	O	1.038209	0.517971	0.349186
C62	C	0.970659	0.592805	0.449737
H63	H	1.017209	0.594572	0.559038
H64	H	0.886034	0.551382	0.466047
C65	C	0.891131	0.725946	0.255649
C66	C	0.948309	0.728125	0.389891
H67	H	0.877339	0.809417	0.218732
H68	H	0.936637	0.675527	0.187904
H69	H	0.820617	0.691421	0.269259
H70	H	1.018827	0.762635	0.376276
H71	H	0.902813	0.778553	0.457632
H72	H	0.951036	-0.145703	0.000022
O73	O	1.038220	0.517671	0.651409
C74	C	0.967666	0.449872	0.740071
H75	H	1.012110	0.351934	0.763035
H76	H	0.883715	0.440712	0.680977
C77	C	0.889376	0.640772	0.857525
C78	C	0.943968	0.520487	0.885739
H79	H	0.874753	0.684332	0.947377
H80	H	0.936906	0.686452	0.797788
H81	H	0.819423	0.633122	0.808276
H82	H	1.013925	0.528138	0.934970
H83	H	0.896448	0.474810	0.945488
H84	H	1.189109	0.350633	0.221928
H85	H	1.733248	-0.492293	0.000197
H86	H	0.945345	-0.383393	0.000005
H87	H	1.634000	-0.142521	0.361045
H88	H	1.495194	0.011348	0.778327
H89	H	1.129879	-0.528129	0.000040
H90	H	1.543016	-0.585238	0.000136
H91	H	1.634017	-0.142527	0.639239
H92	H	1.189120	0.350625	0.778303
