data_functionalizedCrystal
_audit_creation_method	'MofGen! by Chris Wilmer'
_symmetry_space_group_name_H-M	'P1'
_symmetry_Int_Tables_number	1
_symmetry_cell_setting	triclinic
loop_
_symmetry_equiv_pos_as_xyz
  x,y,z
_cell_length_a	14.853558
_cell_length_b	14.519709
_cell_length_c	13.596369
_cell_angle_alpha	89.993066
_cell_angle_beta	89.995202
_cell_angle_gamma	83.655639
loop_
_atom_site_label
_atom_site_type_symbol
_atom_site_fract_x
_atom_site_fract_y
_atom_site_fract_z
O1	O	1.196418	0.120366	-0.081782
O2	O	0.933962	0.134718	-0.081786
O3	O	1.072149	-0.006699	-0.081775
O4	O	1.058231	0.261784	-0.081793
O5	O	1.072135	-0.006707	0.081808
O6	O	0.933949	0.134711	0.081797
O7	O	1.196404	0.120359	0.081801
Zn8	Zn	1.065174	0.127533	0.107771
Zn9	Zn	1.065192	0.127543	-0.107756
O10	O	1.058218	0.261776	0.081790
C11	C	0.900366	0.134066	0.000005
C12	C	0.800282	0.132122	0.000003
C13	C	0.753269	0.131214	-0.089170
C14	C	0.753252	0.131195	0.089175
C15	C	0.659218	0.129363	0.089176
C16	C	0.612205	0.128456	0.000004
C17	C	0.659226	0.129379	-0.089171
C18	C	0.612190	0.128430	0.178349
C19	C	0.518150	0.126597	0.178355
C20	C	0.471135	0.125696	0.089181
C21	C	0.518162	0.126621	0.000003
C22	C	0.471149	0.125713	-0.089170
C23	C	0.518173	0.126645	-0.178349
C24	C	0.612210	0.128478	-0.178345
C25	C	0.377098	0.123863	0.089176
C26	C	0.377106	0.123879	-0.089171
C27	C	1.071493	-0.041063	0.000017
C28	C	1.069550	-0.143443	0.000017
C29	C	1.062394	-0.518336	-0.000009
C30	C	1.064381	-0.414029	-0.000001
C31	C	1.065972	-0.330893	0.000005
C32	C	1.067959	-0.226579	0.000011
C33	C	1.230000	0.121011	0.000008
C34	C	1.330085	0.122955	0.000003
C35	C	1.058873	0.296139	-0.000004
C36	C	1.060817	0.398520	-0.000011
N37	N	1.065168	0.127526	0.254863
N38	N	1.065205	0.127543	-0.254848
C39	C	1.065191	0.127544	0.656154
C40	C	1.065182	0.127542	0.544503
C41	C	1.065180	0.127536	0.455512
C42	C	1.065170	0.127533	0.343854
H43	H	0.650506	0.129235	-0.250949
H44	H	0.479884	0.125901	-0.250953
C45	C	0.466424	0.125582	0.276446
C46	C	0.411882	0.044305	0.300974
C47	C	0.360153	0.043294	0.399064
C48	C	0.362966	0.123559	0.472627
C49	C	0.417511	0.204842	0.448100
C50	C	0.469240	0.205853	0.350010
H51	H	0.409798	-0.015118	0.246517
H52	H	0.319775	-0.016878	0.417220
H53	H	0.324673	0.122810	0.545239
H54	H	0.419595	0.264264	0.502557
H55	H	0.509617	0.266025	0.331854
C56	C	0.663876	0.129470	0.276447
C57	C	0.661062	0.049221	0.350051
C58	C	0.712740	0.050284	0.448160
C59	C	0.767232	0.131597	0.472665
C60	C	0.770048	0.211852	0.399060
C61	C	0.718371	0.210789	0.300951
H62	H	0.620722	-0.010977	0.331912
H63	H	0.710655	-0.009127	0.502647
H64	H	0.805487	0.132384	0.545291
H65	H	0.810389	0.272050	0.417199
H66	H	0.720456	0.270200	0.246464
H67	H	0.338834	0.123145	-0.161787
C68	C	0.804991	0.132240	-0.187262
C69	C	0.879758	0.053491	-0.211794
C70	C	0.931482	0.054519	-0.309887
C71	C	0.908438	0.134295	-0.383448
C72	C	0.833666	0.213051	-0.358918
C73	C	0.781943	0.212023	-0.260825
H74	H	0.896820	-0.005570	-0.157338
H75	H	0.986833	-0.003782	-0.328045
H76	H	0.946726	0.135056	-0.456062
H77	H	0.816604	0.272112	-0.413374
H78	H	0.726592	0.270323	-0.242667
H79	H	0.791536	0.131927	0.161775
H80	H	0.338813	0.123113	0.161784
