data_functionalizedCrystal
_audit_creation_method	'MofGen! by Chris Wilmer'
_symmetry_space_group_name_H-M	'P1'
_symmetry_Int_Tables_number	1
_symmetry_cell_setting	triclinic
loop_
_symmetry_equiv_pos_as_xyz
  x,y,z
_cell_length_a	14.971482
_cell_length_b	14.044190
_cell_length_c	13.448316
_cell_angle_alpha	90.008381
_cell_angle_beta	90.004522
_cell_angle_gamma	88.402193
loop_
_atom_site_label
_atom_site_type_symbol
_atom_site_fract_x
_atom_site_fract_y
_atom_site_fract_z
O1	O	1.196681	0.123517	0.082690
O2	O	1.530014	0.456851	0.416024
O3	O	1.863348	0.790184	0.749357
O4	O	0.937447	0.138315	0.082697
O5	O	1.270780	0.471648	0.416030
O6	O	1.604113	0.804982	0.749363
O7	O	1.063169	-0.007073	0.082674
O8	O	1.396503	0.326260	0.416007
O9	O	1.729836	0.659594	0.749341
O10	O	1.070958	0.268905	0.082713
O11	O	1.404292	0.602239	0.416046
O12	O	1.737625	0.935572	0.749380
O13	O	1.063156	-0.007074	-0.082710
O14	O	1.396489	0.326259	0.250624
O15	O	1.729822	0.659592	0.583957
O16	O	0.937433	0.138314	-0.082687
O17	O	1.270766	0.471647	0.250646
O18	O	1.604099	0.804980	0.583980
O19	O	1.196667	0.123516	-0.082693
O20	O	1.530001	0.456849	0.250640
O21	O	1.863334	0.790183	0.583973
Cu22	Cu	1.067049	0.130915	-0.097791
Cu23	Cu	1.400382	0.464248	0.235542
Cu24	Cu	1.733715	0.797581	0.568876
Cu25	Cu	1.067065	0.130916	0.097794
Cu26	Cu	1.400398	0.464250	0.431128
Cu27	Cu	1.733732	0.797583	0.764461
O28	O	1.070944	0.268904	-0.082671
O29	O	1.404278	0.602237	0.250663
O30	O	1.737611	0.935571	0.583996
C31	C	0.904063	0.137653	0.000005
C32	C	1.237396	0.470987	0.333339
C33	C	1.570729	0.804320	0.666672
C34	C	0.804609	0.135672	0.000007
C35	C	1.137943	0.469005	0.333340
C36	C	1.471276	0.802339	0.666673
C37	C	0.757884	0.134738	-0.090145
C38	C	1.091217	0.468071	0.243188
C39	C	1.424550	0.801405	0.576522
C40	C	0.664437	0.132861	-0.090147
C41	C	0.997771	0.466195	0.243187
C42	C	1.331104	0.799528	0.576520
C43	C	0.617718	0.131925	0.000005
C44	C	0.951051	0.465259	0.333338
C45	C	1.284385	0.798592	0.666672
C46	C	0.664450	0.132856	0.090164
C47	C	0.997784	0.466190	0.423497
C48	C	1.331117	0.799523	0.756831
C49	C	0.757895	0.134726	0.090164
C50	C	1.091229	0.468060	0.423498
C51	C	1.424562	0.801393	0.756831
C52	C	0.469682	0.128961	0.090157
C53	C	0.803015	0.462295	0.423490
C54	C	1.136348	0.795628	0.756824
C55	C	0.376230	0.127093	0.090157
C56	C	0.709563	0.460426	0.423490
C57	C	1.042897	0.793760	0.756824
C58	C	0.376224	0.127096	-0.090154
C59	C	0.709557	0.460430	0.243180
C60	C	1.042890	0.793763	0.576513
C61	C	0.469668	0.128966	-0.090153
C62	C	0.803002	0.462300	0.243180
C63	C	1.136335	0.795633	0.576513
C64	C	0.516394	0.129899	0.000006
C65	C	0.849728	0.463232	0.333339
C66	C	1.183061	0.796566	0.666672
C67	C	1.059755	-0.042392	-0.000021
C68	C	1.393088	0.290941	0.333313
C69	C	1.726422	0.624275	0.666646
C70	C	1.049591	-0.147629	-0.000029
C71	C	1.382925	0.185704	0.333304
C72	C	1.716258	0.519037	0.666638
C73	C	1.103093	-0.397856	0.000009
C74	C	1.436427	-0.064522	0.333342
C75	C	1.769760	0.268811	0.666675
C76	C	1.031025	-0.340307	0.000003
C77	C	1.364358	-0.006974	0.333337
C78	C	1.697691	0.326359	0.666670
C79	C	1.041358	-0.233092	-0.000015
C80	C	1.374691	0.100242	0.333319
C81	C	1.708024	0.433575	0.666652
C82	C	1.092761	-0.505082	0.000027
C83	C	1.426095	-0.171748	0.333360
C84	C	1.759428	0.161585	0.666693
C85	C	1.230051	0.124178	0.000000
C86	C	1.563384	0.457511	0.333334
C87	C	1.896718	0.790845	0.666667
C88	C	1.329504	0.126159	0.000005
C89	C	1.662838	0.459492	0.333339
C90	C	1.996171	0.792826	0.666672
C91	C	1.074359	0.304223	0.000026
C92	C	1.407692	0.637556	0.333359
C93	C	1.741025	0.970890	0.666693
C94	C	1.084522	0.409460	0.000041
C95	C	1.417856	0.742794	0.333374
C96	C	1.751189	1.076127	0.666708
N97	N	1.067044	0.130913	-0.235355
N98	N	1.400377	0.464246	0.097978
N99	N	1.733710	0.797580	0.431311
C100	C	1.125884	0.188504	-0.287384
C101	C	1.459218	0.521838	0.045949
C102	C	1.792551	0.855171	0.379282
C103	C	1.125895	0.188500	-0.391487
C104	C	1.459229	0.521834	-0.058154
C105	C	1.792562	0.855167	0.275179
C106	C	1.067060	0.130909	-0.443560
C107	C	1.400394	0.464243	-0.110227
C108	C	1.733727	0.797576	0.223107
C109	C	1.008217	0.073312	-0.391524
C110	C	1.341550	0.406645	-0.058191
C111	C	1.674884	0.739978	0.275143
C112	C	1.008211	0.073311	-0.287423
C113	C	1.341544	0.406645	0.045911
C114	C	1.674878	0.739978	0.379244
C115	C	1.008232	0.073318	-0.608504
C116	C	1.341565	0.406651	-0.275171
C117	C	1.674898	0.739985	0.058163
C118	C	1.008236	0.073319	-0.712612
C119	C	1.341569	0.406653	-0.379279
C120	C	1.674903	0.739986	-0.045946
C121	C	1.125916	0.188507	-0.712569
C122	C	1.459249	0.521840	-0.379236
C123	C	1.792582	0.855174	-0.045902
C124	C	1.125910	0.188507	-0.608468
C125	C	1.459243	0.521840	-0.275134
C126	C	1.792577	0.855173	0.058199
C127	C	1.067065	0.130910	-0.556439
C128	C	1.400398	0.464243	-0.223105
C129	C	1.733732	0.797577	0.110228
N130	N	1.067077	0.130910	0.235359
N131	N	1.400410	0.464244	0.568692
N132	N	1.733743	0.797577	0.902025
H133	H	0.507705	0.129734	-0.163563
H134	H	0.841038	0.463068	0.169770
H135	H	1.174371	0.796401	0.503104
H136	H	1.173826	0.235408	-0.754936
H137	H	1.507159	0.568741	-0.421602
H138	H	1.840493	0.902075	-0.088269
H139	H	0.961564	-0.371561	0.000011
H140	H	1.294898	-0.038227	0.333344
H141	H	1.628231	0.295106	0.666677
H142	H	1.173790	0.235407	-0.244994
H143	H	1.507123	0.568741	0.088339
H144	H	1.840456	0.902074	0.421672
H145	H	0.626398	0.132085	-0.163557
H146	H	0.959731	0.465419	0.169776
H147	H	1.293065	0.798752	0.503109
H148	H	1.172548	-0.366604	-0.000003
H149	H	1.505881	-0.033271	0.333330
H150	H	1.839215	0.300062	0.666663
H151	H	0.960315	0.026415	-0.566145
H152	H	1.293648	0.359749	-0.232812
H153	H	1.626982	0.693082	0.100521
H154	H	0.626404	0.132087	0.163567
H155	H	0.959738	0.465421	0.496900
H156	H	1.293071	0.798754	0.830234
H157	H	1.173811	0.235395	-0.433845
H158	H	1.507144	0.568728	-0.100511
H159	H	1.840477	0.902062	0.232822
H160	H	0.960297	0.026415	-0.245062
H161	H	1.293630	0.359748	0.088271
H162	H	1.626963	0.693081	0.421605
H163	H	1.173815	0.235407	-0.566073
H164	H	1.507148	0.568740	-0.232740
H165	H	1.840481	0.902073	0.100594
H166	H	0.960326	0.026425	-0.755007
H167	H	1.293660	0.359758	-0.421674
H168	H	1.626993	0.693092	-0.088341
H169	H	0.960317	0.026415	-0.433930
H170	H	1.293650	0.359749	-0.100596
H171	H	1.626983	0.693082	0.232737
H172	H	0.338175	0.126337	-0.163565
H173	H	0.671508	0.459670	0.169769
H174	H	1.004842	0.793004	0.503102
H175	H	0.795915	0.135508	-0.163557
H176	H	1.129249	0.468841	0.169776
H177	H	1.462582	0.802175	0.503109
H178	H	0.507723	0.129721	0.163574
H179	H	0.841056	0.463054	0.496908
H180	H	1.174389	0.796388	0.830241
H181	H	0.338194	0.126332	0.163567
H182	H	0.671527	0.459665	0.496900
H183	H	1.004860	0.792998	0.830233
H184	H	0.795938	0.135489	0.163575
H185	H	1.129272	0.468822	0.496909
H186	H	1.462605	0.802155	0.830242
