data_functionalizedCrystal
_audit_creation_method	'MofGen! by Chris Wilmer'
_symmetry_space_group_name_H-M	'P1'
_symmetry_Int_Tables_number	1
_symmetry_cell_setting	triclinic
loop_
_symmetry_equiv_pos_as_xyz
  x,y,z
_cell_length_a	12.827893
_cell_length_b	12.759400
_cell_length_c	12.759393
_cell_angle_alpha	89.968436
_cell_angle_beta	90.019703
_cell_angle_gamma	89.985345
loop_
_atom_site_label
_atom_site_type_symbol
_atom_site_fract_x
_atom_site_fract_y
_atom_site_fract_z
Zn1	Zn	1.597679	0.418205	0.594015
Zn2	Zn	1.597574	0.593924	0.418335
Zn3	Zn	1.422919	0.418260	0.418351
Zn4	Zn	1.422908	0.593843	0.593973
O5	O	1.510270	0.506058	0.506169
O6	O	1.743901	0.441526	0.570722
O7	O	1.574367	0.570679	0.271316
O8	O	1.446150	0.271231	0.441677
O9	O	1.743824	0.570626	0.441651
O10	O	1.574546	0.271191	0.570737
O11	O	1.446048	0.441619	0.271328
O12	O	1.276682	0.441540	0.441636
O13	O	1.446131	0.570487	0.741000
O14	O	1.276673	0.570540	0.570665
O15	O	1.574535	0.441447	0.741031
O16	O	1.574356	0.740934	0.441610
O17	O	1.446029	0.740874	0.570650
C18	C	1.510208	0.779025	0.506147
C19	C	1.510277	0.895802	0.506172
C20	C	1.238760	0.506038	0.506149
C21	C	1.122607	0.506054	0.506165
C22	C	1.510343	0.505952	0.780202
C23	C	1.510374	0.505907	0.896979
C24	C	1.070846	0.569987	0.569914
C25	C	0.950796	0.570006	0.569932
C26	C	1.782840	0.506079	0.506189
C27	C	1.898993	0.506088	0.506198
C28	C	1.510361	0.232025	0.506214
C29	C	1.510400	0.115248	0.506233
C30	C	1.577171	0.950660	0.439055
C31	C	1.577235	1.060384	0.439088
C32	C	1.443503	1.060382	0.573357
C33	C	1.443445	0.950660	0.573329
C34	C	1.654377	0.950662	0.361533
C35	C	1.654441	1.060386	0.361565
C36	C	1.510257	0.506088	0.233201
C37	C	1.510429	0.505837	0.116425
C38	C	1.577243	0.438709	0.951859
C39	C	1.577268	0.438671	1.061583
C40	C	1.443552	0.573037	1.061538
C41	C	1.443523	0.573069	0.951815
C42	C	1.654447	0.361137	0.951886
C43	C	1.654472	0.361099	1.061610
H44	H	1.115408	0.624705	0.624482
C45	C	1.829895	0.995637	0.408973
C46	C	1.763594	0.910345	0.391041
H47	H	1.897316	0.970744	0.427196
H48	H	1.834350	1.037036	0.347248
H49	H	1.802989	1.036966	0.464652
H50	H	1.790496	0.869020	0.335357
H51	H	1.759143	0.868929	0.452774
C52	C	1.589665	0.986630	0.188616
C53	C	1.615283	0.904824	0.257144
H54	H	1.565535	0.958328	0.124170
H55	H	1.536458	1.028539	0.218985
H56	H	1.649635	1.028493	0.176205
H57	H	1.555310	0.862965	0.269562
H58	H	1.668493	0.862897	0.226768
H59	H	0.943500	0.451353	0.451614
C60	C	1.392536	1.094063	0.751228
C61	C	1.370042	1.120687	0.647171
H62	H	1.347186	1.131298	0.796797
H63	H	1.382919	1.020874	0.760808
H64	H	1.462755	1.111978	0.766654
H65	H	1.299825	1.102765	0.631743
H66	H	1.379650	1.193892	0.637587
H67	H	1.389068	0.627784	0.907136
C68	C	1.384226	0.632653	1.229715
C69	C	1.370081	0.646869	1.121818
H70	H	1.338871	0.678241	1.266925
H71	H	1.368956	0.562064	1.247706
H72	H	1.454442	0.648029	1.247688
H73	H	1.299865	0.631485	1.103843
H74	H	1.385343	0.717473	1.103819
C75	C	1.428801	0.827179	0.714617
C76	C	1.369921	0.890363	0.647117
H77	H	1.383406	0.789961	0.760177
H78	H	1.468580	0.778804	0.674621
H79	H	1.474336	0.869926	0.754843
H80	H	1.324391	0.847614	0.606885
H81	H	1.330124	0.938743	0.687117
C82	C	1.607493	0.184660	0.997080
C83	C	1.625205	0.251306	0.911705
H84	H	1.589434	0.116860	0.972272
H85	H	1.668916	0.180227	1.038438
H86	H	1.552102	0.211687	1.038423
H87	H	1.680602	0.224282	0.870366
H88	H	1.563775	0.255736	0.870330
H89	H	1.735408	0.382892	1.091390
H90	H	0.906282	0.624744	0.624507
C91	C	1.826379	0.426315	0.987659
C92	C	1.758206	0.400497	0.905930
H93	H	1.890436	0.450609	0.959284
H94	H	1.796127	0.479798	1.029534
H95	H	1.838820	0.366041	1.029575
H96	H	1.745758	0.460773	0.864017
H97	H	1.788463	0.347010	0.864036
C98	C	0.999682	0.491442	0.364984
C99	C	1.062470	0.432185	0.432485
H100	H	0.962567	0.445837	0.319488
H101	H	0.951651	0.531536	0.404983
H102	H	1.042254	0.537129	0.324690
H103	H	1.019898	0.386503	0.472785
H104	H	1.110507	0.392073	0.392482
H105	H	1.731332	1.094331	0.390779
H106	H	1.632820	1.090249	0.280184
H107	H	1.625513	0.283790	1.095657
