data_functionalizedCrystal
_audit_creation_method	'MofGen! by Chris Wilmer'
_symmetry_space_group_name_H-M	'P1'
_symmetry_Int_Tables_number	1
_symmetry_cell_setting	triclinic
loop_
_symmetry_equiv_pos_as_xyz
  x,y,z
_cell_length_a	27.440280
_cell_length_b	19.851628
_cell_length_c	27.440280
_cell_angle_alpha	59.996334
_cell_angle_beta	90.007570
_cell_angle_gamma	60.002588
loop_
_atom_site_label
_atom_site_type_symbol
_atom_site_fract_x
_atom_site_fract_y
_atom_site_fract_z
Zr1	Zr	0.469532	0.737262	-0.063922
O2	O	0.391713	0.877814	-0.141754
O3	O	0.493383	0.596723	-0.040059
O4	O	0.493380	0.737265	-0.141736
O5	O	0.391724	0.737264	0.040124
O6	O	0.573583	0.737252	-0.141726
O7	O	0.391716	0.737272	-0.040077
O8	O	0.573589	0.485849	0.040156
O9	O	0.391718	0.988668	-0.141758
O10	O	0.563416	0.654514	-0.029878
O11	O	0.503567	0.654518	0.029967
O12	O	0.503564	0.819988	-0.089745
O13	O	0.443715	0.819992	-0.029899
Zr14	Zr	0.597459	0.737228	0.064005
Zr15	Zr	0.597447	0.737241	-0.063906
Zr16	Zr	0.469545	0.737249	0.063989
Zr17	Zr	0.469541	0.914061	-0.063928
Zr18	Zr	0.597450	0.560429	0.064011
O19	O	0.573608	0.877766	0.040142
O20	O	0.573590	0.877784	-0.141731
O21	O	0.391731	0.877796	0.040119
O22	O	0.675279	0.596676	0.141837
O23	O	0.675261	0.596694	-0.040036
O24	O	0.493402	0.596706	0.141814
O25	O	0.675268	0.737226	-0.040041
O26	O	0.573611	0.737225	0.141819
O27	O	0.493409	0.737238	0.141809
O28	O	0.675276	0.737218	0.040160
O29	O	0.493393	0.988651	-0.141745
O30	O	0.573599	0.485839	0.141828
O31	O	0.675273	0.485822	0.141841
O32	O	0.675263	0.485832	0.040168
O33	O	0.391728	0.988658	-0.040085
O34	O	0.493403	0.988641	-0.040073
O35	O	0.563428	0.654502	0.089828
O36	O	0.623276	0.654498	0.029982
O37	O	0.563424	0.819972	-0.029884
O38	O	0.503576	0.819976	0.029961
C39	C	0.533485	0.516096	0.000049
C40	C	0.533481	0.441040	0.000052
C41	C	0.373495	0.737271	0.000021
C42	C	0.319192	0.737280	0.000015
C43	C	0.500859	0.259683	0.032677
C44	C	0.477202	0.270031	-0.023608
C45	C	0.533491	0.303620	0.000043
C46	C	0.557129	0.159557	0.056314
C47	C	0.533500	0.170875	0.000040
C48	C	0.509801	0.315002	-0.056274
C49	C	0.589759	0.204482	0.023688
C50	C	0.566116	0.214863	-0.032630
C51	C	0.533484	0.380091	0.000046
C52	C	0.533505	0.094410	0.000032
C53	C	0.013736	0.650854	0.031308
C54	C	-0.037282	0.650848	0.031313
O55	O	-0.037100	0.577389	0.057908
N56	N	-0.094041	0.737223	0.000063
C57	C	-0.099781	0.823609	-0.031190
O58	O	-0.152743	0.897076	-0.057770
C59	C	-0.048763	0.823613	-0.031191
C60	C	0.007995	0.737233	0.000056
C61	C	0.070492	0.564480	0.062553
C62	C	0.121507	0.564486	0.062546
C63	C	0.115766	0.650865	0.031295
C64	C	0.059010	0.737238	0.000050
C65	C	-0.054503	0.909997	-0.062440
C66	C	-0.003479	0.909994	-0.062438
C67	C	0.053279	0.823614	-0.031191
C68	C	0.104284	0.823623	-0.031208
N69	N	0.161043	0.737248	0.000042
C70	C	0.166784	0.650869	0.031293
C71	C	-0.206919	0.823593	-0.031184
C72	C	-0.257937	0.823590	-0.031186
C73	C	-0.195435	0.650829	0.031318
C74	C	-0.144417	0.650833	0.031316
C75	C	-0.150161	0.737218	0.000067
C76	C	0.273916	0.650887	0.031277
C77	C	0.324933	0.650901	0.031266
C78	C	0.262426	0.823661	-0.031235
C79	C	0.211414	0.823648	-0.031226
C80	C	0.217163	0.737254	0.000034
O81	O	0.104148	0.897044	-0.057787
O82	O	0.219748	0.577414	0.057875
C83	C	0.693497	0.737219	0.000062
C84	C	0.747800	0.737210	0.000068
C85	C	0.533480	0.737260	-0.159956
C86	C	0.533474	0.737266	-0.214257
C87	C	0.533507	0.958394	0.000034
C88	C	0.533511	1.033450	0.000031
C89	C	0.489308	0.737239	-0.448950
C90	C	0.489306	0.737241	-0.397931
O91	O	0.451740	0.737215	-0.371535
N92	N	0.533488	0.737241	-0.372412
C93	C	0.577679	0.737229	-0.397912
O94	O	0.615259	0.737228	-0.371521
C95	C	0.577684	0.737220	-0.448928
C96	C	0.533495	0.737230	-0.474448
C97	C	0.445124	0.737248	-0.474470
C98	C	0.445126	0.737247	-0.525486
C99	C	0.489313	0.737238	-0.550984
C100	C	0.533498	0.737230	-0.525465
C101	C	0.621877	0.737201	-0.474425
C102	C	0.621878	0.737192	-0.525445
C103	C	0.577690	0.737202	-0.550964
C104	C	0.577687	0.737220	-0.601979
N105	N	0.533505	0.737220	-0.627498
C106	C	0.489318	0.737229	-0.602000
C107	C	0.577666	0.737246	-0.290774
C108	C	0.577660	0.737262	-0.239761
C109	C	0.489287	0.737272	-0.239783
C110	C	0.489291	0.737263	-0.290799
C111	C	0.533484	0.737246	-0.316293
C112	C	0.489326	0.737230	-0.709139
C113	C	0.489331	0.737233	-0.760162
C114	C	0.577705	0.737218	-0.760134
C115	C	0.577699	0.737219	-0.709118
C116	C	0.533506	0.737222	-0.683620
O117	O	0.615235	0.737242	-0.628406
O118	O	0.451748	0.737218	-0.628393
C119	C	0.533512	0.737229	0.160039
C120	C	0.533517	0.737224	0.214341
C121	C	0.693486	0.516070	0.000069
C122	C	0.747785	0.441005	0.000079
C123	C	0.533501	0.516080	0.160046
C124	C	0.533502	0.441019	0.214351
C125	C	0.693502	0.516054	0.160067
C126	C	0.747806	0.440984	0.214378
C127	C	0.373490	0.958435	-0.159983
C128	C	0.319185	1.033505	-0.214294
C129	C	0.373506	0.958420	0.000014
C130	C	0.319207	1.033485	0.000005
C131	C	0.533491	0.958410	-0.159963
C132	C	0.533489	1.033471	-0.214268
C133	C	0.742038	0.405762	-0.031169
C134	C	0.793053	0.335240	-0.031172
C135	C	0.849814	0.299959	0.000076
C136	C	0.855560	0.335209	0.031325
C137	C	0.804546	0.405734	0.031324
C138	C	0.564750	0.405762	0.271104
C139	C	0.564749	0.335243	0.322134
C140	C	0.533504	0.299979	0.316408
C141	C	0.502253	0.335244	0.259649
C142	C	0.502251	0.405766	0.208620
C143	C	0.804554	0.405729	0.208644
C144	C	0.855584	0.335202	0.259670
C145	C	0.849865	0.299928	0.316429
C146	C	0.793111	0.335191	0.322162
C147	C	0.742083	0.405721	0.271136
C148	C	0.262438	1.068770	-0.208561
C149	C	0.211408	1.139318	-0.259587
C150	C	0.217127	1.174596	-0.316346
C151	C	0.273881	1.139329	-0.322079
C152	C	0.324909	1.068787	-0.271053
C153	C	0.324954	1.068735	0.031247
C154	C	0.273939	1.139276	0.031236
C155	C	0.217178	1.174561	-0.000014
C156	C	0.211432	1.139307	-0.031260
C157	C	0.262446	1.068772	-0.031253
C158	C	0.564740	1.068712	-0.208523
C159	C	0.564750	1.139231	-0.259543
C160	C	0.533506	1.174512	-0.316306
C161	C	0.502254	1.139263	-0.322050
C162	C	0.502248	1.068741	-0.271031
H163	H	0.473228	0.279428	0.060231
N164	N	0.533523	1.246546	-0.368412
N165	N	0.561430	1.277999	-0.363268
H166	H	0.561444	1.328874	-0.400065
N167	N	0.667018	0.737172	-0.448352
N168	N	0.667022	0.737168	-0.402798
H169	H	0.698907	0.737144	-0.384382
H170	H	0.175571	1.232036	-0.357889
H171	H	0.165210	1.168047	-0.056703
N172	N	0.470381	1.175269	-0.380041
N173	N	0.483660	1.120149	-0.395251
H174	H	0.461164	1.145572	-0.436213
N175	N	0.279728	1.175344	-0.380054
N176	N	0.330397	1.143849	-0.385174
H177	H	0.334526	1.169280	-0.426120
H178	H	0.278629	1.167968	0.056682
N179	N	0.153434	0.911879	-0.063158
N180	N	0.138197	0.969716	-0.118252
H181	H	0.097250	1.032030	-0.140802
N182	N	0.810395	0.441774	0.150665
N183	N	0.764836	0.504751	0.105106
H184	H	0.768964	0.530210	0.064159
N185	N	0.600729	0.190359	-0.067303
N186	N	0.586193	0.252378	-0.121463
H187	H	0.610636	0.235075	-0.145953
H188	H	0.476807	0.434463	0.162411
H189	H	0.409141	0.737252	-0.453713
N190	N	0.649439	0.170650	0.048803
N191	N	0.679780	0.098959	0.101404
H192	H	0.721931	0.075059	0.119148
H193	H	0.590198	1.167923	-0.254854
N194	N	0.382926	1.032710	0.063176
N195	N	0.388038	1.064207	0.091063
H196	H	0.428979	1.038771	0.113613
N197	N	0.417509	0.303876	-0.048699
N198	N	0.379435	0.328093	-0.024872
H199	H	0.337275	0.351998	-0.042589
H200	H	0.257758	1.040073	-0.056692
N201	N	0.165077	1.246613	-0.000015
N202	N	0.170223	1.278072	0.027885
H203	H	0.133429	1.328959	0.027888
H204	H	0.371114	1.040075	-0.275729
N205	N	0.622814	0.737233	-0.316807
N206	N	0.662256	0.737232	-0.294012
H207	H	0.694143	0.737222	-0.312395
N208	N	0.279782	0.562649	0.063206
N209	N	0.258299	0.543356	0.104352
H210	H	0.262440	0.481038	0.126899
H211	H	0.590183	1.039998	-0.162308
N212	N	0.470319	1.032758	-0.276915
N213	N	0.442426	1.064275	-0.327603
H214	H	0.419875	1.038865	-0.331763
N215	N	0.582199	0.076216	0.116013
N216	N	0.558356	0.080763	0.154075
H217	H	0.576056	0.021909	0.196239
N218	N	0.484659	0.398310	-0.116000
N219	N	0.480580	0.469800	-0.125635
H220	H	0.462824	0.528639	-0.167815
H221	H	0.167718	0.494146	0.087989
N222	N	0.684124	0.441695	0.277014
N223	N	0.668928	0.386559	0.303645
H224	H	0.627996	0.411958	0.307803
N225	N	0.382906	0.562653	0.063185
N226	N	0.388019	0.485537	0.091085
H227	H	0.428960	0.423213	0.113628
H228	H	0.695824	0.434488	-0.056622
H229	H	0.590199	0.306539	0.368345
H230	H	0.453308	0.737277	-0.219013
N231	N	0.256576	1.032751	-0.150591
N232	N	0.205899	1.064260	-0.145491
H233	H	0.201754	1.038829	-0.104552
N234	N	0.153447	1.175302	-0.253708
N235	N	0.138241	1.120178	-0.227087
H236	H	0.097308	1.145585	-0.222931
N237	N	0.076375	0.476230	0.094485
N238	N	0.127060	0.399126	0.122379
H239	H	0.131221	0.336792	0.144930
H240	H	-0.098205	0.580495	0.056766
N241	N	-0.189564	0.562584	0.063255
N242	N	-0.138887	0.485463	0.091159
H243	H	-0.134743	0.423143	0.113714
N244	N	-0.315906	0.911834	-0.063119
N245	N	-0.321016	0.988947	-0.091021
H246	H	-0.361956	1.051273	-0.113573
N247	N	-0.212802	0.911848	-0.063113
N248	N	-0.263485	0.988956	-0.091010
H249	H	-0.267643	1.051287	-0.113559
H250	H	-0.100711	0.980338	-0.087884
N251	N	0.622835	0.737138	-0.682976
N252	N	0.656799	0.670294	-0.630325
H253	H	0.688679	0.670204	-0.611837
H254	H	-0.008163	0.980341	-0.087878
H255	H	0.257762	0.893988	-0.056681
H256	H	0.453345	0.737244	-0.780939
H257	H	0.901782	0.306472	0.056766
H258	H	0.533511	0.242556	0.357964
N259	N	0.444174	0.737249	-0.683113
N260	N	0.390432	0.804054	-0.712996
H261	H	0.358541	0.804075	-0.694618
N262	N	0.399982	0.737261	-0.551544
N263	N	0.360536	0.737271	-0.528764
H264	H	0.328650	0.737281	-0.547164
H265	H	0.453310	0.737270	-0.311574
H266	H	0.891348	0.242532	0.000072
N267	N	0.622799	0.737259	-0.213707
N268	N	0.662247	0.737247	-0.236484
H269	H	0.694132	0.737236	-0.218082
H270	H	0.657867	0.737175	-0.546198
H271	H	0.613680	0.737215	-0.780904
N272	N	0.913546	0.299189	0.253795
N273	N	0.928751	0.259840	0.227178
H274	H	0.969686	0.234406	0.223027
N275	N	0.787164	0.299239	-0.063086
N276	N	0.760543	0.259894	-0.049830
H277	H	0.756382	0.234469	-0.072368
N278	N	0.470334	0.299224	0.253806
N279	N	0.429200	0.307099	0.275305
H280	H	0.406659	0.281655	0.271180
N281	N	0.901998	0.227884	0.368542
N282	N	0.952661	0.196417	0.363407
H283	H	0.989483	0.145534	0.400209
H284	H	0.809233	0.434420	0.056773
H285	H	0.788463	0.306460	0.368382
H286	H	0.590193	0.434466	0.275778
