data_functionalizedCrystal
_audit_creation_method	'MofGen! by Chris Wilmer'
_symmetry_space_group_name_H-M	'P1'
_symmetry_Int_Tables_number	1
_symmetry_cell_setting	triclinic
loop_
_symmetry_equiv_pos_as_xyz
  x,y,z
_cell_length_a	12.970454
_cell_length_b	17.917603
_cell_length_c	12.970454
_cell_angle_alpha	89.999951
_cell_angle_beta	60.000396
_cell_angle_gamma	57.011456
loop_
_atom_site_label
_atom_site_type_symbol
_atom_site_fract_x
_atom_site_fract_y
_atom_site_fract_z
Zr1	Zr	1.033592	0.754910	-0.087828
O2	O	1.264412	0.629787	-0.260316
O3	O	0.813681	0.793266	-0.034952
O4	O	1.028768	0.793268	-0.250040
O5	O	1.049326	0.629784	0.124438
O6	O	1.012554	0.922225	-0.241932
O7	O	1.049325	0.629785	-0.045228
O8	O	0.627801	0.922222	0.142821
O9	O	1.434078	0.629787	-0.260315
O10	O	0.887992	0.905864	-0.006349
O11	O	0.900094	0.809624	0.114221
O12	O	1.153332	0.809626	-0.139017
O13	O	1.165433	0.713386	-0.018448
Zr14	Zr	1.007733	0.960580	0.195702
Zr15	Zr	1.007732	0.960581	-0.074897
Zr16	Zr	1.033594	0.754908	0.182771
Zr17	Zr	1.304190	0.754910	-0.087825
Zr18	Zr	0.737136	0.960579	0.195699
O19	O	1.227645	0.922223	0.142826
O20	O	1.227643	0.922225	-0.241930
O21	O	1.264415	0.629785	0.124440
O22	O	0.776913	1.085703	0.368190
O23	O	0.776911	1.085705	-0.016566
O24	O	0.813683	0.793264	0.349804
O25	O	0.992000	1.085705	-0.016564
O26	O	1.012557	0.922222	0.357914
O27	O	1.028772	0.793265	0.349806
O28	O	0.992001	1.085704	0.153103
O29	O	1.413523	0.793269	-0.250036
O30	O	0.627802	0.922221	0.357911
O31	O	0.607247	1.085702	0.368189
O32	O	0.607246	1.085703	0.153099
O33	O	1.434080	0.629786	-0.045225
O34	O	1.413524	0.793268	-0.034947
O35	O	0.887994	0.905863	0.246892
O36	O	0.875892	1.002103	0.126322
O37	O	1.141232	0.905865	-0.006347
O38	O	1.153333	0.809625	0.114223
C39	C	0.682186	0.857744	0.053934
C40	C	0.567311	0.857743	0.053933
C41	C	1.053010	0.600481	0.037763
C42	C	1.063988	0.513168	0.032273
C43	C	1.084041	0.353324	0.022248
C44	C	0.957291	0.362159	0.085623
C45	C	0.968448	0.273216	0.080045
C46	C	1.072887	0.442273	0.027824
C47	C	1.359139	0.857746	0.053940
C48	C	1.474015	0.857746	0.053941
C49	C	1.020661	0.857746	-0.284540
C50	C	1.020660	0.857747	-0.399416
C51	C	0.988316	1.115009	0.070112
C52	C	0.977337	1.202322	0.075601
C53	C	1.020665	0.857743	0.392415
C54	C	1.020665	0.857742	0.507291
C55	C	0.649839	1.115008	0.070109
C56	C	0.523985	1.202320	0.075597
C57	C	0.682189	0.857742	0.392412
C58	C	0.567313	0.857741	0.507287
C59	C	0.649841	1.115006	0.408586
C60	C	0.523988	1.202318	0.528951
C61	C	1.391484	0.600483	-0.300712
C62	C	1.517337	0.513171	-0.421076
C63	C	1.391486	0.600482	0.037766
C64	C	1.517340	0.513169	0.032277
C65	C	1.359137	0.857747	-0.284537
C66	C	1.474012	0.857748	-0.399412
C67	C	0.471199	1.193088	0.008910
C68	C	0.352962	1.275120	0.014042
C69	C	0.287505	1.366383	0.085868
C70	C	0.340303	1.375614	0.152556
C71	C	0.458545	1.293583	0.147417
C72	C	0.458568	1.293566	0.522540
C73	C	0.340330	1.375612	0.635625
C74	C	0.287506	1.366410	0.755120
C75	C	0.352938	1.275152	0.761528
C76	C	0.471181	1.193108	0.648444
C77	C	1.582770	0.421924	-0.414665
C78	C	1.701043	0.339877	-0.527751
C79	C	1.753872	0.349080	-0.647246
C80	C	1.688433	0.440337	-0.653654
C81	C	1.570171	0.522382	-0.540570
C82	C	1.570138	0.522402	0.098953
C83	C	1.688405	0.440370	0.093791
C84	C	1.753865	0.349106	0.021962
C85	C	1.701063	0.339876	-0.044722
C86	C	1.582805	0.421907	-0.039567
H87	H	1.200927	0.278967	-0.036195
H88	H	1.516849	0.596705	0.157452
H89	H	0.840396	0.436520	0.144069
N90	N	0.541781	1.094660	-0.068561
H91	H	0.490389	1.101274	-0.110026
H92	H	0.654689	1.058435	-0.137280
N93	N	0.541730	1.094689	0.655358
H94	H	0.587474	1.087001	0.702560
H95	H	0.460250	1.087084	0.702533
N96	N	1.881414	0.260578	-0.769203
H97	H	1.843859	0.260531	-0.821158
H98	H	1.970953	0.260577	-0.821065
N99	N	1.499596	0.620798	-0.547494
H100	H	1.551014	0.614168	-0.640356
H101	H	1.386694	0.657019	-0.503329
N102	N	0.515507	1.303518	0.393673
H103	H	0.555738	1.339754	0.385842
H104	H	0.600287	1.237674	0.323065
H105	H	0.309990	1.267585	-0.040265
H106	H	1.731376	0.447904	0.148099
N107	N	0.269685	1.474054	0.230022
H108	H	0.156775	1.510319	0.298798
H109	H	0.321166	1.467390	0.271413
N110	N	1.881391	0.260637	0.016434
H111	H	1.914852	0.201416	-0.039181
H112	H	1.970865	0.260692	-0.021138
H113	H	1.539822	0.414376	-0.093860
H114	H	0.501508	1.301114	0.201729
N115	N	1.771577	0.241460	-0.520817
H116	H	1.854517	0.190874	-0.610581
H117	H	1.817208	0.233867	-0.473542
H118	H	0.287066	1.449910	0.630385
N119	N	0.159973	1.454850	0.091399
H120	H	0.070416	1.454875	0.129009
H121	H	0.126633	1.514024	0.146994
N122	N	1.525800	0.411984	-0.285791
H123	H	1.585215	0.341724	-0.298909
H124	H	1.540568	0.443840	-0.236120
H125	H	0.191223	1.433224	0.847191
N126	N	1.771649	0.241439	-0.122168
H127	H	1.854560	0.190882	-0.115294
H128	H	1.690158	0.233849	-0.087915
H129	H	1.731462	0.447819	-0.750960
H130	H	0.309911	1.267674	0.858836
