data_functionalizedCrystal
_audit_creation_method	'MofGen! by Chris Wilmer'
_symmetry_space_group_name_H-M	'P1'
_symmetry_Int_Tables_number	1
_symmetry_cell_setting	triclinic
loop_
_symmetry_equiv_pos_as_xyz
  x,y,z
_cell_length_a	17.038272
_cell_length_b	18.266242
_cell_length_c	17.038272
_cell_angle_alpha	90.006273
_cell_angle_beta	91.111556
_cell_angle_gamma	90.003258
loop_
_atom_site_label
_atom_site_type_symbol
_atom_site_fract_x
_atom_site_fract_y
_atom_site_fract_z
O1	O	1.048760	0.060790	0.170538
O2	O	1.548760	0.560790	0.670538
O3	O	0.820948	0.060812	0.167830
O4	O	1.320948	0.560812	0.667830
O5	O	0.933500	0.060795	0.055279
O6	O	1.433500	0.560795	0.555279
O7	O	0.936208	0.060806	0.283090
O8	O	1.436208	0.560806	0.783090
O9	O	0.933479	-0.060967	0.055271
O10	O	1.433479	0.439033	0.555271
O11	O	0.820927	-0.060950	0.167823
O12	O	1.320927	0.439050	0.667823
O13	O	1.048739	-0.060972	0.170531
O14	O	1.548739	0.439028	0.670531
Zn15	Zn	0.934830	-0.080294	0.169176
Zn16	Zn	1.434830	0.419706	0.669176
Zn17	Zn	0.934857	0.080133	0.169186
Zn18	Zn	1.434857	0.580133	0.669186
O19	O	0.936187	-0.060956	0.283083
O20	O	1.436187	0.439044	0.783083
C21	C	0.791645	-0.000067	0.165364
C22	C	1.291645	0.499933	0.665364
C23	C	0.704361	-0.000059	0.158016
C24	C	1.204361	0.499941	0.658016
N25	N	0.934817	-0.189780	0.169169
N26	N	1.434817	0.310220	0.669169
C27	C	0.658752	-0.000056	0.225479
C28	C	1.158752	0.499944	0.725479
C29	C	0.576740	-0.000066	0.218570
C30	C	1.076740	0.499934	0.718570
C31	C	0.540339	-0.000074	0.144197
C32	C	1.040339	0.499926	0.644197
C33	C	0.585954	-0.000079	0.076728
C34	C	1.085954	0.499921	0.576728
C35	C	0.667965	-0.000074	0.083638
C36	C	1.167965	0.499926	0.583638
C37	C	0.292951	-0.000095	0.119787
C38	C	0.792951	0.499905	0.619787
C39	C	0.210935	-0.000098	0.112882
C40	C	0.710935	0.499902	0.612882
C41	C	0.201726	-0.000087	0.254725
C42	C	0.701726	0.499913	0.754725
C43	C	0.283739	-0.000077	0.261628
C44	C	0.783739	0.499923	0.761628
C45	C	0.329347	-0.000086	0.194159
C46	C	0.829347	0.499914	0.694159
C47	C	0.456510	-0.000083	0.137133
C48	C	0.956510	0.499917	0.637133
C49	C	0.413174	-0.000083	0.201224
C50	C	0.913174	0.499917	0.701224
C51	C	0.984674	-0.228097	0.119358
C52	C	1.484674	0.271903	0.619358
C53	C	0.984679	-0.304742	0.119355
C54	C	1.484679	0.195258	0.619355
C55	C	0.934835	-0.343067	0.169176
C56	C	1.434835	0.156933	0.669176
C57	C	0.884968	-0.304742	0.218990
C58	C	1.384968	0.195258	0.718990
C59	C	0.884959	-0.228099	0.218986
C60	C	1.384959	0.271901	0.718986
N61	N	0.929461	-0.463396	0.238001
N62	N	1.429461	0.036604	0.738001
N63	N	0.929474	-0.536204	0.238002
N64	N	1.429474	-0.036204	0.738002
C65	C	0.934857	-0.573990	0.169189
C66	C	1.434857	-0.073990	0.669189
N67	N	0.940243	-0.536217	0.100373
N68	N	1.440243	-0.036217	0.600373
N69	N	0.940234	-0.463402	0.100373
N70	N	1.440234	0.036598	0.600373
C71	C	0.934838	-0.426174	0.169185
C72	C	1.434838	0.073826	0.669185
C73	C	0.984722	-0.695413	0.119371
C74	C	1.484722	-0.195413	0.619371
C75	C	0.984722	-0.772059	0.119366
C76	C	1.484722	-0.272059	0.619366
C77	C	0.885015	-0.772058	0.219008
C78	C	1.385015	-0.272058	0.719008
C79	C	0.885011	-0.695414	0.219006
C80	C	1.385011	-0.195414	0.719006
C81	C	0.934869	-0.657095	0.169188
C82	C	1.434869	-0.157095	0.669188
C83	C	1.078042	-0.000092	0.172997
C84	C	1.578042	0.499908	0.672997
C85	C	1.165326	-0.000095	0.180346
C86	C	1.665326	0.499905	0.680346
C87	C	0.931027	-0.000086	0.025982
C88	C	1.431027	0.499914	0.525982
C89	C	0.923679	-0.000085	-0.061301
C90	C	1.423679	0.499915	0.438699
N91	N	0.934876	0.189620	0.169187
N92	N	1.434876	0.689620	0.669187
C93	C	0.991142	-0.000092	-0.106911
C94	C	1.491142	0.499908	0.393089
C95	C	0.984233	-0.000084	-0.188923
C96	C	1.484233	0.499916	0.311077
C97	C	0.909860	-0.000075	-0.225324
C98	C	1.409860	0.499925	0.274676
C99	C	0.842391	-0.000065	-0.179708
C100	C	1.342391	0.499935	0.320292
C101	C	0.849301	-0.000068	-0.097698
C102	C	1.349301	0.499932	0.402302
C103	C	0.885449	-0.000062	-0.472712
C104	C	1.385449	0.499938	0.027288
C105	C	0.878545	-0.000062	-0.554728
C106	C	1.378545	0.499938	-0.054728
C107	C	1.020387	-0.000080	-0.563937
C108	C	1.520387	0.499920	-0.063937
C109	C	1.027291	-0.000086	-0.481924
C110	C	1.527291	0.499914	0.018076
C111	C	0.959822	-0.000073	-0.436316
C112	C	1.459822	0.499927	0.063684
C113	C	0.902796	-0.000069	-0.309153
C114	C	1.402796	0.499931	0.190847
C115	C	0.966886	-0.000073	-0.352488
C116	C	1.466886	0.499927	0.147512
C117	C	0.938660	-0.000073	0.312379
C118	C	1.438660	0.499927	0.812379
C119	C	0.946008	-0.000069	0.399663
C120	C	1.446008	0.499931	0.899663
H121	H	0.688384	-0.000049	0.286042
H122	H	1.188384	0.499951	0.786042
F123	F	0.451917	-0.000077	0.280375
F124	F	0.951917	0.499923	0.780375
F125	F	0.831962	-0.812844	0.272027
F126	F	1.331962	-0.312844	0.772027
F127	F	1.106449	-0.000078	-0.443190
F128	F	1.606449	0.499922	0.056810
F129	F	0.831917	-0.345531	0.272011
F130	F	1.331917	0.154469	0.772011
H131	H	0.844358	-0.196901	0.259549
H132	H	1.344358	0.303099	0.759549
F133	F	0.172196	-0.000119	0.033720
F134	F	0.672196	0.499881	0.533720
H135	H	0.426863	-0.000110	0.076578
H136	H	0.926863	0.499890	0.576578
H137	H	0.781835	-0.000053	-0.209353
H138	H	1.281835	0.499947	0.290647
F139	F	0.777497	-0.000058	-0.049157
F140	F	1.277497	0.499942	0.450843
H141	H	0.844416	-0.664214	0.259570
H142	H	1.344416	-0.164214	0.759570
H143	H	1.025317	-0.664213	0.078803
H144	H	1.525317	-0.164213	0.578803
H145	H	1.025269	-0.196900	0.078792
H146	H	1.525269	0.303100	0.578792
H147	H	1.025280	-0.335944	0.078791
H148	H	1.525280	0.164056	0.578791
H149	H	1.075316	-0.000089	-0.601079
H150	H	1.575316	0.499911	-0.101079
H151	H	0.842241	-0.000063	-0.338800
H152	H	1.342241	0.499937	0.161200
F153	F	1.070301	-0.000109	-0.068177
F154	F	1.570301	0.499891	0.431823
H155	H	1.025319	-0.803257	0.078800
H156	H	1.525319	-0.303257	0.578800
F157	F	1.056038	-0.000093	-0.237460
F158	F	1.556038	0.499907	0.262540
H159	H	1.027441	-0.000065	-0.322847
H160	H	1.527441	0.499935	0.177153
H161	H	0.817978	-0.000066	-0.584363
H162	H	1.317978	0.499934	-0.084363
F163	F	0.813642	-0.000046	-0.424182
F164	F	1.313642	0.499954	0.075818
H165	H	0.539608	-0.000063	0.273507
H166	H	1.039608	0.499937	0.773507
H167	H	0.313370	-0.000062	0.322190
H168	H	0.813370	0.499938	0.822190
H169	H	0.164583	-0.000081	0.309653
H170	H	0.664583	0.499919	0.809653
H171	H	0.330076	-0.000103	0.064848
H172	H	0.830076	0.499897	0.564848
H173	H	0.556310	-0.000096	0.016172
H174	H	1.056310	0.499904	0.516172
H175	H	0.705099	-0.000076	0.028702
H176	H	1.205099	0.499924	0.528702
