data_functionalizedCrystal
_audit_creation_method	'MofGen! by Chris Wilmer'
_symmetry_space_group_name_H-M	'P1'
_symmetry_Int_Tables_number	1
_symmetry_cell_setting	triclinic
loop_
_symmetry_equiv_pos_as_xyz
  x,y,z
_cell_length_a	30.711240
_cell_length_b	30.700811
_cell_length_c	30.700862
_cell_angle_alpha	90.003040
_cell_angle_beta	59.996721
_cell_angle_gamma	119.999700
loop_
_atom_site_label
_atom_site_type_symbol
_atom_site_fract_x
_atom_site_fract_y
_atom_site_fract_z
O1	O	0.384089	-0.298802	-0.012975
O2	O	0.294923	-0.235462	0.012883
O3	O	0.384085	-0.235461	-0.076313
O4	O	0.294927	-0.298803	0.076221
O5	O	0.311664	-0.307906	-0.076312
O6	O	0.222502	-0.307907	0.012884
O7	O	0.311668	-0.371247	-0.012974
Zn8	Zn	0.255587	-0.351079	-0.000045
Zn9	Zn	0.351004	-0.255630	-0.000046
O10	O	0.222506	-0.371248	0.076222
C11	C	0.071080	-0.031744	0.039175
C12	C	0.018309	-0.058198	0.039543
C13	C	0.071078	-0.110621	0.039178
C14	C	0.018307	-0.136955	0.039546
C15	C	-0.007769	-0.110619	0.039175
C16	C	0.097036	-0.058199	0.039546
C17	C	0.213077	0.158464	0.024893
C18	C	0.242107	0.212330	0.020855
C19	C	0.217192	0.239352	0.018826
C20	C	0.248672	0.297759	0.014437
C21	C	0.163242	0.212504	0.020840
C22	C	0.134212	0.158641	0.024885
C23	C	0.159132	0.131621	0.026912
C24	C	-0.183633	-0.158782	0.024890
C25	C	-0.233443	-0.183608	0.020851
C26	C	-0.258430	-0.235553	0.018823
C27	C	-0.312430	-0.262472	0.014436
C28	C	-0.233606	-0.262674	0.020840
C29	C	-0.183806	-0.237853	0.024888
C30	C	-0.158819	-0.185901	0.026909
C31	C	0.213070	-0.158789	0.024905
C32	C	0.242102	-0.183615	0.020863
C33	C	0.217185	-0.235562	0.018837
C34	C	0.248662	-0.262480	0.014451
C35	C	0.163239	-0.262679	0.020849
C36	C	0.134211	-0.237852	0.024889
C37	C	0.159129	-0.185907	0.026922
C38	C	0.127652	0.073216	0.031294
C39	C	0.102560	0.026661	0.034789
C40	C	0.102556	-0.137537	0.034795
C41	C	0.127647	-0.158993	0.031303
C42	C	-0.061769	-0.137534	0.034789
C43	C	-0.104814	-0.158988	0.031294
O44	O	-0.456753	-0.298791	0.076201
O45	O	-0.330101	-0.235456	-0.076334
O46	O	-0.330107	-0.235451	0.012859
O47	O	-0.456747	-0.298796	-0.012991
O48	O	-0.330107	-0.307896	0.012862
O49	O	-0.330101	-0.307902	-0.076331
O50	O	-0.456753	-0.371237	0.076204
Zn51	Zn	-0.393427	-0.351071	-0.000063
Zn52	Zn	-0.393427	-0.255621	-0.000067
O53	O	-0.456747	-0.371242	-0.012988
C54	C	0.535517	-0.110286	-0.503951
C55	C	0.588289	-0.057865	-0.530286
C56	C	0.535517	-0.110286	-0.425075
C57	C	0.588289	-0.057865	-0.451530
C58	C	0.614366	-0.031411	-0.503951
C59	C	0.509560	-0.136621	-0.451530
C60	C	0.393522	-0.238049	-0.552116
C61	C	0.364493	-0.263050	-0.576943
C62	C	0.389410	-0.236098	-0.628889
C63	C	0.357931	-0.263199	-0.655807
C64	C	0.443360	-0.184145	-0.656009
C65	C	0.472389	-0.159150	-0.631185
C66	C	0.447468	-0.186105	-0.579236
C67	C	0.790234	0.158797	-0.631712
C68	C	0.840044	0.212661	-0.656712
C69	C	0.865030	0.239685	-0.629762
C70	C	0.919030	0.298089	-0.656861
C71	C	0.840205	0.212836	-0.577809
C72	C	0.790404	0.158971	-0.552813
C73	C	0.765418	0.131955	-0.579770
C74	C	0.393521	-0.238050	-0.234867
C75	C	0.364488	-0.263049	-0.180999
C76	C	0.389404	-0.236097	-0.153977
C77	C	0.357925	-0.263199	-0.095570
C78	C	0.443350	-0.184146	-0.180823
C79	C	0.472379	-0.159149	-0.234689
C80	C	0.447463	-0.186108	-0.261708
C81	C	0.478947	-0.158996	-0.552321
C82	C	0.504039	-0.137390	-0.530867
C83	C	0.504038	-0.137390	-0.366670
C84	C	0.478946	-0.158997	-0.320115
C85	C	0.668367	0.026994	-0.531054
C86	C	0.711413	0.073548	-0.552660
C87	C	0.469495	-0.371911	-0.018869
C88	C	0.523235	-0.345031	-0.015172
C89	C	0.443419	-0.424331	-0.019239
C90	C	0.390642	-0.371913	-0.018863
C91	C	0.360071	-0.345036	-0.015160
C92	C	0.364686	-0.424333	-0.019233
C93	C	0.390646	-0.450787	-0.018869
C94	C	0.360080	-0.508242	-0.015171
C95	C	0.443415	-0.345577	-0.019234
O96	O	0.311680	0.469551	-0.012990
O97	O	0.222517	0.317019	0.012860
O98	O	0.311683	0.406205	-0.076333
O99	O	0.222515	0.380366	0.076203
O100	O	0.384102	0.406203	-0.076330
O101	O	0.294936	0.317018	0.012863
O102	O	0.384099	0.469550	-0.012987
Zn103	Zn	0.351015	0.393283	-0.000062
Zn104	Zn	0.255601	0.393286	-0.000066
O105	O	0.294933	0.380364	0.076205
O106	O	1.063348	0.469878	-0.692457
O107	O	0.936707	0.317347	-0.629120
O108	O	0.936703	0.406535	-0.629112
O109	O	1.063353	0.380691	-0.692466
O110	O	0.936705	0.406537	-0.701558
O111	O	0.936709	0.317349	-0.701567
O112	O	1.063350	0.469881	-0.764904
Zn113	Zn	1.000030	0.393615	-0.744737
Zn114	Zn	1.000027	0.393613	-0.649286
O115	O	1.063355	0.380693	-0.764912
O116	O	0.294923	-0.298806	-0.764570
O117	O	0.384086	-0.235460	-0.701231
O118	O	0.294921	-0.235463	-0.701223
O119	O	0.384088	-0.298803	-0.764578
O120	O	0.222502	-0.307907	-0.628778
O121	O	0.311667	-0.307904	-0.628785
O122	O	0.222504	-0.371250	-0.692124
Zn123	Zn	0.255587	-0.351079	-0.648953
Zn124	Zn	0.351003	-0.255631	-0.744403
O125	O	0.311669	-0.371247	-0.692132
C126	C	0.137108	-0.450792	0.234760
C127	C	0.083369	-0.508248	0.261637
C128	C	0.163184	-0.424338	0.261096
C129	C	0.215957	-0.371916	0.155885
C130	C	0.246525	-0.345037	0.098429
C131	C	0.241914	-0.345582	0.182341
C132	C	0.215956	-0.371917	0.234762
C133	C	0.246522	-0.345039	0.261641
C134	C	0.163185	-0.424337	0.182339
C135	C	-0.609368	-0.371900	0.234744
C136	C	-0.639938	-0.345021	0.261623
C137	C	-0.635326	-0.424320	0.261080
C138	C	-0.530514	-0.371902	0.155868
C139	C	-0.476772	-0.345025	0.098411
C140	C	-0.556592	-0.424322	0.182324
C141	C	-0.609366	-0.450775	0.234745
C142	C	-0.639934	-0.508230	0.261625
C143	C	-0.556593	-0.345567	0.182322
C144	C	0.215967	0.374508	0.234742
C145	C	0.246533	0.378210	0.261621
C146	C	0.163197	0.374145	0.261075
C147	C	0.215967	0.374496	0.155867
C148	C	0.246533	0.378185	0.098411
C149	C	0.163197	0.374133	0.182319
C150	C	0.137120	0.374510	0.234739
C151	C	0.083384	0.378215	0.261615
C152	C	0.241923	0.374131	0.182322
C153	C	0.071117	-0.031763	-0.503978
C154	C	0.097076	-0.058218	-0.530313
C155	C	-0.007736	-0.110636	-0.425100
C156	C	0.018343	-0.136971	-0.451554
C157	C	0.071118	-0.110638	-0.503976
C158	C	0.018342	-0.058216	-0.451556
C159	C	0.133540	0.158443	-0.552147
C160	C	0.162395	0.212307	-0.576975
C161	C	0.216353	0.239327	-0.628922
C162	C	0.247649	0.297733	-0.655841
C163	C	0.241452	0.212477	-0.656042
C164	C	0.212592	0.158615	-0.631217
C165	C	0.158634	0.131598	-0.579267
C166	C	0.213122	-0.158807	-0.631739
C167	C	0.242153	-0.183634	-0.656740
C168	C	0.217239	-0.235578	-0.629788
C169	C	0.248716	-0.262498	-0.656887
C170	C	0.163286	-0.262696	-0.577834
C171	C	0.134250	-0.237873	-0.552838
C172	C	0.159178	-0.185923	-0.579796
C173	C	-0.183617	-0.158793	-0.234889
C174	C	-0.233426	-0.183615	-0.181021
C175	C	-0.258413	-0.235561	-0.153998
C176	C	-0.312417	-0.262476	-0.095590
C177	C	-0.233586	-0.262679	-0.180844
C178	C	-0.183777	-0.237855	-0.234710
C179	C	-0.158799	-0.185912	-0.261730
C180	C	0.127348	0.073195	-0.552350
C181	C	0.102407	0.026641	-0.530895
C182	C	-0.061741	-0.137549	-0.366694
C183	C	-0.104790	-0.159001	-0.320139
C184	C	0.102599	-0.137555	-0.531080
C185	C	0.127692	-0.159010	-0.552686
O186	O	-0.705076	-0.682969	0.298762
O187	O	-0.615913	-0.530439	0.235415
O188	O	-0.705071	-0.619629	0.235415
O189	O	-0.615917	-0.593778	0.298762
O190	O	-0.777496	-0.619625	0.307860
O191	O	-0.688337	-0.530435	0.307860
O192	O	-0.777500	-0.682965	0.371207
Zn193	Zn	-0.744418	-0.606699	0.351036
Zn194	Zn	-0.648995	-0.606704	0.255586
O195	O	-0.688342	-0.593775	0.371207
C196	C	0.614035	0.432441	-0.503962
C197	C	0.587958	0.432805	-0.530298
C198	C	0.535188	0.432454	-0.425089
C199	C	0.509231	0.432819	-0.451545
C200	C	0.535188	0.432442	-0.503965
C201	C	0.587958	0.432818	-0.451542
C202	C	0.789897	0.418149	-0.552118
C203	C	0.839706	0.414107	-0.576941
C204	C	0.864691	0.412071	-0.628887
C205	C	0.918690	0.407678	-0.655801
C206	C	0.839867	0.414083	-0.656008
C207	C	0.790067	0.418132	-0.631187
C208	C	0.765082	0.420165	-0.579239
C209	C	0.472764	0.418142	-0.631729
C210	C	0.443910	0.414101	-0.656730
C211	C	0.389956	0.412077	-0.629782
C212	C	0.358661	0.407688	-0.656882
C213	C	0.364861	0.414101	-0.577830
C214	C	0.393719	0.418151	-0.552833
C215	C	0.447673	0.420169	-0.579788
C216	C	0.472766	0.418205	-0.234881
C217	C	0.443908	0.414169	-0.181014
C218	C	0.389954	0.412147	-0.153995
C219	C	0.358660	0.407769	-0.095588
C220	C	0.364859	0.414157	-0.180842
C221	C	0.393717	0.418190	-0.234707
C222	C	0.447675	0.420219	-0.261724
C223	C	0.711079	0.424551	-0.552326
C224	C	0.668034	0.428050	-0.530874
C225	C	0.503899	0.428079	-0.366685
C226	C	0.478960	0.424592	-0.320131
C227	C	0.503898	0.428053	-0.531069
C228	C	0.478958	0.424556	-0.552676
H229	H	-0.003516	-0.036957	0.040138
C230	C	-0.741003	-0.455705	0.322174
C231	C	-0.692676	-0.453020	0.319215
H232	H	-0.776414	-0.473435	0.358059
H233	H	-0.729219	-0.420638	0.310232
H234	H	-0.750157	-0.474872	0.300244
H235	H	-0.683519	-0.433850	0.341142
H236	H	-0.704462	-0.488094	0.331164
H237	H	0.860250	0.234517	-0.699011
H238	H	0.285383	0.234480	-0.698338
H239	H	0.233363	-0.116493	0.026559
H240	H	0.141372	0.373555	0.304147
H241	H	0.233419	-0.116511	-0.653693
C242	C	0.347589	0.418697	0.150961
C243	C	0.299248	0.373328	0.153647
H244	H	0.382976	0.418200	0.133259
H245	H	0.356784	0.449789	0.131770
H246	H	0.335793	0.418865	0.186033
H247	H	0.311042	0.373161	0.118575
H248	H	0.290053	0.342227	0.172838
H249	H	0.233373	0.136469	0.026544
C250	C	0.022898	-0.212730	0.040583
C251	C	-0.011157	-0.195099	0.040345
H252	H	0.004705	-0.248625	0.041079
H253	H	0.063964	-0.190835	0.009480
H254	H	0.023111	-0.210696	0.071359
H255	H	-0.011366	-0.197130	0.009568
H256	H	-0.052234	-0.217000	0.071452
H257	H	-0.534798	-0.302510	0.161070
H258	H	0.465248	-0.445568	-0.019835
C259	C	0.176355	-0.455705	0.322256
C260	C	0.133698	-0.453020	0.319244
H261	H	0.158145	-0.473411	0.358155
H262	H	0.188272	-0.474888	0.300359
H263	H	0.211574	-0.420633	0.310304
H264	H	0.098481	-0.488092	0.331192
H265	H	0.121773	-0.433837	0.341149
C266	C	0.808300	0.464846	-0.707660
C267	C	0.762783	0.420342	-0.660997
H268	H	0.791455	0.466207	-0.726064
H269	H	0.822777	0.496368	-0.698691
H270	H	0.841534	0.462140	-0.729873
H271	H	0.729551	0.423051	-0.638781
H272	H	0.748298	0.388813	-0.669964
C273	C	0.473170	-0.284451	0.025342
C274	C	0.472867	-0.287435	-0.020027
H275	H	0.491353	-0.248558	0.024851
H276	H	0.432098	-0.306350	0.056437
H277	H	0.496274	-0.296413	0.025501
H278	H	0.449759	-0.275477	-0.020185
H279	H	0.513946	-0.265528	-0.051130
H280	H	0.284378	-0.302511	0.161100
C281	C	0.073193	-0.467717	0.181938
C282	C	0.133738	-0.452998	0.153654
H283	H	0.055021	-0.485404	0.164223
H284	H	0.050093	-0.490997	0.217001
H285	H	0.073407	-0.436729	0.183765
H286	H	0.133524	-0.483986	0.151831
H287	H	0.156844	-0.429717	0.118582
H288	H	-0.003490	-0.180044	-0.430315
H289	H	-0.534763	-0.445559	0.161082
C290	C	0.176407	0.418693	0.107972
C291	C	0.133732	0.373331	0.153650
H292	H	0.158217	0.418195	0.090273
H293	H	0.188313	0.449790	0.117958
H294	H	0.211630	0.418852	0.084701
H295	H	0.098512	0.373174	0.176922
H296	H	0.121818	0.342225	0.143664
H297	H	-0.253957	-0.304972	0.019196
H298	H	0.139548	-0.036976	-0.573382
C299	C	0.022935	0.022153	-0.457187
C300	C	-0.011123	-0.029544	-0.422882
H301	H	0.004742	0.039850	-0.439484
H302	H	0.064000	0.041334	-0.467162
H303	H	0.023152	0.020333	-0.488177
H304	H	-0.011336	-0.027725	-0.391893
H305	H	-0.052199	-0.048730	-0.412899
C306	C	0.317152	0.206750	0.021262
C307	C	0.301409	0.241840	0.018633
H308	H	0.353765	0.224970	0.019887
H309	H	0.284682	0.177574	0.053699
H310	H	0.323694	0.193916	-0.008022
H311	H	0.294862	0.254671	0.047920
H312	H	0.333886	0.271025	-0.013807
C313	C	0.133723	0.241287	-0.025906
C314	C	0.135855	0.242205	0.018612
H315	H	0.116811	0.259620	-0.027278
H316	H	0.174191	0.258253	-0.057421
H317	H	0.108712	0.205363	-0.023203
H318	H	0.160871	0.278129	0.015907
H319	H	0.095381	0.225240	0.050135
H320	H	-0.253635	-0.161529	-0.159166
C321	C	-0.188451	-0.083127	-0.229649
C322	C	-0.156151	-0.101693	-0.264588
H323	H	-0.171488	-0.047874	-0.247985
H324	H	-0.230555	-0.105790	-0.216814
H325	H	-0.185207	-0.083118	-0.200458
H326	H	-0.159400	-0.101705	-0.293777
H327	H	-0.114037	-0.079024	-0.277431
H328	H	0.516695	0.419788	-0.653680
H329	H	0.089605	0.136450	-0.509849
C330	C	0.081364	0.206733	-0.496323
C331	C	0.134814	0.241819	-0.547163
H332	H	0.064340	0.224954	-0.477917
H333	H	0.052239	0.177555	-0.499624
H334	H	0.091268	0.193900	-0.476947
H335	H	0.124909	0.254649	-0.566541
H336	H	0.163945	0.271007	-0.543864
H337	H	0.286027	-0.161530	0.019223
C338	C	0.293639	0.164195	-0.711858
C339	C	0.240183	0.129107	-0.661022
H340	H	0.310675	0.145978	-0.730256
H341	H	0.283742	0.177019	-0.731243
H342	H	0.322757	0.193380	-0.708551
H343	H	0.211063	0.099923	-0.664330
H344	H	0.250078	0.116274	-0.641633
H345	H	0.322218	-0.445572	-0.019821
C346	C	0.317206	-0.102986	-0.732217
C347	C	0.301460	-0.153823	-0.713839
H348	H	0.353823	-0.084580	-0.767467
H349	H	0.284740	-0.106286	-0.732178
H350	H	0.323742	-0.083610	-0.709474
H351	H	0.294920	-0.173201	-0.736581
H352	H	0.333934	-0.150525	-0.713883
C353	C	0.172768	-0.335859	-0.581115
C354	C	0.135893	-0.319794	-0.548207
H355	H	0.155858	-0.371107	-0.562821
H356	H	0.174216	-0.335028	-0.612760
H357	H	0.213236	-0.312339	-0.590074
H358	H	0.095426	-0.343312	-0.539251
H359	H	0.134438	-0.320629	-0.516552
H360	H	0.090286	0.136785	0.026528
H361	H	0.090321	-0.259957	-0.510539
C362	C	-0.188945	-0.318503	-0.229129
C363	C	-0.156494	-0.267667	-0.264220
H364	H	-0.172103	-0.336909	-0.247349
H365	H	-0.185691	-0.315200	-0.199949
H366	H	-0.231047	-0.337880	-0.216298
H367	H	-0.114392	-0.248289	-0.277048
H368	H	-0.159741	-0.270968	-0.293409
C369	C	-0.310016	-0.335847	-0.098196
C370	C	-0.261052	-0.319781	-0.151144
H371	H	-0.326972	-0.371099	-0.079864
H372	H	-0.295470	-0.312335	-0.081230
H373	H	-0.340817	-0.335012	-0.097587
H374	H	-0.230248	-0.320613	-0.151753
H375	H	-0.275597	-0.343300	-0.168115
C376	C	0.289620	0.414549	-0.186086
C377	C	0.305551	0.411934	-0.151146
H378	H	0.253005	0.413174	-0.167752
H379	H	0.322032	0.446980	-0.215276
H380	H	0.283009	0.385260	-0.198920
H381	H	0.312166	0.441226	-0.138316
H382	H	0.273131	0.379500	-0.121946
C383	C	0.714133	0.076476	-0.479467
C384	C	0.763122	0.129460	-0.495712
H385	H	0.697294	0.058256	-0.444216
H386	H	0.683262	0.075790	-0.480231
H387	H	0.728622	0.059444	-0.502931
H388	H	0.748631	0.146492	-0.472250
H389	H	0.793998	0.130148	-0.494943
C390	C	0.140773	-0.057827	0.086203
C391	C	0.154359	-0.029535	0.040348
H392	H	0.176162	-0.040135	0.086696
H393	H	0.107986	-0.059632	0.116968
H394	H	0.128967	-0.092901	0.086038
H395	H	0.166161	0.005537	0.040516
H396	H	0.187156	-0.027725	0.009576
H397	H	0.466765	0.433412	-0.430304
H398	H	0.769561	0.419806	-0.509821
C399	C	0.669336	0.433835	-0.606071
C400	C	0.617420	0.433601	-0.588442
H401	H	0.687521	0.434324	-0.641965
H402	H	0.698280	0.464605	-0.604039
H403	H	0.657414	0.402729	-0.584169
H404	H	0.629343	0.464709	-0.610342
H405	H	0.588471	0.402827	-0.590478
H406	H	-0.253649	-0.161522	0.019207
C407	C	0.669337	0.433857	-0.457170
C408	C	0.617420	0.433625	-0.422868
H409	H	0.687525	0.434360	-0.439468
H410	H	0.657417	0.402750	-0.467139
H411	H	0.698282	0.464626	-0.488164
H412	H	0.588472	0.402854	-0.391876
H413	H	0.629338	0.464736	-0.412891
C414	C	0.524949	0.414596	-0.186596
C415	C	0.471495	0.411963	-0.151506
H416	H	0.541983	0.413239	-0.168379
H417	H	0.515051	0.385310	-0.199421
H418	H	0.554070	0.447030	-0.215783
H419	H	0.442373	0.379526	-0.122321
H420	H	0.481392	0.441251	-0.138673
H421	H	0.516704	0.419860	-0.256877
H422	H	-0.163295	-0.116484	0.026538
H423	H	0.320557	-0.305345	-0.159142
H424	H	-0.163601	-0.259938	0.026533
C425	C	0.363990	0.464892	-0.494620
C426	C	0.366131	0.420379	-0.495732
H427	H	0.346952	0.466264	-0.459367
H428	H	0.404471	0.496408	-0.518073
H429	H	0.339086	0.462187	-0.505657
H430	H	0.391039	0.423085	-0.484699
H431	H	0.325643	0.388855	-0.472271
C432	C	0.834539	0.414529	-0.496293
C433	C	0.866987	0.411891	-0.547129
H434	H	0.851379	0.413158	-0.477888
H435	H	0.837797	0.446965	-0.499600
H436	H	0.792435	0.385246	-0.476913
H437	H	0.909090	0.441177	-0.566511
H438	H	0.863735	0.379452	-0.543825
C439	C	0.916283	0.407864	-0.729164
C440	C	0.867329	0.411845	-0.713103
H441	H	0.933232	0.406479	-0.764412
H442	H	0.947087	0.438064	-0.728336
H443	H	0.901724	0.376345	-0.705639
H444	H	0.881888	0.443366	-0.736626
H445	H	0.836519	0.381642	-0.713935
C446	C	0.524935	0.414494	-0.732204
C447	C	0.471489	0.411869	-0.713829
H448	H	0.541958	0.413112	-0.767454
H449	H	0.554062	0.446930	-0.732165
H450	H	0.515028	0.385212	-0.709460
H451	H	0.481397	0.441154	-0.736572
H452	H	0.442356	0.379429	-0.713873
C453	C	0.257334	-0.320199	-0.542271
C454	C	0.305188	-0.320148	-0.547129
H455	H	0.220721	-0.355449	-0.523866
H456	H	0.250797	-0.297463	-0.522891
H457	H	0.268027	-0.307727	-0.576765
H458	H	0.294497	-0.332617	-0.512635
H459	H	0.311725	-0.342892	-0.566508
H460	H	0.320933	0.412460	-0.555890
C461	C	0.402856	0.424369	-0.317201
C462	C	0.366135	0.420404	-0.264218
H463	H	0.385825	0.425733	-0.335418
H464	H	0.443333	0.455889	-0.334239
H465	H	0.404305	0.394169	-0.317878
H466	H	0.364689	0.450606	-0.263541
H467	H	0.325647	0.388880	-0.247177
C468	C	0.086813	-0.280887	-0.019364
C469	C	0.074912	-0.267662	0.027106
H470	H	0.050202	-0.299294	-0.017993
H471	H	0.117763	-0.249237	-0.049555
H472	H	0.100535	-0.303106	-0.022055
H473	H	0.061195	-0.245440	0.029795
H474	H	0.043952	-0.299317	0.057305
C475	C	0.172711	-0.335850	0.014654
C476	C	0.135845	-0.319781	0.018623
H477	H	0.155797	-0.371102	0.013282
H478	H	0.213177	-0.312339	-0.016864
H479	H	0.174153	-0.335015	0.044858
H480	H	0.134407	-0.320612	-0.011583
H481	H	0.095369	-0.343299	0.050144
H482	H	0.610113	-0.036628	-0.573358
C483	C	0.583671	-0.063482	-0.371149
C484	C	0.617735	-0.029182	-0.422850
H485	H	0.601848	-0.045771	-0.353444
H486	H	0.542601	-0.073469	-0.351977
H487	H	0.583472	-0.094464	-0.372963
H488	H	0.617930	0.001799	-0.421036
H489	H	0.658816	-0.019187	-0.442027
H490	H	0.467085	-0.179687	-0.430288
H491	H	0.373227	-0.260003	-0.256862
H492	H	0.463645	-0.162206	-0.698305
C493	C	0.312654	-0.318557	-0.476459
C494	C	0.366131	-0.267680	-0.495018
H495	H	0.295748	-0.336848	-0.441211
H496	H	0.283460	-0.315326	-0.476442
H497	H	0.322490	-0.338005	-0.499136
H498	H	0.356294	-0.248231	-0.472343
H499	H	0.395330	-0.270909	-0.495031
H500	H	0.516316	-0.116852	-0.653270
H501	H	0.769896	0.136802	-0.653666
H502	H	0.860554	0.234838	-0.555867
C503	C	0.547411	-0.083664	-0.229103
C504	C	0.531672	-0.102043	-0.264195
H505	H	0.584015	-0.048409	-0.247320
H506	H	0.514933	-0.083721	-0.199919
H507	H	0.553967	-0.106395	-0.216280
H508	H	0.525110	-0.079314	-0.277015
H509	H	0.564157	-0.101983	-0.293389
C510	C	0.433840	-0.187404	-0.098161
C511	C	0.470718	-0.154502	-0.151113
H512	H	0.450731	-0.169099	-0.079819
H513	H	0.393369	-0.196383	-0.081212
H514	H	0.432418	-0.219040	-0.097541
H515	H	0.472136	-0.122867	-0.151733
H516	H	0.511200	-0.145515	-0.168067
