data_functionalizedCrystal
_audit_creation_method	'MofGen! by Chris Wilmer'
_symmetry_space_group_name_H-M	'P1'
_symmetry_Int_Tables_number	1
_symmetry_cell_setting	triclinic
loop_
_symmetry_equiv_pos_as_xyz
  x,y,z
_cell_length_a	15.995300
_cell_length_b	15.995350
_cell_length_c	16.176319
_cell_angle_alpha	89.995430
_cell_angle_beta	89.990998
_cell_angle_gamma	83.482091
loop_
_atom_site_label
_atom_site_type_symbol
_atom_site_fract_x
_atom_site_fract_y
_atom_site_fract_z
O1	O	1.111015	0.107728	-0.068773
O2	O	1.611015	0.607728	0.431227
O3	O	0.867234	0.121100	-0.068767
O4	O	1.367234	0.621100	0.431233
O5	O	0.995789	-0.007475	-0.068769
O6	O	1.495789	0.492525	0.431231
O7	O	0.982461	0.236303	-0.068771
O8	O	1.482461	0.736303	0.431229
O9	O	0.995771	-0.007483	0.068724
O10	O	1.495771	0.492517	0.568724
O11	O	0.867216	0.121091	0.068726
O12	O	1.367216	0.621091	0.568726
O13	O	1.110997	0.107720	0.068720
O14	O	1.610997	0.607720	0.568720
Cu15	Cu	0.989105	0.114405	0.081277
Cu16	Cu	1.489105	0.614405	0.581277
Cu17	Cu	0.989126	0.114415	-0.081324
Cu18	Cu	1.489126	0.614415	0.418676
O19	O	0.982443	0.236294	0.068723
O20	O	1.482443	0.736294	0.568723
C21	C	0.836030	0.120550	-0.000020
C22	C	1.336030	0.620550	0.499980
C23	C	0.743077	0.118915	-0.000018
C24	C	1.243077	0.618915	0.499982
C25	C	0.572894	0.115896	-0.000024
C26	C	1.072894	0.615896	0.499976
C27	C	0.525428	0.207443	-0.000023
C28	C	1.025428	0.707443	0.499977
C29	C	0.428740	0.205773	-0.000337
C30	C	0.928740	0.705773	0.499663
C31	C	0.405337	0.112924	-0.000030
C32	C	0.905337	0.612924	0.499970
C33	C	0.446480	0.067508	-0.078390
C34	C	0.946480	0.567508	0.421610
C35	C	0.543114	0.069825	-0.078454
C36	C	1.043114	0.569825	0.421546
C37	C	0.543373	0.068460	0.077907
C38	C	1.043373	0.568460	0.577907
C39	C	0.446428	0.068468	0.078935
C40	C	0.946428	0.568468	0.578935
C41	C	0.310642	0.111239	-0.000035
C42	C	0.810642	0.611239	0.499965
C43	C	0.667590	0.117577	-0.000024
C44	C	1.167590	0.617577	0.499976
C45	C	0.995229	-0.038674	-0.000024
C46	C	1.495229	0.461326	0.499976
C47	C	0.993577	-0.131624	-0.000029
C48	C	1.493577	0.368376	0.499971
C49	C	0.987644	-0.469370	-0.000026
C50	C	1.487644	0.030630	0.499974
C51	C	0.896090	-0.421920	-0.000332
C52	C	1.396090	0.078080	0.499668
C53	C	0.897743	-0.325230	-0.000022
C54	C	1.397743	0.174770	0.499978
C55	C	0.990587	-0.301810	-0.000028
C56	C	1.490587	0.198190	0.499972
C57	C	1.035735	-0.342901	0.078485
C58	C	1.535735	0.157099	0.578485
C59	C	1.033435	-0.439536	0.078551
C60	C	1.533435	0.060464	0.578551
C61	C	1.035346	-0.439885	-0.077805
C62	C	1.535346	0.060115	0.422195
C63	C	1.035325	-0.342940	-0.078842
C64	C	1.535325	0.157060	0.421158
C65	C	0.992255	-0.207113	-0.000026
C66	C	1.492255	0.292887	0.499974
C67	C	0.985979	-0.564068	-0.000022
C68	C	1.485979	-0.064068	0.499978
C69	C	1.142202	0.108269	-0.000029
C70	C	1.642202	0.608269	0.499971
C71	C	1.235154	0.109904	-0.000036
C72	C	1.735154	0.609904	0.499964
C73	C	0.983003	0.267493	-0.000024
C74	C	1.483003	0.767493	0.499976
C75	C	0.984655	0.360443	-0.000025
C76	C	1.484655	0.860443	0.499975
N77	N	0.989097	0.114397	0.195643
N78	N	1.489097	0.614397	0.695643
N79	N	0.989141	0.114415	-0.195689
N80	N	1.489141	0.614415	0.304311
C81	C	1.046038	0.057488	0.238906
C82	C	1.546038	0.557488	0.738906
C83	C	1.046042	0.057487	0.325453
C84	C	1.546042	0.557487	0.825453
C85	C	0.989109	0.114400	0.368735
C86	C	1.489109	0.614400	0.868735
C87	C	0.932161	0.171313	0.325466
C88	C	1.432161	0.671313	0.825466
C89	C	0.932154	0.171309	0.238920
C90	C	1.432154	0.671309	0.738920
C91	C	0.932190	0.171328	0.674494
C92	C	1.432190	0.671328	1.174494
C93	C	0.932204	0.171329	0.761046
C94	C	1.432204	0.671329	1.261046
C95	C	1.046078	0.057507	0.761027
C96	C	1.546078	0.557507	1.261027
C97	C	1.046071	0.057503	0.674481
C98	C	1.546071	0.557503	1.174481
C99	C	0.989121	0.114412	0.631220
C100	C	1.489121	0.614412	1.131220
C101	C	0.989116	0.114411	0.537375
C102	C	1.489116	0.614411	1.037375
C103	C	0.989117	0.114406	0.462578
C104	C	1.489117	0.614406	0.962578
H105	H	0.575153	0.000963	0.078661
H106	H	1.075153	0.500963	0.578661
C107	C	0.427429	-0.024658	-0.082035
C108	C	0.927429	0.475342	0.417965
N109	N	0.413077	-0.094077	-0.084779
N110	N	0.913077	0.405923	0.415221
C111	C	0.391126	0.253777	-0.076671
C112	C	0.891126	0.753777	0.423329
N113	N	0.362797	0.289932	-0.134172
N114	N	0.862797	0.789932	0.365828
C115	C	1.126797	-0.322210	-0.085250
C116	C	1.626797	0.177790	0.414750
N117	N	1.195699	-0.306599	-0.090068
N118	N	1.695699	0.193401	0.409932
H119	H	0.418102	0.098651	-0.136925
H120	H	0.918102	0.598651	0.363075
H121	H	0.575387	0.002601	-0.081801
H122	H	1.075387	0.502601	0.418199
H123	H	0.431089	0.000774	0.083899
H124	H	0.931089	0.500774	0.583899
H125	H	0.885786	0.217649	0.203696
H126	H	1.385786	0.717649	0.703696
H127	H	1.002316	-0.315682	-0.136924
H128	H	1.502316	0.184318	0.363076
C129	C	1.127878	-0.323818	0.082438
C130	C	1.627878	0.176182	0.582438
N131	N	1.197279	-0.309438	0.085417
N132	N	1.697279	0.190562	0.585417
H133	H	0.885801	0.217650	0.360711
H134	H	1.385801	0.717650	0.860711
C135	C	1.108718	-0.005102	0.808622
C136	C	1.608718	0.494898	1.308622
N137	N	1.155897	-0.052258	0.844470
N138	N	1.655897	0.447742	1.344470
C139	C	0.409477	0.113266	0.157255
C140	C	0.909477	0.613266	0.657255
N141	N	0.381638	0.147007	0.216244
N142	N	0.881638	0.647007	0.716244
H143	H	0.543912	0.244231	0.056161
H144	H	1.043912	0.744231	0.556161
C145	C	0.849791	-0.286817	-0.076052
C146	C	1.349791	0.213183	0.423948
N147	N	0.813667	-0.257887	-0.133317
N148	N	1.313667	0.242113	0.366683
C149	C	0.869564	0.233936	0.808655
C150	C	1.369564	0.733936	1.308655
N151	N	0.822386	0.281088	0.844514
N152	N	1.322386	0.781088	1.344514
H153	H	0.563865	0.098597	0.137319
H154	H	1.063865	0.598597	0.637319
H155	H	0.545044	0.243689	-0.056132
H156	H	1.045044	0.743689	0.443868
C157	C	0.567875	0.114045	-0.157890
C158	C	1.067875	0.614045	0.342110
N159	N	0.586521	0.147351	-0.217725
N160	N	1.086521	0.647351	0.282275
C161	C	0.390272	0.254014	0.075513
C162	C	0.890272	0.754014	0.575513
N163	N	0.361300	0.290365	0.132637
N164	N	0.861300	0.790365	0.632637
H165	H	0.859652	-0.441511	0.055659
H166	H	1.359652	0.058489	0.555659
C167	C	0.846657	-0.446950	-0.076389
C168	C	1.346657	0.053050	0.423611
N169	N	0.809422	-0.465812	-0.133676
N170	N	1.309422	0.034188	0.366324
H171	H	0.862000	-0.297362	0.056356
H172	H	1.362000	0.202638	0.556356
C173	C	1.126537	-0.482814	-0.078527
C174	C	1.626537	0.017186	0.421473
N175	N	1.195218	-0.515153	-0.079066
N176	N	1.695218	-0.015153	0.420934
C177	C	0.988929	-0.464258	0.157838
C178	C	1.488929	0.035742	0.657838
N179	N	0.955403	-0.482874	0.217557
N180	N	1.455403	0.017126	0.717557
H181	H	1.005420	-0.460416	-0.137313
H182	H	1.505420	0.039584	0.362687
H183	H	1.100652	-0.471796	0.082109
H184	H	1.600652	0.028204	0.582109
C185	C	1.108670	-0.005123	0.191303
C186	C	1.608670	0.494877	0.691303
N187	N	1.155844	-0.052286	0.155452
N188	N	1.655844	0.447714	0.655452
C189	C	0.993349	-0.304563	0.157423
C190	C	1.493349	0.195437	0.657423
N191	N	0.961418	-0.275689	0.216878
N192	N	1.461418	0.224311	0.716878
C193	C	1.108662	-0.005138	0.373039
C194	C	1.608662	0.494862	0.873039
N195	N	1.155822	-0.052318	0.408880
N196	N	1.655822	0.447682	0.908880
H197	H	1.092434	0.011162	0.639244
H198	H	1.592434	0.511162	1.139244
H199	H	0.885821	0.217667	0.639277
H200	H	1.385821	0.717667	1.139277
