data_functionalizedCrystal
_audit_creation_method	'MofGen! by Chris Wilmer'
_symmetry_space_group_name_H-M	'P1'
_symmetry_Int_Tables_number	1
_symmetry_cell_setting	triclinic
loop_
_symmetry_equiv_pos_as_xyz
  x,y,z
_cell_length_a	17.699077
_cell_length_b	10.489741
_cell_length_c	16.776229
_cell_angle_alpha	89.993659
_cell_angle_beta	89.993415
_cell_angle_gamma	83.909875
loop_
_atom_site_label
_atom_site_type_symbol
_atom_site_fract_x
_atom_site_fract_y
_atom_site_fract_z
O1	O	1.005136	0.161259	-0.066277
O2	O	0.784895	0.182252	-0.066281
O3	O	0.900027	-0.013935	-0.066274
O4	O	0.890004	0.357447	-0.066284
O5	O	0.900011	-0.013947	0.066302
O6	O	0.784879	0.182240	0.066295
O7	O	1.005121	0.161247	0.066299
Zn8	Zn	0.894997	0.171742	0.087347
Zn9	Zn	0.895018	0.171758	-0.087328
O10	O	0.889988	0.357435	0.066293
C11	C	0.756685	0.181495	0.000007
C12	C	0.672652	0.179243	0.000005
C13	C	0.633169	0.178174	0.072274
C14	C	0.554212	0.176037	0.072275
C15	C	0.514740	0.174977	0.000006
C16	C	0.554228	0.176042	-0.072268
C17	C	0.633184	0.178170	-0.072268
C18	C	0.235809	0.167458	-0.072269
C19	C	0.156847	0.165334	-0.072263
C20	C	0.156837	0.165326	0.072273
C21	C	0.235793	0.167454	0.072273
C22	C	0.275275	0.168511	-0.000000
C23	C	0.360889	0.170826	-0.000000
C24	C	0.429127	0.172672	0.000006
C25	C	0.899262	-0.061459	0.000013
C26	C	0.896997	-0.203046	0.000012
C27	C	0.823742	-0.269823	0.000005
C28	C	0.858339	-0.362595	0.065373
C29	C	0.858372	-0.362558	-0.065337
C30	C	0.931625	-0.293954	0.065434
C31	C	0.931647	-0.293907	-0.065335
C32	C	0.966298	-0.386654	0.000049
C33	C	1.033331	0.162004	0.000010
C34	C	1.117364	0.164257	0.000006
C35	C	0.890753	0.404958	0.000003
C36	C	0.893018	0.546546	-0.000001
N37	N	0.894989	0.171730	0.206558
N38	N	0.895032	0.171759	-0.206540
C39	C	0.945986	0.084894	0.248278
C40	C	0.945990	0.084893	0.331730
C41	C	0.895001	0.171735	0.373461
C42	C	0.843999	0.258576	0.331735
C43	C	0.843991	0.258570	0.248284
C44	C	0.844026	0.258601	0.668282
C45	C	0.844039	0.258603	0.751739
C46	C	0.946025	0.084924	0.751728
C47	C	0.946017	0.084918	0.668277
C48	C	0.895013	0.171753	0.626559
C49	C	0.895008	0.171752	0.536070
C50	C	0.895008	0.171744	0.463948
H51	H	0.665330	0.179042	-0.131116
H52	H	0.987540	0.014207	0.634303
O53	O	0.995494	0.000608	0.792379
C54	C	0.984581	0.019245	0.874983
H55	H	0.924670	0.067040	0.886392
H56	H	0.992484	-0.077367	0.906703
H57	H	1.027765	0.083129	0.898650
H58	H	0.962624	-0.263434	-0.120601
H59	H	0.267928	0.168323	0.131122
H60	H	0.124682	0.164459	0.131122
H61	H	0.802478	0.329280	0.365717
O62	O	0.751877	-0.209300	0.000218
C63	C	0.713524	-0.244105	0.069259
H64	H	0.756784	-0.277642	0.117191
H65	H	0.675057	-0.157754	0.092071
H66	H	0.677716	-0.325060	0.054343
O67	O	0.821285	-0.399057	0.131216
C68	C	0.757838	-0.460674	0.107750
H69	H	0.767150	-0.500014	0.044766
H70	H	0.750330	-0.542865	0.150505
H71	H	0.704729	-0.388971	0.109004
H72	H	0.987514	0.014184	0.365698
O73	O	0.821291	-0.398648	-0.131245
C74	C	0.746150	-0.338584	-0.130984
H75	H	0.743006	-0.248381	-0.092714
H76	H	0.728161	-0.311627	-0.194555
H77	H	0.706521	-0.407173	-0.105474
H78	H	0.124710	0.164470	-0.131116
H79	H	0.987510	0.014182	0.214306
H80	H	0.802514	0.329322	0.785714
O81	O	0.968635	-0.257741	0.131356
C82	C	1.032521	-0.197149	0.108034
H83	H	1.023636	-0.158003	0.044951
H84	H	1.040260	-0.114939	0.150684
H85	H	1.085325	-0.269505	0.109608
H86	H	1.026582	-0.437200	0.000086
O87	O	0.794459	0.343078	0.627887
C88	C	0.749448	0.419707	0.682618
H89	H	0.780495	0.421082	0.742095
H90	H	0.738450	0.521593	0.658501
H91	H	0.693004	0.378413	0.691514
O92	O	0.794531	0.343101	0.207790
C93	C	0.807506	0.469341	0.228179
H94	H	0.868104	0.469839	0.251106
H95	H	0.799141	0.533366	0.173293
H96	H	0.765764	0.506897	0.276624
O97	O	0.671397	0.179143	0.142548
C98	C	0.619611	0.177770	0.206333
H99	H	0.566246	0.135893	0.185145
H100	H	0.646888	0.116478	0.256879
H101	H	0.603825	0.279826	0.228554
O102	O	0.515766	0.175064	-0.142399
C103	C	0.437612	0.172929	-0.126904
H104	H	0.423907	0.212999	-0.064795
H105	H	0.403140	0.234024	-0.173061
H106	H	0.422592	0.070040	-0.130326
H107	H	0.267946	0.168315	-0.131118
O108	O	0.515848	0.174763	0.142459
C109	C	0.478145	0.063116	0.146780
H110	H	0.507517	-0.013407	0.105764
H111	H	0.479932	0.026015	0.210698
H112	H	0.416501	0.086459	0.127374
