data_functionalizedCrystal
_audit_creation_method	'MofGen! by Chris Wilmer'
_symmetry_space_group_name_H-M	'P1'
_symmetry_Int_Tables_number	1
_symmetry_cell_setting	triclinic
loop_
_symmetry_equiv_pos_as_xyz
  x,y,z
_cell_length_a	23.096457
_cell_length_b	14.395555
_cell_length_c	14.395555
_cell_angle_alpha	89.999455
_cell_angle_beta	60.000080
_cell_angle_gamma	59.998854
loop_
_atom_site_label
_atom_site_type_symbol
_atom_site_fract_x
_atom_site_fract_y
_atom_site_fract_z
Zr1	Zr	0.633707	-0.121818	0.894942
O2	O	0.754502	-0.270148	0.746619
O3	O	0.512919	-0.076352	0.940408
O4	O	0.633710	-0.270146	0.940416
O5	O	0.633706	0.076520	0.746608
O6	O	0.633706	-0.270138	1.093290
O7	O	0.633710	-0.076354	0.746611
O8	O	0.417632	0.076523	1.093275
O9	O	0.849780	-0.270141	0.746623
O10	O	0.562596	-0.056949	1.073890
O11	O	0.562596	0.057133	0.959800
O12	O	0.704812	-0.171034	0.959810
O13	O	0.704812	-0.056951	0.845720
Zr14	Zr	0.633694	0.122012	1.138754
Zr15	Zr	0.633701	-0.121805	1.138759
Zr16	Zr	0.633701	0.121999	0.894938
Zr17	Zr	0.785665	-0.121807	0.894948
Zr18	Zr	0.481736	0.122001	1.138748
O19	O	0.754482	0.076546	1.093289
O20	O	0.754492	-0.270129	1.093295
O21	O	0.754492	0.076528	0.746613
O22	O	0.512900	0.270342	1.287077
O23	O	0.512909	-0.076334	1.287083
O24	O	0.512909	0.270323	0.940402
O25	O	0.633695	-0.076326	1.287088
O26	O	0.633691	0.270340	1.093281
O27	O	0.633695	0.270332	0.940406
O28	O	0.633691	0.076548	1.287086
O29	O	0.849774	-0.270131	0.940425
O30	O	0.417627	0.270325	1.093272
O31	O	0.417622	0.270335	1.287073
O32	O	0.417627	0.076534	1.287077
O33	O	0.849774	-0.076340	0.746620
O34	O	0.849769	-0.076329	0.940421
O35	O	0.562589	0.171228	1.073886
O36	O	0.562589	0.057145	1.187977
O37	O	0.704805	-0.056939	1.073896
O38	O	0.704805	0.057143	0.959806
C39	C	0.443625	0.000084	1.016841
C40	C	0.379115	0.000080	1.016838
C41	C	0.633709	-0.304880	1.016854
C42	C	0.633712	-0.408387	1.016855
C43	C	0.633709	0.000081	0.711871
C44	C	0.633712	0.000075	0.608364
C45	C	0.348814	-0.059474	1.076384
C46	C	0.288192	-0.059465	1.076395
C47	C	0.257884	0.000083	1.016838
C48	C	0.288189	0.059650	0.957289
C49	C	0.348805	0.059648	0.957289
N50	N	0.195492	-0.008180	0.919922
N51	N	0.137911	-0.008185	0.919924
C52	C	0.075253	0.000093	1.016837
N53	N	0.072357	0.008354	1.113746
N54	N	0.129946	0.008353	1.113742
C55	C	0.192157	0.000092	1.016832
C56	C	-0.020783	-0.059453	1.076400
C57	C	-0.081410	-0.059436	1.076415
C58	C	-0.081405	0.059671	0.957298
C59	C	-0.020785	0.059662	0.957294
C60	C	0.009525	0.000093	1.016843
C61	C	0.823776	0.000110	1.016856
C62	C	0.888286	0.000114	1.016859
C63	C	0.711255	-0.531180	0.954641
C64	C	0.672489	-0.562016	1.061909
C65	C	0.672475	-0.561974	0.909594
C66	C	0.594946	-0.437860	1.124186
C67	C	0.594943	-0.437821	0.971794
C68	C	0.556120	-0.468584	1.079125
C69	C	0.633692	0.305074	1.016843
C70	C	0.633689	0.408581	1.016841
C71	C	0.711255	-0.062119	0.485574
C72	C	0.672493	-0.107198	0.454738
C73	C	0.672470	0.045146	0.454778
C74	C	0.594950	-0.045067	0.578892
C75	C	0.594939	0.107337	0.578928
C76	C	0.556120	0.062285	0.548165
C77	C	0.633692	0.000113	1.321826
C78	C	0.633689	0.000119	1.425332
C79	C	0.443616	0.000100	1.321818
C80	C	0.379104	0.000101	1.425322
C81	C	0.443616	0.305061	1.016835
C82	C	0.379104	0.408564	1.016831
C83	C	0.443608	0.305078	1.321813
C84	C	0.379092	0.408585	1.425315
C85	C	0.823793	-0.304884	0.711884
C86	C	0.888309	-0.408391	0.608382
C87	C	0.823785	0.000094	0.711879
C88	C	0.888297	0.000093	0.608375
C89	C	0.823785	-0.304867	1.016861
C90	C	0.888297	-0.408370	1.016866
C91	C	0.348811	-0.059464	1.414376
C92	C	0.288203	-0.059486	1.511620
C93	C	0.257884	0.000065	1.619808
C94	C	0.288183	0.059633	1.630751
C95	C	0.348794	0.059647	1.533508
C96	C	0.348804	0.516736	1.076380
C97	C	0.288196	0.613996	1.076372
C98	C	0.257884	0.603082	1.016820
C99	C	0.288190	0.494899	0.957263
C100	C	0.348801	0.397641	0.957265
C101	C	0.348795	0.397644	1.533484
C102	C	0.288184	0.494891	1.630745
C103	C	0.257867	0.603078	1.619833
C104	C	0.288171	0.614018	1.511652
C105	C	0.348785	0.516772	1.414394
C106	C	0.918614	-0.397450	0.500212
C107	C	0.979243	-0.494697	0.402952
C108	C	1.009563	-0.602884	0.413863
C109	C	0.979256	-0.613824	0.522045
C110	C	0.918632	-0.516578	0.619303
C111	C	0.918596	0.059648	0.619320
C112	C	0.979221	0.059643	0.522077
C113	C	1.009542	0.000088	0.413889
C114	C	0.979241	-0.059475	0.402946
C115	C	0.918621	-0.059476	0.500188
C116	C	0.918590	-0.397419	1.076430
C117	C	0.979199	-0.494661	1.076456
C118	C	1.009518	-0.602852	1.016911
C119	C	0.979219	-0.613800	0.957346
C120	C	0.918607	-0.516560	0.957327
H121	H	0.373489	-0.107975	1.124875
H122	H	0.562192	0.198010	0.632440
C123	C	0.382101	0.125191	1.545568
N124	N	0.407184	0.174564	1.554659
H125	H	0.263488	0.108117	1.718850
C126	C	0.885259	0.125162	0.738318
N127	N	0.860157	0.174504	0.827945
C128	C	0.191204	0.000047	1.726767
N129	N	0.140978	0.000034	1.807325
H130	H	1.003882	0.108151	0.531009
H131	H	0.373478	0.525644	1.124875
C132	C	0.254856	-0.124985	1.141900
N133	N	0.229751	-0.174336	1.191237
C134	C	0.885278	-0.278452	0.488181
N135	N	0.860178	-0.188826	0.479110
H136	H	0.263529	0.702074	1.124874
H137	H	0.893958	-0.525500	0.707377
H138	H	0.373470	0.309561	1.542391
C139	C	0.191202	0.710081	1.016840
N140	N	0.140973	0.790677	1.016866
C141	C	0.191184	0.710042	1.726832
N142	N	0.140955	0.790603	1.807427
H143	H	0.263501	0.486029	0.908777
H144	H	0.373462	0.309566	0.908776
H145	H	1.003937	-0.107963	0.314846
H146	H	0.263517	0.485964	1.718822
H147	H	0.263478	0.702117	1.502784
H148	H	0.562190	-0.384498	1.214934
C149	C	0.467481	-0.433979	1.150304
N150	N	0.400723	-0.407935	1.203925
H151	H	0.893953	-0.107970	0.491260
C152	C	1.012520	-0.482593	1.141979
N153	N	1.037616	-0.473499	1.191330
H154	H	0.373445	0.525696	1.326321
H155	H	0.562200	-0.384307	0.933656
H156	H	1.003909	-0.485768	0.314875
H157	H	1.058927	-0.682059	0.334660
H158	H	1.003950	-0.701921	0.530916
C159	C	1.076222	0.000107	0.306929
N160	N	1.126443	0.000128	0.226371
C161	C	0.885246	-0.278418	1.141946
N162	N	0.860131	-0.188788	1.191302
C163	C	1.076194	-0.709810	1.016941
N164	N	1.126416	-0.790366	1.016966
C165	C	0.885303	-0.528624	0.891780
N166	N	0.860223	-0.537720	0.842403
H167	H	1.003914	-0.701903	0.908866
H168	H	0.373476	0.108144	0.908797
C169	C	0.254852	0.125151	0.891774
N170	N	0.229740	0.174490	0.842428
H171	H	0.003894	-0.107954	1.124893
C172	C	0.012539	0.125190	0.891801
N173	N	0.037632	0.174559	0.842479
H174	H	0.705256	0.083246	0.401273
H175	H	-0.106085	-0.107927	1.124911
C176	C	0.254878	-0.125006	1.499557
N177	N	0.229778	-0.174352	1.490468
H178	H	-0.106081	0.108157	0.908805
H179	H	0.776824	-0.556621	0.902123
C180	C	0.550715	-0.096688	0.650969
N181	N	0.517401	-0.135573	0.705256
H182	H	0.705260	-0.615537	1.100019
C183	C	0.716766	-0.634236	0.787051
N184	N	0.750131	-0.688660	0.694750
H185	H	0.705267	-0.197891	0.401223
C186	C	0.382155	-0.124988	1.295378
N187	N	0.407270	-0.174350	1.205752
H188	H	0.776824	-0.114795	0.460134
H189	H	0.490497	0.114886	0.573819
