data_functionalizedCrystal
_audit_creation_method	'MofGen! by Chris Wilmer'
_symmetry_space_group_name_H-M	'P1'
_symmetry_Int_Tables_number	1
_symmetry_cell_setting	triclinic
loop_
_symmetry_equiv_pos_as_xyz
  x,y,z
_cell_length_a	27.732064
_cell_length_b	27.732048
_cell_length_c	26.210047
_cell_angle_alpha	90.009625
_cell_angle_beta	90.008789
_cell_angle_gamma	82.646040
loop_
_atom_site_label
_atom_site_type_symbol
_atom_site_fract_x
_atom_site_fract_y
_atom_site_fract_z
O1	O	0.640930	0.057554	0.042343
O2	O	1.140930	0.557554	0.542343
O3	O	0.500138	0.066291	0.042365
O4	O	1.000138	0.566291	0.542365
O5	O	0.574907	-0.008474	0.042344
O6	O	1.074907	0.491526	0.542344
O7	O	0.566161	0.132319	0.042365
O8	O	1.066161	0.632319	0.542365
O9	O	0.574884	-0.008474	-0.042514
O10	O	1.074884	0.491526	0.457486
O11	O	0.500115	0.066291	-0.042493
O12	O	1.000115	0.566291	0.457507
O13	O	0.640907	0.057554	-0.042515
O14	O	1.140907	0.557554	0.457485
Cu15	Cu	0.570509	0.061923	-0.050252
Cu16	Cu	1.070509	0.561923	0.449748
Cu17	Cu	0.570536	0.061923	0.050103
Cu18	Cu	1.070536	0.561923	0.550103
O19	O	0.566138	0.132319	-0.042493
O20	O	1.066138	0.632319	0.457507
C21	C	0.482120	0.066106	-0.000061
C22	C	0.982120	0.566106	0.499939
C23	C	0.428465	0.065551	-0.000053
C24	C	0.928465	0.565551	0.499947
C25	C	0.574712	-0.026481	-0.000087
C26	C	1.074712	0.473519	0.499913
C27	C	0.574159	-0.080136	-0.000091
C28	C	1.074159	0.419864	0.499909
C29	C	0.051392	0.017583	-0.000089
C30	C	0.551392	0.517583	0.499911
C31	C	0.253053	0.019630	-0.000076
C32	C	0.753053	0.519630	0.499924
O33	O	0.284305	-0.017591	-0.000100
O34	O	0.784305	0.482409	0.499900
N35	N	0.272180	0.063964	-0.000067
N36	N	0.772180	0.563964	0.499933
C37	C	0.240889	0.107790	-0.000065
C38	C	0.740889	0.607790	0.499935
O39	O	0.261785	0.145546	-0.000062
O40	O	0.761785	0.645546	0.499938
C41	C	0.039230	0.105743	-0.000082
C42	C	0.539230	0.605743	0.499918
C43	C	0.020105	0.061406	-0.000086
C44	C	0.520105	0.561406	0.499914
C45	C	0.032267	-0.026750	-0.000094
C46	C	0.532267	0.473250	0.499906
C47	C	-0.018145	-0.027261	-0.000094
C48	C	0.481855	0.472739	0.499906
C49	C	-0.049432	0.016561	-0.000091
C50	C	0.450568	0.516561	0.499909
C51	C	-0.030307	0.060895	-0.000086
C52	C	0.469693	0.560895	0.499914
C53	C	0.007940	0.149568	-0.000084
C54	C	0.507940	0.649568	0.499916
C55	C	-0.042478	0.149053	-0.000089
C56	C	0.457522	0.649053	0.499911
C57	C	-0.061602	0.104716	-0.000093
C58	C	0.438398	0.604716	0.499907
C59	C	-0.112006	0.104206	-0.000084
C60	C	0.387994	0.604206	0.499916
N61	N	-0.131134	0.059872	-0.000092
N62	N	0.368866	0.559872	0.499908
C63	C	-0.099846	0.016049	-0.000096
C64	C	0.400154	0.516049	0.499904
C65	C	0.346763	0.108861	-0.000055
C66	C	0.846763	0.608861	0.499945
C67	C	0.397178	0.109373	-0.000050
C68	C	0.897178	0.609373	0.499950
C69	C	0.409338	0.021213	-0.000062
C70	C	0.909338	0.521213	0.499938
C71	C	0.358923	0.020701	-0.000063
C72	C	0.858923	0.520701	0.499937
C73	C	0.327636	0.064527	-0.000064
C74	C	0.827636	0.564527	0.499936
C75	C	-0.205716	0.014979	-0.000097
C76	C	0.294284	0.514979	0.499903
C77	C	-0.256133	0.014472	-0.000095
C78	C	0.243867	0.514472	0.499905
C79	C	-0.268289	0.102632	-0.000086
C80	C	0.231711	0.602632	0.499914
C81	C	-0.217876	0.103140	-0.000085
C82	C	0.282124	0.603140	0.499915
C83	C	-0.186590	0.059309	-0.000092
C84	C	0.313410	0.559309	0.499908
O85	O	-0.143287	0.141407	-0.000065
O86	O	0.356713	0.641407	0.499935
O87	O	-0.120752	-0.021701	-0.000110
O88	O	0.379248	0.478299	0.499890
C89	C	0.101804	0.018094	-0.000089
C90	C	0.601804	0.518094	0.499911
C91	C	0.120929	0.062428	-0.000085
C92	C	0.620929	0.562428	0.499915
C93	C	0.089642	0.106250	-0.000081
C94	C	0.589642	0.606250	0.499919
C95	C	0.171344	0.062940	-0.000079
C96	C	0.671344	0.562940	0.499921
C97	C	0.202631	0.019117	-0.000083
C98	C	0.702631	0.519117	0.499917
C99	C	0.183504	-0.025217	-0.000092
C100	C	0.683504	0.474783	0.499908
C101	C	0.133092	-0.025728	-0.000092
C102	C	0.633092	0.474272	0.499908
C103	C	0.108770	0.150585	-0.000072
C104	C	0.608770	0.650585	0.499928
C105	C	0.159183	0.151092	-0.000071
C106	C	0.659183	0.651092	0.499929
C107	C	0.190470	0.107270	-0.000075
C108	C	0.690470	0.607270	0.499925
C109	C	0.614862	-0.418948	-0.000071
C110	C	1.114862	0.081052	0.499929
C111	C	0.612811	-0.620608	-0.000063
C112	C	1.112811	-0.120608	0.499937
O113	O	0.650032	-0.651862	-0.000047
O114	O	1.150032	-0.151862	0.499953
N115	N	0.568476	-0.639735	-0.000057
N116	N	1.068476	-0.139735	0.499943
C117	C	0.524651	-0.608442	-0.000049
C118	C	1.024651	-0.108442	0.499951
O119	O	0.486895	-0.629338	-0.000038
O120	O	0.986895	-0.129338	0.499962
C121	C	0.526703	-0.406784	-0.000053
C122	C	1.026703	0.093216	0.499947
C123	C	0.571040	-0.387660	-0.000064
C124	C	1.071040	0.112340	0.499936
C125	C	0.659196	-0.399824	-0.000082
C126	C	1.159196	0.100176	0.499918
C127	C	0.659709	-0.349412	-0.000086
C128	C	1.159709	0.150588	0.499914
C129	C	0.615887	-0.318124	-0.000080
C130	C	1.115887	0.181876	0.499920
C131	C	0.571553	-0.337248	-0.000069
C132	C	1.071553	0.162752	0.499931
C133	C	0.482878	-0.375493	-0.000041
C134	C	0.982878	0.124507	0.499959
C135	C	0.483395	-0.325075	-0.000041
C136	C	0.983395	0.174925	0.499959
C137	C	0.527733	-0.305952	-0.000053
C138	C	1.027733	0.194048	0.499947
C139	C	0.528243	-0.255548	-0.000067
C140	C	1.028243	0.244452	0.499933
N141	N	0.572578	-0.236422	-0.000074
N142	N	1.072578	0.263578	0.499926
C143	C	0.616400	-0.267710	-0.000080
C144	C	1.116400	0.232290	0.499920
C145	C	0.523577	-0.714317	-0.000048
C146	C	1.023577	-0.214317	0.499952
C147	C	0.523064	-0.764731	-0.000048
C148	C	1.023064	-0.264731	0.499952
C149	C	0.611225	-0.776893	-0.000061
C150	C	1.111225	-0.276893	0.499939
C151	C	0.611737	-0.726478	-0.000065
C152	C	1.111737	-0.226478	0.499935
C153	C	0.567912	-0.695190	-0.000054
C154	C	1.067912	-0.195190	0.499946
C155	C	0.617472	-0.161841	-0.000090
C156	C	1.117472	0.338159	0.499910
C157	C	0.617981	-0.111424	-0.000097
C158	C	1.117981	0.388576	0.499903
C159	C	0.529821	-0.099266	-0.000081
C160	C	1.029821	0.400734	0.499919
C161	C	0.529312	-0.149679	-0.000077
C162	C	1.029312	0.350321	0.499923
C163	C	0.573142	-0.180965	-0.000080
C164	C	1.073142	0.319035	0.499920
O165	O	0.491043	-0.224267	-0.000078
O166	O	0.991043	0.275733	0.499922
O167	O	0.654151	-0.246805	-0.000080
O168	O	1.154151	0.253195	0.499920
C169	C	0.614350	-0.469360	-0.000066
C170	C	1.114350	0.030640	0.499934
C171	C	0.570016	-0.488484	-0.000055
C172	C	1.070016	0.011516	0.499945
C173	C	0.526194	-0.457196	-0.000049
C174	C	1.026194	0.042804	0.499951
C175	C	0.569503	-0.538899	-0.000055
C176	C	1.069503	-0.038899	0.499945
C177	C	0.613325	-0.570187	-0.000061
C178	C	1.113325	-0.070187	0.499939
C179	C	0.657660	-0.551060	-0.000068
C180	C	1.157660	-0.051060	0.499932
C181	C	0.658172	-0.500648	-0.000072
C182	C	1.158172	-0.000648	0.499928
C183	C	0.481859	-0.476323	-0.000042
C184	C	0.981859	0.023677	0.499958
C185	C	0.481351	-0.526735	-0.000038
C186	C	0.981351	-0.026735	0.499962
C187	C	0.525172	-0.558023	-0.000045
C188	C	1.025172	-0.058023	0.499955
C189	C	0.658925	0.057739	-0.000087
C190	C	1.158925	0.557739	0.499913
C191	C	0.712580	0.058295	-0.000092
C192	C	1.212580	0.558295	0.499908
C193	C	0.566333	0.150326	-0.000062
C194	C	1.066333	0.650326	0.499938
C195	C	0.566886	0.203981	-0.000054
C196	C	1.066886	0.703981	0.499946
N197	N	0.570493	0.061922	-0.120836
N198	N	1.070493	0.561922	0.379164
C199	C	0.599628	0.091035	-0.473350
C200	C	1.099628	0.591035	0.026650
C201	C	0.599642	0.091035	-0.687009
C202	C	1.099642	0.591035	-0.187009
O203	O	0.624403	0.115782	-0.714631
O204	O	1.124403	0.615782	-0.214631
N205	N	0.570548	0.061918	-0.713730
N206	N	1.070548	0.561918	-0.213730
C207	C	0.541450	0.032796	-0.687033
C208	C	1.041450	0.532796	-0.187033
O209	O	0.516707	0.008027	-0.714663
O210	O	1.016707	0.508027	-0.214663
C211	C	0.541439	0.032794	-0.473375
C212	C	1.041439	0.532794	0.026625
C213	C	0.570531	0.061917	-0.446657
C214	C	1.070531	0.561917	0.053343
C215	C	0.628719	0.120155	-0.446632
C216	C	1.128719	0.620155	0.053368
C217	C	0.628713	0.120157	-0.393221
C218	C	1.128713	0.620157	0.106779
C219	C	0.599616	0.091039	-0.366527
C220	C	1.099616	0.591039	0.133473
C221	C	0.570526	0.061919	-0.393246
C222	C	1.070526	0.561919	0.106754
C223	C	0.512344	0.003671	-0.446679
C224	C	1.012344	0.503671	0.053321
C225	C	0.512345	0.003672	-0.393262
C226	C	1.012345	0.503672	0.106738
C227	C	0.541437	0.032795	-0.366543
C228	C	1.041437	0.532795	0.133457
C229	C	0.541423	0.032803	-0.313141
C230	C	1.041423	0.532803	0.186859
N231	N	0.570518	0.061920	-0.286420
N232	N	1.070518	0.561920	0.213580
C233	C	0.599614	0.091038	-0.313113
C234	C	1.099614	0.591038	0.186887
C235	C	0.541457	0.032800	-0.799206
C236	C	1.041457	0.532800	-0.299206
C237	C	0.541459	0.032801	-0.852620
C238	C	1.041459	0.532801	-0.352620
C239	C	0.599653	0.091039	-0.852593
C240	C	1.099653	0.591039	-0.352593
C241	C	0.599648	0.091040	-0.799178
C242	C	1.099648	0.591040	-0.299178
C243	C	0.570552	0.061917	-0.772485
C244	C	1.070552	0.561917	-0.272485
C245	C	0.599599	0.091040	-0.200945
C246	C	1.099599	0.591040	0.299055
C247	C	0.599589	0.091040	-0.147529
C248	C	1.099589	0.591040	0.352471
C249	C	0.541398	0.032801	-0.147562
C250	C	1.041398	0.532801	0.352438
C251	C	0.541406	0.032802	-0.200973
C252	C	1.041406	0.532802	0.299027
C253	C	0.570511	0.061923	-0.227664
C254	C	1.070511	0.561923	0.272336
O255	O	0.516679	0.008064	-0.285486
O256	O	1.016679	0.508064	0.214514
O257	O	0.624361	0.115795	-0.285474
O258	O	1.124361	0.615795	0.214526
C259	C	0.599634	0.091033	-0.526762
C260	C	1.099634	0.591033	-0.026762
C261	C	0.570543	0.061913	-0.553480
C262	C	1.070543	0.561913	-0.053480
C263	C	0.541447	0.032795	-0.526787
C264	C	1.041447	0.532795	-0.026787
C265	C	0.570545	0.061914	-0.606894
C266	C	1.070545	0.561914	-0.106894
C267	C	0.599642	0.091032	-0.633587
C268	C	1.099642	0.591032	-0.133587
C269	C	0.628736	0.120150	-0.606866
C270	C	1.128736	0.620150	-0.106866
C271	C	0.628731	0.120151	-0.553455
C272	C	1.128731	0.620151	-0.053455
C273	C	0.512352	0.003678	-0.553508
C274	C	1.012352	0.503678	-0.053508
C275	C	0.512360	0.003679	-0.606919
C276	C	1.012360	0.503679	-0.106919
C277	C	0.541456	0.032797	-0.633612
C278	C	1.041456	0.532797	-0.133612
N279	N	0.570556	0.061919	0.120686
N280	N	1.070556	0.561919	0.620686
H281	H	-0.271701	-0.021634	-0.000097
H282	H	0.228299	0.478366	0.499903
H283	H	0.653163	-0.187309	-0.000091
H284	H	1.153163	0.312691	0.499909
H285	H	0.694883	-0.425295	-0.000085
H286	H	1.194883	0.074705	0.499915
N287	N	0.178706	0.196389	-0.000061
N288	N	0.678706	0.696389	0.499939
N289	N	0.150760	0.235511	-0.000058
N290	N	0.650760	0.735511	0.499942
H291	H	0.164546	0.267502	-0.000055
H292	H	0.664546	0.767502	0.499945
H293	H	-0.293772	0.138311	-0.000081
H294	H	0.206228	0.638311	0.499919
N295	N	0.438632	-0.293110	-0.000038
N296	N	0.938632	0.206890	0.499962
N297	N	0.439091	-0.248097	-0.000043
N298	N	0.939091	0.251903	0.499957
H299	H	0.407478	-0.225522	-0.000043
H300	H	0.907478	0.274478	0.499957
H301	H	0.057737	-0.062438	-0.000098
H302	H	0.557737	0.437562	0.499902
N303	N	0.511731	0.003058	-0.879901
N304	N	1.011731	0.503058	-0.379901
N305	N	0.485755	-0.022936	-0.856055
N306	N	0.985755	0.477064	-0.356055
H307	H	0.464759	-0.043944	-0.875320
H308	H	0.964759	0.456056	-0.375320
N309	N	-0.173770	-0.029796	-0.000108
N310	N	0.326230	0.470204	0.499892
N311	N	-0.190861	-0.069373	-0.000112
N312	N	0.309139	0.430627	0.499888
H313	H	-0.168300	-0.100996	-0.000118
H314	H	0.331700	0.399004	0.499882
H315	H	0.494142	-0.073782	-0.000078
H316	H	0.994142	0.426218	0.499922
H317	H	0.652421	0.143866	-0.531706
H318	H	1.152421	0.643866	-0.031706
N319	N	0.339398	-0.024592	-0.000066
N320	N	0.839398	0.475408	0.499934
N321	N	0.367344	-0.063713	-0.000066
N322	N	0.867344	0.436287	0.499934
H323	H	0.353558	-0.095704	-0.000069
H324	H	0.853558	0.404296	0.499931
H325	H	0.517763	0.009083	-0.777478
H326	H	1.017763	0.509083	-0.277478
N327	N	0.113562	-0.071018	-0.000112
N328	N	0.613562	0.428982	0.499888
N329	N	0.086789	-0.081143	-0.035889
N330	N	0.586789	0.418857	0.464111
H331	H	0.072999	-0.113132	-0.035905
H332	H	0.572999	0.386868	0.464095
N333	N	0.215475	-0.069977	-0.000091
N334	N	0.715475	0.430023	0.499909
N335	N	0.260486	-0.069507	-0.000089
N336	N	0.760486	0.430493	0.499911
H337	H	0.283068	-0.101116	-0.000091
H338	H	0.783068	0.398884	0.499909
N339	N	-0.074442	0.193817	-0.000083
N340	N	0.425558	0.693817	0.499917
N341	N	-0.119455	0.193358	-0.000083
N342	N	0.380545	0.693358	0.499917
H343	H	-0.142030	0.224972	-0.000077
H344	H	0.357970	0.724972	0.499923
N345	N	0.657031	-0.706954	-0.000079
N346	N	1.157031	-0.206954	0.499921
N347	N	0.696152	-0.734901	-0.000089
N348	N	1.196152	-0.234901	0.499911
H349	H	0.728143	-0.721116	-0.000099
H350	H	1.228143	-0.221116	0.499901
N351	N	0.511687	0.003064	-0.228278
N352	N	1.011687	0.503064	0.271722
N353	N	0.479594	0.022155	-0.258094
N354	N	0.979594	0.522155	0.241906
H355	H	0.458608	0.001149	-0.277377
H356	H	0.958608	0.501149	0.222623
H357	H	0.083300	0.186271	-0.000070
H358	H	0.583300	0.686271	0.499930
H359	H	0.493209	-0.165249	-0.000082
H360	H	0.993209	0.334751	0.499918
H361	H	0.434821	-0.014469	-0.000063
H362	H	0.934821	0.485531	0.499937
H363	H	-0.033711	-0.063365	-0.000099
H364	H	0.466289	0.436635	0.499901
H365	H	0.694276	-0.485083	-0.000082
H366	H	1.194276	0.014917	0.499918
N367	N	0.629325	0.120795	-0.228195
N368	N	1.129325	0.620795	0.271805
N369	N	0.623193	0.165882	-0.222215
N370	N	1.123193	0.665882	0.277785
H371	H	0.644185	0.186900	-0.241459
H372	H	1.144185	0.686900	0.258541
N373	N	0.705003	-0.329891	-0.000096
N374	N	1.205003	0.170109	0.499904
N375	N	0.744123	-0.357840	-0.000100
N376	N	1.244123	0.142160	0.499900
H377	H	0.776115	-0.344056	-0.000105
H378	H	1.276115	0.155944	0.499895
N379	N	0.655993	-0.808852	-0.000059
N380	N	1.155993	-0.308852	0.499941
N381	N	0.695578	-0.791776	-0.000058
N382	N	1.195578	-0.291776	0.499942
H383	H	0.727194	-0.814347	-0.000052
H384	H	1.227194	-0.314347	0.499948
H385	H	0.693341	-0.576544	-0.000075
H386	H	1.193341	-0.076544	0.499925
H387	H	0.654087	-0.095857	-0.000108
H388	H	1.154087	0.404143	0.499892
H389	H	0.652426	0.143861	-0.628609
H390	H	1.152426	0.643861	-0.128609
H391	H	0.023501	0.185672	-0.000079
H392	H	0.523501	0.685672	0.499921
H393	H	0.487888	-0.688846	-0.000040
H394	H	0.987888	-0.188846	0.499960
N395	N	0.436053	-0.546257	-0.000033
N396	N	0.936053	-0.046257	0.499967
N397	N	0.396932	-0.518310	-0.000026
N398	N	0.896932	-0.018310	0.499974
H399	H	0.364941	-0.532096	-0.000019
H400	H	0.864941	-0.032096	0.499981
N401	N	-0.198331	0.148424	-0.000072
N402	N	0.301669	0.648424	0.499928
N403	N	-0.171549	0.158548	0.035697
N404	N	0.328451	0.658548	0.535697
H405	H	-0.157748	0.190531	0.035702
H406	H	0.342252	0.690531	0.535702
H407	H	0.486960	-0.780296	-0.000047
H408	H	0.986960	-0.280296	0.499953
H409	H	0.517707	0.009095	-0.125818
H410	H	1.017707	0.509095	0.374182
N411	N	0.437089	-0.444374	-0.000034
N412	N	0.937089	0.055626	0.499966
N413	N	0.397511	-0.461463	-0.000028
N414	N	0.897511	0.038537	0.499972
H415	H	0.365889	-0.438900	-0.000025
H416	H	0.865889	0.061100	0.499975
N417	N	0.437583	-0.395010	-0.000028
N418	N	0.937583	0.104990	0.499972
N419	N	0.398464	-0.367060	-0.000017
N420	N	0.898464	0.132940	0.499983
H421	H	0.366471	-0.380842	-0.000006
H422	H	0.866471	0.119158	0.499994
H423	H	0.623280	0.114758	-0.125778
H424	H	1.123280	0.614758	0.374222
H425	H	0.652405	0.143869	-0.371471
H426	H	1.152405	0.643869	0.128529
N427	N	0.416702	0.154667	-0.000035
N428	N	0.916702	0.654667	0.499965
N429	N	0.388756	0.193788	-0.000031
N430	N	0.888756	0.693788	0.499969
H431	H	0.402542	0.225779	-0.000023
H432	H	0.902542	0.725779	0.499977
N433	N	0.658448	0.149901	-0.473885
N434	N	1.158448	0.649901	0.026115
N435	N	0.684419	0.175895	-0.450013
N436	N	1.184419	0.675895	0.049987
H437	H	0.705415	0.196908	-0.469257
H438	H	1.205415	0.696908	0.030743
N439	N	0.629371	0.120787	-0.771896
N440	N	1.129371	0.620787	-0.271896
N441	N	0.655348	0.146781	-0.795742
N442	N	1.155348	0.646781	-0.295742
H443	H	0.676344	0.167789	-0.776477
H444	H	1.176344	0.667789	-0.276477
N445	N	0.314815	0.153636	-0.000057
N446	N	0.814815	0.653636	0.499943
N447	N	0.331906	0.193213	-0.000048
N448	N	0.831906	0.693213	0.499952
H449	H	0.309345	0.224836	-0.000048
H450	H	0.809345	0.724836	0.499952
N451	N	0.629366	0.120785	-0.879872
N452	N	1.129366	0.620785	-0.379872
N453	N	0.629358	0.120780	-0.927563
N454	N	1.129358	0.620780	-0.427563
H455	H	0.650343	0.141786	-0.946832
H456	H	1.150343	0.641786	-0.446832
H457	H	0.488654	-0.020045	-0.468424
H458	H	0.988654	0.479955	0.031576
H459	H	0.488651	-0.020045	-0.371531
H460	H	0.988651	0.479955	0.128469
H461	H	0.488664	-0.020035	-0.628669
H462	H	0.988664	0.479965	-0.128669
N463	N	0.482631	-0.026070	-0.526247
N464	N	0.982631	0.473930	-0.026247
N465	N	0.488753	-0.071159	-0.532221
N466	N	0.988753	0.428841	-0.032221
H467	H	0.467758	-0.092169	-0.512971
H468	H	0.967758	0.407831	-0.012971
