data_functionalizedCrystal
_audit_creation_method	'MofGen! by Chris Wilmer'
_symmetry_space_group_name_H-M	'P1'
_symmetry_Int_Tables_number	1
_symmetry_cell_setting	triclinic
loop_
_symmetry_equiv_pos_as_xyz
  x,y,z
_cell_length_a	19.188925
_cell_length_b	17.666332
_cell_length_c	10.540539
_cell_angle_alpha	90.004288
_cell_angle_beta	83.834020
_cell_angle_gamma	90.010303
loop_
_atom_site_label
_atom_site_type_symbol
_atom_site_fract_x
_atom_site_fract_y
_atom_site_fract_z
O1	O	0.927208	0.062961	0.158439
O2	O	0.724039	0.062959	0.179779
O3	O	0.830259	0.062959	-0.015700
O4	O	0.820988	0.062961	0.353917
O5	O	0.830240	-0.062938	-0.015710
O6	O	0.724020	-0.062938	0.179768
O7	O	0.927189	-0.062936	0.158428
Cu8	Cu	0.825603	-0.074432	0.169097
Cu9	Cu	0.825625	0.074455	0.169110
O10	O	0.820969	-0.062936	0.353907
C11	C	0.698013	0.000010	0.179084
C12	C	0.620495	0.000009	0.177013
C13	C	0.059397	0.000011	0.277845
C14	C	0.132233	0.000016	0.279802
C15	C	0.176403	0.000014	0.165102
C16	C	0.147731	0.000027	0.048435
C17	C	0.074896	0.000031	0.046482
N18	N	0.296520	-0.042843	0.082060
N19	N	0.365710	-0.042848	0.083923
C20	C	0.395851	0.000005	0.170981
N21	N	0.354188	0.042853	0.256124
N22	N	0.284992	0.042854	0.254264
C23	C	0.255381	0.000010	0.167207
C24	C	0.503492	0.000001	0.289762
C25	C	0.576330	0.000010	0.291714
C26	C	0.591827	0.000014	0.060344
C27	C	0.518990	0.000013	0.058395
C28	C	0.474827	0.000003	0.173108
N29	N	0.825592	-0.179152	0.169088
C30	C	0.872642	-0.218761	0.082572
C31	C	0.872646	-0.298009	0.082566
C32	C	0.825607	-0.337644	0.169098
C33	C	0.778548	-0.298025	0.255620
C34	C	0.778541	-0.218779	0.255615
N35	N	0.817280	-0.462062	0.281463
N36	N	0.817291	-0.537342	0.281463
C37	C	0.825625	-0.576408	0.169115
N38	N	0.833962	-0.537349	0.056763
N39	N	0.833954	-0.462061	0.056764
C40	C	0.825610	-0.423573	0.169112
C41	C	0.872682	-0.701947	0.082586
C42	C	0.872681	-0.781196	0.082578
C43	C	0.778587	-0.781210	0.255643
C44	C	0.778585	-0.701963	0.255640
C45	C	0.825636	-0.662336	0.169112
C46	C	0.953214	0.000015	0.159123
C47	C	1.030733	0.000021	0.161194
N48	N	0.825641	0.179175	0.169109
C49	C	0.829554	0.000012	-0.062993
C50	C	0.827474	0.000016	-0.203895
C51	C	0.747773	0.000298	-0.385563
C52	C	0.749881	0.000014	-0.238991
C53	C	0.864804	-0.071877	-0.266383
C54	C	0.862156	-0.071937	-0.412869
C55	C	0.863756	0.071231	-0.413410
C56	C	0.864471	0.072181	-0.266444
C57	C	0.821674	0.000013	0.401200
C58	C	0.823754	0.000014	0.542102
H59	H	0.599666	0.000009	0.386709
H60	H	0.910993	-0.813446	0.012119
H61	H	0.740284	-0.813480	0.326094
C62	C	0.726837	-0.658390	0.350822
H63	H	0.698826	-0.693343	0.402365
H64	H	0.697546	-0.627486	0.305295
H65	H	0.752217	-0.627467	0.403550
H66	H	0.910952	-0.186499	0.012114
C67	C	0.824857	-0.144530	-0.450152
H68	H	0.811459	-0.173704	-0.375806
H69	H	0.855755	-0.173275	-0.507891
H70	H	0.784330	-0.131393	-0.489739
H71	H	0.720507	0.051550	-0.195735
C72	C	0.706368	0.069936	-0.423290
H73	H	0.735045	0.099461	-0.483499
H74	H	0.692700	0.099543	-0.349570
H75	H	0.665817	0.053763	-0.460109
H76	H	0.740247	-0.330299	0.326073
C77	C	0.924404	-0.341589	-0.012603
H78	H	0.952426	-0.306638	-0.064130
H79	H	0.899034	-0.372516	-0.065327
H80	H	0.953694	-0.372488	0.032947
C81	C	0.454907	-0.000002	0.415934
H82	H	0.407423	-0.000009	0.398065
H83	H	0.463665	0.043900	0.463794
H84	H	0.463654	-0.043912	0.463776
C85	C	0.940902	0.078042	-0.235453
H86	H	0.961940	0.122123	-0.274434
H87	H	0.966186	0.034563	-0.267164
H88	H	0.941733	0.081061	-0.145641
H89	H	0.837156	0.125366	-0.224978
H90	H	0.921786	-0.074549	-0.245287
C91	C	0.706523	-0.068963	-0.425447
H92	H	0.735406	-0.098053	-0.485987
H93	H	0.666150	-0.052435	-0.462430
H94	H	0.692577	-0.099140	-0.352522
H95	H	0.023443	0.000007	0.371254
H96	H	0.917960	-0.075198	-0.462069
C97	C	0.709911	-0.069728	-0.181699
H98	H	0.692326	-0.098001	-0.248018
H99	H	0.672000	-0.053701	-0.122405
H100	H	0.740757	-0.100520	-0.139346
C101	C	0.829748	-0.144154	-0.208090
H102	H	0.792367	-0.130671	-0.145687
H103	H	0.863280	-0.173243	-0.169260
H104	H	0.811951	-0.173130	-0.273370
H105	H	0.838651	0.125721	-0.444404
H106	H	0.627789	0.000018	-0.033047
H107	H	0.155576	0.000001	0.374797
C108	C	0.939464	0.071893	-0.478887
H109	H	0.946688	0.029005	-0.533081
H110	H	0.971321	0.070317	-0.415905
H111	H	0.947082	0.116762	-0.528100
H112	H	0.495652	0.000015	-0.036595
H113	H	0.051559	0.000038	-0.048512
C114	C	0.196315	0.000022	-0.077732
H115	H	0.243798	0.000011	-0.059862
H116	H	0.187573	0.043927	-0.125578
H117	H	0.187551	-0.043885	-0.125587
C118	C	0.726789	-0.175206	0.350796
H119	H	0.698776	-0.210158	0.402337
H120	H	0.697500	-0.144300	0.305268
H121	H	0.752169	-0.144286	0.403525
H122	H	0.910992	-0.669681	0.012126
