data_functionalizedCrystal
_audit_creation_method	'MofGen! by Chris Wilmer'
_symmetry_space_group_name_H-M	'P1'
_symmetry_Int_Tables_number	1
_symmetry_cell_setting	triclinic
loop_
_symmetry_equiv_pos_as_xyz
  x,y,z
_cell_length_a	19.077105
_cell_length_b	18.050589
_cell_length_c	19.077271
_cell_angle_alpha	87.709704
_cell_angle_beta	89.912562
_cell_angle_gamma	87.724731
loop_
_atom_site_label
_atom_site_type_symbol
_atom_site_fract_x
_atom_site_fract_y
_atom_site_fract_z
Zn1	Zn	1.058165	-0.359400	0.440435
Zn2	Zn	1.062819	-0.478776	0.322936
Zn3	Zn	0.945407	-0.349418	0.318229
Zn4	Zn	0.940620	-0.478359	0.435688
O5	O	1.001753	-0.416488	0.379322
O6	O	1.157114	-0.379588	0.428805
O7	O	1.051195	-0.457614	0.223981
O8	O	0.960420	-0.246821	0.334456
O9	O	1.160533	-0.467293	0.342479
O10	O	1.043263	-0.254154	0.424241
O11	O	0.964932	-0.362575	0.220522
O12	O	0.846441	-0.362171	0.329853
O13	O	0.952262	-0.466581	0.534648
O14	O	0.842924	-0.456903	0.416150
O15	O	1.038622	-0.379183	0.538136
O16	O	1.046554	-0.582643	0.337876
O17	O	0.956775	-0.582336	0.420714
C18	C	0.819187	-0.408409	0.371976
C19	C	0.741083	-0.404971	0.368850
C20	C	0.702580	-0.452746	0.412241
C21	C	0.629194	-0.449506	0.409307
C22	C	0.594312	-0.398494	0.362978
C23	C	0.632820	-0.350713	0.319586
C24	C	0.706205	-0.353950	0.322524
C25	C	0.375028	-0.383513	0.349385
C26	C	0.301638	-0.380282	0.346449
C27	C	0.298017	-0.479074	0.436171
C28	C	0.371404	-0.482309	0.439102
C29	C	0.409905	-0.434526	0.395712
N30	N	0.519299	-0.395183	0.359977
N31	N	0.484916	-0.437835	0.398718
C32	C	1.001669	-0.609436	0.379307
C33	C	1.001696	-0.691984	0.379326
C34	C	0.952921	-0.891296	0.424359
C35	C	0.938383	-0.937353	0.359553
C36	C	1.001764	-0.843118	0.379338
C37	C	1.016337	-0.944145	0.444153
C38	C	1.001829	-0.989106	0.379355
C39	C	0.987194	-0.888084	0.314497
C40	C	1.065176	-0.894875	0.399142
C41	C	1.050664	-0.940909	0.334292
C42	C	1.001725	-0.759018	0.379329
C43	C	1.001869	-1.073205	0.379357
C44	C	1.185032	-0.424600	0.386697
C45	C	1.263135	-0.428057	0.389840
C46	C	0.994389	-0.423949	0.562601
C47	C	0.991251	-0.427128	0.640704
C48	C	1.001856	-0.222789	0.379353
C49	C	1.001900	-0.140245	0.379366
C50	C	1.034737	-0.383120	0.679213
C51	C	1.031780	-0.386104	0.752599
C52	C	0.985340	-0.433101	0.787473
C53	C	0.941849	-0.477110	0.748958
C54	C	0.944803	-0.474122	0.675574
C55	C	0.971680	-0.446914	1.006753
C56	C	0.968731	-0.449901	1.080143
C57	C	1.058662	-0.358893	1.083778
C58	C	1.061615	-0.355912	1.010393
C59	C	1.018121	-0.399919	0.971884
N60	N	0.982318	-0.436154	0.862485
N61	N	1.021140	-0.396862	0.896873
C62	C	1.009082	-0.409073	1.196755
C63	C	1.012217	-0.405893	1.118653
H64	H	0.604412	-0.309175	0.281867
H65	H	1.092000	-0.962550	0.296181
H66	H	1.118758	-0.876087	0.415907
C67	C	0.923833	-0.495321	0.964403
N68	N	0.887791	-0.531782	0.932502
H69	H	1.028636	-0.968658	0.498960
H70	H	0.974832	-0.863658	0.259673
H71	H	0.737553	-0.315043	0.287194
C72	C	1.085825	-0.331419	0.640858
N73	N	1.124304	-0.292473	0.611971
C74	C	1.079620	-0.337693	0.794956
N75	N	1.115656	-0.301227	0.826860
H76	H	1.099434	-0.317645	0.982003
H77	H	1.094071	-0.323064	1.115140
C78	C	0.255659	-0.531627	0.483902
N79	N	0.223755	-0.571209	0.519857
H80	H	0.909384	-0.509950	0.644220
H81	H	0.911559	-0.869512	0.462373
C82	C	0.917638	-0.501600	1.118503
N83	N	0.879158	-0.540539	1.147396
H84	H	0.884788	-0.956144	0.342818
C85	C	0.586845	-0.502077	0.457027
N86	N	0.554948	-0.541681	0.492968
H87	H	0.904033	-0.515373	0.777358
C88	C	0.417370	-0.330954	0.301650
N89	N	0.449265	-0.291366	0.265692
C90	C	0.409769	-0.538430	0.490064
N91	N	0.438665	-0.580705	0.528446
C92	C	0.740944	-0.508865	0.463206
N93	N	0.769837	-0.551133	0.501597
H94	H	0.273238	-0.338733	0.308727
