data_functionalizedCrystal
_audit_creation_method	'MofGen! by Chris Wilmer'
_symmetry_space_group_name_H-M	'P1'
_symmetry_Int_Tables_number	1
_symmetry_cell_setting	triclinic
loop_
_symmetry_equiv_pos_as_xyz
  x,y,z
_cell_length_a	16.109295
_cell_length_b	10.065875
_cell_length_c	16.109301
_cell_angle_alpha	81.214708
_cell_angle_beta	96.539666
_cell_angle_gamma	81.258551
loop_
_atom_site_label
_atom_site_type_symbol
_atom_site_fract_x
_atom_site_fract_y
_atom_site_fract_z
O1	O	-1.115293	0.113403	0.094630
O2	O	-0.615293	0.613403	0.594630
O3	O	-0.873233	0.113427	0.107932
O4	O	-0.373233	0.613427	0.607932
O5	O	-1.000911	0.113400	-0.019749
O6	O	-0.500911	0.613400	0.480251
O7	O	-0.987615	0.113430	0.222311
O8	O	-0.487615	0.613430	0.722311
O9	O	-0.976565	-0.113583	0.004696
O10	O	-0.476565	0.386417	0.504696
O11	O	-0.848886	-0.113557	0.132376
O12	O	-0.348886	0.386443	0.632376
O13	O	-1.090947	-0.113581	0.119075
O14	O	-0.590947	0.386419	0.619075
Zn15	Zn	-0.966051	-0.149607	0.129607
Zn16	Zn	-0.466051	0.350393	0.629607
Zn17	Zn	-0.998129	0.149454	0.097400
Zn18	Zn	-0.498129	0.649454	0.597400
O19	O	-0.963268	-0.113554	0.246755
O20	O	-0.463268	0.386446	0.746755
C21	C	-0.830085	-0.000062	0.119616
C22	C	-0.330085	0.499938	0.619616
C23	C	-0.737790	-0.000054	0.118002
C24	C	-0.237790	0.499946	0.618002
C25	C	-0.515517	-0.000059	0.190014
C26	C	-0.015517	0.499941	0.690014
C27	C	-0.428795	-0.000068	0.188493
C28	C	0.071205	0.499932	0.688493
C29	C	-0.448668	-0.000080	0.037005
C30	C	0.051332	0.499920	0.537005
C31	C	-0.535387	-0.000082	0.038528
C32	C	-0.035387	0.499918	0.538528
C33	C	-0.568810	-0.000064	0.115035
C34	C	-0.068810	0.499936	0.615035
C35	C	-0.395369	-0.000071	0.111990
C36	C	0.104631	0.499929	0.611990
C37	C	-0.301342	-0.000080	0.110340
C38	C	0.198658	0.499920	0.610340
C39	C	-0.662842	-0.000058	0.116686
C40	C	-0.162842	0.499942	0.616686
N41	N	-0.944165	-0.353708	0.151586
N42	N	-0.444165	0.146292	0.651586
C43	C	-0.990508	-0.421497	0.105042
C44	C	-0.490508	0.078503	0.605042
C45	C	-0.973671	-0.578660	0.121965
C46	C	-0.473671	-0.078660	0.621965
C47	C	-0.134094	-0.000087	0.107395
C48	C	0.365906	0.499913	0.607395
C49	C	-0.226388	-0.000082	0.109023
C50	C	0.273612	0.499918	0.609023
C51	C	-0.988199	-0.000092	-0.038501
C52	C	-0.488199	0.499908	0.461499
C53	C	-0.986584	-0.000094	-0.130796
C54	C	-0.486584	0.499906	0.369204
N55	N	-1.020021	0.353555	0.075414
N56	N	-0.520021	0.853555	0.575414
C57	C	-1.058593	-0.000079	-0.353072
C58	C	-0.558593	0.499921	0.146928
C59	C	-1.057070	-0.000068	-0.439793
C60	C	-0.557070	0.499932	0.060207
C61	C	-0.905582	-0.000058	-0.419917
C62	C	-0.405582	0.499942	0.080083
C63	C	-0.907107	-0.000060	-0.333198
C64	C	-0.407107	0.499940	0.166802
C65	C	-0.983614	-0.000077	-0.299777
C66	C	-0.483614	0.499923	0.200223
C67	C	-0.980567	-0.000064	-0.473218
C68	C	-0.480567	0.499936	0.026782
C69	C	-0.978915	-0.000052	-0.567245
C70	C	-0.478915	0.499948	-0.067245
C71	C	-0.985267	-0.000087	-0.205744
C72	C	-0.485267	0.499913	0.294256
C73	C	-0.975981	-0.000059	0.265507
C74	C	-0.475981	0.499941	0.765507
C75	C	-0.977597	-0.000048	0.357801
C76	C	-0.477597	0.499952	0.857801
H77	H	-0.578780	-0.000090	-0.022532
H78	H	-0.078780	0.499910	0.477468
H79	H	-1.120891	-0.000090	-0.325864
H80	H	-0.620891	0.499910	0.174136
C81	C	-1.206958	-0.000098	-0.450721
C82	C	-0.706958	0.499902	0.049279
C83	C	-1.139489	-0.000079	-0.498374
C84	C	-0.639489	0.499921	0.001626
H85	H	-1.257841	-0.000112	-0.486887
H86	H	-0.757841	0.499888	0.013113
H87	H	-1.212893	0.079050	-0.425005
H88	H	-0.712893	0.579050	0.074995
H89	H	-1.195903	-0.079260	-0.407962
H90	H	-0.695903	0.420740	0.092038
H91	H	-1.150542	0.079088	-0.541129
H92	H	-0.650542	0.579088	-0.041129
H93	H	-1.133555	-0.079235	-0.524103
H94	H	-0.633555	0.420765	-0.024103
C95	C	-0.825101	-0.622953	0.175875
C96	C	-0.325101	-0.122953	0.675875
C97	C	-0.903273	-0.657369	0.192674
C98	C	-0.403273	-0.157369	0.692674
H99	H	-0.781642	-0.671554	0.219525
H100	H	-0.281642	-0.171554	0.719525
H101	H	-0.827186	-0.527675	0.173786
H102	H	-0.327186	-0.027675	0.673786
H103	H	-0.813455	-0.646315	0.122925
H104	H	-0.313455	-0.146315	0.622925
H105	H	-0.914922	-0.633998	0.245622
H106	H	-0.414922	-0.133998	0.745622
H107	H	-0.901189	-0.752669	0.194772
H108	H	-0.401189	-0.252669	0.694772
C109	C	-0.835978	-0.000069	-0.544024
C110	C	-0.335978	0.499931	-0.044024
C111	C	-0.821486	-0.000059	-0.456654
C112	C	-0.321486	0.499941	0.043346
H113	H	-0.784057	-0.000082	-0.566699
H114	H	-0.284057	0.499918	-0.066699
H115	H	-0.875329	0.079081	-0.570836
H116	H	-0.375329	0.579081	-0.070836
H117	H	-0.858364	-0.079229	-0.553788
H118	H	-0.358364	0.420771	-0.053788
H119	H	-0.799106	0.079106	-0.446891
H120	H	-0.299106	0.579106	0.053109
H121	H	-0.782121	-0.079217	-0.429834
H122	H	-0.282121	0.420783	0.070166
H123	H	-0.846047	-0.000054	-0.289803
H124	H	-0.346047	0.499946	0.210197
C125	C	-1.043731	-0.377154	-0.043707
C126	C	-0.543731	0.122846	0.456293
C127	C	-1.060903	-0.342748	0.034347
C128	C	-0.560903	0.157252	0.534347
H129	H	-1.087190	-0.328522	-0.087347
H130	H	-0.587190	0.171478	0.412653
H131	H	-1.041671	-0.472426	-0.041627
H132	H	-0.541671	0.027574	0.458373
H133	H	-0.990689	-0.353824	-0.055088
H134	H	-0.490689	0.146176	0.444912
H135	H	-1.113943	-0.366087	0.045731
H136	H	-0.613943	0.133913	0.545731
H137	H	-1.062972	-0.247455	0.032269
H138	H	-0.562972	0.252545	0.532269
H139	H	-0.385407	-0.000067	0.249549
H140	H	0.114593	0.499933	0.749549
C141	C	-1.073078	-0.602560	-0.073330
C142	C	-0.573078	-0.102560	0.426670
C143	C	-1.090396	-0.567910	0.004627
C144	C	-0.590396	-0.067910	0.504627
H145	H	-1.116516	-0.554118	-0.117051
H146	H	-0.616516	-0.054118	0.382949
H147	H	-1.070933	-0.697872	-0.071131
H148	H	-0.570933	-0.197872	0.428869
H149	H	-1.020043	-0.579166	-0.084685
H150	H	-0.520043	-0.079166	0.415315
H151	H	-1.143428	-0.591313	0.015985
H152	H	-0.643428	-0.091313	0.515985
H153	H	-1.092550	-0.472576	0.002429
H154	H	-0.592550	0.027424	0.502429
C155	C	-0.795599	-0.398006	0.205493
C156	C	-0.295599	0.101994	0.705493
C157	C	-0.873771	-0.432422	0.222293
C158	C	-0.373771	0.067578	0.722293
H159	H	-0.752139	-0.446607	0.249143
H160	H	-0.252139	0.053393	0.749143
H161	H	-0.797683	-0.302728	0.203404
H162	H	-0.297683	0.197272	0.703404
H163	H	-0.783952	-0.421368	0.152543
H164	H	-0.283952	0.078632	0.652543
H165	H	-0.885420	-0.409051	0.275240
H166	H	-0.385420	0.090949	0.775240
H167	H	-0.871687	-0.527722	0.224391
H168	H	-0.371687	-0.027722	0.724391
H169	H	-0.542725	-0.000055	0.252312
H170	H	-0.042725	0.499945	0.752312
H171	H	-0.421444	-0.000103	-0.025283
H172	H	0.078556	0.499897	0.474717
