data_functionalizedCrystal
_audit_creation_method	'MofGen! by Chris Wilmer'
_symmetry_space_group_name_H-M	'P1'
_symmetry_Int_Tables_number	1
_symmetry_cell_setting	triclinic
loop_
_symmetry_equiv_pos_as_xyz
  x,y,z
_cell_length_a	15.944551
_cell_length_b	27.732048
_cell_length_c	14.421503
_cell_angle_alpha	89.999321
_cell_angle_beta	89.996859
_cell_angle_gamma	83.070697
loop_
_atom_site_label
_atom_site_type_symbol
_atom_site_fract_x
_atom_site_fract_y
_atom_site_fract_z
O1	O	1.113714	0.062334	-0.077025
O2	O	1.447047	0.395667	0.256308
O3	O	1.780381	0.729000	0.589641
O4	O	0.869064	0.070020	-0.077050
O5	O	1.202397	0.403353	0.256284
O6	O	1.535731	0.736686	0.589617
O7	O	0.998987	-0.004187	-0.077019
O8	O	1.332321	0.329146	0.256314
O9	O	1.665654	0.662480	0.589648
O10	O	0.983791	0.136540	-0.077056
O11	O	1.317124	0.469874	0.256277
O12	O	1.650457	0.803207	0.589611
O13	O	0.998966	-0.004176	0.077204
O14	O	1.332299	0.329157	0.410538
O15	O	1.665632	0.662491	0.743871
O16	O	0.869042	0.070031	0.077174
O17	O	1.202376	0.403364	0.410507
O18	O	1.535709	0.736697	0.743840
O19	O	1.113693	0.062345	0.077198
O20	O	1.447026	0.395678	0.410531
O21	O	1.780359	0.729011	0.743865
Cu22	Cu	0.991366	0.066189	0.091268
Cu23	Cu	1.324699	0.399522	0.424601
Cu24	Cu	1.658032	0.732855	0.757934
Cu25	Cu	0.991391	0.066176	-0.091119
Cu26	Cu	1.324724	0.399509	0.242214
Cu27	Cu	1.658058	0.732842	0.575547
O28	O	0.983769	0.136552	0.077168
O29	O	1.317103	0.469885	0.410501
O30	O	1.650436	0.803218	0.743834
C31	C	0.837763	0.069706	0.000059
C32	C	1.171097	0.403039	0.333393
C33	C	1.504430	0.736373	0.666726
C34	C	0.744530	0.068749	0.000051
C35	C	1.077863	0.402083	0.333384
C36	C	1.411197	0.735416	0.666717
C37	C	0.530305	0.020466	0.000081
C38	C	0.863638	0.353800	0.333415
C39	C	1.196971	0.687133	0.666748
C40	C	0.469002	0.042882	-0.075965
C41	C	0.802335	0.376215	0.257368
C42	C	1.135669	0.709549	0.590702
C43	C	0.573827	0.067019	0.000062
C44	C	0.907160	0.400352	0.333395
C45	C	1.240493	0.733686	0.666729
C46	C	0.469003	0.042904	0.076087
C47	C	0.802336	0.376237	0.409421
C48	C	1.135669	0.709570	0.742754
C49	C	0.408936	0.065344	0.000077
C50	C	0.742269	0.398677	0.333411
C51	C	1.075602	0.732011	0.666744
C52	C	0.513752	0.089447	-0.076047
C53	C	0.847085	0.422781	0.257286
C54	C	1.180419	0.756114	0.590620
C55	C	0.513759	0.089463	0.076074
C56	C	0.847093	0.422796	0.409407
C57	C	1.180426	0.756129	0.742740
C58	C	0.452474	0.111912	0.000009
C59	C	0.785807	0.445246	0.333342
C60	C	1.119140	0.778579	0.666676
C61	C	0.668816	0.067983	0.000053
C62	C	1.002150	0.401316	0.333386
C63	C	1.335483	0.734649	0.666719
C64	C	0.313947	0.064384	0.000080
C65	C	0.647281	0.397717	0.333413
C66	C	0.980614	0.731051	0.666747
C67	C	0.998658	-0.022190	0.000095
C68	C	1.331991	0.311143	0.333428
C69	C	1.665324	0.644477	0.666762
C70	C	0.997697	-0.075849	0.000103
C71	C	1.331030	0.257484	0.333436
C72	C	1.664364	0.590818	0.666769
C73	C	1.068426	-0.414358	0.000062
C74	C	1.401759	-0.081024	0.333395
C75	C	1.735093	0.252309	0.666729
C76	C	1.064862	-0.616033	0.000049
C77	C	1.398195	-0.282699	0.333382
C78	C	1.731529	0.050634	0.666716
O79	O	1.129539	-0.647008	0.000015
O80	O	1.462872	-0.313675	0.333348
O81	O	1.796205	0.019658	0.666681
N82	N	0.987823	-0.635490	0.000042
N83	N	1.321156	-0.302157	0.333375
N84	N	1.654490	0.031176	0.666709
C85	C	0.911669	-0.604525	0.000032
C86	C	1.245003	-0.271192	0.333366
C87	C	1.578336	0.062141	0.666699
O88	O	0.846061	-0.625703	0.000017
O89	O	1.179394	-0.292369	0.333350
O90	O	1.512728	0.040964	0.666684
C91	C	0.915234	-0.402851	0.000039
C92	C	1.248567	-0.069518	0.333372
C93	C	1.581901	0.263815	0.666706
C94	C	0.992278	-0.383397	0.000055
C95	C	1.325612	-0.050064	0.333389
C96	C	1.658945	0.283270	0.666722
C97	C	1.145464	-0.394903	0.000077
C98	C	1.478797	-0.061569	0.333411
C99	C	1.812131	0.271764	0.666744
C100	C	1.146354	-0.344487	0.000086
C101	C	1.479687	-0.011154	0.333419
C102	C	1.813021	0.322180	0.666752
C103	C	1.070206	-0.313526	0.000079
C104	C	1.403540	0.019807	0.333412
C105	C	1.736873	0.353141	0.666746
C106	C	0.993168	-0.332981	0.000064
C107	C	1.326502	0.000352	0.333397
C108	C	1.659835	0.333686	0.666730
C109	C	0.839081	-0.371887	0.000023
C110	C	1.172415	-0.038554	0.333356
C111	C	1.505748	0.294779	0.666690
C112	C	0.839979	-0.321466	0.000022
C113	C	1.173313	0.011867	0.333356
C114	C	1.506646	0.345200	0.666689
C115	C	0.917024	-0.302012	0.000038
C116	C	1.250357	0.031322	0.333372
C117	C	1.583690	0.364655	0.666705
C118	C	0.917911	-0.251604	0.000065
C119	C	1.251244	0.081729	0.333399
C120	C	1.584577	0.415062	0.666732
N121	N	0.994950	-0.232147	0.000072
N122	N	1.328283	0.101186	0.333405
N123	N	1.661617	0.434520	0.666739
C124	C	1.071098	-0.263108	0.000079
C125	C	1.404431	0.070225	0.333412
C126	C	1.737764	0.403559	0.666746
C127	C	0.909803	-0.710408	0.000031
C128	C	1.243136	-0.377074	0.333364
C129	C	1.576470	-0.043741	0.666698
C130	C	0.908912	-0.760826	0.000031
C131	C	1.242245	-0.427492	0.333364
C132	C	1.575578	-0.094159	0.666697
C133	C	1.062105	-0.772330	0.000045
C134	C	1.395438	-0.438996	0.333379
C135	C	1.728772	-0.105663	0.666712
C136	C	1.062995	-0.721911	0.000052
C137	C	1.396329	-0.388577	0.333385
C138	C	1.729662	-0.055244	0.666719
C139	C	0.986842	-0.690950	0.000038
C140	C	1.320176	-0.357617	0.333371
C141	C	1.653509	-0.024283	0.666704
C142	C	1.072961	-0.157231	0.000097
C143	C	1.406295	0.176103	0.333431
C144	C	1.739628	0.509436	0.666764
C145	C	1.073845	-0.106810	0.000109
C146	C	1.407178	0.226523	0.333443
C147	C	1.740511	0.559857	0.666776
C148	C	0.920652	-0.095310	0.000090
C149	C	1.253985	0.238023	0.333423
C150	C	1.587319	0.571356	0.666757
C151	C	0.919768	-0.145727	0.000083
C152	C	1.253102	0.187607	0.333416
C153	C	1.586435	0.520940	0.666749
C154	C	0.995930	-0.176686	0.000083
C155	C	1.329263	0.156647	0.333416
C156	C	1.662596	0.489981	0.666750
O157	O	0.853269	-0.220600	0.000089
O158	O	1.186602	0.112733	0.333422
O159	O	1.519935	0.446066	0.666756
O160	O	1.136697	-0.241921	0.000074
O161	O	1.470030	0.091412	0.333407
O162	O	1.803363	0.424745	0.666741
C163	C	1.067536	-0.464774	0.000054
C164	C	1.400869	-0.131440	0.333387
C165	C	1.734203	0.201893	0.666720
C166	C	0.990498	-0.484228	0.000039
C167	C	1.323831	-0.150895	0.333372
C168	C	1.657165	0.182438	0.666705
C169	C	0.914350	-0.453268	0.000032
C170	C	1.247684	-0.119934	0.333365
C171	C	1.581017	0.213399	0.666698
C172	C	0.989607	-0.534647	0.000039
C173	C	1.322940	-0.201313	0.333372
C174	C	1.656273	0.132020	0.666705
C175	C	1.065754	-0.565608	0.000045
C176	C	1.399088	-0.232274	0.333379
C177	C	1.732421	0.101059	0.666712
C178	C	1.142794	-0.546150	0.000052
C179	C	1.476127	-0.212817	0.333385
C180	C	1.809460	0.120516	0.666719
C181	C	1.143684	-0.495734	0.000061
C182	C	1.477017	-0.162401	0.333394
C183	C	1.810350	0.170932	0.666727
C184	C	0.837311	-0.472725	0.000025
C185	C	1.170644	-0.139392	0.333358
C186	C	1.503978	0.193942	0.666692
C187	C	0.836427	-0.523141	0.000018
C188	C	1.169760	-0.189808	0.333351
C189	C	1.503094	0.143525	0.666684
C190	C	0.912575	-0.554102	0.000024
C191	C	1.245908	-0.220769	0.333358
C192	C	1.579242	0.112564	0.666691
C193	C	1.144993	0.062658	0.000087
C194	C	1.478326	0.395992	0.333421
C195	C	1.811660	0.729325	0.666754
C196	C	1.238227	0.063615	0.000090
C197	C	1.571560	0.396948	0.333423
C198	C	1.904893	0.730282	0.666756
C199	C	0.984099	0.154554	0.000051
C200	C	1.317432	0.487888	0.333385
C201	C	1.650766	0.821221	0.666718
C202	C	0.985059	0.208213	0.000038
C203	C	1.318393	0.541547	0.333371
C204	C	1.651726	0.874880	0.666704
N205	N	0.991354	0.066198	0.219549
N206	N	1.324687	0.399531	0.552882
N207	N	1.658020	0.732864	0.886216
N208	N	0.991409	0.066163	-0.219401
N209	N	1.324743	0.399496	0.113933
N210	N	1.658076	0.732830	0.447266
C211	C	0.931267	0.100495	0.469189
C212	C	1.264600	0.433829	0.802522
C213	C	1.597934	0.767162	1.135855
C214	C	1.007044	0.109880	0.530996
C215	C	1.340378	0.443213	0.864329
C216	C	1.673711	0.776546	1.197663
C217	C	0.991374	0.066186	0.408710
C218	C	1.324708	0.399519	0.742044
C219	C	1.658041	0.732853	1.075377
C220	C	0.915616	0.056813	0.530997
C221	C	1.248950	0.390147	0.864330
C222	C	1.582283	0.723480	1.197664
C223	C	0.991387	0.066176	0.591432
C224	C	1.324721	0.399509	0.924765
C225	C	1.658054	0.732843	1.258099
C226	C	1.067190	0.075592	0.469157
C227	C	1.400523	0.408925	0.802490
C228	C	1.733856	0.742259	1.135824
C229	C	0.975712	0.022507	0.469153
C230	C	1.309046	0.355840	0.802486
C231	C	1.642379	0.689173	1.135819
C232	C	1.051545	0.031872	0.530932
C233	C	1.384878	0.365206	0.864265
C234	C	1.718211	0.698539	1.197599
C235	C	0.991366	0.066193	0.303449
C236	C	1.324699	0.399526	0.636783
C237	C	1.658032	0.732860	0.970116
C238	C	0.991405	0.066169	0.696691
C239	C	1.324738	0.399502	1.030024
C240	C	1.658072	0.732835	1.363357
H241	H	0.418809	0.150587	-0.000044
H242	H	0.752143	0.483920	0.333290
H243	H	1.085476	0.817254	0.666623
Cl244	Cl	1.166136	0.087892	0.427400
Cl245	Cl	1.499469	0.421225	0.760734
Cl246	Cl	1.832802	0.754559	1.094067
Cl247	Cl	0.438365	0.012477	-0.175213
Cl248	Cl	0.771699	0.345810	0.158121
Cl249	Cl	1.105032	0.679144	0.491454
H250	H	1.207476	-0.420107	0.000079
H251	H	1.540810	-0.086773	0.333413
H252	H	1.874143	0.246560	0.666746
H253	H	0.851544	0.048890	0.558163
H254	H	1.184877	0.382224	0.891496
H255	H	1.518211	0.715557	1.224830
Cl256	Cl	0.814057	-0.671492	0.000014
Cl257	Cl	1.147391	-0.338159	0.333347
Cl258	Cl	1.480724	-0.004826	0.666680
H259	H	1.125732	-0.706075	0.000065
H260	H	1.459065	-0.372741	0.333398
H261	H	1.792398	-0.039408	0.666731
H262	H	1.124107	-0.797547	0.000051
H263	H	1.457441	-0.464214	0.333385
H264	H	1.790774	-0.130880	0.666718
Cl265	Cl	0.544223	0.119817	-0.175418
Cl266	Cl	0.877556	0.453150	0.157915
Cl267	Cl	1.210889	0.786484	0.491249
H268	H	0.564143	-0.018169	-0.000003
H269	H	0.897476	0.315165	0.333331
H270	H	1.230809	0.648498	0.666664
Cl271	Cl	1.130114	-0.012932	0.572534
Cl272	Cl	1.463447	0.320401	0.905867
Cl273	Cl	1.796781	0.653735	1.239200
Cl274	Cl	0.544434	0.119845	0.175325
Cl275	Cl	0.877767	0.453178	0.508658
Cl276	Cl	1.211101	0.786511	0.841991
Cl277	Cl	1.168709	-0.196143	0.000099
Cl278	Cl	1.502042	0.137190	0.333433
Cl279	Cl	1.835375	0.470523	0.666766
H280	H	0.449165	0.023210	0.140376
H281	H	0.782499	0.356543	0.473710
H282	H	1.115832	0.689877	0.807043
H283	H	1.136586	-0.090973	0.000125
H284	H	1.469919	0.242360	0.333458
H285	H	1.803253	0.575693	0.666792
Cl286	Cl	1.243215	-0.320038	0.000080
Cl287	Cl	1.576548	0.013295	0.333413
Cl288	Cl	1.909882	0.346629	0.666746
Cl289	Cl	0.812052	-0.785276	0.000028
Cl290	Cl	1.145385	-0.451943	0.333362
Cl291	Cl	1.478719	-0.118610	0.666695
H292	H	0.776344	-0.387718	0.000004
H293	H	1.109677	-0.054385	0.333337
H294	H	1.443010	0.278949	0.666671
H295	H	0.777965	-0.296260	0.000009
H296	H	1.111298	0.037073	0.333342
H297	H	1.444631	0.370407	0.666676
Cl298	Cl	0.822912	-0.170184	0.000080
Cl299	Cl	1.156245	0.163149	0.333413
Cl300	Cl	1.489578	0.496482	0.666746
Cl301	Cl	0.824929	-0.056379	0.000079
Cl302	Cl	1.158262	0.276954	0.333413
Cl303	Cl	1.491595	0.610288	0.666746
H304	H	1.020304	0.146814	0.558160
H305	H	1.353637	0.480147	0.891493
H306	H	1.686970	0.813481	1.224827
Cl307	Cl	1.240545	-0.471285	0.000073
Cl308	Cl	1.573878	-0.137952	0.333406
Cl309	Cl	1.907211	0.195381	0.666740
H310	H	1.204796	-0.571368	0.000062
H311	H	1.538129	-0.238034	0.333395
H312	H	1.871462	0.095299	0.666728
H313	H	0.773684	-0.538976	0.000013
H314	H	1.107017	-0.205642	0.333346
H315	H	1.440350	0.127691	0.666679
H316	H	0.962429	-0.014416	0.441967
H317	H	1.295762	0.318917	0.775300
H318	H	1.629096	0.652251	1.108634
H319	H	0.775301	-0.447521	0.000017
H320	H	1.108634	-0.114188	0.333351
H321	H	1.441967	0.219146	0.666684
H322	H	0.880487	0.129533	0.442079
H323	H	1.213820	0.462866	0.775412
H324	H	1.547154	0.796200	1.108745
