data_functionalizedCrystal
_audit_creation_method	'MofGen! by Chris Wilmer'
_symmetry_space_group_name_H-M	'P1'
_symmetry_Int_Tables_number	1
_symmetry_cell_setting	triclinic
loop_
_symmetry_equiv_pos_as_xyz
  x,y,z
_cell_length_a	18.050590
_cell_length_b	29.839131
_cell_length_c	18.050582
_cell_angle_alpha	90.033130
_cell_angle_beta	89.999233
_cell_angle_gamma	90.024397
loop_
_atom_site_label
_atom_site_type_symbol
_atom_site_fract_x
_atom_site_fract_y
_atom_site_fract_z
Zn1	Zn	1.135256	-0.179012	0.419547
Zn2	Zn	1.635256	0.320988	0.919547
Zn3	Zn	1.135152	-0.254134	0.295334
Zn4	Zn	1.635152	0.245866	0.795334
Zn5	Zn	1.011075	-0.179005	0.295405
Zn6	Zn	1.511075	0.320995	0.795405
Zn7	Zn	1.011008	-0.254101	0.419517
Zn8	Zn	1.511008	0.245899	0.919517
O9	O	1.073123	-0.216563	0.357451
O10	O	1.573123	0.283437	0.857451
O11	O	1.239167	-0.188994	0.403053
O12	O	1.739167	0.311006	0.903053
O13	O	1.118677	-0.244179	0.191419
O14	O	1.618677	0.255821	0.691419
O15	O	1.027620	-0.116138	0.311915
O16	O	1.527620	0.383862	0.811915
O17	O	1.239090	-0.244186	0.311794
O18	O	1.739090	0.255814	0.811794
O19	O	1.118855	-0.116144	0.403122
O20	O	1.618855	0.383856	0.903122
O21	O	1.027519	-0.188981	0.191471
O22	O	1.527519	0.311019	0.691471
O23	O	0.907142	-0.188950	0.311886
O24	O	1.407142	0.311050	0.811886
O25	O	1.027506	-0.244130	0.523445
O26	O	1.527506	0.255870	1.023445
O27	O	0.907093	-0.244123	0.403070
O28	O	1.407093	0.255877	0.903070
O29	O	1.118790	-0.188962	0.523468
O30	O	1.618790	0.311038	1.023468
O31	O	1.118612	-0.316997	0.311765
O32	O	1.618612	0.183003	0.811765
O33	O	1.027404	-0.316973	0.403001
O34	O	1.527404	0.183027	0.903001
C35	C	0.880171	-0.216532	0.357483
C36	C	1.380171	0.283468	0.857483
C37	C	0.797625	-0.216530	0.357514
C38	C	1.297625	0.283470	0.857514
C39	C	0.598169	-0.246619	0.406982
C40	C	1.098169	0.253381	0.906982
C41	C	0.548784	-0.205656	0.425270
C42	C	1.048784	0.294344	0.925270
C43	C	0.646495	-0.216555	0.357478
C44	C	1.146495	0.283445	0.857478
C45	C	0.548798	-0.257541	0.339189
C46	C	1.048798	0.242459	0.839189
C47	C	0.500510	-0.216583	0.357444
C48	C	1.000510	0.283417	0.857444
C49	C	0.598197	-0.175570	0.375801
C50	C	1.098197	0.324430	0.875801
C51	C	0.598215	-0.227483	0.289689
C52	C	1.098215	0.272517	0.789689
C53	C	0.548852	-0.186492	0.307951
C54	C	1.048852	0.313508	0.807951
C55	C	0.730593	-0.216540	0.357499
C56	C	1.230593	0.283460	0.857499
C57	C	0.416413	-0.216594	0.357423
C58	C	0.916413	0.283406	0.857423
C59	C	1.073010	-0.333286	0.357388
C60	C	1.573010	0.166714	0.857388
C61	C	1.073029	-0.383220	0.357386
C62	C	1.573029	0.116780	0.857386
C63	C	1.120619	-0.692831	0.405010
C64	C	1.620619	-0.192831	0.905010
C65	C	1.120699	-0.880504	0.405054
C66	C	1.620699	-0.380504	0.905054
O67	O	1.161051	-0.904742	0.445499
O68	O	1.661051	-0.404742	0.945499
N69	N	1.073249	-0.904005	0.357533
N70	N	1.573249	-0.404005	0.857533
C71	C	1.025772	-0.880585	0.310001
C72	C	1.525772	-0.380585	0.810001
O73	O	0.985409	-0.904880	0.269588
O74	O	1.485409	-0.404880	0.769588
C75	C	1.025688	-0.692912	0.309961
C76	C	1.525688	-0.192912	0.809961
C77	C	1.073147	-0.669414	0.357480
C78	C	1.573147	-0.169414	0.857480
C79	C	1.168073	-0.669333	0.452525
C80	C	1.668073	-0.169333	0.952525
C81	C	1.168055	-0.622417	0.452511
C82	C	1.668055	-0.122417	0.952511
C83	C	1.120583	-0.599000	0.404981
C84	C	1.620583	-0.099000	0.904981
C85	C	1.073129	-0.622499	0.357465
C86	C	1.573129	-0.122499	0.857465
C87	C	0.978208	-0.669493	0.262433
C88	C	1.478208	-0.169493	0.762433
C89	C	0.978190	-0.622572	0.262428
C90	C	1.478190	-0.122572	0.762428
C91	C	1.025648	-0.599074	0.309947
C92	C	1.525648	-0.099074	0.809947
C93	C	1.025639	-0.552166	0.309920
C94	C	1.525639	-0.052166	0.809920
N95	N	1.073089	-0.528665	0.357442
N96	N	1.573089	-0.028665	0.857442
C97	C	1.120561	-0.552082	0.404972
C98	C	1.620561	-0.052082	0.904972
C99	C	1.025820	-0.979115	0.310024
C100	C	1.525820	-0.479115	0.810024
C101	C	1.025842	-1.026033	0.310033
C102	C	1.525842	-0.526033	0.810033
C103	C	1.120769	-1.025949	0.405088
C104	C	1.620769	-0.525949	0.905088
C105	C	1.120750	-0.979031	0.405075
C106	C	1.620750	-0.479031	0.905075
C107	C	1.073270	-0.955614	0.357546
C108	C	1.573270	-0.455614	0.857546
C109	C	1.120521	-0.453557	0.404937
C110	C	1.620521	0.046443	0.904937
C111	C	1.120501	-0.406637	0.404916
C112	C	1.620501	0.093363	0.904916
C113	C	1.025572	-0.406725	0.309865
C114	C	1.525572	0.093275	0.809865
C115	C	1.025594	-0.453640	0.309883
C116	C	1.525594	0.046360	0.809883
C117	C	1.073071	-0.477055	0.357425
C118	C	1.573071	0.022945	0.857425
O119	O	0.985303	-0.527900	0.269503
O120	O	1.485303	-0.027900	0.769503
O121	O	1.160907	-0.527779	0.445391
O122	O	1.660907	-0.027779	0.945391
C123	C	1.120636	-0.739747	0.405024
C124	C	1.620636	-0.239747	0.905024
C125	C	1.073182	-0.763245	0.357509
C126	C	1.573182	-0.263245	0.857509
C127	C	1.025710	-0.739828	0.309978
C128	C	1.525710	-0.239828	0.809978
C129	C	1.073204	-0.810163	0.357518
C130	C	1.573204	-0.310163	0.857518
C131	C	1.120676	-0.833580	0.405048
C132	C	1.620676	-0.333580	0.905048
C133	C	1.168126	-0.810079	0.452569
C134	C	1.668126	-0.310079	0.952569
C135	C	1.168108	-0.763164	0.452554
C136	C	1.668108	-0.263164	0.952554
C137	C	0.978260	-0.763329	0.262457
C138	C	1.478260	-0.263329	0.762457
C139	C	0.978282	-0.810244	0.262475
C140	C	1.478282	-0.310244	0.762475
C141	C	1.025754	-0.833661	0.310005
C142	C	1.525754	-0.333661	0.810005
C143	C	1.266828	-0.216594	0.357419
C144	C	1.766828	0.283406	0.857419
C145	C	1.349374	-0.216607	0.357406
C146	C	1.849374	0.283393	0.857406
C147	C	1.073152	-0.216543	0.551156
C148	C	1.573152	0.283457	1.051156
C149	C	1.073164	-0.216535	0.633702
C150	C	1.573164	0.283465	1.133702
C151	C	1.073257	-0.099385	0.357530
C152	C	1.573257	0.400615	0.857530
C153	C	1.073314	-0.049450	0.357564
C154	C	1.573314	0.450550	0.857564
C155	C	1.073137	-0.216550	0.164499
C156	C	1.573137	0.283450	0.664499
C157	C	1.073268	-0.216432	0.081953
C158	C	1.573268	0.283568	0.581953
C159	C	1.023562	-0.246494	0.833141
C160	C	1.523562	0.253506	1.333141
C161	C	1.091315	-0.257483	0.882510
C162	C	1.591315	0.242517	1.382510
C163	C	1.073201	-0.216500	0.784833
C164	C	1.573201	0.283500	1.284833
C165	C	1.005485	-0.205498	0.882545
C166	C	1.505485	0.294502	1.382545
C167	C	1.073230	-0.216468	0.930818
C168	C	1.573230	0.283532	1.430818
C169	C	1.140990	-0.227511	0.833115
C170	C	1.640990	0.272489	1.333115
C171	C	1.055114	-0.175507	0.833145
C172	C	1.555114	0.324493	1.333145
C173	C	1.122914	-0.186481	0.882492
C174	C	1.622914	0.313519	1.382492
C175	C	1.073183	-0.216520	0.700734
C176	C	1.573183	0.283480	1.200734
C177	C	1.073256	-0.216448	1.014915
C178	C	1.573256	0.283552	1.514915
H179	H	1.159150	-0.387506	0.443612
H180	H	1.659150	0.112494	0.943612
N181	N	0.929715	-0.693481	0.213897
N182	N	1.429715	-0.193481	0.713897
N183	N	0.887327	-0.672558	0.171478
N184	N	1.387327	-0.172558	0.671478
H185	H	0.853070	-0.689499	0.137201
H186	H	1.353070	-0.189499	0.637201
H187	H	1.106631	-0.292136	0.904195
H188	H	1.606631	0.207864	1.404195
N189	N	0.521537	-0.194061	0.497160
N190	N	1.021537	0.305939	0.997160
N191	N	0.538248	-0.157166	0.525427
N192	N	1.038248	0.342834	1.025427
H193	H	0.519005	-0.148978	0.576199
H194	H	1.019005	0.351022	1.076199
H195	H	0.527095	-0.292191	0.323737
H196	H	1.027095	0.207809	0.823737
N197	N	0.625468	-0.239086	0.217810
N198	N	1.125468	0.260914	0.717810
N199	N	0.609671	-0.276263	0.190031
N200	N	1.109671	0.223737	0.690031
H201	H	0.628919	-0.284462	0.139266
H202	H	1.128919	0.215538	0.639266
H203	H	0.948207	-0.196207	0.904258
H204	H	1.448207	0.303793	1.404258
H205	H	1.164953	-0.161103	0.904025
H206	H	1.664953	0.338897	1.404025
N207	N	1.169268	-1.049866	0.453643
N208	N	1.669268	-0.549866	0.953643
N209	N	1.237798	-1.044602	0.448771
N210	N	1.737798	-0.544602	0.948771
H211	H	1.272047	-1.061494	0.483065
H212	H	1.772047	-0.561494	0.983065
N213	N	1.169020	-0.477463	0.453506
N214	N	1.669020	0.022537	0.953506
N215	N	1.211383	-0.456469	0.495923
N216	N	1.711383	0.043531	0.995923
H217	H	1.245638	-0.473352	0.530222
H218	H	1.745638	0.026648	1.030222
H219	H	0.619805	-0.140910	0.391320
H220	H	1.119805	0.359090	0.891320
N221	N	0.521865	-0.154574	0.255416
N222	N	1.021865	0.345426	0.755416
N223	N	0.537857	-0.114026	0.262349
N224	N	1.037857	0.385974	0.762349
H225	H	0.518797	-0.091482	0.225248
H226	H	1.018797	0.408518	0.725248
H227	H	1.206698	-0.603288	0.491207
H228	H	1.706698	-0.103288	0.991207
H229	H	0.939637	-0.829373	0.223772
H230	H	1.439637	-0.329373	0.723772
H231	H	1.039779	-0.140864	0.811445
H232	H	1.539779	0.359136	1.311445
N233	N	1.216570	-0.693241	0.501089
N234	N	1.716570	-0.193241	1.001089
N235	N	1.258930	-0.672246	0.543507
N236	N	1.758930	-0.172246	1.043507
H237	H	1.293187	-0.689128	0.577806
H238	H	1.793187	-0.189128	1.077806
N239	N	1.169237	-0.955032	0.453606
N240	N	1.669237	-0.455032	0.953606
N241	N	1.237769	-0.960248	0.448719
N242	N	1.737769	-0.460248	0.948719
H243	H	1.272016	-0.943302	0.482997
H244	H	1.772016	-0.443302	0.982997
N245	N	0.625342	-0.278447	0.459573
N246	N	1.125342	0.221553	0.959573
N247	N	0.665809	-0.265778	0.511737
N248	N	1.165809	0.234222	1.011737
H249	H	0.685001	-0.288253	0.548884
H250	H	1.185001	0.211747	1.048884
N251	N	0.977373	-1.050026	0.261476
N252	N	1.477373	-0.550026	0.761476
N253	N	0.934994	-1.029107	0.219043
N254	N	1.434994	-0.529107	0.719043
H255	H	0.900759	-1.046050	0.184749
H256	H	1.400759	-0.546050	0.684749
N257	N	0.977312	-0.955207	0.261467
N258	N	1.477312	-0.455207	0.761467
N259	N	0.934953	-0.976200	0.219045
N260	N	1.434953	-0.476200	0.719045
H261	H	0.900695	-0.959317	0.184749
H262	H	1.400695	-0.459317	0.684749
N263	N	0.929680	-0.598661	0.213876
N264	N	1.429680	-0.098661	0.713876
N265	N	0.887312	-0.619651	0.171458
N266	N	1.387312	-0.119651	0.671458
H267	H	0.853052	-0.602765	0.137168
H268	H	1.353052	-0.102765	0.637168
N269	N	0.977154	-0.477653	0.261318
N270	N	1.477154	0.022347	0.761318
N271	N	0.982150	-0.472445	0.192793
N272	N	1.482150	0.027555	0.692793
H273	H	0.947943	-0.489405	0.158492
H274	H	1.447943	0.010595	0.658492
N275	N	0.977096	-0.382793	0.261313
N276	N	1.477096	0.117207	0.761313
N277	N	0.977093	-0.340902	0.261312
N278	N	1.477093	0.159098	0.761312
H279	H	0.942856	-0.323999	0.227023
H280	H	1.442856	0.176001	0.727023
N281	N	1.216593	-0.739171	0.501097
N282	N	1.716593	-0.239171	1.001097
N283	N	1.258972	-0.760093	0.543527
N284	N	1.758972	-0.260093	1.043527
H285	H	1.293218	-0.743151	0.577813
H286	H	1.793218	-0.243151	1.077813
H287	H	0.981623	-0.271892	0.811472
H288	H	1.481623	0.228108	1.311472
N289	N	1.212865	-0.239213	0.805986
N290	N	1.712865	0.260787	1.305986
N291	N	1.224446	-0.241128	0.737785
N292	N	1.724446	0.258872	1.237785
H293	H	1.275207	-0.249392	0.718623
H294	H	1.775207	0.250608	1.218623
N295	N	1.216629	-0.834004	0.501110
N296	N	1.716629	-0.334004	1.001110
N297	N	1.263978	-0.860177	0.475014
N298	N	1.763978	-0.360177	0.975014
H299	H	1.298230	-0.877076	0.509295
H300	H	1.798230	-0.377076	1.009295
N301	N	0.929758	-0.739420	0.213901
N302	N	1.429758	-0.239420	0.713901
N303	N	0.887398	-0.760413	0.171481
N304	N	1.387398	-0.260413	0.671481
H305	H	0.853142	-0.743529	0.137182
H306	H	1.353142	-0.243529	0.637182
