data_functionalizedCrystal
_audit_creation_method	'MofGen! by Chris Wilmer'
_symmetry_space_group_name_H-M	'P1'
_symmetry_Int_Tables_number	1
_symmetry_cell_setting	triclinic
loop_
_symmetry_equiv_pos_as_xyz
  x,y,z
_cell_length_a	13.339070
_cell_length_b	12.376457
_cell_length_c	11.792240
_cell_angle_alpha	78.654438
_cell_angle_beta	99.911355
_cell_angle_gamma	104.410245
loop_
_atom_site_label
_atom_site_type_symbol
_atom_site_fract_x
_atom_site_fract_y
_atom_site_fract_z
O1	O	-1.364751	-0.094137	-0.554283
O2	O	-1.069809	-0.094118	-0.479473
O3	O	-1.224430	-0.094094	-0.353918
O4	O	-1.210130	-0.094161	-0.679839
O5	O	-1.185788	0.093912	-0.385252
O6	O	-1.031167	0.093888	-0.510807
O7	O	-1.326109	0.093869	-0.585617
Zn8	Zn	-1.172503	0.123728	-0.553187
Zn9	Zn	-1.223415	-0.123978	-0.511903
O10	O	-1.171488	0.093845	-0.711172
C11	C	-1.012729	-0.000112	-0.482503
C12	C	-0.900219	-0.000103	-0.444836
N13	N	-1.137764	0.292781	-0.581364
C14	C	-1.204209	-0.000084	-0.327018
C15	C	-1.201514	-0.000065	-0.200179
C16	C	-1.383189	-0.000140	-0.582586
C17	C	-1.495701	-0.000156	-0.620253
C18	C	-0.537049	-0.000182	-0.737717
C19	C	-0.642758	-0.000194	-0.773110
C20	C	-0.707128	-0.000171	-0.691045
C21	C	-0.665779	-0.000137	-0.573580
C22	C	-0.560061	-0.000134	-0.538181
C23	C	-0.730141	-0.000122	-0.491509
C24	C	-0.688792	-0.000088	-0.374044
C25	C	-0.583084	-0.000084	-0.338652
C26	C	-0.518714	-0.000107	-0.420717
C27	C	-0.835859	-0.000125	-0.526908
C28	C	-0.858871	-0.000077	-0.327372
C29	C	-0.753162	-0.000065	-0.291978
N30	N	-1.258162	-0.293030	-0.483720
C31	C	-1.338802	0.647798	-0.418291
C32	C	-1.363110	0.529462	-0.398568
C33	C	-1.306775	0.470286	-0.444265
C34	C	-1.226129	0.529458	-0.509689
C35	C	-1.201824	0.647805	-0.529421
C36	C	-1.169797	0.470293	-0.555395
C37	C	-1.089151	0.529465	-0.620819
C38	C	-1.064849	0.647801	-0.640547
C39	C	-1.121184	0.706977	-0.594850
C40	C	-1.194102	0.351946	-0.535663
C41	C	-1.057124	0.351953	-0.646793
C42	C	-1.032816	0.470289	-0.666516
C43	C	-1.196561	-0.000047	0.032055
C44	C	-1.199313	-0.000057	-0.097175
C45	C	-1.191701	-0.000127	0.261921
C46	C	-1.194374	-0.000034	0.135063
H47	H	-0.869513	-0.000149	-0.622549
F48	F	-1.332646	0.344342	-0.423271
H49	H	-1.384667	0.695987	-0.381098
H50	H	-0.911283	-0.000063	-0.260546
F51	F	-1.095309	0.832926	-0.615836
H52	H	-1.259765	0.303779	-0.482395
H53	H	-0.967153	0.518481	-0.719786
H54	H	-1.428772	0.481289	-0.345302
H55	H	-0.999190	0.695979	-0.693830
H56	H	-1.011253	0.303773	-0.684006
H57	H	-0.549424	-0.000069	-0.243002
F58	F	-0.819633	-0.000181	-0.728717
H59	H	-0.676418	-0.000230	-0.868749
H60	H	-0.484632	-0.000210	-0.804520
H61	H	-0.432635	-0.000097	-0.391905
H62	H	-0.719482	-0.000047	-0.196335
