data_functionalizedCrystal
_audit_creation_method	'MofGen! by Chris Wilmer'
_symmetry_space_group_name_H-M	'P1'
_symmetry_Int_Tables_number	1
_symmetry_cell_setting	triclinic
loop_
_symmetry_equiv_pos_as_xyz
  x,y,z
_cell_length_a	23.532407
_cell_length_b	10.540510
_cell_length_c	9.016244
_cell_angle_alpha	89.997706
_cell_angle_beta	89.988551
_cell_angle_gamma	83.680994
loop_
_atom_site_label
_atom_site_type_symbol
_atom_site_fract_x
_atom_site_fract_y
_atom_site_fract_z
O1	O	0.080175	1.683273	-0.123367
O2	O	0.087754	1.313607	-0.123369
O3	O	0.001106	1.509587	-0.123341
O4	O	0.166823	1.487293	-0.123395
O5	O	0.001099	1.509580	0.123340
O6	O	0.087747	1.313600	0.123312
O7	O	0.080168	1.683266	0.123314
Cu8	Cu	0.083957	1.498432	0.145837
Cu9	Cu	0.083965	1.498440	-0.145892
O10	O	0.166816	1.487286	0.123286
C11	C	0.087186	1.266318	-0.000029
C12	C	0.085496	1.125424	-0.000028
C13	C	0.145690	0.905993	-0.000615
C14	C	0.147493	1.052529	-0.000051
C15	C	0.053756	1.081701	0.140845
C16	C	0.052393	0.934985	0.140955
C17	C	0.051109	0.935229	-0.139567
C18	C	0.054050	1.081474	-0.141421
C19	C	-0.020117	1.509016	0.000004
C20	C	-0.083346	1.507309	0.000015
C21	C	-0.481758	1.612580	-0.000066
C22	C	-0.541169	1.610995	-0.000077
O23	O	-0.577274	1.708582	-0.000131
N24	N	-0.564559	1.494484	-0.000077
C25	C	-0.528535	1.379552	-0.000080
O26	O	-0.553886	1.280305	-0.000082
C27	C	-0.469126	1.381139	-0.000079
C28	C	-0.445739	1.497657	-0.000065
C29	C	-0.458371	1.729089	-0.000052
C30	C	-0.398964	1.730674	-0.000038
C31	C	-0.362945	1.615750	-0.000038
C32	C	-0.386332	1.499242	-0.000051
C33	C	-0.433103	1.266208	-0.000094
C34	C	-0.373690	1.267805	-0.000094
C35	C	-0.350303	1.384323	-0.000079
C36	C	-0.290907	1.385904	-0.000036
N37	N	-0.267516	1.502414	-0.000036
C38	C	-0.303536	1.617337	-0.000037
C39	C	-0.653300	1.376228	-0.000084
C40	C	-0.712708	1.374640	-0.000074
C41	C	-0.725338	1.606083	-0.000074
C42	C	-0.665928	1.607670	-0.000073
C43	C	-0.629909	1.492738	-0.000084
C44	C	-0.178777	1.620658	-0.000006
C45	C	-0.119365	1.622232	0.000014
C46	C	-0.106740	1.390790	0.000006
C47	C	-0.166147	1.389214	-0.000007
C48	C	-0.202165	1.504159	-0.000018
O49	O	-0.254767	1.288367	0.000012
O50	O	-0.278177	1.716568	-0.000054
C51	C	0.188039	1.487857	-0.000062
C52	C	0.251268	1.489564	-0.000083
C53	C	0.080736	1.730555	-0.000029
C54	C	0.082426	1.871449	-0.000039
N55	N	0.083951	1.498436	0.351023
C56	C	0.037760	1.603654	0.586025
C57	C	0.037584	1.603380	0.414134
C58	C	0.070441	1.366173	0.413453
C59	C	0.070117	1.366801	0.585397
C60	C	0.143814	1.524315	0.585507
C61	C	0.143423	1.527322	0.413551
N62	N	0.083966	1.498452	0.648922
H63	H	0.074078	0.894054	0.246245
H64	H	0.045708	1.701721	0.371923
Cl65	Cl	-0.462488	1.119719	-0.000122
H66	H	0.153662	1.624616	0.372748
Cl67	Cl	0.186049	1.095123	0.156107
Cl68	Cl	0.199060	1.416592	0.347224
Cl69	Cl	-0.742101	1.228154	-0.000064
Cl70	Cl	-0.636534	1.754154	-0.000056
H71	H	0.008115	1.130589	0.146099
H72	H	0.004562	0.914603	-0.140504
Cl73	Cl	0.087779	1.128210	0.302690
H74	H	0.172323	1.081063	-0.101039
H75	H	0.169846	0.863249	-0.101644
Cl76	Cl	-0.770630	1.750559	-0.000085
H77	H	0.077144	1.109337	-0.245638
Cl78	Cl	0.050114	1.756010	0.649833
H79	H	-0.344366	1.174212	-0.000106
Cl80	Cl	-0.608024	1.231727	-0.000082
Cl81	Cl	-0.019195	0.901824	0.150946
Cl82	Cl	-0.195549	1.242733	0.000003
Cl83	Cl	0.182765	0.837600	0.154453
Cl84	Cl	0.163657	1.669987	0.652415
H85	H	-0.487693	1.822679	-0.000059
Cl86	Cl	-0.030971	1.577964	0.350661
Cl87	Cl	-0.224047	1.765161	-0.000017
H88	H	0.103175	1.286031	0.372574
H89	H	0.026454	1.343890	0.625532
H90	H	-0.100327	1.717119	0.000030
Cl91	Cl	0.003788	1.329894	0.347020
H92	H	-0.379929	1.825555	-0.000032
Cl93	Cl	-0.015835	1.159512	-0.154529
H94	H	-0.077403	1.297223	0.000012
H95	H	-0.006390	1.587453	0.629266
H96	H	0.102464	1.286203	0.627006
H97	H	0.178205	1.447590	0.626189
H98	H	0.070663	0.892042	-0.246341
