data_functionalizedCrystal
_audit_creation_method	'MofGen! by Chris Wilmer'
_symmetry_space_group_name_H-M	'P1'
_symmetry_Int_Tables_number	1
_symmetry_cell_setting	triclinic
loop_
_symmetry_equiv_pos_as_xyz
  x,y,z
_cell_length_a	17.699077
_cell_length_b	23.532357
_cell_length_c	16.776229
_cell_angle_alpha	89.987808
_cell_angle_beta	89.993415
_cell_angle_gamma	83.054434
loop_
_atom_site_label
_atom_site_type_symbol
_atom_site_fract_x
_atom_site_fract_y
_atom_site_fract_z
O1	O	1.003699	0.072005	-0.066287
O2	O	0.783270	0.081379	-0.066293
O3	O	0.900151	-0.006222	-0.066273
O4	O	0.886818	0.159607	-0.066306
O5	O	0.900136	-0.006228	0.066303
O6	O	0.783255	0.081374	0.066284
O7	O	1.003683	0.072000	0.066289
Zn8	Zn	0.893467	0.076686	0.087336
Zn9	Zn	0.893487	0.076693	-0.087339
O10	O	0.886802	0.159602	0.066270
C11	C	0.755067	0.081041	-0.000005
C12	C	0.671054	0.080035	-0.000006
C13	C	0.899810	-0.027443	0.000017
C14	C	0.898807	-0.090664	0.000025
C15	C	0.631581	0.079558	0.072262
C16	C	0.552643	0.078604	0.072264
C17	C	0.513180	0.078131	-0.000005
C18	C	0.552659	0.078606	-0.072279
C19	C	0.631596	0.079556	-0.072279
C20	C	0.234316	0.074773	-0.072279
C21	C	0.155373	0.073825	-0.072274
C22	C	0.155364	0.073821	0.072263
C23	C	0.234300	0.074771	0.072263
C24	C	0.273773	0.075244	-0.000011
C25	C	0.359366	0.076277	-0.000011
C26	C	0.427587	0.077101	-0.000005
C27	C	0.892521	-0.482690	-0.072286
C28	C	0.891567	-0.542093	-0.072290
O29	O	0.891056	-0.572808	-0.133751
N30	N	0.891086	-0.571808	-0.000024
C31	C	0.891551	-0.542117	0.072252
O32	O	0.891053	-0.572847	0.133720
C33	C	0.892499	-0.482716	0.072256
C34	C	0.892987	-0.453004	-0.000016
C35	C	0.893009	-0.452979	-0.144551
C36	C	0.893963	-0.393581	-0.144546
C37	C	0.894430	-0.363895	-0.072276
C38	C	0.893942	-0.393606	-0.000011
C39	C	0.892958	-0.453026	0.144530
C40	C	0.893905	-0.393620	0.144528
C41	C	0.894394	-0.363909	0.072257
C42	C	0.895363	-0.304522	0.072264
N43	N	0.895844	-0.274807	-0.000002
C44	C	0.895377	-0.304493	-0.072272
C45	C	0.889559	-0.666865	0.072238
C46	C	0.888617	-0.726266	0.072236
C47	C	0.888632	-0.726237	-0.072307
C48	C	0.889580	-0.666835	-0.072303
C49	C	0.890040	-0.637149	-0.000028
C50	C	0.897383	-0.179753	-0.072257
C51	C	0.898341	-0.120350	-0.072245
C52	C	0.898321	-0.120384	0.072297
C53	C	0.897368	-0.179782	0.072286
C54	C	0.896896	-0.209465	0.000003
O55	O	0.895872	-0.273769	0.133694
O56	O	0.895865	-0.273755	-0.133730
C57	C	1.031886	0.072338	-0.000000
C58	C	1.115899	0.073344	-0.000004
C59	C	0.887143	0.180822	-0.000022
C60	C	0.888146	0.244043	-0.000035
N61	N	0.893458	0.076681	0.206547
N62	N	0.893501	0.076694	-0.206551
C63	C	0.945229	0.037907	0.248273
C64	C	0.945233	0.037906	0.331725
C65	C	0.893470	0.076683	0.373450
C66	C	0.841694	0.115459	0.331719
C67	C	0.841686	0.115456	0.248268
C68	C	0.841721	0.115470	0.668266
C69	C	0.841734	0.115471	0.751722
C70	C	0.945268	0.037920	0.751723
C71	C	0.945260	0.037917	0.668272
C72	C	0.893482	0.076691	0.626548
C73	C	0.893477	0.076690	0.536060
C74	C	0.893478	0.076687	0.463937
H75	H	0.663705	0.079948	0.131112
H76	H	0.896977	-0.203975	0.131135
H77	H	0.894358	-0.369394	-0.203397
Cl78	Cl	0.503021	0.078015	0.163120
H79	H	0.266427	0.075160	0.131111
H80	H	0.123216	0.073434	0.131112
H81	H	0.799563	0.147042	0.634301
Cl82	Cl	1.010359	-0.010827	0.804180
H83	H	0.799579	0.147049	0.785694
H84	H	0.888231	-0.750453	0.131086
Cl85	Cl	1.010316	-0.010840	0.384181
H86	H	0.799529	0.147029	0.214296
Cl87	Cl	0.892338	-0.490363	0.235392
Cl88	Cl	0.894484	-0.356305	0.235394
H89	H	0.987384	0.006333	0.214306
Cl90	Cl	0.888039	-0.763567	-0.163162
Cl91	Cl	0.776615	0.164205	0.384171
Cl92	Cl	1.010338	-0.010830	0.615821
H93	H	0.266445	0.075156	-0.131129
Cl94	Cl	0.105763	0.073229	-0.163132
H95	H	0.889977	-0.642648	-0.131153
H96	H	0.520522	0.078217	-0.131121
Cl97	Cl	0.898908	-0.083053	0.163146
H98	H	0.663734	0.079946	-0.131127
Cl99	Cl	0.898957	-0.083002	-0.163107
H100	H	0.892626	-0.477143	-0.203405
Cl101	Cl	0.890145	-0.629552	0.163108
Cl102	Cl	0.896791	-0.217059	-0.163128
