data_functionalizedCrystal
_audit_creation_method	'MofGen! by Chris Wilmer'
_symmetry_space_group_name_H-M	'P1'
_symmetry_Int_Tables_number	1
_symmetry_cell_setting	triclinic
loop_
_symmetry_equiv_pos_as_xyz
  x,y,z
_cell_length_a	8.559649
_cell_length_b	7.681481
_cell_length_c	8.559649
_cell_angle_alpha	94.925366
_cell_angle_beta	110.221336
_cell_angle_gamma	94.918094
loop_
_atom_site_label
_atom_site_type_symbol
_atom_site_fract_x
_atom_site_fract_y
_atom_site_fract_z
O1	O	-2.109648	0.146430	-0.037803
O2	O	-1.634163	0.146430	0.045978
O3	O	-1.913797	0.146429	-0.233655
O4	O	-1.830015	0.146432	0.241830
O5	O	-1.948242	-0.146429	-0.268124
O6	O	-1.668609	-0.146428	0.011509
O7	O	-2.144094	-0.146428	-0.072272
Zn8	Zn	-1.911820	-0.192925	-0.035854
Zn9	Zn	-1.866437	0.192928	0.009560
O10	O	-1.864461	-0.146426	0.207361
C11	C	-1.591077	0.000002	0.035093
C12	C	-1.411378	0.000002	0.053992
N13	N	-1.942805	-0.456260	-0.066850
C14	C	-1.937368	0.000003	-0.311198
C15	C	-1.956266	0.000013	-0.490896
C16	C	-1.187180	0.000002	-0.061387
C17	C	-1.366879	0.000003	-0.080286
N18	N	-1.835466	0.456262	0.040542
C19	C	-1.840889	0.000004	0.284905
C20	C	-1.821989	0.000006	0.464604
H21	H	-1.311988	0.000011	0.183421
H22	H	-2.085696	-0.000002	-0.590286
N23	N	-1.659614	-0.000000	-0.410761
N24	N	-1.575532	-0.123446	-0.418926
H25	H	-1.460849	-0.123450	-0.330895
N26	N	-1.491519	-0.000023	-0.242663
N27	N	-1.449768	-0.000034	-0.368911
H28	H	-1.537804	-0.000055	-0.483595
N29	N	-2.080260	-0.550610	-0.204355
N30	N	-2.099463	-0.715198	-0.223556
H31	H	-2.196538	-0.781845	-0.320675
H32	H	-1.725889	-0.468531	0.150166
