data_functionalizedCrystal
_audit_creation_method	'MofGen! by Chris Wilmer'
_symmetry_space_group_name_H-M	'P1'
_symmetry_Int_Tables_number	1
_symmetry_cell_setting	triclinic
loop_
_symmetry_equiv_pos_as_xyz
  x,y,z
_cell_length_a	12.759401
_cell_length_b	11.169416
_cell_length_c	12.759401
_cell_angle_alpha	90.007472
_cell_angle_beta	90.001690
_cell_angle_gamma	90.010501
loop_
_atom_site_label
_atom_site_type_symbol
_atom_site_fract_x
_atom_site_fract_y
_atom_site_fract_z
Zn1	Zn	1.606113	-0.477982	0.594002
Zn2	Zn	1.606072	-0.678641	0.418331
Zn3	Zn	1.430466	-0.477971	0.418342
Zn4	Zn	1.430417	-0.678622	0.593973
O5	O	1.518267	-0.578304	0.506162
O6	O	1.753129	-0.504612	0.570707
O7	O	1.582781	-0.652024	0.271312
O8	O	1.453804	-0.310022	0.441660
O9	O	1.753099	-0.652035	0.441643
O10	O	1.582851	-0.310031	0.570717
O11	O	1.453765	-0.504593	0.271319
O12	O	1.283439	-0.504575	0.441632
O13	O	1.453720	-0.652004	0.740998
O14	O	1.283402	-0.651993	0.570667
O15	O	1.582803	-0.504594	0.741019
O16	O	1.582733	-0.846588	0.441614
O17	O	1.453680	-0.846574	0.570657
C18	C	1.245300	-0.578282	0.506148
C19	C	1.128523	-0.578301	0.506167
C20	C	1.073670	-0.655185	0.573244
C21	C	0.963946	-0.655200	0.573256
C22	C	0.963938	-0.501445	0.439103
C23	C	1.073660	-0.501425	0.439097
C24	C	1.073673	-0.743957	0.650693
C25	C	0.963949	-0.743973	0.650705
C26	C	1.518225	-0.890129	0.506154
C27	C	1.518304	-1.023529	0.506186
C28	C	1.792300	-0.578327	0.506177
C29	C	1.909077	-0.578337	0.506183
C30	C	1.518260	-0.578298	0.780195
C31	C	1.518257	-0.578296	0.896972
C32	C	1.518338	-0.265262	0.506193
C33	C	1.518368	-0.131862	0.506206
C34	C	1.451092	-0.501538	0.951844
C35	C	1.451093	-0.501549	1.061568
C36	C	1.585435	-0.655080	1.061538
C37	C	1.585428	-0.655074	0.951816
C38	C	1.373534	-0.412894	0.951862
C39	C	1.373535	-0.412905	1.061586
C40	C	1.518266	-0.578330	1.233195
C41	C	1.518267	-0.578313	1.116418
H42	H	1.107702	-0.832194	0.621413
H43	H	1.640124	-0.717589	1.106206
H44	H	1.402701	-0.324601	0.917842
O45	O	1.281405	-0.452649	1.102364
C46	C	1.286859	-0.450295	1.212712
H47	H	1.372390	-0.453737	1.238362
H48	H	1.243269	-0.530869	1.245999
H49	H	1.249330	-0.364378	1.243006
H50	H	0.919255	-0.438854	0.384498
O51	O	1.109085	-0.714564	0.747884
C52	C	1.072185	-0.798985	0.821282
H53	H	0.998793	-0.844304	0.789286
H54	H	1.052619	-0.751661	0.897990
H55	H	1.135303	-0.869251	0.835921
O56	O	1.126783	-0.426690	0.373850
C57	C	1.054828	-0.358823	0.314678
H58	H	0.976615	-0.407992	0.310961
H59	H	1.086526	-0.345847	0.231921
H60	H	1.043159	-0.267751	0.353302
O61	O	0.923230	-0.704605	0.742982
C62	C	0.861095	-0.795549	0.787844
H63	H	0.833876	-0.859689	0.723886
H64	H	0.789944	-0.753749	0.827602
H65	H	0.909218	-0.846747	0.848321
O66	O	0.928532	-0.854908	0.624662
C67	C	0.965437	-0.939029	0.698308
H68	H	1.038836	-0.902620	0.738065
H69	H	0.984993	-1.026498	0.656623
H70	H	0.902327	-0.955992	0.759788
O71	O	1.650767	-0.729680	0.898676
C72	C	1.710035	-0.797461	0.970614
H73	H	1.713692	-0.748308	1.048836
H74	H	1.792807	-0.810278	0.938908
H75	H	1.671533	-0.888606	0.982270
O76	O	1.276487	-0.442796	0.916379
C77	C	1.249647	-0.557755	0.953301
H78	H	1.324087	-0.609602	0.972789
H79	H	1.203809	-0.607607	0.890223
H80	H	1.199341	-0.549015	1.026743
O81	O	1.399447	-0.301936	1.097015
C82	C	1.325695	-0.217926	1.060131
H83	H	1.285973	-0.254382	0.986732
H84	H	1.367273	-0.130385	1.040581
H85	H	1.264203	-0.201079	1.123251
