data_functionalizedCrystal
_audit_creation_method	'MofGen! by Chris Wilmer'
_symmetry_space_group_name_H-M	'P1'
_symmetry_Int_Tables_number	1
_symmetry_cell_setting	triclinic
loop_
_symmetry_equiv_pos_as_xyz
  x,y,z
_cell_length_a	12.759401
_cell_length_b	19.121063
_cell_length_c	19.121307
_cell_angle_alpha	85.035577
_cell_angle_beta	92.440521
_cell_angle_gamma	92.469017
loop_
_atom_site_label
_atom_site_type_symbol
_atom_site_fract_x
_atom_site_fract_y
_atom_site_fract_z
Zn1	Zn	1.613131	-0.297195	0.409716
Zn2	Zn	1.598669	-0.409818	0.297065
Zn3	Zn	1.430307	-0.292171	0.292074
Zn4	Zn	1.430191	-0.414824	0.414694
O5	O	1.518075	-0.353502	0.353387
O6	O	1.758234	-0.312142	0.394778
O7	O	1.570331	-0.390013	0.197942
O8	O	1.460660	-0.194374	0.303507
O9	O	1.747608	-0.394885	0.312014
O10	O	1.594981	-0.198065	0.389938
O11	O	1.446637	-0.303579	0.194274
O12	O	1.283271	-0.308434	0.308334
O13	O	1.460463	-0.403419	0.512495
O14	O	1.283186	-0.398547	0.398422
O15	O	1.594868	-0.316997	0.508837
O16	O	1.570219	-0.508945	0.316841
O17	O	1.446439	-0.512624	0.403262
C18	C	1.245108	-0.353489	0.353377
C19	C	1.128331	-0.353501	0.353390
C20	C	1.073443	-0.400491	0.400228
C21	C	0.963719	-0.400500	0.400236
C22	C	0.963780	-0.306526	0.306562
C23	C	1.073502	-0.306514	0.306558
C24	C	1.128272	-0.447478	0.447060
C25	C	1.073384	-0.494473	0.493901
C26	C	0.963660	-0.494482	0.493909
C27	C	0.908823	-0.447496	0.447076
C28	C	1.506776	-0.536316	0.361149
C29	C	1.502040	-0.614525	0.364493
C30	C	1.564315	-0.649331	0.321107
C31	C	1.559868	-0.722818	0.324256
C32	C	1.493139	-0.761497	0.370789
C33	C	1.430862	-0.726686	0.414180
C34	C	1.435315	-0.653201	0.411034
C35	C	1.476469	-0.983471	0.382541
C36	C	1.472018	-1.056961	0.385682
C37	C	1.601026	-1.053088	0.295759
C38	C	1.605469	-0.979602	0.292614
C39	C	1.543196	-0.944797	0.336008
C40	C	1.488589	-0.836612	0.374008
C41	C	1.547753	-0.869684	0.332792
C42	C	1.792108	-0.353516	0.353398
C43	C	1.908884	-0.353522	0.353402
C44	C	1.529266	-0.361327	0.536910
C45	C	1.534035	-0.364661	0.615116
C46	C	1.529447	-0.169975	0.345610
C47	C	1.534293	-0.091767	0.342296
C48	C	1.564294	-0.385813	1.057533
C49	C	1.559798	-0.382676	0.984050
C50	C	1.493156	-0.336102	0.945406
C51	C	1.430997	-0.292668	0.980250
C52	C	1.435489	-0.295809	1.053733
C53	C	1.476368	-0.324369	0.723442
C54	C	1.471884	-0.321229	0.649955
C55	C	1.600684	-0.411238	0.653760
C56	C	1.605174	-0.414373	0.727243
C57	C	1.543012	-0.370941	0.762081
C58	C	1.488561	-0.332892	0.870294
C59	C	1.547602	-0.374155	0.837192
C60	C	1.506917	-0.345721	1.170579
C61	C	1.502143	-0.342381	1.092372
H62	H	1.618648	-0.617844	0.283212
H63	H	1.434256	-0.868112	0.411893
C64	C	1.133706	-0.546153	0.545415
N65	N	1.179139	-0.585080	0.584216
H66	H	1.384879	-0.260441	1.082097
C67	C	1.408022	-0.945197	0.430312
N68	N	1.356485	-0.916367	0.466309
H69	H	1.376534	-0.758184	0.452071
H70	H	1.610578	-0.751154	0.288926
H71	H	1.601859	-0.412076	0.868658
C72	C	1.678481	-0.465611	0.769746
N73	N	1.733698	-0.504203	0.801759
C74	C	1.669049	-0.459015	0.615433
N75	N	1.720541	-0.495005	0.586565
H76	H	1.659805	-0.948111	0.254724
C77	C	0.903286	-0.546179	0.545431
N78	N	0.857814	-0.585123	0.584236
H79	H	1.434301	-0.294971	0.838823
H80	H	1.417617	-0.283298	0.618493
H81	H	1.217614	-0.447477	0.447057
C82	C	0.903455	-0.254850	0.255046
N83	N	0.858018	-0.215928	0.216241
H84	H	1.384606	-0.624862	0.446365
H85	H	1.425749	-0.289005	0.751798
H86	H	1.651727	-1.081434	0.260432
H87	H	1.610395	-0.418052	0.955688
C88	C	0.788123	-0.447509	0.447088
N89	N	0.697212	-0.447522	0.447094
C90	C	1.133882	-0.254824	0.255032
N91	N	1.179360	-0.215889	0.216222
C92	C	1.398615	-1.099506	0.436879
N93	N	1.343331	-1.131552	0.475439
H94	H	1.376730	-0.254750	0.948781
H95	H	1.602087	-0.838189	0.294908
C96	C	1.637607	-0.437049	1.100035
N97	N	1.692824	-0.475643	1.132045
