data_functionalizedCrystal
_audit_creation_method	'MofGen! by Chris Wilmer'
_symmetry_space_group_name_H-M	'P1'
_symmetry_Int_Tables_number	1
_symmetry_cell_setting	triclinic
loop_
_symmetry_equiv_pos_as_xyz
  x,y,z
_cell_length_a	10.686285
_cell_length_b	10.685909
_cell_length_c	12.759393
_cell_angle_alpha	85.642026
_cell_angle_beta	85.601950
_cell_angle_gamma	98.371764
loop_
_atom_site_label
_atom_site_type_symbol
_atom_site_fract_x
_atom_site_fract_y
_atom_site_fract_z
Zn1	Zn	-0.653925	-1.979342	-0.425732
Zn2	Zn	-0.866209	-1.995528	-0.235485
Zn3	Zn	-0.637729	-1.767087	-0.264676
Zn4	Zn	-0.849857	-1.783373	-0.425735
O5	O	-0.751930	-1.881333	-0.337907
O6	O	-0.695707	-2.159107	-0.388278
O7	O	-0.835966	-1.965183	-0.092335
O8	O	-0.462259	-1.781653	-0.298256
O9	O	-0.851671	-2.170998	-0.248504
O10	O	-0.474159	-1.937596	-0.416583
O11	O	-0.668102	-1.797348	-0.113782
O12	O	-0.652246	-1.591630	-0.298259
O13	O	-0.823801	-1.809411	-0.572757
O14	O	-0.808096	-1.603596	-0.416588
O15	O	-0.679851	-1.953389	-0.572755
O16	O	-1.041658	-1.980975	-0.248507
O17	O	-1.029644	-1.825106	-0.388282
C18	C	-0.726640	-1.551559	-0.360592
C19	C	-0.715851	-1.410482	-0.370319
C20	C	-1.081708	-1.906599	-0.315248
C21	C	-1.222797	-1.917524	-0.305581
C22	C	-0.420867	-1.856002	-0.360676
C23	C	-0.279787	-1.845208	-0.370378
C24	C	-0.751808	-1.881411	-0.611943
C25	C	-0.751757	-1.881445	-0.728721
C26	C	-0.777308	-1.212393	-0.315128
C27	C	-0.788094	-1.353470	-0.305404
C28	C	-0.664337	-1.794081	-0.794749
C29	C	-0.664301	-1.794108	-0.904474
C30	C	-0.839107	-1.968873	-0.882133
C31	C	-0.839148	-1.968839	-0.772410
C32	C	-0.751965	-1.881320	-0.064938
C33	C	-0.751678	-1.881505	0.051831
H34	H	-0.858202	-1.412586	-0.242394
H35	H	-1.220643	-1.774938	-0.433251
C36	C	-1.302696	-2.012456	-0.220632
C37	C	-1.448503	-2.023617	-0.210744
C38	C	-1.528401	-2.118547	-0.125797
C39	C	-1.462491	-2.202317	-0.050736
C40	C	-1.316676	-2.191160	-0.060621
C41	C	-1.236778	-2.096230	-0.145569
H42	H	-1.497300	-1.961602	-0.266311
H43	H	-1.636343	-2.126806	-0.118480
H44	H	-1.521636	-2.272591	0.012147
H45	H	-1.267879	-2.253174	-0.005054
H46	H	-1.128836	-2.087971	-0.152886
C47	C	-0.568220	-1.697941	-0.746689
C48	C	-0.472811	-1.745288	-0.674334
C49	C	-0.376694	-1.649141	-0.626278
C50	C	-0.375986	-1.505647	-0.650577
C51	C	-0.471398	-1.458293	-0.722936
C52	C	-0.567515	-1.554440	-0.770992
H53	H	-0.473332	-1.851517	-0.656343
H54	H	-0.306064	-1.684196	-0.572713
H55	H	-0.304835	-1.434474	-0.615003
H56	H	-0.470877	-1.352064	-0.740927
H57	H	-0.638145	-1.519384	-0.824557
H58	H	-0.645750	-1.351360	-0.433342
C59	C	-0.568132	-1.698010	-0.977104
C60	C	-0.567415	-1.554505	-0.971224
C61	C	-0.471242	-1.458402	-1.043853
C62	C	-0.375787	-1.505803	-1.122362
C63	C	-0.376501	-1.649315	-1.128245
C64	C	-0.472674	-1.745419	-1.055615
H65	H	-0.638079	-1.519410	-0.913104
H66	H	-0.470714	-1.352165	-1.039498
H67	H	-0.304595	-1.434662	-1.176126
H68	H	-0.305837	-1.684411	-1.186364
H69	H	-0.473202	-1.851656	-1.059971
H70	H	-0.910257	-2.040027	-0.917717
H71	H	-0.910341	-2.039985	-0.718647
