data_functionalizedCrystal
_audit_creation_method	'MofGen! by Chris Wilmer'
_symmetry_space_group_name_H-M	'P1'
_symmetry_Int_Tables_number	1
_symmetry_cell_setting	triclinic
loop_
_symmetry_equiv_pos_as_xyz
  x,y,z
_cell_length_a	12.827893
_cell_length_b	16.625546
_cell_length_c	12.827885
_cell_angle_alpha	89.964876
_cell_angle_beta	89.980728
_cell_angle_gamma	90.022439
loop_
_atom_site_label
_atom_site_type_symbol
_atom_site_fract_x
_atom_site_fract_y
_atom_site_fract_z
Zn1	Zn	1.597618	-0.320963	-0.590810
Zn2	Zn	2.097618	0.179037	-0.090810
Zn3	Zn	1.597491	-0.455817	-0.416054
Zn4	Zn	2.097491	0.044183	0.083946
Zn5	Zn	1.422860	-0.321002	-0.416084
Zn6	Zn	1.922860	0.178998	0.083916
Zn7	Zn	1.422823	-0.455757	-0.590754
Zn8	Zn	1.922823	0.044243	-0.090754
O9	O	1.510198	-0.388385	-0.503425
O10	O	2.010198	0.111615	-0.003425
O11	O	1.743837	-0.338861	-0.567639
O12	O	2.243837	0.161139	-0.067639
O13	O	1.574287	-0.437976	-0.269822
O14	O	2.074287	0.062024	0.230178
O15	O	1.446110	-0.208165	-0.439297
O16	O	1.946110	0.291835	0.060703
O17	O	1.743744	-0.437937	-0.439247
O18	O	2.243744	0.062063	0.060753
O19	O	1.574505	-0.208136	-0.567668
O20	O	2.074505	0.291864	-0.067668
O21	O	1.445987	-0.338928	-0.269843
O22	O	1.945987	0.161072	0.230157
O23	O	1.276619	-0.338869	-0.439243
O24	O	1.776619	0.161131	0.060757
O25	O	1.446048	-0.437835	-0.736997
O26	O	1.946048	0.062165	-0.236997
O27	O	1.276592	-0.437873	-0.567572
O28	O	1.776592	0.062127	-0.067572
O29	O	1.574469	-0.338802	-0.737039
O30	O	2.074469	0.161198	-0.237039
O31	O	1.574252	-0.568642	-0.439192
O32	O	2.074252	-0.068642	0.060808
O33	O	1.445925	-0.568598	-0.567544
O34	O	1.945925	-0.068598	-0.067544
C35	C	1.238688	-0.388370	-0.503405
C36	C	1.738688	0.111630	-0.003405
C37	C	1.122535	-0.388382	-0.503422
C38	C	1.622535	0.111618	-0.003422
C39	C	1.510099	-0.597876	-0.503382
C40	C	2.010099	-0.097876	-0.003382
C41	C	1.510152	-0.687497	-0.503398
C42	C	2.010152	-0.187497	-0.003398
C43	C	1.070765	-0.437449	-0.566825
C44	C	1.570765	0.062551	-0.066825
C45	C	0.950714	-0.437464	-0.566844
C46	C	1.450714	0.062536	-0.066844
C47	C	1.510335	-1.015673	-0.503507
C48	C	2.010335	-0.515673	-0.003507
C49	C	1.510281	-0.924364	-0.503479
C50	C	2.010281	-0.424364	-0.003479
C51	C	1.510243	-0.851588	-0.503452
C52	C	2.010243	-0.351588	-0.003452
C53	C	1.510190	-0.760274	-0.503425
C54	C	2.010190	-0.260274	-0.003425
C55	C	1.782768	-0.388401	-0.503446
C56	C	2.282768	0.111599	-0.003446
C57	C	1.898921	-0.388408	-0.503455
C58	C	2.398921	0.111592	-0.003455
C59	C	1.510269	-0.388308	-0.775996
C60	C	2.010269	0.111692	-0.275996
C61	C	1.510299	-0.388275	-0.892149
C62	C	2.010299	0.111725	-0.392149
C63	C	1.510326	-0.178076	-0.503492
C64	C	2.010326	0.321924	-0.003492
C65	C	1.510380	-0.088455	-0.503521
C66	C	2.010380	0.411545	-0.003521
C67	C	1.446806	-0.437224	-1.063958
C68	C	1.946806	0.062776	-0.563958
C69	C	1.446773	-0.437259	-0.943907
C70	C	1.946773	0.062741	-0.443907
C71	C	1.510187	-0.388404	-0.231915
C72	C	2.010187	0.111596	0.268085
C73	C	1.510359	-0.388210	-0.115763
C74	C	2.010359	0.111790	0.384237
H75	H	1.115319	-0.479444	-0.621098
H76	H	1.615319	0.020556	-0.121098
H77	H	1.564716	-0.346312	-0.936693
H78	H	2.064716	0.153688	-0.436693
C79	C	0.891491	-0.493431	-0.639400
C80	C	1.391491	0.006569	-0.139400
C81	C	0.918041	-0.475993	-0.742853
C82	C	1.418041	0.024007	-0.242853
C83	C	0.863513	-0.527541	-0.809723
C84	C	1.363513	-0.027541	-0.309723
H85	H	0.818678	-0.486046	-0.629933
H86	H	1.318678	0.013954	-0.129933
H87	H	0.909324	-0.547617	-0.624060
H88	H	1.409324	-0.047617	-0.124060
H89	H	0.900201	-0.421820	-0.758188
H90	H	1.400201	0.078180	-0.258188
H91	H	0.990845	-0.483383	-0.752353
H92	H	1.490845	0.016617	-0.252353
H93	H	0.881346	-0.581728	-0.794383
H94	H	1.381346	-0.081728	-0.294383
H95	H	0.790702	-0.520152	-0.800247
H96	H	1.290702	-0.020152	-0.300247
H97	H	0.881526	-0.515722	-0.879922
H98	H	1.381526	-0.015722	-0.379922
H99	H	1.392416	-0.479158	-1.108482
H100	H	1.892416	0.020842	-0.608482
C101	C	1.063327	-0.332292	-0.431016
C102	C	1.563327	0.167708	0.068984
C103	C	1.134354	-0.287008	-0.372535
C104	C	1.634354	0.212992	0.127465
C105	C	1.079852	-0.235320	-0.305832
C106	C	1.579852	0.264680	0.194168
H107	H	1.020710	-0.363039	-0.385365
H108	H	1.520710	0.136961	0.114635
H109	H	1.020802	-0.297187	-0.471095
H110	H	1.520802	0.202813	0.028905
H111	H	1.176861	-0.322108	-0.332459
H112	H	1.676861	0.177892	0.167541
H113	H	1.176972	-0.256244	-0.418158
H114	H	1.676972	0.243756	0.081842
H115	H	1.037328	-0.200215	-0.345911
H116	H	1.537328	0.299785	0.154089
H117	H	1.037238	-0.266073	-0.260189
H118	H	1.537238	0.233927	0.239811
H119	H	1.128036	-0.204583	-0.266152
H120	H	1.628036	0.295417	0.233848
C121	C	1.374390	-0.493263	-0.884375
C122	C	1.874390	0.006737	-0.384375
C123	C	1.433573	-0.544906	-0.821684
C124	C	1.933573	-0.044906	-0.321684
C125	C	1.366929	-0.596501	-0.766815
C126	C	1.866929	-0.096501	-0.266815
H127	H	1.334513	-0.524069	-0.932298
H128	H	1.834513	-0.024069	-0.432298
H129	H	1.328922	-0.462421	-0.841740
H130	H	1.828922	0.037579	-0.341740
H131	H	1.479022	-0.575745	-0.864316
H132	H	1.979022	-0.075745	-0.364316
H133	H	1.473448	-0.514122	-0.773742
H134	H	1.973448	-0.014122	-0.273742
H135	H	1.321461	-0.565659	-0.724179
H136	H	1.821461	-0.065659	-0.224179
H137	H	1.327055	-0.627302	-0.814745
H138	H	1.827055	-0.127302	-0.314745
H139	H	1.407073	-0.631542	-0.724265
H140	H	1.907073	-0.131542	-0.224265
C141	C	1.582709	-0.332236	-1.056277
C142	C	2.082709	0.167764	-0.556277
C143	C	1.523491	-0.280627	-0.993613
C144	C	2.023491	0.219373	-0.493613
C145	C	1.590104	-0.229055	-0.938794
C146	C	2.090104	0.270945	-0.438794
H147	H	1.622607	-0.301403	-1.104229
H148	H	2.122607	0.198597	-0.604229
H149	H	1.628159	-0.363097	-1.013627
H150	H	2.128159	0.136903	-0.513627
H151	H	1.478060	-0.249769	-1.036259
H152	H	1.978060	0.250231	-0.536259
H153	H	1.483596	-0.311437	-0.945641
H154	H	1.983596	0.188563	-0.445641
H155	H	1.635554	-0.259917	-0.896144
H156	H	2.135554	0.240083	-0.396144
H157	H	1.629999	-0.198229	-0.986755
H158	H	2.129999	0.301771	-0.486755
H159	H	1.549936	-0.194038	-0.896264
H160	H	2.049936	0.305962	-0.396264
H161	H	0.943436	-0.346401	-0.449166
H162	H	1.443436	0.153599	0.050834
