data_functionalizedCrystal
_audit_creation_method	'MofGen! by Chris Wilmer'
_symmetry_space_group_name_H-M	'P1'
_symmetry_Int_Tables_number	1
_symmetry_cell_setting	triclinic
loop_
_symmetry_equiv_pos_as_xyz
  x,y,z
_cell_length_a	10.654550
_cell_length_b	14.519709
_cell_length_c	9.730223
_cell_angle_alpha	89.997715
_cell_angle_beta	89.996251
_cell_angle_gamma	84.082524
loop_
_atom_site_label
_atom_site_type_symbol
_atom_site_fract_x
_atom_site_fract_y
_atom_site_fract_z
O1	O	1.666589	0.129528	-0.114406
O2	O	1.300991	0.141869	-0.114384
O3	O	1.493483	0.001510	-0.114384
O4	O	1.474097	0.269887	-0.114407
O5	O	1.493481	0.001514	0.114196
O6	O	1.300989	0.141873	0.114195
O7	O	1.666586	0.129532	0.114174
Zn8	Zn	1.483787	0.135703	0.150477
Zn9	Zn	1.483790	0.135698	-0.150687
O10	O	1.474094	0.269890	0.114173
C11	C	1.254201	0.140965	-0.000092
C12	C	1.114784	0.138254	-0.000083
C13	C	1.034504	0.220895	-0.000110
C14	C	0.903507	0.218342	-0.000134
C15	C	0.933085	0.050500	-0.000108
C16	C	1.064078	0.053054	-0.000075
C17	C	1.017426	0.317797	-0.000131
C18	C	0.886430	0.315244	-0.000154
C19	C	1.492579	-0.032852	-0.000093
C20	C	1.489871	-0.135247	-0.000092
C21	C	1.479904	-0.510195	-0.000127
C22	C	1.482672	-0.405873	-0.000117
C23	C	1.484887	-0.322725	-0.000109
C24	C	1.487656	-0.218396	-0.000101
C25	C	1.713377	0.130436	-0.000122
C26	C	1.852794	0.133147	-0.000140
C27	C	1.474999	0.304253	-0.000120
C28	C	1.477707	0.406648	-0.000130
N29	N	1.483795	0.135705	0.356013
N30	N	1.483793	0.135688	-0.356224
C31	C	1.569052	0.073576	0.427939
C32	C	1.569048	0.073565	0.571822
C33	C	1.398527	0.197821	0.571840
C34	C	1.398525	0.197827	0.427959
C35	C	1.667505	0.001840	0.427931
C36	C	1.667502	0.001829	0.571814
H37	H	0.891784	-0.018867	-0.000123
O38	O	1.776012	0.028527	0.374483
C39	C	1.958408	-0.013150	0.232578
C40	C	1.835561	-0.043503	0.293007
H41	H	2.006602	-0.071378	0.166715
H42	H	1.935565	0.051266	0.166560
H43	H	2.024051	0.003116	0.319817
H44	H	1.769860	-0.059819	0.205856
H45	H	1.858498	-0.107890	0.359061
H46	H	1.046392	0.355697	0.095532
O47	O	1.631723	-0.078088	0.624882
C48	C	1.468223	-0.180582	0.640383
C49	C	1.508579	-0.090062	0.580174
H50	H	1.368648	-0.190282	0.604283
H51	H	1.536180	-0.241533	0.604141
H52	H	1.469942	-0.176909	0.757393
H53	H	1.506852	-0.093643	0.463163
H54	H	1.440614	-0.029148	0.616523
H55	H	1.329102	0.248398	0.630434
O56	O	1.642563	-0.082643	0.381179
C57	C	1.503754	-0.168623	0.247984
C58	C	1.531879	-0.072893	0.300805
H59	H	1.414252	-0.160775	0.183015
H60	H	1.586182	-0.200102	0.182798
H61	H	1.489964	-0.215878	0.339132
H62	H	1.545643	-0.025567	0.209740
H63	H	1.449437	-0.041489	0.366033
O64	O	1.782508	0.020725	0.618173
C65	C	1.992110	0.055039	0.558085
C66	C	1.861921	0.033674	0.505397
H67	H	2.056360	0.065495	0.466933
H68	H	1.980863	0.120674	0.623135
H69	H	2.035516	-0.005309	0.623210
H70	H	1.818442	0.093964	0.440216
H71	H	1.873250	-0.031992	0.440422
H72	H	1.052786	0.348651	-0.098821
H73	H	0.840476	0.344531	0.098527
O74	O	0.836426	0.358796	-0.114383
C75	C	0.876908	0.440823	-0.322389
C76	C	0.933706	0.391508	-0.193110
H77	H	0.955528	0.467302	-0.386061
H78	H	0.826438	0.390104	-0.386279
H79	H	0.806683	0.501635	-0.290476
H80	H	1.003981	0.330700	-0.224901
H81	H	0.984097	0.442288	-0.129252
O82	O	1.315651	0.258261	0.358302
C83	C	1.146449	0.381455	0.373509
C84	C	1.240261	0.313076	0.452566
H85	H	1.085455	0.425778	0.449687
H86	H	1.200687	0.427971	0.306181
H87	H	1.083694	0.341186	0.306116
H88	H	1.303040	0.353270	0.520033
H89	H	1.185945	0.266560	0.519808
H90	H	1.129439	-0.014241	-0.000033
