data_functionalizedCrystal
_audit_creation_method	'MofGen! by Chris Wilmer'
_symmetry_space_group_name_H-M	'P1'
_symmetry_Int_Tables_number	1
_symmetry_cell_setting	triclinic
loop_
_symmetry_equiv_pos_as_xyz
  x,y,z
_cell_length_a	9.065218
_cell_length_b	10.489741
_cell_length_c	8.140239
_cell_angle_alpha	89.996756
_cell_angle_beta	89.997198
_cell_angle_gamma	84.777530
loop_
_atom_site_label
_atom_site_type_symbol
_atom_site_fract_x
_atom_site_fract_y
_atom_site_fract_z
O1	O	1.959494	0.187043	-0.136617
O2	O	1.530135	0.202385	-0.136619
O3	O	1.754585	0.009151	-0.136608
O4	O	1.735045	0.380276	-0.136628
O5	O	1.754572	0.009149	0.136619
O6	O	1.530123	0.202383	0.136608
O7	O	1.959482	0.187040	0.136610
Zn8	Zn	1.744800	0.194711	0.179990
Zn9	Zn	1.744817	0.194714	-0.179999
O10	O	1.735032	0.380274	0.136599
C11	C	1.475149	0.200909	-0.000006
C12	C	1.311328	0.196501	-0.000006
C13	C	1.753102	-0.038387	0.000004
C14	C	1.748687	-0.180032	0.000001
C15	C	1.605877	-0.248688	-0.000011
C16	C	1.673333	-0.340568	0.134704
C17	C	1.673379	-0.340540	-0.134676
C18	C	1.816202	-0.270047	0.134828
C19	C	1.816228	-0.270009	-0.134673
C20	C	1.883788	-0.361862	0.000075
C21	C	2.014467	0.188516	-0.000007
C22	C	2.178289	0.192925	-0.000017
C23	C	1.736514	0.427812	-0.000017
C24	C	1.740930	0.569458	-0.000025
N25	N	1.744800	0.194708	0.425672
N26	N	1.744829	0.194707	-0.425681
H27	H	1.612901	-0.371799	0.248596
C28	C	2.042550	-0.428065	0.000164
C29	C	2.148492	-0.404953	0.142780
C30	C	2.307251	-0.471157	0.142876
C31	C	2.360070	-0.560473	0.000356
C32	C	2.254127	-0.583589	-0.142271
C33	C	2.095367	-0.517385	-0.142367
H34	H	2.109394	-0.338832	0.248291
H35	H	2.385677	-0.454044	0.248458
H36	H	2.477593	-0.609481	0.000426
H37	H	2.293224	-0.649710	-0.247782
H38	H	2.016941	-0.534498	-0.247949
H39	H	1.488459	-0.199461	0.000124
H40	H	1.612940	-0.371722	-0.248579
C41	C	1.897800	-0.227762	-0.288537
C42	C	2.059781	-0.279619	-0.319792
C43	C	2.141339	-0.237368	-0.473671
C44	C	2.060915	-0.143258	-0.596296
C45	C	1.898924	-0.091395	-0.565045
C46	C	1.817367	-0.133647	-0.411165
H47	H	2.119324	-0.349289	-0.229014
H48	H	2.261255	-0.275761	-0.496805
H49	H	2.121288	-0.111981	-0.710207
H50	H	1.839382	-0.021725	-0.655822
H51	H	1.697450	-0.095254	-0.388032
H52	H	1.876571	-0.238998	0.248847
