data_functionalizedCrystal
_audit_creation_method	'MofGen! by Chris Wilmer'
_symmetry_space_group_name_H-M	'P1'
_symmetry_Int_Tables_number	1
_symmetry_cell_setting	triclinic
loop_
_symmetry_equiv_pos_as_xyz
  x,y,z
_cell_length_a	16.974897
_cell_length_b	16.053789
_cell_length_c	16.992695
_cell_angle_alpha	87.278479
_cell_angle_beta	92.972799
_cell_angle_gamma	96.538804
loop_
_atom_site_label
_atom_site_type_symbol
_atom_site_fract_x
_atom_site_fract_y
_atom_site_fract_z
O1	O	1.061874	0.141104	-0.105972
O2	O	0.831767	0.125574	-0.118029
O3	O	0.945897	0.133270	0.002144
O4	O	0.947743	0.133408	-0.226145
O5	O	0.939548	-0.006018	0.008056
O6	O	0.825417	-0.013714	-0.112117
O7	O	1.055524	0.001816	-0.100060
Zn8	Zn	0.939462	-0.028064	-0.105150
Zn9	Zn	0.947828	0.155454	-0.112939
O10	O	0.941393	-0.005880	-0.220233
C11	C	0.799012	0.053934	-0.114503
C12	C	0.710874	0.047985	-0.112794
C13	C	0.672920	0.121110	-0.115215
C14	C	0.590103	0.115509	-0.113621
C15	C	0.545242	0.036781	-0.109600
C16	C	0.583201	-0.036350	-0.107181
C17	C	0.666016	-0.030747	-0.108781
C18	C	0.297191	0.011884	-0.104476
C19	C	0.214371	0.006287	-0.102874
C20	C	0.221278	0.158146	-0.109316
C21	C	0.304095	0.163741	-0.110911
C22	C	0.342046	0.090611	-0.108495
N23	N	0.460590	0.031054	-0.107968
N24	N	0.426697	0.096339	-0.110133
N25	N	0.933758	-0.153310	-0.099833
C26	C	0.982876	-0.193683	-0.145653
C27	C	0.978897	-0.281359	-0.141929
C28	C	0.925795	-0.328660	-0.092389
C29	C	0.876675	-0.288282	-0.046563
C30	C	0.880659	-0.200607	-0.050284
C31	C	0.908402	-0.591246	-0.076145
C32	C	0.904420	-0.678927	-0.072430
C33	C	1.006643	-0.671997	-0.167795
C34	C	1.010619	-0.584322	-0.171514
C35	C	0.961503	-0.543950	-0.125686
N36	N	0.921724	-0.418279	-0.088583
N37	N	0.965578	-0.454333	-0.129488
C38	C	1.088278	0.073458	-0.103587
C39	C	1.176417	0.079412	-0.105296
C40	C	0.940349	0.063466	0.034317
C41	C	0.933268	0.062988	0.121374
N42	N	0.953538	0.280701	-0.118250
C43	C	0.946941	0.063926	-0.252406
C44	C	0.954023	0.064409	-0.339464
C45	C	1.001593	0.067599	0.171489
C46	C	0.994935	0.067157	0.253287
C47	C	0.919951	0.062100	0.284970
C48	C	0.851621	0.057491	0.234849
C49	C	0.858280	0.057939	0.153051
C50	C	0.892352	0.060248	0.528618
C51	C	0.885698	0.059799	0.610422
C52	C	1.029012	0.069466	0.628855
C53	C	1.035665	0.069908	0.547055
C54	C	0.967335	0.065305	0.496941
N55	N	0.913143	0.061646	0.368581
N56	N	0.974143	0.065765	0.413331
H57	H	0.696917	-0.090294	-0.106812
C58	C	0.825129	-0.425757	0.001441
C59	C	0.818301	-0.340272	0.007892
H60	H	0.789085	-0.457849	0.035056
H61	H	0.877805	-0.436547	0.016468
H62	H	0.813113	-0.440851	-0.051578
H63	H	0.830322	-0.325176	0.060910
H64	H	0.765613	-0.329476	-0.007131
C65	C	0.811859	0.054809	0.727629
C66	C	0.803270	0.054238	0.645250
H67	H	0.760974	0.051368	0.749129
H68	H	0.842421	0.105290	0.742754
H69	H	0.837997	0.008144	0.746873
H70	H	0.777137	0.100906	0.626005
H71	H	0.772696	0.003751	0.630118
H72	H	0.840662	-0.167737	-0.012972
C73	C	1.094327	-0.087843	-0.155000
C74	C	1.041246	-0.141690	-0.200111
H75	H	1.130360	-0.055743	-0.188622
H76	H	1.122984	-0.120004	-0.117546
H77	H	1.065635	-0.051253	-0.128248
H78	H	1.069938	-0.178285	-0.226858
H79	H	1.012587	-0.109526	-0.237579
H80	H	0.802643	0.054185	0.112248
H81	H	1.096724	0.074027	0.521266
H82	H	1.018895	-0.314226	-0.179239
C83	C	1.067314	0.000668	0.359026
C84	C	1.070035	0.072227	0.308380
H85	H	1.113678	0.003804	0.393041
H86	H	1.064724	-0.047925	0.328801
H87	H	1.021698	-0.002397	0.389592
H88	H	1.115648	0.075288	0.277808
H89	H	1.072633	0.120832	0.338607
C90	C	0.750025	0.050628	0.518627
C91	C	0.817244	0.055172	0.473540
H92	H	0.703655	0.047486	0.484620
H93	H	0.752621	0.099226	0.548845
H94	H	0.748207	0.002080	0.552984
H95	H	0.819065	0.103723	0.439187
H96	H	0.814648	0.006569	0.443308
H97	H	0.340616	0.227850	-0.114179
H98	H	1.062652	0.071712	0.145700
C99	C	0.671420	0.270652	-0.121436
C100	C	0.722227	0.207652	-0.119641
H101	H	0.701859	0.324079	-0.124176
H102	H	0.642127	0.265522	-0.074989
H103	H	0.635824	0.265086	-0.166369
H104	H	0.757819	0.213213	-0.074704
H105	H	0.751533	0.212784	-0.166092
C106	C	1.082443	0.073082	0.762428
C107	C	1.104117	0.074538	0.683941
H108	H	1.128814	0.076221	0.796435
H109	H	1.049705	0.022451	0.774110
H110	H	1.054122	0.119596	0.769972
H111	H	1.132433	0.028020	0.676397
H112	H	1.136869	0.125175	0.672256
H113	H	0.790568	0.053378	0.260651
H114	H	0.559205	0.175055	-0.115593
C115	C	0.282034	-0.138782	-0.097941
C116	C	0.338901	-0.068501	-0.101814
H117	H	0.307788	-0.188409	-0.096292
H118	H	0.246730	-0.138016	-0.143137
H119	H	0.253025	-0.137589	-0.051757
H120	H	0.367906	-0.069690	-0.148001
H121	H	0.374219	-0.069267	-0.056613
C122	C	0.236425	0.308812	-0.115850
C123	C	0.179560	0.238528	-0.111981
H124	H	0.210669	0.358438	-0.117494
H125	H	0.265435	0.307624	-0.162025
H126	H	0.271730	0.308044	-0.070645
H127	H	0.144259	0.239292	-0.157190
H128	H	0.150537	0.239717	-0.065801
H129	H	0.177845	-0.057826	-0.099622
H130	H	1.053863	-0.545814	-0.211853
C131	C	0.490709	-0.130440	-0.034288
C132	C	0.533892	-0.122890	-0.102760
H133	H	0.460273	-0.183870	-0.031557
H134	H	0.456254	-0.087697	-0.035507
H135	H	0.526317	-0.124888	0.010637
H136	H	0.498284	-0.128436	-0.147686
H137	H	0.568350	-0.165645	-0.101549
C138	C	0.863741	-0.708613	0.060169
C139	C	0.846049	-0.730922	-0.017967
H140	H	0.827708	-0.740716	0.093788
H141	H	0.859082	-0.650627	0.064510
H142	H	0.916430	-0.719380	0.075204
H143	H	0.793361	-0.720149	-0.033003
H144	H	0.850701	-0.788921	-0.022311
C145	C	0.774819	-0.573416	-0.046191
C146	C	0.854394	-0.546891	-0.025780
H147	H	0.741472	-0.546031	-0.015100
H148	H	0.764866	-0.632396	-0.036893
H149	H	0.764150	-0.559797	-0.100422
H150	H	0.865065	-0.560516	0.028450
H151	H	0.864352	-0.487898	-0.035072
C152	C	1.044878	-0.696311	-0.298095
C153	C	1.060636	-0.716376	-0.218161
H154	H	1.078212	-0.723713	-0.329186
H155	H	1.054851	-0.637333	-0.307393
H156	H	0.990884	-0.714294	-0.311916
H157	H	1.114629	-0.698387	-0.204338
H158	H	1.050669	-0.775366	-0.208857
