data_functionalizedCrystal
_audit_creation_method	'MofGen! by Chris Wilmer'
_symmetry_space_group_name_H-M	'P1'
_symmetry_Int_Tables_number	1
_symmetry_cell_setting	triclinic
loop_
_symmetry_equiv_pos_as_xyz
  x,y,z
_cell_length_a	15.297475
_cell_length_b	21.295417
_cell_length_c	21.295411
_cell_angle_alpha	90.028718
_cell_angle_beta	99.680691
_cell_angle_gamma	80.332118
loop_
_atom_site_label
_atom_site_type_symbol
_atom_site_fract_x
_atom_site_fract_y
_atom_site_fract_z
Zn1	Zn	1.379104	-0.417437	0.522140
Zn2	Zn	1.879104	0.082563	1.022140
Zn3	Zn	1.378985	-0.522687	0.416852
Zn4	Zn	1.878985	-0.022687	0.916852
Zn5	Zn	1.228250	-0.399205	0.398703
Zn6	Zn	1.728250	0.100795	0.898703
Zn7	Zn	1.228185	-0.504419	0.503907
Zn8	Zn	1.728185	-0.004419	1.003907
O9	O	1.303631	-0.460937	0.460400
O10	O	1.803631	0.039063	0.960400
O11	O	1.505331	-0.446674	0.523400
O12	O	2.005331	0.053326	1.023400
O13	O	1.358968	-0.506322	0.326352
O14	O	1.858968	-0.006322	0.826352
O15	O	1.248338	-0.313543	0.415112
O16	O	1.748338	0.186457	0.915112
O17	O	1.505244	-0.524001	0.446045
O18	O	2.005244	-0.024001	0.946045
O19	O	1.359170	-0.326938	0.505802
O20	O	1.859170	0.173062	1.005802
O21	O	1.248223	-0.415600	0.313018
O22	O	1.748223	0.084400	0.813018
O23	O	1.101999	-0.397886	0.397432
O24	O	1.601999	0.102114	0.897432
O25	O	1.248227	-0.492865	0.594418
O26	O	1.748227	0.007135	1.094418
O27	O	1.101951	-0.475186	0.474725
O28	O	1.601951	0.024814	0.974725
O29	O	1.359106	-0.428960	0.607814
O30	O	1.859106	0.071040	1.107814
O31	O	1.358904	-0.608344	0.428364
O32	O	1.858904	-0.108344	0.928364
O33	O	1.248112	-0.594922	0.492323
O34	O	1.748112	-0.094922	0.992323
C35	C	1.069241	-0.432576	0.432131
C36	C	1.569241	0.067424	0.932131
C37	C	0.968968	-0.420458	0.420052
C38	C	1.468968	0.079542	0.920052
C39	C	0.686315	-0.547549	0.546732
C40	C	1.186315	-0.047549	1.046732
C41	C	0.780527	-0.558939	0.558079
C42	C	1.280527	-0.058939	1.058079
C43	C	0.827642	-0.524320	0.523573
C44	C	1.327642	-0.024320	1.023573
C45	C	0.780536	-0.478309	0.477718
C46	C	1.280536	0.021691	0.977718
C47	C	0.686315	-0.466921	0.466367
C48	C	1.186315	0.033079	0.966367
C49	C	0.827642	-0.443692	0.443208
C50	C	1.327642	0.056308	0.943208
C51	C	0.780536	-0.397680	0.397353
C52	C	1.280536	0.102320	0.897353
C53	C	0.686324	-0.386295	0.386004
C54	C	1.186324	0.113705	0.886004
C55	C	0.639209	-0.420914	0.420509
C56	C	1.139209	0.079086	0.920509
C57	C	0.921862	-0.455079	0.454560
C58	C	1.421862	0.044921	0.954560
C59	C	0.921862	-0.374451	0.374194
C60	C	1.421862	0.125549	0.874194
C61	C	0.827651	-0.363061	0.362847
C62	C	1.327651	0.136939	0.862847
C63	C	1.303513	-0.624474	0.460351
C64	C	1.803513	-0.124474	0.960351
C65	C	1.303545	-0.694446	0.460361
C66	C	1.803545	-0.194446	0.960361
C67	C	1.361286	-0.734287	0.427105
C68	C	1.861286	-0.234287	0.927105
C69	C	1.361328	-0.800034	0.427124
C70	C	1.861328	-0.300034	0.927124
C71	C	1.303613	-0.825937	0.460391
C72	C	1.803613	-0.325937	0.960391
C73	C	1.245868	-0.786088	0.493655
C74	C	1.745868	-0.286088	0.993655
C75	C	1.245834	-0.720342	0.493640
C76	C	1.745834	-0.220342	0.993640
N77	N	1.224694	-0.919658	0.455672
N78	N	1.724694	-0.419658	0.955672
N79	N	1.224729	-0.982113	0.455683
N80	N	1.724729	-0.482113	0.955683
C81	C	1.303714	-1.024024	0.460439
C82	C	1.803714	-0.524024	0.960439
N83	N	1.382665	-1.001119	0.465173
N84	N	1.882665	-0.501119	0.965173
N85	N	1.382628	-0.938658	0.465159
N86	N	1.882628	-0.438658	0.965159
C87	C	1.303644	-0.897226	0.460411
C88	C	1.803644	-0.397226	0.960411
C89	C	1.361506	-1.135156	0.427203
C90	C	1.861506	-0.635156	0.927203
C91	C	1.361550	-1.200905	0.427227
C92	C	1.861550	-0.700905	0.927227
C93	C	1.246082	-1.186956	0.493752
C94	C	1.746082	-0.686956	0.993752
C95	C	1.246046	-1.121209	0.493733
C96	C	1.746046	-0.621209	0.993733
C97	C	1.303757	-1.095313	0.460454
C98	C	1.803757	-0.595313	0.960454
C99	C	1.538936	-0.489409	0.488781
C100	C	2.038936	0.010591	0.988781
C101	C	1.639209	-0.501542	0.500875
C102	C	2.139209	-0.001542	1.000875
C103	C	1.303673	-0.460908	0.624596
C104	C	1.803673	0.039092	1.124596
C105	C	1.303690	-0.460896	0.694566
C106	C	1.803690	0.039104	1.194566
C107	C	1.303774	-0.296764	0.460466
C108	C	1.803774	0.203236	0.960466
C109	C	1.303835	-0.226803	0.460495
C110	C	1.803835	0.273197	0.960495
C111	C	1.303642	-0.460926	0.296850
C112	C	1.803642	0.039074	0.796850
C113	C	1.303799	-0.460782	0.226901
C114	C	1.803799	0.039218	0.726901
C115	C	1.361456	-0.508017	1.200980
C116	C	1.861456	-0.008017	1.700980
C117	C	1.361439	-0.508035	1.135235
C118	C	1.861439	-0.008035	1.635235
C119	C	1.303776	-0.460808	1.095416
C120	C	1.803776	0.039192	1.595416
C121	C	1.246108	-0.413569	1.121344
C122	C	1.746108	0.086431	1.621344
C123	C	1.246119	-0.413556	1.187087
C124	C	1.746119	0.086444	1.687087
N125	N	1.296885	-0.404895	0.991380
N126	N	1.796885	0.095105	1.491380
N127	N	1.296879	-0.404910	0.928928
N128	N	1.796879	0.095090	1.428928
C129	C	1.303736	-0.460846	0.897336
C130	C	1.803736	0.039154	1.397336
N131	N	1.310616	-0.516769	0.930558
N132	N	1.810616	-0.016769	1.430558
N133	N	1.310627	-0.516754	0.993017
N134	N	1.810627	-0.016754	1.493017
C135	C	1.303756	-0.460818	1.024128
C136	C	1.803756	0.039182	1.524128
C137	C	1.361378	-0.508104	0.800128
C138	C	1.861378	-0.008104	1.300128
C139	C	1.361356	-0.508122	0.734381
C140	C	1.861356	-0.008122	1.234381
C141	C	1.246029	-0.413652	0.720491
C142	C	1.746029	0.086348	1.220491
C143	C	1.246047	-0.413639	0.786236
C144	C	1.746047	0.086361	1.286236
C145	C	1.303726	-0.460864	0.826051
C146	C	1.803726	0.039136	1.326051
H147	H	0.647946	-0.575735	0.574818
H148	H	1.147946	-0.075735	1.074818
H149	H	0.789284	-0.325599	0.325512
H150	H	1.289284	0.174401	0.825512
C151	C	1.424897	-0.559971	1.244771
C152	C	1.924897	-0.059971	1.744771
N153	N	1.472678	-0.599106	1.277756
N154	N	1.972678	-0.099106	1.777756
C155	C	1.424810	-0.560074	0.705871
C156	C	1.924810	-0.060074	1.205871
N157	N	1.472615	-0.599199	0.684399
N158	N	1.972615	-0.099199	1.184399
H159	H	1.199167	-0.375091	1.208190
H160	H	1.699167	0.124909	1.708190
H161	H	1.199156	-0.375118	1.088918
H162	H	1.699156	0.124882	1.588918
H163	H	1.408342	-0.546559	0.832546
H164	H	1.908342	-0.046559	1.332546
H165	H	1.198878	-0.807182	0.520742
H166	H	1.698878	-0.307182	1.020742
C167	C	1.182597	-1.215445	0.530348
C168	C	1.682597	-0.715445	1.030348
N169	N	1.134779	-1.236906	0.557914
N170	N	1.634779	-0.736906	1.057914
H171	H	0.647973	-0.348836	0.348659
H172	H	1.147973	0.151164	0.848659
C173	C	0.973685	-0.336365	0.336237
C174	C	1.473685	0.163635	0.836237
N175	N	1.012723	-0.307682	0.307650
N176	N	1.512723	0.192318	0.807650
H177	H	1.408351	-0.832479	0.400044
H178	H	1.908351	-0.332479	0.900044
C179	C	1.425072	-1.244731	0.390640
C180	C	1.925072	-0.744731	0.890640
N181	N	1.472916	-1.277740	0.363080
N182	N	1.972916	-0.777740	0.863080
C183	C	0.535570	-0.408378	0.408039
C184	C	1.035570	0.091622	0.908039
N185	N	0.457508	-0.398934	0.398652
N186	N	0.957508	0.101066	0.898652
H187	H	1.408279	-0.713205	0.400010
H188	H	1.908279	-0.213205	0.900010
C189	C	1.182323	-0.676517	0.530235
C190	C	1.682323	-0.176517	1.030235
N191	N	1.134489	-0.643507	0.557802
N192	N	1.634489	-0.143507	1.057802
C193	C	1.425001	-1.106670	0.390607
C194	C	1.925001	-0.606670	0.890607
N195	N	1.472830	-1.085216	0.363046
N196	N	1.972830	-0.585216	0.863046
C197	C	1.182544	-1.077385	0.530333
C198	C	1.682544	-0.577385	1.030333
N199	N	1.134722	-1.044377	0.557910
N200	N	1.634722	-0.544377	1.057910
H201	H	1.199076	-0.375200	0.688071
H202	H	1.699076	0.124800	1.188071
C203	C	1.424867	-0.560000	1.106715
C204	C	1.924867	-0.060000	1.606715
N205	N	1.472642	-0.599140	1.085236
N206	N	1.972642	-0.099140	1.585236
C207	C	1.182631	-0.361669	0.814752
C208	C	1.682631	0.138331	1.314752
N209	N	1.134864	-0.322523	0.836229
N210	N	1.634864	0.177477	1.336229
H211	H	0.960207	-0.492541	0.491896
H212	H	1.460207	0.007459	0.991896
H213	H	0.904353	-0.533596	0.532815
H214	H	1.404353	-0.033596	1.032815
H215	H	0.818873	-0.596403	0.595413
H216	H	1.318873	-0.096403	1.095413
