data_functionalizedCrystal
_audit_creation_method	'MofGen! by Chris Wilmer'
_symmetry_space_group_name_H-M	'P1'
_symmetry_Int_Tables_number	1
_symmetry_cell_setting	triclinic
loop_
_symmetry_equiv_pos_as_xyz
  x,y,z
_cell_length_a	12.759394
_cell_length_b	18.050591
_cell_length_c	18.050582
_cell_angle_alpha	90.022741
_cell_angle_beta	90.020233
_cell_angle_gamma	90.015921
loop_
_atom_site_label
_atom_site_type_symbol
_atom_site_fract_x
_atom_site_fract_y
_atom_site_fract_z
Zn1	Zn	0.418517	-1.135322	-0.420080
Zn2	Zn	0.594198	-1.135245	-0.295895
Zn3	Zn	0.418514	-1.011141	-0.295887
Zn4	Zn	0.594135	-1.011102	-0.420026
O5	O	0.506341	-1.073203	-0.357972
O6	O	0.441850	-1.239236	-0.403632
O7	O	0.570918	-1.118767	-0.191969
O8	O	0.271493	-1.027663	-0.312380
O9	O	0.570922	-1.239180	-0.312394
O10	O	0.271496	-1.118898	-0.403624
O11	O	0.441844	-1.027588	-0.191963
O12	O	0.441782	-0.907211	-0.312328
O13	O	0.570814	-1.027595	-0.523958
O14	O	0.570810	-0.907182	-0.403533
O15	O	0.441788	-1.118860	-0.523997
O16	O	0.741211	-1.118729	-0.312342
O17	O	0.741164	-1.027521	-0.403541
C18	C	0.506290	-0.880250	-0.357925
C19	C	0.506293	-0.797705	-0.357922
C20	C	0.779308	-1.073132	-0.357953
C21	C	0.896085	-1.073170	-0.357969
C22	C	0.436036	-0.548873	-0.308429
C23	C	0.410461	-0.598304	-0.376207
C24	C	0.506324	-0.500584	-0.357967
C25	C	0.531835	-0.598236	-0.290171
C26	C	0.506306	-0.646569	-0.357941
C27	C	0.480700	-0.548927	-0.425781
C28	C	0.602118	-0.548855	-0.339699
C29	C	0.576579	-0.598263	-0.407524
C30	C	0.506332	-0.416486	-0.357981
C31	C	0.506299	-0.730666	-0.357935
C32	C	0.895930	-1.168102	-0.453053
C33	C	0.950713	-1.215586	-0.500599
C34	C	1.060434	-1.215618	-0.500612
C35	C	1.115375	-1.168160	-0.453076
C36	C	1.060592	-1.120677	-0.405530
C37	C	0.950868	-1.120651	-0.405520
C38	C	1.060748	-1.025742	-0.310451
C39	C	0.951026	-1.025712	-0.310433
C40	C	1.115689	-0.978284	-0.262915
C41	C	1.060906	-0.930803	-0.215364
C42	C	0.951177	-0.930774	-0.215352
C43	C	0.896243	-0.978229	-0.262887
C44	C	1.232308	-1.073267	-0.358001
C45	C	1.115531	-1.073226	-0.357997
C46	C	0.506294	-1.073232	-0.551677
C47	C	0.506274	-1.073244	-0.634223
C48	C	0.506375	-0.266908	-0.358006
C49	C	0.506341	-0.349454	-0.357988
C50	C	0.576343	-1.023653	-0.833653
C51	C	0.602035	-1.091410	-0.883054
C52	C	0.506194	-1.073281	-0.785354
C53	C	0.480473	-1.005561	-0.883034
C54	C	0.506119	-1.073310	-0.931339
C55	C	0.531937	-1.141073	-0.833668
C56	C	0.410330	-1.055179	-0.833644
C57	C	0.435986	-1.122983	-0.883023
C58	C	0.506240	-1.073263	-0.701255
C59	C	0.506073	-1.073336	-1.015435
C60	C	0.506312	-1.073216	-0.165020
C61	C	0.506035	-1.073348	-0.082474
H62	H	0.376559	-0.527189	-0.266599
H63	H	0.905970	-1.254224	-0.539304
O64	O	1.119531	-1.266824	-0.551898
H65	H	1.169518	-1.304636	-0.518701
O66	O	0.709401	-0.520055	-0.319212
H67	H	0.740849	-0.486261	-0.365509
H68	H	1.204717	-1.168185	-0.453097
H69	H	0.329439	-0.620010	-0.391661
O70	O	0.709373	-1.111710	-0.911816
H71	H	0.731198	-1.167536	-0.891189
O72	O	0.892092	-0.879556	-0.164071
H73	H	0.842095	-0.912803	-0.126315
O74	O	0.655311	-0.626815	-0.463056
H75	H	0.614556	-0.661467	-0.504924
H76	H	1.205030	-0.978311	-0.262932
H77	H	1.105647	-0.892164	-0.176667
O78	O	0.451966	-0.520365	-0.501734
H79	H	0.517185	-0.486101	-0.523674
O80	O	0.560440	-0.626928	-0.214243
H81	H	0.501987	-0.607138	-0.173240
H82	H	0.806589	-1.168087	-0.453040
H83	H	0.806902	-0.978212	-0.262879
O84	O	0.655016	-0.968119	-0.804918
H85	H	0.734502	-0.983341	-0.824704
H86	H	0.553753	-1.198372	-0.812074
H87	H	0.376632	-1.165013	-0.904563
H88	H	0.329315	-1.039831	-0.811924
O89	O	0.451678	-0.929687	-0.911755
H90	H	0.510052	-0.888586	-0.891971
