data_functionalizedCrystal
_audit_creation_method	'MofGen! by Chris Wilmer'
_symmetry_space_group_name_H-M	'P1'
_symmetry_Int_Tables_number	1
_symmetry_cell_setting	triclinic
loop_
_symmetry_equiv_pos_as_xyz
  x,y,z
_cell_length_a	12.811438
_cell_length_b	17.038272
_cell_length_c	11.295483
_cell_angle_alpha	94.391706
_cell_angle_beta	80.460799
_cell_angle_gamma	87.561366
loop_
_atom_site_label
_atom_site_type_symbol
_atom_site_fract_x
_atom_site_fract_y
_atom_site_fract_z
O1	O	1.418901	0.091985	-0.252243
O2	O	1.112130	0.105193	-0.219120
O3	O	1.263692	-0.015222	-0.235475
O4	O	1.267339	0.212400	-0.235888
O5	O	1.250378	-0.004662	-0.035988
O6	O	1.098817	0.115753	-0.019633
O7	O	1.405587	0.102545	-0.052756
Cu8	Cu	1.250987	0.110113	-0.017979
Cu9	Cu	1.266731	0.097625	-0.253896
O10	O	1.254026	0.222960	-0.036401
C11	C	1.066028	0.110056	-0.115117
C12	C	0.948492	0.108806	-0.102426
C13	C	0.775574	0.112800	0.024196
C14	C	0.886009	0.113976	0.012276
C15	C	0.900533	0.102463	-0.205217
C16	C	0.790098	0.101288	-0.193298
C17	C	0.727622	0.106455	-0.078588
C18	C	0.617186	0.105274	-0.066670
C19	C	0.631711	0.093767	-0.284162
C20	C	0.742146	0.094943	-0.296081
C21	C	1.253719	-0.039062	-0.135374
C22	C	1.243824	-0.125833	-0.134306
C23	C	1.334670	-0.176155	-0.144113
C24	C	1.325367	-0.257685	-0.143120
C25	C	1.225217	-0.288890	-0.132311
C26	C	1.134364	-0.238562	-0.122506
C27	C	1.143668	-0.157034	-0.123507
C28	C	1.192346	-0.534574	-0.128778
C29	C	1.183049	-0.616108	-0.127773
C30	C	1.374053	-0.635225	-0.148390
C31	C	1.383348	-0.553695	-0.149384
C32	C	1.292496	-0.503374	-0.139585
C33	C	1.215705	-0.372226	-0.131291
C34	C	1.302009	-0.420040	-0.140613
C35	C	1.451690	0.097681	-0.156762
C36	C	1.569226	0.098931	-0.169461
C37	C	1.263999	0.246800	-0.136505
C38	C	1.273895	0.333570	-0.137581
N39	N	1.239920	0.118896	0.147951
N40	N	1.277805	0.088835	-0.419828
C41	C	1.357463	0.025565	0.384556
C42	C	1.349108	0.032208	0.510122
C43	C	1.214851	0.138821	0.524650
C44	C	1.223206	0.132178	0.399084
C45	C	1.294515	0.075549	0.329042
C46	C	1.302875	0.068910	0.203474
C47	C	1.168613	0.175519	0.218005
C48	C	1.160258	0.182162	0.343570
H49	H	1.416223	-0.150754	-0.152908
C50	C	1.054919	-0.691267	-0.012132
C51	C	1.072952	-0.650406	-0.115893
H52	H	0.986951	-0.712436	-0.004794
H53	H	1.107686	-0.732903	-0.017831
H54	H	1.057874	-0.656170	0.056603
H55	H	1.070005	-0.685505	-0.184629
H56	H	1.020171	-0.608765	-0.110202
H57	H	1.464901	-0.528294	-0.158186
C58	C	0.615933	0.016403	-0.466494
C59	C	0.578996	0.086789	-0.397149
H60	H	0.583382	0.012092	-0.536241
H61	H	0.690635	0.016373	-0.490008
H62	H	0.598814	-0.026991	-0.420266
H63	H	0.596123	0.130184	-0.443375
H64	H	0.504277	0.086826	-0.373637
C65	C	1.002614	-0.523876	-0.108270
C66	C	1.092480	-0.479267	-0.117984
H67	H	0.940958	-0.489727	-0.101596
H68	H	1.007597	-0.559748	-0.177871
H69	H	0.998332	-0.552398	-0.038741
H70	H	1.096767	-0.450749	-0.187518
H71	H	1.087496	-0.443381	-0.048376
C72	C	0.599835	0.116101	0.139033
C73	C	0.706893	0.118474	0.150278
H74	H	0.557438	0.119599	0.216874
H75	H	0.580761	0.159118	0.096744
H76	H	0.588698	0.067968	0.095871
H77	H	0.718032	0.166610	0.193433
H78	H	0.725973	0.075453	0.192586
H79	H	0.793028	0.090739	-0.389474
C80	C	0.913478	0.056961	0.193353
C81	C	0.938722	0.120944	0.125257
H82	H	0.946027	0.061262	0.263100
H83	H	0.838774	0.057007	0.216863
H84	H	0.938530	0.009219	0.146278
H85	H	0.913663	0.168686	0.172329
H86	H	1.013442	0.120905	0.101748
C87	C	1.087842	0.239688	0.542504
C88	C	1.081883	0.244410	0.420567
H89	H	1.039461	0.278123	0.590034
H90	H	1.070284	0.188639	0.564828
H91	H	1.157821	0.249113	0.555348
H92	H	1.011905	0.234979	0.407722
H93	H	1.099434	0.295471	0.398235
C94	C	1.515096	-0.268391	-0.163572
C95	C	1.425228	-0.312999	-0.153888
H96	H	1.576747	-0.302541	-0.170211
H97	H	1.519403	-0.239876	-0.233096
H98	H	1.510092	-0.232512	-0.093961
H99	H	1.430229	-0.348874	-0.223502
H100	H	1.420921	-0.341527	-0.084356
H101	H	1.448020	-0.676205	-0.156370
C102	C	1.434731	-0.035811	0.201731
C103	C	1.381251	0.006662	0.126480
H104	H	1.483111	-0.074245	0.154199
H105	H	1.472442	-0.000764	0.246267
H106	H	1.384907	-0.061239	0.255750
H107	H	1.431076	0.032095	0.072467
H108	H	1.343539	-0.028390	0.081924
C109	C	1.035289	-0.355047	-0.111801
C110	C	1.024275	-0.272860	-0.110619
H111	H	0.967322	-0.376217	-0.104452
H112	H	1.077638	-0.376012	-0.185434
H113	H	1.068364	-0.368647	-0.046303
H114	H	0.991207	-0.259260	-0.176122
H115	H	0.981910	-0.251887	-0.036977
C116	C	1.482654	-0.073840	0.483143
C117	C	1.418303	-0.022735	0.571144
H118	H	1.525376	-0.107758	0.520818
H119	H	1.439360	-0.104452	0.439210
H120	H	1.526880	-0.043965	0.429731
H121	H	1.374070	-0.052609	0.624551
H122	H	1.461601	0.007881	0.615097
H123	H	1.069691	-0.116061	-0.115521
H124	H	1.383553	-0.394630	-0.149441
C125	C	1.035067	0.281575	0.244983
C126	C	1.099415	0.230469	0.156982
H127	H	0.992357	0.315502	0.207306
H128	H	0.990839	0.251708	0.298385
H129	H	1.078370	0.312186	0.288925
H130	H	1.056112	0.199853	0.113046
H131	H	1.143648	0.260339	0.103559
C132	C	1.076275	0.099159	-0.320045
C133	C	0.969218	0.096784	-0.331297
H134	H	1.118677	0.095648	-0.397884
H135	H	1.087412	0.147289	-0.276899
H136	H	1.095344	0.056140	-0.277738
H137	H	0.950147	0.139807	-0.373598
H138	H	0.958075	0.048649	-0.374462
H139	H	0.566319	0.109487	0.026733
H140	H	1.134162	-0.397643	-0.122487
H141	H	1.415533	-0.020539	0.327526
H142	H	1.156785	0.184922	0.581695
