data_functionalizedCrystal
_audit_creation_method	'MofGen! by Chris Wilmer'
_symmetry_space_group_name_H-M	'P1'
_symmetry_Int_Tables_number	1
_symmetry_cell_setting	triclinic
loop_
_symmetry_equiv_pos_as_xyz
  x,y,z
_cell_length_a	27.731993
_cell_length_b	26.809956
_cell_length_c	19.188930
_cell_angle_alpha	89.990297
_cell_angle_beta	97.117412
_cell_angle_gamma	90.004510
loop_
_atom_site_label
_atom_site_type_symbol
_atom_site_fract_x
_atom_site_fract_y
_atom_site_fract_z
O1	O	0.641206	0.041351	-0.082895
O2	O	0.891206	0.291351	0.167105
O3	O	1.141206	0.541351	0.417105
O4	O	1.391206	0.791351	0.667105
O5	O	0.500448	0.041382	-0.095567
O6	O	0.750448	0.291382	0.154433
O7	O	1.000448	0.541382	0.404433
O8	O	1.250448	0.791382	0.654433
O9	O	0.574889	0.041356	0.012452
O10	O	0.824889	0.291356	0.262452
O11	O	1.074889	0.541356	0.512452
O12	O	1.324889	0.791356	0.762452
O13	O	0.566765	0.041377	-0.190914
O14	O	0.816765	0.291377	0.059086
O15	O	1.066765	0.541377	0.309086
O16	O	1.316765	0.791377	0.559086
O17	O	0.574866	-0.041603	0.012452
O18	O	0.824866	0.208397	0.262452
O19	O	1.074866	0.458397	0.512452
O20	O	1.324866	0.708397	0.762452
O21	O	0.500425	-0.041577	-0.095567
O22	O	0.750425	0.208423	0.154433
O23	O	1.000425	0.458423	0.404433
O24	O	1.250425	0.708423	0.654433
O25	O	0.641183	-0.041608	-0.082895
O26	O	0.891183	0.208392	0.167105
O27	O	1.141183	0.458392	0.417105
O28	O	1.391183	0.708392	0.667105
Zn29	Zn	0.570800	-0.054764	-0.089231
Zn30	Zn	0.820800	0.195236	0.160769
Zn31	Zn	1.070800	0.445236	0.410769
Zn32	Zn	1.320800	0.695236	0.660769
Zn33	Zn	0.570830	0.054538	-0.089231
Zn34	Zn	0.820830	0.304538	0.160769
Zn35	Zn	1.070830	0.554538	0.410769
Zn36	Zn	1.320830	0.804538	0.660769
O37	O	0.566742	-0.041582	-0.190914
O38	O	0.816742	0.208418	0.059086
O39	O	1.066742	0.458418	0.309086
O40	O	1.316742	0.708418	0.559086
C41	C	0.482428	-0.000094	-0.095307
C42	C	0.732428	0.249906	0.154693
C43	C	0.982428	0.499906	0.404693
C44	C	1.232428	0.749906	0.654693
C45	C	0.428769	-0.000082	-0.094523
C46	C	0.678769	0.249918	0.155477
C47	C	0.928769	0.499918	0.405477
C48	C	1.178769	0.749918	0.655477
C49	C	0.045604	0.045114	-0.088846
C50	C	0.295604	0.295114	0.161154
C51	C	0.545604	0.545114	0.411154
C52	C	0.795604	0.795114	0.661154
C53	C	0.247271	0.045128	-0.091832
C54	C	0.497271	0.295128	0.158168
C55	C	0.747271	0.545128	0.408168
C56	C	0.997271	0.795128	0.658168
O57	O	0.273356	0.083588	-0.092190
O58	O	0.523356	0.333588	0.157810
O59	O	0.773356	0.583588	0.407810
O60	O	1.023356	0.833588	0.657810
N61	N	0.272480	-0.000092	-0.092205
N62	N	0.522480	0.249908	0.157795
N63	N	0.772480	0.499908	0.407795
N64	N	1.022480	0.749908	0.657795
C65	C	0.247269	-0.045319	-0.091828
C66	C	0.497269	0.204681	0.158172
C67	C	0.747269	0.454681	0.408172
C68	C	0.997269	0.704681	0.658172
O69	O	0.273339	-0.083781	-0.092207
O70	O	0.523339	0.166219	0.157793
O71	O	0.773339	0.416219	0.407793
O72	O	1.023339	0.666219	0.657793
C73	C	0.045604	-0.045332	-0.088837
C74	C	0.295604	0.204668	0.161163
C75	C	0.545604	0.454668	0.411163
C76	C	0.795604	0.704668	0.661163
C77	C	0.020397	-0.000109	-0.088471
C78	C	0.270397	0.249891	0.161529
C79	C	0.520397	0.499891	0.411529
C80	C	0.770397	0.749891	0.661529
C81	C	0.020397	0.090333	-0.088479
C82	C	0.270397	0.340333	0.161521
C83	C	0.520397	0.590333	0.411521
C84	C	0.770397	0.840333	0.661521
C85	C	-0.030017	0.090329	-0.087736
C86	C	0.219983	0.340329	0.162264
C87	C	0.469983	0.590329	0.412264
C88	C	0.719983	0.840329	0.662264
C89	C	-0.055224	0.045106	-0.087361
C90	C	0.194776	0.295106	0.162639
C91	C	0.444776	0.545106	0.412639
C92	C	0.694776	0.795106	0.662639
C93	C	-0.030017	-0.000113	-0.087728
C94	C	0.219983	0.249887	0.162272
C95	C	0.469983	0.499887	0.412272
C96	C	0.719983	0.749887	0.662272
C97	C	0.020395	-0.090558	-0.088455
C98	C	0.270395	0.159442	0.161545
C99	C	0.520395	0.409442	0.411545
C100	C	0.770395	0.659442	0.661545
C101	C	-0.030024	-0.090558	-0.087705
C102	C	0.219976	0.159442	0.162295
C103	C	0.469976	0.409442	0.412295
C104	C	0.719976	0.659442	0.662295
C105	C	-0.055231	-0.045335	-0.087339
C106	C	0.194769	0.204665	0.162661
C107	C	0.444769	0.454665	0.412661
C108	C	0.694769	0.704665	0.662661
C109	C	-0.105638	-0.045340	-0.086610
C110	C	0.144362	0.204660	0.163390
C111	C	0.394362	0.454660	0.413390
C112	C	0.644362	0.704660	0.663390
N113	N	-0.130847	-0.000120	-0.086237
N114	N	0.119153	0.249880	0.163763
N115	N	0.369153	0.499880	0.413763
N116	N	0.619153	0.749880	0.663763
C117	C	-0.105640	0.045103	-0.086612
C118	C	0.144360	0.295103	0.163388
C119	C	0.394360	0.545103	0.413388
C120	C	0.644360	0.795103	0.663388
C121	C	0.353146	-0.045309	-0.093399
C122	C	0.603146	0.204691	0.156601
C123	C	0.853146	0.454691	0.406601
C124	C	1.103146	0.704691	0.656601
C125	C	0.403562	-0.045305	-0.094148
C126	C	0.653562	0.204695	0.155852
C127	C	0.903562	0.454695	0.405852
C128	C	1.153562	0.704695	0.655852
C129	C	0.403560	0.045142	-0.094151
C130	C	0.653560	0.295142	0.155849
C131	C	0.903560	0.545142	0.405849
C132	C	1.153560	0.795142	0.655849
C133	C	0.353143	0.045138	-0.093407
C134	C	0.603143	0.295138	0.156593
C135	C	0.853143	0.545138	0.406593
C136	C	1.103143	0.795138	0.656593
C137	C	0.327937	-0.000089	-0.093026
C138	C	0.577937	0.249911	0.156974
C139	C	0.827937	0.499911	0.406974
C140	C	1.077937	0.749911	0.656974
C141	C	-0.211513	0.045091	-0.085053
C142	C	0.038487	0.295091	0.164947
C143	C	0.288487	0.545091	0.414947
C144	C	0.538487	0.795091	0.664947
C145	C	-0.261931	0.045083	-0.084314
C146	C	-0.011931	0.295083	0.165686
C147	C	0.238069	0.545083	0.415686
C148	C	0.488069	0.795083	0.665686
C149	C	-0.261925	-0.045363	-0.084307
C150	C	-0.011925	0.204637	0.165693
C151	C	0.238075	0.454637	0.415693
C152	C	0.488075	0.704637	0.665693
C153	C	-0.211511	-0.045355	-0.085051
C154	C	0.038489	0.204645	0.164949
C155	C	0.288489	0.454645	0.414949
C156	C	0.538489	0.704645	0.664949
C157	C	-0.186306	-0.000124	-0.085421
C158	C	0.063694	0.249876	0.164579
C159	C	0.313694	0.499876	0.414579
C160	C	0.563694	0.749876	0.664579
O161	O	-0.131753	-0.083780	-0.086244
O162	O	0.118247	0.166220	0.163756
O163	O	0.368247	0.416220	0.413756
O164	O	0.618247	0.666220	0.663756
O165	O	-0.131717	0.083559	-0.086217
O166	O	0.118283	0.333559	0.163783
O167	O	0.368283	0.583559	0.413783
O168	O	0.618283	0.833559	0.663783
C169	C	0.096018	0.045118	-0.089588
C170	C	0.346018	0.295118	0.160412
C171	C	0.596018	0.545118	0.410412
C172	C	0.846018	0.795118	0.660412
C173	C	0.121225	-0.000101	-0.089956
C174	C	0.371225	0.249899	0.160044
C175	C	0.621225	0.499899	0.410044
C176	C	0.871225	0.749899	0.660044
C177	C	0.096018	-0.045325	-0.089580
C178	C	0.346018	0.204675	0.160420
C179	C	0.596018	0.454675	0.410420
C180	C	0.846018	0.704675	0.660420
C181	C	0.171641	-0.000098	-0.090705
C182	C	0.421641	0.249902	0.159295
C183	C	0.671641	0.499902	0.409295
C184	C	0.921641	0.749902	0.659295
C185	C	0.196848	0.045125	-0.091080
C186	C	0.446848	0.295125	0.158920
C187	C	0.696848	0.545125	0.408920
C188	C	0.946848	0.795125	0.658920
C189	C	0.171639	0.090345	-0.090706
C190	C	0.421639	0.340345	0.159294
C191	C	0.671639	0.590345	0.409294
C192	C	0.921639	0.840345	0.659294
C193	C	0.121225	0.090341	-0.089964
C194	C	0.371225	0.340341	0.160036
C195	C	0.621225	0.590341	0.410036
C196	C	0.871225	0.840341	0.660036
C197	C	0.121227	-0.090545	-0.089954
C198	C	0.371227	0.159455	0.160046
C199	C	0.621227	0.409455	0.410046
C200	C	0.871227	0.659455	0.660046
C201	C	0.171641	-0.090537	-0.090697
C202	C	0.421641	0.159463	0.159303
C203	C	0.671641	0.409463	0.409303
C204	C	0.921641	0.659463	0.659303
C205	C	0.196848	-0.045314	-0.091073
C206	C	0.446848	0.204686	0.158927
C207	C	0.696848	0.454686	0.408927
C208	C	0.946848	0.704686	0.658927
N209	N	0.570783	-0.129360	-0.089230
N210	N	0.820783	0.120640	0.160770
N211	N	1.070783	0.370640	0.410770
N212	N	1.320783	0.620640	0.660770
C213	C	0.600050	-0.473989	-0.131270
C214	C	0.850050	-0.223989	0.118730
C215	C	1.100050	0.026011	0.368730
C216	C	1.350050	0.276011	0.618730
C217	C	0.600066	-0.682866	-0.131270
C218	C	0.850066	-0.432866	0.118730
C219	C	1.100066	-0.182866	0.368730
C220	C	1.350066	0.067134	0.618730
O221	O	0.624937	-0.709872	-0.167006
O222	O	0.874937	-0.459872	0.082994
O223	O	1.124937	-0.209872	0.332994
O224	O	1.374937	0.040128	0.582994
N225	N	0.570842	-0.708987	-0.089224
N226	N	0.820842	-0.458987	0.160776
N227	N	1.070842	-0.208987	0.410776
N228	N	1.320842	0.041013	0.660776
C229	C	0.541615	-0.682886	-0.047171
C230	C	0.791615	-0.432886	0.202829
C231	C	1.041615	-0.182886	0.452829
C232	C	1.291615	0.067114	0.702829
O233	O	0.516762	-0.709896	-0.011403
O234	O	0.766762	-0.459896	0.238597
O235	O	1.016762	-0.209896	0.488597
O236	O	1.266762	0.040104	0.738597
C237	C	0.541602	-0.474009	-0.047169
C238	C	0.791602	-0.224009	0.202831
C239	C	1.041602	0.025991	0.452831
C240	C	1.291602	0.275991	0.702831
C241	C	0.570824	-0.447891	-0.089223
C242	C	0.820824	-0.197891	0.160777
C243	C	1.070824	0.052109	0.410777
C244	C	1.320824	0.302109	0.660777
C245	C	0.629271	-0.447870	-0.173321
C246	C	0.879271	-0.197870	0.076679
C247	C	1.129271	0.052130	0.326679
C248	C	1.379271	0.302130	0.576679
C249	C	0.629264	-0.395654	-0.173323
C250	C	0.879264	-0.145654	0.076677
C251	C	1.129264	0.104346	0.326677
C252	C	1.379264	0.354346	0.576677
C253	C	0.600038	-0.369556	-0.131276
C254	C	0.850038	-0.119556	0.118724
C255	C	1.100038	0.130444	0.368724
C256	C	1.350038	0.380444	0.618724
C257	C	0.570818	-0.395674	-0.089225
C258	C	0.820818	-0.145674	0.160775
C259	C	1.070818	0.104326	0.410775
C260	C	1.320818	0.354326	0.660775
C261	C	0.512377	-0.447909	-0.005113
C262	C	0.762377	-0.197909	0.244887
C263	C	1.012377	0.052091	0.494887
C264	C	1.262377	0.302091	0.744887
C265	C	0.512378	-0.395686	-0.005115
C266	C	0.762378	-0.145686	0.244885
C267	C	1.012378	0.104314	0.494885
C268	C	1.262378	0.354314	0.744885
C269	C	0.541600	-0.369568	-0.047169
C270	C	0.791600	-0.119568	0.202831
C271	C	1.041600	0.130432	0.452831
C272	C	1.291600	0.380432	0.702831
C273	C	0.541585	-0.317360	-0.047181
C274	C	0.791585	-0.067360	0.202819
C275	C	1.041585	0.182640	0.452819
C276	C	1.291585	0.432640	0.702819
N277	N	0.570809	-0.291239	-0.089227
N278	N	0.820809	-0.041239	0.160773
N279	N	1.070809	0.208761	0.410773
N280	N	1.320809	0.458761	0.660773
C281	C	0.600036	-0.317337	-0.131274
C282	C	0.850036	-0.067337	0.118726
C283	C	1.100036	0.182663	0.368726
C284	C	1.350036	0.432663	0.618726
C285	C	0.541623	-0.792549	-0.047177
C286	C	0.791623	-0.542549	0.202823
C287	C	1.041623	-0.292549	0.452823
C288	C	1.291623	-0.042549	0.702823
C289	C	0.541625	-0.844768	-0.047178
C290	C	0.791625	-0.594768	0.202822
C291	C	1.041625	-0.344768	0.452822
C292	C	1.291625	-0.094768	0.702822
C293	C	0.600077	-0.844745	-0.131276
C294	C	0.850077	-0.594745	0.118724
C295	C	1.100077	-0.344745	0.368724
C296	C	1.350077	-0.094745	0.618724
C297	C	0.600072	-0.792525	-0.131278
C298	C	0.850072	-0.542525	0.118722
C299	C	1.100072	-0.292525	0.368722
C300	C	1.350072	-0.042525	0.618722
C301	C	0.570846	-0.766428	-0.089223
C302	C	0.820846	-0.516428	0.160777
C303	C	1.070846	-0.266428	0.410777
C304	C	1.320846	-0.016428	0.660777
C305	C	0.600020	-0.207679	-0.131277
C306	C	0.850020	0.042321	0.118723
C307	C	1.100020	0.292321	0.368723
C308	C	1.350020	0.542321	0.618723
C309	C	0.600010	-0.155458	-0.131278
C310	C	0.850010	0.094542	0.118722
C311	C	1.100010	0.344542	0.368722
C312	C	1.350010	0.594542	0.618722
C313	C	0.541560	-0.155486	-0.047178
C314	C	0.791560	0.094514	0.202822
C315	C	1.041560	0.344514	0.452822
C316	C	1.291560	0.594514	0.702822
C317	C	0.541568	-0.207702	-0.047179
C318	C	0.791568	0.042298	0.202821
C319	C	1.041568	0.292298	0.452821
C320	C	1.291568	0.542298	0.702821
C321	C	0.570802	-0.233798	-0.089231
C322	C	0.820802	0.016202	0.160769
C323	C	1.070802	0.266202	0.410769
C324	C	1.320802	0.516202	0.660769
O325	O	0.516731	-0.290322	-0.011457
O326	O	0.766731	-0.040322	0.238543
O327	O	1.016731	0.209678	0.488543
O328	O	1.266731	0.459678	0.738543
O329	O	0.624893	-0.290318	-0.167025
O330	O	0.874893	-0.040318	0.082975
O331	O	1.124893	0.209682	0.332975
O332	O	1.374893	0.459682	0.582975
C333	C	0.600057	-0.526205	-0.131268
C334	C	0.850057	-0.276205	0.118732
C335	C	1.100057	-0.026205	0.368732
C336	C	1.350057	0.223795	0.618732
C337	C	0.570836	-0.552323	-0.089218
C338	C	0.820836	-0.302323	0.160782
C339	C	1.070836	-0.052323	0.410782
C340	C	1.320836	0.197677	0.660782
C341	C	0.541610	-0.526225	-0.047170
C342	C	0.791610	-0.276225	0.202830
C343	C	1.041610	-0.026225	0.452830
C344	C	1.291610	0.223775	0.702830
C345	C	0.570839	-0.604542	-0.089219
C346	C	0.820839	-0.354542	0.160781
C347	C	1.070839	-0.104542	0.410781
C348	C	1.320839	0.145458	0.660781
C349	C	0.600065	-0.630640	-0.131267
C350	C	0.850065	-0.380640	0.118733
C351	C	1.100065	-0.130640	0.368733
C352	C	1.350065	0.119360	0.618733
C353	C	0.629289	-0.604519	-0.173313
C354	C	0.879289	-0.354519	0.076687
C355	C	1.129289	-0.104519	0.326687
C356	C	1.379289	0.145481	0.576687
C357	C	0.629283	-0.552303	-0.173315
C358	C	0.879283	-0.302303	0.076685
C359	C	1.129283	-0.052303	0.326685
C360	C	1.379283	0.197697	0.576685
C361	C	0.512386	-0.552347	-0.005124
C362	C	0.762386	-0.302347	0.244876
C363	C	1.012386	-0.052347	0.494876
C364	C	1.262386	0.197653	0.744876
C365	C	0.512394	-0.604563	-0.005125
C366	C	0.762394	-0.354563	0.244875
C367	C	1.012394	-0.104563	0.494875
C368	C	1.262394	0.145437	0.744875
C369	C	0.541621	-0.630661	-0.047173
C370	C	0.791621	-0.380661	0.202827
C371	C	1.041621	-0.130661	0.452827
C372	C	1.291621	0.119339	0.702827
C373	C	0.659203	-0.000132	-0.083155
C374	C	0.909203	0.249868	0.166845
C375	C	1.159203	0.499868	0.416845
C376	C	1.409203	0.749868	0.666845
C377	C	0.712862	-0.000140	-0.083938
C378	C	0.962862	0.249860	0.166062
C379	C	1.212862	0.499860	0.416062
C380	C	1.462862	0.749860	0.666062
C381	C	0.574614	-0.000125	0.038461
C382	C	0.824614	0.249875	0.288461
C383	C	1.074614	0.499875	0.538461
C384	C	1.324614	0.749875	0.788461
C385	C	0.573825	-0.000129	0.115960
C386	C	0.823825	0.249871	0.365960
C387	C	1.073825	0.499871	0.615960
C388	C	1.323825	0.749871	0.865960
N389	N	0.570851	0.129134	-0.089226
N390	N	0.820851	0.379134	0.160774
N391	N	1.070851	0.629134	0.410774
N392	N	1.320851	0.879134	0.660774
C393	C	0.567017	-0.000100	-0.216923
C394	C	0.817017	0.249900	0.033077
C395	C	1.067017	0.499900	0.283077
C396	C	1.317017	0.749900	0.533077
C397	C	0.567806	-0.000093	-0.294422
C398	C	0.817806	0.249907	-0.044422
C399	C	1.067806	0.499907	0.205578
C400	C	1.317806	0.749907	0.455578
C401	C	0.617504	-0.000141	0.161175
C402	C	0.867504	0.249859	0.411175
C403	C	1.117504	0.499859	0.661175
C404	C	1.367504	0.749859	0.911175
C405	C	0.616762	-0.000133	0.233994
C406	C	0.866762	0.249867	0.483994
C407	C	1.116762	0.499867	0.733994
C408	C	1.366762	0.749867	0.983994
C409	C	0.572338	-0.000123	0.261595
C410	C	0.822338	0.249877	0.511595
C411	C	1.072338	0.499877	0.761595
C412	C	1.322338	0.749877	1.011595
C413	C	0.528653	-0.000108	0.216370
C414	C	0.778653	0.249892	0.466370
C415	C	1.028653	0.499892	0.716370
C416	C	1.278653	0.749892	0.966370
C417	C	0.529396	-0.000111	0.143553
C418	C	0.779396	0.249889	0.393553
C419	C	1.029396	0.499889	0.643553
C420	C	1.279396	0.749889	0.893553
N421	N	0.538373	-0.028348	0.369374
N422	N	0.788373	0.221652	0.619374
N423	N	1.038373	0.471652	0.869374
N424	N	1.288373	0.721652	1.119374
N425	N	0.537670	-0.028346	0.438548
N426	N	0.787670	0.221654	0.688548
N427	N	1.037670	0.471654	0.938548
N428	N	1.287670	0.721654	1.188548
C429	C	0.570096	-0.000112	0.480989
C430	C	0.820096	0.249888	0.730989
C431	C	1.070096	0.499888	0.980989
C432	C	1.320096	0.749888	1.230989
N433	N	0.603259	0.028113	0.451644
N434	N	0.853259	0.278113	0.701644
N435	N	1.103259	0.528113	0.951644
N436	N	1.353259	0.778113	1.201644
N437	N	0.603964	0.028109	0.382464
N438	N	0.853964	0.278109	0.632464
N439	N	1.103964	0.528109	0.882464
N440	N	1.353964	0.778109	1.132464
C441	C	0.571527	-0.000119	0.340552
C442	C	0.821527	0.249881	0.590552
C443	C	1.071527	0.499881	0.840552
C444	C	1.321527	0.749881	1.090552
C445	C	0.612975	-0.000115	0.605163
C446	C	0.862975	0.249885	0.855163
C447	C	1.112975	0.499885	1.105163
C448	C	1.362975	0.749885	1.355163
C449	C	0.612231	-0.000104	0.677982
C450	C	0.862231	0.249896	0.927982
C451	C	1.112231	0.499896	1.177982
C452	C	1.362231	0.749896	1.427982
C453	C	0.524120	-0.000084	0.660357
C454	C	0.774120	0.249916	0.910357
C455	C	1.024120	0.499916	1.160357
C456	C	1.274120	0.749916	1.410357
C457	C	0.524865	-0.000090	0.587538
C458	C	0.774865	0.249910	0.837538
C459	C	1.024865	0.499910	1.087538
C460	C	1.274865	0.749910	1.337538
C461	C	0.569294	-0.000108	0.559946
C462	C	0.819294	0.249892	0.809946
C463	C	1.069294	0.499892	1.059946
C464	C	1.319294	0.749892	1.309946
H465	H	-0.050544	-0.127387	-0.087401
H466	H	0.199456	0.122613	0.162599
H467	H	0.449456	0.372613	0.412599
H468	H	0.699456	0.622613	0.662599
H469	H	0.493826	-0.000102	0.106738
H470	H	0.743826	0.249898	0.356738
H471	H	0.993826	0.499898	0.606738
H472	H	1.243826	0.749898	0.856738
H473	H	0.623867	-0.771263	-0.165522
H474	H	0.873867	-0.521263	0.084478
H475	H	1.123867	-0.271263	0.334478
H476	H	1.373867	-0.021263	0.584478
H477	H	0.517822	-0.771306	-0.012929
H478	H	0.767822	-0.521306	0.237071
H479	H	1.017822	-0.271306	0.487071
H480	H	1.267822	-0.021306	0.737071
Br481	Br	0.639742	-0.880173	-0.188339
Br482	Br	0.889742	-0.630173	0.061661
Br483	Br	1.139742	-0.380173	0.311661
Br484	Br	1.389742	-0.130173	0.561661
H485	H	0.489296	-0.000083	0.550723
H486	H	0.739296	0.249917	0.800723
H487	H	0.989296	0.499917	1.050723
H488	H	1.239296	0.749917	1.300723
Br489	Br	0.639695	-0.243086	-0.188347
Br490	Br	0.889695	0.006914	0.061653
Br491	Br	1.139695	0.256914	0.311653
Br492	Br	1.389695	0.506914	0.561653
H493	H	-0.282453	0.081911	-0.084017
H494	H	-0.032453	0.331911	0.165983
H495	H	0.217547	0.581911	0.415983
H496	H	0.467547	0.831911	0.665983
Br497	Br	0.639666	-0.120015	-0.188363
Br498	Br	0.889666	0.129985	0.061637
Br499	Br	1.139666	0.379985	0.311637
Br500	Br	1.389666	0.629985	0.561637
H501	H	0.652333	-0.000141	0.270815
H502	H	0.902333	0.249859	0.520815
H503	H	1.152333	0.499859	0.770815
H504	H	1.402333	0.749859	1.020815
H505	H	0.487949	-0.000073	0.682828
H506	H	0.737949	0.249927	0.932828
H507	H	0.987949	0.499927	1.182828
H508	H	1.237949	0.749927	1.432828
H509	H	0.424092	0.081964	-0.094459
H510	H	0.674092	0.331964	0.155541
H511	H	0.924092	0.581964	0.405541
H512	H	1.174092	0.831964	0.655541
Br513	Br	0.501956	-0.880208	0.009884
Br514	Br	0.751956	-0.630208	0.259884
Br515	Br	1.001956	-0.380208	0.509884
Br516	Br	1.251956	-0.130208	0.759884
Br517	Br	0.205858	0.151719	-0.091220
Br518	Br	0.455858	0.401719	0.158780
Br519	Br	0.705858	0.651719	0.408780
Br520	Br	0.955858	0.901719	0.658780
H521	H	0.040910	-0.127384	-0.088751
H522	H	0.290910	0.122616	0.161249
H523	H	0.540910	0.372616	0.411249
H524	H	0.790910	0.622616	0.661249
Br525	Br	0.205844	-0.151917	-0.091202
Br526	Br	0.455844	0.098083	0.158798
Br527	Br	0.705844	0.348083	0.408798
Br528	Br	0.955844	0.598083	0.658798
Br529	Br	0.087023	0.151719	-0.089467
Br530	Br	0.337023	0.401719	0.160533
Br531	Br	0.587023	0.651719	0.410533
Br532	Br	0.837023	0.901719	0.660533
Br533	Br	0.472710	-0.516936	0.051935
Br534	Br	0.722710	-0.266936	0.301935
Br535	Br	0.972710	-0.016936	0.551935
Br536	Br	1.222710	0.233064	0.801935
H537	H	0.100709	-0.127372	-0.089645
H538	H	0.350709	0.122628	0.160355
H539	H	0.600709	0.372628	0.410355
H540	H	0.850709	0.622628	0.660355
Br541	Br	0.668939	-0.516865	-0.230398
Br542	Br	0.918939	-0.266865	0.019602
Br543	Br	1.168939	-0.016865	0.269602
Br544	Br	1.418939	0.233135	0.519602
Br545	Br	0.668950	-0.639948	-0.230381
Br546	Br	0.918950	-0.389948	0.019619
Br547	Br	1.168950	-0.139948	0.269619
Br548	Br	1.418950	0.110052	0.519619
H549	H	-0.190997	0.081923	-0.085356
H550	H	0.059003	0.331923	0.164644
H551	H	0.309003	0.581923	0.414644
H552	H	0.559003	0.831923	0.664644
Br553	Br	0.472718	-0.360272	0.051971
Br554	Br	0.722718	-0.110272	0.301971
Br555	Br	0.972718	0.139728	0.551971
Br556	Br	1.222718	0.389728	0.801971
H557	H	0.332629	-0.082139	-0.093087
H558	H	0.582629	0.167861	0.156913
H559	H	0.832629	0.417861	0.406913
H560	H	1.082629	0.667861	0.656913
Br561	Br	-0.064218	0.151707	-0.087233
Br562	Br	0.185782	0.401707	0.162767
Br563	Br	0.435782	0.651707	0.412767
Br564	Br	0.685782	0.901707	0.662767
Br565	Br	0.673269	-0.000144	0.567711
Br566	Br	0.923269	0.249856	0.817711
Br567	Br	1.173269	0.499856	1.067711
Br568	Br	1.423269	0.749856	1.317711
H569	H	0.647802	-0.000111	0.714796
H570	H	0.897802	0.249889	0.964796
H571	H	1.147802	0.499889	1.214796
H572	H	1.397802	0.749889	1.464796
Br573	Br	0.472728	-0.640003	0.051948
Br574	Br	0.722728	-0.390003	0.301948
Br575	Br	0.972728	-0.140003	0.551948
Br576	Br	1.222728	0.109997	0.801948
Br577	Br	0.318939	0.106514	-0.092909
Br578	Br	0.568939	0.356514	0.157091
Br579	Br	0.818939	0.606514	0.407091
Br580	Br	1.068939	0.856514	0.657091
H581	H	-0.190987	-0.082180	-0.085363
H582	H	0.059013	0.167820	0.164637
H583	H	0.309013	0.417820	0.414637
H584	H	0.559013	0.667820	0.664637
Br585	Br	0.437764	-0.106682	-0.094663
Br586	Br	0.687764	0.143318	0.155337
Br587	Br	0.937764	0.393318	0.405337
Br588	Br	1.187764	0.643318	0.655337
Br589	Br	0.668916	-0.360216	-0.230414
Br590	Br	0.918916	-0.110216	0.019586
Br591	Br	1.168916	0.139784	0.269586
Br592	Br	1.418916	0.389784	0.519586
H593	H	0.653073	-0.469114	-0.207561
H594	H	0.903073	-0.219114	0.042439
H595	H	1.153073	0.030886	0.292439
H596	H	1.403073	0.280886	0.542439
H597	H	0.492482	-0.000099	0.238847
H598	H	0.742482	0.249901	0.488847
H599	H	0.992482	0.499901	0.738847
H600	H	1.242482	0.749901	0.988847
Br601	Br	0.501903	-0.243150	0.009886
Br602	Br	0.751903	0.006850	0.259886
Br603	Br	1.001903	0.256850	0.509886
Br604	Br	1.251903	0.506850	0.759886
Br605	Br	-0.296144	-0.106735	-0.083802
Br606	Br	-0.046144	0.143265	0.166198
Br607	Br	0.203856	0.393265	0.416198
Br608	Br	0.453856	0.643265	0.666198
Br609	Br	0.677800	-0.000152	0.123731
Br610	Br	0.927800	0.249848	0.373731
Br611	Br	1.177800	0.499848	0.623731
Br612	Br	1.427800	0.749848	0.873731
H613	H	0.040916	0.127162	-0.088782
H614	H	0.290916	0.377162	0.161218
H615	H	0.540916	0.627162	0.411218
H616	H	0.790916	0.877162	0.661218
H617	H	0.488582	-0.469165	0.029133
H618	H	0.738582	-0.219165	0.279133
H619	H	0.988582	0.030835	0.529133
H620	H	1.238582	0.280835	0.779133
Br621	Br	0.501895	-0.120057	0.009882
Br622	Br	0.751895	0.129943	0.259882
Br623	Br	1.001895	0.379943	0.509882
Br624	Br	1.251895	0.629943	0.759882
