data_functionalizedCrystal
_audit_creation_method	'MofGen! by Chris Wilmer'
_symmetry_space_group_name_H-M	'P1'
_symmetry_Int_Tables_number	1
_symmetry_cell_setting	triclinic
loop_
_symmetry_equiv_pos_as_xyz
  x,y,z
_cell_length_a	13.897449
_cell_length_b	29.839131
_cell_length_c	13.897441
_cell_angle_alpha	89.958174
_cell_angle_beta	89.978743
_cell_angle_gamma	90.036054
loop_
_atom_site_label
_atom_site_type_symbol
_atom_site_fract_x
_atom_site_fract_y
_atom_site_fract_z
Zn1	Zn	1.474565	-0.178833	-0.545368
Zn2	Zn	1.974565	0.321167	-0.045368
Zn3	Zn	1.474415	-0.253967	-0.384035
Zn4	Zn	1.974415	0.246033	0.115965
Zn5	Zn	1.313260	-0.178853	-0.384079
Zn6	Zn	1.813260	0.321147	0.115921
Zn7	Zn	1.313186	-0.253938	-0.545280
Zn8	Zn	1.813186	0.246062	-0.045280
O9	O	1.393857	-0.216398	-0.464690
O10	O	1.893857	0.283602	0.035310
O11	O	1.609527	-0.188804	-0.523985
O12	O	2.109527	0.311196	-0.023985
O13	O	1.453006	-0.244023	-0.249059
O14	O	1.953006	0.255977	0.250941
O15	O	1.334751	-0.115983	-0.405529
O16	O	1.834751	0.384017	0.094471
O17	O	1.609417	-0.244004	-0.405454
O18	O	2.109417	0.255996	0.094546
O19	O	1.453261	-0.115969	-0.524028
O20	O	1.953261	0.384031	-0.024028
O21	O	1.334606	-0.188837	-0.249091
O22	O	1.834606	0.311163	0.250909
O23	O	1.178269	-0.188809	-0.405444
O24	O	1.678269	0.311191	0.094556
O25	O	1.334625	-0.243955	-0.680273
O26	O	1.834625	0.256045	-0.180273
O27	O	1.178214	-0.243974	-0.523878
O28	O	1.678214	0.256026	-0.023878
O29	O	1.453189	-0.188776	-0.680338
O30	O	1.953189	0.311224	-0.180338
O31	O	1.452935	-0.316830	-0.405369
O32	O	1.952935	0.183170	0.094631
O33	O	1.334480	-0.316809	-0.523835
O34	O	1.834480	0.183191	-0.023835
C35	C	1.143242	-0.216391	-0.464657
C36	C	1.643242	0.283609	0.035343
C37	C	1.036028	-0.216399	-0.464665
C38	C	1.536028	0.283601	0.035335
C39	C	0.948959	-0.216400	-0.464681
C40	C	1.448959	0.283600	0.035319
C41	C	0.839726	-0.216404	-0.464711
C42	C	1.339726	0.283596	0.035289
C43	C	1.393709	-0.333120	-0.464609
C44	C	1.893709	0.166880	0.035391
C45	C	1.393735	-0.383055	-0.464607
C46	C	1.893735	0.116945	0.035393
C47	C	1.455551	-0.692656	-0.526480
C48	C	1.955551	-0.192656	-0.026480
C49	C	1.455656	-0.880329	-0.526538
C50	C	1.955656	-0.380329	-0.026538
O51	O	1.508070	-0.904558	-0.579085
O52	O	2.008070	-0.404558	-0.079085
N53	N	1.394020	-0.903840	-0.464797
N54	N	1.894020	-0.403840	0.035203
C55	C	1.332350	-0.880430	-0.403042
C56	C	1.832350	-0.380430	0.096958
O57	O	1.279920	-0.904734	-0.350536
O58	O	1.779920	-0.404734	0.149464
C59	C	1.332241	-0.692758	-0.402990
C60	C	1.832241	-0.192758	0.097010
C61	C	1.393887	-0.669249	-0.464728
C62	C	1.893887	-0.169249	0.035272
C63	C	1.517192	-0.669147	-0.588214
C64	C	2.017192	-0.169147	-0.088214
C65	C	1.517169	-0.622232	-0.588195
C66	C	2.017169	-0.122232	-0.088195
C67	C	1.455505	-0.598825	-0.526443
C68	C	1.955505	-0.098825	-0.026443
C69	C	1.393864	-0.622334	-0.464709
C70	C	1.893864	-0.122334	0.035291
C71	C	1.270566	-0.669348	-0.341240
C72	C	1.770566	-0.169348	0.158760
C73	C	1.270543	-0.622427	-0.341234
C74	C	1.770543	-0.122427	0.158766
C75	C	1.332189	-0.598919	-0.402972
C76	C	1.832189	-0.098919	0.097028
C77	C	1.332177	-0.552011	-0.402937
C78	C	1.832177	-0.052011	0.097063
N79	N	1.393813	-0.528500	-0.464678
N80	N	1.893813	-0.028500	0.035322
C81	C	1.455477	-0.551907	-0.526431
C82	C	1.955477	-0.051907	-0.026431
C83	C	1.332413	-0.978960	-0.403073
C84	C	1.832413	-0.478960	0.096927
C85	C	1.332441	-1.025878	-0.403084
C86	C	1.832441	-0.525878	0.096916
C87	C	1.455746	-1.025774	-0.526582
C88	C	1.955746	-0.525774	-0.026582
C89	C	1.455722	-0.978855	-0.526565
C90	C	1.955722	-0.478855	-0.026565
C91	C	1.394048	-0.955449	-0.464814
C92	C	1.894048	-0.455449	0.035186
C93	C	1.455424	-0.453381	-0.526386
C94	C	1.955424	0.046619	-0.026386
C95	C	1.455399	-0.406462	-0.526359
C96	C	1.955399	0.093538	-0.026359
C97	C	1.332090	-0.406570	-0.402865
C98	C	1.832090	0.093430	0.097135
C99	C	1.332119	-0.453485	-0.402888
C100	C	1.832119	0.046515	0.097112
C101	C	1.393789	-0.476890	-0.464657
C102	C	1.893789	0.023110	0.035343
O103	O	1.279783	-0.527754	-0.350426
O104	O	1.779783	-0.027754	0.149574
O105	O	1.507883	-0.527595	-0.578944
O106	O	2.007883	-0.027595	-0.078944
C107	C	1.455574	-0.739571	-0.526499
C108	C	1.955574	-0.239571	-0.026499
C109	C	1.393934	-0.763080	-0.464765
C110	C	1.893934	-0.263080	0.035235
C111	C	1.332270	-0.739673	-0.403013
C112	C	1.832270	-0.239673	0.096987
C113	C	1.393962	-0.809998	-0.464777
C114	C	1.893962	-0.309998	0.035223
C115	C	1.455626	-0.833405	-0.526530
C116	C	1.955626	-0.333405	-0.026530
C117	C	1.517261	-0.809894	-0.588271
C118	C	2.017261	-0.309894	-0.088271
C119	C	1.517238	-0.762978	-0.588252
C120	C	2.017238	-0.262978	-0.088252
C121	C	1.270634	-0.763184	-0.341272
C122	C	1.770634	-0.263184	0.158728
C123	C	1.270663	-0.810100	-0.341295
C124	C	1.770663	-0.310100	0.158705
C125	C	1.332327	-0.833506	-0.403048
C126	C	1.832327	-0.333506	0.096952
C127	C	1.645449	-0.216405	-0.464725
C128	C	2.145449	0.283595	0.035275
C129	C	1.752663	-0.216408	-0.464739
C130	C	2.252663	0.283592	0.035261
C131	C	1.393916	-0.216360	-0.716284
C132	C	1.893916	0.283640	-0.216284
C133	C	1.393941	-0.216344	-0.823498
C134	C	1.893941	0.283656	-0.323498
C135	C	1.394031	-0.099220	-0.464793
C136	C	1.894031	0.400780	0.035207
C137	C	1.394105	-0.049285	-0.464837
C138	C	1.894105	0.450715	0.035163
C139	C	1.393961	-0.216331	-0.910567
C140	C	1.893961	0.283669	-0.410567
C141	C	1.393988	-0.216311	-1.019800
C142	C	1.893988	0.283689	-0.519800
C143	C	1.393853	-0.216403	-0.214076
C144	C	1.893853	0.283597	0.285924
C145	C	1.394015	-0.216293	-0.106863
C146	C	1.894015	0.283707	0.393137
H147	H	1.505602	-0.387323	-0.576634
H148	H	2.005602	0.112677	-0.076634
C149	C	1.577303	-0.448553	-0.648459
C150	C	2.077303	0.051447	-0.148459
C151	C	1.523211	-0.479103	-0.594284
C152	C	2.023211	0.020897	-0.094284
H153	H	1.619155	-0.464433	-0.690370
H154	H	2.119155	0.035567	-0.190370
H155	H	1.535241	-0.430255	-0.685299
H156	H	2.035241	0.069745	-0.185299
H157	H	1.614210	-0.430256	-0.606445
H158	H	2.114210	0.069744	-0.106445
H159	H	1.486298	-0.497397	-0.636297
H160	H	1.986298	0.002603	-0.136297
H161	H	1.565278	-0.497408	-0.557441
H162	H	2.065278	0.002592	-0.057441
H163	H	1.567406	-0.688200	-0.638506
H164	H	2.067406	-0.188200	-0.138506
H165	H	1.281887	-0.387505	-0.352584
H166	H	1.781887	0.112495	0.147416
H167	H	1.567474	-0.828960	-0.638549
H168	H	2.067474	-0.328960	-0.138549
H169	H	1.505919	-0.959717	-0.576838
H170	H	2.005919	-0.459717	-0.076838
H171	H	1.220367	-0.688481	-0.290966
H172	H	1.720367	-0.188481	0.209034
C173	C	1.510517	-1.097654	-0.581438
C174	C	2.010517	-0.597654	-0.081438
C175	C	1.523521	-1.051509	-0.594470
C176	C	2.023521	-0.551509	-0.094470
H177	H	1.552348	-1.113542	-0.623355
H178	H	2.052348	-0.613542	-0.123355
H179	H	1.524687	-1.105359	-0.516652
H180	H	2.024687	-0.605359	-0.016652
H181	H	1.445695	-1.105356	-0.595483
H182	H	1.945695	-0.605356	-0.095483
H183	H	1.588342	-1.043806	-0.580417
H184	H	2.088342	-0.543806	-0.080417
H185	H	1.509357	-1.043801	-0.659270
H186	H	2.009357	-0.543801	-0.159270
C187	C	1.210553	-1.021257	-0.281018
C188	C	1.710553	-0.521257	0.218982
C189	C	1.264683	-1.051716	-0.335214
C190	C	1.764683	-0.551716	0.164786
H191	H	1.168714	-1.037207	-0.239125
H192	H	1.668714	-0.537207	0.260875
H193	H	1.252592	-1.002956	-0.244159
H194	H	1.752592	-0.502956	0.255841
H195	H	1.173630	-1.002954	-0.323020
H196	H	1.673630	-0.502954	0.176980
H197	H	1.301612	-1.070016	-0.293213
H198	H	1.801612	-0.570016	0.206787
H199	H	1.222638	-1.070024	-0.372076
H200	H	1.722638	-0.570024	0.127924
H201	H	1.220317	-0.603372	-0.290950
H202	H	1.720317	-0.103372	0.209050
C203	C	1.639043	-0.626856	-0.710271
C204	C	2.139043	-0.126856	-0.210271
C205	C	1.584925	-0.596395	-0.656069
C206	C	2.084925	-0.096395	-0.156069
H207	H	1.680869	-0.610907	-0.752180
H208	H	2.180869	-0.110907	-0.252180
H209	H	1.675971	-0.645155	-0.668282
H210	H	2.175971	-0.145155	-0.168282
H211	H	1.596989	-0.645160	-0.747123
H212	H	2.096989	-0.145160	-0.247123
H213	H	1.626980	-0.578094	-0.619211
H214	H	2.126980	-0.078094	-0.119211
H215	H	1.547995	-0.578088	-0.698063
H216	H	2.047995	-0.078088	-0.198063
C217	C	1.148763	-0.805478	-0.219231
C218	C	1.648763	-0.305478	0.280769
C219	C	1.202892	-0.835937	-0.273427
C220	C	1.702892	-0.335937	0.226573
H221	H	1.106918	-0.821429	-0.177344
H222	H	1.606918	-0.321429	0.322656
H223	H	1.190803	-0.787181	-0.182364
H224	H	1.690803	-0.287181	0.317636
H225	H	1.111847	-0.787172	-0.261232
H226	H	1.611847	-0.287172	0.238768
H227	H	1.239814	-0.854240	-0.231426
H228	H	1.739814	-0.354240	0.268574
H229	H	1.160847	-0.854242	-0.310297
H230	H	1.660847	-0.354242	0.189703
C231	C	1.210232	-0.448873	-0.280817
C232	C	1.710232	0.051127	0.219183
C233	C	1.264360	-0.479329	-0.335024
C234	C	1.764360	0.020671	0.164976
H235	H	1.168391	-0.464826	-0.238930
H236	H	1.668391	0.035174	0.261070
H237	H	1.252273	-0.430577	-0.243950
H238	H	1.752273	0.069423	0.256050
H239	H	1.173312	-0.430566	-0.322812
H240	H	1.673312	0.069434	0.177188
H241	H	1.301286	-0.497633	-0.293029
H242	H	1.801286	0.002367	0.206971
H243	H	1.222314	-0.497633	-0.371894
H244	H	1.722314	0.002367	0.128106
C245	C	1.639113	-0.767603	-0.710327
C246	C	2.139113	-0.267603	-0.210327
C247	C	1.584995	-0.737142	-0.656125
C248	C	2.084995	-0.237142	-0.156125
H249	H	1.680939	-0.751653	-0.752236
H250	H	2.180939	-0.251653	-0.252236
H251	H	1.676040	-0.785902	-0.668338
H252	H	2.176040	-0.285902	-0.168338
H253	H	1.597058	-0.785906	-0.747179
H254	H	2.097058	-0.285906	-0.247179
H255	H	1.627049	-0.718840	-0.619267
H256	H	2.127049	-0.218840	-0.119267
H257	H	1.548064	-0.718835	-0.698120
H258	H	2.048064	-0.218835	-0.198120
C259	C	1.202615	-0.926267	-0.389510
C260	C	1.702615	-0.426267	0.110490
C261	C	1.264618	-0.953238	-0.335183
C262	C	1.764618	-0.453238	0.164817
H263	H	1.160761	-0.910391	-0.347593
H264	H	1.660761	-0.410391	0.152407
H265	H	1.239312	-0.905547	-0.426263
H266	H	1.739312	-0.405547	0.073737
H267	H	1.165712	-0.944573	-0.431506
H268	H	1.665712	-0.444573	0.068494
H269	H	1.301527	-0.934931	-0.293191
H270	H	1.801527	-0.434931	0.206809
H271	H	1.227918	-0.973959	-0.298413
H272	H	1.727918	-0.473959	0.201587
C273	C	1.140851	-0.710486	-0.327706
C274	C	1.640851	-0.210486	0.172294
C275	C	1.202849	-0.737461	-0.273383
C276	C	1.702849	-0.237461	0.226617
H277	H	1.099000	-0.694610	-0.285786
H278	H	1.599000	-0.194610	0.214214
H279	H	1.177550	-0.689767	-0.364457
H280	H	1.677550	-0.189767	0.135543
H281	H	1.103943	-0.728790	-0.369704
H282	H	1.603943	-0.228790	0.130296
H283	H	1.239762	-0.719157	-0.231389
H284	H	1.739762	-0.219157	0.268611
H285	H	1.166146	-0.758182	-0.236616
H286	H	1.666146	-0.258182	0.263384
