data_functionalizedCrystal
_audit_creation_method	'MofGen! by Chris Wilmer'
_symmetry_space_group_name_H-M	'P1'
_symmetry_Int_Tables_number	1
_symmetry_cell_setting	triclinic
loop_
_symmetry_equiv_pos_as_xyz
  x,y,z
_cell_length_a	19.188930
_cell_length_b	13.330367
_cell_length_c	14.853559
_cell_angle_alpha	89.997552
_cell_angle_beta	83.388118
_cell_angle_gamma	89.978569
loop_
_atom_site_label
_atom_site_type_symbol
_atom_site_fract_x
_atom_site_fract_y
_atom_site_fract_z
O1	O	0.926521	-0.083741	0.112553
O2	O	1.426521	0.416259	0.612553
O3	O	0.723260	-0.083672	0.127704
O4	O	1.223260	0.416328	0.627704
O5	O	0.830323	-0.083707	-0.011132
O6	O	1.330323	0.416293	0.488868
O7	O	0.819458	-0.083706	0.251389
O8	O	1.319458	0.416294	0.751389
O9	O	0.830307	0.083140	-0.011135
O10	O	1.330307	0.583140	0.488865
O11	O	0.723244	0.083175	0.127701
O12	O	1.223244	0.583175	0.627701
O13	O	0.926505	0.083106	0.112550
O14	O	1.426505	0.583106	0.612550
Cu15	Cu	0.824873	0.098375	0.120125
Cu16	Cu	1.324873	0.598375	0.620125
Cu17	Cu	0.824892	-0.098941	0.120129
Cu18	Cu	1.324892	0.401059	0.620129
O19	O	0.819442	0.083141	0.251386
O20	O	1.319442	0.583141	0.751386
C21	C	0.697239	-0.000240	0.127212
C22	C	1.197239	0.499760	0.627212
C23	C	0.619730	-0.000213	0.125739
C24	C	1.119730	0.499787	0.625739
N25	N	0.824865	0.237156	0.120122
N26	N	1.324865	0.737156	0.620122
N27	N	0.824905	-0.237723	0.120125
N28	N	1.324905	0.262277	0.620125
C29	C	0.575076	-0.000228	0.207204
C30	C	1.075076	0.499772	0.707204
C31	C	0.502247	-0.000240	0.205820
C32	C	1.002247	0.499760	0.705820
C33	C	0.474076	-0.000255	0.122967
C34	C	0.974076	0.499745	0.622967
C35	C	0.518740	-0.000235	0.041492
C36	C	1.018740	0.499765	0.541492
C37	C	0.591567	-0.000213	0.042878
C38	C	1.091567	0.499787	0.542878
N39	N	0.365892	-0.057082	0.059637
N40	N	0.865892	0.442918	0.559637
N41	N	0.296709	-0.057104	0.058326
N42	N	0.796709	0.442896	0.558326
C43	C	0.254654	-0.000317	0.118786
C44	C	0.754654	0.499683	0.618786
N45	N	0.284394	0.056481	0.180620
N46	N	0.784394	0.556481	0.680620
N47	N	0.353583	0.056498	0.181934
N48	N	0.853583	0.556498	0.681934
C49	C	0.395109	-0.000278	0.121455
C50	C	0.895109	0.499722	0.621455
C51	C	0.131030	-0.000343	0.198756
C52	C	0.631030	0.499657	0.698756
C53	C	0.058201	-0.000347	0.197368
C54	C	0.558201	0.499653	0.697368
C55	C	0.074696	-0.000353	0.033038
C56	C	0.574696	0.499647	0.533038
C57	C	0.147523	-0.000338	0.034427
C58	C	0.647523	0.499662	0.534427
C59	C	0.175686	-0.000337	0.117289
C60	C	0.675686	0.499663	0.617289
C61	C	0.952526	-0.000329	0.113042
C62	C	1.452526	0.499671	0.613042
C63	C	1.030035	-0.000362	0.114515
C64	C	1.530035	0.499638	0.614515
C65	C	0.829824	-0.000286	-0.044720
C66	C	1.329824	0.499714	0.455280
C67	C	0.828352	-0.000291	-0.144796
C68	C	1.328352	0.499709	0.355204
C69	C	0.777482	0.709795	0.181581
C70	C	1.277482	1.209795	0.681581
C71	C	0.872320	0.709732	0.058669
C72	C	1.372320	1.209732	0.558669
C73	C	0.872312	0.604713	0.058666
C74	C	1.372312	1.104713	0.558666
C75	C	0.824889	0.552231	0.120123
C76	C	1.324889	1.052231	0.620123
C77	C	0.777474	0.604767	0.181582
C78	C	1.277474	1.104767	0.681582
C79	C	0.919731	0.552169	-0.002786
C80	C	1.419731	1.052169	0.497214
C81	C	0.919726	0.447145	-0.002791
C82	C	1.419726	0.947145	0.497209
C83	C	0.872299	0.394660	0.058663
C84	C	1.372299	0.894660	0.558663
C85	C	0.824881	0.447203	0.120124
C86	C	1.324881	0.947203	0.620124
C87	C	0.777458	0.394721	0.181580
C88	C	1.277458	0.894721	0.681580
C89	C	0.730037	0.447261	0.243038
C90	C	1.230037	0.947261	0.743038
C91	C	0.730047	0.552283	0.243035
C92	C	1.230047	1.052283	0.743035
C93	C	0.872288	0.289639	0.058665
C94	C	1.372288	0.789639	0.558665
C95	C	0.777450	0.289692	0.181581
C96	C	1.277450	0.789692	0.681581
C97	C	0.822115	-0.091237	-0.567934
C98	C	1.322115	0.408763	-0.067934
C99	C	0.822098	0.090666	-0.567932
C100	C	1.322098	0.590666	-0.067932
C101	C	0.823487	0.090667	-0.473907
C102	C	1.323487	0.590667	0.026093
C103	C	0.824189	-0.000286	-0.426891
C104	C	1.324189	0.499714	0.073109
C105	C	0.823502	-0.091240	-0.473900
C106	C	1.323502	0.408760	0.026100
C107	C	0.824167	0.181618	-0.426889
C108	C	1.324167	0.681618	0.073111
C109	C	0.825555	0.181622	-0.332858
C110	C	1.325555	0.681622	0.167142
C111	C	0.826262	0.090668	-0.285841
C112	C	1.326262	0.590668	0.214159
C113	C	0.825576	-0.000289	-0.332856
C114	C	1.325576	0.499711	0.167144
C115	C	0.826278	-0.091241	-0.285840
C116	C	1.326278	0.408759	0.214160
C117	C	0.825597	-0.182199	-0.332854
C118	C	1.325597	0.317801	0.167146
C119	C	0.824209	-0.182193	-0.426883
C120	C	1.324209	0.317807	0.073117
C121	C	0.827650	0.090662	-0.191812
C122	C	1.327650	0.590662	0.308188
C123	C	0.827665	-0.091244	-0.191805
C124	C	1.327665	0.408756	0.308195
C125	C	0.819941	-0.000283	0.284973
C126	C	1.319941	0.499717	0.784973
C127	C	0.821413	-0.000284	0.385049
C128	C	1.321413	0.499716	0.885049
H129	H	0.598001	-0.000230	0.274676
H130	H	1.098001	0.499770	0.774676
H131	H	0.153961	-0.000328	0.266226
H132	H	0.653961	0.499672	0.766226
O133	O	0.923466	0.766338	-0.007610
O134	O	1.423466	1.266338	0.492390
H135	H	0.977900	0.746147	0.003709
H136	H	1.477900	1.246147	0.503709
O137	O	0.044316	-0.000365	-0.056324
O138	O	0.544316	0.499635	0.443676
H139	H	0.062217	0.067649	-0.095450
H140	H	0.562217	0.567649	0.404550
O141	O	0.828422	-0.189349	-0.141102
O142	O	1.328422	0.310651	0.358898
H143	H	0.829503	-0.174074	-0.067819
H144	H	1.329503	0.325926	0.432181
H145	H	0.021843	-0.000354	0.263709
H146	H	0.521843	0.499646	0.763709
O147	O	0.488360	-0.000244	-0.047872
O148	O	0.988360	0.499756	0.452128
H149	H	0.506324	-0.068237	-0.087012
H150	H	1.006324	0.431763	0.412988
O151	O	0.726302	0.233086	0.247870
O152	O	1.226302	0.733086	0.747870
H153	H	0.693336	0.287267	0.290605
H154	H	1.193336	0.787267	0.790605
H155	H	0.691439	0.595068	0.293073
H156	H	1.191439	1.095068	0.793073
H157	H	0.821522	0.164716	-0.606218
H158	H	1.321522	0.664716	-0.106218
H159	H	0.826163	-0.256253	-0.294560
H160	H	1.326163	0.243747	0.205440
H161	H	0.823654	-0.256246	-0.465170
H162	H	1.323654	0.243754	0.034830
O163	O	0.195689	-0.000333	-0.053442
O164	O	0.695689	0.499667	0.446558
H165	H	0.229232	0.067686	-0.056744
H166	H	0.729232	0.567686	0.443256
H167	H	0.691427	0.404518	0.293081
H168	H	1.191427	0.904518	0.793081
H169	H	0.738870	0.752576	0.231617
H170	H	1.238870	1.252576	0.731617
O171	O	0.970880	0.608769	-0.069067
O172	O	1.470880	1.108769	0.430933
H173	H	0.962912	0.690624	-0.058749
H174	H	1.462912	1.190624	0.441251
H175	H	0.821563	-0.165293	-0.606218
H176	H	1.321563	0.334707	-0.106218
H177	H	0.465883	-0.000249	0.272160
H178	H	0.965883	0.499751	0.772160
O179	O	0.639737	-0.000202	-0.044990
O180	O	1.139737	0.499798	0.455010
H181	H	0.607917	-0.000217	-0.102839
H182	H	1.107917	0.499783	0.397161
H183	H	0.958338	0.404373	-0.052833
H184	H	1.458338	0.904373	0.447167
O185	O	0.923426	0.232966	-0.007614
O186	O	1.423426	0.732966	0.492386
H187	H	0.956402	0.287104	-0.050350
H188	H	1.456402	0.787104	0.449650
O189	O	0.823427	0.279714	-0.477597
O190	O	1.323427	0.779714	0.022403
H191	H	0.822364	0.264432	-0.550883
H192	H	1.322364	0.764432	-0.050883
O193	O	0.826305	0.279719	-0.282153
O194	O	1.326305	0.779719	0.217847
H195	H	0.825591	0.342963	-0.330646
H196	H	1.325591	0.842963	0.169354
H197	H	0.828188	0.164719	-0.153534
H198	H	1.328188	0.664719	0.346466
