data_functionalizedCrystal
_audit_creation_method	'MofGen! by Chris Wilmer'
_symmetry_space_group_name_H-M	'P1'
_symmetry_Int_Tables_number	1
_symmetry_cell_setting	triclinic
loop_
_symmetry_equiv_pos_as_xyz
  x,y,z
_cell_length_a	15.298708
_cell_length_b	12.645330
_cell_length_c	15.296720
_cell_angle_alpha	99.648098
_cell_angle_beta	107.326883
_cell_angle_gamma	99.706632
loop_
_atom_site_label
_atom_site_type_symbol
_atom_site_fract_x
_atom_site_fract_y
_atom_site_fract_z
Zn1	Zn	1.330649	-0.208044	-0.280172
Zn2	Zn	1.357488	-0.348252	-0.124689
Zn3	Zn	1.202065	-0.208114	-0.151553
Zn4	Zn	1.175143	-0.422386	-0.306997
O5	O	1.266336	-0.296699	-0.215853
O6	O	1.464335	-0.195589	-0.237077
O7	O	1.359370	-0.298666	0.001872
O8	O	1.219157	-0.059753	-0.168630
O9	O	1.484053	-0.298599	-0.122844
O10	O	1.313627	-0.059702	-0.263126
O11	O	1.245181	-0.195707	-0.017865
O12	O	1.068368	-0.267592	-0.194642
O13	O	1.173272	-0.424950	-0.433563
O14	O	1.048589	-0.425017	-0.308847
O15	O	1.287522	-0.267474	-0.413855
O16	O	1.333265	-0.506437	-0.148856
O17	O	1.199297	-0.560903	-0.282798
C18	C	1.024739	-0.354357	-0.257571
C19	C	0.921378	-0.379055	-0.275440
C20	C	0.671046	-0.120505	-0.088366
C21	C	0.768158	-0.097295	-0.071578
C22	C	0.806468	-0.167733	-0.122542
C23	C	0.747656	-0.261385	-0.190297
C24	C	0.650534	-0.284592	-0.207092
C25	C	0.785956	-0.331820	-0.241268
C26	C	0.727144	-0.425472	-0.309024
C27	C	0.630031	-0.448676	-0.325815
C28	C	0.591721	-0.378238	-0.274851
C29	C	0.883078	-0.308613	-0.224473
C30	C	0.862566	-0.472700	-0.343199
C31	C	0.765454	-0.495910	-0.359987
C32	C	1.266293	-0.572135	-0.215839
C33	C	1.266355	-0.689954	-0.215849
C34	C	1.350544	-0.823202	-0.131461
C35	C	1.350747	-0.700628	-0.131596
C36	C	1.275958	-0.751379	-0.309280
C37	C	1.276593	-0.873750	-0.308799
C38	C	1.172367	-0.874779	-0.207778
C39	C	1.173219	-0.751538	-0.205498
C40	C	1.508877	-0.238816	-0.173972
C41	C	1.612234	-0.214150	-0.156125
C42	C	1.224400	-0.354473	-0.458392
C43	C	1.206529	-0.379093	-0.561748
C44	C	1.266401	-0.020187	-0.215883
C45	C	1.266429	0.097646	-0.215895
C46	C	1.394097	-0.120542	-0.812045
C47	C	1.410893	-0.097411	-0.714936
C48	C	1.359803	-0.167829	-0.676634
C49	C	1.291915	-0.261383	-0.735451
C50	C	1.275122	-0.284522	-0.832569
C51	C	1.240828	-0.331809	-0.697158
C52	C	1.172939	-0.425363	-0.755975
C53	C	1.156149	-0.448496	-0.853083
C54	C	1.207239	-0.378078	-0.891385
C55	C	1.257621	-0.308670	-0.600040
C56	C	1.138646	-0.472650	-0.620564
C57	C	1.121850	-0.495781	-0.717673
C58	C	1.308163	-0.239060	0.025753
C59	C	1.326214	-0.214099	0.129139
H60	H	0.639844	-0.063160	-0.046883
H61	H	1.346705	-0.657254	-0.061787
H62	H	0.512646	-0.397135	-0.288512
H63	H	0.582147	-0.524928	-0.380993
C64	C	1.345510	-0.845049	-0.036823
H65	H	1.292059	-0.902628	-0.047952
H66	H	1.340462	-0.779921	0.000651
H67	H	1.400925	-0.866134	-0.004789
H68	H	1.165671	-0.710114	-0.136824
H69	H	1.420760	-0.657781	-0.135618
H70	H	1.066574	-0.571954	-0.765575
H71	H	0.717555	-0.572162	-0.415155
H72	H	1.160360	-0.894801	-0.141721
H73	H	1.097046	-0.529992	-0.589379
H74	H	1.312896	-0.232497	-0.552161
H75	H	0.930953	-0.232358	-0.169309
C76	C	0.913290	-0.142210	-0.104068
H77	H	0.942831	-0.076353	-0.056410
H78	H	0.924903	-0.133039	-0.160298
H79	H	0.938045	-0.201491	-0.084074
H80	H	1.344843	-0.890164	-0.317649
H81	H	0.893756	-0.530054	-0.384701
C82	C	1.087978	-0.948098	-0.291126
H83	H	1.031346	-0.931049	-0.285837
H84	H	1.086021	-1.023439	-0.290477
H85	H	1.094507	-0.935023	-0.348488
H86	H	0.816037	-0.021045	-0.016408
C87	C	1.444644	-0.846611	-0.136735
H88	H	1.432891	-0.904409	-0.190172
H89	H	1.476430	-0.867909	-0.081334
H90	H	1.482658	-0.781954	-0.141973
H91	H	1.217084	-0.928581	-0.372957
C92	C	1.188765	-0.403529	-0.998205
H93	H	1.141017	-0.469331	-1.027751
H94	H	1.244969	-0.412772	-1.009811
H95	H	1.168895	-0.344186	-1.022958
H96	H	1.215823	-0.747465	-0.373147
H97	H	1.343334	-0.708771	-0.318625
H98	H	1.373483	-0.148990	-0.597563
C99	C	1.485561	0.005491	-0.650246
H100	H	1.513578	0.044122	-0.686964
H101	H	1.532617	-0.016369	-0.605362
H102	H	1.456548	0.052223	-0.618511
C103	C	1.085842	-0.744005	-0.284327
H104	H	1.105106	-0.703028	-0.324768
H105	H	1.046979	-0.708220	-0.257380
H106	H	1.051545	-0.816130	-0.319484
C107	C	1.450284	-0.043093	-0.854179
H108	H	1.430554	-0.070270	-0.920439
H109	H	1.515511	-0.039902	-0.827476
H110	H	1.439436	0.028682	-0.840627
H111	H	1.100877	-0.524682	-0.900968
