data_functionalizedCrystal
_audit_creation_method	'MofGen! by Chris Wilmer'
_symmetry_space_group_name_H-M	'P1'
_symmetry_Int_Tables_number	1
_symmetry_cell_setting	triclinic
loop_
_symmetry_equiv_pos_as_xyz
  x,y,z
_cell_length_a	19.121215
_cell_length_b	19.120785
_cell_length_c	12.759393
_cell_angle_alpha	87.522438
_cell_angle_beta	87.531628
_cell_angle_gamma	94.788068
loop_
_atom_site_label
_atom_site_type_symbol
_atom_site_fract_x
_atom_site_fract_y
_atom_site_fract_z
Zn1	Zn	1.063790	-0.234315	-0.647135
Zn2	Zn	1.563790	0.265685	-0.147135
Zn3	Zn	1.058677	-0.352007	-0.463595
Zn4	Zn	1.558677	0.147993	0.036405
Zn5	Zn	0.946114	-0.239358	-0.463613
Zn6	Zn	1.446114	0.260642	0.036387
Zn7	Zn	0.941072	-0.356961	-0.631385
Zn8	Zn	1.441072	0.143039	-0.131385
O9	O	1.002413	-0.295660	-0.551432
O10	O	1.502413	0.204340	-0.051432
O11	O	1.161578	-0.245743	-0.629372
O12	O	1.661578	0.254257	-0.129372
O13	O	1.043716	-0.337101	-0.316572
O14	O	1.543716	0.162899	0.183428
O15	O	0.965974	-0.140218	-0.494557
O16	O	1.465974	0.359782	0.005443
O17	O	1.157821	-0.332211	-0.494526
O18	O	1.657821	0.167789	0.005474
O19	O	1.052430	-0.136512	-0.629390
O20	O	1.552430	0.363488	-0.129390
O21	O	0.961016	-0.254339	-0.316585
O22	O	1.461016	0.245661	0.183415
O23	O	0.846979	-0.259142	-0.479284
O24	O	1.346979	0.240858	0.020716
O25	O	0.957381	-0.340654	-0.780500
O26	O	1.457381	0.159346	-0.280500
O27	O	0.843275	-0.345545	-0.602546
O28	O	1.343275	0.154455	-0.102546
O29	O	1.047541	-0.250547	-0.792071
O30	O	1.547541	0.249453	-0.292071
O31	O	1.038827	-0.451136	-0.479253
O32	O	1.538827	0.048864	0.020747
O33	O	0.952423	-0.454775	-0.602528
O34	O	1.452423	0.045225	-0.102528
C35	C	0.819596	-0.303429	-0.539208
C36	C	1.319596	0.196571	-0.039208
C37	C	0.741385	-0.306769	-0.534003
C38	C	1.241385	0.193231	-0.034003
C39	C	0.994542	-0.478487	-0.539204
C40	C	1.494542	0.021513	-0.039204
C41	C	0.991239	-0.556699	-0.534012
C42	C	1.491239	-0.056699	-0.034012
C43	C	0.298942	-0.327916	-0.501069
C44	C	0.798942	0.172084	-0.001069
C45	C	0.372430	-0.324774	-0.505953
C46	C	0.872430	0.175226	-0.005953
C47	C	0.411128	-0.278257	-0.578706
C48	C	0.911128	0.221743	-0.078706
C49	C	0.376336	-0.234875	-0.646574
C50	C	0.876336	0.265125	-0.146574
C51	C	0.302850	-0.238014	-0.641684
C52	C	0.802850	0.261986	-0.141684
C53	C	0.633107	-0.266526	-0.596981
C54	C	1.133107	0.233474	-0.096981
C55	C	0.706598	-0.263392	-0.601867
C56	C	1.206598	0.236608	-0.101867
C57	C	0.702687	-0.353290	-0.461244
C58	C	1.202687	0.146710	0.038756
C59	C	0.629199	-0.356429	-0.456366
C60	C	1.129199	0.143571	0.043634
C61	C	0.594413	-0.313044	-0.524229
C62	C	1.094413	0.186956	-0.024229
C63	C	0.486244	-0.275045	-0.583702
C64	C	0.986244	0.224955	-0.083702
C65	C	0.519299	-0.316252	-0.519228
C66	C	1.019299	0.183748	-0.019228
C67	C	0.970284	-0.999148	-0.501158
C68	C	1.470284	-0.499148	-0.001158
C69	C	0.973389	-0.925660	-0.506036
C70	C	1.473389	-0.425660	-0.006036
C71	C	1.019924	-0.886929	-0.578726
C72	C	1.519924	-0.386929	-0.078726
C73	C	1.063352	-0.921690	-0.646550
C74	C	1.563352	-0.421690	-0.146550
C75	C	1.060243	-0.995176	-0.641676
C76	C	1.560243	-0.495176	-0.141676
C77	C	1.031558	-0.664947	-0.596962
C78	C	1.531558	-0.164947	-0.096962
C79	C	1.034665	-0.591455	-0.601828
C80	C	1.534665	-0.091455	-0.101828
C81	C	0.944701	-0.595430	-0.461315
C82	C	1.444701	-0.095430	0.038685
C83	C	0.941599	-0.668918	-0.456443
C84	C	1.441599	-0.168918	0.043557
C85	C	0.985024	-0.703673	-0.524271
C86	C	1.485024	-0.203673	-0.024271
C87	C	1.023100	-0.811812	-0.583712
C88	C	1.523100	-0.311812	-0.083712
C89	C	0.981844	-0.778788	-0.519289
C90	C	1.481844	-0.278788	-0.019289
C91	C	1.185945	-0.287862	-0.563704
C92	C	1.685945	0.212138	-0.063704
C93	C	1.264155	-0.284539	-0.568934
C94	C	1.764155	0.215461	-0.068934
C95	C	1.002469	-0.295590	-0.825474
C96	C	1.502469	0.204410	-0.325474
C97	C	1.002493	-0.295561	-0.942254
C98	C	1.502493	0.204439	-0.442254
C99	C	1.010334	-0.112118	-0.563732
C100	C	1.510334	0.387882	-0.063732
C101	C	1.013710	-0.033904	-0.568974
C102	C	1.513710	0.466096	-0.068974
C103	C	1.049443	-0.248634	-1.003143
C104	C	1.549443	0.251366	-0.503143
C105	C	1.049456	-0.248604	-1.112870
C106	C	1.549456	0.251396	-0.612870
C107	C	0.955567	-0.342432	-1.100808
C108	C	1.455567	0.157568	-0.600808
C109	C	0.955551	-0.342458	-0.991083
C110	C	1.455551	0.157542	-0.491083
C111	C	1.002401	-0.295677	-0.278463
C112	C	1.502401	0.204323	0.221537
C113	C	1.002522	-0.295503	-0.161706
C114	C	1.502522	0.204497	0.338294
H115	H	0.267439	-0.365799	-0.441830
H116	H	0.767439	0.134201	0.058170
H117	H	1.087664	-0.210445	-0.963390
H118	H	1.587664	0.289555	-0.463390
C119	C	0.930684	-0.821394	-0.439294
C120	C	1.430684	-0.321394	0.060706
N121	N	0.892161	-0.853490	-0.379024
N122	N	1.392161	-0.353490	0.120976
C123	C	0.919091	-1.041746	-0.421192
C124	C	1.419091	-0.541746	0.078808
N125	N	0.880529	-1.073829	-0.360963
N126	N	1.380529	-0.573829	0.139037
H127	H	1.087686	-0.210390	-1.162443
H128	H	1.587686	0.289610	-0.662443
C129	C	0.740958	-0.401003	-0.386589
C130	C	1.240958	0.098997	0.113411
N131	N	0.769784	-0.436938	-0.330350
N132	N	1.269784	0.063062	0.169650
C133	C	0.476728	-0.367420	-0.439202
C134	C	0.976728	0.132580	0.060798
N135	N	0.444658	-0.405962	-0.378929
N136	N	0.944658	0.094038	0.121071
C137	C	0.903897	-0.394082	-0.924100
C138	C	1.403897	0.105918	-0.424100
N139	N	0.864991	-0.432961	-0.873648
N140	N	1.364991	0.067039	-0.373648
C141	C	0.896931	-0.557195	-0.386719
C142	C	1.396931	-0.057195	0.113281
N143	N	0.860945	-0.528395	-0.330534
N144	N	1.360945	-0.028395	0.169466
C145	C	1.114542	-0.879082	-0.726509
C146	C	1.614542	-0.379082	-0.226509
N147	N	1.153102	-0.846991	-0.786732
N148	N	1.653102	-0.346991	-0.286732
H149	H	0.407850	-0.196997	-0.705807
H150	H	0.907850	0.303003	-0.205807
H151	H	0.917350	-0.380615	-1.140578
H152	H	1.417350	0.119385	-0.640578
H153	H	0.400750	-0.360095	-0.450689
H154	H	0.900750	0.139905	0.049311
H155	H	0.597696	-0.394307	-0.397121
H156	H	1.097696	0.105693	0.102879
C157	C	1.085850	-0.548852	-0.681810
C158	C	1.585850	-0.048852	-0.181810
N159	N	1.124398	-0.516764	-0.742053
N160	N	1.624398	-0.016764	-0.242053
C161	C	0.890404	-0.711517	-0.376483
C162	C	1.390404	-0.211517	0.123517
N163	N	0.851844	-0.743603	-0.316254
N164	N	1.351844	-0.243603	0.183746
H165	H	1.066926	-0.693234	-0.652180
H166	H	1.566926	-0.193234	-0.152180
C167	C	1.108017	-1.033407	-0.716277
C168	C	1.608017	-0.533407	-0.216277
N169	N	1.144001	-1.062201	-0.772470
N170	N	1.644001	-0.562201	-0.272470
H171	H	0.738104	-0.225507	-0.661111
H172	H	1.238104	0.274493	-0.161111
H173	H	1.060991	-0.780271	-0.642896
H174	H	1.560991	-0.280271	-0.142896
C175	C	0.594851	-0.218806	-0.671641
C176	C	1.094851	0.281194	-0.171641
N177	N	0.566035	-0.182863	-0.727881
N178	N	1.066035	0.317137	-0.227881
H179	H	0.274527	-0.202689	-0.696944
H180	H	0.774527	0.297311	-0.196944
H181	H	0.517761	-0.237173	-0.642940
H182	H	1.017761	0.262827	-0.142940
H183	H	0.938028	-0.897362	-0.450815
H184	H	1.438028	-0.397362	0.049185
