data_functionalizedCrystal
_audit_creation_method	'MofGen! by Chris Wilmer'
_symmetry_space_group_name_H-M	'P1'
_symmetry_Int_Tables_number	1
_symmetry_cell_setting	triclinic
loop_
_symmetry_equiv_pos_as_xyz
  x,y,z
_cell_length_a	14.044191
_cell_length_b	14.044190
_cell_length_c	13.596369
_cell_angle_alpha	89.989293
_cell_angle_beta	89.997249
_cell_angle_gamma	93.191777
loop_
_atom_site_label
_atom_site_type_symbol
_atom_site_fract_x
_atom_site_fract_y
_atom_site_fract_z
O1	O	1.277179	0.230202	-0.081764
O2	O	1.527179	0.480202	0.168236
O3	O	1.777179	0.730202	0.418236
O4	O	2.027179	0.980202	0.668236
O5	O	1.000507	0.221890	-0.081776
O6	O	1.250507	0.471890	0.168224
O7	O	1.500507	0.721890	0.418224
O8	O	1.750507	0.971890	0.668224
O9	O	1.134687	0.087710	-0.081751
O10	O	1.384687	0.337710	0.168249
O11	O	1.634687	0.587710	0.418249
O12	O	1.884687	0.837710	0.668249
O13	O	1.142999	0.364382	-0.081789
O14	O	1.392999	0.614382	0.168211
O15	O	1.642999	0.864382	0.418211
O16	O	1.892999	1.114382	0.668211
O17	O	1.134671	0.087701	0.081832
O18	O	1.384671	0.337701	0.331832
O19	O	1.634671	0.587701	0.581832
O20	O	1.884671	0.837701	0.831832
O21	O	1.000492	0.221881	0.081807
O22	O	1.250492	0.471881	0.331807
O23	O	1.500492	0.721881	0.581807
O24	O	1.750492	0.971881	0.831807
O25	O	1.277164	0.230193	0.081819
O26	O	1.527164	0.480193	0.331819
O27	O	1.777164	0.730193	0.581819
O28	O	2.027164	0.980193	0.831819
Zn29	Zn	1.138825	0.226036	0.107785
Zn30	Zn	1.388825	0.476036	0.357785
Zn31	Zn	1.638825	0.726036	0.607785
Zn32	Zn	1.888825	0.976036	0.857785
Zn33	Zn	1.138846	0.226047	-0.107742
Zn34	Zn	1.388846	0.476047	0.142258
Zn35	Zn	1.638846	0.726047	0.392258
Zn36	Zn	1.888846	0.976047	0.642258
O37	O	1.142984	0.364373	0.081794
O38	O	1.392984	0.614373	0.331794
O39	O	1.642984	0.864373	0.581794
O40	O	1.892984	1.114373	0.831794
C41	C	0.964877	0.218249	0.000014
C42	C	1.214877	0.468249	0.250014
C43	C	1.464877	0.718249	0.500014
C44	C	1.714877	0.968249	0.750014
C45	C	0.858734	0.207401	0.000011
C46	C	1.108734	0.457401	0.250011
C47	C	1.358734	0.707401	0.500011
C48	C	1.608734	0.957401	0.750011
C49	C	1.131043	0.052083	0.000043
C50	C	1.381043	0.302083	0.250043
C51	C	1.631043	0.552083	0.500043
C52	C	1.881043	0.802083	0.750043
C53	C	1.120195	-0.054060	0.000051
C54	C	1.370195	0.195940	0.250051
C55	C	1.620195	0.445940	0.500051
C56	C	1.870195	0.695940	0.750051
C57	C	0.613277	0.264502	0.000013
C58	C	0.863277	0.514502	0.250013
C59	C	1.113277	0.764502	0.500013
C60	C	1.363277	1.014502	0.750013
C61	C	0.664400	0.187585	0.000022
C62	C	0.914400	0.437585	0.250022
C63	C	1.164400	0.687585	0.500022
C64	C	1.414400	0.937585	0.750022
C65	C	0.772537	0.198614	0.000015
C66	C	1.022537	0.448614	0.250015
C67	C	1.272537	0.698614	0.500015
C68	C	1.522537	0.948614	0.750015
C69	C	0.505130	0.253475	0.000019
C70	C	0.755130	0.503475	0.250019
C71	C	1.005130	0.753475	0.500019
C72	C	1.255130	1.003475	0.750019
C73	C	1.177296	-0.299517	0.000015
C74	C	1.427296	-0.049517	0.250015
C75	C	1.677296	0.200483	0.500015
C76	C	1.927296	0.450483	0.750015
C77	C	1.100379	-0.248394	0.000019
C78	C	1.350379	0.001606	0.250019
C79	C	1.600379	0.251606	0.500019
C80	C	1.850379	0.501606	0.750019
C81	C	1.111408	-0.140257	0.000037
C82	C	1.361408	0.109743	0.250037
C83	C	1.611408	0.359743	0.500037
C84	C	1.861408	0.609743	0.750037
C85	C	1.166269	-0.407664	-0.000003
C86	C	1.416269	-0.157664	0.249997
C87	C	1.666269	0.092336	0.499997
C88	C	1.916269	0.342336	0.749997
C89	C	1.312794	0.233834	0.000026
C90	C	1.562794	0.483834	0.250026
C91	C	1.812794	0.733834	0.500026
C92	C	2.062794	0.983834	0.750026
C93	C	1.418937	0.244682	0.000023
C94	C	1.668937	0.494682	0.250023
C95	C	1.918937	0.744682	0.500023
C96	C	2.168937	0.994682	0.750023
C97	C	1.146628	0.400000	-0.000003
C98	C	1.396628	0.650000	0.249997
C99	C	1.646628	0.900000	0.499997
C100	C	1.896628	1.150000	0.749997
C101	C	1.157476	0.506143	-0.000017
C102	C	1.407476	0.756143	0.249983
C103	C	1.657476	1.006143	0.499983
C104	C	1.907476	1.256143	0.749983
N105	N	1.138819	0.226028	0.254877
N106	N	1.388819	0.476028	0.504877
N107	N	1.638819	0.726028	0.754877
N108	N	1.888819	0.976028	1.004877
N109	N	1.138859	0.226049	-0.254834
N110	N	1.388859	0.476049	-0.004834
N111	N	1.638859	0.726049	0.245166
N112	N	1.888859	0.976049	0.495166
C113	C	1.138844	0.226048	0.656168
C114	C	1.388844	0.476048	0.906168
C115	C	1.638844	0.726048	1.156168
C116	C	1.888844	0.976048	1.406168
C117	C	1.138835	0.226046	0.544517
C118	C	1.388835	0.476046	0.794517
C119	C	1.638835	0.726046	1.044517
C120	C	1.888835	0.976046	1.294517
C121	C	1.138832	0.226039	0.455526
C122	C	1.388832	0.476039	0.705526
C123	C	1.638832	0.726039	0.955526
C124	C	1.888832	0.976039	1.205526
C125	C	1.138821	0.226034	0.343867
C126	C	1.388821	0.476034	0.593867
C127	C	1.638821	0.726034	0.843867
C128	C	1.888821	0.976034	1.093867
H129	H	0.626955	0.113453	-0.000037
H130	H	0.876955	0.363453	0.249963
H131	H	1.126955	0.613453	0.499963
H132	H	1.376955	0.863453	0.749963
H133	H	1.026247	-0.285839	0.000010
H134	H	1.276247	-0.035839	0.250010
H135	H	1.526247	0.214161	0.500010
H136	H	1.776247	0.464161	0.750010
F137	F	1.274187	-0.250577	0.000031
F138	F	1.524187	-0.000577	0.250031
F139	F	1.774187	0.249423	0.500031
F140	F	2.024187	0.499423	0.750031
H141	H	0.650720	0.338629	-0.000001
H142	H	0.900720	0.588629	0.249999
H143	H	1.150720	0.838629	0.499999
H144	H	1.400720	1.088629	0.749999
