data_functionalizedCrystal
_audit_creation_method	'MofGen! by Chris Wilmer'
_symmetry_space_group_name_H-M	'P1'
_symmetry_Int_Tables_number	1
_symmetry_cell_setting	triclinic
loop_
_symmetry_equiv_pos_as_xyz
  x,y,z
_cell_length_a	13.032127
_cell_length_b	12.827893
_cell_length_c	12.827893
_cell_angle_alpha	90.003596
_cell_angle_beta	97.195838
_cell_angle_gamma	97.190883
loop_
_atom_site_label
_atom_site_type_symbol
_atom_site_fract_x
_atom_site_fract_y
_atom_site_fract_z
Zn1	Zn	-0.416267	1.544684	0.537920
Zn2	Zn	-0.590999	1.522451	0.340966
Zn3	Zn	-0.416250	1.369974	0.363197
Zn4	Zn	-0.590991	1.347737	0.515667
O5	O	-0.503627	1.446211	0.439437
O6	O	-0.439456	1.687969	0.511803
O7	O	-0.567815	1.502226	0.197679
O8	O	-0.269996	1.411761	0.404991
O9	O	-0.567831	1.671634	0.367101
O10	O	-0.270009	1.540119	0.533359
O11	O	-0.439427	1.390203	0.214012
O12	O	-0.439419	1.220790	0.383413
O13	O	-0.567817	1.373860	0.664855
O14	O	-0.567800	1.204452	0.495432
O15	O	-0.439448	1.518556	0.681204
O16	O	-0.737254	1.480663	0.345523
O17	O	-0.737248	1.352302	0.473876
C18	C	-0.503607	1.174704	0.439421
C19	C	-0.503624	1.058549	0.439435
C20	C	-0.567267	0.878648	0.494769
C21	C	-0.567251	0.998700	0.494756
C22	C	-0.775173	1.411685	0.404895
C23	C	-0.891342	1.397011	0.390153
C24	C	-1.063128	1.438763	0.431923
C25	C	-0.943062	1.453939	0.447162
C26	C	-0.231019	1.480901	0.474137
C27	C	-0.114850	1.495683	0.488924
C28	C	-0.503633	1.446208	0.712007
C29	C	-0.503636	1.446206	0.828159
C30	C	-0.503647	1.718779	0.439455
C31	C	-0.503655	1.834931	0.439462
C32	C	-0.567153	1.374613	0.991899
C33	C	-0.567152	1.374613	0.871849
C34	C	-0.503643	1.446204	1.167925
C35	C	-0.503640	1.446205	1.051773
H36	H	-1.107736	1.378793	0.371843
H37	H	-0.621743	0.827197	0.542125
H38	H	-0.621527	1.313319	1.029516
O39	O	-0.944704	1.325536	0.318487
C40	C	-1.113028	1.245157	0.238040
C41	C	-1.052727	1.326158	0.319215
H42	H	-1.200375	1.245618	0.238618
H43	H	-1.091724	1.266246	0.156452
H44	H	-1.091616	1.163580	0.259012
H45	H	-1.074106	1.407763	0.298342
H46	H	-1.074036	1.304979	0.400781
O47	O	-0.632258	1.043414	0.551343
C48	C	-0.765120	1.015281	0.666769
C49	C	-0.691533	0.964507	0.602748
H50	H	-0.813078	0.951507	0.708330
H51	H	-0.717218	1.072447	0.727602
H52	H	-0.819594	1.059482	0.611704
H53	H	-0.637044	0.920251	0.657732
H54	H	-0.739500	0.907399	0.541905
H55	H	-0.449259	1.507494	1.014157
O56	O	-1.061483	1.567211	0.560528
C57	C	-0.893156	1.647476	0.641080
C58	C	-0.953461	1.566451	0.559933
H59	H	-0.805810	1.646873	0.640642
H60	H	-0.914417	1.729111	0.620123
H61	H	-0.914608	1.626375	0.722613
H62	H	-0.932041	1.587453	0.478372
H63	H	-0.932195	1.484838	0.580981
H64	H	-0.449157	1.020930	0.392087
O65	O	-0.438813	0.896398	0.382887
C66	C	-0.424634	1.021482	0.243677
C67	C	-0.498185	0.951942	0.307686
H68	H	-0.472607	1.066391	0.182848
H69	H	-0.370117	1.079591	0.298661
H70	H	-0.376717	0.969880	0.202088
H71	H	-0.546170	1.003461	0.349282
H72	H	-0.552633	0.893827	0.252651
O73	O	-0.631928	1.301534	0.810318
C74	C	-0.691064	1.234969	0.634551
C75	C	-0.617633	1.317778	0.704115
H76	H	-0.679548	1.248086	0.548670
H77	H	-0.672721	1.152996	0.658199
H78	H	-0.775348	1.242563	0.645288
H79	H	-0.533324	1.310281	0.693414
H80	H	-0.636065	1.399717	0.680451
H81	H	-0.898459	1.513905	0.507254
H82	H	-0.449261	1.507505	0.879612
