data_functionalizedCrystal
_audit_creation_method	'MofGen! by Chris Wilmer'
_symmetry_space_group_name_H-M	'P1'
_symmetry_Int_Tables_number	1
_symmetry_cell_setting	triclinic
loop_
_symmetry_equiv_pos_as_xyz
  x,y,z
_cell_length_a	12.645331
_cell_length_b	12.645330
_cell_length_c	13.032268
_cell_angle_alpha	97.151313
_cell_angle_beta	97.161946
_cell_angle_gamma	90.017906
loop_
_atom_site_label
_atom_site_type_symbol
_atom_site_fract_x
_atom_site_fract_y
_atom_site_fract_z
Zn1	Zn	1.544545	-0.498121	-0.590898
Zn2	Zn	2.044545	0.001879	-0.090898
Zn3	Zn	1.566955	-0.652907	-0.416167
Zn4	Zn	2.066955	-0.152907	0.083833
Zn5	Zn	1.389787	-0.475659	-0.416171
Zn6	Zn	1.889787	0.024341	0.083829
Zn7	Zn	1.367247	-0.675338	-0.590854
Zn8	Zn	1.867247	-0.175338	-0.090854
O9	O	1.467133	-0.575506	-0.503523
O10	O	1.967133	-0.075506	-0.003523
O11	O	1.695862	-0.518667	-0.567737
O12	O	2.195862	-0.018667	-0.067737
O13	O	1.562266	-0.610607	-0.269937
O14	O	2.062266	-0.110607	0.230063
O15	O	1.410371	-0.330294	-0.439369
O16	O	1.910371	0.169706	0.060631
O17	O	1.712327	-0.632387	-0.439363
O18	O	2.212327	-0.132387	0.060637
O19	O	1.524070	-0.346797	-0.567740
O20	O	2.024070	0.153203	-0.067740
O21	O	1.432101	-0.480384	-0.269940
O22	O	1.932101	0.019616	0.230060
O23	O	1.238452	-0.502134	-0.439326
O24	O	1.738452	-0.002134	0.060674
O25	O	1.371953	-0.670617	-0.737091
O26	O	1.871953	-0.170617	-0.237091
O27	O	1.221892	-0.648837	-0.567665
O28	O	1.721892	-0.148837	-0.067665
O29	O	1.502214	-0.540417	-0.737123
O30	O	2.002214	-0.040417	-0.237123
O31	O	1.540409	-0.804227	-0.439320
O32	O	2.040409	-0.304227	0.060680
O33	O	1.393684	-0.820707	-0.567661
O34	O	1.893684	-0.320707	-0.067661
C35	C	1.191708	-0.575483	-0.503492
C36	C	1.691708	-0.075483	-0.003492
C37	C	1.073876	-0.575502	-0.503503
C38	C	1.573876	-0.075502	-0.003503
C39	C	1.039360	-0.483100	-0.422897
C40	C	1.539360	0.016900	0.077103
C41	C	0.916765	-0.482833	-0.423173
C42	C	1.416765	0.017167	0.076827
C43	C	0.891824	-0.559915	-0.613814
C44	C	1.391824	-0.059915	-0.113814
C45	C	1.014487	-0.559237	-0.613311
C46	C	1.514487	-0.059237	-0.113311
C47	C	1.032357	-0.683868	-0.474839
C48	C	1.532357	-0.183868	0.025161
C49	C	0.910057	-0.682975	-0.472448
C50	C	1.410057	-0.182975	0.027552
C51	C	1.467058	-0.850934	-0.503508
C52	C	1.967058	-0.350934	-0.003508
C53	C	1.467118	-0.968768	-0.503537
C54	C	1.967118	-0.468768	-0.003537
C55	C	1.375119	-1.146775	-0.584525
C56	C	1.875119	-0.646775	-0.084525
C57	C	1.374736	-1.024182	-0.584265
C58	C	1.874736	-0.524182	-0.084265
C59	C	1.451072	-0.999180	-0.393409
C60	C	1.951072	-0.499180	0.106591
C61	C	1.450511	-1.121841	-0.393900
C62	C	1.950511	-0.621841	0.106100
C63	C	1.575777	-1.139494	-0.531783
C64	C	2.075777	-0.639494	-0.031783
C65	C	1.574779	-1.017197	-0.534191
C66	C	2.074779	-0.517197	-0.034191
C67	C	1.743635	-0.575530	-0.503554
C68	C	2.243635	-0.075530	-0.003554
C69	C	1.861463	-0.575541	-0.503568
C70	C	2.361463	-0.075541	-0.003568
C71	C	1.432069	-0.610525	-0.776083
C72	C	1.932069	-0.110525	-0.276083
C73	C	1.417127	-0.625447	-0.892232
C74	C	1.917127	-0.125447	-0.392232
C75	C	1.467235	-0.299006	-0.503560
C76	C	1.967235	0.200994	-0.003560
C77	C	1.467278	-0.181178	-0.503576
C78	C	1.967278	0.318822	-0.003576
C79	C	1.474915	-0.567680	-0.944031
C80	C	1.974915	-0.067680	-0.444031
C81	C	1.459473	-0.583102	-1.064078
C82	C	1.959473	-0.083102	-0.564078
C83	C	1.502122	-0.540547	-0.232022
C84	C	2.002122	-0.040547	0.267978
C85	C	1.517270	-0.525326	-0.115874
C86	C	2.017270	-0.025326	0.384126
H87	H	1.073415	-0.700918	-0.395784
H88	H	1.573415	-0.200918	0.104216
H89	H	1.398555	-0.643973	-1.108600
H90	H	1.898555	-0.143973	-0.608600
Br91	Br	1.315598	-0.726904	-0.966435
Br92	Br	1.815598	-0.226904	-0.466435
H93	H	1.371620	-1.147456	-0.370005
H94	H	1.871620	-0.647456	0.129995
H95	H	0.872446	-0.754334	-0.526845
H96	H	1.372446	-0.254334	-0.026845
Br97	Br	0.884082	-0.496288	-0.286943
Br98	Br	1.384082	0.003712	0.213057
H99	H	1.515492	-1.143466	-0.331530
H100	H	2.015492	-0.643466	0.168470
H101	H	1.516696	-0.962042	-0.331447
H102	H	2.016696	-0.462042	0.168553
H103	H	1.053827	-0.752533	-0.533550
H104	H	1.553827	-0.252533	-0.033550
H105	H	1.535819	-0.506802	-0.899505
H106	H	2.035819	-0.006802	-0.399505
H107	H	1.079337	-0.490931	-0.340886
H108	H	1.579337	0.009069	0.159114
H109	H	1.578175	-0.464441	-1.071353
H110	H	2.078175	0.035559	-0.571353
Br111	Br	0.863813	-0.348537	-0.454902
Br112	Br	1.363813	0.151463	0.045098
H113	H	1.383306	-1.186738	-0.666452
H114	H	1.883306	-0.686738	-0.166452
H115	H	1.294013	-0.992541	-0.565578
H116	H	1.794013	-0.492541	-0.065578
Br117	Br	1.689930	-1.175177	-0.433533
Br118	Br	2.189930	-0.675177	0.066467
H119	H	1.067764	-0.402957	-0.441683
H120	H	1.567764	0.097043	0.058317
H121	H	1.373091	-0.965436	-0.369082
H122	H	1.873091	-0.465436	0.130918
Br123	Br	1.050667	-0.667855	-0.716873
Br124	Br	1.550667	-0.167855	-0.216873
H125	H	1.039981	-0.480460	-0.637540
H126	H	1.539981	0.019540	-0.137540
H127	H	1.593189	-1.180504	-0.610724
H128	H	2.093189	-0.680504	-0.110724
H129	H	1.383130	-1.004544	-0.665924
H130	H	1.883130	-0.504544	-0.165924
Br131	Br	0.830065	-0.669706	-0.716702
Br132	Br	1.330065	-0.169706	-0.216702
H133	H	0.857964	-0.482103	-0.638477
H134	H	1.357964	0.017897	-0.138477
H135	H	1.294885	-1.175301	-0.566077
H136	H	1.794885	-0.675301	-0.066077
Br137	Br	0.878927	-0.703062	-0.337215
Br138	Br	1.378927	-0.203062	0.162785
Br139	Br	1.595383	-0.986013	-0.669279
Br140	Br	2.095383	-0.486013	-0.169279
Br141	Br	1.693361	-0.954370	-0.443088
Br142	Br	2.193361	-0.454370	0.056912
