data_functionalizedCrystal
_audit_creation_method	'MofGen! by Chris Wilmer'
_symmetry_space_group_name_H-M	'P1'
_symmetry_Int_Tables_number	1
_symmetry_cell_setting	triclinic
loop_
_symmetry_equiv_pos_as_xyz
  x,y,z
_cell_length_a	6.817900
_cell_length_b	16.256275
_cell_length_c	16.255661
_cell_angle_alpha	95.350152
_cell_angle_beta	103.488922
_cell_angle_gamma	103.500333
loop_
_atom_site_label
_atom_site_type_symbol
_atom_site_fract_x
_atom_site_fract_y
_atom_site_fract_z
V1	V	-4.026776	-0.117778	-0.264174
O2	O	-4.014188	0.004956	-0.258835
O3	O	-3.978390	-0.232858	-0.262665
O4	O	-3.978337	-0.116275	-0.379253
O5	O	-4.014241	-0.112433	-0.141440
V6	V	-4.510407	-0.103061	-0.249458
O7	O	-4.287797	-0.150061	-0.296455
O8	O	-4.699583	-0.070779	-0.217177
O9	O	-4.335586	0.012018	-0.250967
O10	O	-4.640392	-0.225796	-0.254796
O11	O	-4.640339	-0.108406	-0.372192
O12	O	-4.335639	-0.104564	-0.134378
C13	C	-3.823396	-0.260902	-0.258575
C14	C	-3.865121	-0.354983	-0.258108
C15	C	-4.156068	-0.586814	-0.261383
C16	C	-4.122322	-0.651960	-0.329022
C17	C	-3.941423	-0.527229	-0.257239
C18	C	-4.049504	-0.629721	-0.188785
C19	C	-4.015138	-0.693610	-0.256397
C20	C	-3.907157	-0.591145	-0.324943
C21	C	-3.834331	-0.568892	-0.184644
C22	C	-3.800444	-0.634012	-0.252297
C23	C	-3.898963	-0.431381	-0.257726
C24	C	-4.057586	-0.789457	-0.255916
C25	C	-3.823327	-0.112188	-0.407293
C26	C	-3.865007	-0.111721	-0.501373
C27	C	-3.775560	-0.106138	-0.724178
C28	C	-3.932015	-0.178197	-0.793839
C29	C	-3.941391	-0.110845	-0.673620
C30	C	-3.859225	-0.037961	-0.771594
C31	C	-4.015158	-0.109994	-0.840001
C32	C	-4.097328	-0.182968	-0.742051
C33	C	-4.024476	-0.042668	-0.719790
C34	C	-4.181067	-0.114748	-0.789432
C35	C	-3.898890	-0.111335	-0.577772
C36	C	-4.057676	-0.109510	-0.935848
C37	C	-4.153923	0.040058	-0.255055
C38	C	-4.091435	0.134138	-0.255527
C39	C	-4.153992	-0.108654	-0.106334
C40	C	-4.091551	-0.109117	-0.012253
H41	H	-3.712256	-0.532828	-0.123605
H42	H	-4.063039	0.014633	-0.687534
H43	H	-3.603804	-0.102591	-0.695688
O44	O	-4.386025	-0.119065	-0.823399
C45	C	-4.655428	-0.122863	-0.950639
C46	C	-4.423261	-0.117945	-0.912277
H47	H	-4.685616	-0.121978	-1.022504
H48	H	-4.695713	-0.065649	-0.919081
H49	H	-4.756873	-0.184672	-0.938733
H50	H	-4.321659	-0.056173	-0.924171
H51	H	-4.383145	-0.175203	-0.943837
O52	O	-3.739315	0.035135	-0.787501
C53	C	-3.390615	0.122212	-0.772316
C54	C	-3.526180	0.039417	-0.754232
H55	H	-3.218269	0.125692	-0.745443
H56	H	-3.428207	0.180040	-0.740557
H57	H	-3.425029	0.122167	-0.844401
H58	H	-3.491842	0.039377	-0.682163
H59	H	-3.488565	-0.018375	-0.786049
H60	H	-4.197577	-0.244317	-0.728742
O61	O	-3.886303	-0.246621	-0.832362
C62	C	-4.015713	-0.375846	-0.935894
C63	C	-4.067798	-0.298415	-0.892325
H64	H	-4.162408	-0.417733	-0.984397
H65	H	-3.956107	-0.414802	-0.885467
H66	H	-3.890000	-0.352289	-0.970116
H67	H	-4.193554	-0.321897	-0.858106
H68	H	-4.127284	-0.259475	-0.942791
O69	O	-4.334805	-0.561857	-0.265917
C70	C	-4.509752	-0.473658	-0.198208
C71	C	-4.307228	-0.501863	-0.192950
H72	H	-4.487510	-0.425135	-0.139230
H73	H	-4.643774	-0.531822	-0.201070
H74	H	-4.547862	-0.443093	-0.258257
H75	H	-4.268923	-0.532411	-0.132906
H76	H	-4.173324	-0.443670	-0.190135
O77	O	-4.268293	-0.694926	-0.401783
C78	C	-4.621136	-0.719694	-0.488888
C79	C	-4.456031	-0.671000	-0.406451
H80	H	-4.772947	-0.700354	-0.492697
H81	H	-4.650790	-0.791566	-0.488125
H82	H	-4.561833	-0.703167	-0.546908
H83	H	-4.515201	-0.687456	-0.348386
H84	H	-4.426399	-0.599141	-0.407289
O85	O	-3.835148	-0.570583	-0.393663
C86	C	-3.714758	-0.458289	-0.471193
C87	C	-3.796294	-0.481458	-0.393338
H88	H	-3.683280	-0.386229	-0.470946
H89	H	-3.836797	-0.493313	-0.532659
H90	H	-3.563682	-0.478173	-0.467579
H91	H	-3.947336	-0.461575	-0.396870
H92	H	-3.674122	-0.446443	-0.331905
O93	O	-3.621558	-0.658869	-0.247686
C94	C	-3.459856	-0.775875	-0.241456
C95	C	-3.662573	-0.747837	-0.246657
H96	H	-3.492955	-0.847810	-0.240641
H97	H	-3.336713	-0.740440	-0.180439
H98	H	-3.399843	-0.760135	-0.299508
H99	H	-3.722771	-0.763574	-0.188650
H100	H	-3.785582	-0.783268	-0.307711
O101	O	-4.121576	-0.650379	-0.120103
C102	C	-4.065235	-0.711642	0.010027
C103	C	-3.983385	-0.688313	-0.067717
H104	H	-3.953524	-0.742300	0.052412
H105	H	-4.226837	-0.758681	-0.013049
H106	H	-4.075877	-0.651153	0.048305
H107	H	-3.972610	-0.748753	-0.106027
H108	H	-3.821837	-0.641242	-0.044584
