data_functionalizedCrystal
_audit_creation_method	'MofGen! by Chris Wilmer'
_symmetry_space_group_name_H-M	'P1'
_symmetry_Int_Tables_number	1
_symmetry_cell_setting	triclinic
loop_
_symmetry_equiv_pos_as_xyz
  x,y,z
_cell_length_a	14.628931
_cell_length_b	14.628931
_cell_length_c	14.628931
_cell_angle_alpha	90.000000
_cell_angle_beta	60.000164
_cell_angle_gamma	60.000164
loop_
_atom_site_label
_atom_site_type_symbol
_atom_site_fract_x
_atom_site_fract_y
_atom_site_fract_z
Zr1	Zr	1.000579	0.880619	-0.119960
O2	O	1.191283	0.734659	-0.265920
O3	O	0.809874	0.925363	-0.075216
O4	O	1.000578	0.925364	-0.265920
O5	O	1.000579	0.734658	0.075217
O6	O	1.000579	1.075795	-0.265921
O7	O	1.000578	0.734658	-0.075215
O8	O	0.659443	1.075794	0.075216
O9	O	1.341715	0.734659	-0.265919
O10	O	0.888314	1.056712	-0.056132
O11	O	0.888314	0.944446	0.056133
O12	O	1.112844	0.944447	-0.168397
O13	O	1.112844	0.832181	-0.056132
Zr14	Zr	1.000580	1.120539	0.119961
Zr15	Zr	1.000579	1.120540	-0.119960
Zr16	Zr	1.000579	0.880618	0.119961
Zr17	Zr	1.240500	0.880619	-0.119959
Zr18	Zr	0.760659	1.120539	0.119961
O19	O	1.191285	1.075795	0.075217
O20	O	1.191284	1.075796	-0.265920
O21	O	1.191284	0.734658	0.075217
O22	O	0.809876	1.266499	0.265921
O23	O	0.809875	1.266500	-0.075216
O24	O	0.809875	0.925362	0.265921
O25	O	1.000580	1.266500	-0.075216
O26	O	1.000580	1.075795	0.265922
O27	O	1.000580	0.925363	0.265922
O28	O	1.000580	1.266500	0.075216
O29	O	1.341715	0.925364	-0.265920
O30	O	0.659444	1.075794	0.265921
O31	O	0.659444	1.266499	0.265921
O32	O	0.659444	1.266499	0.075215
O33	O	1.341715	0.734659	-0.075214
O34	O	1.341716	0.925364	-0.075214
O35	O	0.888315	1.056711	0.168398
O36	O	0.888315	1.168977	0.056133
O37	O	1.112845	1.056712	-0.056132
O38	O	1.112845	0.944446	0.056134
C39	C	1.000578	0.700474	0.000001
C40	C	1.000578	0.598621	0.000001
C41	C	0.700475	1.000578	-0.000000
C42	C	0.598622	1.000578	-0.000000
C43	C	0.889198	0.503637	0.055691
C44	C	0.889196	0.608908	0.055692
C45	C	0.474454	1.079337	0.078759
C46	C	0.369182	1.079339	0.078760
C47	C	1.300684	1.000580	0.000001
C48	C	1.402537	1.000580	0.000001
C49	C	1.000578	1.000580	-0.300104
C50	C	1.000578	1.000580	-0.401957
C51	C	1.000580	1.300684	0.000000
C52	C	1.000581	1.402537	0.000000
C53	C	1.111960	0.944889	-0.503057
C54	C	1.111962	0.944888	-0.608329
C55	C	1.000580	1.000579	0.300105
C56	C	1.000581	1.000578	0.401958
C57	C	0.700476	1.300683	-0.000000
C58	C	0.598623	1.402536	-0.000001
C59	C	0.700476	1.000578	0.300105
C60	C	0.598623	1.000578	0.401957
C61	C	0.700476	1.300683	0.300104
C62	C	0.598624	1.402535	0.401957
C63	C	1.300682	0.700475	-0.300103
C64	C	1.402534	0.598623	-0.401956
C65	C	1.300683	0.700475	0.000002
C66	C	1.402536	0.598622	0.000002
C67	C	1.300683	1.000580	-0.300104
C68	C	1.402536	1.000580	-0.401956
C69	C	0.553214	1.392254	-0.055692
C70	C	0.447944	1.497522	-0.055694
C71	C	0.553214	1.056269	0.503058
C72	C	0.447945	1.056270	0.608329
C73	C	0.553215	1.503636	0.391674
C74	C	0.447946	1.608907	0.496943
H75	H	0.793842	0.512257	0.103365
H76	H	0.905217	1.048254	-0.511315
H77	H	0.592277	1.103942	0.511678
C78	C	0.546384	0.909482	-0.091101
N79	N	0.654736	0.840867	-0.159719
C80	C	0.871751	1.064992	-0.390305
N81	N	0.774714	1.113507	-0.381525
C82	C	1.240792	0.880473	-0.725497
N83	N	1.337831	0.831955	-0.813752
H84	H	0.441577	1.607254	0.047687
C85	C	0.605966	1.275079	-0.120097
N86	N	0.645693	1.186822	-0.168604
H87	H	0.408889	1.488894	-0.103369
C88	C	0.395191	1.726075	0.485281
N89	N	0.355454	1.814331	0.476497
H90	H	0.559570	1.489272	0.047673
C91	C	0.395190	1.120686	0.725497
N92	N	0.355455	1.169206	0.813753
H93	H	0.626991	0.933149	-0.067425
H94	H	0.441580	1.511893	0.606675
H95	H	0.441579	0.952903	0.511315
H96	H	0.446085	1.146761	0.146189
C97	C	0.760366	0.726076	0.120104
N98	N	0.663328	0.814332	0.168619
H99	H	1.095941	0.511895	-0.047678
C100	C	1.129408	0.390884	-0.064414
N101	N	1.226445	0.382105	-0.112932
H102	H	1.207317	0.897216	-0.511677
H103	H	0.592276	1.512259	0.304939
C104	C	0.225332	1.170435	0.169857
N105	N	0.116980	1.239051	0.238475
H106	H	0.559570	0.952895	0.393337
C107	C	0.545863	1.390882	0.519132
N108	N	0.506122	1.382102	0.607389
