data_functionalizedCrystal
_audit_creation_method	'MofGen! by Chris Wilmer'
_symmetry_space_group_name_H-M	'P1'
_symmetry_Int_Tables_number	1
_symmetry_cell_setting	triclinic
loop_
_symmetry_equiv_pos_as_xyz
  x,y,z
_cell_length_a	21.295417
_cell_length_b	11.169417
_cell_length_c	11.169417
_cell_angle_alpha	89.999137
_cell_angle_beta	90.016676
_cell_angle_gamma	89.968614
loop_
_atom_site_label
_atom_site_type_symbol
_atom_site_fract_x
_atom_site_fract_y
_atom_site_fract_z
Zn1	Zn	-0.250697	-1.834569	0.678466
Zn2	Zn	-0.355940	-1.834455	0.477752
Zn3	Zn	-0.250690	-1.633922	0.477801
Zn4	Zn	-0.355934	-1.633792	0.678396
O5	O	-0.303315	-1.734185	0.578104
O6	O	-0.264663	-2.002504	0.651850
O7	O	-0.341978	-1.807860	0.309809
O8	O	-0.162602	-1.660640	0.504470
O9	O	-0.341985	-2.002420	0.504386
O10	O	-0.162607	-1.808055	0.651898
O11	O	-0.264651	-1.660529	0.309845
O12	O	-0.264645	-1.465955	0.504402
O13	O	-0.341975	-1.660420	0.846355
O14	O	-0.341968	-1.465860	0.651778
O15	O	-0.264658	-1.807930	0.846407
O16	O	-0.444028	-1.807734	0.504318
O17	O	-0.444024	-1.660308	0.651731
C18	C	-0.303306	-1.422360	0.578089
C19	C	-0.303317	-1.288960	0.578110
C20	C	-0.466867	-1.734027	0.578038
C21	C	-0.536835	-1.734070	0.578049
C22	C	-0.303316	-1.734173	0.891146
C23	C	-0.303317	-1.734168	1.024546
C24	C	-0.569683	-1.810902	0.501370
C25	C	-0.635425	-1.810959	0.501397
C26	C	-0.668317	-1.734161	0.578091
C27	C	-0.635462	-1.657323	0.654785
C28	C	-0.569720	-1.657277	0.654764
N29	N	-0.771585	-1.629168	0.587235
N30	N	-0.834037	-1.629214	0.587248
C31	C	-0.866392	-1.734295	0.578159
N32	N	-0.833937	-1.839330	0.569035
N33	N	-0.771480	-1.839282	0.569016
C34	C	-0.739603	-1.734202	0.578122
C35	C	-0.970526	-1.811195	0.501505
C36	C	-1.036269	-1.811254	0.501541
C37	C	-1.036304	-1.657607	0.654922
C38	C	-0.970562	-1.657559	0.654893
C39	C	-0.937676	-1.734352	0.578178
C40	C	-0.139125	-1.734375	0.578197
C41	C	-0.069157	-1.734456	0.578237
C42	C	-0.303325	-2.047227	0.578120
C43	C	-0.303330	-2.180627	0.578127
C44	C	-0.303326	-1.734182	1.266279
C45	C	-0.303318	-1.734171	1.132879
H46	H	-0.662175	-1.873529	0.438956
C47	C	-1.056345	-2.014566	0.443299
C48	C	-1.072343	-1.895774	0.417251
H49	H	-1.078604	-2.066760	0.391256
H50	H	-1.067103	-2.032053	0.523943
H51	H	-1.012477	-2.025452	0.432342
H52	H	-1.116211	-1.884886	0.428217
H53	H	-1.061589	-1.878281	0.336587
H54	H	-0.662246	-1.594795	0.717231
H55	H	-1.063084	-1.595082	0.717373
C56	C	-0.576257	-1.962787	0.349770
C57	C	-0.533536	-1.895329	0.417063
H58	H	-0.553939	-2.014915	0.297732
H59	H	-0.601930	-1.910552	0.303822
H60	H	-0.601868	-2.008658	0.402124
H61	H	-0.507928	-1.849451	0.364710
H62	H	-0.507853	-1.947571	0.463015
C63	C	-0.950308	-1.869820	0.298319
C64	C	-0.934372	-1.895610	0.417192
H65	H	-0.927992	-1.921940	0.246270
H66	H	-0.939577	-1.789198	0.280690
H67	H	-0.994164	-1.880855	0.287376
H68	H	-0.890517	-1.884567	0.428136
H69	H	-0.945099	-1.976252	0.434827
C70	C	-0.576360	-1.505411	0.806376
C71	C	-0.533610	-1.572809	0.739049
H72	H	-0.554064	-1.453258	0.858403
H73	H	-0.601961	-1.557682	0.852339
H74	H	-0.602039	-1.459568	0.754044
H75	H	-0.507933	-1.618659	0.791381
H76	H	-0.507997	-1.520531	0.693083
H77	H	-0.943815	-1.594990	0.717327
