data_functionalizedCrystal
_audit_creation_method	'MofGen! by Chris Wilmer'
_symmetry_space_group_name_H-M	'P1'
_symmetry_Int_Tables_number	1
_symmetry_cell_setting	triclinic
loop_
_symmetry_equiv_pos_as_xyz
  x,y,z
_cell_length_a	16.959453
_cell_length_b	16.959455
_cell_length_c	16.959447
_cell_angle_alpha	90.023646
_cell_angle_beta	89.968429
_cell_angle_gamma	89.982281
loop_
_atom_site_label
_atom_site_type_symbol
_atom_site_fract_x
_atom_site_fract_y
_atom_site_fract_z
Zn1	Zn	-0.314771	-1.208369	-0.447098
Zn2	Zn	0.185229	-0.708369	0.052902
Zn3	Zn	-0.446964	-1.208286	-0.314917
Zn4	Zn	0.053036	-0.708286	0.185083
Zn5	Zn	-0.314792	-1.076198	-0.314914
Zn6	Zn	0.185208	-0.576198	0.185086
Zn7	Zn	-0.446900	-1.076156	-0.447034
Zn8	Zn	0.053100	-0.576156	0.052966
O9	O	-0.380857	-1.142252	-0.380991
O10	O	0.119143	-0.642252	0.119009
O11	O	-0.332325	-1.318969	-0.429592
O12	O	0.167675	-0.818969	0.070408
O13	O	-0.429466	-1.190746	-0.204306
O14	O	0.070534	-0.690746	0.295694
O15	O	-0.204178	-1.093783	-0.332475
O16	O	0.295822	-0.593783	0.167525
O17	O	-0.429446	-1.318908	-0.332479
O18	O	0.070554	-0.818908	0.167521
O19	O	-0.204163	-1.190889	-0.429590
O20	O	0.295837	-0.690889	0.070410
O21	O	-0.332360	-1.093702	-0.204304
O22	O	0.167640	-0.593702	0.295696
O23	O	-0.332298	-0.965581	-0.332412
O24	O	0.167702	-0.465581	0.167588
O25	O	-0.429338	-1.093712	-0.557654
O26	O	0.070662	-0.593712	-0.057654
O27	O	-0.429358	-0.965551	-0.429480
O28	O	0.070642	-0.465551	0.070520
O29	O	-0.332264	-1.190849	-0.557701
O30	O	0.167736	-0.690849	-0.057701
O31	O	-0.557566	-1.190706	-0.332417
O32	O	-0.057566	-0.690706	0.167583
O33	O	-0.557520	-1.093631	-0.429483
O34	O	-0.057520	-0.593631	0.070517
C35	C	-0.380824	-0.936886	-0.380939
C36	C	0.119176	-0.436886	0.119061
C37	C	-0.380829	-0.849029	-0.380936
C38	C	0.119171	-0.349029	0.119064
C39	C	-0.431354	-0.477511	-0.330360
C40	C	0.068646	0.022489	0.169640
C41	C	-0.330378	-0.477596	-0.431642
C42	C	0.169622	0.022404	0.068358
C43	C	-0.330368	-0.560142	-0.431627
C44	C	0.169632	-0.060142	0.068373
C45	C	-0.380853	-0.601376	-0.380979
C46	C	0.119147	-0.101376	0.119021
C47	C	-0.431347	-0.560065	-0.330346
C48	C	0.068653	-0.060065	0.169654
C49	C	-0.279880	-0.601460	-0.482265
C50	C	0.220120	-0.101460	0.017735
C51	C	-0.279868	-0.684011	-0.482254
C52	C	0.220132	-0.184011	0.017746
C53	C	-0.330350	-0.725247	-0.431601
C54	C	0.169650	-0.225247	0.068399
C55	C	-0.380846	-0.683930	-0.380965
C56	C	0.119154	-0.183930	0.119035
C57	C	-0.431330	-0.725164	-0.330317
C58	C	0.068670	-0.225164	0.169683
C59	C	-0.481823	-0.683849	-0.279676
C60	C	0.018177	-0.183849	0.220324
C61	C	-0.481829	-0.601300	-0.279694
C62	C	0.018171	-0.101300	0.220306
C63	C	-0.330344	-0.807795	-0.431584
C64	C	0.169656	-0.307795	0.068416
C65	C	-0.431324	-0.807718	-0.330303
C66	C	0.068676	-0.307718	0.169697
C67	C	-0.586223	-1.142177	-0.380960
C68	C	-0.086223	-0.642177	0.119040
C69	C	-0.674080	-1.142216	-0.380973
C70	C	-0.174080	-0.642216	0.119027
C71	C	-0.715430	-1.091719	-0.330374
C72	C	-0.215430	-0.591719	0.169626
C73	C	-0.715283	-1.192747	-0.431590
C74	C	-0.215283	-0.692747	0.068410
C75	C	-0.797829	-1.192784	-0.431607
C76	C	-0.297829	-0.692784	0.068393
C77	C	-0.839179	-1.142287	-0.381008
C78	C	-0.339179	-0.642287	0.118992
C79	C	-0.797983	-1.091753	-0.330392
C80	C	-0.297983	-0.591753	0.169608
C81	C	-0.839031	-1.243312	-0.482228
C82	C	-0.339031	-0.743312	0.017772
C83	C	-0.921582	-1.243350	-0.482248
C84	C	-0.421582	-0.743350	0.017752
C85	C	-0.962934	-1.192856	-0.431644
C86	C	-0.462934	-0.692856	0.068356
C87	C	-0.921733	-1.142321	-0.381025
C88	C	-0.421733	-0.642321	0.118975
C89	C	-0.963083	-1.091824	-0.330426
C90	C	-0.463083	-0.591824	0.169574
C91	C	-0.921883	-1.041291	-0.279802
C92	C	-0.421883	-0.541291	0.220198
C93	C	-0.839335	-1.041259	-0.279788
C94	C	-0.339335	-0.541259	0.220212
C95	C	-1.045482	-1.192889	-0.431659
C96	C	-0.545482	-0.692889	0.068341
C97	C	-1.045636	-1.091857	-0.330443
C98	C	-0.545636	-0.591857	0.169557
C99	C	-0.174689	-1.142350	-0.381039
C100	C	0.325311	-0.642350	0.118961
C101	C	-0.086832	-1.142391	-0.381060
C102	C	0.413168	-0.642391	0.118940
C103	C	-0.380791	-1.142285	-0.587159
C104	C	0.119209	-0.642285	-0.087159
C105	C	-0.380764	-1.142299	-0.675016
C106	C	0.119236	-0.642299	-0.175016
C107	C	-0.380882	-0.348420	-0.381029
C108	C	0.119118	0.151580	0.118971
C109	C	-0.380870	-0.436277	-0.381008
C110	C	0.119130	0.063723	0.118992
C111	C	-0.431222	-1.091819	-1.046470
C112	C	0.068778	-0.591819	-0.546470
C113	C	-0.330138	-1.192968	-1.046514
C114	C	0.169862	-0.692968	-0.546514
C115	C	-0.330155	-1.192947	-0.963968
C116	C	0.169845	-0.692947	-0.463968
C117	C	-0.380707	-1.142362	-0.922669
C118	C	0.119293	-0.642362	-0.422669
C119	C	-0.431242	-1.091798	-0.963916
C120	C	0.068758	-0.591798	-0.463916
C121	C	-0.279626	-1.243516	-0.922715
C122	C	0.220374	-0.743516	-0.422715
C123	C	-0.279641	-1.243497	-0.840164
C124	C	0.220359	-0.743497	-0.340164
C125	C	-0.330190	-1.192908	-0.798863
C126	C	0.169810	-0.692908	-0.298863
C127	C	-0.380727	-1.142341	-0.840115
C128	C	0.119273	-0.642341	-0.340115
C129	C	-0.431279	-1.091756	-0.798817
C130	C	0.068721	-0.591756	-0.298817
C131	C	-0.481813	-1.041185	-0.840067
C132	C	0.018187	-0.541185	-0.340067
C133	C	-0.481791	-1.041209	-0.922616
C134	C	0.018209	-0.541209	-0.422616
C135	C	-0.330211	-1.192884	-0.716315
C136	C	0.169789	-0.692884	-0.216315
C137	C	-0.431299	-1.091735	-0.716263
C138	C	0.068701	-0.591735	-0.216263
C139	C	-0.380865	-1.142265	-0.175625
C140	C	0.119135	-0.642265	0.324375
C141	C	-0.380670	-1.142404	-0.087769
C142	C	0.119330	-0.642404	0.412231
H143	H	-0.522937	-0.567654	-0.238464
H144	H	-0.022937	-0.067654	0.261536
H145	H	-0.238474	-1.284704	-0.956346
H146	H	0.261526	-0.784704	-0.456346
Br147	Br	-0.499903	-1.023074	-0.660221
Br148	Br	0.000097	-0.523074	-0.160221
Br149	Br	-0.211061	-1.312126	-0.784188
Br150	Br	0.288939	-0.812126	-0.284188
H151	H	-0.522976	-1.000002	-0.806431
H152	H	-0.022976	-0.500002	-0.306431
Br153	Br	-0.211383	-0.545497	-0.551011
Br154	Br	0.288617	-0.045497	-0.051011
Br155	Br	-0.977489	-1.311924	-0.550953
Br156	Br	-0.477489	-0.811924	-0.050953
Br157	Br	-0.659166	-1.261262	-0.500271
Br158	Br	-0.159166	-0.761262	-0.000271
H159	H	-1.079297	-1.050738	-0.289236
H160	H	-0.579297	-0.550738	0.210764
Br161	Br	-0.550369	-0.972586	-0.978602
Br162	Br	-0.050369	-0.472586	-0.478602
H163	H	-0.805362	-1.284421	-0.523429
H164	H	-0.305362	-0.784421	-0.023429
Br165	Br	-0.978011	-0.972752	-0.211145
Br166	Br	-0.478011	-0.472752	0.288855
Br167	Br	-0.659520	-1.023148	-0.261669
Br168	Br	-0.159520	-0.523148	0.238331
H169	H	-0.238754	-0.717643	-0.523488
H170	H	0.261246	-0.217643	-0.023488
H171	H	-0.472363	-1.050643	-1.080059
H172	H	0.027637	-0.550643	-0.580059
H173	H	-0.289070	-1.234060	-0.682732
H174	H	0.210930	-0.734060	-0.182732
Br175	Br	-0.499835	-0.863672	-0.261556
Br176	Br	0.000165	-0.363672	0.238444
Br177	Br	-0.550343	-0.739819	-0.210950
Br178	Br	-0.050343	-0.239819	0.289050
Br179	Br	-0.499872	-0.421444	-0.261631
Br180	Br	0.000128	0.078556	0.238369
Br181	Br	-1.101393	-1.261458	-0.500360
Br182	Br	-0.601393	-0.761458	-0.000360
Br183	Br	-0.261543	-1.261624	-1.102563
Br184	Br	0.238457	-0.761624	-0.602563
Br185	Br	-0.261830	-0.863863	-0.500310
Br186	Br	0.238170	-0.363863	-0.000310
H187	H	-0.805785	-1.000117	-0.238573
H188	H	-0.305785	-0.500117	0.261427
Br189	Br	-0.261878	-0.421636	-0.500386
Br190	Br	0.238122	0.078364	-0.000386
