data_functionalizedCrystal
_audit_creation_method	'MofGen! by Chris Wilmer'
_symmetry_space_group_name_H-M	'P1'
_symmetry_Int_Tables_number	1
_symmetry_cell_setting	triclinic
loop_
_symmetry_equiv_pos_as_xyz
  x,y,z
_cell_length_a	16.109301
_cell_length_b	16.109301
_cell_length_c	15.186229
_cell_angle_alpha	90.005167
_cell_angle_beta	90.000638
_cell_angle_gamma	83.461481
loop_
_atom_site_label
_atom_site_type_symbol
_atom_site_fract_x
_atom_site_fract_y
_atom_site_fract_z
O1	O	-1.103131	-0.106866	-0.073176
O2	O	-0.861069	-0.120165	-0.073190
O3	O	-0.988749	0.007515	-0.073174
O4	O	-0.975450	-0.234547	-0.073192
O5	O	-0.988741	0.007517	0.073284
O6	O	-0.861060	-0.120164	0.073267
O7	O	-1.103122	-0.106864	0.073282
Zn8	Zn	-0.982090	-0.113514	0.096528
Zn9	Zn	-0.982101	-0.113516	-0.096436
O10	O	-0.975441	-0.234545	0.073265
C11	C	-0.830090	-0.119626	0.000037
C12	C	-0.737794	-0.118011	0.000032
N13	N	-0.982088	-0.113511	0.228220
C14	C	-1.134101	-0.107404	0.000053
C15	C	-1.226397	-0.109019	0.000052
C16	C	-0.988206	0.038491	0.000056
C17	C	-0.986591	0.130786	0.000057
C18	C	-0.515522	-0.190018	0.000036
C19	C	-0.428801	-0.188494	0.000042
C20	C	-0.448676	-0.037006	0.000050
C21	C	-0.535394	-0.038530	0.000051
C22	C	-0.568815	-0.115039	0.000039
C23	C	-0.395376	-0.111990	0.000045
C24	C	-0.301350	-0.110337	0.000051
C25	C	-0.662847	-0.116693	0.000035
C26	C	-0.975984	-0.265521	0.000034
C27	C	-0.977600	-0.357816	0.000027
C28	C	-1.058599	0.353059	0.000047
C29	C	-1.057075	0.439779	0.000040
C30	C	-0.905586	0.419905	0.000034
C31	C	-0.907111	0.333186	0.000035
C32	C	-0.983620	0.299766	0.000046
C33	C	-0.980571	0.473205	0.000038
C34	C	-0.978918	0.567231	0.000030
C35	C	-0.985273	0.205734	0.000052
N36	N	-0.982109	-0.113512	-0.228129
C37	C	-1.038644	-0.056994	0.453950
C38	C	-1.038647	-0.056992	0.546140
C39	C	-0.925547	-0.170032	0.546135
C40	C	-0.925541	-0.170030	0.453947
C41	C	-0.982094	-0.113511	0.407857
C42	C	-0.982103	-0.113512	0.592235
C43	C	-0.982105	-0.113510	0.692191
C44	C	-0.982091	-0.113512	0.307894
H45	H	-0.385413	-0.249550	0.000041
H46	H	-0.843295	0.447127	0.000027
H47	H	-0.542730	-0.252317	0.000034
C48	C	-0.864181	-0.231307	0.403736
C49	C	-0.876266	-0.219190	0.313138
C50	C	-0.819752	-0.275611	0.266856
H51	H	-0.873141	-0.286835	0.418728
H52	H	-0.808680	-0.222257	0.418797
H53	H	-0.931754	-0.228246	0.298083
H54	H	-0.867300	-0.163673	0.298120
H55	H	-0.764251	-0.266562	0.281917
H56	H	-0.828716	-0.331136	0.281855
H57	H	-0.827939	-0.267393	0.205381
C58	C	-0.825636	0.275416	-0.000103
C59	C	-0.779561	0.290523	-0.075442
C60	C	-0.704501	0.237330	-0.075597
H61	H	-0.837384	0.218956	-0.000149
H62	H	-0.794216	0.285559	0.050943
H63	H	-0.810974	0.280374	-0.126474
H64	H	-0.767790	0.346974	-0.075411
H65	H	-0.673081	0.247473	-0.024551
H66	H	-0.716258	0.180873	-0.075641
H67	H	-0.673227	0.247578	-0.126709
C68	C	-0.412227	0.045973	0.000009
C69	C	-0.324875	0.031263	-0.000018
C70	C	-0.291273	0.107685	-0.000070
H71	H	-0.430428	0.076912	0.051069
H72	H	-0.430477	0.076849	-0.051083
H73	H	-0.306633	0.000400	0.051069
H74	H	-0.306652	0.000337	-0.051074
H75	H	-0.309523	0.138560	-0.051162
H76	H	-0.309480	0.138618	0.050991
H77	H	-0.232002	0.097714	-0.000096
C78	C	-1.099960	0.004320	0.403750
C79	C	-1.087852	-0.007768	0.313149
C80	C	-1.144310	0.048712	0.266880
H81	H	-1.090960	0.059830	0.418785
H82	H	-1.155479	-0.004689	0.418779
H83	H	-1.032347	0.001248	0.298127
H84	H	-1.096859	-0.063267	0.298088
H85	H	-1.199828	0.039702	0.281909
H86	H	-1.135305	0.104218	0.281922
H87	H	-1.136107	0.040512	0.205403
C88	C	-1.100140	0.004407	0.596025
C89	C	-1.149676	0.053886	0.535927
C90	C	-1.206341	0.110451	0.581848
H91	H	-1.070345	0.039106	0.631996
H92	H	-1.134786	-0.025492	0.631964
H93	H	-1.115034	0.083783	0.500003
H94	H	-1.179489	0.019210	0.499954
H95	H	-1.240986	0.080553	0.617786
H96	H	-1.176539	0.145145	0.617817
H97	H	-1.239962	0.144025	0.541078
C98	C	-0.593125	0.042971	0.000008
C99	C	-0.545298	0.110300	-0.000013
C100	C	-0.598450	0.185387	-0.000060
H101	H	-0.627384	0.045643	0.051068
H102	H	-0.627356	0.045566	-0.051084
H103	H	-0.511081	0.107706	0.051074
H104	H	-0.511040	0.107655	-0.051069
H105	H	-0.632681	0.187982	-0.051153
H106	H	-0.632706	0.188051	0.051001
H107	H	-0.566007	0.231079	-0.000083
C108	C	-1.141748	0.316934	0.000001
C109	C	-1.207084	0.382171	-0.000026
C110	C	-1.283694	0.348928	-0.000085
H111	H	-1.145614	0.283534	0.051059
H112	H	-1.145534	0.283538	-0.051093
H113	H	-1.203300	0.415553	0.051063
H114	H	-1.203245	0.415576	-0.051080
H115	H	-1.287480	0.315532	-0.051179
H116	H	-1.287552	0.315529	0.050974
H117	H	-1.328033	0.393186	-0.000111
H118	H	-0.879503	-0.216049	0.583670
H119	H	-1.118130	0.483168	0.000039
