data_functionalizedCrystal
_audit_creation_method	'MofGen! by Chris Wilmer'
_symmetry_space_group_name_H-M	'P1'
_symmetry_Int_Tables_number	1
_symmetry_cell_setting	triclinic
loop_
_symmetry_equiv_pos_as_xyz
  x,y,z
_cell_length_a	10.723024
_cell_length_b	10.723024
_cell_length_c	9.198806
_cell_angle_alpha	89.997988
_cell_angle_beta	89.996352
_cell_angle_gamma	84.467869
loop_
_atom_site_label
_atom_site_type_symbol
_atom_site_fract_x
_atom_site_fract_y
_atom_site_fract_z
O1	O	1.657188	0.175024	-0.120879
O2	O	1.294035	0.191778	-0.120884
O3	O	1.483988	0.001825	-0.120876
O4	O	1.467235	0.364977	-0.120887
O5	O	1.483973	0.001824	0.120909
O6	O	1.294020	0.191777	0.120901
O7	O	1.657173	0.175024	0.120906
Cu8	Cu	1.475595	0.183401	0.142981
Cu9	Cu	1.475613	0.183401	-0.142958
O10	O	1.467220	0.364977	0.120898
C11	C	1.247528	0.190558	0.000008
C12	C	1.108974	0.186911	0.000007
C13	C	1.033991	0.293198	0.000002
C14	C	0.890788	0.289431	0.000001
C15	C	1.482762	-0.044675	0.000015
C16	C	1.479114	-0.183229	0.000010
C17	C	1.585401	-0.258212	0.000009
C18	C	1.581634	-0.401415	0.000004
C19	C	1.703680	0.176243	0.000011
C20	C	1.842234	0.179891	0.000003
C21	C	1.468447	0.411477	0.000004
C22	C	1.472094	0.550031	-0.000000
N23	N	1.475592	0.183399	0.344095
N24	N	1.475626	0.183393	-0.344072
C25	C	1.555347	0.103292	0.416295
C26	C	1.555367	0.103288	0.583707
H27	H	0.906659	0.088896	-0.000003
O28	O	1.394284	0.265394	0.581943
C29	C	1.415925	0.389049	0.619054
H30	H	1.515838	0.390325	0.660968
H31	H	1.347091	0.425321	0.707305
C32	C	1.274866	0.471835	0.432278
C33	C	1.397585	0.473404	0.483747
H34	H	1.263547	0.523871	0.348818
H35	H	1.260281	0.388526	0.407279
H36	H	1.217518	0.502058	0.505834
H37	H	1.454928	0.443166	0.410199
H38	H	1.412178	0.556709	0.508732
H39	H	1.679187	-0.216390	0.000019
H40	H	1.075814	0.386984	0.000008
O41	O	1.059240	0.074942	-0.000186
C42	C	1.099406	0.006669	-0.125427
H43	H	1.190034	0.041324	-0.167176
H44	H	1.024223	0.020580	-0.213112
C45	C	1.011108	-0.176081	-0.036111
C46	C	1.122425	-0.133523	-0.087381
H47	H	1.025301	-0.262559	-0.012647
H48	H	0.984042	-0.130083	0.048263
H49	H	0.948466	-0.164477	-0.109191
H50	H	1.185059	-0.145113	-0.014295
H51	H	1.149501	-0.179526	-0.171743
O52	O	1.367298	-0.233257	-0.000190
C53	C	1.358613	-0.307715	-0.125436
H54	H	1.456725	-0.339160	-0.167184
H55	H	1.303833	-0.250740	-0.213119
C56	C	1.170089	-0.384914	-0.036131
C57	C	1.290593	-0.423544	-0.087400
H58	H	1.128126	-0.456360	-0.012673
H59	H	1.175937	-0.334746	0.048247
H60	H	1.124455	-0.337434	-0.109209
H61	H	1.336229	-0.471009	-0.014316
H62	H	1.284751	-0.473722	-0.171766
O63	O	1.636648	0.021468	0.342001
C64	C	1.568893	-0.055876	0.253958
H65	H	1.471734	-0.006834	0.231357
H66	H	1.559484	-0.148220	0.312479
C67	C	1.758166	-0.142101	0.137020
C68	C	1.638838	-0.081862	0.109251
H69	H	1.801313	-0.158137	0.047760
H70	H	1.803816	-0.089997	0.196339
H71	H	1.750309	-0.219048	0.185791
H72	H	1.646697	-0.004911	0.060498
H73	H	1.593191	-0.133954	0.049920
O74	O	1.636774	0.021291	0.657610
C75	C	1.615085	-0.102365	0.620560
H76	H	1.567052	-0.102603	0.510020
H77	H	1.552452	-0.141266	0.706207
C78	C	1.799880	-0.184278	0.749482
C79	C	1.740895	-0.184571	0.613709
H80	H	1.877484	-0.234990	0.745262
H81	H	1.814491	-0.100970	0.774449
H82	H	1.747673	-0.216693	0.820840
H83	H	1.793095	-0.152143	0.542358
H84	H	1.726296	-0.267877	0.588730
H85	H	0.826355	0.380421	-0.000009
H86	H	1.672624	-0.465848	0.000010
O87	O	1.394090	0.265047	0.418358
C88	C	1.316389	0.197669	0.506391
H89	H	1.365019	0.100341	0.529032
H90	H	1.223986	0.188659	0.447840
C91	C	1.230911	0.387252	0.623253
C92	C	1.290645	0.267716	0.651072
H93	H	1.215026	0.430461	0.712496
H94	H	1.283257	0.432647	0.563940
H95	H	1.153916	0.379727	0.574457
H96	H	1.367645	0.275243	0.699850
H97	H	1.238312	0.222323	0.710396
H98	H	1.381099	-0.385544	0.000010
