data_functionalizedCrystal
_audit_creation_method	'MofGen! by Chris Wilmer'
_symmetry_space_group_name_H-M	'P1'
_symmetry_Int_Tables_number	1
_symmetry_cell_setting	triclinic
loop_
_symmetry_equiv_pos_as_xyz
  x,y,z
_cell_length_a	21.295418
_cell_length_b	29.839131
_cell_length_c	29.839126
_cell_angle_alpha	89.978002
_cell_angle_beta	89.954791
_cell_angle_gamma	90.057233
loop_
_atom_site_label
_atom_site_type_symbol
_atom_site_fract_x
_atom_site_fract_y
_atom_site_fract_z
Zn1	Zn	0.962317	-0.178708	-0.254239
Zn2	Zn	1.295651	0.154626	0.079095
Zn3	Zn	1.628984	0.487959	0.412428
Zn4	Zn	0.962197	-0.253825	-0.179109
Zn5	Zn	1.295530	0.079508	0.154225
Zn6	Zn	1.628864	0.412841	0.487558
Zn7	Zn	0.857038	-0.178731	-0.179096
Zn8	Zn	1.190371	0.154602	0.154238
Zn9	Zn	1.523704	0.487936	0.487571
Zn10	Zn	0.856990	-0.253832	-0.254185
Zn11	Zn	1.190323	0.079501	0.079149
Zn12	Zn	1.523656	0.412835	0.412482
O13	O	0.909635	-0.216274	-0.216657
O14	O	1.242969	0.117059	0.116676
O15	O	1.576302	0.450393	0.450010
O16	O	1.050391	-0.188660	-0.244300
O17	O	1.383724	0.144674	0.089033
O18	O	1.717057	0.478007	0.422366
O19	O	0.948217	-0.243871	-0.116240
O20	O	1.281550	0.089463	0.217094
O21	O	1.614884	0.422796	0.550427
O22	O	0.871074	-0.115861	-0.189081
O23	O	1.204407	0.217473	0.144252
O24	O	1.537740	0.550806	0.477586
O25	O	1.050302	-0.243848	-0.189103
O26	O	1.383636	0.089485	0.144231
O27	O	1.716969	0.422818	0.477564
O28	O	0.948422	-0.115844	-0.244288
O29	O	1.281755	0.217490	0.089045
O30	O	1.615089	0.550823	0.422379
O31	O	0.870957	-0.188699	-0.116230
O32	O	1.204290	0.144634	0.217103
O33	O	1.537624	0.477967	0.550436
O34	O	0.768942	-0.188706	-0.189028
O35	O	1.102275	0.144628	0.144305
O36	O	1.435609	0.477961	0.477638
O37	O	0.870992	-0.243860	-0.317059
O38	O	1.204325	0.089474	0.016274
O39	O	1.537659	0.422807	0.349608
O40	O	0.768907	-0.243882	-0.244196
O41	O	1.102240	0.089451	0.089137
O42	O	1.435573	0.422784	0.422471
O43	O	0.948376	-0.188666	-0.317099
O44	O	1.281709	0.144667	0.016235
O45	O	1.615042	0.478000	0.349568
O46	O	0.948171	-0.316693	-0.189050
O47	O	1.281504	0.016640	0.144283
O48	O	1.614837	0.349973	0.477616
O49	O	0.870875	-0.316698	-0.244208
O50	O	1.204209	0.016635	0.089125
O51	O	1.537542	0.349968	0.422458
C52	C	0.746084	-0.216298	-0.216605
C53	C	1.079417	0.117036	0.116728
C54	C	1.412750	0.450369	0.450061
C55	C	0.676116	-0.216319	-0.216594
C56	C	1.009449	0.117015	0.116740
C57	C	1.342782	0.450348	0.450073
C58	C	0.643247	-0.245087	-0.245276
C59	C	0.976580	0.088246	0.088057
C60	C	1.309914	0.421580	0.421390
C61	C	0.577505	-0.245076	-0.245297
C62	C	0.910838	0.088257	0.088037
C63	C	1.244171	0.421591	0.421370
C64	C	0.544633	-0.216301	-0.216626
C65	C	0.877966	0.117032	0.116707
C66	C	1.211300	0.450366	0.450041
C67	C	0.577510	-0.187527	-0.187941
C68	C	0.910843	0.145806	0.145392
C69	C	1.244176	0.479140	0.478725
C70	C	0.643251	-0.187536	-0.187925
C71	C	0.976584	0.145798	0.145408
C72	C	1.309917	0.479131	0.478742
N73	N	0.441357	-0.212786	-0.177333
N74	N	0.774690	0.120547	0.156001
N75	N	1.108023	0.453881	0.489334
N76	N	0.378905	-0.212780	-0.177349
N77	N	0.712239	0.120553	0.155984
N78	N	1.045572	0.453886	0.489317
C79	C	0.346558	-0.216272	-0.216674
C80	C	0.679892	0.117061	0.116660
C81	C	1.013225	0.450394	0.449993
N82	N	0.379022	-0.219779	-0.255982
N83	N	0.712356	0.113554	0.077352
N84	N	1.045689	0.446887	0.410685
N85	N	0.441480	-0.219787	-0.255964
N86	N	0.774813	0.113546	0.077369
N87	N	1.108146	0.446879	0.410702
C88	C	0.473348	-0.216288	-0.216641
C89	C	0.806681	0.117045	0.116693
C90	C	1.140014	0.450378	0.450026
C91	C	0.242404	-0.245030	-0.245381
C92	C	0.575738	0.088303	0.087953
C93	C	0.909071	0.421636	0.421286
C94	C	0.176661	-0.245016	-0.245402
C95	C	0.509994	0.088317	0.087932
C96	C	0.843327	0.421650	0.421265
C97	C	0.176667	-0.187470	-0.188042
C98	C	0.510000	0.145864	0.145291
C99	C	0.843334	0.479197	0.478624
C100	C	0.242409	-0.187482	-0.188025
C101	C	0.575743	0.145852	0.145308
C102	C	0.909076	0.479185	0.478641
C103	C	0.275274	-0.216264	-0.216694
C104	C	0.608608	0.117069	0.116639
C105	C	0.941941	0.450402	0.449973
C106	C	0.909522	-0.332997	-0.216635
C107	C	1.242855	0.000337	0.116699
C108	C	1.576188	0.333670	0.450032
C109	C	0.909531	-0.382931	-0.216640
C110	C	1.242864	-0.049598	0.116693
C111	C	1.576197	0.283736	0.450027
C112	C	0.949956	-0.692559	-0.187978
C113	C	1.283290	-0.359226	0.145355
C114	C	1.616623	-0.025892	0.478689
C115	C	0.950034	-0.880232	-0.187996
C116	C	1.283367	-0.546899	0.145338
C117	C	1.616701	-0.213565	0.478671
O118	O	0.984315	-0.904484	-0.163609
O119	O	1.317648	-0.571151	0.169724
O120	O	1.650982	-0.237817	0.503058
N121	N	0.909766	-0.903716	-0.216691
N122	N	1.243099	-0.570383	0.116643
N123	N	1.576433	-0.237049	0.449976
C124	C	0.869479	-0.880279	-0.245386
C125	C	1.202812	-0.546945	0.087948
C126	C	1.536145	-0.213612	0.421281
O127	O	0.835235	-0.904559	-0.269797
O128	O	1.168568	-0.571226	0.063537
O129	O	1.501901	-0.237893	0.396870
C130	C	0.869405	-0.692607	-0.245370
C131	C	1.202738	-0.359273	0.087963
C132	C	1.536071	-0.025940	0.421296
C133	C	0.909671	-0.669125	-0.216670
C134	C	1.243004	-0.335792	0.116663
C135	C	1.576337	-0.002458	0.449997
C136	C	0.990220	-0.669078	-0.159280
C137	C	1.323553	-0.335744	0.174053
C138	C	1.656886	-0.002411	0.507386
C139	C	0.990197	-0.622162	-0.159275
C140	C	1.323531	-0.288829	0.174059
C141	C	1.656864	0.044504	0.507392
C142	C	0.949912	-0.598728	-0.187967
C143	C	1.283245	-0.265395	0.145367
C144	C	1.616578	0.067938	0.478700
C145	C	0.909648	-0.622210	-0.216664
C146	C	1.242982	-0.288876	0.116669
C147	C	1.576315	0.044457	0.450003
C148	C	0.829121	-0.669170	-0.274067
C149	C	1.162454	-0.335837	0.059266
C150	C	1.495787	-0.002503	0.392599
C151	C	0.829107	-0.622249	-0.274062
C152	C	1.162440	-0.288916	0.059272
C153	C	1.495774	0.044418	0.392605
C154	C	0.869373	-0.598768	-0.245361
C155	C	1.202706	-0.265434	0.087972
C156	C	1.536040	0.067899	0.421305
C157	C	0.869341	-0.551860	-0.245350
C158	C	1.202674	-0.218527	0.087983
C159	C	1.536007	0.114806	0.421316
N160	N	0.909609	-0.528376	-0.216655
N161	N	1.242942	-0.195043	0.116678
N162	N	1.576275	0.138290	0.450012
C163	C	0.949894	-0.551810	-0.187963
C164	C	1.283227	-0.218477	0.145370
C165	C	1.616561	0.114856	0.478704
C166	C	0.869519	-0.978809	-0.245391
C167	C	1.202853	-0.645476	0.087942
C168	C	1.536186	-0.312143	0.421275
C169	C	0.869537	-1.025727	-0.245395
C170	C	1.202870	-0.692394	0.087939
C171	C	1.536204	-0.359060	0.421272
C172	C	0.950093	-1.025677	-0.188005
C173	C	1.283427	-0.692344	0.145328
C174	C	1.616760	-0.359011	0.478662
C175	C	0.950072	-0.978759	-0.188000
C176	C	1.283405	-0.645425	0.145334
C177	C	1.616739	-0.312092	0.478667
C178	C	0.909787	-0.955325	-0.216696
C179	C	1.243121	-0.621992	0.116637
C180	C	1.576454	-0.288659	0.449971
C181	C	0.949844	-0.453285	-0.187953
C182	C	1.283177	-0.119951	0.145381
C183	C	1.616511	0.213382	0.478714
C184	C	0.949816	-0.406365	-0.187948
C185	C	1.283150	-0.073032	0.145385
C186	C	1.616483	0.260302	0.478718
C187	C	0.869263	-0.406419	-0.245339
C188	C	1.202596	-0.073086	0.087994
C189	C	1.535929	0.260248	0.421327
C190	C	0.869288	-0.453334	-0.245343
C191	C	1.202621	-0.120001	0.087991
C192	C	1.535954	0.213332	0.421324
C193	C	0.909583	-0.476766	-0.216648
C194	C	1.242917	-0.143433	0.116686
C195	C	1.576250	0.189901	0.450019
O196	O	0.835082	-0.527579	-0.269728
O197	O	1.168416	-0.194246	0.063606
O198	O	1.501749	0.139087	0.396939
O199	O	0.984143	-0.527522	-0.163563
O200	O	1.317476	-0.194188	0.169770
O201	O	1.650810	0.139145	0.503104
C202	C	0.949978	-0.739475	-0.187984
C203	C	1.283312	-0.406141	0.145349
C204	C	1.616645	-0.072808	0.478683
C205	C	0.909715	-0.762956	-0.216682
C206	C	1.243048	-0.429623	0.116652
C207	C	1.576382	-0.096289	0.449985
C208	C	0.869430	-0.739522	-0.245373
C209	C	1.202763	-0.406189	0.087960
C210	C	1.536096	-0.072855	0.421293
C211	C	0.909733	-0.809874	-0.216685
C212	C	1.243066	-0.476541	0.116648
C213	C	1.576399	-0.143207	0.449982
C214	C	0.950018	-0.833308	-0.187993
C215	C	1.283352	-0.499974	0.145340
C216	C	1.616685	-0.166641	0.478674
C217	C	0.990286	-0.809824	-0.159298
C218	C	1.323620	-0.476491	0.174035
C219	C	1.656953	-0.143157	0.507369
C220	C	0.990264	-0.762909	-0.159292
C221	C	1.323597	-0.429575	0.174041
C222	C	1.656931	-0.096242	0.507375
C223	C	0.829162	-0.763006	-0.274069
C224	C	1.162495	-0.429673	0.059265
C225	C	1.495828	-0.096339	0.392598
C226	C	0.829187	-0.809921	-0.274072
C227	C	1.162520	-0.476588	0.059262
C228	C	1.495853	-0.143255	0.392595
C229	C	0.869472	-0.833355	-0.245380
C230	C	1.202806	-0.500022	0.087953
C231	C	1.536139	-0.166689	0.421287
C232	C	1.073826	-0.216251	-0.216709
C233	C	1.407159	0.117083	0.116624
C234	C	1.740492	0.450416	0.449958
C235	C	1.143794	-0.216241	-0.216731
C236	C	1.477127	0.117093	0.116602
C237	C	1.810461	0.450426	0.449935
C238	C	0.909692	-0.216261	-0.333835
C239	C	1.243025	0.117072	-0.000502
C240	C	1.576359	0.450406	0.332831
C241	C	0.909716	-0.216256	-0.383770
C242	C	1.243049	0.117078	-0.050436
C243	C	1.576383	0.450411	0.282897
C244	C	0.909767	-0.099096	-0.216689
C245	C	1.243100	0.234238	0.116644
C246	C	1.576433	0.567571	0.449978
C247	C	0.909823	-0.049161	-0.216703
C248	C	1.243156	0.284172	0.116630
C249	C	1.576489	0.617506	0.449964
C250	C	0.949937	-0.244924	-0.740365
C251	C	1.283270	0.088410	-0.407032
C252	C	1.616603	0.421743	-0.073698
C253	C	0.949938	-0.244955	-0.552692
C254	C	1.283271	0.088378	-0.219358
C255	C	1.616604	0.421712	0.113975
O256	O	0.984129	-0.269400	-0.528434
O257	O	1.317462	0.063933	-0.195101
O258	O	1.650795	0.397267	0.138233
N259	N	0.909713	-0.216234	-0.529215
N260	N	1.243046	0.117099	-0.195882
N261	N	1.576380	0.450433	0.137452
C262	C	0.869482	-0.187505	-0.552659
C263	C	1.202816	0.145828	-0.219326
C264	C	1.536149	0.479161	0.114007
O265	O	0.835264	-0.163080	-0.528384
O266	O	1.168598	0.170253	-0.195051
O267	O	1.501931	0.503586	0.138282
C268	C	0.869479	-0.187477	-0.740331
C269	C	1.202812	0.145857	-0.406998
C270	C	1.536145	0.479190	-0.073665
C271	C	0.909710	-0.216196	-0.763806
C272	C	1.243044	0.117137	-0.430473
C273	C	1.576377	0.450470	-0.097139
C274	C	0.990165	-0.273641	-0.763839
C275	C	1.323498	0.059692	-0.430506
C276	C	1.656831	0.393025	-0.097173
C277	C	0.990167	-0.273631	-0.810755
C278	C	1.323500	0.059702	-0.477422
C279	C	1.656833	0.393035	-0.144088
C280	C	0.949940	-0.244904	-0.834196
C281	C	1.283274	0.088429	-0.500863
C282	C	1.616607	0.421763	-0.167529
C283	C	0.909712	-0.216186	-0.810721
C284	C	1.243046	0.117147	-0.477388
C285	C	1.576379	0.450480	-0.144055
C286	C	0.829245	-0.158751	-0.763775
C287	C	1.162578	0.174583	-0.430442
C288	C	1.495912	0.507916	-0.097108
C289	C	0.829247	-0.158747	-0.810696
C290	C	1.162580	0.174587	-0.477363
C291	C	1.495913	0.507920	-0.144029
C292	C	0.869478	-0.187466	-0.834170
C293	C	1.202812	0.145867	-0.500837
C294	C	1.536145	0.479200	-0.167504
C295	C	0.869488	-0.187449	-0.881078
C296	C	1.202821	0.145884	-0.547745
C297	C	1.536154	0.479218	-0.214411
N298	N	0.909712	-0.216170	-0.904555
N299	N	1.243046	0.117163	-0.571221
N300	N	1.576379	0.450497	-0.237888
C301	C	0.949939	-0.244897	-0.881114
C302	C	1.283272	0.088436	-0.547780
C303	C	1.616605	0.421769	-0.214447
C304	C	0.869488	-0.187522	-0.454129
C305	C	1.202821	0.145812	-0.120795
C306	C	1.536155	0.479145	0.212538
C307	C	0.869490	-0.187528	-0.407211
C308	C	1.202823	0.145805	-0.073877
C309	C	1.536156	0.479138	0.259456
C310	C	0.949944	-0.244979	-0.407247
C311	C	1.283278	0.088355	-0.073913
C312	C	1.616611	0.421688	0.259420
C313	C	0.949945	-0.244969	-0.454165
C314	C	1.283279	0.088364	-0.120832
C315	C	1.616612	0.421697	0.212501
C316	C	0.909713	-0.216243	-0.477605
C317	C	1.243046	0.117091	-0.144272
C318	C	1.576379	0.450424	0.189061
C319	C	0.949940	-0.244874	-0.979640
C320	C	1.283273	0.088459	-0.646306
C321	C	1.616606	0.421792	-0.312973
C322	C	0.949940	-0.244861	-1.026559
C323	C	1.283273	0.088473	-0.693226
C324	C	1.616606	0.421806	-0.359893
C325	C	0.869483	-0.187412	-1.026519
C326	C	1.202816	0.145921	-0.693186
C327	C	1.536150	0.479254	-0.359853
C328	C	0.869485	-0.187424	-0.979604
C329	C	1.202818	0.145909	-0.646270
C330	C	1.536152	0.479243	-0.312937
C331	C	0.909715	-0.216159	-0.956165
C332	C	1.243049	0.117175	-0.622832
C333	C	1.576382	0.450508	-0.289498
O334	O	0.835310	-0.163020	-0.905365
O335	O	1.168643	0.170313	-0.572031
O336	O	1.501976	0.503646	-0.238698
O337	O	0.984142	-0.269326	-0.905397
O338	O	1.317475	0.064008	-0.572063
O339	O	1.650808	0.397341	-0.238730
C340	C	0.949935	-0.244933	-0.693449
C341	C	1.283268	0.088400	-0.360116
C342	C	1.616602	0.421733	-0.026783
C343	C	0.909707	-0.216216	-0.669975
C344	C	1.243040	0.117117	-0.336642
C345	C	1.576374	0.450451	-0.003308
C346	C	0.869481	-0.187488	-0.693416
C347	C	1.202814	0.145845	-0.360083
C348	C	1.536147	0.479178	-0.026749
C349	C	0.909709	-0.216222	-0.623057
C350	C	1.243042	0.117111	-0.289724
C351	C	1.576375	0.450444	0.043610
C352	C	0.949935	-0.244950	-0.599616
C353	C	1.283268	0.088384	-0.266283
C354	C	1.616601	0.421717	0.067051
C355	C	0.990159	-0.273671	-0.623093
C356	C	1.323493	0.059663	-0.289760
C357	C	1.656826	0.392996	0.043574
C358	C	0.990161	-0.273661	-0.670008
C359	C	1.323495	0.059672	-0.336675
C360	C	1.656828	0.393006	-0.003342
C361	C	0.829256	-0.158768	-0.669939
C362	C	1.162589	0.174566	-0.336606
C363	C	1.495923	0.507899	-0.003272
C364	C	0.829258	-0.158779	-0.623024
C365	C	1.162591	0.174554	-0.289690
C366	C	1.495925	0.507887	0.043643
C367	C	0.869484	-0.187507	-0.599583
C368	C	1.202818	0.145827	-0.266249
C369	C	1.536151	0.479160	0.067084
C370	C	0.909615	-0.216254	-0.099934
C371	C	1.242949	0.117079	0.233399
C372	C	1.576282	0.450412	0.566732
C373	C	0.909713	-0.216133	-0.050000
C374	C	1.243047	0.117200	0.283333
C375	C	1.576380	0.450533	0.616666
H376	H	0.670001	-0.268524	-0.268621
H377	H	1.003335	0.064810	0.064712
H378	H	1.336668	0.398143	0.398045
N379	N	0.678698	-0.156506	-0.156983
N380	N	1.012032	0.176827	0.176351
N381	N	1.345365	0.510161	0.509684
H382	H	0.705909	-0.174736	-0.136122
H383	H	1.039243	0.158597	0.197211
H384	H	1.372576	0.491930	0.530544
H385	H	0.706003	-0.135723	-0.175302
H386	H	1.039337	0.197611	0.158032
H387	H	1.372670	0.530944	0.491365
H388	H	0.982699	-0.268369	-0.388153
H389	H	1.316033	0.064965	-0.054820
H390	H	1.649366	0.398298	0.278514
N391	N	1.033550	-0.304653	-0.597805
N392	N	1.366883	0.028680	-0.264472
N393	N	1.700216	0.362013	0.068862
H394	H	1.027364	-0.300351	-0.564522
H395	H	1.360697	0.032982	-0.231188
H396	H	1.694030	0.366316	0.102145
H397	H	1.023788	-0.336736	-0.606048
H398	H	1.357122	-0.003402	-0.272714
H399	H	1.690455	0.329931	0.060619
N400	N	0.277855	-0.276070	-0.276304
N401	N	0.611188	0.057264	0.057030
N402	N	0.944522	0.390597	0.390363
H403	H	0.324490	-0.271713	-0.271938
H404	H	0.657823	0.061620	0.061395
H405	H	0.991157	0.394953	0.394728
H406	H	0.266295	-0.308142	-0.269254
H407	H	0.599628	0.025191	0.064079
H408	H	0.932961	0.358524	0.397412
N409	N	0.141220	-0.156436	-0.157116
N410	N	0.474554	0.176897	0.176217
N411	N	0.807887	0.510230	0.509550
H412	H	0.172021	-0.138214	-0.138941
H413	H	0.505355	0.195120	0.194392
H414	H	0.838688	0.528453	0.527726
H415	H	0.114008	-0.135668	-0.175448
H416	H	0.447341	0.197665	0.157886
H417	H	0.780675	0.530999	0.491219
H418	H	0.149900	-0.268442	-0.268761
H419	H	0.483234	0.064891	0.064572
H420	H	0.816567	0.398224	0.397905
H421	H	0.796498	-0.135388	-0.603915
H422	H	1.129831	0.197945	-0.270581
H423	H	1.463164	0.531279	0.062752
H424	H	0.796497	-0.135375	-0.689020
H425	H	1.129830	0.197959	-0.355687
H426	H	1.463164	0.531292	-0.022353
N427	N	0.785687	-0.694489	-0.305021
N428	N	1.119020	-0.361156	0.028313
N429	N	1.452354	-0.027822	0.361646
H430	H	0.760170	-0.672518	-0.323194
H431	H	1.093503	-0.339184	0.010139
H432	H	1.426836	-0.005851	0.343472
H433	H	0.811303	-0.713922	-0.325838
H434	H	1.144636	-0.380588	0.007496
H435	H	1.477969	-0.047255	0.340829
H436	H	0.982703	-0.268270	-0.960561
H437	H	1.316036	0.065063	-0.627228
H438	H	1.649370	0.398397	-0.293895
H439	H	0.836724	-0.164128	-0.473209
H440	H	1.170057	0.169206	-0.139876
H441	H	1.503390	0.502539	0.193457
H442	H	0.836742	-1.044842	-0.268761
H443	H	1.170076	-0.711508	0.064572
H444	H	1.503409	-0.378175	0.397905
N445	N	0.277866	-0.156450	-0.157092
N446	N	0.611199	0.176884	0.176242
N447	N	0.944532	0.510217	0.509575
H448	H	0.247068	-0.138217	-0.138933
H449	H	0.580401	0.195116	0.194401
H450	H	0.913735	0.528449	0.527734
H451	H	0.305082	-0.174706	-0.136260
H452	H	0.638416	0.158627	0.197074
H453	H	0.971749	0.491961	0.530407
N454	N	0.993249	-0.381039	-0.156993
N455	N	1.326583	-0.047705	0.176340
N456	N	1.659916	0.285628	0.509674
H457	H	1.018775	-0.403006	-0.138820
H458	H	1.352108	-0.069673	0.194513
H459	H	1.685441	0.263660	0.527846
H460	H	1.022359	-0.361536	-0.175305
H461	H	1.355693	-0.028203	0.158028
H462	H	1.689026	0.305130	0.491361
N463	N	0.785651	-0.596973	-0.305008
N464	N	1.118985	-0.263640	0.028325
N465	N	1.452318	0.069694	0.361658
H466	H	0.811209	-0.577472	-0.325849
H467	H	1.144543	-0.244138	0.007485
H468	H	1.477876	0.089195	0.340818
H469	H	0.760155	-0.618997	-0.323158
H470	H	1.093489	-0.285664	0.010175
H471	H	1.426822	0.047669	0.343508
H472	H	0.836713	-0.959733	-0.268760
H473	H	1.170047	-0.626400	0.064573
H474	H	1.503380	-0.293066	0.397907
N475	N	1.033637	-0.596841	-0.128325
N476	N	1.366971	-0.263507	0.205008
N477	N	1.700304	0.069826	0.538342
H478	H	1.062788	-0.577341	-0.146610
H479	H	1.396121	-0.244008	0.186724
H480	H	1.729455	0.089326	0.520057
H481	H	1.008025	-0.577432	-0.107483
H482	H	1.341359	-0.244099	0.225850
H483	H	1.674692	0.089234	0.559183
H484	H	0.982658	-0.472357	-0.164588
H485	H	1.315991	-0.139024	0.168746
H486	H	1.649325	0.194310	0.502079
N487	N	1.033675	-0.694348	-0.128332
N488	N	1.367008	-0.361015	0.205001
N489	N	1.700341	-0.027682	0.538334
H490	H	1.059175	-0.672347	-0.110155
H491	H	1.392508	-0.339014	0.223178
H492	H	1.725841	-0.005680	0.556512
H493	H	1.008073	-0.713846	-0.107518
H494	H	1.341406	-0.380513	0.225815
H495	H	1.674739	-0.047179	0.559148
H496	H	0.836502	-0.472454	-0.268714
H497	H	1.169835	-0.139121	0.064619
H498	H	1.503168	0.194213	0.397953
H499	H	0.796483	-0.135365	-0.744670
H500	H	1.129816	0.197969	-0.411337
H501	H	1.463150	0.531302	-0.078003
N502	N	0.825809	-0.381139	-0.276282
N503	N	1.159142	-0.047806	0.057052
N504	N	1.492476	0.285527	0.390385
H505	H	0.831910	-0.347855	-0.271921
H506	H	1.165243	-0.014521	0.061412
H507	H	1.498577	0.318812	0.394745
H508	H	0.835590	-0.389313	-0.308377
H509	H	1.168923	-0.055980	0.024956
H510	H	1.502257	0.277354	0.358290
N511	N	0.993331	-0.275838	-1.051881
N512	N	1.326664	0.057495	-0.718547
N513	N	1.659997	0.390829	-0.385214
H514	H	1.038315	-0.268856	-1.043741
H515	H	1.371648	0.064478	-0.710407
H516	H	1.704982	0.397811	-0.377074
H517	H	0.983464	-0.307928	-1.043694
H518	H	1.316797	0.025406	-0.710361
H519	H	1.650131	0.358739	-0.377028
H520	H	0.836736	-0.164137	-0.388102
H521	H	1.170069	0.169197	-0.054768
H522	H	1.503403	0.502530	0.278565
N523	N	0.785849	-0.127764	-0.835978
N524	N	1.119183	0.205569	-0.502644
N525	N	1.452516	0.538903	-0.169311
H526	H	0.760366	-0.109574	-0.813984
H527	H	1.093699	0.223760	-0.480651
H528	H	1.427033	0.557093	-0.147318
H529	H	0.811492	-0.106963	-0.855462
H530	H	1.144825	0.226370	-0.522129
H531	H	1.478159	0.559704	-0.188796
H532	H	0.982861	-0.959643	-0.164630
H533	H	1.316194	-0.626309	0.168704
H534	H	1.649527	-0.292976	0.502037
N535	N	1.033698	-0.737585	-0.128339
N536	N	1.367031	-0.404252	0.204994
N537	N	1.700365	-0.070919	0.538327
H538	H	1.059220	-0.759556	-0.110168
H539	H	1.392553	-0.426223	0.223165
H540	H	1.725887	-0.092889	0.556499
H541	H	1.062811	-0.718085	-0.146651
H542	H	1.396144	-0.384752	0.186682
H543	H	1.729478	-0.051418	0.520015
H544	H	1.023087	-0.828912	-0.135935
H545	H	1.356420	-0.495579	0.197399
H546	H	1.689753	-0.162245	0.530732
H547	H	0.836733	-0.164032	-0.960490
H548	H	1.170067	0.169301	-0.627157
H549	H	1.503400	0.502634	-0.293823
N550	N	0.993333	-0.275952	-0.479478
N551	N	1.326667	0.057382	-0.146144
N552	N	1.660000	0.390715	0.187189
H553	H	0.967729	-0.296774	-0.498922
H554	H	1.301062	0.036559	-0.165589
H555	H	1.634395	0.369892	0.167745
H556	H	1.022520	-0.257660	-0.498941
H557	H	1.355853	0.075673	-0.165608
H558	H	1.689186	0.409007	0.167726
H559	H	0.550741	-0.164098	-0.164598
H560	H	0.884075	0.169236	0.168735
H561	H	1.217408	0.502569	0.502068
N562	N	0.542043	-0.276105	-0.276235
N563	N	0.875376	0.057228	0.057099
N564	N	1.208709	0.390562	0.390432
H565	H	0.572838	-0.294339	-0.294394
H566	H	0.906171	0.038994	0.038939
H567	H	1.239505	0.372328	0.372273
H568	H	0.514703	-0.296863	-0.257913
H569	H	0.848037	0.036471	0.075420
H570	H	1.181370	0.369804	0.408754
H571	H	0.836733	-0.164022	-1.045613
H572	H	1.170067	0.169311	-0.712280
H573	H	1.503400	0.502645	-0.378947
H574	H	0.982896	-1.044765	-0.164643
H575	H	1.316229	-0.711432	0.168690
H576	H	1.649562	-0.378099	0.502024
H577	H	0.796392	-0.829036	-0.297443
H578	H	1.129725	-0.495703	0.035891
H579	H	1.463058	-0.162369	0.369224
N580	N	0.785707	-0.737734	-0.305015
N581	N	1.119040	-0.404401	0.028318
N582	N	1.452373	-0.071068	0.361652
H583	H	0.760203	-0.759734	-0.323191
H584	H	1.093536	-0.426401	0.010142
H585	H	1.426870	-0.093068	0.343475
H586	H	0.756577	-0.718307	-0.286698
H587	H	1.089911	-0.384973	0.046635
H588	H	1.423244	-0.051640	0.379969
H589	H	1.022925	-0.297019	-0.829864
H590	H	1.356259	0.036314	-0.496530
H591	H	1.689592	0.369647	-0.163197
H592	H	1.022923	-0.297037	-0.744759
H593	H	1.356256	0.036297	-0.411425
H594	H	1.689589	0.369630	-0.078092
N595	N	1.033554	-0.304637	-0.695324
N596	N	1.366887	0.028696	-0.361991
N597	N	1.700220	0.362029	-0.028657
H598	H	1.059032	-0.322836	-0.673349
H599	H	1.392366	0.010498	-0.340016
H600	H	1.725699	0.343831	-0.006682
H601	H	1.007910	-0.325431	-0.714771
H602	H	1.341243	0.007902	-0.381438
H603	H	1.674576	0.341236	-0.048104
