data_functionalizedCrystal
_audit_creation_method	'MofGen! by Chris Wilmer'
_symmetry_space_group_name_H-M	'P1'
_symmetry_Int_Tables_number	1
_symmetry_cell_setting	triclinic
loop_
_symmetry_equiv_pos_as_xyz
  x,y,z
_cell_length_a	19.805407
_cell_length_b	12.759400
_cell_length_c	19.805399
_cell_angle_alpha	89.977881
_cell_angle_beta	89.975799
_cell_angle_gamma	90.012413
loop_
_atom_site_label
_atom_site_type_symbol
_atom_site_fract_x
_atom_site_fract_y
_atom_site_fract_z
Zn1	Zn	1.034798	-0.418312	-0.382829
Zn2	Zn	1.034739	-0.594005	-0.269651
Zn3	Zn	0.921613	-0.418338	-0.269644
Zn4	Zn	0.921602	-0.593947	-0.382789
O5	O	0.978188	-0.506150	-0.326228
O6	O	1.129507	-0.441631	-0.367835
O7	O	1.019712	-0.570738	-0.174934
O8	O	0.936656	-0.271314	-0.284672
O9	O	1.129463	-0.570712	-0.284684
O10	O	1.019813	-0.271294	-0.367828
O11	O	0.936599	-0.441676	-0.174929
O12	O	0.826895	-0.441620	-0.284634
O13	O	0.936638	-0.570613	-0.477511
O14	O	0.826887	-0.570639	-0.367761
O15	O	1.019803	-0.441575	-0.477540
O16	O	1.019702	-0.741018	-0.284646
O17	O	0.936581	-0.740976	-0.367767
C18	C	0.802332	-0.506127	-0.326192
C19	C	0.727100	-0.506142	-0.326193
C20	C	0.265323	-0.573457	-0.369488
C21	C	0.336011	-0.573455	-0.369474
C22	C	0.371338	-0.506176	-0.326255
C23	C	0.335973	-0.438901	-0.283043
C24	C	0.265286	-0.438909	-0.283054
C25	C	0.621047	-0.438869	-0.282995
C26	C	0.691739	-0.438864	-0.282989
C27	C	0.691772	-0.573415	-0.369415
C28	C	0.621085	-0.573423	-0.369426
C29	C	0.585726	-0.506153	-0.326212
C30	C	0.509077	-0.506157	-0.326227
C31	C	0.447985	-0.506166	-0.326243
C32	C	0.978153	-0.779118	-0.326218
C33	C	0.978199	-0.895894	-0.326236
C34	C	1.021477	-0.950667	-0.369571
C35	C	1.021509	-1.060391	-0.369587
C36	C	0.934982	-1.060561	-0.282928
C37	C	0.934948	-0.950839	-0.282916
C38	C	1.064729	-0.895722	-0.412891
C39	C	1.108011	-0.950495	-0.456229
C40	C	1.108042	-1.060219	-0.456245
C41	C	1.064792	-1.115170	-0.412924
C42	C	1.154731	-0.506175	-0.326265
C43	C	1.229963	-0.506185	-0.326281
C44	C	0.978226	-0.506084	-0.502771
C45	C	0.978242	-0.506056	-0.578003
C46	C	0.978242	-0.232117	-0.326254
C47	C	0.978265	-0.115341	-0.326265
C48	C	1.021547	-0.438862	-0.613364
C49	C	1.021554	-0.438832	-0.684052
C50	C	0.978259	-0.506001	-0.719379
C51	C	0.934950	-0.573198	-0.684013
C52	C	0.934940	-0.573222	-0.613326
C53	C	0.934988	-0.573100	-0.969087
C54	C	0.935002	-0.573073	-1.039779
C55	C	1.021602	-0.438710	-1.039813
C56	C	1.021592	-0.438734	-0.969126
C57	C	0.978280	-0.505926	-0.933766
C58	C	0.978272	-0.505957	-0.857118
C59	C	0.978270	-0.505976	-0.796026
C60	C	0.978189	-0.506141	-0.150372
C61	C	0.978304	-0.505873	-0.075141
H62	H	0.364742	-0.384126	-0.247850
O63	O	0.892803	-0.638352	-0.578949
C64	C	0.849100	-0.578552	-0.538041
H65	H	0.844939	-0.495795	-0.559347
H66	H	0.797004	-0.616547	-0.537226
H67	H	0.870018	-0.574960	-0.484474
O68	O	0.893009	-1.113823	-0.240751
C69	C	0.907843	-1.087074	-0.173303
H70	H	0.933836	-1.007380	-0.171916
H71	H	0.859011	-1.083403	-0.142902
H72	H	0.942676	-1.148807	-0.150548
O73	O	0.230936	-0.638864	-0.411379
C74	C	0.190031	-0.706668	-0.372779
H75	H	0.179411	-0.669512	-0.321527
H76	H	0.140340	-0.720812	-0.400344
H77	H	0.217263	-0.784507	-0.365251
H78	H	1.056866	-0.383995	-1.068611
O79	O	1.063575	-0.373328	-0.934845
C80	C	1.048810	-0.268614	-0.952145
H81	H	0.994741	-0.263307	-0.971561
H82	H	1.054643	-0.216717	-0.905669
H83	H	1.085107	-0.241144	-0.993192
O84	O	1.063532	-0.373461	-0.579082
C85	C	1.048771	-0.268744	-0.596377
H86	H	0.994702	-0.263430	-0.615792
H87	H	1.054606	-0.216852	-0.549899
H88	H	1.085068	-0.241274	-0.637423
O89	O	0.370464	-0.638759	-0.411388
C90	C	0.440430	-0.624311	-0.402125
H91	H	0.450059	-0.589811	-0.349922
H92	H	0.467290	-0.703012	-0.406636
H93	H	0.460516	-0.568429	-0.442324
O94	O	0.586873	-0.638878	-0.411430
C95	C	0.633242	-0.698238	-0.449575
H96	H	0.683615	-0.701813	-0.421841
H97	H	0.612814	-0.781032	-0.456706
H98	H	0.640792	-0.659870	-0.501022
O99	O	0.231010	-0.373611	-0.240989
C100	C	0.248232	-0.396454	-0.173502
H101	H	0.299551	-0.436833	-0.172050
H102	H	0.250640	-0.320570	-0.143233
H103	H	0.208431	-0.450430	-0.150652
O104	O	0.893010	-0.638427	-0.934677
C105	C	0.931515	-0.706333	-0.893803
H106	H	0.982813	-0.669295	-0.883216
H107	H	0.903924	-0.720435	-0.844094
H108	H	0.938944	-0.784177	-0.921044
H109	H	0.899706	-0.906243	-0.247629
H110	H	1.143279	-1.104811	-0.491538
O111	O	0.892989	-0.638557	-0.718359
C112	C	0.931515	-0.706390	-0.759262
H113	H	0.984819	-0.712897	-0.737973
H114	H	0.907018	-0.787239	-0.760050
H115	H	0.933863	-0.673888	-0.812839
O116	O	1.064921	-1.221757	-0.413011
C117	C	1.112376	-1.258321	-0.460568
H118	H	1.151902	-1.195047	-0.470073
H119	H	1.138087	-1.331728	-0.440186
H120	H	1.085512	-1.277756	-0.509899
H121	H	1.064709	-0.806380	-0.412881
O122	O	1.149998	-0.896957	-0.498247
C123	C	1.140680	-0.788368	-0.488954
H124	H	1.118539	-0.773453	-0.436695
H125	H	1.191365	-0.746612	-0.493590
H126	H	1.104604	-0.757230	-0.529061
O127	O	0.726195	-0.638625	-0.411423
C128	C	0.767103	-0.578893	-0.455208
H129	H	0.777690	-0.499227	-0.431418
H130	H	0.816810	-0.621704	-0.464226
H131	H	0.739891	-0.567448	-0.505383
H132	H	0.720500	-0.384073	-0.247793
H133	H	1.056818	-0.384119	-0.712840
H134	H	0.899744	-0.627772	-1.068540
H135	H	0.592266	-0.384098	-0.247805
