data_functionalizedCrystal
_audit_creation_method	'MofGen! by Chris Wilmer'
_symmetry_space_group_name_H-M	'P1'
_symmetry_Int_Tables_number	1
_symmetry_cell_setting	triclinic
loop_
_symmetry_equiv_pos_as_xyz
  x,y,z
_cell_length_a	19.288864
_cell_length_b	14.971486
_cell_length_c	14.048226
_cell_angle_alpha	89.993360
_cell_angle_beta	89.979690
_cell_angle_gamma	83.375187
loop_
_atom_site_label
_atom_site_type_symbol
_atom_site_fract_x
_atom_site_fract_y
_atom_site_fract_z
O1	O	0.921714	0.111581	-0.079466
O2	O	1.255047	0.444915	0.253867
O3	O	1.588381	0.778248	0.587200
O4	O	0.719502	0.126633	-0.079401
O5	O	1.052836	0.459967	0.253932
O6	O	1.386169	0.793300	0.587265
O7	O	0.826028	-0.011122	-0.079429
O8	O	1.159361	0.322211	0.253904
O9	O	1.492695	0.655545	0.587238
O10	O	0.815188	0.249337	-0.079439
O11	O	1.148522	0.582670	0.253894
O12	O	1.481855	0.916003	0.587228
O13	O	0.826015	-0.011130	0.078892
O14	O	1.159348	0.322203	0.412226
O15	O	1.492682	0.655537	0.745559
O16	O	0.719489	0.126625	0.078920
O17	O	1.052823	0.459959	0.412253
O18	O	1.386156	0.793292	0.745587
O19	O	0.921701	0.111573	0.078855
O20	O	1.255034	0.444907	0.412188
O21	O	1.588368	0.778240	0.745522
Zn22	Zn	0.820593	0.119098	0.104024
Zn23	Zn	1.153927	0.452431	0.437358
Zn24	Zn	1.487260	0.785765	0.770691
Zn25	Zn	0.820610	0.119109	-0.104571
Zn26	Zn	1.153943	0.452442	0.228762
Zn27	Zn	1.487277	0.785775	0.562096
O28	O	0.815175	0.249329	0.078882
O29	O	1.148509	0.582662	0.412216
O30	O	1.481842	0.915995	0.745549
C31	C	0.825537	-0.044448	-0.000268
C32	C	1.158870	0.288885	0.333065
C33	C	1.492203	0.622219	0.666398
C34	C	0.824084	-0.143737	-0.000269
C35	C	1.157417	0.189596	0.333065
C36	C	1.490751	0.522929	0.666398
C37	C	0.693618	0.126145	-0.000232
C38	C	1.026951	0.459478	0.333101
C39	C	1.360285	0.792812	0.666434
C40	C	0.616510	0.124691	-0.000207
C41	C	0.949843	0.458025	0.333126
C42	C	1.283176	0.791358	0.666459
C43	C	0.886665	-0.201301	-0.000288
C44	C	1.219998	0.132032	0.333045
C45	C	1.553332	0.465366	0.666378
C46	C	0.885296	-0.294593	-0.000297
C47	C	1.218629	0.038740	0.333036
C48	C	1.551962	0.372074	0.666369
C49	C	0.821345	-0.330320	-0.000280
C50	C	1.154678	0.003014	0.333053
C51	C	1.488012	0.336347	0.666386
C52	C	0.758759	-0.272749	-0.000264
C53	C	1.092093	0.060585	0.333070
C54	C	1.425426	0.393918	0.666403
C55	C	0.760129	-0.179458	-0.000261
C56	C	1.093463	0.153875	0.333072
C57	C	1.426796	0.487208	0.666405
C58	C	0.755909	-0.467196	-0.000266
C59	C	1.089242	-0.133862	0.333067
C60	C	1.422575	0.199471	0.666401
C61	C	0.754538	-0.560492	-0.000267
C62	C	1.087872	-0.227159	0.333067
C63	C	1.421205	0.106174	0.666400
C64	C	0.881075	-0.582330	-0.000302
C65	C	1.214409	-0.248997	0.333031
C66	C	1.547742	0.084336	0.666364
C67	C	0.882445	-0.489040	-0.000300
C68	C	1.215778	-0.155707	0.333033
C69	C	1.549112	0.177627	0.666367
C70	C	0.819859	-0.431475	-0.000281
C71	C	1.153192	-0.098142	0.333052
C72	C	1.486526	0.235191	0.666385
C73	C	0.572077	0.205520	-0.000226
C74	C	0.905410	0.538853	0.333108
C75	C	1.238743	0.872187	0.666441
C76	C	0.499625	0.204154	-0.000236
C77	C	0.832959	0.537487	0.333097
C78	C	1.166292	0.870821	0.666431
C79	C	0.471610	0.121955	-0.000247
C80	C	0.804943	0.455288	0.333086
C81	C	1.138276	0.788622	0.666419
C82	C	0.516052	0.041116	-0.000224
C83	C	0.849386	0.374449	0.333109
C84	C	1.182719	0.707782	0.666443
C85	C	0.588502	0.042484	-0.000204
C86	C	0.921836	0.375817	0.333129
C87	C	1.255169	0.709151	0.666463
C88	C	0.363142	0.057340	-0.055744
C89	C	0.696475	0.390673	0.277589
C90	C	1.029808	0.724007	0.610923
C91	C	0.290693	0.055975	-0.055770
C92	C	0.624026	0.389309	0.277564
C93	C	0.957359	0.722642	0.610897
C94	C	0.248150	0.117732	-0.000305
C95	C	0.581484	0.451065	0.333028
C96	C	0.914817	0.784398	0.666362
C97	C	0.278064	0.180868	0.055174
C98	C	0.611398	0.514201	0.388507
C99	C	0.944731	0.847535	0.721840
C100	C	0.350514	0.182236	0.055194
C101	C	0.683848	0.515569	0.388527
C102	C	1.017181	0.848903	0.721860
C103	C	0.393051	0.120462	-0.000269
C104	C	0.726384	0.453796	0.333065
C105	C	1.059718	0.787129	0.666398
C106	C	0.125157	0.197085	-0.000333
C107	C	0.458490	0.530418	0.333000
C108	C	0.791823	0.863751	0.666334
C109	C	0.052704	0.195715	-0.000338
C110	C	0.386038	0.529049	0.332996
C111	C	0.719371	0.862382	0.666329
C112	C	0.069133	0.032675	-0.000335
C113	C	0.402466	0.366008	0.332998
C114	C	0.735800	0.699341	0.666332
C115	C	0.141584	0.034046	-0.000321
C116	C	0.474917	0.367380	0.333012
C117	C	0.808251	0.700713	0.666346
C118	C	0.169591	0.116254	-0.000324
C119	C	0.502925	0.449587	0.333009
C120	C	0.836258	0.782920	0.666342
C121	C	0.947586	0.112062	-0.000316
C122	C	1.280919	0.445395	0.333017
C123	C	1.614252	0.778728	0.666350
C124	C	1.024694	0.113516	-0.000347
C125	C	1.358027	0.446849	0.332986
C126	C	1.691360	0.780182	0.666319
C127	C	0.815667	0.282655	-0.000280
C128	C	1.149000	0.615988	0.333053
C129	C	1.482333	0.949322	0.666386
C130	C	0.817119	0.381944	-0.000286
C131	C	1.150453	0.715277	0.333047
C132	C	1.483786	1.048611	0.666381
N133	N	0.820587	0.119090	0.246385
N134	N	1.153920	0.452424	0.579718
N135	N	1.487253	0.785757	0.913052
N136	N	0.820622	0.119109	-0.246932
N137	N	1.153955	0.452443	0.086402
N138	N	1.487289	0.785776	0.419735
C139	C	0.867771	0.058117	0.296191
C140	C	1.201104	0.391451	0.629524
C141	C	1.534438	0.724784	0.962858
C142	C	0.867776	0.058117	0.395849
C143	C	1.201109	0.391450	0.729182
C144	C	1.534443	0.724783	1.062515
C145	C	0.820599	0.119094	0.445698
C146	C	1.153932	0.452428	0.779032
C147	C	1.487266	0.785761	1.112365
C148	C	0.773410	0.180070	0.395886
C149	C	1.106743	0.513404	0.729219
C150	C	1.440076	0.846737	1.062552
C151	C	0.773402	0.180066	0.296230
C152	C	1.106735	0.513399	0.629563
C153	C	1.440069	0.846732	0.962896
C154	C	0.773430	0.180077	0.603600
C155	C	1.106763	0.513410	0.936933
C156	C	1.440096	0.846743	1.270267
C157	C	0.773438	0.180082	0.703263
C158	C	1.106771	0.513416	1.036596
C159	C	1.440104	0.846749	1.369929
C160	C	0.867803	0.058128	0.703219
C161	C	1.201137	0.391461	1.036552
C162	C	1.534470	0.724794	1.369885
C163	C	0.867796	0.058123	0.603563
C164	C	1.201129	0.391456	0.936896
C165	C	1.534463	0.724790	1.270229
C166	C	0.820607	0.119101	0.553757
C167	C	1.153940	0.452434	0.887090
C168	C	1.487274	0.785767	1.220423
H169	H	0.938741	-0.172220	-0.000296
H170	H	1.272074	0.161113	0.333037
H171	H	1.605408	0.494446	0.666370
H172	H	0.934519	-0.459955	-0.000307
H173	H	1.267853	-0.126622	0.333026
H174	H	1.601186	0.206712	0.666360
H175	H	0.147961	0.264023	-0.000322
H176	H	0.481295	0.597356	0.333012
H177	H	0.814628	0.930690	0.666345
H178	H	0.177762	-0.031773	-0.000311
H179	H	0.511096	0.301560	0.333022
H180	H	0.844429	0.634893	0.666355
H181	H	0.704944	-0.420328	-0.000254
H182	H	1.038278	-0.086995	0.333080
H183	H	1.371611	0.246338	0.666413
H184	H	0.906226	0.008478	0.743776
H185	H	1.239559	0.341811	1.077110
H186	H	1.572892	0.675145	1.410443
H187	H	0.702464	-0.589577	-0.000237
H188	H	1.035798	-0.256244	0.333096
H189	H	1.369131	0.077089	0.666429
H190	H	0.906214	0.008475	0.562975
H191	H	1.239547	0.341809	0.896308
H192	H	1.572881	0.675142	1.229642
H193	H	0.016527	0.261539	-0.000347
H194	H	0.349860	0.594872	0.332987
H195	H	0.683194	0.928205	0.666320
H196	H	0.266342	0.004570	-0.100948
H197	H	0.599676	0.337903	0.232386
H198	H	0.933009	0.671236	0.565719
H199	H	0.706689	-0.301844	-0.000256
H200	H	1.040023	0.031489	0.333078
H201	H	1.373356	0.364822	0.666411
H202	H	0.709169	-0.132590	-0.000246
H203	H	1.042503	0.200743	0.333088
H204	H	1.375836	0.534077	0.666421
H205	H	0.735021	0.229736	0.743845
H206	H	1.068354	0.563069	1.077179
H207	H	1.401687	0.896402	1.410512
H208	H	0.397774	0.007049	-0.100916
H209	H	0.731108	0.340382	0.232417
H210	H	1.064441	0.673715	0.565751
H211	H	0.932035	-0.629204	-0.000320
H212	H	1.265368	-0.295871	0.333013
H213	H	1.598702	0.037462	0.666347
H214	H	0.735001	0.229728	0.563051
H215	H	1.068334	0.563061	0.896384
H216	H	1.401668	0.896395	1.229718
H217	H	0.594875	0.272460	-0.000230
H218	H	0.928209	0.605793	0.333103
H219	H	1.261542	0.939126	0.666437
H220	H	0.463441	0.269976	-0.000248
H221	H	0.796774	0.603310	0.333085
H222	H	1.130108	0.936643	0.666419
H223	H	0.374867	0.233641	0.100369
H224	H	0.708201	0.566974	0.433703
H225	H	1.041534	0.900308	0.767036
H226	H	0.493237	-0.025811	-0.000246
H227	H	0.826571	0.307522	0.333087
H228	H	1.159904	0.640855	0.666420
H229	H	0.243428	0.231155	0.100339
H230	H	0.576761	0.564489	0.433673
H231	H	0.910094	0.897822	0.767006
H232	H	0.734994	0.229716	0.436479
H233	H	1.068327	0.563050	0.769813
H234	H	1.401660	0.896383	1.103146
H235	H	0.624680	-0.023339	-0.000190
H236	H	0.958014	0.309995	0.333144
H237	H	1.291347	0.643328	0.666477
H238	H	0.936256	-0.341458	-0.000311
H239	H	1.269589	-0.008125	0.333022
H240	H	1.602922	0.325208	0.666356
H241	H	0.734979	0.229715	0.255679
H242	H	1.068312	0.563048	0.589012
H243	H	1.401646	0.896382	0.922345
H244	H	0.906191	0.008466	0.255610
H245	H	1.239524	0.341799	0.588943
H246	H	1.572857	0.675133	0.922276
H247	H	0.046324	-0.034253	-0.000404
H248	H	0.379657	0.299080	0.332930
H249	H	0.712990	0.632413	0.666263
H250	H	0.906196	0.008467	0.436400
H251	H	1.239530	0.341801	0.769733
H252	H	1.572863	0.675134	1.103067
