data_functionalizedCrystal
_audit_creation_method	'MofGen! by Chris Wilmer'
_symmetry_space_group_name_H-M	'P1'
_symmetry_Int_Tables_number	1
_symmetry_cell_setting	triclinic
loop_
_symmetry_equiv_pos_as_xyz
  x,y,z
_cell_length_a	11.169417
_cell_length_b	18.215405
_cell_length_c	11.169409
_cell_angle_alpha	89.960260
_cell_angle_beta	89.979436
_cell_angle_gamma	90.025764
loop_
_atom_site_label
_atom_site_type_symbol
_atom_site_fract_x
_atom_site_fract_y
_atom_site_fract_z
Zn1	Zn	1.834850	-0.292908	-0.678481
Zn2	Zn	2.168183	0.040425	-0.345147
Zn3	Zn	2.501516	0.373759	-0.011814
Zn4	Zn	1.834686	-0.415999	-0.477771
Zn5	Zn	2.168019	-0.082666	-0.144438
Zn6	Zn	2.501352	0.250668	0.188895
Zn7	Zn	1.634133	-0.292953	-0.477815
Zn8	Zn	1.967466	0.040381	-0.144482
Zn9	Zn	2.300800	0.373714	0.188852
Zn10	Zn	1.634092	-0.415939	-0.678416
Zn11	Zn	1.967426	-0.082606	-0.345083
Zn12	Zn	2.300759	0.250728	-0.011749
O13	O	1.734440	-0.354450	-0.578121
O14	O	2.067773	-0.021116	-0.244787
O15	O	2.401107	0.312217	0.088546
O16	O	2.002778	-0.309242	-0.651865
O17	O	2.336111	0.024091	-0.318531
O18	O	2.669444	0.357424	0.014802
O19	O	1.808030	-0.399720	-0.309827
O20	O	2.141364	-0.066387	0.023506
O21	O	2.474697	0.266946	0.356839
O22	O	1.660844	-0.189962	-0.504479
O23	O	1.994178	0.143371	-0.171145
O24	O	2.327511	0.476704	0.162188
O25	O	2.002657	-0.399677	-0.504404
O26	O	2.335990	-0.066344	-0.171071
O27	O	2.669324	0.266990	0.162262
O28	O	1.808310	-0.189930	-0.651907
O29	O	2.141643	0.143404	-0.318574
O30	O	2.474977	0.476737	0.014760
O31	O	1.660685	-0.309319	-0.309859
O32	O	1.994018	0.024015	0.023474
O33	O	2.327352	0.357348	0.356807
O34	O	1.466178	-0.309261	-0.504416
O35	O	1.799511	0.024073	-0.171083
O36	O	2.132845	0.357406	0.162250
O37	O	1.660775	-0.399575	-0.846375
O38	O	1.994108	-0.066242	-0.513041
O39	O	2.327441	0.267092	-0.179708
O40	O	1.466148	-0.399618	-0.651797
O41	O	1.799481	-0.066285	-0.318464
O42	O	2.132815	0.267048	0.014869
O43	O	1.808270	-0.309184	-0.846422
O44	O	2.141604	0.024149	-0.513088
O45	O	2.474937	0.357482	-0.179755
O46	O	1.807991	-0.518975	-0.504342
O47	O	2.141324	-0.185642	-0.171009
O48	O	2.474657	0.147691	0.162325
O49	O	1.660616	-0.518931	-0.651755
O50	O	1.993949	-0.185598	-0.318422
O51	O	2.327282	0.147735	0.014912
C52	C	1.422615	-0.354438	-0.578105
C53	C	1.755949	-0.021105	-0.244772
C54	C	2.089282	0.312228	0.088561
C55	C	1.289215	-0.354451	-0.578127
C56	C	1.622549	-0.021118	-0.244794
C57	C	1.955882	0.312215	0.088540
C58	C	1.734313	-0.545656	-0.578063
C59	C	2.067647	-0.212323	-0.244730
C60	C	2.400980	0.121011	0.088604
C61	C	1.734369	-0.627455	-0.578078
C62	C	2.067702	-0.294121	-0.244745
C63	C	2.401036	0.039212	0.088588
C64	C	1.811287	-0.815647	-0.501462
C65	C	2.144621	-0.482314	-0.168128
C66	C	2.477954	-0.148980	0.165205
C67	C	1.811341	-0.892506	-0.501491
C68	C	2.144674	-0.559172	-0.168157
C69	C	2.478008	-0.225839	0.165176
C70	C	1.657746	-0.892500	-0.654866
C71	C	1.991080	-0.559167	-0.321533
C72	C	2.324413	-0.225833	0.011801
C73	C	1.657700	-0.815643	-0.654842
C74	C	1.991033	-0.482309	-0.321509
C75	C	2.324366	-0.148976	0.011825
C76	C	1.734468	-0.777218	-0.578133
C77	C	2.067802	-0.443885	-0.244800
C78	C	2.401135	-0.110552	0.088534
C79	C	1.734569	-0.930934	-0.578186
C80	C	2.067902	-0.597601	-0.244853
C81	C	2.401235	-0.264268	0.088481
C82	C	1.734626	-1.014268	-0.578218
C83	C	2.067960	-0.680935	-0.244885
C84	C	2.401293	-0.347601	0.088449
C85	C	1.734413	-0.693879	-0.578102
C86	C	2.067746	-0.360546	-0.244769
C87	C	2.401079	-0.027213	0.088564
C88	C	2.047482	-0.354461	-0.578137
C89	C	2.380816	-0.021128	-0.244804
C90	C	2.714149	0.312205	0.088530
C91	C	2.180882	-0.354466	-0.578144
C92	C	2.514216	-0.021133	-0.244810
C93	C	2.847549	0.312200	0.088523
C94	C	1.734536	-0.354368	-0.891163
C95	C	2.067870	-0.021035	-0.557830
C96	C	2.401203	0.312299	-0.224497
C97	C	1.734577	-0.354333	-1.024563
C98	C	2.067911	-0.021000	-0.691230
C99	C	2.401244	0.312333	-0.357897
C100	C	1.734600	-0.162497	-0.578205
C101	C	2.067933	0.170837	-0.244872
C102	C	2.401267	0.504170	0.088462
C103	C	1.734668	-0.080698	-0.578241
C104	C	2.068002	0.252636	-0.244907
C105	C	2.401335	0.585969	0.088426
C106	C	1.734413	-0.354478	-0.266296
C107	C	2.067747	-0.021144	0.067037
C108	C	2.401080	0.312189	0.400371
C109	C	1.734605	-0.354305	-0.132897
C110	C	2.067938	-0.020972	0.200437
C111	C	2.401272	0.312362	0.533770
H112	H	1.873799	-0.784364	-0.439002
H113	H	2.207132	-0.451030	-0.105669
H114	H	2.540466	-0.117697	0.227664
H115	H	1.873897	-0.923791	-0.439059
H116	H	2.207230	-0.590458	-0.105726
H117	H	2.540563	-0.257125	0.227608
Cl118	Cl	1.561239	-0.940810	-0.751291
Cl119	Cl	1.894572	-0.607477	-0.417957
Cl120	Cl	2.227906	-0.274144	-0.084624
H121	H	1.595144	-0.784352	-0.717283
H122	H	1.928478	-0.451019	-0.383949
H123	H	2.261811	-0.117685	-0.050616
