data_functionalizedCrystal
_audit_creation_method	'MofGen! by Chris Wilmer'
_symmetry_space_group_name_H-M	'P1'
_symmetry_Int_Tables_number	1
_symmetry_cell_setting	triclinic
loop_
_symmetry_equiv_pos_as_xyz
  x,y,z
_cell_length_a	15.021413
_cell_length_b	17.699083
_cell_length_c	17.699083
_cell_angle_alpha	96.716985
_cell_angle_beta	90.009441
_cell_angle_gamma	90.001011
loop_
_atom_site_label
_atom_site_type_symbol
_atom_site_fract_x
_atom_site_fract_y
_atom_site_fract_z
O1	O	0.073909	-1.004076	0.095715
O2	O	0.407242	-0.670743	0.429049
O3	O	0.740576	-0.337409	0.762382
O4	O	0.073938	-0.783697	0.108168
O5	O	0.407272	-0.450364	0.441501
O6	O	0.740605	-0.117031	0.774834
O7	O	0.073915	-0.900113	-0.008248
O8	O	0.407248	-0.566780	0.325086
O9	O	0.740582	-0.233446	0.658419
O10	O	0.073932	-0.887660	0.212131
O11	O	0.407266	-0.554327	0.545464
O12	O	0.740599	-0.220994	0.878797
O13	O	-0.074149	-0.900103	-0.008260
O14	O	0.259184	-0.566769	0.325074
O15	O	0.592517	-0.233436	0.658407
O16	O	-0.074126	-0.783687	0.108156
O17	O	0.259208	-0.450354	0.441489
O18	O	0.592541	-0.117021	0.774823
O19	O	-0.074155	-1.004066	0.095703
O20	O	0.259178	-0.670732	0.429037
O21	O	0.592511	-0.337399	0.762370
Zn22	Zn	-0.097649	-0.893875	0.101928
Zn23	Zn	0.235684	-0.560542	0.435261
Zn24	Zn	0.569018	-0.227208	0.768594
Zn25	Zn	0.097432	-0.893888	0.101943
Zn26	Zn	0.430765	-0.560555	0.435277
Zn27	Zn	0.764099	-0.227222	0.768610
O28	O	-0.074132	-0.887650	0.212119
O29	O	0.259202	-0.554317	0.545452
O30	O	0.592535	-0.220984	0.878786
C31	C	-0.000090	-0.755495	0.107716
C32	C	0.333243	-0.422162	0.441049
C33	C	0.666577	-0.088829	0.774382
C34	C	-0.000079	-0.671477	0.106377
C35	C	0.333254	-0.338144	0.439710
C36	C	0.666588	-0.004811	0.773044
N37	N	-0.230786	-0.893871	0.101917
N38	N	0.102547	-0.560538	0.435250
N39	N	0.435880	-0.227205	0.768583
C40	C	-0.000117	-0.899662	-0.036451
C41	C	0.333216	-0.566328	0.296883
C42	C	0.666550	-0.232995	0.630216
C43	C	-0.000117	-0.898323	-0.120469
C44	C	0.333216	-0.564990	0.212865
C45	C	0.666549	-0.231656	0.546198
C46	C	-0.529789	-0.947300	0.047660
C47	C	-0.196455	-0.613967	0.380994
C48	C	0.136878	-0.280634	0.714327
C49	C	-0.470419	-0.962477	0.115815
C50	C	-0.137085	-0.629144	0.449149
C51	C	0.196248	-0.295811	0.782482
C52	C	-0.587823	-0.893889	0.101940
C53	C	-0.254490	-0.560556	0.435273
C54	C	0.078843	-0.227223	0.768606
C55	C	-0.470451	-0.878739	0.033775
C56	C	-0.137118	-0.545405	0.367108
C57	C	0.196215	-0.212072	0.700442
C58	C	-0.412399	-0.893882	0.101924
C59	C	-0.079066	-0.560549	0.435258
C60	C	0.254267	-0.227216	0.768591
C61	C	-0.529760	-0.909101	0.170129
C62	C	-0.196427	-0.575767	0.503462
C63	C	0.136907	-0.242434	0.836795
C64	C	-0.529798	-0.825332	0.088044
C65	C	-0.196465	-0.491999	0.421377
C66	C	0.136869	-0.158665	0.754711
C67	C	-0.470455	-0.840480	0.156249
C68	C	-0.137122	-0.507147	0.489582
C69	C	0.196212	-0.173814	0.822915
C70	C	-0.688881	-0.893895	0.101947
C71	C	-0.355547	-0.560562	0.435280
C72	C	-0.022214	-0.227228	0.768614
C73	C	-0.311344	-0.893876	0.101925
C74	C	0.021989	-0.560543	0.435258
C75	C	0.355323	-0.227209	0.768591
N76	N	0.230570	-0.893898	0.101949
N77	N	0.563903	-0.560565	0.435282
N78	N	0.897236	-0.227231	0.768615
C79	C	-0.000125	-1.032268	0.096156
C80	C	0.333209	-0.698934	0.429489
C81	C	0.666542	-0.365601	0.762822
C82	C	-0.000130	-1.116286	0.097494
C83	C	0.333203	-0.782953	0.430828
C84	C	0.666537	-0.449619	0.764161
C85	C	-0.000074	-0.622856	0.174710
C86	C	0.333259	-0.289523	0.508044
C87	C	0.666593	0.043810	0.841377
C88	C	-0.000086	-0.543913	0.173448
C89	C	0.333248	-0.210580	0.506782
C90	C	0.666581	0.122754	0.840115
C91	C	-0.000096	-0.513592	0.103852
C92	C	0.333237	-0.180259	0.437185
C93	C	0.666571	0.153074	0.770518
C94	C	-0.000104	-0.562219	0.035513
C95	C	0.333230	-0.228886	0.368846
C96	C	0.666563	0.104447	0.702180
C97	C	-0.000098	-0.641161	0.036776
C98	C	0.333235	-0.307828	0.370109
C99	C	0.666568	0.025505	0.703443
C100	C	-0.000126	-0.243856	0.030418
C101	C	0.333207	0.089477	0.363751
C102	C	0.666541	0.422810	0.697084
C103	C	-0.000129	-0.164908	0.029160
C104	C	0.333205	0.168425	0.362493
C105	C	0.666538	0.501758	0.695827
C106	C	-0.000113	-0.146608	0.167090
C107	C	0.333220	0.186725	0.500423
C108	C	0.666553	0.520058	0.833757
C109	C	-0.000108	-0.225550	0.168353
C110	C	0.333225	0.107783	0.501686
C111	C	0.666559	0.441117	0.835020
C112	C	-0.000120	-0.274170	0.100015
C113	C	0.333213	0.059163	0.433348
C114	C	0.666546	0.392496	0.766681
C115	C	-0.000110	-0.359769	0.101384
C116	C	0.333224	-0.026436	0.434718
C117	C	0.666557	0.306897	0.768051
C118	C	-0.000100	-0.427995	0.102481
C119	C	0.333233	-0.094661	0.435815
C120	C	0.666566	0.238672	0.769148
C121	C	-0.000128	-0.966656	-0.169090
C122	C	0.333206	-0.633323	0.164244
C123	C	0.666539	-0.299990	0.497577
C124	C	-0.000120	-0.965394	-0.248033
C125	C	0.333214	-0.632061	0.085300
C126	C	0.666547	-0.298727	0.418634
C127	C	-0.000108	-0.895798	-0.278354
C128	C	0.333226	-0.562464	0.054980
C129	C	0.666559	-0.229131	0.388313
C130	C	-0.000095	-0.827459	-0.229727
C131	C	0.333239	-0.494126	0.103607
C132	C	0.666572	-0.160792	0.436940
C133	C	-0.000096	-0.828722	-0.150785
C134	C	0.333237	-0.495389	0.182549
C135	C	0.666570	-0.162055	0.515882
C136	C	-0.000087	-0.822364	-0.548090
C137	C	0.333247	-0.489030	-0.214756
C138	C	0.666580	-0.155697	0.118577
C139	C	-0.000088	-0.821106	-0.627038
C140	C	0.333246	-0.487773	-0.293704
C141	C	0.666579	-0.154439	0.039629
C142	C	-0.000110	-0.959036	-0.645338
C143	C	0.333223	-0.625703	-0.312004
C144	C	0.666557	-0.292369	0.021329
C145	C	-0.000112	-0.960299	-0.566396
C146	C	0.333222	-0.626966	-0.233063
C147	C	0.666555	-0.293632	0.100271
C148	C	-0.000094	-0.891961	-0.517776
C149	C	0.333239	-0.558627	-0.184442
C150	C	0.666573	-0.225294	0.148891
C151	C	-0.000101	-0.893330	-0.432177
C152	C	0.333232	-0.559997	-0.098843
C153	C	0.666566	-0.226664	0.234490
C154	C	-0.000107	-0.894427	-0.363951
C155	C	0.333226	-0.561094	-0.030618
C156	C	0.666560	-0.227761	0.302715
C157	C	-0.000098	-0.888102	0.240322
C158	C	0.333236	-0.554768	0.573655
C159	C	0.666569	-0.221435	0.906989
C160	C	-0.000092	-0.889440	0.324340
C161	C	0.333242	-0.556107	0.657673
C162	C	0.666575	-0.222773	0.991007
H163	H	-0.555839	-0.992501	0.001815
H164	H	-0.222506	-0.659168	0.335149
H165	H	0.110828	-0.325835	0.668482
H166	H	-0.444398	-0.865927	-0.023865
H167	H	-0.111065	-0.532594	0.309469
H168	H	0.222269	-0.199260	0.642802
H169	H	-0.000079	-0.770792	-0.254420
H170	H	0.333254	-0.437459	0.078913
H171	H	0.666588	-0.104126	0.412247
H172	H	-0.000130	-1.021038	-0.287618
H173	H	0.333203	-0.687705	0.045716
H174	H	0.666537	-0.354372	0.379049
H175	H	-0.444336	-1.020452	0.127568
H176	H	-0.111003	-0.687118	0.460901
H177	H	0.222330	-0.353785	0.794234
H178	H	-0.555703	-0.921975	0.227782
H179	H	-0.222370	-0.588641	0.561115
H180	H	0.110963	-0.255308	0.894449
H181	H	-0.000080	-0.764429	-0.651721
H182	H	0.333254	-0.431096	-0.318388
H183	H	0.666587	-0.097762	0.014946
H184	H	-0.000102	-0.680748	-0.018868
H185	H	0.333231	-0.347415	0.314465
H186	H	0.666565	-0.014082	0.647799
H187	H	-0.000143	-1.023330	-0.144409
H188	H	0.333190	-0.689997	0.188924
H189	H	0.666524	-0.356663	0.522258
H190	H	-0.000080	-0.504328	0.229092
H191	H	0.333253	-0.170995	0.562426
H192	H	0.666586	0.162338	0.895759
H193	H	-0.000065	-0.647537	0.231384
H194	H	0.333269	-0.314204	0.564717
H195	H	0.666602	0.019130	0.898051
H196	H	-0.000095	-0.250232	0.225025
H197	H	0.333238	0.083101	0.558359
H198	H	0.666571	0.416434	0.891692
H199	H	-0.555900	-0.767376	0.076270
H200	H	-0.222566	-0.434042	0.409603
H201	H	0.110767	-0.100709	0.742937
H202	H	-0.000120	-1.014680	-0.684934
H203	H	0.333213	-0.681347	-0.351601
H204	H	0.666547	-0.348013	-0.018268
H205	H	-0.000072	-0.766718	-0.508512
H206	H	0.333261	-0.433385	-0.175179
H207	H	0.666594	-0.100052	0.158155
H208	H	-0.000137	-0.283434	-0.025228
H209	H	0.333196	0.049899	0.308106
H210	H	0.666530	0.383233	0.641439
H211	H	-0.000126	-1.016971	-0.541714
H212	H	0.333207	-0.683638	-0.208380
H213	H	0.666541	-0.350305	0.124953
H214	H	-0.000088	-0.773078	-0.111198
H215	H	0.333246	-0.439745	0.222136
H216	H	0.666579	-0.106411	0.555469
H217	H	-0.444568	-0.795307	0.202194
H218	H	-0.111234	-0.461974	0.535527
H219	H	0.222099	-0.128640	0.868861
H220	H	-0.000108	-0.107012	0.222734
H221	H	0.333226	0.226322	0.556067
H222	H	0.666559	0.559655	0.889401
H223	H	-0.000138	-0.140225	-0.027517
H224	H	0.333195	0.193108	0.305816
H225	H	0.666528	0.526442	0.639150
H226	H	-0.000125	-0.537526	-0.021154
H227	H	0.333208	-0.204193	0.312180
H228	H	0.666542	0.129141	0.645513
