data_functionalizedCrystal
_audit_creation_method	'MofGen! by Chris Wilmer'
_symmetry_space_group_name_H-M	'P1'
_symmetry_Int_Tables_number	1
_symmetry_cell_setting	triclinic
loop_
_symmetry_equiv_pos_as_xyz
  x,y,z
_cell_length_a	10.723024
_cell_length_b	10.723023
_cell_length_c	9.198806
_cell_angle_alpha	90.004114
_cell_angle_beta	89.997988
_cell_angle_gamma	95.532291
loop_
_atom_site_label
_atom_site_type_symbol
_atom_site_fract_x
_atom_site_fract_y
_atom_site_fract_z
O1	O	0.175020	-1.657188	-0.120895
O2	O	0.191774	-1.294036	-0.120896
O3	O	0.001821	-1.483989	-0.120890
O4	O	0.364973	-1.467235	-0.120901
O5	O	0.001820	-1.483974	0.120895
O6	O	0.191774	-1.294021	0.120889
O7	O	0.175019	-1.657173	0.120890
Cu8	Cu	0.183396	-1.475596	0.142967
Cu9	Cu	0.183397	-1.475613	-0.142972
O10	O	0.364973	-1.467220	0.120884
C11	C	0.190555	-1.247529	-0.000004
C12	C	0.186908	-1.108974	-0.000004
C13	C	0.185281	-1.047194	0.125248
C14	C	0.181511	-0.903991	0.125250
C15	C	-0.044679	-1.482762	0.000001
C16	C	-0.183233	-1.479114	-0.000004
C17	C	-0.258216	-1.585402	-0.000006
C18	C	-0.401420	-1.581634	-0.000011
C19	C	0.411473	-1.468447	-0.000010
C20	C	0.550027	-1.472095	-0.000014
N21	N	0.183395	-1.475592	0.344081
C22	C	0.176239	-0.703680	-0.000002
C23	C	0.179886	-0.842235	-0.000002
N24	N	0.183388	-1.475627	-0.344086
C25	C	0.103288	-1.555348	0.416280
C26	C	0.103283	-1.555367	0.583692
H27	H	0.181292	-0.895355	-0.107240
H28	H	0.251971	-1.407320	0.406207
C29	C	-0.313700	-1.343703	-0.124303
C30	C	-0.239680	-1.352500	-0.000009
H31	H	-0.348550	-1.265537	-0.124299
H32	H	-0.263469	-1.349693	-0.208599
H33	H	-0.379293	-1.409906	-0.124291
H34	H	-0.174080	-1.286302	-0.000027
H35	H	-0.289913	-1.346498	0.084309
H36	H	0.180120	-0.850861	0.232482
C37	C	-0.070835	-1.691242	0.000010
C38	C	-0.201772	-1.712018	0.000002
H39	H	-0.035994	-1.769413	0.000024
H40	H	-0.043849	-1.645133	-0.084302
H41	H	-0.043861	-1.645106	0.084330
H42	H	-0.228746	-1.758146	-0.084324
H43	H	-0.228768	-1.758147	0.084323
C44	C	0.290143	-0.949303	-0.152709
C45	C	0.185025	-1.037271	-0.144772
H46	H	0.288982	-0.905046	-0.242091
H47	H	0.288622	-0.891994	-0.074138
H48	H	0.364116	-0.991216	-0.147305
H49	H	0.111051	-0.995357	-0.150165
H50	H	0.186534	-1.094588	-0.223366
C51	C	-0.564078	-1.709355	-0.124316
C52	C	-0.488389	-1.704479	-0.000019
H53	H	-0.617764	-1.785201	-0.124323
H54	H	-0.613100	-1.640154	-0.124304
H55	H	-0.512697	-1.706037	-0.208620
H56	H	-0.539769	-1.707788	0.084285
H57	H	-0.439363	-1.773699	-0.000018
C58	C	0.190545	-1.246881	0.241991
C59	C	0.187173	-1.118898	0.270015
H60	H	0.191721	-1.291142	0.331369
H61	H	0.118463	-1.277045	0.187820
H62	H	0.263752	-1.259253	0.187797
H63	H	0.113961	-1.106525	0.324200
H64	H	0.259262	-1.088725	0.324209
C65	C	-0.112170	-1.626188	0.369030
C66	C	0.010729	-1.647511	0.332386
H67	H	-0.169302	-1.683084	0.317220
H68	H	-0.124340	-1.638320	0.470513
H69	H	-0.126218	-1.542702	0.344184
H70	H	0.024781	-1.730995	0.357242
H71	H	0.022904	-1.635389	0.230880
H72	H	0.034704	-1.623654	0.645781
C73	C	0.352868	-1.450580	0.484581
C74	C	0.275984	-1.383441	0.572115
H75	H	0.410027	-1.393666	0.432835
H76	H	0.398117	-1.502990	0.543950
H77	H	0.302600	-1.500600	0.417575
H78	H	0.326252	-1.333427	0.639129
H79	H	0.230732	-1.331009	0.512741
H80	H	-0.385548	-1.381099	-0.000003
