data_functionalizedCrystal
_audit_creation_method	'MofGen! by Chris Wilmer'
_symmetry_space_group_name_H-M	'P1'
_symmetry_Int_Tables_number	1
_symmetry_cell_setting	triclinic
loop_
_symmetry_equiv_pos_as_xyz
  x,y,z
_cell_length_a	16.109301
_cell_length_b	15.944493
_cell_length_c	15.186229
_cell_angle_alpha	90.002130
_cell_angle_beta	89.999362
_cell_angle_gamma	83.468262
loop_
_atom_site_label
_atom_site_type_symbol
_atom_site_fract_x
_atom_site_fract_y
_atom_site_fract_z
O1	O	1.103143	0.107969	-0.073161
O2	O	1.603143	0.607969	0.426839
O3	O	0.861083	0.121406	-0.073174
O4	O	1.361083	0.621406	0.426826
O5	O	0.988748	-0.007593	-0.073175
O6	O	1.488748	0.492407	0.426825
O7	O	0.975478	0.236968	-0.073161
O8	O	1.475478	0.736968	0.426839
O9	O	0.988740	-0.007595	0.073283
O10	O	1.488740	0.492405	0.573283
O11	O	0.861074	0.121404	0.073283
O12	O	1.361074	0.621404	0.573283
O13	O	1.103135	0.107967	0.073296
O14	O	1.603135	0.607967	0.573296
Zn15	Zn	0.982103	0.114685	0.096543
Zn16	Zn	1.482103	0.614685	0.596543
Zn17	Zn	0.982115	0.114688	-0.096421
Zn18	Zn	1.482115	0.614688	0.403579
O19	O	0.975469	0.236966	0.073297
O20	O	1.475469	0.736966	0.573297
C21	C	0.830104	0.120861	0.000053
C22	C	1.330104	0.620861	0.500053
C23	C	0.737808	0.119229	0.000048
C24	C	1.237808	0.619229	0.500048
C25	C	0.988202	-0.038888	0.000050
C26	C	1.488202	0.461112	0.500050
C27	C	0.986576	-0.132136	0.000039
C28	C	1.486576	0.367864	0.500039
C29	C	0.515544	0.191980	0.000062
C30	C	1.015544	0.691980	0.500062
C31	C	0.428824	0.190440	0.000068
C32	C	0.928824	0.690440	0.500068
C33	C	0.448680	0.037388	0.000055
C34	C	0.948680	0.537388	0.500055
C35	C	0.535399	0.038928	0.000056
C36	C	1.035399	0.538928	0.500056
C37	C	0.568829	0.116227	0.000055
C38	C	1.068829	0.616227	0.500055
C39	C	0.395389	0.113146	0.000060
C40	C	0.895389	0.613146	0.500060
C41	C	0.301363	0.111476	0.000066
C42	C	0.801363	0.611476	0.500066
C43	C	0.662861	0.117897	0.000050
C44	C	1.162861	0.617897	0.500050
C45	C	1.061722	-0.367921	0.000060
C46	C	1.561722	0.132079	0.500060
C47	C	1.021203	-0.418475	-0.072153
C48	C	1.521203	0.081525	0.427847
C49	C	0.983563	-0.302856	0.000050
C50	C	1.483563	0.197144	0.500050
C51	C	1.021176	-0.418453	0.072242
C52	C	1.521176	0.081547	0.572242
C53	C	0.980658	-0.467765	0.000064
C54	C	1.480658	0.032235	0.500064
C55	C	0.943064	-0.352182	-0.072223
C56	C	1.443064	0.147818	0.427777
C57	C	0.943049	-0.352156	0.072238
C58	C	1.443049	0.147844	0.572238
C59	C	0.902472	-0.402677	0.000007
C60	C	1.402472	0.097323	0.500007
C61	C	0.985238	-0.207857	0.000041
C62	C	1.485238	0.292143	0.500041
C63	C	0.978976	-0.562762	0.000066
C64	C	1.478976	-0.062762	0.500066
C65	C	1.134114	0.108513	0.000067
C66	C	1.634114	0.608513	0.500067
C67	C	1.226410	0.110144	0.000067
C68	C	1.726410	0.610144	0.500067
C69	C	0.976016	0.268262	0.000070
C70	C	1.476016	0.768262	0.500070
C71	C	0.977642	0.361510	0.000075
C72	C	1.477642	0.861510	0.500075
N73	N	0.982102	0.114683	0.228236
N74	N	1.482102	0.614683	0.728236
N75	N	0.982123	0.114683	-0.228113
N76	N	1.482123	0.614683	0.271887
C77	C	1.038651	0.057582	0.453958
C78	C	1.538651	0.557582	0.953958
C79	C	1.038654	0.057580	0.546148
C80	C	1.538654	0.557580	1.046148
C81	C	0.925567	0.171787	0.546158
C82	C	1.425567	0.671787	1.046158
C83	C	0.925561	0.171785	0.453970
C84	C	1.425561	0.671785	0.953970
C85	C	0.982108	0.114683	0.407872
C86	C	1.482108	0.614683	0.907872
C87	C	0.982116	0.114684	0.592250
C88	C	1.482116	0.614684	1.092250
C89	C	0.982119	0.114682	0.692206
C90	C	1.482119	0.614682	1.192206
C91	C	0.982105	0.114683	0.307910
C92	C	1.482105	0.614683	0.807910
H93	H	0.542760	0.254921	0.000068
H94	H	1.042760	0.754921	0.500068
C95	C	0.863363	0.234601	0.403272
C96	C	1.363363	0.734601	0.903272
H97	H	0.829695	0.268617	0.443927
H98	H	1.329695	0.768617	0.943927
H99	H	0.828760	0.204373	0.367311
H100	H	1.328760	0.704373	0.867311
H101	H	0.893268	0.269576	0.367308
H102	H	1.393268	0.769576	0.867308
H103	H	0.385443	0.252126	0.000075
H104	H	0.885443	0.752126	0.500075
H105	H	0.835095	-0.418121	-0.000036
H106	H	1.335095	0.081879	0.499964
C107	C	0.863379	0.234602	0.596867
C108	C	1.363379	0.734602	1.096867
H109	H	0.871486	0.226432	0.658372
H110	H	1.371486	0.726432	1.158372
H111	H	0.807893	0.225467	0.581767
H112	H	1.307893	0.725467	1.081767
H113	H	0.872405	0.290667	0.581755
H114	H	1.372405	0.790667	1.081755
H115	H	0.910066	-0.323186	0.133288
H116	H	1.410066	0.176814	0.633288
C117	C	0.411908	-0.047636	0.000046
C118	C	0.911908	0.452364	0.500046
H119	H	0.456065	-0.092531	0.000049
H120	H	0.956065	0.407469	0.500049
H121	H	0.378493	-0.051415	-0.051029
H122	H	0.878493	0.448585	0.448971
H123	H	0.378491	-0.051422	0.051123
H124	H	0.878491	0.448578	0.551123
H125	H	0.578786	-0.022763	0.000053
H126	H	1.078786	0.477237	0.500053
C127	C	1.065777	-0.457543	0.154716
C128	C	1.565777	0.042457	0.654716
H129	H	1.122317	-0.445898	0.154623
H130	H	1.622317	0.054102	0.654623
H131	H	1.063966	-0.516884	0.154414
H132	H	1.563966	-0.016884	0.654414
H133	H	1.038570	-0.433945	0.205994
H134	H	1.538570	0.066055	0.705994
H135	H	1.129047	-0.352315	-0.000010
H136	H	1.629047	0.147685	0.499990
C137	C	0.898511	-0.313246	-0.154791
C138	C	1.398511	0.186754	0.345209
H139	H	0.878843	-0.356644	-0.189229
H140	H	1.378843	0.143356	0.310771
H141	H	0.936578	-0.285128	-0.188546
H142	H	1.436578	0.214872	0.311454
H143	H	0.852614	-0.273950	-0.137534
H144	H	1.352614	0.226050	0.362466
C145	C	1.065796	-0.457600	-0.154618
C146	C	1.565796	0.042400	0.345382
H147	H	1.122342	-0.445974	-0.154530
H148	H	1.622342	0.054026	0.345470
H149	H	1.038591	-0.434028	-0.205900
H150	H	1.538591	0.065972	0.294100
H151	H	1.063980	-0.516945	-0.154287
H152	H	1.563980	-0.016945	0.345713
H153	H	1.084695	0.011082	0.583668
H154	H	1.584695	0.511082	1.083668
C155	C	1.100842	-0.005234	0.403254
C156	C	1.600842	0.494766	0.903254
H157	H	1.134511	-0.039247	0.443908
H158	H	1.634511	0.460753	0.943908
H159	H	1.135444	0.024987	0.367287
H160	H	1.635444	0.524987	0.867287
H161	H	1.070932	-0.040213	0.367296
H162	H	1.570932	0.459787	0.867296
