data_functionalizedCrystal
_audit_creation_method	'MofGen! by Chris Wilmer'
_symmetry_space_group_name_H-M	'P1'
_symmetry_Int_Tables_number	1
_symmetry_cell_setting	triclinic
loop_
_symmetry_equiv_pos_as_xyz
  x,y,z
_cell_length_a	19.288864
_cell_length_b	14.971486
_cell_length_c	13.448316
_cell_angle_alpha	90.006811
_cell_angle_beta	90.020610
_cell_angle_gamma	83.375187
loop_
_atom_site_label
_atom_site_type_symbol
_atom_site_fract_x
_atom_site_fract_y
_atom_site_fract_z
O1	O	-0.921714	-0.111582	-0.083011
O2	O	-0.719503	-0.126634	-0.082943
O3	O	-0.826028	0.011122	-0.082972
O4	O	-0.815189	-0.249337	-0.082983
O5	O	-0.826015	0.011130	0.082412
O6	O	-0.719489	-0.126625	0.082440
O7	O	-0.921701	-0.111573	0.082372
Cu8	Cu	-0.820594	-0.119098	0.097507
Cu9	Cu	-0.820610	-0.119108	-0.098078
O10	O	-0.815175	-0.249329	0.082401
C11	C	-0.693618	-0.126145	-0.000243
C12	C	-0.616510	-0.124691	-0.000217
C13	C	-0.947586	-0.112062	-0.000330
C14	C	-1.024694	-0.113516	-0.000363
C15	C	-0.572077	-0.205520	-0.000236
C16	C	-0.499625	-0.204154	-0.000246
C17	C	-0.471610	-0.121955	-0.000258
C18	C	-0.516052	-0.041116	-0.000234
C19	C	-0.588502	-0.042484	-0.000213
C20	C	-0.363142	-0.057340	-0.058231
C21	C	-0.290693	-0.055975	-0.058258
C22	C	-0.248150	-0.117732	-0.000318
C23	C	-0.278064	-0.180868	0.057635
C24	C	-0.350514	-0.182236	0.057656
C25	C	-0.393051	-0.120462	-0.000281
C26	C	-0.125157	-0.197085	-0.000348
C27	C	-0.052704	-0.195715	-0.000353
C28	C	-0.069133	-0.032675	-0.000350
C29	C	-0.141584	-0.034046	-0.000335
C30	C	-0.169591	-0.116254	-0.000339
C31	C	-0.825537	0.044448	-0.000280
C32	C	-0.824084	0.143737	-0.000281
C33	C	-0.815667	-0.282655	-0.000293
C34	C	-0.817119	-0.381944	-0.000299
N35	N	-0.820588	-0.119091	0.235072
C36	C	-0.886665	0.201301	-0.000301
C37	C	-0.885296	0.294593	-0.000311
C38	C	-0.821345	0.330320	-0.000293
C39	C	-0.758759	0.272749	-0.000275
C40	C	-0.760129	0.179458	-0.000273
C41	C	-0.755909	0.467196	-0.000278
C42	C	-0.754538	0.560492	-0.000279
C43	C	-0.881075	0.582330	-0.000316
C44	C	-0.882445	0.489040	-0.000313
C45	C	-0.819859	0.431475	-0.000294
N46	N	-0.820621	-0.119109	-0.235643
C47	C	-0.867772	-0.058118	0.287099
C48	C	-0.867776	-0.058117	0.391203
C49	C	-0.820599	-0.119094	0.443276
C50	C	-0.773410	-0.180070	0.391241
C51	C	-0.773403	-0.180066	0.287140
C52	C	-0.773429	-0.180076	0.608221
C53	C	-0.773437	-0.180082	0.712330
C54	C	-0.867803	-0.058127	0.712284
C55	C	-0.867796	-0.058123	0.608183
C56	C	-0.820607	-0.119100	0.556155
H57	H	-0.463441	-0.269976	-0.000259
H58	H	-0.706689	0.301844	-0.000267
O59	O	-0.404427	0.002565	-0.114673
C60	C	-0.385561	-0.008892	-0.215543
H61	H	-0.358457	-0.079849	-0.227496
H62	H	-0.434396	0.001811	-0.263840
H63	H	-0.348576	0.042096	-0.236858
O64	O	-0.152404	-0.276913	-0.000511
C65	C	-0.193866	-0.282583	-0.086141
H66	H	-0.176713	-0.235922	-0.146018
H67	H	-0.187437	-0.354701	-0.114885
H68	H	-0.250973	-0.261713	-0.066763
O69	O	-0.041896	0.047153	-0.000539
C70	C	-0.000497	0.052809	-0.086191
H71	H	-0.017691	0.006133	-0.146053
H72	H	-0.006952	0.124920	-0.114942
H73	H	0.056625	0.031950	-0.066840
O74	O	-0.695049	0.411403	-0.000218
C75	C	-0.638309	0.462939	-0.000225
H76	H	-0.655877	0.532645	0.031079
H77	H	-0.594453	0.428350	0.047805
H78	H	-0.618717	0.469493	-0.079562
H79	H	-0.734980	-0.229716	0.244780
O80	O	-0.699274	0.123665	-0.000209
C81	C	-0.642534	0.175200	-0.000219
H82	H	-0.660101	0.244905	0.031089
H83	H	-0.598675	0.140610	0.047805
H84	H	-0.622946	0.181758	-0.079557
H85	H	-0.177762	0.031773	-0.000325
H86	H	-0.734994	-0.229717	0.433646
H87	H	-0.906197	-0.008468	0.433563
O88	O	-0.599167	-0.285452	-0.000184
C89	C	-0.544407	-0.356501	-0.000227
H90	H	-0.495157	-0.331624	0.031066
H91	H	-0.559574	-0.413907	0.047794
H92	H	-0.534209	-0.381424	-0.079573
O93	O	-0.379463	-0.243589	0.114045
C94	C	-0.326384	-0.297823	0.165163
H95	H	-0.278411	-0.260349	0.172146
H96	H	-0.345701	-0.313977	0.242479
H97	H	-0.312118	-0.362998	0.122200
H98	H	-0.243427	-0.231155	0.104815
O99	O	-0.727661	-0.239434	0.557723
C100	C	-0.739015	-0.327941	0.583156
H101	H	-0.794624	-0.328194	0.611739
H102	H	-0.731060	-0.372855	0.514691
H103	H	-0.700542	-0.354344	0.643601
O104	O	-0.009639	-0.274320	-0.000413
C105	C	-0.049899	-0.347165	-0.000387
H106	H	-0.103963	-0.324242	-0.031685
H107	H	-0.023238	-0.403782	-0.048413
H108	H	-0.055051	-0.372377	0.078955
H109	H	-0.906214	-0.008475	0.565784
O110	O	-0.944523	0.454229	-0.000463
C111	C	-0.949113	0.400928	-0.086129
H112	H	-0.894390	0.377470	-0.114667
H113	H	-0.976849	0.339948	-0.066873
H114	H	-0.979813	0.442263	-0.146118
O115	O	-0.913614	0.001232	0.762705
C116	C	-0.902249	0.089743	0.737306
H117	H	-0.875469	0.089548	0.661741
H118	H	-0.954425	0.133955	0.733712
H119	H	-0.867664	0.117297	0.795924
O120	O	-0.261596	0.005231	-0.114672
C121	C	-0.215067	-0.040020	-0.183761
H122	H	-0.229830	-0.110664	-0.196738
H123	H	-0.218159	-0.001482	-0.257034
H124	H	-0.159589	-0.044505	-0.153381
H125	H	-0.493237	0.025811	-0.000257
H126	H	-0.906192	-0.008467	0.244708
O127	O	-0.727578	-0.239184	0.763031
C128	C	-0.684698	-0.191406	0.823269
H129	H	-0.712316	-0.121326	0.838845
H130	H	-0.673748	-0.228769	0.896480
H131	H	-0.633356	-0.185490	0.783193
O132	O	-0.631738	0.035978	-0.000335
C133	C	-0.674154	0.040069	-0.085994
H134	H	-0.677885	-0.030915	-0.114549
H135	H	-0.728571	0.073607	-0.066720
H136	H	-0.650306	0.080821	-0.145976
H137	H	-0.702464	0.589577	-0.000248
O138	O	-0.948771	0.166558	-0.000144
C139	C	-0.953340	0.113241	0.085497
H140	H	-0.917020	0.135162	0.145378
H141	H	-1.009310	0.121849	0.114226
H142	H	-0.937384	0.039601	0.066139
H143	H	-0.936256	0.341458	-0.000325
H144	H	-0.932035	0.629204	-0.000334
