data_functionalizedCrystal
_audit_creation_method	'MofGen! by Chris Wilmer'
_symmetry_space_group_name_H-M	'P1'
_symmetry_Int_Tables_number	1
_symmetry_cell_setting	triclinic
loop_
_symmetry_equiv_pos_as_xyz
  x,y,z
_cell_length_a	10.654538
_cell_length_b	16.974813
_cell_length_c	15.455313
_cell_angle_alpha	89.012317
_cell_angle_beta	92.707544
_cell_angle_gamma	96.063518
loop_
_atom_site_label
_atom_site_type_symbol
_atom_site_fract_x
_atom_site_fract_y
_atom_site_fract_z
O1	O	-1.672209	0.107224	-0.079667
O2	O	-1.306620	0.117779	-0.080407
O3	O	-1.498992	-0.002163	-0.071984
O4	O	-1.479837	0.227167	-0.088090
O5	O	-1.487992	0.004667	0.071798
O6	O	-1.295619	0.124610	0.063375
O7	O	-1.661208	0.114054	0.064115
Cu8	Cu	-1.477409	0.119956	0.076874
Cu9	Cu	-1.490419	0.111878	-0.093166
O10	O	-1.468836	0.233997	0.055692
C11	C	-1.254330	0.120422	-0.008462
C12	C	-1.114909	0.118109	-0.008299
C13	C	-0.912413	0.118564	0.070310
C14	C	-1.043412	0.120744	0.070155
C15	C	-1.055400	0.113301	-0.086604
C16	C	-0.924402	0.111127	-0.086449
C17	C	-0.840924	0.121191	0.148770
C18	C	-0.900424	0.126000	0.227076
C19	C	-1.031423	0.128180	0.226921
C20	C	-1.102921	0.125551	0.148461
C21	C	-1.492559	-0.028113	0.001967
C22	C	-1.489764	-0.115611	0.008107
C23	C	-1.494450	-0.160436	-0.067384
C24	C	-1.491816	-0.242649	-0.061613
C25	C	-1.484504	-0.280035	0.019650
C26	C	-1.479814	-0.235203	0.095147
C27	C	-1.482439	-0.152992	0.089375
C28	C	-1.476000	-0.525512	0.045318
C29	C	-1.473379	-0.607730	0.051085
C30	C	-1.485379	-0.615170	-0.105676
C31	C	-1.488011	-0.532957	-0.111441
C32	C	-1.483314	-0.488132	-0.035944
N33	N	-1.481815	-0.364070	0.025552
N34	N	-1.485994	-0.404098	-0.041846
C35	C	-0.713497	0.111420	-0.007829
C36	C	-0.852913	0.113754	-0.007989
C37	C	-1.475269	0.259947	-0.018261
C38	C	-1.478065	0.347444	-0.024406
N39	N	-1.468268	0.125637	0.196470
N40	N	-1.499570	0.106191	-0.212762
C41	C	-1.550023	0.074700	0.245442
C42	C	-1.543122	0.079004	0.335947
C43	C	-1.454470	0.134248	0.377480
C44	C	-1.372707	0.185187	0.328502
C45	C	-1.379603	0.180879	0.237998
C46	C	-1.424703	0.152822	0.647757
C47	C	-1.417815	0.157128	0.738267
C48	C	-1.588229	0.050942	0.745706
C49	C	-1.595123	0.046642	0.655200
C50	C	-1.513355	0.097579	0.606230
N51	N	-1.447416	0.138650	0.469991
N52	N	-1.520404	0.093172	0.513721
H53	H	-1.113624	0.111160	-0.150483
H54	H	-1.500411	-0.130003	-0.133557
H55	H	-1.345621	0.202118	0.772078
H56	H	-1.472200	-0.489027	0.106793
H57	H	-0.734257	0.119415	0.148905
H58	H	-0.875956	0.107213	-0.150208
O59	O	-1.466514	-0.644096	0.130014
C60	C	-1.565299	-0.740950	0.228067
C61	C	-1.573226	-0.699818	0.138666
H62	H	-1.651550	-0.786022	0.235084
H63	H	-1.562478	-0.694824	0.281065
H64	H	-1.475936	-0.772493	0.234214
H65	H	-1.662580	-0.668277	0.132434
H66	H	-1.575977	-0.745980	0.085712
H67	H	-0.842200	0.128147	0.290955
O68	O	-1.496161	-0.286199	-0.134929
C69	C	-1.391534	-0.375024	-0.219996
C70	C	-1.386431	-0.325732	-0.136932
H71	H	-1.302841	-0.407013	-0.221634
H72	H	-1.397145	-0.334199	-0.279088
H73	H	-1.478456	-0.420398	-0.220730
H74	H	-1.299518	-0.280355	-0.136114
H75	H	-1.380887	-0.366607	-0.077878
O76	O	-1.089030	0.132820	0.303062
C77	C	-1.063297	0.140016	0.458559
C78	C	-0.997904	0.134747	0.372391
H79	H	-0.989648	0.141592	0.514633
H80	H	-1.135588	0.086157	0.466330
H81	H	-1.113070	0.196261	0.458497
H82	H	-0.948060	0.078536	0.372393
H83	H	-0.925682	0.188645	0.364654
O84	O	-1.495054	-0.496763	-0.190450
C85	C	-1.506752	-0.512826	-0.345324
C86	C	-1.498742	-0.553913	-0.255903
H87	H	-1.509762	-0.559015	-0.398267
H88	H	-1.420458	-0.467811	-0.352476
H89	H	-1.596065	-0.481231	-0.351425
H90	H	-1.409482	-0.585553	-0.249741
H91	H	-1.585098	-0.598884	-0.248791
H92	H	-1.313028	0.222357	0.198127
O93	O	-1.477667	-0.109391	0.162678
C94	C	-1.364998	-0.003878	0.246512
C95	C	-1.370244	-0.053211	0.163471
H96	H	-1.278168	0.041566	0.247171
H97	H	-1.359239	-0.044672	0.305620
H98	H	-1.453770	0.028029	0.248192
H99	H	-1.281493	-0.085124	0.161706
H100	H	-1.376067	-0.012378	0.104400
O101	O	-1.472548	-0.271596	0.174036
C102	C	-1.353902	-0.351727	0.270966
C103	C	-1.361980	-0.310568	0.181588
H104	H	-1.264500	-0.383232	0.277108
H105	H	-1.440122	-0.396809	0.278072
H106	H	-1.351066	-0.305557	0.323917
H107	H	-1.364777	-0.356680	0.128584
H108	H	-1.275762	-0.265471	0.174556
O109	O	-1.636178	0.020965	0.205240
C110	C	-1.804521	-0.083872	0.222179
C111	C	-1.706992	-0.023064	0.267815
H112	H	-1.861818	-0.119475	0.272750
H113	H	-1.753455	-0.125626	0.182636
H114	H	-1.870553	-0.051488	0.177354
H115	H	-1.640933	-0.055382	0.312683
H116	H	-1.758141	0.018687	0.307303
H117	H	-1.209587	0.127336	0.148341
O118	O	-1.667594	0.001346	0.793191
C119	C	-1.738502	-0.133942	0.830521
C120	C	-1.648581	-0.077859	0.776681
H121	H	-1.723143	-0.197991	0.817207
H122	H	-1.840510	-0.124010	0.811940
H123	H	-1.718360	-0.121336	0.902333
H124	H	-1.668609	-0.090431	0.704856
H125	H	-1.546601	-0.087802	0.795336
O126	O	-1.622371	0.029448	0.383557
C127	C	-1.640965	-0.073136	0.493322
C128	C	-1.551067	-0.017067	0.439451
H129	H	-1.583351	-0.110746	0.538538
H130	H	-1.705493	-0.113410	0.448129
H131	H	-1.700616	-0.036716	0.533225
H132	H	-1.491335	-0.053424	0.399542
H133	H	-1.486624	0.023208	0.484691
O134	O	-1.286530	0.238748	0.368949
C135	C	-1.107256	0.259387	0.470013
C136	C	-1.204791	0.198645	0.424284
H137	H	-1.041129	0.226987	0.514748
H138	H	-1.158315	0.301080	0.509641
H139	H	-1.050062	0.295069	0.419448
H140	H	-1.262014	0.162908	0.474790
H141	H	-1.153656	0.157006	0.384639
O142	O	-1.680798	-0.007367	0.614982
C143	C	-1.713957	-0.120228	0.521062
C144	C	-1.616972	-0.058901	0.566400
H145	H	-1.662389	-0.161920	0.481787
H146	H	-1.780452	-0.088377	0.476046
H147	H	-1.770837	-0.155822	0.571847
H148	H	-1.560004	-0.023289	0.515676
H149	H	-1.550563	-0.090800	0.611433
H150	H	-1.489200	-0.651675	-0.167141
O151	O	-1.345226	0.202386	0.600324
C152	C	-1.175425	0.308132	0.602507
C153	C	-1.265380	0.252058	0.656333
H154	H	-1.110829	0.348295	0.647768
H155	H	-1.232940	0.345856	0.557352
H156	H	-1.115850	0.271713	0.562545
H157	H	-1.324974	0.288416	0.696346
H158	H	-1.207790	0.214333	0.701433
