data_functionalizedCrystal
_audit_creation_method	'MofGen! by Chris Wilmer'
_symmetry_space_group_name_H-M	'P1'
_symmetry_Int_Tables_number	1
_symmetry_cell_setting	triclinic
loop_
_symmetry_equiv_pos_as_xyz
  x,y,z
_cell_length_a	19.188930
_cell_length_b	16.109301
_cell_length_c	15.186229
_cell_angle_alpha	90.005167
_cell_angle_beta	90.017233
_cell_angle_gamma	83.303130
loop_
_atom_site_label
_atom_site_type_symbol
_atom_site_fract_x
_atom_site_fract_y
_atom_site_fract_z
O1	O	-0.926386	-0.103796	-0.073514
O2	O	-0.723108	-0.117769	-0.073454
O3	O	-0.830331	0.010267	-0.073477
O4	O	-0.819163	-0.231832	-0.073492
O5	O	-0.830324	0.010268	0.072980
O6	O	-0.723101	-0.117767	0.073003
O7	O	-0.926379	-0.103795	0.072943
Zn8	Zn	-0.824739	-0.110781	0.096226
Zn9	Zn	-0.824748	-0.110783	-0.096738
O10	O	-0.819156	-0.231831	0.072965
C11	C	-0.697092	-0.117316	-0.000218
C12	C	-0.619584	-0.115958	-0.000195
C13	C	-0.952395	-0.104248	-0.000296
C14	C	-1.029903	-0.105606	-0.000325
C15	C	-0.574836	-0.191085	-0.000213
C16	C	-0.502009	-0.189809	-0.000223
C17	C	-0.473934	-0.113401	-0.000232
C18	C	-0.518692	-0.038264	-0.000208
C19	C	-0.591517	-0.039542	-0.000190
N20	N	-0.365820	-0.054998	-0.050109
N21	N	-0.296638	-0.053788	-0.050129
C22	C	-0.254516	-0.109545	-0.000285
N23	N	-0.284188	-0.166569	0.049567
N24	N	-0.353375	-0.167781	0.049583
C25	C	-0.394968	-0.112007	-0.000251
C26	C	-0.130800	-0.183294	-0.000313
C27	C	-0.057973	-0.182015	-0.000317
C28	C	-0.074657	-0.030468	-0.000312
C29	C	-0.147483	-0.031749	-0.000299
C30	C	-0.175550	-0.108165	-0.000303
C31	C	-0.829875	0.041241	-0.000248
C32	C	-0.828519	0.133532	-0.000246
C33	C	-0.819612	-0.262805	-0.000266
C34	C	-0.820968	-0.355096	-0.000273
N35	N	-0.824737	-0.110779	0.227919
C36	C	-0.888990	0.356005	-0.000278
C37	C	-0.887710	0.442721	-0.000285
C38	C	-0.760493	0.422425	-0.000244
C39	C	-0.761773	0.335710	-0.000243
C40	C	-0.826024	0.302503	-0.000256
C41	C	-0.823463	0.475933	-0.000263
C42	C	-0.822075	0.569955	-0.000271
C43	C	-0.827412	0.208475	-0.000250
N44	N	-0.824755	-0.110779	-0.228430
C45	C	-0.872232	-0.054103	0.453632
C46	C	-0.872234	-0.054101	0.545821
C47	C	-0.777255	-0.167457	0.545850
C48	C	-0.777250	-0.167454	0.453662
C49	C	-0.824743	-0.110778	0.407555
C50	C	-0.824750	-0.110779	0.591933
C51	C	-0.824752	-0.110777	0.691889
C52	C	-0.824740	-0.110779	0.307593
H53	H	-0.465568	-0.250988	-0.000235
C54	C	-0.725009	-0.229801	0.402970
C55	C	-0.672795	-0.292174	0.453680
C56	C	-0.620554	-0.354515	0.402987
C57	C	-0.620529	-0.354483	0.301584
C58	C	-0.672745	-0.292107	0.250869
C59	C	-0.724985	-0.229767	0.301561
H60	H	-0.672812	-0.292200	0.528750
H61	H	-0.581900	-0.400689	0.440531
H62	H	-0.581857	-0.400631	0.264058
H63	H	-0.672728	-0.292082	0.175799
H64	H	-0.763639	-0.183593	0.264018
H65	H	-0.597683	-0.253308	-0.000219
H66	H	-0.495829	0.023948	-0.000228
H67	H	-0.710496	0.292146	-0.000228
H68	H	-0.708182	0.449473	-0.000232
C69	C	-0.924467	0.008245	0.402913
C70	C	-0.976701	0.070589	0.453602
C71	C	-1.028936	0.132941	0.402887
C72	C	-1.028937	0.132949	0.301483
C73	C	-0.976701	0.070602	0.250789
C74	C	-0.924466	0.008250	0.301504
H75	H	-0.976702	0.070586	0.528671
H76	H	-1.067605	0.179095	0.440414
H77	H	-1.067604	0.179105	0.263941
H78	H	-0.976699	0.070605	0.175720
H79	H	-0.885797	-0.037904	0.263977
H80	H	-0.910904	-0.007950	0.583334
H81	H	-0.738589	-0.213602	0.583400
C82	C	-0.008747	-0.264662	-0.000334
C83	C	-0.011905	-0.327343	-0.076392
C84	C	0.037321	-0.409992	-0.076408
C85	C	0.089705	-0.429960	-0.000366
C86	C	0.092865	-0.367277	0.075698
C87	C	0.043639	-0.284628	0.075714
H88	H	-0.050685	-0.312563	-0.132688
H89	H	0.034981	-0.456394	-0.132716
H90	H	0.126145	-0.491141	-0.000377
H91	H	0.131645	-0.382057	0.131994
H92	H	0.045979	-0.238226	0.132022
H93	H	-0.627952	0.021638	-0.000176
C94	C	-0.161684	-0.267345	-0.000314
C95	C	-0.209434	-0.289061	0.075740
C96	C	-0.240317	-0.373111	0.075737
C97	C	-0.223449	-0.435445	-0.000321
C98	C	-0.175696	-0.413730	-0.076380
C99	C	-0.144813	-0.329680	-0.076377
H100	H	-0.221923	-0.242916	0.132048
H101	H	-0.275667	-0.389185	0.132042
H102	H	-0.246310	-0.497664	-0.000323
H103	H	-0.163207	-0.459875	-0.132687
H104	H	-0.109463	-0.313606	-0.132682
H105	H	-0.183919	0.029428	-0.000288
C106	C	-0.959663	0.319475	-0.000301
C107	C	-1.028924	0.378330	-0.000330
C108	C	-1.099600	0.341803	-0.000356
C109	C	-1.101014	0.246422	-0.000352
C110	C	-1.031750	0.187561	-0.000323
C111	C	-0.961075	0.224088	-0.000297
H112	H	-1.027879	0.448942	-0.000333
H113	H	-1.150873	0.385377	-0.000377
H114	H	-1.153332	0.219383	-0.000371
H115	H	-1.032795	0.116949	-0.000320
H116	H	-0.909801	0.180514	-0.000275
H117	H	-0.051799	0.031745	-0.000373
H118	H	-0.938983	0.486279	-0.000305
