data_functionalizedCrystal
_audit_creation_method	'MofGen! by Chris Wilmer'
_symmetry_space_group_name_H-M	'P1'
_symmetry_Int_Tables_number	1
_symmetry_cell_setting	triclinic
loop_
_symmetry_equiv_pos_as_xyz
  x,y,z
_cell_length_a	23.204084
_cell_length_b	23.204045
_cell_length_c	23.204063
_cell_angle_alpha	59.996178
_cell_angle_beta	89.996306
_cell_angle_gamma	59.999903
loop_
_atom_site_label
_atom_site_type_symbol
_atom_site_fract_x
_atom_site_fract_y
_atom_site_fract_z
O1	O	0.395382	0.508306	-0.017152
O2	O	0.311569	0.390301	0.017057
O3	O	0.311573	0.508309	-0.100956
O4	O	0.395378	0.390299	0.100860
O5	O	0.407421	0.412454	-0.100955
O6	O	0.407417	0.294447	0.017058
O7	O	0.491230	0.412452	-0.017152
Zn8	Zn	0.464542	0.338230	-0.000047
Zn9	Zn	0.338257	0.464523	-0.000048
O10	O	0.491227	0.294444	0.100861
C11	C	0.492121	0.621332	-0.024948
C12	C	0.456561	0.692459	-0.020056
C13	C	0.561478	0.586816	-0.025437
C14	C	0.492118	0.516971	-0.024941
C15	C	0.456554	0.476515	-0.020043
C16	C	0.561475	0.482614	-0.025431
C17	C	0.596478	0.516970	-0.024947
C18	C	0.672496	0.476511	-0.020055
C19	C	0.457276	0.586818	-0.025431
C20	C	0.248588	0.212740	0.035763
C21	C	0.284148	0.253200	0.030871
C22	C	0.179230	0.247093	0.036250
C23	C	0.248594	0.108380	0.035760
C24	C	0.284160	0.037256	0.030865
C25	C	0.179236	0.142891	0.036247
C26	C	0.144231	0.212735	0.035761
C27	C	0.068212	0.253189	0.030866
C28	C	0.283434	0.142896	0.036249
C29	C	0.006796	0.285872	0.026910
C30	C	0.312876	0.285888	0.026916
C31	C	0.312893	-0.020204	0.026908
C32	C	-0.070252	0.326875	0.021949
C33	C	0.348917	0.326895	0.021957
C34	C	0.348940	-0.092291	0.021946
C35	C	0.144232	0.694372	-0.445858
C36	C	0.068214	0.765500	-0.481422
C37	C	0.179232	0.659857	-0.376500
C38	C	0.248589	0.590008	-0.445856
C39	C	0.284151	0.549550	-0.481417
C40	C	0.283431	0.555652	-0.376498
C41	C	0.248588	0.590009	-0.341497
C42	C	0.284149	0.549552	-0.265477
C43	C	0.179233	0.659856	-0.480701
C44	C	0.312878	0.516865	-0.204061
C45	C	0.006800	0.822963	-0.510153
C46	C	0.312881	0.516862	-0.510146
C47	C	0.348920	0.475859	-0.127011
C48	C	-0.070248	0.895054	-0.546198
C49	C	0.348924	0.475855	-0.546189
O50	O	0.903691	0.294425	0.017052
O51	O	0.701877	0.412448	-0.017163
O52	O	0.819871	0.294439	0.100852
O53	O	0.785698	0.412434	-0.100964
O54	O	0.819873	0.390292	0.100845
O55	O	0.701880	0.508301	-0.017170
O56	O	0.903694	0.390278	0.017045
Zn57	Zn	0.802787	0.464508	-0.000064
Zn58	Zn	0.802784	0.338218	-0.000055
O59	O	0.785700	0.508287	-0.100970
O60	O	0.407448	0.886548	0.017050
O61	O	0.491243	0.718946	-0.017163
O62	O	0.491241	0.718928	0.100851
O63	O	0.407450	0.886567	-0.100964
O64	O	0.395383	0.718941	0.100841
O65	O	0.395386	0.718960	-0.017173
O66	O	0.311590	0.886561	0.017040
Zn67	Zn	0.338268	0.802763	-0.000068
Zn68	Zn	0.464565	0.802745	-0.000055
O69	O	0.311592	0.886580	-0.100974
O70	O	0.395387	0.390289	-0.688492
O71	O	0.311577	0.508304	-0.604692
O72	O	0.311576	0.390294	-0.604682
O73	O	0.395389	0.508299	-0.688502
O74	O	0.407423	0.294441	-0.508829
O75	O	0.407425	0.412451	-0.508839
O76	O	0.491234	0.294436	-0.592638
Zn77	Zn	0.464547	0.338225	-0.535520
Zn78	Zn	0.338265	0.464515	-0.661811
O79	O	0.491236	0.412446	-0.592648
O80	O	-0.298111	1.083832	-0.592656
O81	O	-0.096301	0.916209	-0.508850
O82	O	-0.214308	0.916212	-0.508842
O83	O	-0.180104	1.083829	-0.592663
O84	O	-0.214309	0.916213	-0.604694
O85	O	-0.096303	0.916210	-0.604702
O86	O	-0.298112	1.083834	-0.688507
Zn87	Zn	-0.197208	1.000022	-0.661823
Zn88	Zn	-0.197206	1.000020	-0.535534
O89	O	-0.180106	1.083831	-0.688515
C90	C	0.596471	0.181410	0.310622
C91	C	0.672489	0.110282	0.346183
C92	C	0.561472	0.215924	0.345467
C93	C	0.492113	0.285775	0.206263
C94	C	0.456550	0.326235	0.130244
C95	C	0.457272	0.320130	0.241266
C96	C	0.492116	0.285771	0.310624
C97	C	0.456556	0.326227	0.346188
C98	C	0.561469	0.215927	0.241264
C99	C	0.827609	0.285802	0.310599
C100	C	0.822711	0.326264	0.346156
C101	C	0.828084	0.215962	0.345444
C102	C	0.827630	0.285787	0.206247
C103	C	0.822754	0.326233	0.130230
C104	C	0.828105	0.215947	0.241250
C105	C	0.827601	0.181443	0.310605
C106	C	0.822694	0.110325	0.346168
C107	C	0.828114	0.320147	0.241244
C108	C	0.492103	0.516940	0.310603
C109	C	0.456534	0.476486	0.346161
C110	C	0.561460	0.482574	0.345451
C111	C	0.492114	0.621304	0.206248
C112	C	0.456557	0.692437	0.130229
C113	C	0.561471	0.586780	0.241254
C114	C	0.596468	0.516928	0.310612
C115	C	0.672487	0.476461	0.346178
C116	C	0.457265	0.586792	0.241246
C117	C	0.767069	0.694302	-0.445859
C118	C	0.771972	0.765423	-0.481423
C119	C	0.766590	0.659780	-0.480697
C120	C	0.767045	0.589955	-0.341500
C121	C	0.771921	0.549508	-0.265483
C122	C	0.766566	0.555592	-0.376496
C123	C	0.767070	0.589938	-0.445850
C124	C	0.771973	0.549473	-0.481406
C125	C	0.766565	0.659797	-0.376504
C126	C	0.775936	0.516781	-0.510131
C127	C	0.775934	0.822881	-0.510155
C128	C	0.775862	0.516830	-0.204068
C129	C	0.780907	0.475768	-0.546168
C130	C	0.780904	0.894966	-0.546201
C131	C	0.780805	0.475835	-0.127022
O132	O	0.785599	0.412502	0.491118
O133	O	0.819807	0.294483	0.407325
O134	O	0.701799	0.412511	0.407299
O135	O	0.903608	0.294474	0.491143
O136	O	0.701825	0.508349	0.311450
O137	O	0.819834	0.390321	0.311476
O138	O	0.785626	0.508340	0.395269
Zn139	Zn	0.802734	0.464547	0.338154
Zn140	Zn	0.802699	0.338276	0.464439
O141	O	0.903634	0.390312	0.395294
C142	C	0.144273	1.212805	-0.445873
C143	C	0.068254	1.253272	-0.481440
C144	C	0.179281	1.247158	-0.480712
C145	C	0.248626	1.108428	-0.341509
C146	C	0.284183	1.037295	-0.265490
C147	C	0.283476	1.142940	-0.376507
C148	C	0.248638	1.212792	-0.445864
C149	C	0.284208	1.253245	-0.481421
C150	C	0.179269	1.142953	-0.376516
C151	C	0.312943	1.285929	-0.510147
C152	C	0.006838	1.285966	-0.510174
C153	C	0.312908	0.979828	-0.204074
C154	C	0.348994	1.326930	-0.546186
C155	C	-0.070211	1.326982	-0.546223
C156	C	0.348946	0.907731	-0.127025
H157	H	0.400291	0.615705	-0.026209
H158	H	0.589575	0.615667	0.213153
O159	O	0.765753	0.694148	-0.342912
C160	C	0.826204	0.637167	-0.282063
H161	H	0.869249	0.589566	-0.288435
H162	H	0.845977	0.669922	-0.274558
H163	H	0.812270	0.605937	-0.233993
H164	H	0.151142	0.113996	0.037036
O165	O	0.145712	0.694181	-0.548642
C166	C	0.142249	0.637177	-0.552476
H167	H	0.146783	0.589603	-0.498498
H168	H	0.089736	0.669918	-0.592748
H169	H	0.187428	0.605917	-0.569284
H170	H	0.589573	0.426407	-0.026209
O171	O	0.389335	0.387277	0.207719
C172	C	0.385490	0.451594	0.204235
H173	H	0.439471	0.440642	0.208796
H174	H	0.345241	0.511630	0.151701
H175	H	0.368647	0.454518	0.249390
H176	H	0.151129	0.688749	-0.348403
H177	H	0.151178	1.303374	-0.537696
H178	H	0.589572	0.187024	0.402459
H179	H	0.589570	0.187037	0.213165
O180	O	0.828949	0.181614	0.207630
C181	C	0.768472	0.238569	0.146809
H182	H	0.747652	0.302913	0.129293
H183	H	0.782793	0.231481	0.102682
H184	H	0.726070	0.227370	0.159268
O185	O	0.828858	0.181625	0.413378
C186	C	0.768377	0.238615	0.417211
H187	H	0.725360	0.286209	0.363220
H188	H	0.748581	0.205866	0.457449
H189	H	0.782282	0.269851	0.434062
H190	H	0.589554	0.426367	0.402439
H191	H	0.151131	0.303291	0.037042
O192	O	0.765746	0.488462	-0.342957
C193	C	0.826207	0.424125	-0.339460
H194	H	0.869259	0.435042	-0.343998
H195	H	0.845961	0.364097	-0.286930
H196	H	0.812294	0.421212	-0.384621
H197	H	0.765812	0.688666	-0.537684
H198	H	0.151159	1.114073	-0.348420
H199	H	0.828891	0.376357	0.213139
O200	O	0.389320	0.621210	0.207646
C201	C	0.385451	0.621606	0.146798
H202	H	0.439419	0.572178	0.153174
H203	H	0.345180	0.609355	0.139287
H204	H	0.368624	0.683604	0.098729
O205	O	0.351500	1.108367	-0.342998
C206	C	0.394397	1.027690	-0.323425
H207	H	0.367709	1.020982	-0.358653
H208	H	0.447765	1.012996	-0.329785
H209	H	0.402405	0.983855	-0.266013
O210	O	0.594999	0.621322	-0.026507
C211	C	0.614559	0.644645	-0.087622
H212	H	0.579312	0.653200	-0.129553
H213	H	0.608220	0.704364	-0.108679
H214	H	0.671961	0.595233	-0.074055
O215	O	0.351427	0.108521	0.037213
C216	C	0.374801	0.154008	0.037507
H217	H	0.341608	0.189361	0.059175
H218	H	0.432561	0.110942	0.072227
H219	H	0.369136	0.198502	-0.018641
H220	H	0.340410	0.499432	-0.348391
