data_functionalizedCrystal
_audit_creation_method	'MofGen! by Chris Wilmer'
_symmetry_space_group_name_H-M	'P1'
_symmetry_Int_Tables_number	1
_symmetry_cell_setting	triclinic
loop_
_symmetry_equiv_pos_as_xyz
  x,y,z
_cell_length_a	14.853567
_cell_length_b	26.809956
_cell_length_c	14.853559
_cell_angle_alpha	89.993459
_cell_angle_beta	83.633192
_cell_angle_gamma	90.005869
loop_
_atom_site_label
_atom_site_type_symbol
_atom_site_fract_x
_atom_site_fract_y
_atom_site_fract_z
O1	O	1.196368	0.041443	0.117692
O2	O	0.933908	0.041451	0.131713
O3	O	1.072153	0.041446	-0.006528
O4	O	1.058124	0.041448	0.255933
O5	O	1.072127	-0.041513	-0.006507
O6	O	0.933882	-0.041508	0.131734
O7	O	1.196342	-0.041517	0.117713
Zn8	Zn	1.065108	-0.054684	0.124727
Zn9	Zn	1.065142	0.054618	0.124699
O10	O	1.058097	-0.041512	0.255954
C11	C	0.900307	-0.000028	0.131089
C12	C	0.800223	-0.000024	0.129185
N13	N	1.065091	-0.129280	0.124745
C14	C	0.387692	-0.000036	0.039019
C15	C	0.366406	-0.000035	0.203252
C16	C	0.460440	-0.000033	0.205042
C17	C	0.518104	-0.000032	0.123819
C18	C	0.481735	-0.000033	0.040806
C19	C	0.496816	-0.000027	0.288054
C20	C	0.590855	-0.000025	0.289847
C21	C	0.648521	-0.000028	0.208623
C22	C	0.612147	-0.000029	0.125607
C23	C	0.669811	-0.000028	0.044384
C24	C	0.633438	-0.000033	-0.038633
C25	C	0.539401	-0.000036	-0.040417
C26	C	0.742559	-0.000025	0.210408
C27	C	0.763854	-0.000025	0.046172
C28	C	1.126349	-0.473908	0.063501
C29	C	1.126371	-0.682786	0.063488
O30	O	1.178418	-0.709792	0.011421
N31	N	1.065147	-0.708907	0.124680
C32	C	1.003910	-0.682806	0.185875
O33	O	0.951830	-0.709816	0.237916
C34	C	1.003885	-0.473929	0.185884
C35	C	1.065119	-0.447810	0.124694
C36	C	1.187577	-0.447790	0.002316
C37	C	1.187575	-0.395573	0.002323
C38	C	1.126344	-0.369476	0.063516
C39	C	1.065116	-0.395594	0.124701
C40	C	0.942645	-0.447828	0.247074
C41	C	0.942642	-0.395606	0.247070
C42	C	1.003876	-0.369487	0.185880
C43	C	1.003883	-0.317280	0.185901
N44	N	1.065106	-0.291159	0.124710
C45	C	1.126337	-0.317257	0.063517
C46	C	1.003929	-0.792469	0.185867
C47	C	1.003936	-0.844688	0.185867
C48	C	1.126396	-0.844664	0.063478
C49	C	1.126392	-0.792445	0.063484
C50	C	1.065152	-0.766348	0.124676
C51	C	1.126327	-0.207599	0.063537
C52	C	1.126322	-0.155378	0.063553
C53	C	1.003859	-0.155406	0.185938
C54	C	1.003868	-0.207622	0.185926
C55	C	1.065105	-0.233717	0.124719
O56	O	0.951856	-0.290242	0.237934
O57	O	1.178396	-0.290237	0.011470
C58	C	1.126352	-0.526124	0.063494
C59	C	1.065124	-0.552243	0.124679
C60	C	1.003894	-0.526145	0.185872
C61	C	1.065131	-0.604462	0.124679
C62	C	1.126362	-0.630560	0.063486
C63	C	1.187585	-0.604438	0.002294
C64	C	1.187582	-0.552222	0.002301
C65	C	0.942670	-0.552266	0.247064
C66	C	0.942679	-0.604483	0.247052
C67	C	1.003909	-0.630581	0.185860
C68	C	1.229944	-0.000037	0.118338
C69	C	1.330027	-0.000037	0.120242
C70	C	1.071506	-0.000033	-0.040106
C71	C	1.069605	-0.000030	-0.140190
N72	N	1.065166	0.129214	0.124674
C73	C	1.061555	0.045192	-0.563377
C74	C	1.061527	-0.045254	-0.563348
C75	C	1.063320	-0.045254	-0.469315
C76	C	1.064230	-0.000031	-0.422308
C77	C	1.063346	0.045193	-0.469334
C78	C	1.064195	-0.090477	-0.422281
C79	C	1.065987	-0.090479	-0.328241
C80	C	1.066903	-0.045256	-0.281233
C81	C	1.066021	-0.000030	-0.328266
C82	C	1.066930	0.045193	-0.281259
C83	C	1.066054	0.090419	-0.328290
C84	C	1.064262	0.090416	-0.422326
C85	C	1.068695	-0.045253	-0.187197
C86	C	1.068721	0.045194	-0.187216
C87	C	1.058745	-0.000032	0.289532
C88	C	1.060646	-0.000031	0.389616
H89	H	0.810799	-0.000026	-0.019971
F90	F	0.305034	-0.000029	0.289690
H91	H	1.069388	-0.082075	-0.148906
F92	F	1.252751	-0.475558	-0.062820
F93	F	0.781266	-0.000016	0.298754
F94	F	0.435442	-0.000021	0.374490
H95	H	0.892782	-0.469087	0.296900
F96	F	0.500683	-0.000039	-0.128762
F97	F	0.694819	-0.000029	-0.125073
F98	F	1.191562	-0.872449	-0.001648
F99	F	0.348982	-0.000044	-0.049330
F100	F	0.629557	-0.000021	0.378200
H101	H	1.063548	0.127237	-0.460627
H102	H	1.060780	-0.082072	-0.601626
F103	F	0.938705	-0.235418	0.251062
F104	F	1.060631	0.093322	-0.613431
F105	F	0.877497	-0.524497	0.312196
F106	F	1.191499	-0.127583	-0.001574
F107	F	0.877505	-0.632275	0.312188
H108	H	0.954009	-0.134149	0.235763
F109	F	1.191503	-0.235363	-0.001607
F110	F	1.252743	-0.367781	-0.062807
F111	F	1.191563	-0.764652	-0.001643
H112	H	0.954084	-0.865950	0.235702
H113	H	0.954059	-0.771224	0.235700
H114	H	0.892771	-0.374360	0.296899
H115	H	1.063449	-0.127295	-0.460560
H116	H	1.066704	-0.127305	-0.289957
H117	H	1.237445	-0.625696	-0.047529
F118	F	1.252755	-0.524431	-0.062826
F119	F	1.069696	0.093328	-0.137196
F120	F	1.067024	0.138547	-0.278251
