data_functionalizedCrystal
_audit_creation_method	'MofGen! by Chris Wilmer'
_symmetry_space_group_name_H-M	'P1'
_symmetry_Int_Tables_number	1
_symmetry_cell_setting	triclinic
loop_
_symmetry_equiv_pos_as_xyz
  x,y,z
_cell_length_a	19.188930
_cell_length_b	10.540535
_cell_length_c	9.016244
_cell_angle_alpha	89.996444
_cell_angle_beta	89.978791
_cell_angle_gamma	83.834211
loop_
_atom_site_label
_atom_site_type_symbol
_atom_site_fract_x
_atom_site_fract_y
_atom_site_fract_z
O1	O	0.927203	0.158465	-0.123822
O2	O	0.724034	0.179797	-0.123721
O3	O	0.830255	-0.015678	-0.123759
O4	O	0.820981	0.353940	-0.123784
O5	O	0.830240	-0.015673	0.122922
O6	O	0.724018	0.179802	0.122960
O7	O	0.927187	0.158469	0.122859
Cu8	Cu	0.825601	0.169136	0.145433
Cu9	Cu	0.825620	0.169131	-0.146296
O10	O	0.820966	0.353945	0.122896
C11	C	0.698010	0.179109	-0.000368
C12	C	0.620492	0.177035	-0.000329
C13	C	0.829553	-0.062964	-0.000418
C14	C	0.827474	-0.203866	-0.000414
C15	C	0.749919	-0.238828	-0.000387
C16	C	0.747732	-0.385380	-0.000972
C17	C	0.862885	-0.413974	-0.141058
C18	C	0.864535	-0.267245	-0.141151
C19	C	0.865646	-0.267402	0.139381
C20	C	0.862059	-0.413670	0.141204
C21	C	0.576332	0.291734	-0.000360
C22	C	0.503495	0.289785	-0.000376
C23	C	0.474822	0.173132	-0.000391
C24	C	0.518992	0.058418	-0.000351
C25	C	0.591827	0.060370	-0.000320
N26	N	0.366253	0.083963	-0.084401
N27	N	0.297062	0.082117	-0.084433
C28	C	0.255374	0.167245	-0.000481
N29	N	0.285489	0.254308	0.083486
N30	N	0.354686	0.256158	0.083512
C31	C	0.395845	0.171003	-0.000423
C32	C	0.132235	0.279839	-0.000528
C33	C	0.059397	0.277886	-0.000535
C34	C	0.074896	0.046516	-0.000525
C35	C	0.147732	0.048472	-0.000503
C36	C	0.176397	0.165137	-0.000511
C37	C	0.953211	0.159158	-0.000498
C38	C	1.030729	0.161232	-0.000547
C39	C	0.821668	0.401230	-0.000448
C40	C	0.823747	0.542133	-0.000461
N41	N	0.825593	0.169139	0.350619
N42	N	0.825633	0.169117	-0.351482
C43	C	0.768597	0.273363	0.585672
C44	C	0.768724	0.273746	0.413781
C45	C	0.898588	0.197664	0.412918
C46	C	0.898277	0.198400	0.584863
C47	C	0.810320	0.036037	0.585181
C48	C	0.808645	0.036939	0.413228
H49	H	0.717117	-0.414048	0.099786
Cl50	Cl	0.447968	0.433989	-0.000412
Cl51	Cl	0.919731	0.345782	0.346393
H52	H	0.720131	-0.196207	0.100430
Cl53	Cl	0.874522	-0.083728	0.647923
H54	H	0.833578	-0.441654	0.245220
Cl55	Cl	0.729862	-0.006445	0.652252
Cl56	Cl	0.783605	0.424999	0.652304
H57	H	0.714191	0.256709	0.627094
Cl58	Cl	0.038856	-0.100136	-0.000526
Cl59	Cl	0.704715	-0.170734	-0.155781
H60	H	0.754946	0.015281	0.372515
Cl61	Cl	0.949298	-0.488987	-0.148573
Cl62	Cl	0.965760	0.085479	0.649047
Cl63	Cl	0.821450	-0.460756	-0.303198
Cl64	Cl	0.965719	0.083536	0.349750
Cl65	Cl	0.168275	0.426501	-0.000523
H66	H	0.847434	-0.044237	0.370239
H67	H	0.495641	-0.036562	-0.000384
H68	H	0.841439	-0.224417	0.245989
Cl69	Cl	0.003880	0.422093	-0.000566
H70	H	0.599666	0.386732	-0.000369
H71	H	0.917540	-0.463928	0.150088
Cl72	Cl	0.647346	-0.083835	-0.000283
H73	H	0.714487	0.256810	0.371666
Cl74	Cl	0.700732	-0.428274	-0.157469
H75	H	0.921390	-0.245466	-0.147166
Cl76	Cl	0.823747	-0.204308	-0.303994
Cl77	Cl	0.918953	0.348226	0.646742
Cl78	Cl	0.953742	-0.235088	0.141447
Cl79	Cl	0.203251	-0.095729	-0.000473
Cl80	Cl	0.783893	0.426250	0.350223
