data_functionalizedCrystal
_audit_creation_method	'MofGen! by Chris Wilmer'
_symmetry_space_group_name_H-M	'P1'
_symmetry_Int_Tables_number	1
_symmetry_cell_setting	triclinic
loop_
_symmetry_equiv_pos_as_xyz
  x,y,z
_cell_length_a	14.908571
_cell_length_b	16.120484
_cell_length_c	14.908308
_cell_angle_alpha	95.986071
_cell_angle_beta	90.175053
_cell_angle_gamma	89.787312
loop_
_atom_site_label
_atom_site_type_symbol
_atom_site_fract_x
_atom_site_fract_y
_atom_site_fract_z
Zn1	Zn	1.320097	-0.434923	-0.609960
Zn2	Zn	1.321040	-0.566744	-0.466383
Zn3	Zn	1.179340	-0.418915	-0.450134
Zn4	Zn	1.162126	-0.565754	-0.607984
O5	O	1.245651	-0.496584	-0.533615
O6	O	1.445636	-0.459523	-0.598542
O7	O	1.309843	-0.540849	-0.338080
O8	O	1.204822	-0.304418	-0.465363
O9	O	1.446329	-0.556371	-0.493056
O10	O	1.308235	-0.316179	-0.582786
O11	O	1.205736	-0.432240	-0.326142
O12	O	1.051643	-0.431280	-0.463446
O13	O	1.175482	-0.554684	-0.734394
O14	O	1.038995	-0.539162	-0.579418
O15	O	1.291543	-0.458562	-0.735846
O16	O	1.293150	-0.683233	-0.491140
O17	O	1.176396	-0.682506	-0.595173
C18	C	1.012801	-0.483377	-0.519455
C19	C	0.913184	-0.477748	-0.513419
C20	C	0.712871	-0.579666	-0.622692
C21	C	0.619272	-0.574380	-0.617025
C22	C	0.632384	-0.461887	-0.496421
C23	C	0.725983	-0.467173	-0.502089
C24	C	0.766223	-0.526065	-0.565226
C25	C	0.859824	-0.531355	-0.570888
C26	C	0.872935	-0.418858	-0.450290
C27	C	0.779335	-0.413572	-0.444622
C28	C	1.233031	-0.713110	-0.544726
C29	C	1.227712	-0.805747	-0.549515
C30	C	1.218005	-0.975358	-0.558276
C31	C	1.273456	-1.016980	-0.508979
C32	C	1.268055	-1.111356	-0.513854
C33	C	1.223405	-0.880972	-0.553403
C34	C	1.479410	-0.509843	-0.547832
C35	C	1.579025	-0.515493	-0.553890
C36	C	1.231487	-0.508298	-0.768743
C37	C	1.225451	-0.513290	-0.868941
C38	C	1.258344	-0.279214	-0.522482
C39	C	1.263752	-0.186584	-0.517738
C40	C	1.334963	-0.422560	-1.058735
C41	C	1.329294	-0.427248	-1.152880
C42	C	1.208443	-0.527348	-1.151376
C43	C	1.214111	-0.522661	-1.057231
C44	C	1.277374	-0.470266	-1.010914
C45	C	1.283046	-0.465583	-0.916769
C46	C	1.162191	-0.565679	-0.915266
C47	C	1.156523	-0.570366	-1.009410
C48	C	1.259815	-0.484858	-0.299402
C49	C	1.266038	-0.479641	-0.199204
H50	H	0.599604	-0.413934	-0.445024
C51	C	0.641675	-0.355515	-0.382387
C52	C	0.735098	-0.348839	-0.375226
H53	H	0.614369	-0.315553	-0.339539
H54	H	0.623414	-0.345553	-0.441420
H55	H	0.623885	-0.409966	-0.371041
H56	H	0.752888	-0.294390	-0.386578
H57	H	0.753366	-0.358795	-0.316179
C58	C	1.298793	-0.913680	-0.383520
C59	C	1.343014	-0.969408	-0.447049
H60	H	1.341733	-0.884314	-0.345284
H61	H	1.264725	-0.875165	-0.413813
H62	H	1.259942	-0.943771	-0.348367
H63	H	1.381860	-0.939316	-0.482206
H64	H	1.377097	-1.007928	-0.416753
H65	H	1.376187	-0.388398	-1.191812
H66	H	0.916384	-0.375214	-0.403494
C67	C	1.183060	-0.643997	-1.262260
C68	C	1.138901	-0.584924	-1.202302
H69	H	1.140123	-0.679541	-1.293696
H70	H	1.216545	-0.616252	-1.304202
H71	H	1.222449	-0.676271	-1.229539
H72	H	1.099516	-0.552647	-1.235024
H73	H	1.105400	-0.612672	-1.160354
H74	H	1.105015	-0.613023	-1.047134
C75	C	1.163508	-1.007462	-0.709589
C76	C	1.148443	-1.022933	-0.620187
H77	H	1.120565	-1.036846	-0.747806
H78	H	1.158048	-0.949369	-0.714394
H79	H	1.222124	-1.025694	-0.727202
H80	H	1.089829	-1.004695	-0.602571
H81	H	1.153895	-1.081038	-0.615378
C82	C	1.401923	-0.367101	-0.927714
C83	C	1.352579	-0.407988	-0.865854
H84	H	1.444845	-0.331538	-0.896281
H85	H	1.431877	-0.407180	-0.968376
H86	H	1.362511	-0.334844	-0.960428
H87	H	1.391991	-0.440250	-0.833144
H88	H	1.322623	-0.367903	-0.825177
C89	C	1.117215	-0.602945	-0.770283
C90	C	1.098883	-0.618121	-0.862699
H91	H	1.078130	-0.635319	-0.737832
H92	H	1.177642	-0.617787	-0.759148
H93	H	1.108291	-0.545438	-0.751193
H94	H	1.107813	-0.675627	-0.881791
H95	H	1.038441	-0.603284	-0.873840
H96	H	0.745635	-0.627623	-0.674096
C97	C	0.837459	-0.642009	-0.689539
C98	C	0.904059	-0.596083	-0.640291
H99	H	0.864768	-0.681965	-0.732391
H100	H	0.801465	-0.669813	-0.649633
H101	H	0.800986	-0.605393	-0.720004
H102	H	0.940529	-0.632699	-0.609821
H103	H	0.940069	-0.568277	-0.680203
H104	H	0.575836	-0.618026	-0.663822
H105	H	1.386478	-0.379902	-1.021024
