data_functionalizedCrystal
_audit_creation_method	'MofGen! by Chris Wilmer'
_symmetry_space_group_name_H-M	'P1'
_symmetry_Int_Tables_number	1
_symmetry_cell_setting	triclinic
loop_
_symmetry_equiv_pos_as_xyz
  x,y,z
_cell_length_a	6.817900
_cell_length_b	10.992410
_cell_length_c	14.858329
_cell_angle_alpha	93.425518
_cell_angle_beta	104.519616
_cell_angle_gamma	108.764651
loop_
_atom_site_label
_atom_site_type_symbol
_atom_site_fract_x
_atom_site_fract_y
_atom_site_fract_z
V1	V	-4.092555	-0.400959	-0.128670
V2	V	-3.592555	0.099041	0.371330
O3	O	-4.073418	-0.392950	0.006183
O4	O	-3.573418	0.107050	0.506183
O5	O	-4.048813	-0.398579	-0.255132
O6	O	-3.548813	0.101421	0.244868
O7	O	-4.070481	-0.575666	-0.126691
O8	O	-3.570481	-0.075666	0.373309
O9	O	-4.051601	-0.214637	-0.123147
O10	O	-3.551601	0.285363	0.376853
V11	V	-4.572168	-0.378630	-0.112540
V12	V	-4.072168	0.121370	0.387460
O13	O	-4.362390	-0.449941	-0.164053
O14	O	-3.862390	0.050059	0.335947
O15	O	-4.752530	-0.329648	-0.077158
O16	O	-4.252530	0.170352	0.422842
O17	O	-4.392703	-0.381009	0.013921
O18	O	-3.892703	0.118991	0.513921
O19	O	-4.708702	-0.386639	-0.247394
O20	O	-4.208702	0.113361	0.252606
O21	O	-4.730519	-0.564952	-0.118064
O22	O	-4.230519	-0.064952	0.381936
O23	O	-4.371036	-0.203923	-0.114520
O24	O	-3.871036	0.296077	0.385480
C25	C	-3.894095	-0.392348	-0.285960
C26	C	-3.394095	0.107652	0.214040
C27	C	-3.939794	-0.391566	-0.389344
C28	C	-3.439794	0.108434	0.110656
C29	C	-3.976898	-0.390920	-0.473302
C30	C	-3.476898	0.109080	0.026698
C31	C	-4.023467	-0.390115	-0.578632
C32	C	-3.523467	0.109885	-0.078632
C33	C	-4.060600	-0.389475	-0.662584
C34	C	-3.560600	0.110525	-0.162584
C35	C	-4.107171	-0.388668	-0.767920
C36	C	-3.607171	0.111332	-0.267920
C37	C	-3.921733	-0.618238	-0.122120
C38	C	-3.421733	-0.118238	0.377880
C39	C	-3.985000	-0.761064	-0.121339
C40	C	-3.485000	-0.261064	0.378661
C41	C	-3.853323	-0.956167	-0.114219
C42	C	-3.353323	-0.456167	0.385781
C43	C	-3.787571	-0.807687	-0.115417
C44	C	-3.287571	-0.307687	0.384583
C45	C	-4.167556	-0.838429	-0.213035
C46	C	-3.667556	-0.338429	0.286965
C47	C	-4.232006	-0.986993	-0.212224
C48	C	-3.732006	-0.486993	0.287776
C49	C	-4.139708	-0.948456	-0.034667
C50	C	-3.639708	-0.448456	0.465333
C51	C	-4.069072	-0.799442	-0.034232
C52	C	-3.569072	-0.299442	0.465768
C53	C	-4.210763	-0.387238	0.044745
C54	C	-3.710763	0.112762	0.544745
C55	C	-4.144304	-0.388027	0.148128
C56	C	-3.644304	0.111973	0.648128
C57	C	-4.183125	-0.161344	-0.119093
C58	C	-3.683125	0.338656	0.380907
C59	C	-4.099096	-0.018517	-0.119870
C60	C	-3.599096	0.481483	0.380130
H61	H	-3.650231	-0.754159	-0.049483
H62	H	-3.150231	-0.254159	0.450517
H63	H	-3.719926	-0.783049	-0.177486
H64	H	-3.219926	-0.283049	0.322514
H65	H	-4.412664	-1.029647	-0.220198
H66	H	-3.912664	-0.529647	0.279802
F67	F	-4.362431	-0.800816	-0.223030
F68	F	-3.862431	-0.300816	0.276970
H69	H	-3.818064	-1.004334	-0.175438
H70	H	-3.318064	-0.504334	0.324562
H71	H	-4.110891	-0.813008	-0.277708
H72	H	-3.610891	-0.313008	0.222292
F73	F	-4.197452	-1.047716	-0.296548
F74	F	-3.697452	-0.547716	0.203452
F75	F	-3.896774	-0.730763	0.054432
F76	F	-3.396774	-0.230763	0.554432
F77	F	-4.020543	-0.974810	0.056348
F78	F	-3.520543	-0.474810	0.556348
F79	F	-4.372914	-1.001853	-0.039019
F80	F	-3.872914	-0.501853	0.460981
F81	F	-3.714736	-0.980358	-0.027374
F82	F	-3.214736	-0.480358	0.472626
F83	F	-4.255050	-0.756933	-0.032818
F84	F	-3.755050	-0.256933	0.467182
