data_functionalizedCrystal
_audit_creation_method	'MofGen! by Chris Wilmer'
_symmetry_space_group_name_H-M	'P1'
_symmetry_Int_Tables_number	1
_symmetry_cell_setting	triclinic
loop_
_symmetry_equiv_pos_as_xyz
  x,y,z
_cell_length_a	12.811438
_cell_length_b	12.837942
_cell_length_c	14.586319
_cell_angle_alpha	89.996741
_cell_angle_beta	84.565035
_cell_angle_gamma	89.411773
loop_
_atom_site_label
_atom_site_type_symbol
_atom_site_fract_x
_atom_site_fract_y
_atom_site_fract_z
O1	O	1.406646	0.139685	-0.193185
O2	O	1.102580	0.154874	-0.167907
O3	O	1.247871	-0.003653	-0.179980
O4	O	1.261355	0.298211	-0.181112
O5	O	1.247859	-0.003655	-0.027498
O6	O	1.102569	0.154871	-0.015426
O7	O	1.406634	0.139683	-0.040703
Cu8	Cu	1.254600	0.147277	-0.014141
Cu9	Cu	1.254614	0.147280	-0.194469
O10	O	1.261344	0.298209	-0.028630
C11	C	1.063385	0.154021	-0.088409
C12	C	0.946612	0.151472	-0.078701
C13	C	0.782020	0.147879	0.018094
C14	C	0.891739	0.150274	0.008977
C15	C	0.891760	0.150278	-0.157268
C16	C	0.782041	0.147882	-0.148151
C17	C	0.727175	0.146681	-0.060467
C18	C	0.617455	0.144278	-0.051351
C19	C	0.617478	0.144289	-0.217594
C20	C	0.727196	0.146685	-0.226712
C21	C	1.243310	-0.042294	-0.103361
C22	C	1.229723	-0.157430	-0.102233
C23	C	1.393053	-0.397683	-0.115830
C24	C	1.380293	-0.505864	-0.114771
C25	C	1.191443	-0.481974	-0.099062
C26	C	1.204203	-0.373794	-0.100121
C27	C	1.305012	-0.331652	-0.108504
C28	C	1.317771	-0.223469	-0.109557
C29	C	1.128922	-0.199582	-0.093854
C30	C	1.116162	-0.307762	-0.092795
C31	C	1.445829	0.140535	-0.120204
C32	C	1.562602	0.143084	-0.129917
C33	C	1.265905	0.336850	-0.105251
C34	C	1.279491	0.451986	-0.106385
N35	N	1.254599	0.147274	0.112690
N36	N	1.254623	0.147274	-0.321301
C37	C	1.318959	0.077102	0.342349
C38	C	1.318962	0.077100	0.438330
C39	C	1.190256	0.217449	0.449034
C40	C	1.190248	0.217446	0.353055
C41	C	1.254606	0.147274	0.299715
C42	C	1.254616	0.147274	0.491675
C43	C	1.254619	0.147272	0.595741
C44	C	1.254602	0.147274	0.195641
H45	H	0.737347	0.146907	0.089490
N46	N	1.426496	-0.178015	-0.118592
H47	H	1.465556	-0.202055	-0.178367
H48	H	1.421134	-0.099471	-0.118106
H49	H	0.936450	0.151265	-0.228655
H50	H	1.137858	0.274583	0.492473
H51	H	1.371363	0.019959	0.473040
H52	H	1.451986	-0.559624	-0.120739
N53	N	1.120826	0.293125	0.307064
H54	H	1.080061	0.337583	0.355416
H55	H	1.165603	0.339167	0.263505
N56	N	1.388341	0.001404	0.284808
H57	H	1.438797	0.041249	0.240778
H58	H	1.429038	-0.043042	0.326441
H59	H	0.572785	0.143308	0.020046
H60	H	1.475135	-0.363372	-0.122647
N61	N	0.950887	0.151570	0.093714
H62	H	0.933875	0.086943	0.131470
H63	H	1.028700	0.153311	0.074565
N64	N	0.786375	0.147982	-0.321280
H65	H	0.864204	0.149682	-0.315137
H66	H	0.769288	0.083348	-0.356151
H67	H	1.109369	-0.516305	-0.092246
N68	N	0.558325	0.142989	-0.302336
H69	H	0.480493	0.141285	-0.283258
H70	H	0.575417	0.207620	-0.340059
N71	N	1.007438	-0.353218	-0.083757
H72	H	1.012712	-0.431770	-0.084198
H73	H	0.968439	-0.329098	-0.023983
N74	N	1.033954	-0.128363	-0.085947
H75	H	1.057331	-0.053435	-0.087888
H76	H	0.990491	-0.142048	-0.138859
