data_functionalizedCrystal
_audit_creation_method	'MofGen! by Chris Wilmer'
_symmetry_space_group_name_H-M	'P1'
_symmetry_Int_Tables_number	1
_symmetry_cell_setting	triclinic
loop_
_symmetry_equiv_pos_as_xyz
  x,y,z
_cell_length_a	17.038272
_cell_length_b	16.992694
_cell_length_c	16.053802
_cell_angle_alpha	92.750953
_cell_angle_beta	92.751609
_cell_angle_gamma	89.110110
loop_
_atom_site_label
_atom_site_type_symbol
_atom_site_fract_x
_atom_site_fract_y
_atom_site_fract_z
O1	O	0.163385	-1.054593	-0.069325
O2	O	0.663385	-0.554593	0.430675
O3	O	0.161558	-0.826187	-0.069350
O4	O	0.661558	-0.326187	0.430650
O5	O	0.048571	-0.939032	-0.069331
O6	O	0.548571	-0.439032	0.430669
O7	O	0.276372	-0.941748	-0.069344
O8	O	0.776372	-0.441748	0.430656
O9	O	0.054763	-0.932819	0.069527
O10	O	0.554763	-0.432819	0.569527
O11	O	0.167750	-0.819974	0.069508
O12	O	0.667750	-0.319974	0.569508
O13	O	0.169577	-1.048380	0.069533
O14	O	0.669577	-0.548380	0.569533
Zn15	Zn	0.169646	-0.933190	0.091567
Zn16	Zn	0.669646	-0.433190	0.591567
Zn17	Zn	0.161489	-0.941376	-0.091384
Zn18	Zn	0.661489	-0.441376	0.408616
O19	O	0.282564	-0.935535	0.069514
O20	O	0.782564	-0.435535	0.569514
C21	C	0.022384	-0.933456	0.000098
C22	C	0.522384	-0.433456	0.500098
C23	C	-0.064871	-0.926089	0.000097
C24	C	0.435129	-0.426089	0.500097
C25	C	0.162304	-0.793711	0.000076
C26	C	0.662304	-0.293711	0.500076
C27	C	0.155293	-0.706200	0.000067
C28	C	0.655293	-0.206200	0.500067
C29	C	0.168831	-1.080856	0.000105
C30	C	0.668831	-0.580856	0.500105
C31	C	0.175841	-1.168367	0.000109
C32	C	0.675841	-0.668367	0.500109
C33	C	-0.110741	-0.993729	0.000105
C34	C	0.389259	-0.493729	0.500105
C35	C	-0.192727	-0.986802	0.000096
C36	C	0.307273	-0.486802	0.500096
C37	C	-0.228840	-0.912235	0.000085
C38	C	0.271160	-0.412235	0.500085
C39	C	-0.182964	-0.844590	0.000075
C40	C	0.317036	-0.344590	0.500075
C41	C	-0.100981	-0.851518	0.000077
C42	C	0.399019	-0.351518	0.500077
C43	C	-0.476135	-0.887761	0.000071
C44	C	0.023865	-0.387761	0.500071
C45	C	-0.558124	-0.880838	0.000071
C46	C	-0.058124	-0.380838	0.500071
C47	C	-0.567881	-1.023051	0.000091
C48	C	-0.067881	-0.523051	0.500091
C49	C	-0.485895	-1.029972	0.000099
C50	C	0.014105	-0.529972	0.500099
C51	C	-0.440026	-0.962328	0.000084
C52	C	0.059974	-0.462328	0.500084
C53	C	-0.312643	-0.905153	0.000079
C54	C	0.187357	-0.405153	0.500079
C55	C	-0.356226	-0.969410	0.000084
C56	C	0.143774	-0.469410	0.500084
C57	C	0.308751	-0.941111	0.000084
C58	C	0.808751	-0.441111	0.500084
C59	C	0.396006	-0.948478	0.000079
C60	C	0.896006	-0.448478	0.500079
N61	N	0.175214	-0.927609	0.216427
N62	N	0.675214	-0.427609	0.716427
C63	C	0.222933	-0.660472	0.000064
C64	C	0.722933	-0.160472	0.500064
C65	C	0.216342	-0.578245	0.000076
C66	C	0.716342	-0.078245	0.500076
C67	C	0.142110	-0.541748	0.000085
C68	C	0.642110	-0.041748	0.500085
C69	C	0.074465	-0.587482	0.000091
C70	C	0.574465	-0.087482	0.500091
C71	C	0.081057	-0.669707	0.000085
C72	C	0.581057	-0.169707	0.500085
C73	C	0.114789	-0.296327	0.000109
C74	C	0.614789	0.203673	0.500109
C75	C	0.108201	-0.214096	0.000112
C76	C	0.608201	0.285904	0.500112
C77	C	0.250079	-0.204864	0.000099
C78	C	0.750079	0.295136	0.500099
C79	C	0.256665	-0.287091	0.000088
C80	C	0.756665	0.212909	0.500088
C81	C	0.189020	-0.332818	0.000098
C82	C	0.689020	0.167182	0.500098
N83	N	0.135371	-0.457699	0.000094
N84	N	0.635371	0.042301	0.500094
N85	N	0.195760	-0.416865	0.000095
N86	N	0.695760	0.083135	0.500095
N87	N	0.155915	-0.946963	-0.216243
N88	N	0.655915	-0.446963	0.283757
C89	C	0.127157	-0.975645	0.260129
C90	C	0.627157	-0.475645	0.760129
C91	C	0.131060	-0.971749	0.347535
C92	C	0.631060	-0.471749	0.847535
C93	C	0.183023	-0.919820	0.391237
C94	C	0.683023	-0.419820	0.891237
C95	C	0.231082	-0.871779	0.347529
C96	C	0.731082	-0.371779	0.847529
C97	C	0.227175	-0.875672	0.260125
C98	C	0.727175	-0.375672	0.760125
C99	C	0.200067	-0.902815	0.652644
C100	C	0.700067	-0.402815	1.152644
C101	C	0.203972	-0.898928	0.740055
C102	C	0.703972	-0.398928	1.240055
C103	C	0.103948	-0.998897	0.740054
C104	C	0.603948	-0.498897	1.240054
C105	C	0.100050	-1.002788	0.652648
C106	C	0.600050	-0.502788	1.152648
C107	C	0.148105	-0.954744	0.608948
C108	C	0.648105	-0.454744	1.108948
N109	N	0.187015	-0.915838	0.480580
N110	N	0.687015	-0.415838	0.980580
N111	N	0.144109	-0.958723	0.519606
N112	N	0.644109	-0.458723	1.019606
H113	H	-0.081343	-1.054449	0.000119
H114	H	0.418657	-0.554449	0.500119
Cl115	Cl	-0.018856	-0.541600	0.000107
Cl116	Cl	0.481144	-0.041600	0.500107
Cl117	Cl	0.034725	-1.068071	0.597707
Cl118	Cl	0.534725	-0.568071	1.097707
H119	H	0.025977	-0.706939	0.000087
H120	H	0.525977	-0.206939	0.500087
H121	H	0.239197	-0.863697	0.617070
H122	H	0.739197	-0.363697	1.117070
H123	H	0.246290	-0.856639	0.775633
H124	H	0.746290	-0.356639	1.275633
H125	H	0.091928	-1.010863	0.383116
H126	H	0.591928	-0.510863	0.883116
Cl127	Cl	0.043536	-1.059288	0.794995
Cl128	Cl	0.543536	-0.559288	1.294995
H129	H	0.271422	-0.541016	0.000072
H130	H	0.771422	-0.041016	0.500072
Cl131	Cl	0.296404	-0.806493	0.402468
Cl132	Cl	0.796404	-0.306493	0.902468
Cl133	Cl	-0.310824	-1.063149	0.000093
Cl134	Cl	0.189176	-0.563149	0.500093
Cl135	Cl	0.014875	-0.168215	0.000142
Cl136	Cl	0.514875	0.331785	0.500142
H137	H	0.266306	-0.836555	0.224543
H138	H	0.766306	-0.336555	0.724543
Cl139	Cl	0.029748	-0.353801	0.000121
Cl140	Cl	0.529748	0.146199	0.500121
Cl141	Cl	0.316258	-0.706345	0.000047
Cl142	Cl	0.816258	-0.206345	0.500047
Cl143	Cl	-0.418482	-0.802721	0.000050
Cl144	Cl	0.081518	-0.302721	0.500050
H145	H	-0.230071	-1.041882	0.000105
H146	H	0.269929	-0.541882	0.500105
Cl147	Cl	-0.603523	-0.787089	0.000063
Cl148	Cl	-0.103523	-0.287089	0.500063
H149	H	-0.456497	-1.090692	0.000108
H150	H	0.043503	-0.590692	0.500108
Cl151	Cl	0.335113	-0.147374	0.000090
Cl152	Cl	0.835113	0.352626	0.500090
Cl153	Cl	-0.228365	-0.750848	0.000051
Cl154	Cl	0.271635	-0.250848	0.500051
Cl155	Cl	-0.043315	-0.766481	0.000064
Cl156	Cl	0.456685	-0.266481	0.500064
H157	H	-0.605236	-1.078123	0.000102
H158	H	-0.105236	-0.578123	0.500102
H159	H	-0.342056	-0.844440	0.000072
H160	H	0.157944	-0.344440	0.500072
H161	H	0.317112	-0.316801	0.000071
H162	H	0.817112	0.183199	0.500071
H163	H	0.084847	-1.017934	0.224552
H164	H	0.584847	-0.517934	0.724552
