data_functionalizedCrystal
_audit_creation_method	'MofGen! by Chris Wilmer'
_symmetry_space_group_name_H-M	'P1'
_symmetry_Int_Tables_number	1
_symmetry_cell_setting	triclinic
loop_
_symmetry_equiv_pos_as_xyz
  x,y,z
_cell_length_a	13.033409
_cell_length_b	13.031981
_cell_length_c	19.805399
_cell_angle_alpha	82.788388
_cell_angle_beta	97.177117
_cell_angle_gamma	90.920217
loop_
_atom_site_label
_atom_site_type_symbol
_atom_site_fract_x
_atom_site_fract_y
_atom_site_fract_z
Zn1	Zn	1.520182	-0.609001	-0.207261
Zn2	Zn	1.498258	-0.781012	-0.081724
Zn3	Zn	1.348219	-0.587216	-0.110056
Zn4	Zn	1.326365	-0.759142	-0.210843
O5	O	1.423256	-0.684093	-0.152471
O6	O	1.661179	-0.650088	-0.177251
O7	O	1.478326	-0.755339	0.009235
O8	O	1.389352	-0.446167	-0.133309
O9	O	1.645072	-0.776464	-0.085020
O10	O	1.515692	-0.462172	-0.204724
O11	O	1.368093	-0.612958	-0.011581
O12	O	1.201415	-0.591752	-0.136783
O13	O	1.352104	-0.739190	-0.305085
O14	O	1.185359	-0.718066	-0.210830
O15	O	1.494501	-0.628882	-0.302453
O16	O	1.457135	-0.922049	-0.088494
O17	O	1.330845	-0.905982	-0.183357
C18	C	1.156074	-0.650173	-0.177270
C19	C	1.041769	-0.635686	-0.187893
C20	C	0.864707	-0.676688	-0.157919
C21	C	0.982847	-0.691664	-0.146935
C22	C	1.389267	-0.951341	-0.133252
C23	C	1.374821	-1.065683	-0.125044
C24	C	1.430850	-1.124491	-0.156763
C25	C	1.415921	-1.242669	-0.148281
C26	C	1.691482	-0.718146	-0.127576
C27	C	1.805783	-0.732657	-0.116967
C28	C	1.423310	-0.684027	-0.329015
C29	C	1.423333	-0.683999	-0.404247
C30	C	1.457406	-0.415804	-0.171777
C31	C	1.471958	-0.301476	-0.180005
C32	C	1.365955	-0.609857	-0.450428
C33	C	1.365971	-0.609839	-0.521117
C34	C	1.423373	-0.683959	-0.545623
C35	C	1.480754	-0.758108	-0.499436
C36	C	1.480731	-0.758130	-0.428749
C37	C	1.480848	-0.758022	-0.784509
C38	C	1.480869	-0.757993	-0.855201
C39	C	1.366088	-0.609731	-0.876877
C40	C	1.366065	-0.609753	-0.806190
C41	C	1.423441	-0.683905	-0.760009
C42	C	1.423421	-0.683925	-0.683361
C43	C	1.423400	-0.683935	-0.622270
C44	C	1.423271	-0.684091	0.023386
C45	C	1.423484	-0.683855	0.098616
H46	H	1.489869	-1.087350	-0.190203
H47	H	1.319243	-0.549469	-0.558716
O48	O	1.310234	-0.537891	-0.782306
C49	C	1.173083	-0.506460	-0.716418
C50	C	1.236255	-0.587950	-0.743406
H51	H	1.113243	-0.546901	-0.684973
H52	H	1.227070	-0.458688	-0.682770
H53	H	1.132123	-0.453450	-0.761578
H54	H	1.277222	-0.641029	-0.698287
H55	H	1.182218	-0.635647	-0.777074
H56	H	1.315794	-1.102825	-0.091611
H57	H	1.527615	-0.818354	-0.875150
O58	O	0.997497	-0.565416	-0.239461
C59	C	0.877940	-0.536496	-0.343068
C60	C	0.927979	-0.616178	-0.284701
H61	H	0.821741	-0.577509	-0.379668
H62	H	0.834396	-0.476324	-0.320613
H63	H	0.940705	-0.496666	-0.372160
H64	H	0.865280	-0.656083	-0.255586
H65	H	0.971547	-0.676284	-0.307198
O66	O	0.849868	-0.803195	-0.065503
C67	C	0.860637	-0.982251	-0.016808
C68	C	0.810656	-0.902478	-0.075139
H69	H	0.828938	-1.062536	-0.024571
H70	H	0.948052	-0.981879	-0.017127
H71	H	0.841872	-0.961375	0.034489
H72	H	0.829340	-0.923298	-0.126466
H73	H	0.723254	-0.902865	-0.074760
H74	H	1.527554	-0.818411	-0.746916
O75	O	1.310361	-0.537807	-0.921833
C76	C	1.259561	-0.472022	-1.040336
C77	C	1.322693	-0.553547	-0.989503
H78	H	1.269527	-0.484706	-1.095058
H79	H	1.174315	-0.479559	-1.032883
H80	H	1.288162	-0.391389	-1.030692
H81	H	1.294181	-0.634216	-0.999116
H82	H	1.407929	-0.545919	-0.996968
O83	O	1.542263	-1.257214	-0.220001
C84	C	1.596278	-1.230358	-0.332898
C85	C	1.516574	-1.280517	-0.287685
H86	H	1.575549	-1.249198	-0.387625
H87	H	1.595774	-1.142927	-0.332694
H88	H	1.676571	-1.261877	-0.311826
H89	H	1.436243	-1.249081	-0.308723
H90	H	1.517169	-1.367945	-0.287890
H91	H	1.019857	-0.750678	-0.103744
H92	H	1.527486	-0.818462	-0.519394
H93	H	1.527463	-0.818497	-0.391148
H94	H	1.356890	-1.279808	-0.114846
O95	O	0.820395	-0.606305	-0.209397
C96	C	0.662237	-0.527281	-0.267323
C97	C	0.712283	-0.607009	-0.208987
H98	H	0.574819	-0.527839	-0.267021
H99	H	0.693759	-0.446933	-0.259557
H100	H	0.681088	-0.548101	-0.318615
H101	H	0.693452	-0.586286	-0.157670
H102	H	0.680759	-0.687336	-0.216814
H103	H	1.319218	-0.549495	-0.430482
