data_functionalizedCrystal
_audit_creation_method	'MofGen! by Chris Wilmer'
_symmetry_space_group_name_H-M	'P1'
_symmetry_Int_Tables_number	1
_symmetry_cell_setting	triclinic
loop_
_symmetry_equiv_pos_as_xyz
  x,y,z
_cell_length_a	27.732048
_cell_length_b	15.944551
_cell_length_c	15.021413
_cell_angle_alpha	90.002826
_cell_angle_beta	89.999048
_cell_angle_gamma	96.929303
loop_
_atom_site_label
_atom_site_type_symbol
_atom_site_fract_x
_atom_site_fract_y
_atom_site_fract_z
O1	O	0.062334	-1.113714	-0.073949
O2	O	0.395667	-0.780380	0.259384
O3	O	0.729001	-0.447047	0.592718
O4	O	0.070020	-0.869064	-0.073973
O5	O	0.403353	-0.535730	0.259361
O6	O	0.736687	-0.202397	0.592694
O7	O	-0.004187	-0.998987	-0.073943
O8	O	0.329146	-0.665654	0.259390
O9	O	0.662480	-0.332320	0.592723
O10	O	0.136541	-0.983790	-0.073979
O11	O	0.469874	-0.650457	0.259355
O12	O	0.803207	-0.317124	0.592688
O13	O	-0.004176	-0.998966	0.074121
O14	O	0.329157	-0.665633	0.407454
O15	O	0.662490	-0.332300	0.740788
O16	O	0.070030	-0.869043	0.074092
O17	O	0.403364	-0.535710	0.407425
O18	O	0.736697	-0.202376	0.740758
O19	O	0.062345	-1.113693	0.074115
O20	O	0.395678	-0.780360	0.407448
O21	O	0.729011	-0.447026	0.740782
Zn22	Zn	0.066189	-0.991365	0.097612
Zn23	Zn	0.399522	-0.658031	0.430945
Zn24	Zn	0.732856	-0.324698	0.764278
Zn25	Zn	0.066175	-0.991392	-0.097469
Zn26	Zn	0.399509	-0.658059	0.235864
Zn27	Zn	0.732842	-0.324725	0.569197
O28	O	0.136551	-0.983770	0.074086
O29	O	0.469885	-0.650436	0.407419
O30	O	0.803218	-0.317103	0.740752
C31	C	0.069706	-0.837763	0.000057
C32	C	0.403039	-0.504430	0.333390
C33	C	0.736373	-0.171097	0.666723
C34	C	0.068749	-0.744530	0.000049
C35	C	0.402083	-0.411197	0.333382
C36	C	0.735416	-0.077863	0.666715
C37	C	-0.022190	-0.998658	0.000091
C38	C	0.311143	-0.665324	0.333425
C39	C	0.644477	-0.331991	0.666758
C40	C	-0.075849	-0.997697	0.000099
C41	C	0.257484	-0.664364	0.333432
C42	C	0.590818	-0.331030	0.666765
N43	N	0.066198	-0.991352	0.230749
N44	N	0.399532	-0.658019	0.564083
N45	N	0.732865	-0.324686	0.897416
C46	C	-0.414358	-1.068426	0.000060
C47	C	-0.081024	-0.735093	0.333393
C48	C	0.252309	-0.401759	0.666726
C49	C	-0.616033	-1.064862	0.000047
C50	C	-0.282699	-0.731529	0.333380
C51	C	0.050634	-0.398195	0.666714
O52	O	-0.647008	-1.129539	0.000014
O53	O	-0.313675	-0.796205	0.333347
O54	O	0.019658	-0.462872	0.666681
N55	N	-0.635490	-0.987823	0.000040
N56	N	-0.302157	-0.654490	0.333374
N57	N	0.031176	-0.321156	0.666707
C58	C	-0.604525	-0.911669	0.000031
C59	C	-0.271192	-0.578336	0.333365
C60	C	0.062141	-0.245003	0.666698
O61	O	-0.625703	-0.846061	0.000016
O62	O	-0.292369	-0.512728	0.333350
O63	O	0.040964	-0.179394	0.666683
C64	C	-0.402851	-0.915234	0.000038
C65	C	-0.069518	-0.581901	0.333371
C66	C	0.263815	-0.248567	0.666704
C67	C	-0.383397	-0.992278	0.000053
C68	C	-0.050064	-0.658945	0.333386
C69	C	0.283270	-0.325612	0.666720
C70	C	-0.394903	-1.145464	0.000074
C71	C	-0.061569	-0.812131	0.333408
C72	C	0.271764	-0.478797	0.666741
C73	C	-0.344487	-1.146354	0.000082
C74	C	-0.011154	-0.813021	0.333416
C75	C	0.322180	-0.479687	0.666749
C76	C	-0.313526	-1.070206	0.000076
C77	C	0.019807	-0.736873	0.333409
C78	C	0.353141	-0.403540	0.666742
C79	C	-0.332981	-0.993168	0.000061
C80	C	0.000352	-0.659835	0.333394
C81	C	0.333686	-0.326502	0.666728
C82	C	-0.371887	-0.839081	0.000022
C83	C	-0.038554	-0.505748	0.333355
C84	C	0.294779	-0.172415	0.666689
C85	C	-0.321466	-0.839979	0.000021
C86	C	0.011867	-0.506646	0.333355
C87	C	0.345200	-0.173313	0.666688
C88	C	-0.302012	-0.917024	0.000037
C89	C	0.031322	-0.583690	0.333370
C90	C	0.364655	-0.250357	0.666704
C91	C	-0.251604	-0.917911	0.000063
C92	C	0.081729	-0.584577	0.333396
C93	C	0.415062	-0.251244	0.666729
N94	N	-0.232147	-0.994950	0.000069
N95	N	0.101186	-0.661617	0.333403
N96	N	0.434520	-0.328283	0.666736
C97	C	-0.263108	-1.071098	0.000076
C98	C	0.070225	-0.737764	0.333409
C99	C	0.403559	-0.404431	0.666742
C100	C	-0.710408	-0.909803	0.000030
C101	C	-0.377074	-0.576470	0.333363
C102	C	-0.043741	-0.243136	0.666696
C103	C	-0.760826	-0.908912	0.000030
C104	C	-0.427492	-0.575578	0.333363
C105	C	-0.094159	-0.242245	0.666696
C106	C	-0.772330	-1.062105	0.000044
C107	C	-0.438996	-0.728772	0.333377
C108	C	-0.105663	-0.395438	0.666710
C109	C	-0.721911	-1.062995	0.000050
C110	C	-0.388577	-0.729662	0.333383
C111	C	-0.055244	-0.396329	0.666717
C112	C	-0.690950	-0.986842	0.000036
C113	C	-0.357617	-0.653509	0.333369
C114	C	-0.024283	-0.320176	0.666703
C115	C	-0.157231	-1.072961	0.000093
C116	C	0.176103	-0.739628	0.333427
C117	C	0.509436	-0.406295	0.666760
C118	C	-0.106810	-1.073845	0.000105
C119	C	0.226523	-0.740511	0.333438
C120	C	0.559857	-0.407178	0.666772
C121	C	-0.095310	-0.920652	0.000086
C122	C	0.238023	-0.587319	0.333420
C123	C	0.571356	-0.253985	0.666753
C124	C	-0.145727	-0.919768	0.000079
C125	C	0.187607	-0.586435	0.333413
C126	C	0.520940	-0.253102	0.666746
C127	C	-0.176686	-0.995930	0.000080
C128	C	0.156647	-0.662596	0.333413
C129	C	0.489981	-0.329263	0.666746
O130	O	-0.220600	-0.853269	0.000085
O131	O	0.112733	-0.519935	0.333419
O132	O	0.446066	-0.186602	0.666752
O133	O	-0.241921	-1.136697	0.000071
O134	O	0.091412	-0.803363	0.333404
O135	O	0.424745	-0.470030	0.666738
C136	C	-0.464774	-1.067536	0.000052
C137	C	-0.131440	-0.734203	0.333385
C138	C	0.201893	-0.400869	0.666718
C139	C	-0.484228	-0.990498	0.000037
C140	C	-0.150895	-0.657165	0.333370
C141	C	0.182438	-0.323831	0.666704
C142	C	-0.453268	-0.914350	0.000031
C143	C	-0.119934	-0.581017	0.333364
C144	C	0.213399	-0.247684	0.666697
C145	C	-0.534647	-0.989607	0.000037
C146	C	-0.201313	-0.656273	0.333370
C147	C	0.132020	-0.322940	0.666704
C148	C	-0.565608	-1.065754	0.000044
C149	C	-0.232274	-0.732421	0.333377
C150	C	0.101059	-0.399088	0.666710
C151	C	-0.546150	-1.142794	0.000050
C152	C	-0.212817	-0.809460	0.333383
C153	C	0.120516	-0.476127	0.666717
C154	C	-0.495734	-1.143684	0.000058
C155	C	-0.162401	-0.810350	0.333391
C156	C	0.170932	-0.477017	0.666725
C157	C	-0.472725	-0.837311	0.000024
C158	C	-0.139392	-0.503978	0.333357
C159	C	0.193942	-0.170644	0.666691
C160	C	-0.523141	-0.836427	0.000017
C161	C	-0.189808	-0.503094	0.333350
C162	C	0.143525	-0.169760	0.666684
C163	C	-0.554102	-0.912575	0.000023
C164	C	-0.220769	-0.579242	0.333357
C165	C	0.112564	-0.245908	0.666690
C166	C	0.154554	-0.984099	0.000049
C167	C	0.487888	-0.650766	0.333383
C168	C	0.821221	-0.317432	0.666716
C169	C	0.208213	-0.985059	0.000036
C170	C	0.541547	-0.651726	0.333369
C171	C	0.874880	-0.318393	0.666703
C172	C	0.062658	-1.144993	0.000084
C173	C	0.395992	-0.811660	0.333417
C174	C	0.729325	-0.478326	0.666750
C175	C	0.063615	-1.238227	0.000086
C176	C	0.396948	-0.904893	0.333419
C177	C	0.730282	-0.571560	0.666753
C178	C	0.020466	-0.530305	0.000078
C179	C	0.353800	-0.196971	0.333411
C180	C	0.687133	0.136362	0.666745
C181	C	0.042882	-0.469001	-0.072931
C182	C	0.376215	-0.135668	0.260402
C183	C	0.709549	0.197665	0.593736
C184	C	0.067019	-0.573827	0.000060
C185	C	0.400352	-0.240493	0.333393
C186	C	0.733686	0.092840	0.666726
C187	C	0.042904	-0.469003	0.073049
C188	C	0.376237	-0.135670	0.406382
C189	C	0.709570	0.197663	0.739715
C190	C	0.065344	-0.408936	0.000074
C191	C	0.398677	-0.075602	0.333407
C192	C	0.732011	0.257731	0.666741
C193	C	0.089448	-0.513752	-0.073010
C194	C	0.422781	-0.180418	0.260324
C195	C	0.756114	0.152915	0.593657
C196	C	0.089463	-0.513760	0.073036
C197	C	0.422796	-0.180426	0.406369
C198	C	0.756129	0.152907	0.739702
C199	C	0.111912	-0.452474	0.000009
C200	C	0.445246	-0.119140	0.333342
C201	C	0.778579	0.214193	0.666675
C202	C	0.067983	-0.668816	0.000051
C203	C	0.401316	-0.335483	0.333384
C204	C	0.734649	-0.002150	0.666717
C205	C	0.064384	-0.313947	0.000077
C206	C	0.397717	0.019386	0.333410
C207	C	0.731051	0.352719	0.666743
N208	N	0.066162	-0.991411	-0.230607
N209	N	0.399495	-0.658078	0.102727
N210	N	0.732829	-0.324744	0.436060
C211	C	0.100495	-0.931267	0.470419
C212	C	0.433829	-0.597933	0.803752
C213	C	0.767162	-0.264600	1.137086
C214	C	0.109879	-1.007044	0.529758
C215	C	0.443213	-0.673711	0.863091
C216	C	0.776546	-0.340378	1.196425
C217	C	0.066186	-0.991374	0.412356
C218	C	0.399520	-0.658041	0.745690
C219	C	0.732853	-0.324707	1.079023
C220	C	0.056813	-0.915617	0.529759
C221	C	0.390146	-0.582283	0.863092
C222	C	0.723480	-0.248950	1.196426
C223	C	0.066176	-0.991388	0.587780
C224	C	0.399509	-0.658055	0.921114
C225	C	0.732842	-0.324721	1.254447
C226	C	0.075592	-1.067190	0.470389
C227	C	0.408925	-0.733856	0.803722
C228	C	0.742259	-0.400523	1.137055
C229	C	0.022507	-0.975712	0.470385
C230	C	0.355840	-0.642379	0.803718
C231	C	0.689173	-0.309045	1.137051
C232	C	0.031872	-1.051545	0.529697
C233	C	0.365205	-0.718212	0.863030
C234	C	0.698539	-0.384878	1.196363
C235	C	0.066194	-0.991365	0.311299
C236	C	0.399527	-0.658031	0.644632
C237	C	0.732860	-0.324698	0.977966
C238	C	0.066168	-0.991406	0.688836
C239	C	0.399501	-0.658073	1.022169
C240	C	0.732835	-0.324739	1.355502
H241	H	-0.090973	-1.136586	0.000120
H242	H	0.242360	-0.803253	0.333453
H243	H	0.575693	-0.469919	0.666787
H244	H	0.083560	-1.131275	0.444419
H245	H	0.416893	-0.797942	0.777753
H246	H	0.750226	-0.464609	1.111086
Cl247	Cl	-0.396332	-0.742219	-0.000003
Cl248	Cl	-0.062998	-0.408886	0.333330
Cl249	Cl	0.270335	-0.075553	0.666663
H250	H	-0.014416	-0.962429	0.444285
H251	H	0.318918	-0.629095	0.777618
H252	H	0.652251	-0.295762	1.110951
H253	H	0.002852	-1.102437	0.555561
H254	H	0.336185	-0.769103	0.888894
H255	H	0.669518	-0.435770	1.222227
Cl256	Cl	-0.811261	-1.157833	0.000047
Cl257	Cl	-0.477928	-0.824500	0.333381
Cl258	Cl	-0.144595	-0.491166	0.666714
Cl259	Cl	-0.785276	-0.812052	0.000027
Cl260	Cl	-0.451943	-0.478719	0.333360
Cl261	Cl	-0.118610	-0.145385	0.666694
H262	H	-0.161567	-0.857033	0.000091
H263	H	0.171766	-0.523699	0.333425
H264	H	0.505100	-0.190366	0.666758
H265	H	-0.447521	-0.775301	0.000017
H266	H	-0.114188	-0.441967	0.333350
H267	H	0.219146	-0.108634	0.666683
H268	H	0.129533	-0.880487	0.444392
H269	H	0.462866	-0.547153	0.777725
H270	H	0.796200	-0.213820	1.111059
Cl271	Cl	-0.056379	-0.824929	0.000076
Cl272	Cl	0.276954	-0.491595	0.333410
Cl273	Cl	0.610288	-0.158262	0.666743
Cl274	Cl	0.119817	-0.544222	-0.168412
Cl275	Cl	0.453151	-0.210888	0.164921
Cl276	Cl	0.786484	0.122445	0.498254
Cl277	Cl	0.044579	-0.816695	0.570025
Cl278	Cl	0.377912	-0.483362	0.903359
Cl279	Cl	0.711246	-0.150029	1.236692
Cl280	Cl	-0.671492	-0.814057	0.000013
Cl281	Cl	-0.338159	-0.480724	0.333347
Cl282	Cl	-0.004826	-0.147391	0.666680
Cl283	Cl	-0.471285	-1.240545	0.000070
Cl284	Cl	-0.137952	-0.907211	0.333403
Cl285	Cl	0.195381	-0.573878	0.666737
H286	H	-0.018169	-0.564143	-0.000003
H287	H	0.315165	-0.230809	0.333331
H288	H	0.648498	0.102524	0.666664
Cl289	Cl	-0.282547	-0.744238	0.000003
Cl290	Cl	0.050786	-0.410904	0.333336
Cl291	Cl	0.384119	-0.077571	0.666670
Cl292	Cl	-0.547591	-0.739561	0.000002
Cl293	Cl	-0.214258	-0.406228	0.333335
Cl294	Cl	0.119075	-0.072895	0.666668
Cl295	Cl	-0.196143	-1.168709	0.000095
Cl296	Cl	0.137190	-0.835375	0.333429
Cl297	Cl	0.470523	-0.502042	0.666762
Cl298	Cl	-0.320038	-1.243215	0.000076
Cl299	Cl	0.013295	-0.909882	0.333410
Cl300	Cl	0.346629	-0.576548	0.666743
Cl301	Cl	0.166902	-1.027518	0.570025
Cl302	Cl	0.500235	-0.694185	0.903358
Cl303	Cl	0.833569	-0.360851	1.236691
H304	H	-0.420107	-1.207476	0.000076
H305	H	-0.086773	-0.874143	0.333410
H306	H	0.246560	-0.540810	0.666743
H307	H	0.150587	-0.418809	-0.000042
H308	H	0.483920	-0.085476	0.333291
H309	H	0.817254	0.247857	0.666625
H310	H	0.023188	-0.449157	-0.134645
H311	H	0.356521	-0.115824	0.198688
H312	H	0.689854	0.217509	0.532021
Cl313	Cl	-0.697459	-1.159854	0.000068
Cl314	Cl	-0.364126	-0.826521	0.333402
Cl315	Cl	-0.030792	-0.493188	0.666735
H316	H	0.023209	-0.449166	0.134770
H317	H	0.356543	-0.115833	0.468103
H318	H	0.689876	0.217501	0.801437
Cl319	Cl	-0.585082	-1.238521	0.000062
Cl320	Cl	-0.251749	-0.905188	0.333396
Cl321	Cl	0.081585	-0.571854	0.666729
Cl322	Cl	0.119844	-0.544435	0.168323
Cl323	Cl	0.453177	-0.211102	0.501656
Cl324	Cl	0.786511	0.122232	0.834989
