data_functionalizedCrystal
_audit_creation_method	'MofGen! by Chris Wilmer'
_symmetry_space_group_name_H-M	'P1'
_symmetry_Int_Tables_number	1
_symmetry_cell_setting	triclinic
loop_
_symmetry_equiv_pos_as_xyz
  x,y,z
_cell_length_a	11.792241
_cell_length_b	10.540539
_cell_length_c	9.016244
_cell_angle_alpha	90.000067
_cell_angle_beta	90.003149
_cell_angle_gamma	84.359454
loop_
_atom_site_label
_atom_site_type_symbol
_atom_site_fract_x
_atom_site_fract_y
_atom_site_fract_z
O1	O	1.507367	0.173986	0.123189
O2	O	1.177073	0.191918	0.123223
O3	O	1.349755	-0.001779	0.123203
O4	O	1.334684	0.367683	0.123208
O5	O	1.349730	-0.001775	-0.123478
O6	O	1.177047	0.191922	-0.123458
O7	O	1.507341	0.173990	-0.123492
Cu8	Cu	1.342192	0.182956	-0.145999
Cu9	Cu	1.342222	0.182951	0.145730
O10	O	1.334659	0.367687	-0.123472
C11	C	1.134766	0.190793	-0.000113
C12	C	1.008743	0.187422	-0.000100
C13	C	1.348612	-0.049076	-0.000135
C14	C	1.345231	-0.190014	-0.000126
C15	C	0.778015	0.181223	-0.000143
C16	C	0.906409	0.184667	-0.000120
C17	C	1.215660	-0.373018	0.000441
C18	C	1.219087	-0.226411	-0.000115
C19	C	1.405922	-0.251866	-0.140999
C20	C	1.401617	-0.398397	-0.141118
C21	C	1.404212	-0.398928	0.139404
C22	C	1.405374	-0.251950	0.141267
C23	C	1.549648	0.175114	-0.000153
C24	C	1.675671	0.178486	-0.000156
C25	C	1.335802	0.414984	-0.000132
C26	C	1.339183	0.555921	-0.000130
N27	N	1.342179	0.182959	-0.351185
C28	C	1.249522	0.286229	-0.586207
C29	C	1.249727	0.286614	-0.414316
C30	C	1.460848	0.212706	-0.413535
C31	C	1.460342	0.213437	-0.585480
C32	C	1.317346	0.049602	-0.585728
C33	C	1.314624	0.050475	-0.413773
N34	N	1.342244	0.182938	0.350916
H35	H	1.171331	-0.183654	0.100869
H36	H	1.265731	0.385546	-0.373170
C37	C	1.536099	-0.538855	-0.277834
C38	C	1.524080	-0.463560	-0.149792
H39	H	1.611699	-0.579083	-0.283191
H40	H	1.520856	-0.486626	-0.362755
H41	H	1.483902	-0.601937	-0.274379
H42	H	1.576271	-0.400472	-0.153253
H43	H	1.539335	-0.515793	-0.064850
H44	H	1.232641	0.021198	-0.629167
H45	H	1.227325	0.027919	-0.373022
C46	C	1.049459	0.355900	-0.584280
C47	C	1.130110	0.262526	-0.642064
H48	H	0.975737	0.341255	-0.618761
H49	H	1.066973	0.437700	-0.615860
H50	H	1.050960	0.352052	-0.479027
H51	H	1.128616	0.266380	-0.747318
H52	H	1.112591	0.180705	-0.610493
C53	C	1.038884	-0.346658	0.134257
C54	C	1.148395	-0.411400	0.136818
H55	H	0.997363	-0.370353	0.218461
H56	H	1.000650	-0.368350	0.046478
H57	H	1.044373	-0.257360	0.136121
H58	H	1.142906	-0.500699	0.134943
H59	H	1.186639	-0.389717	0.224620
H60	H	1.483109	0.308871	-0.370459
H61	H	1.377682	-0.030051	-0.370804
H62	H	1.265318	0.384601	-0.629401
H63	H	1.531531	0.139513	-0.372639
H64	H	1.166022	-0.403062	-0.100006
C65	C	1.507620	0.422015	-0.517156
C66	C	1.489725	0.344745	-0.639613
H67	H	1.525751	0.503083	-0.550573
H68	H	1.568813	0.383137	-0.459347
H69	H	1.440420	0.432244	-0.458513
H70	H	1.556928	0.334508	-0.698250
H71	H	1.428526	0.383632	-0.697446
H72	H	1.384951	-0.027273	-0.626387
H73	H	1.170976	-0.184497	-0.101257
C74	C	1.614060	0.056888	-0.520389
C75	C	1.556340	0.115785	-0.641639
H76	H	1.673325	-0.003394	-0.555058
H77	H	1.562238	0.014626	-0.462043
H78	H	1.645778	0.119491	-0.461849
H79	H	1.524614	0.053183	-0.700173
H80	H	1.608170	0.158048	-0.700009
C81	C	1.308935	-0.327019	-0.367496
C82	C	1.341024	-0.436274	-0.283250
H83	H	1.271519	-0.350399	-0.455238
H84	H	1.374808	-0.286758	-0.393234
H85	H	1.258699	-0.269811	-0.311155
H86	H	1.391266	-0.493477	-0.339588
H87	H	1.275141	-0.476553	-0.257515
C88	C	1.555114	-0.147593	-0.025643
C89	C	1.530975	-0.222093	-0.148102
H90	H	1.632315	-0.129206	-0.030034
H91	H	1.542885	-0.192860	0.063098
H92	H	1.506524	-0.070178	-0.026957
H93	H	1.579560	-0.299512	-0.146782
H94	H	1.543217	-0.176827	-0.236865
H95	H	1.363742	-0.209128	-0.245823
H96	H	1.363396	-0.430350	0.246177
H97	H	1.497343	-0.228029	0.149764
C98	C	1.423449	-0.137036	0.368607
C99	C	1.345518	-0.196490	0.281962
H100	H	1.386494	-0.102796	0.455467
H101	H	1.451851	-0.070294	0.313291
H102	H	1.484844	-0.197705	0.395845
H103	H	1.284126	-0.135818	0.254715
H104	H	1.317099	-0.263239	0.337289
H105	H	1.495325	-0.446451	0.140342
H106	H	1.161553	0.268770	-0.372163
