data_functionalizedCrystal
_audit_creation_method	'MofGen! by Chris Wilmer'
_symmetry_space_group_name_H-M	'P1'
_symmetry_Int_Tables_number	1
_symmetry_cell_setting	triclinic
loop_
_symmetry_equiv_pos_as_xyz
  x,y,z
_cell_length_a	12.759401
_cell_length_b	16.959447
_cell_length_c	12.759399
_cell_angle_alpha	90.028084
_cell_angle_beta	89.984458
_cell_angle_gamma	89.984999
loop_
_atom_site_label
_atom_site_type_symbol
_atom_site_fract_x
_atom_site_fract_y
_atom_site_fract_z
Zn1	Zn	1.606215	-0.446880	0.418233
Zn2	Zn	1.606119	-0.314707	0.593940
Zn3	Zn	1.430528	-0.314722	0.418277
Zn4	Zn	1.430504	-0.446850	0.593872
O5	O	1.518341	-0.380790	0.506080
O6	O	1.753223	-0.429354	0.441551
O7	O	1.582796	-0.204098	0.570684
O8	O	1.453883	-0.332272	0.271250
O9	O	1.753153	-0.332247	0.570642
O10	O	1.582960	-0.429368	0.271218
O11	O	1.453790	-0.204110	0.441626
O12	O	1.283504	-0.332243	0.441560
O13	O	1.453843	-0.557465	0.570526
O14	O	1.283486	-0.429317	0.570568
O15	O	1.582937	-0.557487	0.441485
O16	O	1.582773	-0.332217	0.740952
O17	O	1.453750	-0.429302	0.740902
C18	C	1.245374	-0.380779	0.506062
C19	C	1.128597	-0.380793	0.506080
C20	C	1.073773	-0.431435	0.438983
C21	C	0.964049	-0.431440	0.438994
C22	C	0.963984	-0.330160	0.573206
C23	C	1.073706	-0.330151	0.573190
C24	C	1.518398	-0.586958	0.505993
C25	C	1.518422	-0.674815	0.505956
C26	C	1.451347	-1.046303	0.438650
C27	C	1.585682	-1.046279	0.573040
C28	C	1.585663	-0.963733	0.573065
C29	C	1.518485	-0.922468	0.505882
C30	C	1.451324	-0.963749	0.438675
C31	C	1.652815	-0.922446	0.640278
C32	C	1.652799	-0.839895	0.640306
C33	C	1.585625	-0.798628	0.573117
C34	C	1.518462	-0.839915	0.505906
C35	C	1.451284	-0.798650	0.438724
C36	C	1.384126	-0.839935	0.371507
C37	C	1.384150	-0.922483	0.371486
C38	C	1.585600	-0.716080	0.573138
C39	C	1.451261	-0.716096	0.438748
C40	C	1.792375	-0.380802	0.506099
C41	C	1.909151	-0.380807	0.506107
C42	C	1.518277	-0.380772	0.779048
C43	C	1.518346	-0.380791	0.895824
C44	C	1.518346	-0.175424	0.506091
C45	C	1.518525	-0.087568	0.505833
C46	C	1.518435	-0.380825	0.232047
C47	C	1.518474	-0.380841	0.115270
C48	C	1.585605	-0.330296	0.950677
C49	C	1.585672	-0.330323	1.060401
C50	C	1.451212	-0.431341	1.060409
C51	C	1.451151	-0.431318	0.950687
H52	H	0.919278	-0.288929	0.627846
H53	H	1.707482	-0.806287	0.695039
H54	H	1.396503	-0.472477	1.105092
C55	C	1.134017	-0.274445	0.647003
H56	H	1.085613	-0.244294	0.686984
H57	H	1.176809	-0.240056	0.606750
H58	H	1.176827	-0.304625	0.692825
C59	C	1.377477	-1.091707	0.364715
H60	H	1.337471	-1.055306	0.324705
H61	H	1.331695	-1.123903	0.404886
H62	H	1.417699	-1.123916	0.318924
C63	C	1.377357	-0.670711	0.364852
H64	H	1.337361	-0.707123	0.324828
H65	H	1.417545	-0.638514	0.319089
H66	H	1.331551	-0.638506	0.405061
C67	C	1.310221	-0.794542	0.297619
H68	H	1.270220	-0.830947	0.257590
H69	H	1.350410	-0.762341	0.251860
H70	H	1.264421	-0.762338	0.337836
H71	H	1.640368	-1.079882	0.627745
C72	C	1.310277	-0.967893	0.297561
H73	H	1.270270	-0.931497	0.257545
H74	H	1.264497	-1.000084	0.337741
H75	H	1.350496	-1.000108	0.251775
H76	H	0.919415	-0.472676	0.384356
H77	H	1.707497	-0.956049	0.694987
C78	C	1.659459	-0.670670	0.647071
H79	H	1.699471	-0.707069	0.687079
H80	H	1.619241	-0.638455	0.692849
H81	H	1.705251	-0.638480	0.606893
H82	H	1.640320	-0.289155	0.906010
C83	C	1.134150	-0.487132	0.365158
H84	H	1.085780	-0.517287	0.325193
H85	H	1.176966	-0.521517	0.405394
H86	H	1.176942	-0.456946	0.319321
C87	C	1.659652	-0.274775	1.120735
H88	H	1.699654	-0.244678	1.072343
H89	H	1.705434	-0.305046	1.163469
H90	H	1.619505	-0.240317	1.163606
H91	H	1.396380	-0.472440	0.906023
