data_functionalizedCrystal
_audit_creation_method	'MofGen! by Chris Wilmer'
_symmetry_space_group_name_H-M	'P1'
_symmetry_Int_Tables_number	1
_symmetry_cell_setting	triclinic
loop_
_symmetry_equiv_pos_as_xyz
  x,y,z
_cell_length_a	10.654550
_cell_length_b	19.188930
_cell_length_c	9.130313
_cell_angle_alpha	89.993647
_cell_angle_beta	89.996220
_cell_angle_gamma	83.814841
loop_
_atom_site_label
_atom_site_type_symbol
_atom_site_fract_x
_atom_site_fract_y
_atom_site_fract_z
O1	O	1.665759	0.098059	-0.121938
O2	O	1.300083	0.107401	-0.121916
O3	O	1.493474	0.001143	-0.121899
O4	O	1.472368	0.204317	-0.121955
O5	O	1.493471	0.001146	0.121700
O6	O	1.300081	0.107404	0.121682
O7	O	1.665757	0.098062	0.121661
Cu8	Cu	1.482918	0.102733	0.143914
Cu9	Cu	1.482921	0.102730	-0.144170
O10	O	1.472366	0.204320	0.121644
C11	C	1.253298	0.106717	-0.000114
C12	C	1.113898	0.104664	-0.000104
C13	C	1.033089	0.167227	-0.000143
C14	C	0.902109	0.165295	-0.000168
C15	C	0.932761	0.038231	-0.000121
C16	C	1.063738	0.040164	-0.000086
C17	C	1.083249	0.231728	-0.000161
C18	C	1.002438	0.294296	-0.000201
C19	C	0.871458	0.292363	-0.000226
C20	C	0.821289	0.227863	-0.000211
C21	C	1.492789	-0.024871	-0.000096
C22	C	1.490737	-0.102389	-0.000083
C23	C	1.604213	-0.146570	-0.000083
C24	C	1.602285	-0.219407	-0.000106
C25	C	1.486876	-0.248058	-0.000100
C26	C	1.373386	-0.203867	-0.000109
C27	C	1.375316	-0.131032	-0.000100
N28	N	1.398658	-0.356639	0.082806
N29	N	1.396832	-0.425830	0.082801
C30	C	1.481052	-0.467505	-0.000129
N31	N	1.567186	-0.437377	-0.083037
N32	N	1.569016	-0.368180	-0.083025
C33	C	1.484770	-0.327034	-0.000110
C34	C	1.592445	-0.590665	-0.000157
C35	C	1.590513	-0.663502	-0.000189
C36	C	1.361610	-0.647960	-0.000177
C37	C	1.363545	-0.575125	-0.000159
C38	C	1.478966	-0.546481	-0.000142
C39	C	1.712541	0.098746	-0.000145
C40	C	1.851941	0.100798	-0.000164
C41	C	1.473051	0.230334	-0.000163
C42	C	1.475102	0.307852	-0.000186
N43	N	1.482926	0.102735	0.346537
N44	N	1.482924	0.102722	-0.346792
C45	C	1.568581	0.055700	0.423196
C46	C	1.568577	0.055692	0.576533
C47	C	1.397260	0.149759	0.576537
C48	C	1.397258	0.149764	0.423203
C49	C	1.654248	0.008672	0.346530
C50	C	1.739911	-0.038367	0.423189
C51	C	1.739908	-0.038375	0.576526
C52	C	1.654241	0.008655	0.653203
H53	H	0.805665	0.343309	-0.000244
O54	O	1.823167	-0.084118	0.348939
C55	C	1.898786	-0.125623	0.449488
H56	H	1.847304	-0.126685	0.558791
H57	H	1.918260	-0.181280	0.405185
H58	H	1.991940	-0.102470	0.465793
H59	H	1.694693	-0.255386	-0.000112
H60	H	1.267641	-0.671287	-0.000180
H61	H	1.654238	0.008639	0.778061
O62	O	1.822938	-0.084137	0.651061
C63	C	1.755938	-0.127555	0.739788
H64	H	1.656915	-0.129248	0.693586
H65	H	1.807488	-0.182783	0.741524
H66	H	1.749232	-0.105744	0.855997
H67	H	0.891902	-0.014283	-0.000133
H68	H	1.327509	0.188063	0.360787
O69	O	1.314006	0.195348	0.651181
C70	C	1.236730	0.157553	0.739861
H71	H	1.287050	0.103176	0.762829
H72	H	1.216709	0.186588	0.847687
H73	H	1.143946	0.152332	0.680782
H74	H	1.129536	-0.010780	-0.000058
O75	O	1.261246	-0.231662	-0.000361
C76	C	1.192085	-0.209116	-0.126503
H77	H	1.259583	-0.193634	-0.214683
H78	H	1.138905	-0.253489	-0.168854
H79	H	1.121842	-0.161997	-0.097977
H80	H	1.189898	0.233309	-0.000147
O81	O	1.704588	-0.562867	-0.000423
C82	C	1.773747	-0.585391	-0.126581
H83	H	1.706248	-0.600861	-0.214754
H84	H	1.826923	-0.541011	-0.168929
H85	H	1.843994	-0.632514	-0.098076
H86	H	1.654261	0.008675	0.221675
H87	H	1.043295	0.346810	-0.000201
H88	H	0.714635	0.226294	-0.000208
O89	O	1.716439	-0.118863	-0.000140
C90	C	1.816183	-0.173484	-0.000107
H91	H	1.781255	-0.223121	-0.046231
H92	H	1.896790	-0.157870	-0.070826
H93	H	1.851159	-0.183628	0.116760
H94	H	1.282908	-0.095058	-0.000100
O95	O	1.700717	-0.706451	-0.000455
C96	C	1.706447	-0.749044	-0.126610
H97	H	1.642087	-0.722677	-0.214786
H98	H	1.807650	-0.756735	-0.168956
H99	H	1.674238	-0.802161	-0.098104
H100	H	1.271141	-0.539151	-0.000151
