data_functionalizedCrystal
_audit_creation_method	'MofGen! by Chris Wilmer'
_symmetry_space_group_name_H-M	'P1'
_symmetry_Int_Tables_number	1
_symmetry_cell_setting	triclinic
loop_
_symmetry_equiv_pos_as_xyz
  x,y,z
_cell_length_a	13.032831
_cell_length_b	12.759400
_cell_length_c	12.759393
_cell_angle_alpha	89.969761
_cell_angle_beta	82.806260
_cell_angle_gamma	82.819639
loop_
_atom_site_label
_atom_site_type_symbol
_atom_site_fract_x
_atom_site_fract_y
_atom_site_fract_z
Zn1	Zn	1.597752	-0.622510	-0.797714
Zn2	Zn	1.597647	-0.798211	-0.622021
Zn3	Zn	1.422984	-0.600214	-0.599769
Zn4	Zn	1.422973	-0.775800	-0.775389
O5	O	1.510339	-0.699184	-0.698723
O6	O	1.743981	-0.664527	-0.793064
O7	O	1.574437	-0.771995	-0.472043
O8	O	1.446216	-0.456157	-0.626057
O9	O	1.743903	-0.793614	-0.663983
O10	O	1.574618	-0.472538	-0.771487
O11	O	1.446113	-0.626527	-0.455694
O12	O	1.276740	-0.604796	-0.604409
O13	O	1.446198	-0.755417	-0.925377
O14	O	1.276732	-0.733798	-0.733437
O15	O	1.574607	-0.642796	-0.941779
O16	O	1.574427	-0.942253	-0.642335
O17	O	1.446095	-0.925788	-0.755014
C18	C	1.238817	-0.664446	-0.664087
C19	C	1.122659	-0.649611	-0.649294
C20	C	1.510277	-0.972143	-0.698694
C21	C	1.510346	-1.088929	-0.698728
C22	C	1.070896	-0.706927	-0.706444
C23	C	0.950840	-0.691595	-0.691156
C24	C	1.577242	-1.152339	-0.640140
C25	C	1.577307	-1.262071	-0.640180
C26	C	1.443569	-1.244972	-0.757399
C27	C	1.443511	-1.135243	-0.757364
C28	C	1.644078	-1.106025	-0.581504
C29	C	1.710979	-1.169436	-0.522910
C30	C	1.711043	-1.279168	-0.522950
C31	C	1.644206	-1.325489	-0.581585
C32	C	1.782921	-0.734058	-0.733496
C33	C	1.899079	-0.748919	-0.748314
C34	C	1.510413	-0.699094	-0.972766
C35	C	1.510445	-0.699055	-1.089547
C36	C	1.510430	-0.425162	-0.698780
C37	C	1.510468	-0.308390	-0.698804
C38	C	1.577336	-0.640356	-1.262680
C39	C	1.577314	-0.640400	-1.152953
C40	C	1.443602	-0.757680	-1.135874
C41	C	1.443630	-0.757642	-1.245600
C42	C	1.644202	-0.581689	-1.326080
C43	C	1.711046	-0.523066	-1.279760
C44	C	1.711024	-0.523109	-1.170033
C45	C	1.644157	-0.581775	-1.106626
C46	C	1.510325	-0.699206	-0.425754
C47	C	1.510496	-0.698974	-0.309000
H48	H	1.115460	-0.767344	-0.766693
H49	H	1.078095	-0.589186	-0.589052
H50	H	1.644224	-0.581644	-1.415425
H51	H	1.644030	-1.016676	-0.581461
H52	H	1.389153	-1.282696	-0.805136
H53	H	1.765401	-1.131716	-0.475178
C54	C	1.770446	-0.470915	-1.455544
C55	C	1.784543	-0.458581	-1.349453
H56	H	1.815818	-0.431098	-1.498565
H57	H	1.785727	-0.543443	-1.475465
H58	H	1.700234	-0.446550	-1.464554
H59	H	1.854754	-0.482954	-1.340441
H60	H	1.769270	-0.386038	-1.329526
C61	C	1.743702	-1.495284	-0.621187
C62	C	1.644280	-1.446110	-0.581634
H63	H	1.743745	-1.569748	-0.621208
H64	H	1.761712	-1.472697	-0.691284
H65	H	1.793075	-1.476769	-0.577879
H66	H	1.594908	-1.464620	-0.624947
H67	H	1.626259	-1.468707	-0.511526
C68	C	1.843187	-0.407173	-1.197940
C69	C	1.784498	-0.458674	-1.119117
H70	H	1.888541	-0.367385	-1.166505
H71	H	1.883158	-0.458042	-1.245828
H72	H	1.797663	-0.361151	-1.234934
H73	H	1.830022	-0.504702	-1.082128
H74	H	1.744524	-0.407799	-1.071211
C75	C	1.716925	-0.517988	-0.958741
C76	C	1.644133	-0.581825	-0.986011
H77	H	1.716902	-0.518013	-0.884279
H78	H	1.784354	-0.544778	-0.992162
H79	H	1.698873	-0.447874	-0.981273
H80	H	1.662189	-0.651942	-0.963486
H81	H	1.576690	-0.555039	-0.952577
H82	H	1.765524	-1.330796	-0.475249
H83	H	1.389039	-1.083613	-0.805073
C84	C	0.932966	-0.804605	-0.930419
C85	C	0.959221	-0.830492	-0.829654
H86	H	0.970100	-0.854961	-0.980633
H87	H	0.860185	-0.805007	-0.930805
H88	H	0.950823	-0.736295	-0.948160
H89	H	0.941356	-0.898799	-0.811909
H90	H	1.032018	-0.830100	-0.829265
C91	C	1.429017	-0.897171	-1.010585
C92	C	1.370104	-0.822154	-1.066170
H93	H	1.383639	-0.936967	-0.967547
H94	H	1.474533	-0.943167	-1.059190
H95	H	1.468820	-0.862248	-0.967304
H96	H	1.330306	-0.857076	-1.109457
H97	H	1.324569	-0.776152	-1.017559
C98	C	0.916967	-0.635911	-0.509052
C99	C	0.890705	-0.610021	-0.609813
H100	H	0.879848	-0.585547	-0.458836
H101	H	0.899106	-0.704209	-0.491307
H102	H	0.989760	-0.635517	-0.508675
H103	H	0.817913	-0.610423	-0.610192
H104	H	0.908559	-0.541706	-0.627562
C105	C	1.311450	-0.873562	-1.217705
C106	C	1.370155	-0.822070	-1.296523
H107	H	1.266088	-0.913335	-1.249145
H108	H	1.356956	-0.919587	-1.180711
H109	H	1.271479	-0.822680	-1.169815
H110	H	1.410133	-0.872953	-1.344409
H111	H	1.324643	-0.776042	-1.333534
