data_functionalizedCrystal
_audit_creation_method	'MofGen! by Chris Wilmer'
_symmetry_space_group_name_H-M	'P1'
_symmetry_Int_Tables_number	1
_symmetry_cell_setting	triclinic
loop_
_symmetry_equiv_pos_as_xyz
  x,y,z
_cell_length_a	12.759401
_cell_length_b	12.759400
_cell_length_c	12.759393
_cell_angle_alpha	90.029373
_cell_angle_beta	90.019676
_cell_angle_gamma	90.013592
loop_
_atom_site_label
_atom_site_type_symbol
_atom_site_fract_x
_atom_site_fract_y
_atom_site_fract_z
Zn1	Zn	1.606278	-0.418204	0.593993
Zn2	Zn	1.606173	-0.593919	0.418316
Zn3	Zn	1.430576	-0.418256	0.418332
Zn4	Zn	1.430573	-0.593842	0.593958
O5	O	1.518400	-0.506055	0.506150
O6	O	1.753285	-0.441523	0.570697
O7	O	1.582838	-0.570671	0.271297
O8	O	1.453928	-0.271228	0.441655
O9	O	1.753208	-0.570620	0.441629
O10	O	1.583015	-0.271189	0.570712
O11	O	1.453827	-0.441612	0.271309
O12	O	1.283555	-0.441538	0.441621
O13	O	1.453923	-0.570489	0.740983
O14	O	1.283552	-0.570540	0.570652
O15	O	1.583012	-0.441448	0.741009
O16	O	1.582835	-0.740930	0.441594
O17	O	1.453822	-0.740874	0.570637
C18	C	1.245433	-0.506037	0.506135
C19	C	1.128656	-0.506055	0.506153
C20	C	1.073835	-0.438955	0.573463
C21	C	0.964110	-0.438966	0.573470
C22	C	0.964039	-0.573185	0.438855
C23	C	1.073761	-0.573168	0.438843
C24	C	1.518345	-0.779023	0.506133
C25	C	1.518417	-0.895799	0.506161
C26	C	1.585599	-0.950561	0.573416
C27	C	1.585648	-1.060285	0.573442
C28	C	1.451330	-1.060475	0.438948
C29	C	1.451277	-0.950753	0.438929
C30	C	1.663150	-0.950453	0.651062
C31	C	1.663199	-1.060177	0.651088
C32	C	1.792433	-0.506074	0.506165
C33	C	1.909210	-0.506082	0.506172
C34	C	1.518479	-0.505954	0.780183
C35	C	1.518512	-0.505911	0.896960
C36	C	1.518484	-0.232022	0.506189
C37	C	1.518520	-0.115245	0.506206
C38	C	1.518382	-0.506080	0.233182
C39	C	1.518552	-0.505827	0.116406
C40	C	1.585734	-0.438709	0.951837
C41	C	1.585752	-0.438664	1.061561
C42	C	1.451323	-0.573032	1.061521
C43	C	1.451301	-0.573071	0.951799
H44	H	1.396563	-0.906167	0.384174
O45	O	0.910664	-0.638494	0.373631
C46	C	0.847200	-0.706415	0.433338
H47	H	0.880305	-0.712998	0.516069
H48	H	0.764048	-0.673949	0.437024
C49	C	0.804821	-0.807488	0.280213
C50	C	0.845487	-0.815580	0.381823
H51	H	0.803759	-0.874825	0.248435
H52	H	0.847574	-0.761726	0.239986
H53	H	0.735531	-0.780429	0.283299
H54	H	0.914779	-0.842626	0.378735
H55	H	0.802745	-0.861349	0.422049
H56	H	1.640489	-0.383939	1.106237
O57	O	1.127069	-0.638204	0.373345
C58	C	1.190531	-0.578296	0.305604
H59	H	1.157465	-0.495548	0.299258
H60	H	1.273700	-0.574698	0.338089
C61	C	1.232783	-0.731124	0.204091
C62	C	1.192166	-0.629494	0.196290
H63	H	1.233797	-0.762707	0.136663
H64	H	1.190031	-0.771487	0.249732
H65	H	1.302087	-0.728112	0.231167
H66	H	1.122859	-0.632508	0.169228
H67	H	1.234906	-0.589133	0.150642
O68	O	1.386065	-1.113975	0.373785
C69	C	1.318189	-1.177425	0.433559
H70	H	1.355212	-1.193780	0.513212
H71	H	1.240307	-1.135183	0.445029
C72	C	1.253767	-1.261618	0.277928
C73	C	1.299244	-1.281712	0.375756
H74	H	1.242076	-1.325945	0.242272
H75	H	1.299493	-1.218868	0.237655
H76	H	1.188870	-1.226414	0.287500
H77	H	1.364145	-1.316904	0.366182
H78	H	1.253528	-1.324471	0.416026
O79	O	1.385966	-0.638457	0.898647
C80	C	1.326636	-0.697714	0.970575
H81	H	1.369681	-0.701333	1.048796
H82	H	1.246858	-0.659230	0.982238
C83	C	1.258581	-0.805100	0.831655
C84	C	1.311454	-0.809551	0.927724
H85	H	1.249211	-0.874084	0.805222
H86	H	1.298549	-0.765175	0.783194
H87	H	1.192105	-0.773024	0.841387
H88	H	1.377933	-0.841614	0.917989
H89	H	1.271496	-0.849484	0.976182
O90	O	1.628563	-1.100865	0.743284
C91	C	1.708104	-1.162912	0.788353
H92	H	1.764389	-1.190128	0.724539
H93	H	1.752783	-1.114718	0.848935
C94	C	1.589472	-1.225601	0.920329
C95	C	1.658598	-1.259036	0.841949
H96	H	1.558936	-1.284893	0.953394
H97	H	1.535884	-1.183796	0.889968
H98	H	1.626715	-1.185439	0.970803
H99	H	1.621352	-1.299186	0.791470
H100	H	1.712179	-1.300850	0.872303
H101	H	1.641305	-0.920636	0.732409
H102	H	1.740441	-0.916384	0.621974
H103	H	1.396604	-0.627714	1.106185
O104	O	1.127046	-0.373811	0.638985
C105	C	1.100297	-0.396918	0.743662
H106	H	1.020629	-0.437320	0.745777
H107	H	1.162060	-0.450966	0.778951
C108	C	1.193114	-0.244950	0.804878
C109	C	1.095260	-0.294564	0.807477
H110	H	1.190012	-0.181815	0.844245
H111	H	1.211139	-0.229384	0.734356
H112	H	1.244574	-0.290001	0.834284
H113	H	1.043806	-0.249518	0.778060
H114	H	1.077226	-0.310120	0.877996
O115	O	1.760374	-1.095539	0.625292
C116	C	1.833854	-1.058536	0.699116
H117	H	1.801880	-0.985136	0.738786
H118	H	1.848599	-1.121599	0.760640
C119	C	1.976661	-1.122230	0.594340
C120	C	1.937395	-1.032074	0.643057
H121	H	2.040532	-1.105911	0.559762
H122	H	1.927157	-1.147163	0.544605
H123	H	1.988940	-1.174774	0.645618
H124	H	1.925104	-0.979537	0.591777
H125	H	1.986900	-1.007131	0.692782
H126	H	1.640459	-0.384020	0.907190
H127	H	0.919480	-0.384325	0.628279
