data_functionalizedCrystal
_audit_creation_method	'MofGen! by Chris Wilmer'
_symmetry_space_group_name_H-M	'P1'
_symmetry_Int_Tables_number	1
_symmetry_cell_setting	triclinic
loop_
_symmetry_equiv_pos_as_xyz
  x,y,z
_cell_length_a	12.759401
_cell_length_b	19.805399
_cell_length_c	12.759399
_cell_angle_alpha	90.025060
_cell_angle_beta	89.984458
_cell_angle_gamma	89.987127
loop_
_atom_site_label
_atom_site_type_symbol
_atom_site_fract_x
_atom_site_fract_y
_atom_site_fract_z
Zn1	Zn	1.606193	-0.382666	0.418264
Zn2	Zn	1.606103	-0.269485	0.593962
Zn3	Zn	1.430512	-0.269498	0.418299
Zn4	Zn	1.430482	-0.382640	0.593903
O5	O	1.518323	-0.326072	0.506107
O6	O	1.753202	-0.367657	0.441581
O7	O	1.582786	-0.174770	0.570699
O8	O	1.453867	-0.284526	0.271273
O9	O	1.753136	-0.284504	0.570665
O10	O	1.582938	-0.367670	0.271248
O11	O	1.453780	-0.174780	0.441640
O12	O	1.283487	-0.284501	0.441583
O13	O	1.453815	-0.477360	0.570565
O14	O	1.283465	-0.367626	0.570599
O15	O	1.582909	-0.477379	0.441524
O16	O	1.582757	-0.284479	0.740975
O17	O	1.453729	-0.367613	0.740932
C18	C	1.245355	-0.326063	0.506089
C19	C	1.128579	-0.326075	0.506106
C20	C	1.518369	-0.502615	0.506034
C21	C	1.518388	-0.577847	0.506003
C22	C	1.073751	-0.369439	0.439014
C23	C	0.964027	-0.369444	0.439024
C24	C	0.963967	-0.282717	0.573230
C25	C	1.073689	-0.282710	0.573213
C26	C	1.451234	-0.613196	0.438796
C27	C	1.451249	-0.683884	0.438775
C28	C	1.518423	-0.719223	0.505958
C29	C	1.585581	-0.683869	0.573172
C30	C	1.585560	-0.613182	0.573197
C31	C	1.585664	-0.968943	0.573074
C32	C	1.585682	-1.039635	0.573042
C33	C	1.451352	-1.039645	0.438652
C34	C	1.451332	-0.968958	0.438677
C35	C	1.518485	-0.933610	0.505895
C36	C	1.518467	-0.856962	0.505918
C37	C	1.518447	-0.795870	0.505930
C38	C	1.792356	-0.326082	0.506126
C39	C	1.909133	-0.326086	0.506134
C40	C	1.518258	-0.326057	0.779074
C41	C	1.518327	-0.326073	0.895851
C42	C	1.518337	-0.150216	0.506104
C43	C	1.518521	-0.074985	0.505839
C44	C	1.518416	-0.326102	0.232074
C45	C	1.518456	-0.326115	0.115297
C46	C	1.585588	-0.282834	0.950700
C47	C	1.585656	-0.282857	1.060424
C48	C	1.451191	-0.369359	1.060440
C49	C	1.451130	-0.369339	0.950718
H50	H	1.118439	-0.404748	0.384368
H51	H	1.118331	-0.247393	0.627849
H52	H	0.919392	-0.404755	0.384389
H53	H	1.640306	-0.247605	0.906030
H54	H	1.396357	-0.404553	0.906056
H55	H	0.919263	-0.247412	0.627866
H56	H	1.640333	-0.940171	0.627819
Cl57	Cl	1.670023	-0.728295	0.657637
H58	H	1.396561	-0.712662	0.384052
Cl59	Cl	1.366786	-0.568777	0.354328
H60	H	1.640429	-0.247648	1.105078
Cl61	Cl	1.366716	-0.423746	1.129423
H62	H	1.396635	-0.940188	0.383966
H63	H	1.396670	-1.068433	0.383923
H64	H	1.640386	-1.068405	0.627754
H65	H	1.640252	-0.584402	0.627916
