data_functionalizedCrystal
_audit_creation_method	'MofGen! by Chris Wilmer'
_symmetry_space_group_name_H-M	'P1'
_symmetry_Int_Tables_number	1
_symmetry_cell_setting	triclinic
loop_
_symmetry_equiv_pos_as_xyz
  x,y,z
_cell_length_a	16.974800
_cell_length_b	15.944551
_cell_length_c	16.053802
_cell_angle_alpha	92.564789
_cell_angle_beta	91.074188
_cell_angle_gamma	83.444312
loop_
_atom_site_label
_atom_site_type_symbol
_atom_site_fract_x
_atom_site_fract_y
_atom_site_fract_z
O1	O	1.049083	0.107072	0.001480
O2	O	0.819622	0.119930	-0.014032
O3	O	0.940618	-0.008760	-0.005845
O4	O	0.928087	0.235762	-0.006707
O5	O	0.933958	-0.001705	0.132563
O6	O	0.812962	0.126985	0.124376
O7	O	1.042423	0.114126	0.139888
Zn8	Zn	0.926635	0.121676	0.154108
Zn9	Zn	0.935410	0.112381	-0.028251
O10	O	0.921427	0.242816	0.131701
C11	C	0.786929	0.122839	0.053187
C12	C	0.699436	0.120987	0.047273
C13	C	0.936768	-0.036527	0.063324
C14	C	0.935208	-0.129777	0.063219
C15	C	0.654706	0.123960	0.119942
C16	C	0.572499	0.122207	0.114388
C17	C	0.535023	0.117486	0.036162
C18	C	0.579759	0.114510	-0.036513
C19	C	0.661965	0.116258	-0.030957
C20	C	0.289552	0.111841	0.011457
C21	C	0.207339	0.110096	0.005906
C22	C	0.200085	0.117791	0.156807
C23	C	0.282293	0.119544	0.162356
C24	C	0.327023	0.116563	0.089681
N25	N	0.450993	0.115696	0.030483
N26	N	0.411051	0.118347	0.095362
C27	C	0.856481	-0.344805	0.057886
C28	C	0.889756	-0.402265	0.128601
C29	C	0.932387	-0.300509	0.063022
C30	C	0.896340	-0.409203	-0.007858
C31	C	0.929656	-0.465428	0.062828
C32	C	0.965680	-0.356738	0.133795
C33	C	0.972256	-0.363673	-0.002726
C34	C	1.005585	-0.421114	0.068010
C35	C	0.933958	-0.205503	0.063135
C36	C	0.928091	-0.560433	0.062721
C37	C	1.075116	0.111217	0.072667
C38	C	1.162609	0.113069	0.078576
C39	C	0.925277	0.270584	0.062530
C40	C	0.926837	0.363833	0.062630
N41	N	0.920652	0.128018	0.278563
N42	N	0.941399	0.106032	-0.152706
C43	C	0.972155	0.073280	0.325742
C44	C	0.967977	0.077725	0.412866
C45	C	0.912300	0.136912	0.452810
C46	C	0.860792	0.191653	0.405625
C47	C	0.864966	0.187203	0.318502
C48	C	0.894065	0.156323	0.712986
C49	C	0.889896	0.160770	0.800115
C50	C	0.997081	0.046841	0.807350
C51	C	1.001254	0.042400	0.720226
C52	C	0.949743	0.097138	0.673048
N53	N	0.908030	0.141458	0.541865
N54	N	0.954010	0.092587	0.583994
H55	H	0.536085	0.124614	0.173563
C56	C	0.151541	0.121193	0.235735
C57	C	0.160464	0.196145	0.281993
C58	C	0.115750	0.199309	0.354704
H59	H	0.169490	0.074182	0.268149
H60	H	0.097200	0.119522	0.221260
H61	H	0.214794	0.197808	0.296470
H62	H	0.142511	0.243169	0.249604
H63	H	0.061409	0.197638	0.340229
H64	H	0.133703	0.152295	0.387111
H65	H	0.121792	0.250167	0.386095
C66	C	1.053125	-0.012503	0.858534
C67	C	1.131586	0.000265	0.842572
C68	C	1.183234	-0.054387	0.889713
H69	H	1.045348	-0.069348	0.843726
H70	H	1.042721	-0.001379	0.916154
H71	H	1.141987	-0.010866	0.784964
H72	H	1.139388	0.057098	0.857383
H73	H	1.172830	-0.043263	0.947333
H74	H	1.175450	-0.111228	0.874901
H75	H	1.236475	-0.045726	0.878895
H76	H	0.176828	0.106254	-0.057797
H77	H	0.994978	-0.333734	0.193721
C78	C	1.089666	-0.465178	0.073551
C79	C	1.104994	-0.518727	0.002800
C80	C	1.182447	-0.559312	0.007867
H81	H	1.095348	-0.497438	0.122070
H82	H	1.126130	-0.424119	0.076449
H83	H	1.068540	-0.559780	-0.000089
H84	H	1.099329	-0.486487	-0.045728
H85	H	1.218912	-0.518253	0.010765
H86	H	1.188122	-0.591568	0.056388
H87	H	1.192860	-0.595644	-0.040139
H88	H	0.698384	0.113838	-0.090133
C89	C	0.843334	-0.425149	0.202742
C90	C	0.879036	-0.397319	0.276678
C91	C	0.836284	-0.418372	0.344988
H92	H	0.843072	-0.484700	0.202537
H93	H	0.790374	-0.398742	0.199138
H94	H	0.931982	-0.423728	0.280281
H95	H	0.879298	-0.337770	0.276911
H96	H	0.783324	-0.391965	0.341384
H97	H	0.836025	-0.477923	0.344775
H98	H	0.860498	-0.399485	0.395161
C99	C	0.800381	0.256041	0.448883
C100	C	0.814160	0.337536	0.428516
C101	C	0.758518	0.396874	0.468337
H102	H	0.805211	0.250974	0.507536
H103	H	0.748453	0.246086	0.431042
H104	H	0.866075	0.347489	0.446361
H105	H	0.809323	0.342631	0.369869
H106	H	0.706590	0.386918	0.450497
H107	H	0.763353	0.391799	0.526989
H108	H	0.767855	0.452174	0.454518
C109	C	0.809181	0.246672	0.267177
C110	C	0.853559	0.295641	0.219960
C111	C	0.802193	0.350424	0.172663
H112	H	0.775406	0.282638	0.303345
H113	H	0.778017	0.214645	0.230940
H114	H	0.884709	0.327666	0.256194
H115	H	0.887331	0.259698	0.183777
H116	H	0.771029	0.318396	0.136426
H117	H	0.768421	0.386383	0.208837
H118	H	0.832296	0.383650	0.140615
C119	C	0.338172	0.108444	-0.067414
C120	C	0.394433	0.037011	-0.068043
C121	C	0.439234	0.033850	-0.140693
H122	H	0.364457	0.157843	-0.068867
H123	H	0.304111	0.105340	-0.114820
H124	H	0.428490	0.040122	-0.020650
H125	H	0.368170	-0.012400	-0.066604
H126	H	0.405173	0.030747	-0.188099
H127	H	0.465514	0.083253	-0.142139
H128	H	0.477407	-0.014620	-0.141133
H129	H	1.017497	0.025087	0.293226
H130	H	0.793473	-0.311631	0.053695
H131	H	1.007110	-0.346414	-0.058255
H132	H	0.844555	0.208971	0.832633
H133	H	0.867001	-0.432290	-0.067727
C134	C	0.838103	0.215858	0.661920
C135	C	0.788468	0.268659	0.715553
C136	C	0.736911	0.323524	0.668538
H137	H	0.806846	0.183913	0.625722
H138	H	0.868059	0.249217	0.629852
H139	H	0.758515	0.235304	0.747607
H140	H	0.819703	0.300623	0.751751
H141	H	0.766867	0.356883	0.636470
H142	H	0.705660	0.291572	0.632342
H143	H	0.703233	0.359361	0.704921
H144	H	0.685213	0.127811	0.183642
H145	H	1.009915	0.033152	0.451279
C146	C	1.061380	-0.022294	0.676954
C147	C	1.021493	-0.076321	0.624348
C148	C	1.076767	-0.136091	0.584560
H149	H	1.091277	-0.054312	0.717604
H150	H	1.096028	0.005832	0.644983
H151	H	0.986859	-0.104446	0.656317
H152	H	0.991600	-0.044328	0.583683
H153	H	1.111415	-0.107965	0.552589
H154	H	1.106662	-0.168103	0.625215
H155	H	1.049713	-0.172751	0.548856
C156	C	0.322954	0.124493	0.247314
C157	C	0.309652	0.054178	0.292078
C158	C	0.347103	0.058707	0.370342
H159	H	0.302013	0.174673	0.277096
H160	H	0.378331	0.125066	0.240255
H161	H	0.254286	0.053613	0.299140
H162	H	0.330595	0.003988	0.262323
H163	H	0.402480	0.059280	0.363283
H164	H	0.326159	0.108889	0.400115
H165	H	0.338089	0.010996	0.400721
H166	H	0.549240	0.110660	-0.100205
