data_functionalizedCrystal
_audit_creation_method	'MofGen! by Chris Wilmer'
_symmetry_space_group_name_H-M	'P1'
_symmetry_Int_Tables_number	1
_symmetry_cell_setting	triclinic
loop_
_symmetry_equiv_pos_as_xyz
  x,y,z
_cell_length_a	15.995350
_cell_length_b	27.732048
_cell_length_c	15.072220
_cell_angle_alpha	89.993868
_cell_angle_beta	89.991149
_cell_angle_gamma	83.067515
loop_
_atom_site_label
_atom_site_type_symbol
_atom_site_fract_x
_atom_site_fract_y
_atom_site_fract_z
O1	O	1.110190	0.062301	-0.073717
O2	O	1.610190	0.562301	0.426283
O3	O	0.866315	0.069995	-0.073737
O4	O	1.366315	0.569995	0.426263
O5	O	0.995827	-0.004216	-0.073709
O6	O	1.495827	0.495784	0.426291
O7	O	0.980678	0.136512	-0.073744
O8	O	1.480678	0.636512	0.426256
O9	O	0.995795	-0.004212	0.073856
O10	O	1.495795	0.495788	0.573856
O11	O	0.866283	0.069999	0.073828
O12	O	1.366283	0.569999	0.573828
O13	O	1.110158	0.062305	0.073848
O14	O	1.610158	0.562305	0.573848
Zn15	Zn	0.988215	0.066153	0.097267
Zn16	Zn	1.488215	0.566153	0.597267
Zn17	Zn	0.988257	0.066148	-0.097156
Zn18	Zn	1.488257	0.566148	0.402844
O19	O	0.980646	0.136516	0.073821
O20	O	1.480646	0.636516	0.573821
C21	C	0.835108	0.069679	0.000044
C22	C	1.335108	0.569679	0.500044
C23	C	0.742170	0.068726	0.000037
C24	C	1.242170	0.568726	0.500037
C25	C	0.404467	0.065301	0.000056
C26	C	0.904467	0.565301	0.500056
C27	C	0.452585	0.012449	0.000399
C28	C	0.952585	0.512449	0.500399
C29	C	0.549263	0.013403	0.000060
C30	C	1.049263	0.513403	0.500060
C31	C	0.572006	0.067000	0.000047
C32	C	1.072006	0.567000	0.500047
C33	C	0.530599	0.093065	-0.084223
C34	C	1.030599	0.593065	0.415777
C35	C	0.433981	0.091738	-0.084287
C36	C	0.933981	0.591738	0.415713
C37	C	0.433592	0.092834	0.083522
C38	C	0.933592	0.592834	0.583522
C39	C	0.530537	0.092822	0.084630
C40	C	1.030537	0.592822	0.584630
C41	C	0.666691	0.067962	0.000039
C42	C	1.166691	0.567962	0.500039
C43	C	0.309782	0.064340	0.000058
C44	C	0.809782	0.564340	0.500058
C45	C	0.995493	-0.022222	0.000076
C46	C	1.495493	0.477778	0.500076
C47	C	0.994535	-0.075881	0.000083
C48	C	1.494535	0.424119	0.500083
C49	C	1.065040	-0.414392	0.000043
C50	C	1.565040	0.085608	0.500043
C51	C	1.061487	-0.616067	0.000030
C52	C	1.561487	-0.116067	0.500030
O53	O	1.125959	-0.647045	-0.000004
O54	O	1.625959	-0.147045	0.499996
N55	N	0.984692	-0.635522	0.000025
N56	N	1.484692	-0.135522	0.500025
C57	C	0.908780	-0.604555	0.000017
C58	C	1.408780	-0.104555	0.500017
O59	O	0.843380	-0.625730	0.000003
O60	O	1.343380	-0.125730	0.500003
C61	C	0.912334	-0.402881	0.000023
C62	C	1.412334	0.097119	0.500023
C63	C	0.989134	-0.383429	0.000037
C64	C	1.489134	0.116571	0.500037
C65	C	1.141834	-0.394940	0.000056
C66	C	1.641834	0.105060	0.500056
C67	C	1.142721	-0.344524	0.000064
C68	C	1.642721	0.155476	0.500064
C69	C	1.066815	-0.313561	0.000059
C70	C	1.566815	0.186439	0.500059
C71	C	0.990021	-0.333013	0.000045
C72	C	1.490021	0.166987	0.500045
C73	C	0.836422	-0.371914	0.000009
C74	C	1.336422	0.128086	0.500009
C75	C	0.837317	-0.321493	0.000008
C76	C	1.337317	0.178507	0.500008
C77	C	0.914117	-0.302041	0.000023
C78	C	1.414117	0.197959	0.500023
C79	C	0.915002	-0.251634	0.000048
C80	C	1.415002	0.248366	0.500048
N81	N	0.991797	-0.232179	0.000053
N82	N	1.491797	0.267821	0.500053
C83	C	1.067703	-0.263142	0.000059
C84	C	1.567703	0.236858	0.500059
C85	C	0.906920	-0.710437	0.000015
C86	C	1.406920	-0.210437	0.500015
C87	C	0.906031	-0.760855	0.000015
C88	C	1.406031	-0.260855	0.500015
C89	C	1.058739	-0.772364	0.000027
C90	C	1.558739	-0.272364	0.500027
C91	C	1.059627	-0.721945	0.000033
C92	C	1.559627	-0.221945	0.500033
C93	C	0.983715	-0.690982	0.000021
C94	C	1.483715	-0.190982	0.500021
C95	C	1.069561	-0.157265	0.000076
C96	C	1.569561	0.342735	0.500076
C97	C	1.070442	-0.106844	0.000088
C98	C	1.570442	0.393156	0.500088
C99	C	0.917734	-0.095340	0.000072
C100	C	1.417734	0.404660	0.500072
C101	C	0.916853	-0.145756	0.000065
C102	C	1.416853	0.354244	0.500065
C103	C	0.992773	-0.176718	0.000064
C104	C	1.492773	0.323282	0.500064
O105	O	0.850565	-0.220628	0.000072
O106	O	1.350565	0.279372	0.500072
O107	O	1.133094	-0.241958	0.000053
O108	O	1.633094	0.258042	0.500053
C109	C	1.064153	-0.464808	0.000035
C110	C	1.564153	0.035192	0.500035
C111	C	0.987359	-0.484260	0.000022
C112	C	1.487359	0.015740	0.500022
C113	C	0.911452	-0.453297	0.000016
C114	C	1.411452	0.046703	0.500016
C115	C	0.986470	-0.534679	0.000022
C116	C	1.486470	-0.034679	0.500022
C117	C	1.062377	-0.565642	0.000027
C118	C	1.562377	-0.065642	0.500027
C119	C	1.139172	-0.546187	0.000032
C120	C	1.639172	-0.046187	0.500032
C121	C	1.140059	-0.495771	0.000040
C122	C	1.640059	0.004229	0.500040
C123	C	0.834657	-0.472752	0.000011
C124	C	1.334657	0.027248	0.500011
C125	C	0.833776	-0.523168	0.000004
C126	C	1.333776	-0.023168	0.500004
C127	C	0.909683	-0.554132	0.000009
C128	C	1.409683	-0.054132	0.500009
C129	C	1.141364	0.062621	0.000066
C130	C	1.641364	0.562621	0.500066
C131	C	1.234302	0.063575	0.000066
C132	C	1.734302	0.563575	0.500066
C133	C	0.980980	0.154523	0.000034
C134	C	1.480980	0.654523	0.500034
C135	C	0.981938	0.208182	0.000021
C136	C	1.481938	0.708182	0.500021
N137	N	0.988193	0.066156	0.229956
N138	N	1.488193	0.566156	0.729956
N139	N	0.988287	0.066140	-0.229845
N140	N	1.488287	0.566140	0.270155
C141	C	0.988256	0.066146	0.589158
C142	C	1.488256	0.566146	1.089158
C143	C	0.918727	0.105721	0.551536
C144	C	1.418727	0.605721	1.051536
C145	C	0.918884	0.105866	0.448710
C146	C	1.418884	0.605866	0.948710
C147	C	0.988224	0.066151	0.410954
C148	C	1.488224	0.566151	0.910954
C149	C	1.075446	0.077167	0.448249
C150	C	1.575446	0.577167	0.948249
C151	C	1.075056	0.077448	0.551106
C152	C	1.575056	0.577448	1.051106
C153	C	0.971342	0.015437	0.551269
C154	C	1.471342	0.515437	1.051269
C155	C	0.969333	0.015775	0.448405
C156	C	1.469333	0.515775	0.948405
C157	C	0.988211	0.066153	0.310240
C158	C	1.488211	0.566153	0.810240
C159	C	0.988274	0.066145	0.689871
C160	C	1.488274	0.566145	1.189871
H161	H	0.544216	0.132441	-0.087365
H162	H	1.044216	0.632441	0.412635
H163	H	1.120545	-0.797583	0.000032
H164	H	1.620545	-0.297583	0.500032
N165	N	1.093850	0.123845	0.581185
N166	N	1.593850	0.623845	1.081185
N167	N	1.041938	0.149788	0.628082
N168	N	1.541938	0.649788	1.128082
H169	H	1.055207	0.182559	0.649320
H170	H	1.555207	0.682559	1.149320
N171	N	0.840192	-0.063715	0.000067
N172	N	1.340192	0.436285	0.500067
N173	N	0.788944	-0.065492	0.062255
N174	N	1.288944	0.434508	0.562255
H175	H	0.734177	-0.043157	0.062245
H176	H	1.234177	0.456843	0.562245
N177	N	1.028815	-0.022899	0.416192
N178	N	1.528815	0.477101	0.916192
N179	N	1.073956	-0.048902	0.469548
N180	N	1.573956	0.451098	0.969548
H181	H	1.115976	-0.076215	0.446802
H182	H	1.615976	0.423785	0.946802
H183	H	0.559222	0.074958	-0.146929
H184	H	1.059222	0.574958	0.353071
H185	H	0.401326	0.131802	0.084083
H186	H	0.901326	0.631802	0.584083
H187	H	0.558086	0.073794	0.146972
H188	H	1.058086	0.573794	0.646972
N189	N	0.408087	0.071159	0.163646
N190	N	0.908087	0.571159	0.663646
N191	N	0.368129	0.035151	0.160204
N192	N	0.868129	0.535151	0.660204
H193	H	0.350115	0.019838	0.216787
H194	H	0.850115	0.519838	0.716787
N195	N	1.141876	0.042682	0.582368
N196	N	1.641876	0.542682	1.082368
N197	N	1.125761	0.008087	0.630029
N198	N	1.625761	0.508087	1.130029
H199	H	1.172960	-0.016458	0.652114
H200	H	1.672960	0.483542	1.152114
H201	H	0.854029	0.099303	0.423496
H202	H	1.354029	0.599303	0.923496
H203	H	1.203650	-0.420146	0.000057
H204	H	1.703650	0.079854	0.500057
N205	N	0.429677	-0.014024	0.076248
N206	N	0.929677	0.485976	0.576248
N207	N	0.354660	-0.020946	0.087784
N208	N	0.854660	0.479054	0.587784
H209	H	0.338482	-0.039634	0.141369
H210	H	0.838482	0.460366	0.641369
N211	N	0.931988	0.152662	0.583947
N212	N	1.431988	0.652662	1.083947
N213	N	0.930890	0.160794	0.665535
N214	N	1.430890	0.660794	1.165535
H215	H	0.940258	0.193945	0.688428
H216	H	1.440258	0.693945	1.188428
N217	N	0.827574	-0.780713	0.000021
N218	N	1.327574	-0.280713	0.500021
N219	N	0.759811	-0.753056	0.000018
N220	N	1.259811	-0.253056	0.500018
H221	H	0.704397	-0.767079	0.000019
H222	H	1.204397	-0.267079	0.500019
H223	H	0.773883	-0.387743	-0.000008
H224	H	1.273883	0.112257	0.499992
N225	N	0.428365	-0.013947	-0.074968
N226	N	0.928365	0.486053	0.425032
N227	N	0.459746	-0.056960	-0.086861
N228	N	0.959746	0.443040	0.413139
H229	H	0.442635	-0.075603	-0.140085
H230	H	0.942635	0.424397	0.359915
H231	H	0.929616	0.143496	0.424088
H232	H	1.429616	0.643496	0.924088
H233	H	1.202598	-0.479938	0.000051
H234	H	1.702598	0.020062	0.500051
H235	H	0.775499	-0.296285	-0.000003
H236	H	1.275499	0.203715	0.499997
H237	H	0.771232	-0.539001	-0.000000
H238	H	1.271232	-0.039001	0.500000
N239	N	0.888845	0.005293	0.417828
N240	N	1.388845	0.505293	0.917828
N241	N	0.845511	0.034788	0.368633
N242	N	1.345511	0.534788	0.868633
H243	H	0.788665	0.027387	0.347032
H244	H	1.288665	0.527387	0.847032
H245	H	0.853661	0.099266	0.576294
H246	H	1.353661	0.599266	1.076294
N247	N	0.829364	-0.678819	0.000003
N248	N	1.329364	-0.178819	0.500003
N249	N	0.760809	-0.696202	-0.000000
N250	N	1.260809	-0.196202	0.500000
H251	H	0.706034	-0.673875	-0.000006
H252	H	1.206034	-0.173875	0.499994
N253	N	0.549182	0.141852	0.090998
N254	N	1.049182	0.641852	0.590998
N255	N	0.593530	0.158638	0.033039
N256	N	1.093530	0.658638	0.533039
H257	H	0.606698	0.193268	0.037530
H258	H	1.106698	0.693268	0.537530
N259	N	1.216702	-0.577828	0.000047
N260	N	1.716702	-0.077828	0.500047
N261	N	1.215886	-0.622842	0.000043
N262	N	1.715886	-0.122842	0.500043
H263	H	1.270638	-0.645190	0.000051
H264	H	1.770638	-0.145190	0.500051
H265	H	0.577401	-0.007228	-0.060444
H266	H	1.077401	0.492772	0.439556
N267	N	1.141863	0.041965	0.417566
N268	N	1.641863	0.541965	0.917566
N269	N	1.125614	0.008287	0.367749
N270	N	1.625614	0.508287	0.867749
H271	H	1.172519	-0.016576	0.346078
H272	H	1.672519	0.483424	0.846078
H273	H	0.772844	-0.447546	0.000005
H274	H	1.272844	0.052454	0.500005
H275	H	1.122164	-0.706111	0.000044
H276	H	1.622164	-0.206111	0.500044
H277	H	0.415932	0.072726	-0.147272
H278	H	0.915932	0.572726	0.352728
H279	H	1.132984	-0.091010	0.000102
H280	H	1.632984	0.408990	0.500102
H281	H	1.205260	-0.328691	0.000072
H282	H	1.705260	0.171309	0.500072
N283	N	1.094735	0.123030	0.415905
N284	N	1.594735	0.623030	0.915905
N285	N	1.044389	0.147678	0.365399
N286	N	1.544389	0.647678	0.865399
H287	H	1.058006	0.180070	0.342556
H288	H	1.558006	0.680070	0.842556
H289	H	0.401231	0.130541	-0.088120
H290	H	0.901231	0.630541	0.411880
H291	H	0.854317	-0.161595	0.000078
H292	H	1.354317	0.338405	0.500078
N293	N	0.893310	0.002165	0.583840
N294	N	1.393310	0.502165	1.083840
N295	N	0.849211	0.029921	0.635382
N296	N	1.349211	0.529921	1.135382
H297	H	0.794095	0.020554	0.658382
H298	H	1.294095	0.520554	1.158382
N299	N	1.034951	-0.021507	0.581809
N300	N	1.534951	0.478493	1.081809
N301	N	1.044743	-0.029089	0.663112
N302	N	1.544743	0.470911	1.163112
H303	H	1.089668	-0.055178	0.684687
H304	H	1.589668	0.444822	1.184687
H305	H	0.577944	-0.007086	0.060468
H306	H	1.077944	0.492914	0.560468
H307	H	1.131383	-0.182469	0.000072
H308	H	1.631383	0.317531	0.500072
