data_functionalizedCrystal
_audit_creation_method	'MofGen! by Chris Wilmer'
_symmetry_space_group_name_H-M	'P1'
_symmetry_Int_Tables_number	1
_symmetry_cell_setting	triclinic
loop_
_symmetry_equiv_pos_as_xyz
  x,y,z
_cell_length_a	19.120904
_cell_length_b	12.759401
_cell_length_c	19.121459
_cell_angle_alpha	87.582637
_cell_angle_beta	89.921699
_cell_angle_gamma	87.574971
loop_
_atom_site_label
_atom_site_type_symbol
_atom_site_fract_x
_atom_site_fract_y
_atom_site_fract_z
Zn1	Zn	-0.384459	-1.600483	0.296058
Zn2	Zn	-0.262229	-1.615322	0.408295
Zn3	Zn	-0.267242	-1.431963	0.291074
Zn4	Zn	-0.379431	-1.432540	0.413253
O5	O	-0.323340	-1.520077	0.352170
O6	O	-0.368252	-1.749473	0.310958
O7	O	-0.164789	-1.596967	0.388584
O8	O	-0.286993	-1.447865	0.193632
O9	O	-0.278450	-1.760375	0.393417
O10	O	-0.373112	-1.571677	0.197294
O11	O	-0.168472	-1.462254	0.302463
O12	O	-0.282117	-1.285018	0.307271
O13	O	-0.478203	-1.448850	0.401868
O14	O	-0.364542	-1.285442	0.397035
O15	O	-0.481897	-1.572237	0.315766
O16	O	-0.273574	-1.597527	0.507056
O17	O	-0.359681	-1.463238	0.510699
C18	C	-0.323328	-1.247109	0.352150
C19	C	-0.323339	-1.130332	0.352160
C20	C	-0.370164	-1.069796	0.309305
C21	C	-0.370168	-0.960072	0.309310
C22	C	-0.276518	-0.971431	0.395029
C23	C	-0.276512	-1.081153	0.395020
C24	C	-0.398894	-0.803134	0.227750
C25	C	-0.445730	-0.742593	0.184902
C26	C	-0.514608	-0.773353	0.177146
C27	C	-0.536663	-0.864653	0.212247
C28	C	-0.489831	-0.925188	0.255100
C29	C	-0.420944	-0.894429	0.262843
C30	C	-0.247793	-1.238093	0.476581
C31	C	-0.200963	-1.298630	0.519438
C32	C	-0.132084	-1.267872	0.527202
C33	C	-0.110031	-1.176570	0.492113
C34	C	-0.156860	-1.116033	0.449256
C35	C	-0.225739	-1.146798	0.441491
C36	C	-0.506199	-1.508953	0.359926
C37	C	-0.584123	-1.504212	0.363231
C38	C	-0.622656	-1.566223	0.319957
C39	C	-0.695874	-1.561756	0.323060
C40	C	-0.730556	-1.495283	0.369441
C41	C	-0.692018	-1.433265	0.412716
C42	C	-0.618802	-1.437727	0.409610
C43	C	-0.951526	-1.478591	0.381060
C44	C	-1.024747	-1.474135	0.384165
C45	C	-1.028597	-1.602625	0.294507
C46	C	-0.955380	-1.607086	0.291408
C47	C	-0.916848	-1.545064	0.334681
C48	C	-0.805396	-1.490717	0.372615
C49	C	-0.842009	-1.549625	0.331503
C50	C	-0.141195	-1.531215	0.344394
C51	C	-0.063280	-1.536146	0.340891
C52	C	-0.315553	-1.532083	0.534315
C53	C	-0.312245	-1.537314	0.612239
C54	C	-0.323350	-0.794110	0.352184
C55	C	-0.323349	-0.910886	0.352173
C56	C	-0.331173	-1.508052	0.169314
C57	C	-0.334511	-1.502927	0.091392
C58	C	-0.291272	-1.570431	1.052862
C59	C	-0.294382	-1.565507	0.979644
C60	C	-0.340734	-1.493083	0.944959
C61	C	-0.383974	-1.425571	0.983494
C62	C	-0.380861	-1.430491	1.056710
C63	C	-0.352372	-1.474722	0.723990
C64	C	-0.355484	-1.469810	0.650769
C65	C	-0.265890	-1.609745	0.646924
C66	C	-0.262784	-1.614663	0.720142
C67	C	-0.306022	-1.547148	0.758671
C68	C	-0.343915	-1.488050	0.870119
C69	C	-0.302836	-1.552176	0.833509
H70	H	-0.303878	-1.263150	0.470258
H71	H	-0.265094	-1.611141	0.861753
Br72	Br	-1.080894	-1.686790	0.235781
Br73	Br	-0.207213	-1.701366	0.594632
H74	H	-0.427766	-0.668257	0.156322
H75	H	-0.727244	-1.612254	0.287823
H76	H	-0.920161	-1.428104	0.416307
H77	H	-0.342806	-0.778087	0.234053
Br78	Br	-0.212972	-0.904682	0.453194
Br79	Br	-0.126923	-0.992142	0.401612
Br80	Br	-0.519756	-1.049085	0.302737
Br81	Br	-0.908315	-1.697306	0.228462
Br82	Br	-0.016552	-1.134811	0.502658
Br83	Br	-0.439537	-1.338865	1.109002
Br84	Br	-0.418397	-1.371515	0.603696
Br85	Br	-0.406826	-1.389771	0.823040
Br86	Br	-0.199880	-1.712964	0.767210
H87	H	-1.052983	-1.420002	0.421936
H88	H	-0.253531	-1.629413	1.081097
H89	H	-0.421713	-1.366596	0.955249
H90	H	-0.592753	-0.889684	0.205934
Br91	Br	-0.433713	-1.136536	0.251136
H92	H	-0.552742	-0.724053	0.142258
Br93	Br	-0.575593	-1.656449	0.257013
H94	H	-0.218922	-1.372983	0.548000
H95	H	-0.720263	-1.379137	0.450478
Br96	Br	-0.852472	-1.400509	0.435560
Br97	Br	-0.068533	-1.350021	0.585377
Br98	Br	-0.566506	-1.353560	0.468337
H99	H	-0.813767	-1.603742	0.293737
H100	H	-0.259173	-1.620474	0.948273
H101	H	-0.387574	-1.419739	0.755352
