data_functionalizedCrystal
_audit_creation_method	'MofGen! by Chris Wilmer'
_symmetry_space_group_name_H-M	'P1'
_symmetry_Int_Tables_number	1
_symmetry_cell_setting	triclinic
loop_
_symmetry_equiv_pos_as_xyz
  x,y,z
_cell_length_a	17.000383
_cell_length_b	12.376492
_cell_length_c	13.339070
_cell_angle_alpha	75.608952
_cell_angle_beta	84.385198
_cell_angle_gamma	79.610467
loop_
_atom_site_label
_atom_site_type_symbol
_atom_site_fract_x
_atom_site_fract_y
_atom_site_fract_z
O1	O	1.074778	-0.094086	-0.015397
O2	O	0.850996	-0.094076	-0.051404
O3	O	0.937201	-0.094054	0.111573
O4	O	0.988573	-0.094107	-0.178374
O5	O	0.915649	0.093953	0.070880
O6	O	0.829443	0.093931	-0.092097
O7	O	1.053225	0.093921	-0.056089
Zn8	Zn	0.937912	0.123776	-0.080554
Zn9	Zn	0.966309	-0.123931	-0.026940
O10	O	0.967020	0.093899	-0.219067
C11	C	0.810993	-0.000071	-0.073685
C12	C	0.723904	-0.000066	-0.079436
C13	C	0.231892	-0.000115	-0.116555
C14	C	0.313720	-0.000113	-0.111144
C15	C	0.343972	-0.000087	-0.017236
C16	C	0.292392	-0.000075	0.071270
C17	C	0.210567	-0.000084	0.065861
C18	C	0.590499	-0.000063	0.003661
C19	C	0.672330	-0.000050	0.009063
C20	C	0.693653	-0.000090	-0.173352
C21	C	0.611824	-0.000093	-0.178754
C22	C	0.560253	-0.000087	-0.090247
C23	C	0.427612	-0.000082	-0.011705
C24	C	0.476615	-0.000101	-0.095778
N25	N	0.918538	0.292830	-0.117143
C26	C	1.030653	0.647843	0.094604
C27	C	1.044208	0.529506	0.120213
C28	C	1.012792	0.470331	0.060876
C29	C	0.967817	0.529504	-0.024074
C30	C	0.954265	0.647852	-0.049690
C31	C	0.936405	0.470341	-0.083418
C32	C	0.891430	0.529514	-0.168368
C33	C	0.877880	0.647850	-0.193980
C34	C	0.909297	0.707025	-0.134643
C35	C	0.949956	0.351993	-0.057802
C36	C	0.873569	0.352003	-0.202096
C37	C	0.860013	0.470339	-0.227705
C38	C	1.093229	-0.000086	-0.033808
C39	C	1.180319	-0.000099	-0.028056
C40	C	0.917748	-0.000046	0.128143
C41	C	0.891883	-0.000033	0.238142
N42	N	0.985684	0.707016	0.009651
C43	C	1.092975	0.000011	0.620811
C44	C	1.117278	0.000005	0.517461
C45	C	1.060932	-0.000005	0.447627
C46	C	0.980278	-0.000007	0.481151
C47	C	0.955972	0.000008	0.584509
C48	C	0.923928	-0.000008	0.411325
C49	C	0.843274	-0.000011	0.444850
C50	C	0.818972	0.000003	0.548198
C51	C	0.875319	0.000013	0.618033
C52	C	0.948234	-0.000024	0.307967
C53	C	0.811230	-0.000027	0.271665
C54	C	0.786927	-0.000021	0.375015
C55	C	0.986470	-0.000074	0.764356
C56	C	1.012322	0.000017	0.654335
H57	H	0.355710	-0.000136	-0.183207
Br58	Br	0.713385	-0.000013	0.136518
Br59	Br	0.842356	-0.000131	0.758334
H60	H	1.056233	0.696031	0.142904
Br61	Br	0.435559	-0.000146	-0.223218
H62	H	1.138843	0.000029	0.677676
H63	H	1.013902	-0.000021	0.280682
Br64	Br	0.830936	0.271702	-0.282636
Br65	Br	0.570775	-0.000134	-0.306205
H66	H	0.898257	0.803385	-0.155490
H67	H	1.182946	0.000009	0.490173
H68	H	0.753298	0.000010	0.575488
Br69	Br	0.520523	-0.000088	0.123786
H70	H	1.023831	0.373976	0.081731
Br71	Br	0.798977	0.550656	-0.342991
Br72	Br	0.333448	-0.000046	0.198721
H73	H	0.207268	-0.000127	-0.193027
H74	H	0.452252	-0.000057	0.064755
H75	H	0.986575	0.303825	0.011364
H76	H	0.168576	-0.000074	0.137927
Br77	Br	0.677472	-0.000031	0.420527
H78	H	0.735651	-0.000097	-0.245409
Br79	Br	0.816859	0.728160	-0.309282
Br80	Br	1.105244	0.449201	0.235493
Br81	Br	1.093915	-0.000017	0.307364
H82	H	0.765347	-0.000029	0.214804
