data_functionalizedCrystal
_audit_creation_method	'MofGen! by Chris Wilmer'
_symmetry_space_group_name_H-M	'P1'
_symmetry_Int_Tables_number	1
_symmetry_cell_setting	triclinic
loop_
_symmetry_equiv_pos_as_xyz
  x,y,z
_cell_length_a	6.817900
_cell_length_b	16.418055
_cell_length_c	16.418042
_cell_angle_alpha	95.402791
_cell_angle_beta	103.389568
_cell_angle_gamma	103.389726
loop_
_atom_site_label
_atom_site_type_symbol
_atom_site_fract_x
_atom_site_fract_y
_atom_site_fract_z
V1	V	-4.025094	-0.116567	-0.261446
O2	O	-4.013114	0.004901	-0.256170
O3	O	-3.976166	-0.230459	-0.259946
O4	O	-3.976174	-0.115081	-0.375341
O5	O	-4.013105	-0.111275	-0.139976
V6	V	-4.508858	-0.102002	-0.246882
O7	O	-4.285824	-0.148517	-0.293393
O8	O	-4.698325	-0.070051	-0.214936
O9	O	-4.334579	0.011890	-0.248383
O10	O	-4.638234	-0.223469	-0.252158
O11	O	-4.638243	-0.107293	-0.368352
O12	O	-4.334571	-0.103487	-0.132988
C13	C	-3.821055	-0.258214	-0.255896
C14	C	-3.862333	-0.351324	-0.255428
C15	C	-4.178135	-0.657317	-0.258148
C16	C	-4.139360	-0.569828	-0.258574
C17	C	-3.775178	-0.561262	-0.250181
C18	C	-3.813950	-0.648748	-0.249749
C19	C	-4.015436	-0.696774	-0.253737
C20	C	-3.937889	-0.521800	-0.254595
C21	C	-3.895847	-0.426941	-0.255056
C22	C	-4.057481	-0.791639	-0.253274
C23	C	-3.821065	-0.111037	-0.403092
C24	C	-3.862348	-0.110576	-0.496203
C25	C	-4.139356	-0.113692	-0.714697
C26	C	-4.178126	-0.113251	-0.802183
C27	C	-3.813952	-0.104873	-0.793620
C28	C	-3.775181	-0.105307	-0.706134
C29	C	-3.937892	-0.109721	-0.666676
C30	C	-4.015434	-0.108846	-0.841648
C31	C	-4.057469	-0.108368	-0.936504
C32	C	-3.895854	-0.110197	-0.571813
C33	C	-4.153032	0.039641	-0.252431
C34	C	-4.090992	0.132750	-0.252904
C35	C	-4.153022	-0.107534	-0.105232
C36	C	-4.090978	-0.107991	-0.012120
H37	H	-4.271849	-0.537706	-0.262164
H38	H	-3.681450	-0.680874	-0.246155
O39	O	-3.655650	-0.100549	-0.831812
C40	C	-3.469526	-0.097156	-0.770667
H41	H	-3.481432	-0.072043	-0.705337
H42	H	-3.444482	-0.163449	-0.770745
C43	C	-3.269339	-0.068665	-0.872258
C44	C	-3.283955	-0.037814	-0.792020
H45	H	-3.154868	-0.032064	-0.885430
H46	H	-3.394735	-0.070954	-0.913454
H47	H	-3.248478	-0.123909	-0.872313
H48	H	-3.304842	0.017424	-0.791969
H49	H	-3.158559	-0.035514	-0.750824
O50	O	-4.373741	-0.704099	-0.262044
C51	C	-4.373074	-0.789775	-0.260695
H52	H	-4.235725	-0.802268	-0.283687
H53	H	-4.357638	-0.804106	-0.193234
C54	C	-4.747427	-0.831785	-0.291051
C55	C	-4.578742	-0.847131	-0.319298
H56	H	-4.874295	-0.867166	-0.327197
H57	H	-4.747878	-0.774064	-0.291957
H58	H	-4.734535	-0.843727	-0.234834
H59	H	-4.591622	-0.835179	-0.375509
H60	H	-4.578298	-0.904853	-0.318403
H61	H	-4.271848	-0.117284	-0.682573
H62	H	-3.611114	-0.102067	-0.667032
O63	O	-3.579610	-0.514490	-0.246357
C64	C	-3.580261	-0.428808	-0.247666
H65	H	-3.745289	-0.424762	-0.277981
H66	H	-3.525567	-0.393079	-0.180056
C67	C	-3.229239	-0.393914	-0.262245
C68	C	-3.431927	-0.388945	-0.299484
H69	H	-3.137734	-0.369322	-0.294205
H70	H	-3.228796	-0.451639	-0.261360
H71	H	-3.183690	-0.364140	-0.205904
H72	H	-3.477483	-0.418727	-0.355820
H73	H	-3.432374	-0.331224	-0.300380
O74	O	-4.373802	-0.117221	-0.848938
C75	C	-4.445001	-0.190137	-0.911339
H76	H	-4.305338	-0.210738	-0.924580
H77	H	-4.546421	-0.243427	-0.887824
C78	C	-4.745974	-0.144668	-0.977115
C79	C	-4.574436	-0.169967	-0.993384
H80	H	-4.825824	-0.132229	-1.027724
H81	H	-4.698011	-0.095545	-0.935073
H82	H	-4.830466	-0.189081	-0.957518
H83	H	-4.489934	-0.125551	-1.012970
H84	H	-4.622388	-0.219083	-1.035431
