data_functionalizedCrystal
_audit_creation_method	'MofGen! by Chris Wilmer'
_symmetry_space_group_name_H-M	'P1'
_symmetry_Int_Tables_number	1
_symmetry_cell_setting	triclinic
loop_
_symmetry_equiv_pos_as_xyz
  x,y,z
_cell_length_a	16.959455
_cell_length_b	19.121063
_cell_length_c	16.959447
_cell_angle_alpha	92.406624
_cell_angle_beta	89.983277
_cell_angle_gamma	92.467995
loop_
_atom_site_label
_atom_site_type_symbol
_atom_site_fract_x
_atom_site_fract_y
_atom_site_fract_z
Zn1	Zn	1.194917	-0.279619	-0.460360
Zn2	Zn	1.189182	-0.397080	-0.333811
Zn3	Zn	1.062744	-0.279645	-0.328193
Zn4	Zn	1.057055	-0.397032	-0.465941
O5	O	1.125974	-0.338344	-0.397076
O6	O	1.304766	-0.295210	-0.443588
O7	O	1.172391	-0.381533	-0.222456
O8	O	1.085058	-0.181357	-0.341039
O9	O	1.300553	-0.381508	-0.350613
O10	O	1.182165	-0.181338	-0.438141
O11	O	1.079497	-0.295254	-0.218329
O12	O	0.951379	-0.295207	-0.346451
O13	O	1.075362	-0.381425	-0.575811
O14	O	0.947199	-0.381451	-0.447654
O15	O	1.176648	-0.295163	-0.571710
O16	O	1.166874	-0.495358	-0.356025
O17	O	1.069801	-0.495322	-0.453101
C18	C	0.920609	-0.338327	-0.397049
C19	C	0.832752	-0.338337	-0.397057
C20	C	0.793634	-0.293370	-0.344443
C21	C	0.789316	-0.383309	-0.449682
C22	C	0.706770	-0.383317	-0.449694
C23	C	0.667652	-0.338350	-0.397081
C24	C	0.711080	-0.293375	-0.344455
C25	C	0.663336	-0.428286	-0.502325
C26	C	0.580785	-0.428296	-0.502339
C27	C	0.541665	-0.383332	-0.449721
C28	C	0.585098	-0.338355	-0.397093
C29	C	0.545980	-0.293388	-0.344479
C30	C	0.589411	-0.248415	-0.291846
C31	C	0.671960	-0.248411	-0.291836
C32	C	0.459116	-0.383336	-0.449730
C33	C	0.463426	-0.293394	-0.344491
C34	C	1.117120	-0.520824	-0.405795
C35	C	1.113404	-0.598890	-0.409552
C36	C	1.162238	-0.635561	-0.360816
C37	C	1.158748	-0.708912	-0.364354
C38	C	1.106419	-0.745591	-0.416624
C39	C	1.057583	-0.708915	-0.465364
C40	C	1.061077	-0.635565	-0.461830
C41	C	1.093341	-0.967060	-0.429825
C42	C	1.089848	-1.040415	-0.433353
C43	C	1.191015	-1.040406	-0.332344
C44	C	1.194502	-0.967055	-0.328811
C45	C	1.145668	-0.930386	-0.377554
C46	C	1.102849	-0.820567	-0.420239
C47	C	1.149243	-0.855411	-0.373942
C48	C	1.332142	-0.338361	-0.397104
C49	C	1.419998	-0.338369	-0.397116
C50	C	1.126010	-0.338286	-0.603242
C51	C	1.126025	-0.338261	-0.691097
C52	C	1.134885	-0.155151	-0.388341
C53	C	1.138683	-0.077085	-0.384618
C54	C	1.073388	-0.383100	-1.064707
C55	C	1.178859	-0.293274	-1.060432
C56	C	1.178837	-0.293289	-0.977887
C57	C	1.126091	-0.338211	-0.938748
C58	C	1.073366	-0.383118	-0.982154
C59	C	1.231566	-0.248388	-0.934475
C60	C	1.231547	-0.248402	-0.851924
C61	C	1.178796	-0.293320	-0.812784
C62	C	1.126069	-0.338228	-0.856195
C63	C	1.073323	-0.383150	-0.817056
C64	C	1.020591	-0.428055	-0.860466
C65	C	1.020616	-0.428036	-0.943014
C66	C	1.178771	-0.293339	-0.730236
C67	C	1.073301	-0.383168	-0.734504
C68	C	1.125987	-0.338351	-0.191710
C69	C	1.126134	-0.338178	-0.103846
H70	H	0.545430	-0.464917	-0.545195
Br71	Br	0.400177	-0.444359	-0.521162
Br72	Br	0.410343	-0.232369	-0.273076
Br73	Br	0.852572	-0.232341	-0.273012
H74	H	1.230774	-1.070271	-0.292660
Br75	Br	1.225031	-0.758677	-0.298214
H76	H	0.695192	-0.464894	-0.545162
Br77	Br	1.001706	-0.444131	-0.681393
Br78	Br	0.986571	-0.758693	-0.536310
H79	H	1.030453	-0.419658	-1.100055
H80	H	0.557551	-0.211800	-0.249011
Br81	Br	1.250447	-0.232319	-1.113550
Br82	Br	0.730907	-0.187379	-0.220416
Br83	Br	0.949016	-0.489024	-0.807340
Br84	Br	1.233252	-0.585789	-0.289868
H85	H	0.977687	-0.464598	-0.978366
H86	H	0.821172	-0.419916	-0.492521
H87	H	1.021312	-0.605709	-0.501517
Br88	Br	1.265532	-0.917281	-0.257881
Br89	Br	1.303153	-0.187434	-0.987595
Br90	Br	1.303107	-0.187460	-0.793018
H91	H	1.191853	-0.825544	-0.331387
H92	H	1.047245	-1.070277	-0.475932
H93	H	1.060241	-0.850440	-0.462796
H94	H	1.053577	-0.937209	-0.469512
H95	H	1.221707	-0.256780	-0.694896
