data_functionalizedCrystal
_audit_creation_method	'MofGen! by Chris Wilmer'
_symmetry_space_group_name_H-M	'P1'
_symmetry_Int_Tables_number	1
_symmetry_cell_setting	triclinic
loop_
_symmetry_equiv_pos_as_xyz
  x,y,z
_cell_length_a	25.639242
_cell_length_b	16.959453
_cell_length_c	16.959447
_cell_angle_alpha	89.968429
_cell_angle_beta	89.975785
_cell_angle_gamma	90.018253
loop_
_atom_site_label
_atom_site_type_symbol
_atom_site_fract_x
_atom_site_fract_y
_atom_site_fract_z
Zn1	Zn	0.799294	-0.314760	-0.447110
Zn2	Zn	1.132627	0.018573	-0.113777
Zn3	Zn	1.465960	0.351906	0.219556
Zn4	Zn	0.799238	-0.446953	-0.314929
Zn5	Zn	1.132572	-0.113619	0.018404
Zn6	Zn	1.465905	0.219714	0.351738
Zn7	Zn	0.711867	-0.314782	-0.314925
Zn8	Zn	1.045200	0.018552	0.018408
Zn9	Zn	1.378534	0.351885	0.351742
Zn10	Zn	0.711839	-0.446890	-0.447045
Zn11	Zn	1.045173	-0.113557	-0.113711
Zn12	Zn	1.378506	0.219776	0.219622
O13	O	0.755560	-0.380846	-0.381002
O14	O	1.088893	-0.047513	-0.047669
O15	O	1.422226	0.285820	0.285664
O16	O	0.872452	-0.332313	-0.429605
O17	O	1.205785	0.001020	-0.096272
O18	O	1.539118	0.334354	0.237061
O19	O	0.787637	-0.429455	-0.204318
O20	O	1.120970	-0.096122	0.129016
O21	O	1.454303	0.237212	0.462349
O22	O	0.723499	-0.204168	-0.332486
O23	O	1.056832	0.129165	0.000848
O24	O	1.390165	0.462499	0.334181
O25	O	0.872411	-0.429434	-0.332492
O26	O	1.205744	-0.096101	0.000841
O27	O	1.539078	0.237233	0.334174
O28	O	0.787731	-0.204152	-0.429602
O29	O	1.121064	0.129181	-0.096268
O30	O	1.454398	0.462515	0.237065
O31	O	0.723445	-0.332350	-0.204315
O32	O	1.056779	0.000984	0.129019
O33	O	1.390112	0.334317	0.462352
O34	O	0.638698	-0.332289	-0.332422
O35	O	0.972031	0.001044	0.000911
O36	O	1.305365	0.334378	0.334245
O37	O	0.723452	-0.429328	-0.557664
O38	O	1.056785	-0.095995	-0.224331
O39	O	1.390119	0.237339	0.109002
O40	O	0.638678	-0.429349	-0.429490
O41	O	0.972011	-0.096015	-0.096156
O42	O	1.305345	0.237318	0.237177
O43	O	0.787704	-0.332252	-0.557713
O44	O	1.121038	0.001081	-0.224379
O45	O	1.454371	0.334414	0.108954
O46	O	0.787610	-0.557555	-0.332429
O47	O	1.120943	-0.224222	0.000905
O48	O	1.454277	0.109111	0.334238
O49	O	0.723398	-0.557509	-0.429493
O50	O	1.056732	-0.224176	-0.096160
O51	O	1.390065	0.109157	0.237173
C52	C	0.619717	-0.380815	-0.380949
C53	C	0.953050	-0.047482	-0.047615
C54	C	1.286384	0.285852	0.285718
C55	C	0.561603	-0.380821	-0.380945
C56	C	0.894936	-0.047487	-0.047611
C57	C	1.228270	0.285846	0.285722
C58	C	0.755509	-0.586213	-0.380972
C59	C	1.088843	-0.252879	-0.047638
C60	C	1.422176	0.080454	0.285695
C61	C	0.755536	-0.674069	-0.380985
C62	C	1.088869	-0.340736	-0.047651
C63	C	1.422203	-0.007402	0.285682
C64	C	0.722134	-0.715420	-0.330385
C65	C	1.055467	-0.382086	0.002948
C66	C	1.388800	-0.048753	0.336282
C67	C	0.788960	-0.715272	-0.431602
C68	C	1.122294	-0.381939	-0.098268
C69	C	1.455627	-0.048606	0.235065
C70	C	0.788985	-0.797818	-0.431619
C71	C	1.122318	-0.464485	-0.098286
C72	C	1.455651	-0.131151	0.235048
C73	C	0.755583	-0.839168	-0.381019
C74	C	1.088916	-0.505835	-0.047686
C75	C	1.422249	-0.172502	0.285647
C76	C	0.722156	-0.797973	-0.330402
C77	C	1.055489	-0.464640	0.002931
C78	C	1.388823	-0.131306	0.336264
C79	C	0.822407	-0.839020	-0.482241
C80	C	1.155740	-0.505686	-0.148907
C81	C	1.489074	-0.172353	0.184426
C82	C	0.822432	-0.921571	-0.482260
C83	C	1.155766	-0.588237	-0.148927
C84	C	1.489099	-0.254904	0.184406
C85	C	0.789032	-0.962922	-0.431656
C86	C	1.122366	-0.629589	-0.098323
C87	C	1.455699	-0.296256	0.235011
C88	C	0.755605	-0.921722	-0.381037
C89	C	1.088938	-0.588389	-0.047703
C90	C	1.422272	-0.255055	0.285630
C91	C	0.722203	-0.963072	-0.330437
C92	C	1.055536	-0.629739	0.002896
C93	C	1.388869	-0.296406	0.336230
C94	C	0.688778	-0.921873	-0.279813
C95	C	1.022111	-0.588540	0.053521
C96	C	1.355444	-0.255207	0.386854
C97	C	0.688756	-0.839325	-0.279798
C98	C	1.022090	-0.505992	0.053535
C99	C	1.355423	-0.172658	0.386869
C100	C	0.789054	-1.045471	-0.431671
C101	C	1.122387	-0.712138	-0.098337
C102	C	1.455720	-0.378804	0.234996
C103	C	0.722225	-1.045626	-0.330454
C104	C	1.055558	-0.712293	0.002879
C105	C	1.388892	-0.378959	0.336212
C106	C	0.201238	-0.431470	-0.431498
C107	C	0.534572	-0.098136	-0.098164
C108	C	0.867905	0.235197	0.235169
C109	C	0.146634	-0.431474	-0.431510
C110	C	0.479967	-0.098141	-0.098177
C111	C	0.813301	0.235192	0.235157
O112	O	0.118396	-0.474499	-0.474447
O113	O	0.451729	-0.141166	-0.141113
O114	O	0.785063	0.192167	0.192220
N115	N	0.119321	-0.380868	-0.381054
N116	N	0.452654	-0.047535	-0.047721
N117	N	0.785987	0.285799	0.285613
C118	C	0.146614	-0.330248	-0.330588
C119	C	0.479947	0.003086	0.002746
C120	C	0.813281	0.336419	0.336079
O121	O	0.118368	-0.287203	-0.287672
O122	O	0.451701	0.046131	0.045661
O123	O	0.785035	0.379464	0.378994
C124	C	0.201217	-0.330239	-0.330580
C125	C	0.534551	0.003094	0.002754
C126	C	0.867884	0.336427	0.336087
C127	C	0.228528	-0.380855	-0.381034
C128	C	0.561861	-0.047522	-0.047700
C129	C	0.895195	0.285812	0.285633
C130	C	0.228549	-0.482080	-0.481948
C131	C	0.561882	-0.148747	-0.148615
C132	C	0.895216	0.184586	0.184719
C133	C	0.283150	-0.482076	-0.481934
C134	C	0.616483	-0.148743	-0.148601
C135	C	0.949816	0.184590	0.184732
C136	C	0.310439	-0.431462	-0.431470
C137	C	0.643773	-0.098128	-0.098137
C138	C	0.977106	0.235205	0.235197
C139	C	0.283129	-0.380851	-0.381020
C140	C	0.616462	-0.047518	-0.047686
C141	C	0.949795	0.285816	0.285647
C142	C	0.228510	-0.279616	-0.280118
C143	C	0.561843	0.053718	0.053215
C144	C	0.895177	0.387051	0.386549
C145	C	0.283117	-0.279611	-0.280115
C146	C	0.616450	0.053722	0.053218
C147	C	0.949784	0.387055	0.386552
C148	C	0.310428	-0.330227	-0.330569
C149	C	0.643761	0.003106	0.002765
C150	C	0.977094	0.336440	0.336098
C151	C	0.365019	-0.330232	-0.330542
C152	C	0.698352	0.003101	0.002791
C153	C	1.031686	0.336434	0.336125
N154	N	0.392333	-0.380839	-0.380998
N155	N	0.725666	-0.047505	-0.047665
N156	N	1.058999	0.285828	0.285668
C157	C	0.365043	-0.431453	-0.431462
C158	C	0.698376	-0.098120	-0.098129
C159	C	1.031709	0.235213	0.235204
C160	C	0.031944	-0.330268	-0.330609
C161	C	0.365277	0.003065	0.002724
C162	C	0.698610	0.336399	0.336058
C163	C	-0.022659	-0.330279	-0.330612
C164	C	0.310675	0.003054	0.002721
C165	C	0.644008	0.336387	0.336054
C166	C	-0.022635	-0.431505	-0.431536
C167	C	0.310698	-0.098172	-0.098203
C168	C	0.644031	0.235161	0.235131
C169	C	0.031968	-0.431497	-0.431528
C170	C	0.365301	-0.098164	-0.098195
C171	C	0.698635	0.235169	0.235139
C172	C	0.059257	-0.380874	-0.381065
C173	C	0.392590	-0.047541	-0.047732
C174	C	0.725924	0.285792	0.285601
C175	C	0.479708	-0.431442	-0.431429
C176	C	0.813041	-0.098108	-0.098096
C177	C	1.146374	0.235225	0.235238
C178	C	0.534313	-0.431436	-0.431409
C179	C	0.867647	-0.098102	-0.098075
C180	C	1.200980	0.235231	0.235258
C181	C	0.534285	-0.330207	-0.330488
C182	C	0.867618	0.003126	0.002845
C183	C	1.200951	0.336460	0.336178
C184	C	0.479684	-0.330216	-0.330505
C185	C	0.813017	0.003118	0.002828
C186	C	1.146351	0.336451	0.336161
C187	C	0.452397	-0.380836	-0.380982
C188	C	0.785730	-0.047502	-0.047649
C189	C	1.119064	0.285831	0.285684
O190	O	0.393292	-0.287227	-0.287630
O191	O	0.726625	0.046106	0.045704
O192	O	1.059958	0.379440	0.379037
O193	O	0.393296	-0.474484	-0.474378
O194	O	0.726629	-0.141150	-0.141044
O195	O	1.059962	0.192183	0.192289
C196	C	0.891933	-0.380878	-0.381057
C197	C	1.225266	-0.047545	-0.047723
C198	C	1.558599	0.285789	0.285610
C199	C	0.950047	-0.380892	-0.381080
C200	C	1.283380	-0.047558	-0.047746
C201	C	1.616713	0.285775	0.285587
C202	C	0.755581	-0.380781	-0.587171
C203	C	1.088915	-0.047447	-0.253837
C204	C	1.422248	0.285886	0.079496
C205	C	0.755591	-0.380753	-0.675027
C206	C	1.088924	-0.047420	-0.341694
C207	C	1.422257	0.285914	-0.008361
C208	C	0.755624	-0.174678	-0.381051
C209	C	1.088957	0.158655	-0.047717
C210	C	1.422291	0.491989	0.285616
C211	C	0.755652	-0.086821	-0.381071
C212	C	1.088985	0.246512	-0.047738
C213	C	1.422318	0.579845	0.285596
C214	C	0.722200	-0.431212	-1.046480
C215	C	1.055533	-0.097879	-0.713147
C216	C	1.388867	0.235454	-0.379814
C217	C	0.789106	-0.330127	-1.046526
C218	C	1.122440	0.003206	-0.713192
C219	C	1.455773	0.336540	-0.379859
C220	C	0.789092	-0.330144	-0.963980
C221	C	1.122426	0.003190	-0.630647
C222	C	1.455759	0.336523	-0.297313
C223	C	0.755632	-0.380696	-0.922680
C224	C	1.088966	-0.047363	-0.589347
C225	C	1.422299	0.285970	-0.256014
C226	C	0.722186	-0.431232	-0.963927
C227	C	1.055519	-0.097899	-0.630594
C228	C	1.388853	0.235434	-0.297260
C229	C	0.822542	-0.279614	-0.922727
C230	C	1.155875	0.053719	-0.589394
C231	C	1.489208	0.387052	-0.256061
C232	C	0.822530	-0.279630	-0.840176
C233	C	1.155863	0.053704	-0.506843
C234	C	1.489196	0.387037	-0.173510
C235	C	0.789066	-0.330179	-0.798875
C236	C	1.122400	0.003154	-0.465542
C237	C	1.455733	0.336488	-0.132209
C238	C	0.755618	-0.380716	-0.840127
C239	C	1.088952	-0.047383	-0.506793
C240	C	1.422285	0.285950	-0.173460
C241	C	0.722158	-0.431269	-0.798827
C242	C	1.055492	-0.097936	-0.465494
C243	C	1.388825	0.235398	-0.132161
C244	C	0.688707	-0.481803	-0.840077
C245	C	1.022041	-0.148469	-0.506744
C246	C	1.355374	0.184864	-0.173411
C247	C	0.688723	-0.481781	-0.922626
C248	C	1.022056	-0.148448	-0.589293
C249	C	1.355389	0.184885	-0.255959
C250	C	0.789051	-0.330200	-0.716327
C251	C	1.122384	0.003133	-0.382993
C252	C	1.455717	0.336466	-0.049660
C253	C	0.722144	-0.431289	-0.716274
C254	C	1.055478	-0.097956	-0.382940
C255	C	1.388811	0.235378	-0.049607
C256	C	0.755568	-0.380854	-0.175636
C257	C	1.088901	-0.047521	0.157697
C258	C	1.422235	0.285812	0.491031
C259	C	0.755660	-0.380660	-0.087780
C260	C	1.088993	-0.047326	0.245553
C261	C	1.422327	0.286007	0.578887
H262	H	0.695026	-1.079288	-0.289247
H263	H	1.028360	-0.745954	0.044087
H264	H	1.361693	-0.412621	0.377420
F265	F	0.199456	-0.225739	-0.226421
F266	F	0.532789	0.107595	0.106912
F267	F	0.866122	0.440928	0.440245
F268	F	0.686564	-0.671573	-0.276507
F269	F	1.019897	-0.338240	0.056826
F270	F	1.353230	-0.004907	0.390159
H271	H	0.849786	-0.238462	-0.956359
H272	H	1.183120	0.094871	-0.623026
H273	H	1.516453	0.428205	-0.289693
F274	F	0.450617	-0.276357	-0.276796
F275	F	0.783950	0.056976	0.056538
F276	F	1.117284	0.390309	0.389871
F277	F	0.824652	-0.276427	-0.672429
F278	F	1.157986	0.056906	-0.339096
F279	F	1.491319	0.390239	-0.005762
H280	H	0.661542	-0.805776	-0.238583
H281	H	0.994875	-0.472442	0.094751
H282	H	1.328209	-0.139109	0.428084
H283	H	-0.044864	-0.472716	-0.472629
H284	H	0.288469	-0.139383	-0.139296
H285	H	0.621802	0.193950	0.194037
F286	F	0.857944	-0.795008	-0.536101
F287	F	1.191278	-0.461675	-0.202768
F288	F	1.524611	-0.128341	0.130565
F289	F	0.858129	-0.225846	-0.796282
F290	F	1.191463	0.107487	-0.462949
F291	F	1.524796	0.440821	-0.129616
H292	H	0.849650	-0.955108	-0.523480
H293	H	1.182984	-0.621775	-0.190146
H294	H	1.516317	-0.288441	0.143187
F295	F	0.824623	-1.089314	-0.485547
F296	F	1.157957	-0.755981	-0.152213
F297	F	1.491290	-0.422648	0.181120
H298	H	0.661579	-0.955552	-0.238618
H299	H	0.994912	-0.622218	0.094715
H300	H	1.328246	-0.288885	0.428048
F301	F	0.563338	-0.276342	-0.276783
F302	F	0.896671	0.056991	0.056550
F303	F	1.230005	0.390324	0.389884
F304	F	0.563376	-0.485311	-0.485109
F305	F	0.896710	-0.151978	-0.151776
F306	F	1.230043	0.181355	0.181558
F307	F	0.824501	-0.671262	-0.485460
F308	F	1.157834	-0.337929	-0.152127
F309	F	1.491167	-0.004596	0.181207
H310	H	-0.044891	-0.289071	-0.289520
H311	H	0.288443	0.044262	0.043814
H312	H	0.621776	0.377596	0.377147
F313	F	0.060982	-0.276389	-0.276891
F314	F	0.394315	0.056944	0.056443
F315	F	0.727648	0.390277	0.389776
F316	F	0.686528	-0.485091	-0.672326
F317	F	1.019861	-0.151758	-0.338993
F318	F	1.353195	0.181575	-0.005660
F319	F	0.450674	-0.485317	-0.485152
F320	F	0.784008	-0.151984	-0.151819
F321	F	1.117341	0.181350	0.181514
H322	H	0.305381	-0.523291	-0.523021
H323	H	0.638714	-0.189958	-0.189687
H324	H	0.972048	0.143376	0.143646
H325	H	0.206335	-0.523297	-0.523046
H326	H	0.539669	-0.189964	-0.189713
H327	H	0.873002	0.143369	0.143621
F328	F	0.312157	-0.225729	-0.226405
F329	F	0.645490	0.107604	0.106929
F330	F	0.978823	0.440938	0.440262
F331	F	0.061029	-0.485367	-0.485228
F332	F	0.394363	-0.152034	-0.151895
F333	F	0.727696	0.181299	0.181438
H334	H	0.661466	-0.522966	-0.806441
H335	H	0.994800	-0.189633	-0.473107
H336	H	1.328133	0.143700	-0.139774
H337	H	0.661490	-0.522926	-0.956219
H338	H	0.994824	-0.189593	-0.622886
H339	H	1.328157	0.143741	-0.289552
F340	F	0.686599	-0.484989	-1.090381
F341	F	1.019932	-0.151656	-0.757048
F342	F	1.353266	0.181678	-0.423714
F343	F	0.824718	-0.276334	-1.090482
F344	F	1.158052	0.057000	-0.757148
F345	F	1.491385	0.390333	-0.423815
