data_functionalizedCrystal
_audit_creation_method	'MofGen! by Chris Wilmer'
_symmetry_space_group_name_H-M	'P1'
_symmetry_Int_Tables_number	1
_symmetry_cell_setting	triclinic
loop_
_symmetry_equiv_pos_as_xyz
  x,y,z
_cell_length_a	6.817900
_cell_length_b	24.578233
_cell_length_c	17.110486
_cell_angle_alpha	85.313489
_cell_angle_beta	80.939561
_cell_angle_gamma	108.243230
loop_
_atom_site_label
_atom_site_type_symbol
_atom_site_fract_x
_atom_site_fract_y
_atom_site_fract_z
V1	V	-4.000456	-0.078967	0.245544
O2	O	-3.964189	0.003970	0.242083
O3	O	-3.975506	-0.156748	0.242697
O4	O	-3.929929	-0.077676	0.353166
O5	O	-4.010082	-0.075649	0.130849
V6	V	-4.483913	-0.069056	0.231967
O7	O	-4.261860	-0.100708	0.275325
O8	O	-4.672706	-0.047315	0.202186
O9	O	-4.285657	0.008724	0.234813
O10	O	-4.637577	-0.151994	0.235428
O11	O	-4.591684	-0.072374	0.346661
O12	O	-4.331234	-0.070348	0.124345
C13	C	-3.826928	-0.175711	0.238523
C14	C	-3.887667	-0.239297	0.236913
C15	C	-3.768788	-0.074846	0.379435
C16	C	-3.792563	-0.074305	0.467410
C17	C	-4.014565	0.092463	0.240641
C18	C	-4.097581	0.027682	0.238992
C19	C	-4.240367	-0.599063	0.227914
C20	C	-4.183284	-0.539318	0.229437
C21	C	-3.972562	-0.506539	0.226299
C22	C	-3.818911	-0.533507	0.221629
C23	C	-3.875992	-0.593250	0.220101
C24	C	-3.791097	-0.326008	0.230714
C25	C	-3.734027	-0.266261	0.232246
C26	C	-4.098404	-0.272076	0.240052
C27	C	-4.155472	-0.331821	0.238528
C28	C	-4.001815	-0.358783	0.233854
C29	C	-3.914211	-0.445471	0.227858
C30	C	-4.060165	-0.419850	0.232289
V31	V	-4.140474	0.197839	0.236084
O32	O	-4.072984	0.282227	0.230686
O33	O	-4.147093	0.116830	0.237562
O34	O	-4.100867	0.195881	0.348059
O35	O	-4.119530	0.202629	0.119424
V36	V	-4.585397	0.223957	0.200754
O37	O	-4.400998	0.183669	0.255696
O38	O	-4.745984	0.252812	0.161427
O39	O	-4.369992	0.297684	0.209050
O40	O	-4.762699	0.143397	0.201011
O41	O	-4.716153	0.222995	0.312273
O42	O	-4.416219	0.218633	0.098553
C43	C	-4.155718	-0.073179	0.098071
C44	C	-4.111181	-0.073717	0.010096
C45	C	-4.187631	0.311066	0.220714
C46	C	-4.086727	0.373973	0.223247
C47	C	-3.955581	0.193301	0.381588
C48	C	-3.999573	0.193826	0.469576
C49	C	-3.985880	-0.076905	0.512729
C50	C	-4.008206	-0.076396	0.595390
C51	C	-3.837218	-0.073291	0.632731
C52	C	-3.643884	-0.070689	0.587405
C53	C	-3.621555	-0.071194	0.504745
C54	C	-3.895519	-0.071620	0.882110
C55	C	-3.917864	-0.071117	0.964777
C56	C	-4.282185	-0.076824	0.972756
C57	C	-4.259843	-0.077332	0.890094
C58	C	-4.066509	-0.074726	0.844775
C59	C	-3.860037	-0.072773	0.717223
C60	C	-4.043688	-0.075241	0.760283
C61	C	-4.246599	0.210229	0.079762
C62	C	-4.183185	0.209030	-0.007317
C63	C	-4.192745	0.197039	0.507079
C64	C	-4.234096	0.197541	0.589751
C65	C	-4.082278	0.194825	0.634920
C66	C	-3.889087	0.191613	0.597411
C67	C	-3.847733	0.191115	0.514740
C68	C	-3.994087	0.199863	-0.036505
C69	C	-3.934468	0.198740	-0.118325
C70	C	-4.063956	0.206781	-0.170955
C71	C	-4.253067	0.215951	-0.141763
C72	C	-4.312676	0.217077	-0.059945
H73	H	-4.411956	-0.625748	0.230474
H74	H	-3.888624	0.193315	0.006337
C75	C	-4.267406	-0.242412	0.245184
N76	N	-4.394705	-0.220068	0.249046
C77	C	-3.726459	0.188641	-0.150418
N78	N	-3.569794	0.181031	-0.174587
H79	H	-3.690434	0.188496	0.484213
H80	H	-3.765489	0.189401	0.634200
C81	C	-4.352325	-0.509666	0.234620
N82	N	-4.479663	-0.487334	0.238542
H83	H	-4.015325	0.205901	-0.237582
H84	H	-3.647331	-0.506813	0.219069
C85	C	-4.387276	-0.367873	0.241978
N86	N	-4.561875	-0.395028	0.244578
H87	H	-4.358478	0.222499	-0.184627
C88	C	-4.231768	-0.078656	0.719205
N89	N	-4.373430	-0.081230	0.688259
C90	C	-4.520709	0.227157	-0.027848
N91	N	-4.677407	0.234749	-0.003677
H92	H	-3.665968	-0.347952	0.226899
C93	C	-3.706974	-0.622911	0.214969
N94	N	-3.579662	-0.645250	0.211102
H95	H	-3.562429	-0.239574	0.229695
H96	H	-4.165619	-0.078511	0.632284
C97	C	-4.173986	-0.080321	0.471662
N98	N	-4.315673	-0.082891	0.440731
H99	H	-3.742636	-0.418776	0.225305
C100	C	-4.447941	-0.080741	0.849024
N101	N	-4.589618	-0.083308	0.818090
H102	H	-4.439591	-0.078944	1.009663
C103	C	-3.729749	-0.067698	1.005849
N104	N	-3.588069	-0.065123	1.036785
H105	H	-4.231733	-0.446540	0.234838
H106	H	-3.738118	-0.069519	0.845225
C107	C	-4.446625	0.201071	0.630995
N108	N	-4.606702	0.203729	0.662058
H109	H	-3.504660	-0.068157	0.617814
C110	C	-4.359775	0.200032	0.457407
N111	N	-4.485588	0.202291	0.419999
H112	H	-3.464124	-0.069062	0.467844
H113	H	-3.720824	-0.070247	0.747636
H114	H	-4.115979	0.195231	0.702236
