data_functionalizedCrystal
_audit_creation_method	'MofGen! by Chris Wilmer'
_symmetry_space_group_name_H-M	'P1'
_symmetry_Int_Tables_number	1
_symmetry_cell_setting	triclinic
loop_
_symmetry_equiv_pos_as_xyz
  x,y,z
_cell_length_a	27.732048
_cell_length_b	27.732048
_cell_length_c	26.809956
_cell_angle_alpha	90.003258
_cell_angle_beta	90.012074
_cell_angle_gamma	97.357346
loop_
_atom_site_label
_atom_site_type_symbol
_atom_site_fract_x
_atom_site_fract_y
_atom_site_fract_z
O1	O	-0.057510	0.640931	0.041407
O2	O	0.442490	1.140931	0.541407
O3	O	-0.066256	0.500138	0.041421
O4	O	0.433744	1.000138	0.541421
O5	O	0.008514	0.574907	0.041421
O6	O	0.508514	1.074907	0.541421
O7	O	-0.132280	0.566162	0.041408
O8	O	0.367720	1.066162	0.541408
O9	O	0.008502	0.574893	-0.041539
O10	O	0.508502	1.074893	0.458461
O11	O	-0.066267	0.500123	-0.041538
O12	O	0.433733	1.000123	0.458462
O13	O	-0.057522	0.640917	-0.041552
O14	O	0.442478	1.140917	0.458448
Zn15	Zn	-0.061896	0.570518	-0.054716
Zn16	Zn	0.438104	1.070518	0.445284
Zn17	Zn	-0.061881	0.570536	0.054586
Zn18	Zn	0.438119	1.070536	0.554586
O19	O	-0.132291	0.566147	-0.041551
O20	O	0.367709	1.066147	0.458449
C21	C	-0.066078	0.482124	-0.000056
C22	C	0.433922	0.982124	0.499944
C23	C	-0.065525	0.428469	-0.000051
C24	C	0.434475	0.928469	0.499949
C25	C	-0.106229	0.089654	-0.000076
C26	C	0.393771	0.589654	0.499924
C27	C	-0.104178	-0.112006	-0.000080
C28	C	0.395822	0.387994	0.499920
O29	O	-0.141398	-0.143262	-0.000105
O30	O	0.358602	0.356738	0.499895
N31	N	-0.059843	-0.131130	-0.000075
N32	N	0.440157	0.368870	0.499925
C33	C	-0.016017	-0.099835	-0.000073
C34	C	0.483983	0.400165	0.499927
O35	O	0.021740	-0.120728	-0.000074
O36	O	0.521740	0.379272	0.499926
C37	C	-0.018068	0.101824	-0.000072
C38	C	0.481932	0.601824	0.499928
C39	C	-0.062407	0.120944	-0.000072
C40	C	0.437593	0.620944	0.499928
C41	C	-0.150563	0.108775	-0.000076
C42	C	0.349437	0.608775	0.499924
C43	C	-0.151076	0.159187	-0.000072
C44	C	0.348924	0.659187	0.499928
C45	C	-0.107253	0.190477	-0.000068
C46	C	0.392747	0.690477	0.499932
C47	C	-0.062919	0.171356	-0.000068
C48	C	0.437081	0.671356	0.499932
C49	C	0.025757	0.133117	-0.000073
C50	C	0.525757	0.633117	0.499927
C51	C	0.025240	0.183535	-0.000074
C52	C	0.525240	0.683535	0.499926
C53	C	-0.019098	0.202655	-0.000074
C54	C	0.480902	0.702655	0.499926
C55	C	-0.019609	0.253059	-0.000060
C56	C	0.480391	0.753059	0.499940
N57	N	-0.063944	0.272183	-0.000065
N58	N	0.436056	0.772183	0.499935
C59	C	-0.107766	0.240892	-0.000069
C60	C	0.392234	0.740892	0.499931
C61	C	-0.014943	-0.205709	-0.000072
C62	C	0.485057	0.294291	0.499928
C63	C	-0.014430	-0.256124	-0.000071
C64	C	0.485570	0.243876	0.499929
C65	C	-0.102591	-0.268291	-0.000080
C66	C	0.397409	0.231709	0.499920
C67	C	-0.103104	-0.217876	-0.000077
C68	C	0.396896	0.282124	0.499923
C69	C	-0.059278	-0.186585	-0.000077
C70	C	0.440722	0.313415	0.499923
C71	C	-0.108839	0.346761	-0.000061
C72	C	0.391161	0.846761	0.499939
C73	C	-0.109347	0.397178	-0.000055
C74	C	0.390653	0.897178	0.499945
C75	C	-0.021186	0.409341	-0.000049
C76	C	0.478814	0.909341	0.499951
C77	C	-0.020678	0.358929	-0.000052
C78	C	0.479322	0.858929	0.499948
C79	C	-0.064508	0.327639	-0.000060
C80	C	0.435492	0.827639	0.499940
O81	O	0.017592	0.284343	-0.000041
O82	O	0.517592	0.784343	0.499959
O83	O	-0.145518	0.261794	-0.000079
O84	O	0.354482	0.761794	0.499921
C85	C	-0.105716	0.039242	-0.000080
C86	C	0.394284	0.539242	0.499920
C87	C	-0.061382	0.020120	-0.000079
C88	C	0.438618	0.520120	0.499921
C89	C	-0.017560	0.051411	-0.000075
C90	C	0.482440	0.551411	0.499925
C91	C	-0.060869	-0.030294	-0.000079
C92	C	0.439131	0.469706	0.499921
C93	C	-0.104691	-0.061585	-0.000083
C94	C	0.395309	0.438415	0.499917
C95	C	-0.149026	-0.042461	-0.000087
C96	C	0.350974	0.457539	0.499913
C97	C	-0.149539	0.007951	-0.000084
C98	C	0.350461	0.507951	0.499916
C99	C	0.026775	0.032287	-0.000071
C100	C	0.526775	0.532287	0.499929
C101	C	0.027284	-0.018125	-0.000074
C102	C	0.527284	0.481875	0.499926
C103	C	-0.016538	-0.049416	-0.000078
C104	C	0.483462	0.450584	0.499922
C105	C	-0.150292	0.566338	-0.000073
C106	C	0.349708	1.066338	0.499927
C107	C	-0.203947	0.566891	-0.000078
C108	C	0.296053	1.066891	0.499922
C109	C	-0.542762	0.526187	-0.000050
C110	C	-0.042762	1.026187	0.499950
C111	C	-0.744422	0.528238	-0.000044
C112	C	-0.244422	1.028238	0.499956
O113	O	-0.775677	0.491017	-0.000019
O114	O	-0.275677	0.991017	0.499981
N115	N	-0.763546	0.572573	-0.000049
N116	N	-0.263546	1.072573	0.499951
C117	C	-0.732251	0.616399	-0.000053
C118	C	-0.232251	1.116399	0.499947
O119	O	-0.753144	0.654156	-0.000052
O120	O	-0.253144	1.154156	0.499948
C121	C	-0.530592	0.614347	-0.000055
C122	C	-0.030592	1.114347	0.499945
C123	C	-0.511472	0.570009	-0.000055
C124	C	-0.011472	1.070009	0.499945
C125	C	-0.523641	0.481853	-0.000049
C126	C	-0.023641	0.981853	0.499951
C127	C	-0.473229	0.481340	-0.000054
C128	C	0.026771	0.981340	0.499946
C129	C	-0.441938	0.525162	-0.000058
C130	C	0.058062	1.025162	0.499942
C131	C	-0.461060	0.569497	-0.000059
C132	C	0.038940	1.069497	0.499941
C133	C	-0.499299	0.658172	-0.000054
C134	C	0.000701	1.158172	0.499946
C135	C	-0.448881	0.657656	-0.000054
C136	C	0.051119	1.157656	0.499946
C137	C	-0.429761	0.613317	-0.000054
C138	C	0.070239	1.113317	0.499946
C139	C	-0.379357	0.612807	-0.000068
C140	C	0.120643	1.112807	0.499932
N141	N	-0.360233	0.568472	-0.000063
N142	N	0.139767	1.068472	0.499937
C143	C	-0.391524	0.524649	-0.000058
C144	C	0.108476	1.024649	0.499942
C145	C	-0.838125	0.617473	-0.000052
C146	C	-0.338125	1.117473	0.499948
C147	C	-0.888539	0.617986	-0.000053
C148	C	-0.388539	1.117986	0.499947
C149	C	-0.900707	0.529825	-0.000044
C150	C	-0.400707	1.029825	0.499956
C151	C	-0.850291	0.529312	-0.000047
C152	C	-0.350291	1.029312	0.499953
C153	C	-0.819001	0.573138	-0.000047
C154	C	-0.319001	1.073138	0.499953
C155	C	-0.285655	0.523577	-0.000067
C156	C	0.214345	1.023577	0.499933
C157	C	-0.235238	0.523069	-0.000073
C158	C	0.264762	1.023069	0.499927
C159	C	-0.223075	0.611229	-0.000080
C160	C	0.276925	1.111229	0.499920
C161	C	-0.273487	0.611738	-0.000076
C162	C	0.226513	1.111738	0.499924
C163	C	-0.304777	0.567908	-0.000068
C164	C	0.195223	1.067908	0.499932
O165	O	-0.348073	0.650008	-0.000088
O166	O	0.151927	1.150008	0.499912
O167	O	-0.370621	0.486898	-0.000048
O168	O	0.129379	0.986898	0.499952
C169	C	-0.593174	0.526699	-0.000046
C170	C	-0.093174	1.026699	0.499954
C171	C	-0.612295	0.571034	-0.000046
C172	C	-0.112295	1.071034	0.499954
C173	C	-0.581005	0.614856	-0.000051
C174	C	-0.081005	1.114856	0.499949
C175	C	-0.662710	0.571547	-0.000047
C176	C	-0.162710	1.071547	0.499953
C177	C	-0.694001	0.527725	-0.000042
C178	C	-0.194001	1.027725	0.499958
C179	C	-0.674877	0.483389	-0.000037
C180	C	-0.174877	0.983389	0.499963
C181	C	-0.624465	0.482877	-0.000041
C182	C	-0.124465	0.982877	0.499959
C183	C	-0.600129	0.659191	-0.000056
C184	C	-0.100129	1.159191	0.499944
C185	C	-0.650541	0.659700	-0.000053
C186	C	-0.150541	1.159700	0.499947
C187	C	-0.681832	0.615878	-0.000048
C188	C	-0.181832	1.115878	0.499952
C189	C	0.026515	0.574716	-0.000056
C190	C	0.526515	1.074716	0.499944
C191	C	0.080170	0.574164	-0.000048
C192	C	0.580170	1.074164	0.499952
C193	C	-0.057699	0.658931	-0.000073
C194	C	0.442301	1.158931	0.499927
C195	C	-0.058252	0.712586	-0.000076
C196	C	0.441748	1.212586	0.499924
N197	N	-0.061906	0.570509	-0.129312
N198	N	0.438094	1.070509	0.370688
C199	C	-0.028781	0.603640	-0.473939
C200	C	0.471219	1.103640	0.026061
C201	C	-0.028774	0.603652	-0.682817
C202	C	0.471226	1.103652	-0.182817
O203	O	-0.000613	0.631801	-0.709821
O204	O	0.499387	1.131801	-0.209821
N205	N	-0.061870	0.570539	-0.708940
N206	N	0.438130	1.070539	-0.208940
C207	C	-0.094969	0.537419	-0.682840
C208	C	0.405031	1.037419	-0.182840
O209	O	-0.123116	0.509252	-0.709852
O210	O	0.376884	1.009252	-0.209852
C211	C	-0.094974	0.537406	-0.473963
C212	C	0.405026	1.037406	0.026037
C213	C	-0.061878	0.570524	-0.447843
C214	C	0.438122	1.070524	0.052157
C215	C	0.004312	0.636755	-0.447818
C216	C	0.504312	1.136755	0.052182
C217	C	0.004308	0.636754	-0.395602
C218	C	0.504308	1.136754	0.104398
C219	C	-0.028789	0.603637	-0.369506
C220	C	0.471211	1.103637	0.130494
C221	C	-0.061882	0.570522	-0.395627
C222	C	0.438118	1.070522	0.104373
C223	C	-0.128070	0.504284	-0.447865
C224	C	0.371930	1.004284	0.052135
C225	C	-0.128067	0.504283	-0.395642
C226	C	0.371933	1.004283	0.104358
C227	C	-0.094972	0.537401	-0.369522
C228	C	0.405028	1.037401	0.130478
C229	C	-0.094983	0.537405	-0.317314
C230	C	0.405017	1.037405	0.182686
N231	N	-0.061887	0.570517	-0.291191
N232	N	0.438113	1.070517	0.208809
C233	C	-0.028790	0.603633	-0.317287
C234	C	0.471210	1.103633	0.182713
C235	C	-0.094965	0.537429	-0.792503
C236	C	0.405035	1.037429	-0.292503
C237	C	-0.094964	0.537433	-0.844722
C238	C	0.405036	1.037433	-0.344722
C239	C	-0.028768	0.603665	-0.844695
C240	C	0.471232	1.103665	-0.344695
C241	C	-0.028772	0.603663	-0.792475
C242	C	0.471228	1.103663	-0.292475
C243	C	-0.061868	0.570542	-0.766380
C244	C	0.438132	1.070542	-0.266380
C245	C	-0.028801	0.603628	-0.207629
C246	C	0.471199	1.103628	0.292371
C247	C	-0.028809	0.603625	-0.155408
C248	C	0.471191	1.103625	0.344592
C249	C	-0.095003	0.537392	-0.155440
C250	C	0.404997	1.037392	0.344560
C251	C	-0.094997	0.537396	-0.207656
C252	C	0.405003	1.037396	0.292344
C253	C	-0.061892	0.570516	-0.233750
C254	C	0.438108	1.070516	0.266250
O255	O	-0.123126	0.509266	-0.290278
O256	O	0.376874	1.009266	0.209722
O257	O	-0.000640	0.631789	-0.290266
O258	O	0.499360	1.131789	0.209734
C259	C	-0.028777	0.603642	-0.526155
C260	C	0.471223	1.103642	-0.026155
C261	C	-0.061870	0.570527	-0.552275
C262	C	0.438130	1.070527	-0.052275
C263	C	-0.094968	0.537410	-0.526180
C264	C	0.405032	1.037410	-0.026180
C265	C	-0.061870	0.570531	-0.604494
C266	C	0.438130	1.070531	-0.104494
C267	C	-0.028773	0.603647	-0.630590
C268	C	0.471227	1.103647	-0.130590
C269	C	0.004324	0.636759	-0.604467
C270	C	0.504324	1.136759	-0.104467
C271	C	0.004320	0.636758	-0.552251
C272	C	0.504320	1.136758	-0.052251
C273	C	-0.128064	0.504298	-0.552303
C274	C	0.371936	1.004298	-0.052303
C275	C	-0.128058	0.504303	-0.604519
C276	C	0.371942	1.004303	-0.104519
C277	C	-0.094961	0.537419	-0.630615
C278	C	0.405039	1.037419	-0.130615
N279	N	-0.061867	0.570549	0.129182
N280	N	0.438133	1.070549	0.629182
H281	H	-0.138273	-0.293777	-0.000083
H282	H	0.361727	0.206223	0.499917
H283	H	0.031266	0.663722	-0.469061
H284	H	0.531266	1.163722	0.030939
H285	H	-0.834727	0.493208	-0.000049
H286	H	-0.334727	0.993208	0.499951
H287	H	-0.145454	0.412743	-0.000054
H288	H	0.354546	0.912743	0.499946
Cl289	Cl	-0.136578	0.495789	-0.759704
Cl290	Cl	0.363422	0.995789	-0.259704
Cl291	Cl	0.045930	0.678392	-0.637284
Cl292	Cl	0.545930	1.178392	-0.137284
Cl293	Cl	-0.714223	0.428299	-0.000033
Cl294	Cl	-0.214223	0.928299	0.499967
H295	H	-0.514857	0.694277	-0.000054
H296	H	-0.014857	1.194277	0.499946
Cl297	Cl	0.012799	0.645263	-0.122574
Cl298	Cl	0.512799	1.145263	0.377426
H299	H	-0.144530	0.321291	-0.000068
H300	H	0.355470	0.821291	0.499932
Cl301	Cl	-0.940053	0.474734	-0.000037
Cl302	Cl	-0.440053	0.974734	0.499963
H303	H	0.021674	-0.271687	-0.000064
H304	H	0.521674	0.228313	0.499936
Cl305	Cl	-0.206818	0.183216	-0.000076
Cl306	Cl	0.293182	0.683216	0.499924
H307	H	0.031269	0.663725	-0.530988
H308	H	0.531269	1.163725	-0.030988
Cl309	Cl	-0.912570	0.673727	-0.000060
Cl310	Cl	-0.412570	1.173727	0.499940
Cl311	Cl	-0.169670	0.462666	-0.637350
Cl312	Cl	0.330330	0.962666	-0.137350
Cl313	Cl	-0.600435	0.427135	-0.000039
Cl314	Cl	-0.100435	0.927135	0.499961
H315	H	0.063392	-0.033688	-0.000070
H316	H	0.563392	0.466312	0.499930
Cl317	Cl	0.045918	0.678386	-0.362771
Cl318	Cl	0.545918	1.178386	0.137229
H319	H	-0.186251	0.083302	-0.000081
H320	H	0.313749	0.583302	0.499919
Cl321	Cl	0.035062	0.334890	-0.000055
Cl322	Cl	0.535062	0.834890	0.499945
H323	H	-0.001822	0.630630	-0.771211
H324	H	0.498178	1.130630	-0.271211
H325	H	-0.812652	0.653163	-0.000054
H326	H	-0.312652	1.153163	0.499946
Cl327	Cl	-0.674571	0.715445	-0.000052
Cl328	Cl	-0.174571	1.215445	0.499948
Cl329	Cl	0.081872	0.071617	-0.000066
Cl330	Cl	0.581872	0.571617	0.499934
Cl331	Cl	-0.409548	0.712754	-0.000053
Cl332	Cl	0.090452	1.212754	0.499947
Cl333	Cl	0.012840	0.645296	-0.877512
Cl334	Cl	0.512840	1.145296	-0.377512
H335	H	0.020747	-0.180236	-0.000072
H336	H	0.520747	0.319764	0.499928
H337	H	-0.289056	0.647842	-0.000084
H338	H	0.210944	1.147842	0.499916
Cl339	Cl	-0.183729	0.666317	-0.000089
Cl340	Cl	0.316271	1.166317	0.499911
Cl341	Cl	0.080338	0.222868	-0.000075
Cl342	Cl	0.580338	0.722868	0.499925
Cl343	Cl	-0.560799	0.714288	-0.000064
Cl344	Cl	-0.060799	1.214288	0.499936
Cl345	Cl	0.012817	0.645266	-0.240424
Cl346	Cl	0.512817	1.145266	0.259576
Cl347	Cl	-0.136578	0.495804	-0.877553
Cl348	Cl	0.363422	0.995804	-0.377553
H349	H	-0.155015	0.477330	-0.531059
H350	H	0.344985	0.977330	-0.031059
Cl351	Cl	-0.169677	0.462641	-0.362841
Cl352	Cl	0.330323	0.962641	0.137159
H353	H	-0.219673	0.486962	-0.000076
H354	H	0.280327	0.986962	0.499924
Cl355	Cl	-0.169676	0.462647	-0.480691
Cl356	Cl	0.330324	0.962647	0.019309
Cl357	Cl	-0.205281	0.031981	-0.000084
Cl358	Cl	0.294719	0.531981	0.499916
Cl359	Cl	-0.204117	-0.081807	-0.000090
Cl360	Cl	0.295883	0.418193	0.499910
Cl361	Cl	-0.136609	0.495766	-0.240492
Cl362	Cl	0.363391	0.995766	0.259508
H363	H	-0.121952	0.510430	-0.134184
H364	H	0.378048	1.010430	0.365816
Cl365	Cl	0.081500	0.109093	-0.000065
Cl366	Cl	0.581500	0.609093	0.499935
H367	H	-0.457666	0.445236	-0.000049
H368	H	0.042334	0.945236	0.499951
Cl369	Cl	-0.158845	-0.193844	-0.000078
Cl370	Cl	0.341155	0.306156	0.499922
H371	H	-0.311125	0.487886	-0.000060
H372	H	0.188875	0.987886	0.499940
Cl373	Cl	-0.562970	0.426754	-0.000043
Cl374	Cl	-0.062970	0.926754	0.499957
H375	H	0.014492	0.434827	-0.000044
H376	H	0.514492	0.934827	0.499956
