data_functionalizedCrystal
_audit_creation_method	'MofGen! by Chris Wilmer'
_symmetry_space_group_name_H-M	'P1'
_symmetry_Int_Tables_number	1
_symmetry_cell_setting	triclinic
loop_
_symmetry_equiv_pos_as_xyz
  x,y,z
_cell_length_a	16.109304
_cell_length_b	16.109301
_cell_length_c	17.666332
_cell_angle_alpha	89.993011
_cell_angle_beta	89.996336
_cell_angle_gamma	83.462111
loop_
_atom_site_label
_atom_site_type_symbol
_atom_site_fract_x
_atom_site_fract_y
_atom_site_fract_z
O1	O	-0.106869	-1.103139	0.062902
O2	O	-0.120168	-0.861077	0.062912
O3	O	0.007512	-0.988756	0.062907
O4	O	-0.234550	-0.975459	0.062907
O5	O	0.007519	-0.988734	-0.062990
O6	O	-0.120162	-0.861054	-0.062985
O7	O	-0.106863	-1.103116	-0.062995
Cu8	Cu	-0.113512	-0.982083	-0.074485
Cu9	Cu	-0.113520	-0.982110	0.074402
O10	O	-0.234543	-0.975437	-0.062990
C11	C	-0.119626	-0.830091	-0.000035
C12	C	-0.118011	-0.737795	-0.000031
C13	C	0.038490	-0.988206	-0.000040
C14	C	0.130785	-0.986590	-0.000034
C15	C	-0.107405	-1.134102	-0.000046
C16	C	-0.109020	-1.226398	-0.000045
C17	C	-0.265521	-0.975987	-0.000042
C18	C	-0.357816	-0.977603	-0.000042
C19	C	0.343119	-0.982868	0.068589
C20	C	0.429839	-0.981342	0.068589
C21	C	0.429844	-0.981322	-0.068671
C22	C	0.343124	-0.982842	-0.068669
C23	C	0.299765	-0.983620	-0.000037
C24	C	0.473204	-0.980573	-0.000039
C25	C	0.567230	-0.978919	-0.000040
C26	C	0.205733	-0.985273	-0.000036
C27	C	-0.188494	-0.428798	-0.000044
C28	C	-0.190020	-0.515518	-0.000040
C29	C	-0.038531	-0.535390	-0.000030
C30	C	-0.037007	-0.448671	-0.000029
C31	C	-0.111991	-0.395377	-0.000040
C32	C	-0.115040	-0.568816	-0.000036
C33	C	-0.116694	-0.662842	-0.000032
C34	C	-0.110338	-0.301345	-0.000043
N35	N	-0.113505	-0.982071	-0.179205
C36	C	-0.056996	-1.038625	-0.218816
C37	C	-0.056992	-1.038630	-0.298064
C38	C	-0.113512	-0.982088	-0.337697
C39	C	-0.170025	-0.925523	-0.298075
C40	C	-0.170022	-0.925514	-0.218829
N41	N	-0.187081	-0.971486	-0.462115
N42	N	-0.187081	-0.971499	-0.537396
C43	C	-0.113523	-0.982110	-0.576461
N44	N	-0.039962	-0.992724	-0.537402
N45	N	-0.039963	-0.992714	-0.462114
C46	C	-0.113521	-0.982091	-0.423626
C47	C	-0.057005	-1.038673	-0.702002
C48	C	-0.057000	-1.038672	-0.781251
C49	C	-0.170040	-0.925569	-0.781261
C50	C	-0.170038	-0.925566	-0.702013
C51	C	-0.113521	-0.982122	-0.662389
N52	N	-0.113519	-0.982129	0.179122
H53	H	0.307818	-0.983499	0.124474
H54	H	-0.010979	-1.084723	-0.813504
C55	C	0.477538	-0.980473	-0.144162
H56	H	0.439294	-0.981129	-0.185033
H57	H	0.517722	-1.028333	-0.147018
H58	H	0.505012	-0.931418	-0.147013
H59	H	0.307824	-0.983449	-0.124557
H60	H	0.025296	-0.421460	-0.000022
C61	C	-0.232211	-0.863373	-0.824847
H62	H	-0.224123	-0.871480	-0.877717
H63	H	-0.223165	-0.807890	-0.811871
H64	H	-0.287705	-0.872390	-0.811853
C65	C	0.005165	-1.100844	-0.341650
H66	H	-0.002930	-1.092745	-0.394521
H67	H	-0.003886	-1.156323	-0.328651
H68	H	0.060663	-1.091833	-0.328674
C69	C	-0.270973	-0.370177	-0.000044
H70	H	-0.316753	-0.402505	-0.000038
H71	H	-0.273528	-0.335926	-0.043945
H72	H	-0.273527	-0.335945	0.043867
H73	H	-0.216057	-0.879517	-0.669759
H74	H	-0.252316	-0.542724	-0.000043
H75	H	0.022518	-0.578792	-0.000022
C76	C	0.005178	-1.100826	-0.175234
H77	H	0.038839	-1.134504	-0.210180
H78	H	-0.024736	-1.135421	-0.144306
H79	H	0.039803	-1.070920	-0.144334
H80	H	-0.216043	-0.879484	-0.330348
H81	H	-0.010983	-1.084723	-0.669738
C82	C	0.477526	-0.980524	0.144078
H83	H	0.439281	-0.981212	0.184950
H84	H	0.505003	-0.931478	0.146937
H85	H	0.517709	-1.028393	0.146925
C86	C	-0.232191	-0.863307	-0.175254
H87	H	-0.265855	-0.829635	-0.210205
H88	H	-0.202273	-0.828708	-0.144346
H89	H	-0.266812	-0.893208	-0.144336
