data_functionalizedCrystal
_audit_creation_method	'MofGen! by Chris Wilmer'
_symmetry_space_group_name_H-M	'P1'
_symmetry_Int_Tables_number	1
_symmetry_cell_setting	triclinic
loop_
_symmetry_equiv_pos_as_xyz
  x,y,z
_cell_length_a	19.288864
_cell_length_b	10.654550
_cell_length_c	18.366186
_cell_angle_alpha	89.994973
_cell_angle_beta	89.977106
_cell_angle_gamma	83.810575
loop_
_atom_site_label
_atom_site_type_symbol
_atom_site_fract_x
_atom_site_fract_y
_atom_site_fract_z
O1	O	0.922379	0.156657	-0.060782
O2	O	0.720256	0.177789	-0.060732
O3	O	0.825965	-0.015616	-0.060755
O4	O	0.816670	0.350062	-0.060758
O5	O	0.825946	-0.015625	0.060344
O6	O	0.720238	0.177780	0.060368
O7	O	0.922360	0.156647	0.060318
Zn8	Zn	0.821296	0.167212	0.079570
Zn9	Zn	0.821320	0.167224	-0.079984
O10	O	0.816652	0.350052	0.060341
C11	C	0.694366	0.177105	-0.000176
C12	C	0.617249	0.175063	-0.000156
C13	C	0.573296	0.288545	-0.000169
C14	C	0.500836	0.286627	-0.000177
C15	C	0.472333	0.171222	-0.000187
C16	C	0.516296	0.057725	-0.000171
C17	C	0.588754	0.059646	-0.000155
C18	C	0.363484	0.080503	-0.042637
C19	C	0.291027	0.078587	-0.042657
C20	C	0.248849	0.165292	-0.000231
C21	C	0.279136	0.253935	0.042205
C22	C	0.351594	0.255855	0.042221
C23	C	0.393766	0.169126	-0.000203
C24	C	0.126326	0.276702	-0.000251
C25	C	0.053865	0.274779	-0.000255
C26	C	0.069327	0.045875	-0.000256
C27	C	0.141786	0.047800	-0.000245
C28	C	0.170281	0.163217	-0.000246
C29	C	0.825273	-0.062404	-0.000206
C30	C	0.823231	-0.201803	-0.000208
C31	C	0.885471	-0.282621	-0.000221
C32	C	0.883548	-0.413601	-0.000226
C33	C	0.757141	-0.382932	-0.000201
C34	C	0.759065	-0.251955	-0.000202
C35	C	0.958451	-0.300329	-0.000232
C36	C	0.956528	-0.431309	-0.000237
C37	C	0.948250	0.157332	-0.000240
C38	C	1.025367	0.159373	-0.000264
C39	C	0.817344	0.396840	-0.000209
C40	C	0.819385	0.536240	-0.000212
N41	N	0.821285	0.167203	0.188461
N42	N	0.821337	0.167224	-0.188875
C43	C	0.868108	0.081605	0.226551
C44	C	0.868113	0.081599	0.302779
C45	C	0.821300	0.167213	0.340914
C46	C	0.774468	0.252817	0.302815
C47	C	0.774461	0.252812	0.226588
C48	C	0.812752	0.281634	0.461675
C49	C	0.812764	0.281641	0.537899
C50	C	0.821320	0.167229	0.576021
C51	C	0.829879	0.052804	0.537909
C52	C	0.829871	0.052799	0.461682
C53	C	0.821303	0.167228	0.423569
C54	C	0.868151	0.081618	0.696766
C55	C	0.868151	0.081610	0.772995
C56	C	0.774509	0.252840	0.773030
C57	C	0.774507	0.252836	0.696802
C58	C	0.821331	0.167226	0.658675
H59	H	0.493084	-0.036239	-0.000189
H60	H	0.736331	0.322517	0.195575
H61	H	0.596492	0.382526	-0.000171
H62	H	0.149528	0.370681	-0.000241
N63	N	0.839127	-0.070606	0.579016
H64	H	0.844555	-0.143088	0.543306
H65	H	0.882107	-0.073400	0.610612
N66	N	0.636167	-0.062756	-0.000138
H67	H	0.607118	-0.136160	-0.000143
H68	H	0.666591	-0.066945	-0.045026
H69	H	0.397820	0.009895	-0.077190
H70	H	0.984018	-0.473662	0.050435
H71	H	0.465043	0.379040	-0.000185
N72	N	0.384256	0.351444	0.087998
H73	H	0.417413	0.306110	0.124283
H74	H	0.410659	0.406156	0.055460
H75	H	0.906234	0.011894	0.195510
H76	H	0.805800	0.374812	0.568925
H77	H	0.906243	0.011892	0.333797
H78	H	0.708383	-0.186156	-0.000201
N79	N	0.233655	0.347468	0.087965
H80	H	0.183158	0.332802	0.081520
H81	H	0.247086	0.336062	0.140887
N82	N	0.723973	0.345153	0.343940
H83	H	0.731084	0.332170	0.398010
H84	H	0.732418	0.434205	0.330604
N85	N	0.687936	-0.437024	-0.000195
H86	H	0.696160	-0.532262	-0.000199
H87	H	0.660664	-0.407443	0.044704
N88	N	0.189196	-0.074601	-0.000248
H89	H	0.239422	-0.055873	-0.000238
H90	H	0.179882	-0.124923	0.044641
N91	N	0.006454	0.397183	-0.000210
H92	H	0.035504	0.470585	-0.000193
H93	H	-0.023947	0.401431	-0.045090
H94	H	0.836838	-0.040369	0.430654
H95	H	0.046120	-0.048091	-0.000309
N96	N	0.989157	-0.253770	0.069049
H97	H	1.002589	-0.327612	0.102519
H98	H	1.031878	-0.210693	0.057006
H99	H	0.805772	0.374809	0.430642
H100	H	0.978591	-0.477420	-0.052530
N101	N	0.918637	-0.010717	0.655624
H102	H	0.968004	0.003505	0.668857
H103	H	0.910149	-0.099770	0.668910
H104	H	0.906278	0.011900	0.804009
H105	H	0.987003	-0.271578	-0.050916
H106	H	0.266373	0.006414	-0.077214
N107	N	0.724012	0.345173	0.814150
H108	H	0.731120	0.332187	0.868219
H109	H	0.732459	0.434226	0.800816
H110	H	0.736381	0.322543	0.665787
