data_functionalizedCrystal
_audit_creation_method	'MofGen! by Chris Wilmer'
_symmetry_space_group_name_H-M	'P1'
_symmetry_Int_Tables_number	1
_symmetry_cell_setting	triclinic
loop_
_symmetry_equiv_pos_as_xyz
  x,y,z
_cell_length_a	12.759401
_cell_length_b	12.759400
_cell_length_c	12.759393
_cell_angle_alpha	89.968954
_cell_angle_beta	89.979527
_cell_angle_gamma	90.016209
loop_
_atom_site_label
_atom_site_type_symbol
_atom_site_fract_x
_atom_site_fract_y
_atom_site_fract_z
Zn1	Zn	1.606262	-0.418167	-0.594020
Zn2	Zn	1.606154	-0.593884	-0.418340
Zn3	Zn	1.430562	-0.418225	-0.418355
Zn4	Zn	1.430552	-0.593809	-0.593978
O5	O	1.518383	-0.506021	-0.506173
O6	O	1.753268	-0.441484	-0.570727
O7	O	1.582821	-0.570638	-0.271321
O8	O	1.453918	-0.271196	-0.441682
O9	O	1.753189	-0.570582	-0.441656
O10	O	1.583004	-0.271154	-0.570742
O11	O	1.453814	-0.441582	-0.271332
O12	O	1.283540	-0.441509	-0.441640
O13	O	1.453902	-0.570454	-0.741004
O14	O	1.283533	-0.570510	-0.570669
O15	O	1.582994	-0.441411	-0.741036
O16	O	1.582811	-0.740895	-0.441615
O17	O	1.453797	-0.740840	-0.570655
C18	C	1.245415	-0.506008	-0.506152
C19	C	1.128639	-0.506028	-0.506168
C20	C	1.073800	-0.573301	-0.573248
C21	C	0.964076	-0.573305	-0.573269
C22	C	0.964038	-0.438760	-0.439122
C23	C	1.073760	-0.438752	-0.439107
C24	C	0.814179	-0.611003	-0.697129
C25	C	0.759338	-0.678292	-0.764200
C26	C	0.794935	-0.780823	-0.780148
C27	C	0.885373	-0.816085	-0.729010
C28	C	0.940209	-0.748801	-0.661932
C29	C	0.904613	-0.646256	-0.646004
C30	C	1.223659	-0.401065	-0.315245
C31	C	1.278497	-0.333786	-0.248161
C32	C	1.242902	-0.231253	-0.232202
C33	C	1.152461	-0.195995	-0.283321
C34	C	1.097622	-0.263274	-0.350406
C35	C	1.133226	-0.365806	-0.366366
C36	C	1.518320	-0.778989	-0.506151
C37	C	1.518390	-0.895765	-0.506177
C38	C	1.585642	-0.950621	-0.439060
C39	C	1.585706	-1.060345	-0.439093
C40	C	1.451258	-1.060348	-0.573362
C41	C	1.451199	-0.950626	-0.573334
C42	C	1.652832	-0.895761	-0.371904
C43	C	1.720089	-0.950617	-0.304781
C44	C	1.720153	-1.060341	-0.304813
C45	C	1.652961	-1.115209	-0.371969
C46	C	1.792416	-0.506035	-0.506195
C47	C	1.909192	-0.506041	-0.506204
C48	C	1.518459	-0.505918	-0.780207
C49	C	1.518491	-0.505874	-0.896984
C50	C	1.518474	-0.231988	-0.506218
C51	C	1.518513	-0.115211	-0.506238
C52	C	1.585737	-0.438630	-1.061595
C53	C	1.585717	-0.438671	-0.951871
C54	C	1.451290	-0.573047	-0.951826
C55	C	1.451316	-0.573011	-1.061548
C56	C	1.709599	-0.401190	-0.801943
C57	C	1.776789	-0.334007	-0.747104
C58	C	1.792964	-0.231482	-0.782739
C59	C	1.741933	-0.196119	-0.873210
C60	C	1.674735	-0.263297	-0.928043
C61	C	1.658581	-0.365836	-0.892410
C62	C	1.327432	-0.610481	-1.211478
C63	C	1.260228	-0.677654	-1.266313
C64	C	1.244043	-0.780181	-1.230681
C65	C	1.295055	-0.815540	-1.140206
C66	C	1.362259	-0.748367	-1.085371
C67	C	1.378445	-0.645841	-1.121011
C68	C	1.518367	-0.506049	-0.233206
C69	C	1.518538	-0.505797	-0.116430
H70	H	1.013841	-0.777511	-0.620296
H71	H	1.847671	-0.176782	-0.738081
C72	C	0.903674	-0.364766	-0.365352
H73	H	0.952051	-0.324692	-0.325407
H74	H	0.860840	-0.404902	-0.319511
H75	H	0.860902	-0.319037	-0.405634
H76	H	1.352139	-0.362502	-0.206536
C77	C	0.924522	-0.928874	-0.746549
H78	H	0.878916	-0.963892	-0.793828
H79	H	0.925534	-0.965213	-0.681559
H80	H	0.993272	-0.927096	-0.775104
H81	H	1.774801	-0.905937	-0.250111
H82	H	1.281878	-0.899027	-1.111194
H83	H	1.696447	-0.484678	-0.772927
C84	C	1.418371	-0.787260	-0.985848
H85	H	1.399113	-0.857945	-0.972479
H86	H	1.398566	-0.744813	-0.928000
H87	H	1.492058	-0.783032	-0.995678
C88	C	1.170121	-0.854070	-1.291001
H89	H	1.142055	-0.818332	-1.349990
H90	H	1.114612	-0.875631	-1.246278
H91	H	1.208106	-0.913829	-1.313965
C92	C	1.377374	-0.647003	-0.891458
H93	H	1.337373	-0.687017	-0.939834
H94	H	1.331590	-0.606856	-0.848643
H95	H	1.417573	-0.692790	-0.848668
H96	H	0.785194	-0.527510	-0.684161
H97	H	1.396437	-0.905962	-0.627988
C98	C	0.659872	-0.639506	-0.820464
H99	H	0.632307	-0.694268	-0.862686
H100	H	0.676845	-0.581124	-0.863476
H101	H	0.609091	-0.619217	-0.769933
H102	H	0.750276	-0.835610	-0.834759
H103	H	1.652784	-0.806418	-0.371867
C104	C	0.998144	-0.224488	-0.406646
H105	H	0.984800	-0.153784	-0.387543
H106	H	0.940265	-0.266930	-0.386782
H107	H	1.008010	-0.228807	-0.480319
H108	H	1.123466	-0.112511	-0.270311
H109	H	1.287556	-0.176478	-0.177567
H110	H	1.252656	-0.484553	-0.328242
C111	C	1.794132	-1.120680	-0.230984
H112	H	1.834131	-1.072289	-0.190982
H113	H	1.839915	-1.163412	-0.271219
H114	H	1.753979	-1.163551	-0.185182
C115	C	1.377345	-1.120700	-0.647217
H116	H	1.387005	-1.193903	-0.637613
H117	H	1.392670	-1.102653	-0.717818
H118	H	1.306750	-1.102787	-0.631765
C119	C	1.204119	-0.638761	-1.365838
H120	H	1.223393	-0.568083	-1.379218
H121	H	1.130436	-0.642989	-1.356018
H122	H	1.223933	-0.681214	-1.423686
H123	H	1.340610	-0.526996	-1.240503
C124	C	1.832927	-0.372908	-0.647598
H125	H	1.813688	-0.443599	-0.634237
H126	H	1.813121	-0.330475	-0.589739
H127	H	1.906611	-0.368660	-0.657439
H128	H	1.633175	-0.234500	-1.001694
H129	H	1.653028	-1.204553	-0.371998
H130	H	1.118479	-0.628080	-0.627857
C131	C	1.659688	-0.364708	-1.121961
H132	H	1.699713	-0.324721	-1.073584
H133	H	1.619531	-0.318912	-1.164771
H134	H	1.705464	-0.404897	-1.164757
H135	H	1.755098	-0.112628	-0.902209
