data_functionalizedCrystal
_audit_creation_method	'MofGen! by Chris Wilmer'
_symmetry_space_group_name_H-M	'P1'
_symmetry_Int_Tables_number	1
_symmetry_cell_setting	triclinic
loop_
_symmetry_equiv_pos_as_xyz
  x,y,z
_cell_length_a	18.101398
_cell_length_b	18.050590
_cell_length_c	18.101389
_cell_angle_alpha	90.019149
_cell_angle_beta	90.009745
_cell_angle_gamma	90.014109
loop_
_atom_site_label
_atom_site_type_symbol
_atom_site_fract_x
_atom_site_fract_y
_atom_site_fract_z
Zn1	Zn	1.132186	-0.295825	0.418547
Zn2	Zn	1.632186	0.204175	0.918547
Zn3	Zn	1.132109	-0.420000	0.294704
Zn4	Zn	1.632109	0.080000	0.794704
Zn5	Zn	1.008344	-0.295818	0.294740
Zn6	Zn	1.508344	0.204182	0.794740
Zn7	Zn	1.008322	-0.419968	0.418524
Zn8	Zn	1.508322	0.080032	0.918524
O9	O	1.070240	-0.357903	0.356628
O10	O	1.570240	0.142097	0.856628
O11	O	1.235808	-0.312313	0.402113
O12	O	1.735808	0.187687	0.902113
O13	O	1.115668	-0.403537	0.191076
O14	O	1.615668	0.096463	0.691076
O15	O	1.024814	-0.191895	0.311187
O16	O	1.524814	0.308105	0.811187
O17	O	1.235752	-0.403544	0.311126
O18	O	1.735752	0.096456	0.811126
O19	O	1.115799	-0.191900	0.402148
O20	O	1.615799	0.308100	0.902148
O21	O	1.024739	-0.312301	0.191102
O22	O	1.524739	0.187699	0.691102
O23	O	0.904709	-0.312271	0.311165
O24	O	1.404709	0.187729	0.811165
O25	O	1.024776	-0.403491	0.522160
O26	O	1.524776	0.096509	1.022160
O27	O	0.904692	-0.403484	0.402109
O28	O	1.404692	0.096516	0.902109
O29	O	1.115778	-0.312283	0.522177
O30	O	1.615778	0.187717	1.022177
O31	O	1.115647	-0.523920	0.311104
O32	O	1.615647	-0.023920	0.811104
O33	O	1.024701	-0.523897	0.402074
O34	O	1.524701	-0.023897	0.902074
C35	C	0.877830	-0.357874	0.356639
C36	C	1.377830	0.142126	0.856639
C37	C	0.795516	-0.357879	0.356661
C38	C	1.295516	0.142121	0.856661
C39	C	0.496425	-0.357923	0.356630
C40	C	0.996425	0.142077	0.856630
C41	C	0.527764	-0.415589	0.413567
C42	C	1.027764	0.084411	0.913567
C43	C	0.613383	-0.415408	0.413801
C44	C	1.113383	0.084592	0.913801
C45	C	0.644807	-0.357902	0.356645
C46	C	1.144807	0.142098	0.856645
C47	C	0.613736	-0.279684	0.377974
C48	C	1.113736	0.220316	0.877974
C49	C	0.528091	-0.280030	0.378379
C50	C	1.028091	0.219970	0.878379
C51	C	0.527976	-0.377785	0.278227
C52	C	1.027976	0.122215	0.778227
C53	C	0.613627	-0.379502	0.278646
C54	C	1.113627	0.120498	0.778646
C55	C	0.728667	-0.357885	0.356653
C56	C	1.228667	0.142115	0.856653
C57	C	0.412565	-0.357934	0.356624
C58	C	0.912565	0.142066	0.856624
C59	C	1.070183	-0.550855	0.356599
C60	C	1.570183	-0.050855	0.856599
C61	C	1.070227	-0.633401	0.356611
C62	C	1.570227	-0.133401	0.856611
C63	C	1.119786	-0.832837	0.307211
C64	C	1.619786	-0.332837	0.807211
C65	C	1.137875	-0.882182	0.374798
C66	C	1.637875	-0.382182	0.874798
C67	C	1.070269	-0.784531	0.356641
C68	C	1.570269	-0.284531	0.856641
C69	C	1.052255	-0.882268	0.289084
C70	C	1.552255	-0.382268	0.789084
C71	C	1.070311	-0.930516	0.356663
C72	C	1.570311	-0.430516	0.856663
C73	C	1.088393	-0.832789	0.424263
C74	C	1.588393	-0.332789	0.924263
C75	C	1.002741	-0.832871	0.338504
C76	C	1.502741	-0.332871	0.838504
C77	C	1.020805	-0.882193	0.406138
C78	C	1.520805	-0.382193	0.906138
C79	C	1.070246	-0.700433	0.356627
C80	C	1.570246	-0.200433	0.856627
C81	C	1.070333	-1.014613	0.356685
C82	C	1.570333	-0.514613	0.856685
C83	C	1.263402	-0.357933	0.356619
C84	C	1.763402	0.142067	0.856619
C85	C	1.345716	-0.357946	0.356614
C86	C	1.845716	0.142054	0.856614
C87	C	1.070283	-0.357884	0.549790
C88	C	1.570283	0.142116	1.049790
C89	C	1.070301	-0.357876	0.632105
C90	C	1.570301	0.142124	1.132105
C91	C	1.070318	-0.164197	0.356674
C92	C	1.570318	0.335803	0.856674
C93	C	1.070350	-0.081652	0.356694
C94	C	1.570350	0.418348	0.856694
C95	C	1.070240	-0.357868	0.164218
C96	C	1.570240	0.142132	0.664218
C97	C	1.070365	-0.357667	0.081904
C98	C	1.570365	0.142333	0.581904
C99	C	1.070344	-0.357737	0.931196
C100	C	1.570344	0.142263	1.431196
C101	C	1.012891	-0.414940	0.899860
C102	C	1.512891	0.085060	1.399860
C103	C	1.013047	-0.415205	0.814242
C104	C	1.513047	0.084795	1.314242
C105	C	1.070322	-0.357806	0.782813
C106	C	1.570322	0.142194	1.282813
C107	C	1.148352	-0.379056	0.813899
C108	C	1.648352	0.120944	1.313899
C109	C	1.148032	-0.379431	0.899544
C110	C	1.648032	0.120569	1.399544
C111	C	1.050446	-0.279157	0.899626
C112	C	1.550446	0.220843	1.399626
C113	C	1.048710	-0.279611	0.813975
C114	C	1.548710	0.220389	1.313975
C115	C	1.070315	-0.357844	0.698954
C116	C	1.570315	0.142156	1.198954
C117	C	1.070357	-0.357701	1.015055
C118	C	1.570357	0.142299	1.515055
H119	H	0.635018	-0.340549	0.233945
H120	H	1.135018	0.159451	0.733945
N121	N	0.500774	-0.399321	0.486021
N122	N	1.000774	0.100679	0.986021
N123	N	0.432840	-0.399526	0.498394
N124	N	0.932840	0.100474	0.998394
H125	H	0.413776	-0.388035	0.549565
H126	H	0.913776	0.111965	1.049565
N127	N	0.640662	-0.258155	0.449089
N128	N	1.140662	0.241845	0.949089
N129	N	0.708593	-0.252016	0.459901
N130	N	1.208593	0.247984	0.959901
H131	H	0.727611	-0.236813	0.510128
H132	H	1.227611	0.263187	1.010128
N133	N	1.029646	-0.488240	0.788522
N134	N	1.529646	0.011760	1.288522
N135	N	1.032685	-0.501121	0.720737
N136	N	1.532685	-0.001121	1.220737
H137	H	1.044441	-0.552697	0.702572
H138	H	1.544441	-0.052697	1.202572
H139	H	1.164899	-0.436874	0.919522
H140	H	1.664899	0.063126	1.419522
N141	N	0.502066	-0.224308	0.328630
N142	N	1.002066	0.275692	0.828630
N143	N	0.462404	-0.241952	0.274894
N144	N	0.962404	0.258048	0.774894
H145	H	0.444027	-0.202597	0.239762
H146	H	0.944027	0.297403	0.739762
H147	H	0.634390	-0.473412	0.400433
H148	H	1.134390	0.026588	0.900433
N149	N	0.502566	-0.325103	0.224991
N150	N	1.002566	0.174897	0.724991
N151	N	0.548045	-0.286974	0.189581
N152	N	1.048045	0.213026	0.689581
H153	H	0.530098	-0.249766	0.151986
H154	H	1.030098	0.250234	0.651986
N155	N	1.172342	-0.805643	0.254837
N156	N	1.672342	-0.305643	0.754837
N157	N	1.224287	-0.765124	0.275803
N158	N	1.724287	-0.265124	0.775803
H159	H	1.261407	-0.745917	0.238819
H160	H	1.761407	-0.245917	0.738819
N161	N	0.501905	-0.488593	0.397011
N162	N	1.001905	0.011407	0.897011
N163	N	0.464688	-0.523524	0.443582
N164	N	0.964688	-0.023524	0.943582
H165	H	0.446419	-0.575086	0.431893
H166	H	0.946419	-0.075086	0.931893
N167	N	1.209532	-0.909390	0.394029
N168	N	1.709532	-0.409390	0.894029
N169	N	1.264100	-0.893592	0.354762
N170	N	1.764100	-0.393592	0.854762
H171	H	1.314707	-0.912820	0.368330
H172	H	1.814707	-0.412820	0.868330
H173	H	1.092292	-0.236538	0.919892
H174	H	1.592292	0.263462	1.419892
N175	N	0.500862	-0.448100	0.253895
N176	N	1.000862	0.051900	0.753895
N177	N	0.432952	-0.458211	0.246440
N178	N	0.932952	0.041789	0.746440
H179	H	0.413801	-0.507873	0.229261
H180	H	0.913801	-0.007873	0.729261
N181	N	1.107613	-0.805634	0.495964
N182	N	1.607613	-0.305634	0.995964
N183	N	1.110722	-0.737429	0.507518
N184	N	1.610722	-0.237429	1.007518
H185	H	1.124300	-0.718248	0.558154
H186	H	1.624300	-0.218248	1.058154
H187	H	1.087501	-0.234729	0.792582
H188	H	1.587501	0.265271	1.292582
N189	N	1.169889	-0.450355	0.787014
N190	N	1.669889	0.049645	1.287014
N191	N	1.230692	-0.477378	0.805574
N192	N	1.730692	0.022622	1.305574
H193	H	1.245900	-0.527736	0.786589
H194	H	1.745900	-0.027736	1.286589
N195	N	0.976680	-0.259516	0.788463
N196	N	1.476680	0.240484	1.288463
N197	N	0.964295	-0.254136	0.720741
N198	N	1.464295	0.245864	1.220741
H199	H	0.913424	-0.239949	0.702713
H200	H	1.413424	0.260051	1.202713
H201	H	0.633882	-0.402267	0.471892
H202	H	1.133882	0.097733	0.971892
N203	N	0.503051	-0.258891	0.450282
N204	N	1.003051	0.241109	0.950282
N205	N	0.548828	-0.243987	0.499817
N206	N	1.048828	0.256013	0.999817
H207	H	0.531148	-0.229057	0.550601
H208	H	1.031148	0.270943	1.050601
H209	H	0.634090	-0.235554	0.337798
H210	H	1.134090	0.264446	0.837798
N211	N	0.639102	-0.451715	0.258480
N212	N	1.139102	0.048285	0.758480
N213	N	0.680071	-0.487181	0.301352
N214	N	1.180071	0.012819	0.801352
H215	H	0.698066	-0.538182	0.287113
H216	H	1.198066	-0.038182	0.787113
N217	N	1.203565	-0.329457	0.925568
N218	N	1.703565	0.170543	1.425568
N219	N	1.213225	-0.320836	0.993405
N220	N	1.713225	0.179164	1.493405
H221	H	1.252448	-0.285547	1.011783
H222	H	1.752448	0.214453	1.511783
H223	H	0.945633	-0.811192	0.323129
H224	H	1.445633	-0.311192	0.823129
H225	H	0.994534	-0.259798	0.921226
H226	H	1.494534	0.240202	1.421226
N227	N	0.968283	-0.909207	0.458636
N228	N	1.468283	-0.409207	0.958636
N229	N	0.901570	-0.892458	0.452427
N230	N	1.401570	-0.392458	0.952427
H231	H	0.864477	-0.911535	0.489506
H232	H	1.364477	-0.411535	0.989506
N233	N	0.940465	-0.398530	0.787856
N234	N	1.440465	0.101470	1.287856
N235	N	0.928161	-0.395878	0.719958
N236	N	1.428161	0.104122	1.219958
H237	H	0.876897	-0.384104	0.701325
H238	H	1.376897	0.115896	1.201325
N239	N	1.033126	-0.909529	0.217399
N240	N	1.533126	-0.409529	0.717399
N241	N	1.072454	-0.893715	0.162883
N242	N	1.572454	-0.393715	0.662883
H243	H	1.058950	-0.912966	0.112254
H244	H	1.558950	-0.412966	0.612254
N245	N	0.940081	-0.398421	0.925688
N246	N	1.440081	0.101579	1.425688
N247	N	0.911232	-0.337253	0.911050
N248	N	1.411232	0.162747	1.411050
H249	H	0.859808	-0.325585	0.929296
H250	H	1.359808	0.174415	1.429296
N251	N	1.029210	-0.487558	0.926868
N252	N	1.529210	0.012442	1.426868
N253	N	1.082969	-0.497367	0.969093
N254	N	1.582969	0.002633	1.469093
H255	H	1.094496	-0.548653	0.988170
H256	H	1.594496	-0.048653	1.488170
N257	N	1.203491	-0.328427	0.788361
N258	N	1.703491	0.171573	1.288361
N259	N	1.185852	-0.275995	0.746865
N260	N	1.685852	0.224005	1.246865
H261	H	1.224792	-0.240237	0.728827
H262	H	1.724792	0.259763	1.228827
