data_functionalizedCrystal
_audit_creation_method	'MofGen! by Chris Wilmer'
_symmetry_space_group_name_H-M	'P1'
_symmetry_Int_Tables_number	1
_symmetry_cell_setting	triclinic
loop_
_symmetry_equiv_pos_as_xyz
  x,y,z
_cell_length_a	12.759401
_cell_length_b	12.759400
_cell_length_c	12.759393
_cell_angle_alpha	90.030930
_cell_angle_beta	90.018575
_cell_angle_gamma	90.015071
loop_
_atom_site_label
_atom_site_type_symbol
_atom_site_fract_x
_atom_site_fract_y
_atom_site_fract_z
Zn1	Zn	1.606255	-0.418192	0.593990
Zn2	Zn	1.606150	-0.593911	0.418312
Zn3	Zn	1.430557	-0.418248	0.418329
Zn4	Zn	1.430546	-0.593831	0.593953
O5	O	1.518377	-0.506045	0.506146
O6	O	1.753262	-0.441512	0.570694
O7	O	1.582818	-0.570666	0.271293
O8	O	1.453913	-0.271219	0.441653
O9	O	1.753185	-0.570612	0.441624
O10	O	1.582997	-0.271178	0.570710
O11	O	1.453811	-0.441607	0.271305
O12	O	1.283535	-0.441529	0.441617
O13	O	1.453894	-0.570475	0.740979
O14	O	1.283527	-0.570529	0.570648
O15	O	1.582986	-0.441434	0.741006
O16	O	1.582807	-0.740921	0.441589
O17	O	1.453792	-0.740862	0.570632
C18	C	1.245410	-0.506027	0.506131
C19	C	1.128633	-0.506045	0.506150
C20	C	1.073812	-0.438944	0.573460
C21	C	0.964088	-0.438955	0.573467
C22	C	0.964016	-0.573176	0.438850
C23	C	1.073738	-0.573159	0.438839
C24	C	1.518315	-0.779013	0.506127
C25	C	1.518385	-0.895789	0.506154
C26	C	1.585570	-0.950540	0.573412
C27	C	1.585629	-1.060264	0.573440
C28	C	1.451315	-1.060477	0.438945
C29	C	1.451251	-0.950755	0.438923
C30	C	1.792410	-0.506064	0.506161
C31	C	1.909187	-0.506072	0.506168
C32	C	1.518451	-0.505939	0.780179
C33	C	1.518482	-0.505894	0.896956
C34	C	1.518468	-0.232012	0.506188
C35	C	1.518507	-0.115235	0.506205
C36	C	1.518365	-0.506075	0.233179
C37	C	1.518537	-0.505825	0.116402
C38	C	1.451332	-0.438681	0.951824
C39	C	1.451356	-0.438648	1.061548
C40	C	1.585690	-0.573045	1.061527
C41	C	1.585659	-0.573082	0.951805
H42	H	0.919307	-0.627819	0.384049
F43	F	0.905748	-0.367535	0.645106
F44	F	1.657182	-0.644546	1.119910
F45	F	1.132086	-0.644572	0.367186
F46	F	1.132232	-0.367512	0.645095
F47	F	1.379869	-1.118985	0.367398
H48	H	1.640232	-0.905789	0.628157
F49	F	1.657132	-1.118529	0.645030
F50	F	1.379733	-0.892482	0.367341
H51	H	1.396632	-0.383972	0.907170
F52	F	1.379875	-0.367122	1.119938
F53	F	1.657129	-0.644627	0.893407
