data_functionalizedCrystal
_audit_creation_method	'MofGen! by Chris Wilmer'
_symmetry_space_group_name_H-M	'P1'
_symmetry_Int_Tables_number	1
_symmetry_cell_setting	triclinic
loop_
_symmetry_equiv_pos_as_xyz
  x,y,z
_cell_length_a	21.395362
_cell_length_b	19.077142
_cell_length_c	21.395355
_cell_angle_alpha	92.323124
_cell_angle_beta	89.979451
_cell_angle_gamma	92.274848
loop_
_atom_site_label
_atom_site_type_symbol
_atom_site_fract_x
_atom_site_fract_y
_atom_site_fract_z
Zn1	Zn	-0.288077	-1.075993	-0.392718
Zn2	Zn	-0.038077	-0.825993	-0.142718
Zn3	Zn	0.211923	-0.575993	0.107282
Zn4	Zn	0.461923	-0.325993	0.357282
Zn5	Zn	-0.392833	-1.075885	-0.287933
Zn6	Zn	-0.142833	-0.825885	-0.037933
Zn7	Zn	0.107167	-0.575885	0.212067
Zn8	Zn	0.357167	-0.325885	0.462067
Zn9	Zn	-0.283858	-0.958285	-0.283747
Zn10	Zn	-0.033858	-0.708285	-0.033747
Zn11	Zn	0.216142	-0.458285	0.216253
Zn12	Zn	0.466142	-0.208285	0.466253
Zn13	Zn	-0.388601	-0.958253	-0.388468
Zn14	Zn	-0.138601	-0.708253	-0.138468
Zn15	Zn	0.111399	-0.458253	0.111532
Zn16	Zn	0.361399	-0.208253	0.361532
O17	O	-0.338342	-1.017104	-0.338216
O18	O	-0.088342	-0.767104	-0.088216
O19	O	0.161658	-0.517104	0.161784
O20	O	0.411658	-0.267104	0.411784
O21	O	-0.305510	-1.174470	-0.382349
O22	O	-0.055510	-0.924470	-0.132349
O23	O	0.194490	-0.674470	0.117651
O24	O	0.444490	-0.424470	0.367651
O25	O	-0.378383	-1.060254	-0.199699
O26	O	-0.128383	-0.810254	0.050301
O27	O	0.121617	-0.560254	0.300301
O28	O	0.371617	-0.310254	0.550301
O29	O	-0.196742	-0.973958	-0.298229
O30	O	0.053258	-0.723958	-0.048229
O31	O	0.303258	-0.473958	0.201771
O32	O	0.553258	-0.223958	0.451771
O33	O	-0.382474	-1.174391	-0.305363
O34	O	-0.132474	-0.924391	-0.055363
O35	O	0.117526	-0.674391	0.194637
O36	O	0.367526	-0.424391	0.444637
O37	O	-0.199842	-1.060438	-0.378289
O38	O	0.050158	-0.810438	-0.128289
O39	O	0.300158	-0.560438	0.121711
O40	O	0.550158	-0.310438	0.371711
O41	O	-0.298320	-0.973854	-0.196623
O42	O	-0.048320	-0.723854	0.053377
O43	O	0.201680	-0.473854	0.303377
O44	O	0.451680	-0.223854	0.553377
O45	O	-0.294216	-0.859790	-0.294108
O46	O	-0.044216	-0.609790	-0.044108
O47	O	0.205784	-0.359790	0.205892
O48	O	0.455784	-0.109790	0.455892
O49	O	-0.375260	-0.973902	-0.476711
O50	O	-0.125260	-0.723902	-0.226711
O51	O	0.124740	-0.473902	0.023289
O52	O	0.374740	-0.223902	0.273289
O53	O	-0.371170	-0.859766	-0.371046
O54	O	-0.121170	-0.609766	-0.121046
O55	O	0.128830	-0.359766	0.128954
O56	O	0.378830	-0.109766	0.378954
O57	O	-0.301406	-1.060406	-0.479833
O58	O	-0.051406	-0.810406	-0.229833
O59	O	0.198594	-0.560406	0.020167
O60	O	0.448594	-0.310406	0.270167
O61	O	-0.479948	-1.060222	-0.301242
O62	O	-0.229948	-0.810222	-0.051242
O63	O	0.020052	-0.560222	0.198758
O64	O	0.270052	-0.310222	0.448758
O65	O	-0.476838	-0.973798	-0.375105
O66	O	-0.226838	-0.723798	-0.125105
O67	O	0.023162	-0.473798	0.124895
O68	O	0.273162	-0.223798	0.374895
C69	C	-0.331776	-0.834240	-0.331662
C70	C	-0.081776	-0.584240	-0.081662
C71	C	0.168224	-0.334240	0.168338
C72	C	0.418224	-0.084240	0.418338
C73	C	-0.328982	-0.756011	-0.328872
C74	C	-0.078982	-0.506011	-0.078872
C75	C	0.171018	-0.256011	0.171128
C76	C	0.421018	-0.006011	0.421128
C77	C	-0.367796	-0.719264	-0.367556
C78	C	-0.117796	-0.469264	-0.117556
C79	C	0.132204	-0.219264	0.132444
C80	C	0.382204	0.030736	0.382444
C81	C	-0.365162	-0.645759	-0.364939
C82	C	-0.115162	-0.395759	-0.114939
C83	C	0.134838	-0.145759	0.135061
C84	C	0.384838	0.104241	0.385061
C85	C	-0.323718	-0.609001	-0.323633
C86	C	-0.073718	-0.359001	-0.073633
C87	C	0.176282	-0.109001	0.176367
C88	C	0.426282	0.140999	0.426367
C89	C	-0.284900	-0.645753	-0.284947
C90	C	-0.034900	-0.395753	-0.034947
C91	C	0.215100	-0.145753	0.215053
C92	C	0.465100	0.104247	0.465053
C93	C	-0.287531	-0.719257	-0.287569
C94	C	-0.037531	-0.469257	-0.037569
C95	C	0.212469	-0.219257	0.212431
C96	C	0.462469	0.030743	0.462431
C97	C	-0.311544	-0.389167	-0.311507
C98	C	-0.061544	-0.139167	-0.061507
C99	C	0.188456	0.110833	0.188493
C100	C	0.438456	0.360833	0.438493
C101	C	-0.308917	-0.315658	-0.308888
C102	C	-0.058917	-0.065658	-0.058888
C103	C	0.191083	0.184342	0.191112
C104	C	0.441083	0.434342	0.441112
C105	C	-0.389179	-0.315669	-0.388880
C106	C	-0.139179	-0.065669	-0.138880
C107	C	0.110821	0.184331	0.111120
C108	C	0.360821	0.434331	0.361120
C109	C	-0.391809	-0.389174	-0.391495
C110	C	-0.141809	-0.139174	-0.141495
C111	C	0.108191	0.110826	0.108505
C112	C	0.358191	0.360826	0.358505
C113	C	-0.352989	-0.425920	-0.352812
C114	C	-0.102989	-0.175920	-0.102812
C115	C	0.147011	0.074080	0.147188
C116	C	0.397011	0.324080	0.397188
N117	N	-0.321026	-0.533867	-0.320955
N118	N	-0.071026	-0.283867	-0.070955
N119	N	0.178974	-0.033867	0.179045
N120	N	0.428974	0.216133	0.429045
N121	N	-0.355677	-0.501052	-0.355494
N122	N	-0.105677	-0.251052	-0.105494
N123	N	0.144323	-0.001052	0.144506
N124	N	0.394323	0.248948	0.394506
C125	C	-0.501127	-1.017014	-0.338181
C126	C	-0.251127	-0.767014	-0.088181
C127	C	-0.001127	-0.517014	0.161819
C128	C	0.248873	-0.267014	0.411819
C129	C	-0.570769	-1.017040	-0.338189
C130	C	-0.320769	-0.767040	-0.088189
C131	C	-0.070769	-0.517040	0.161811
C132	C	0.179231	-0.267040	0.411811
C133	C	-0.605038	-1.062044	-0.379904
C134	C	-0.355038	-0.812044	-0.129904
C135	C	-0.105038	-0.562044	0.120096
C136	C	0.144962	-0.312044	0.370096
C137	C	-0.670475	-1.062069	-0.379921
C138	C	-0.420475	-0.812069	-0.129921
C139	C	-0.170475	-0.562069	0.120079
C140	C	0.079525	-0.312069	0.370079
C141	C	-0.701639	-1.017097	-0.338211
C142	C	-0.451639	-0.767097	-0.088211
C143	C	-0.201639	-0.517097	0.161789
C144	C	0.048361	-0.267097	0.411789
C145	C	-0.667362	-0.972084	-0.296492
C146	C	-0.417362	-0.722084	-0.046492
C147	C	-0.167362	-0.472084	0.203508
C148	C	0.082638	-0.222084	0.453508
C149	C	-0.601927	-0.972056	-0.296482
C150	C	-0.351927	-0.722056	-0.046482
C151	C	-0.101927	-0.472056	0.203518
C152	C	0.148073	-0.222056	0.453518
C153	C	-0.805143	-1.011618	-0.281576
C154	C	-0.555143	-0.761618	-0.031576
C155	C	-0.305143	-0.511618	0.218424
C156	C	-0.055143	-0.261618	0.468424
C157	C	-0.870577	-1.011652	-0.281586
C158	C	-0.620577	-0.761652	-0.031586
C159	C	-0.370577	-0.511652	0.218414
C160	C	-0.120577	-0.261652	0.468414
C161	C	-0.903463	-1.017180	-0.338244
C162	C	-0.653463	-0.767180	-0.088244
C163	C	-0.403463	-0.517180	0.161756
C164	C	-0.153463	-0.267180	0.411756
C165	C	-0.870907	-1.022691	-0.394894
C166	C	-0.620907	-0.772691	-0.144894
C167	C	-0.370907	-0.522691	0.105106
C168	C	-0.120907	-0.272691	0.355106
C169	C	-0.805472	-1.022662	-0.394884
C170	C	-0.555472	-0.772662	-0.144884
C171	C	-0.305472	-0.522662	0.105116
C172	C	-0.055472	-0.272662	0.355116
C173	C	-0.772593	-1.017122	-0.338218
C174	C	-0.522593	-0.767122	-0.088218
C175	C	-0.272593	-0.517122	0.161782
C176	C	-0.022593	-0.267122	0.411782
C177	C	-1.008686	-1.062214	-0.379980
C178	C	-0.758686	-0.812214	-0.129980
C179	C	-0.508686	-0.562214	0.120020
C180	C	-0.258686	-0.312214	0.370020
C181	C	-1.074123	-1.062233	-0.379997
C182	C	-0.824123	-0.812233	-0.129997
C183	C	-0.574123	-0.562233	0.120003
C184	C	-0.324123	-0.312233	0.370003
C185	C	-1.071009	-0.972252	-0.296563
C186	C	-0.821009	-0.722252	-0.046563
C187	C	-0.571009	-0.472252	0.203437
C188	C	-0.321009	-0.222252	0.453437
C189	C	-1.005573	-0.972229	-0.296552
C190	C	-0.755573	-0.722229	-0.046552
C191	C	-0.505573	-0.472229	0.203448
C192	C	-0.255573	-0.222229	0.453448
C193	C	-0.974416	-1.017213	-0.338259
C194	C	-0.724416	-0.767213	-0.088259
C195	C	-0.474416	-0.517213	0.161741
C196	C	-0.224416	-0.267213	0.411741
C197	C	-0.174923	-1.017214	-0.338266
C198	C	0.075077	-0.767214	-0.088266
C199	C	0.325077	-0.517214	0.161734
C200	C	0.575077	-0.267214	0.411734
C201	C	-0.105283	-1.017260	-0.338287
C202	C	0.144717	-0.767260	-0.088287
C203	C	0.394717	-0.517260	0.161713
C204	C	0.644717	-0.267260	0.411713
C205	C	-0.338332	-1.017163	-0.501642
C206	C	-0.088332	-0.767163	-0.251642
C207	C	0.161668	-0.517163	-0.001642
C208	C	0.411668	-0.267163	0.248358
C209	C	-0.338327	-1.017187	-0.571284
C210	C	-0.088327	-0.767187	-0.321284
C211	C	0.161673	-0.517187	-0.071284
C212	C	0.411673	-0.267187	0.178716
C213	C	-0.344932	-0.200682	-0.344790
C214	C	-0.094932	0.049318	-0.094790
C215	C	0.155068	0.299318	0.155210
C216	C	0.405068	0.549318	0.405210
C217	C	-0.347731	-0.278912	-0.347572
C218	C	-0.097731	-0.028912	-0.097572
C219	C	0.152269	0.221088	0.152428
C220	C	0.402269	0.471088	0.402428
C221	C	-0.299870	-1.062228	-0.605624
C222	C	-0.049870	-0.812228	-0.355624
C223	C	0.200130	-0.562228	-0.105624
C224	C	0.450130	-0.312228	0.144376
C225	C	-0.299843	-1.062227	-0.671059
C226	C	-0.049843	-0.812227	-0.421059
C227	C	0.200157	-0.562227	-0.171059
C228	C	0.450157	-0.312227	0.078941
C229	C	-0.338285	-1.017193	-0.702153
C230	C	-0.088285	-0.767193	-0.452153
C231	C	0.161715	-0.517193	-0.202153
C232	C	0.411715	-0.267193	0.047847
C233	C	-0.376745	-0.972144	-0.667804
C234	C	-0.126745	-0.722144	-0.417804
C235	C	0.123255	-0.472144	-0.167804
C236	C	0.373255	-0.222144	0.082196
C237	C	-0.376766	-0.972141	-0.602370
C238	C	-0.126766	-0.722141	-0.352370
C239	C	0.123234	-0.472141	-0.102370
C240	C	0.373234	-0.222141	0.147630
C241	C	-0.394500	-1.011604	-0.805616
C242	C	-0.144500	-0.761604	-0.555616
C243	C	0.105500	-0.511604	-0.305616
C244	C	0.355500	-0.261604	-0.055616
C245	C	-0.394480	-1.011612	-0.871050
C246	C	-0.144480	-0.761612	-0.621050
C247	C	0.105520	-0.511612	-0.371050
C248	C	0.355520	-0.261612	-0.121050
C249	C	-0.338219	-1.017197	-0.903974
C250	C	-0.088219	-0.767197	-0.653974
C251	C	0.161781	-0.517197	-0.403974
C252	C	0.411781	-0.267197	-0.153974
C253	C	-0.281977	-1.022790	-0.871457
C254	C	-0.031977	-0.772790	-0.621457
C255	C	0.218023	-0.522790	-0.371457
C256	C	0.468023	-0.272790	-0.121457
C257	C	-0.281998	-1.022787	-0.806022
C258	C	-0.031998	-0.772787	-0.556022
C259	C	0.218002	-0.522787	-0.306022
C260	C	0.468002	-0.272787	-0.056022
C261	C	-0.338266	-1.017191	-0.773105
C262	C	-0.088266	-0.767191	-0.523105
C263	C	0.161734	-0.517191	-0.273105
C264	C	0.411734	-0.267191	-0.023105
C265	C	-0.299729	-1.062239	-1.009266
C266	C	-0.049729	-0.812239	-0.759266
C267	C	0.200271	-0.562239	-0.509266
C268	C	0.450271	-0.312239	-0.259266
C269	C	-0.299700	-1.062233	-1.074703
C270	C	-0.049700	-0.812233	-0.824703
C271	C	0.200300	-0.562233	-0.574703
C272	C	0.450300	-0.312233	-0.324703
C273	C	-0.376608	-0.972154	-1.071446
C274	C	-0.126608	-0.722154	-0.821446
C275	C	0.123392	-0.472154	-0.571446
C276	C	0.373392	-0.222154	-0.321446
C277	C	-0.376631	-0.972156	-1.006011
C278	C	-0.126631	-0.722156	-0.756011
C279	C	0.123369	-0.472156	-0.506011
C280	C	0.373369	-0.222156	-0.256011
C281	C	-0.338192	-1.017202	-0.974925
C282	C	-0.088192	-0.767202	-0.724925
C283	C	0.161808	-0.517202	-0.474925
C284	C	0.411808	-0.267202	-0.224925
C285	C	-0.338309	-1.017086	-0.175428
C286	C	-0.088309	-0.767086	0.074572
C287	C	0.161691	-0.517086	0.324572
C288	C	0.411691	-0.267086	0.574572
C289	C	-0.338142	-1.017198	-0.105791
C290	C	-0.088142	-0.767198	0.144209
C291	C	0.161858	-0.517198	0.394209
C292	C	0.411858	-0.267198	0.644209
H293	H	-0.279939	-0.419077	-0.280004
H294	H	-0.029939	-0.169077	-0.030004
H295	H	0.220061	0.080923	0.219996
H296	H	0.470061	0.330923	0.469996
N297	N	-0.707445	-1.110619	-0.424909
N298	N	-0.457445	-0.860619	-0.174909
N299	N	-0.207445	-0.610619	0.075091
N300	N	0.042555	-0.360619	0.325091
H301	H	-0.753626	-1.103812	-0.418585
H302	H	-0.503626	-0.853812	-0.168585
H303	H	-0.253626	-0.603812	0.081415
H304	H	-0.003626	-0.353812	0.331415
H305	H	-0.695604	-1.099643	-0.469256
H306	H	-0.445604	-0.849643	-0.219256
H307	H	-0.195604	-0.599643	0.030744
H308	H	0.054396	-0.349643	0.280744
H309	H	-0.425558	-0.419097	-0.425129
H310	H	-0.175558	-0.169097	-0.175129
H311	H	0.074442	0.080903	0.074871
H312	H	0.324442	0.330903	0.324871
N313	N	-0.264225	-0.276023	-0.264317
N314	N	-0.014225	-0.026023	-0.014317
N315	N	0.235775	0.223977	0.235683
N316	N	0.485775	0.473977	0.485683
H317	H	-0.288566	-0.245511	-0.234146
H318	H	-0.038566	0.004489	0.015854
H319	H	0.211434	0.254489	0.265854
H320	H	0.461434	0.504489	0.515854
H321	H	-0.240053	-0.310509	-0.240253
H322	H	0.009947	-0.060509	0.009747
H323	H	0.259947	0.189491	0.259747
H324	H	0.509947	0.439491	0.509747
N325	N	-0.770356	-1.028600	-0.455979
N326	N	-0.520356	-0.778600	-0.205979
N327	N	-0.270356	-0.528600	0.044021
N328	N	-0.020356	-0.278600	0.294021
H329	H	-0.801114	-1.032106	-0.491876
H330	H	-0.551114	-0.782106	-0.241876
H331	H	-0.301114	-0.532106	0.008124
H332	H	-0.051114	-0.282106	0.258124
H333	H	-0.741703	-0.985699	-0.460220
H334	H	-0.491703	-0.735699	-0.210220
H335	H	-0.241703	-0.485699	0.039780
H336	H	0.008297	-0.235699	0.289780
H337	H	-0.396769	-0.615843	-0.396439
H338	H	-0.146769	-0.365843	-0.146439
H339	H	0.103231	-0.115843	0.103561
H340	H	0.353231	0.134157	0.353561
H341	H	-0.407951	-0.935483	-0.978051
H342	H	-0.157951	-0.685483	-0.728051
H343	H	0.092049	-0.435483	-0.478051
H344	H	0.342049	-0.185483	-0.228051
H345	H	-0.251153	-0.615820	-0.251318
H346	H	-0.001153	-0.365820	-0.001318
H347	H	0.248847	-0.115820	0.248682
H348	H	0.498847	0.134180	0.498682
N349	N	-0.431047	-0.276037	-0.430601
N350	N	-0.181047	-0.026037	-0.180601
N351	N	0.068953	0.223963	0.069399
N352	N	0.318953	0.473963	0.319399
H353	H	-0.423094	-0.223895	-0.422675
H354	H	-0.173094	0.026105	-0.172675
H355	H	0.076906	0.276105	0.077325
H356	H	0.326906	0.526105	0.327325
H357	H	-0.421822	-0.288918	-0.475825
H358	H	-0.171822	-0.038918	-0.225825
H359	H	0.078178	0.211082	0.024175
H360	H	0.328178	0.461082	0.274175
N361	N	-0.258369	-1.110813	-0.708110
N362	N	-0.008369	-0.860813	-0.458110
N363	N	0.241631	-0.610813	-0.208110
N364	N	0.491631	-0.360813	0.041890
H365	H	-0.228297	-1.082235	-0.734230
H366	H	0.021703	-0.832235	-0.484230
H367	H	0.271703	-0.582235	-0.234230
H368	H	0.521703	-0.332235	0.015770
H369	H	-0.234063	-1.139340	-0.678450
H370	H	0.015937	-0.889340	-0.428450
H371	H	0.265937	-0.639340	-0.178450
H372	H	0.515937	-0.389340	0.071550
N373	N	-0.412502	-0.758903	-0.412105
N374	N	-0.162502	-0.508903	-0.162105
N375	N	0.087498	-0.258903	0.087895
N376	N	0.337498	-0.008903	0.337895
H377	H	-0.402380	-0.746144	-0.456435
H378	H	-0.152380	-0.496144	-0.206435
H379	H	0.097620	-0.246144	0.043565
H380	H	0.347620	0.003856	0.293565
H381	H	-0.408262	-0.811031	-0.407843
H382	H	-0.158262	-0.561031	-0.157843
H383	H	0.091738	-0.311031	0.092157
H384	H	0.341738	-0.061031	0.342157
H385	H	-1.102024	-1.098881	-0.413970
H386	H	-0.852024	-0.848881	-0.163970
H387	H	-0.602024	-0.598881	0.086030
H388	H	-0.352024	-0.348881	0.336030
H389	H	-0.255922	-0.749175	-0.256071
H390	H	-0.005922	-0.499175	-0.006071
H391	H	0.244078	-0.249175	0.243929
H392	H	0.494078	0.000825	0.493929
N393	N	-0.906366	-1.028659	-0.456010
N394	N	-0.656366	-0.778659	-0.206010
N395	N	-0.406366	-0.528659	0.043990
N396	N	-0.156366	-0.278659	0.293990
H397	H	-0.952758	-1.027838	-0.447424
H398	H	-0.702758	-0.777838	-0.197424
H399	H	-0.452758	-0.527838	0.052576
H400	H	-0.202758	-0.277838	0.302576
H401	H	-0.893484	-0.987939	-0.482531
H402	H	-0.643484	-0.737939	-0.232531
H403	H	-0.393484	-0.487939	0.017469
H404	H	-0.143484	-0.237939	0.267469
N405	N	-0.571434	-1.110552	-0.424896
N406	N	-0.321434	-0.860552	-0.174896
N407	N	-0.071434	-0.610552	0.075104
N408	N	0.178566	-0.360552	0.325104
H409	H	-0.524781	-1.103706	-0.418562
H410	H	-0.274781	-0.853706	-0.168562
H411	H	-0.024781	-0.603706	0.081438
H412	H	0.225219	-0.353706	0.331438
H413	H	-0.584638	-1.160829	-0.416984
H414	H	-0.334638	-0.910829	-0.166984
H415	H	-0.084638	-0.660829	0.083016
H416	H	0.165362	-0.410829	0.333016
H417	H	-0.983316	-1.098841	-0.413943
H418	H	-0.733316	-0.848841	-0.163943
H419	H	-0.483316	-0.598841	0.086057
H420	H	-0.233316	-0.348841	0.336057
N421	N	-1.104613	-0.923740	-0.251580
N422	N	-0.854613	-0.673740	-0.001580
N423	N	-0.604613	-0.423740	0.248420
N424	N	-0.354613	-0.173740	0.498420
H425	H	-1.151267	-0.930585	-0.257917
H426	H	-0.901267	-0.680585	-0.007917
H427	H	-0.651267	-0.430585	0.242083
H428	H	-0.401267	-0.180585	0.492083
H429	H	-1.093584	-0.934713	-0.207231
H430	H	-0.843584	-0.684713	0.042769
H431	H	-0.593584	-0.434713	0.292769
H432	H	-0.343584	-0.184713	0.542769
N433	N	-0.968607	-0.923694	-0.251554
N434	N	-0.718607	-0.673694	-0.001554
N435	N	-0.468607	-0.423694	0.248446
N436	N	-0.218607	-0.173694	0.498446
H437	H	-0.998277	-0.895209	-0.225131
H438	H	-0.748277	-0.645209	0.024869
H439	H	-0.498277	-0.395209	0.274869
H440	H	-0.248277	-0.145209	0.524869
H441	H	-0.942478	-0.952352	-0.223604
H442	H	-0.692478	-0.702352	0.026396
H443	H	-0.442478	-0.452352	0.276396
H444	H	-0.192478	-0.202352	0.526396
N445	N	-0.455138	-1.005579	-0.906116
N446	N	-0.205138	-0.755579	-0.656116
N447	N	0.044862	-0.505579	-0.406116
N448	N	0.294862	-0.255579	-0.156116
H449	H	-0.446589	-1.006433	-0.952564
H450	H	-0.196589	-0.756433	-0.702564
H451	H	0.053411	-0.506433	-0.452564
H452	H	0.303411	-0.256433	-0.202564
H453	H	-0.484616	-1.046258	-0.896144
H454	H	-0.234616	-0.796258	-0.646144
H455	H	0.015384	-0.546258	-0.396144
H456	H	0.265384	-0.296258	-0.146144
H457	H	-0.897080	-1.007169	-0.235458
H458	H	-0.647080	-0.757169	0.014542
H459	H	-0.397080	-0.507169	0.264542
H460	H	-0.147080	-0.257169	0.514542
N461	N	-0.221343	-1.028820	-0.770950
N462	N	0.028657	-0.778820	-0.520950
N463	N	0.278657	-0.528820	-0.270950
N464	N	0.528657	-0.278820	-0.020950
H465	H	-0.185696	-1.032361	-0.801731
H466	H	0.064304	-0.782361	-0.551731
H467	H	0.314304	-0.532361	-0.301731
H468	H	0.564304	-0.282361	-0.051731
H469	H	-0.213994	-0.985941	-0.742252
H470	H	0.036006	-0.735941	-0.492252
H471	H	0.286006	-0.485941	-0.242252
H472	H	0.536006	-0.235941	0.007748
N473	N	-0.769676	-1.005647	-0.220463
N474	N	-0.519676	-0.755647	0.029537
N475	N	-0.269676	-0.505647	0.279537
N476	N	-0.019676	-0.255647	0.529537
H477	H	-0.800228	-1.002166	-0.184578
H478	H	-0.550228	-0.752166	0.065422
H479	H	-0.300228	-0.502166	0.315422
H480	H	-0.050228	-0.252166	0.565422
H481	H	-0.744031	-1.048521	-0.216208
H482	H	-0.494031	-0.798521	0.033792
H483	H	-0.244031	-0.548521	0.283792
H484	H	0.005969	-0.298521	0.533792
H485	H	-0.408082	-0.935460	-0.574410
H486	H	-0.158082	-0.685460	-0.324410
H487	H	0.091918	-0.435460	-0.074410
H488	H	0.341918	-0.185460	0.175590
N489	N	-0.700971	-0.923579	-0.251504
N490	N	-0.450971	-0.673579	-0.001504
N491	N	-0.200971	-0.423579	0.248496
N492	N	0.049029	-0.173579	0.498496
H493	H	-0.747624	-0.930428	-0.257838
H494	H	-0.497624	-0.680428	-0.007838
H495	H	-0.247624	-0.430428	0.242162
H496	H	0.002376	-0.180428	0.492162
H497	H	-0.689937	-0.934555	-0.207157
H498	H	-0.439937	-0.684555	0.042843
H499	H	-0.189937	-0.434555	0.292843
H500	H	0.060063	-0.184555	0.542843
H501	H	-0.574024	-0.935407	-0.262511
H502	H	-0.324024	-0.685407	-0.012511
H503	H	-0.074024	-0.435407	0.237489
H504	H	0.175976	-0.185407	0.487489
N505	N	-0.258411	-1.110810	-0.572095
N506	N	-0.008411	-0.860810	-0.322095
N507	N	0.241589	-0.610810	-0.072095
N508	N	0.491589	-0.360810	0.177905
H509	H	-0.234044	-1.139343	-0.603783
H510	H	0.015956	-0.889343	-0.353783
H511	H	0.265956	-0.639343	-0.103783
H512	H	0.515956	-0.389343	0.146217
H513	H	-0.228395	-1.082180	-0.543914
H514	H	0.021605	-0.832180	-0.293914
H515	H	0.271605	-0.582180	-0.043914
H516	H	0.521605	-0.332180	0.206086
H517	H	-0.236164	-1.027339	-0.898262
H518	H	0.013836	-0.777339	-0.648262
H519	H	0.263836	-0.527339	-0.398262
H520	H	0.513836	-0.277339	-0.148262
N521	N	-0.258270	-1.110819	-0.975731
N522	N	-0.008270	-0.860819	-0.725731
N523	N	0.241730	-0.610819	-0.475731
N524	N	0.491730	-0.360819	-0.225731
H525	H	-0.233899	-1.139349	-1.007418
H526	H	0.016101	-0.889349	-0.757418
H527	H	0.266101	-0.639349	-0.507418
H528	H	0.516101	-0.389349	-0.257418
H529	H	-0.228258	-1.082189	-0.947547
H530	H	0.021742	-0.832189	-0.697547
H531	H	0.271742	-0.582189	-0.447547
H532	H	0.521742	-0.332189	-0.197547
N533	N	-0.258207	-1.110802	-1.111744
N534	N	-0.008207	-0.860802	-0.861744
N535	N	0.241793	-0.610802	-0.611744
N536	N	0.491793	-0.360802	-0.361744
H537	H	-0.233860	-1.139334	-1.082119
H538	H	0.016140	-0.889334	-0.832119
H539	H	0.266140	-0.639334	-0.582119
H540	H	0.516140	-0.389334	-0.332119
H541	H	-0.284865	-1.143356	-1.140074
H542	H	-0.034865	-0.893356	-0.890074
H543	H	0.215135	-0.643356	-0.640074
H544	H	0.465135	-0.393356	-0.390074
N545	N	-0.418067	-0.923574	-1.104973
N546	N	-0.168067	-0.673574	-0.854973
N547	N	0.081933	-0.423574	-0.604973
N548	N	0.331933	-0.173574	-0.354973
H549	H	-0.412217	-0.930408	-1.151636
H550	H	-0.162217	-0.680408	-0.901636
H551	H	0.087783	-0.430408	-0.651636
H552	H	0.337783	-0.180408	-0.401636
H553	H	-0.463211	-0.934496	-1.093930
H554	H	-0.213211	-0.684496	-0.843930
H555	H	0.036789	-0.434496	-0.593930
H556	H	0.286789	-0.184496	-0.343930
H557	H	-0.440296	-1.006868	-0.778808
H558	H	-0.190296	-0.756868	-0.528808
H559	H	0.059704	-0.506868	-0.278808
H560	H	0.309704	-0.256868	-0.028808
N561	N	-0.418198	-0.923559	-0.701335
N562	N	-0.168198	-0.673559	-0.451335
N563	N	0.081802	-0.423559	-0.201335
N564	N	0.331802	-0.173559	0.048665
H565	H	-0.412348	-0.930394	-0.747999
H566	H	-0.162348	-0.680394	-0.497999
H567	H	0.087652	-0.430394	-0.247999
H568	H	0.337652	-0.180394	0.002001
H569	H	-0.463344	-0.934472	-0.690293
H570	H	-0.213344	-0.684472	-0.440293
H571	H	0.036656	-0.434472	-0.190293
H572	H	0.286656	-0.184472	0.059707
