data_functionalizedCrystal
_audit_creation_method	'MofGen! by Chris Wilmer'
_symmetry_space_group_name_H-M	'P1'
_symmetry_Int_Tables_number	1
_symmetry_cell_setting	triclinic
loop_
_symmetry_equiv_pos_as_xyz
  x,y,z
_cell_length_a	10.540558
_cell_length_b	9.616153
_cell_length_c	16.109301
_cell_angle_alpha	89.992070
_cell_angle_beta	83.997309
_cell_angle_gamma	89.999106
loop_
_atom_site_label
_atom_site_type_symbol
_atom_site_fract_x
_atom_site_fract_y
_atom_site_fract_z
O1	O	-1.684198	0.115609	-0.117243
O2	O	-1.314630	0.115622	-0.128266
O3	O	-1.509566	0.115601	-0.001786
O4	O	-1.489262	0.115630	-0.243723
O5	O	-1.509559	-0.115690	-0.001777
O6	O	-1.314623	-0.115670	-0.128257
O7	O	-1.684190	-0.115682	-0.117234
Zn8	Zn	-1.499405	-0.152398	-0.122744
Zn9	Zn	-1.499415	0.152338	-0.122756
O10	O	-1.489254	-0.115661	-0.243714
C11	C	-1.267336	-0.000023	-0.127431
C12	C	-1.126424	-0.000018	-0.124948
N13	N	-1.499408	-0.360373	-0.122735
C14	C	-0.944352	-0.000572	-0.030031
C15	C	-1.090933	-0.000034	-0.032548
C16	C	-1.064123	0.132060	-0.169417
C17	C	-0.917624	0.132153	-0.166257
C18	C	-0.917101	-0.130868	-0.168127
C19	C	-1.064069	-0.132597	-0.168984
C20	C	-1.604069	-0.580711	-0.055311
C21	C	-1.603792	-0.419543	-0.055053
C22	C	-1.366985	-0.418902	-0.102996
C23	C	-1.367609	-0.580120	-0.102524
C24	C	-1.526004	-0.580238	-0.210136
C25	C	-1.529007	-0.419009	-0.209564
C26	C	-0.731487	-0.000038	-0.118057
C27	C	-0.872405	-0.000044	-0.120507
C28	C	-1.508740	-0.000045	0.029199
C29	C	-1.506274	-0.000047	0.121509
N30	N	-1.499423	0.360313	-0.122758
C31	C	-1.490080	-0.000012	-0.274698
C32	C	-1.492546	-0.000001	-0.367009
C33	C	-1.616212	-0.000029	0.343104
C34	C	-1.613885	-0.000017	0.429839
C35	C	-1.382600	-0.000015	0.411389
C36	C	-1.384928	-0.000017	0.324656
C37	C	-1.501738	-0.000031	0.290516
C38	C	-1.497083	-0.000017	0.463984
C39	C	-1.494559	-0.000005	0.558026
C40	C	-1.504262	-0.000040	0.196469
H41	H	-1.134042	-0.094714	0.002442
C42	C	-1.334550	-0.364401	-0.017840
N43	N	-1.310129	-0.323356	0.046304
C44	C	-1.581460	-0.635459	0.031773
N45	N	-1.564425	-0.676695	0.097365
C46	C	-0.880150	0.265515	-0.121853
N47	N	-0.851931	0.365962	-0.088404
C48	C	-1.335953	-0.630952	-0.016402
N49	N	-1.312110	-0.669232	0.048468
H50	H	-1.105491	-0.230308	-0.136498
H51	H	-1.085508	0.136982	-0.237274
H52	H	-0.916284	-0.095295	0.006477
C53	C	-1.580837	-0.367462	0.032527
N54	N	-1.563539	-0.328237	0.098496
C55	C	-0.904230	0.126651	0.019080
N56	N	-0.874005	0.222475	0.056068
H57	H	-1.133184	0.094802	0.002681
H58	H	-0.868709	0.138155	-0.232707
C59	C	-0.852010	-0.132068	-0.258284
N60	N	-0.802976	-0.132962	-0.326187
C61	C	-1.739816	-0.000028	0.487683
N62	N	-1.834673	-0.000038	0.531251
C63	C	-1.254116	-0.000027	0.448952
N64	N	-1.157339	-0.000046	0.477243
C65	C	-1.736780	-0.366078	-0.071083
N66	N	-1.836954	-0.325815	-0.083152
H67	H	-1.291704	-0.000014	0.281836
H68	H	-1.626422	-0.380756	-0.224525
H69	H	-1.620502	-0.620887	-0.228914
H70	H	-1.287401	-0.619135	-0.149739
C71	C	-1.259245	-0.367117	-0.167541
N72	N	-1.178096	-0.328107	-0.216156
C73	C	-1.122245	0.264847	-0.127691
N74	N	-1.166021	0.364859	-0.096257
H75	H	-1.702837	-0.619473	-0.067004
H76	H	-1.457723	-0.378728	-0.262165
H77	H	-0.885978	-0.230983	-0.138219
H78	H	-1.087335	-0.140563	-0.236350
H79	H	-1.711325	-0.000037	0.315311
H80	H	-1.449694	-0.618384	-0.260337
