data_functionalizedCrystal
_audit_creation_method	'MofGen! by Chris Wilmer'
_symmetry_space_group_name_H-M	'P1'
_symmetry_Int_Tables_number	1
_symmetry_cell_setting	triclinic
loop_
_symmetry_equiv_pos_as_xyz
  x,y,z
_cell_length_a	16.625548
_cell_length_b	14.908520
_cell_length_c	14.908308
_cell_angle_alpha	83.639235
_cell_angle_beta	93.277965
_cell_angle_gamma	86.678216
loop_
_atom_site_label
_atom_site_type_symbol
_atom_site_fract_x
_atom_site_fract_y
_atom_site_fract_z
Zn1	Zn	1.185085	0.389851	-0.532572
Zn2	Zn	1.685085	0.889851	-0.032572
Zn3	Zn	1.184994	0.532497	-0.389942
Zn4	Zn	1.684994	1.032497	0.110058
Zn5	Zn	1.058507	0.381156	-0.381229
Zn6	Zn	1.558507	0.881156	0.118771
Zn7	Zn	1.041965	0.541172	-0.541251
Zn8	Zn	1.541965	1.041172	-0.041251
O9	O	1.117638	0.461169	-0.461249
O10	O	1.617638	0.961169	0.038751
O11	O	1.297904	0.408782	-0.513666
O12	O	1.797904	0.908782	-0.013666
O13	O	1.175099	0.505151	-0.262126
O14	O	1.675099	1.005151	0.237874
O15	O	1.082259	0.255645	-0.394027
O16	O	1.582259	0.755645	0.105973
O17	O	1.297837	0.513582	-0.408877
O18	O	1.797837	1.013582	0.091123
O19	O	1.175255	0.262033	-0.505217
O20	O	1.675255	0.762033	-0.005217
O21	O	1.082170	0.393962	-0.255724
O22	O	1.582170	0.893962	0.244276
O23	O	0.943482	0.402375	-0.402442
O24	O	1.443482	0.902375	0.097558
O25	O	1.054066	0.528369	-0.666760
O26	O	1.554066	1.028369	-0.166760
O27	O	0.931328	0.519938	-0.520009
O28	O	1.431328	1.019938	-0.020009
O29	O	1.159215	0.417194	-0.660384
O30	O	1.659215	0.917194	-0.160384
O31	O	1.159059	0.660312	-0.417292
O32	O	1.659059	1.160312	0.082708
O33	O	1.053977	0.666686	-0.528458
O34	O	1.553977	1.166686	-0.028458
C35	C	0.908149	0.461155	-0.461222
C36	C	1.408149	0.961155	0.038778
C37	C	0.818526	0.461172	-0.461234
C38	C	1.318526	0.961172	0.038766
C39	C	1.104734	0.696343	-0.474782
C40	C	1.604734	1.196343	0.025218
C41	C	1.099286	0.796953	-0.480602
C42	C	1.599286	1.296953	0.019398
C43	C	1.130613	0.225078	-0.447682
C44	C	1.630613	0.725078	0.052318
C45	C	1.136142	0.124470	-0.441901
C46	C	1.636142	0.624470	0.058099
C47	C	0.490348	0.461180	-0.461273
C48	C	0.990348	0.961180	0.038727
C49	C	0.581658	0.461175	-0.461259
C50	C	1.081658	0.961175	0.038741
C51	C	0.654434	0.461176	-0.461253
C52	C	1.154434	0.961176	0.038747
C53	C	0.745750	0.461170	-0.461240
C54	C	1.245750	0.961170	0.038760
C55	C	1.327944	0.461184	-0.461275
C56	C	1.827944	0.961184	0.038725
C57	C	1.417565	0.461191	-0.461287
C58	C	1.917565	0.961191	0.038713
C59	C	1.104806	0.474719	-0.697332
C60	C	1.604806	0.974719	-0.197332
C61	C	1.099337	0.480494	-0.797936
C62	C	1.599337	0.980494	-0.297936
C63	C	1.198572	0.979318	-0.375875
C64	C	1.698572	1.479318	0.124125
C65	C	1.193455	1.073850	-0.381340
C66	C	1.693455	1.573850	0.118660
C67	C	1.083942	1.080552	-0.497002
C68	C	1.583942	1.580552	0.002998
C69	C	1.089058	0.986019	-0.491537
C70	C	1.589058	1.486019	0.008463
C71	C	1.146374	0.935406	-0.430970
C72	C	1.646374	1.435406	0.069030
C73	C	1.151486	0.840872	-0.425501
C74	C	1.651486	1.340872	0.074499
C75	C	1.041977	0.847575	-0.541167
C76	C	1.541977	1.347575	-0.041167
C77	C	1.036861	0.942107	-0.546632
C78	C	1.536861	1.442107	-0.046632
C79	C	1.198553	0.375556	-0.980344
C80	C	1.698553	0.875556	-0.480344
C81	C	1.193418	0.380979	-1.074871
C82	C	1.693418	0.880979	-0.574871
C83	C	1.083928	0.496755	-1.081518
C84	C	1.583928	0.996755	-0.581518
C85	C	1.089064	0.491333	-0.986991
C86	C	1.589064	0.991333	-0.486991
C87	C	1.146379	0.430732	-0.936408
C88	C	1.646379	0.930732	-0.436408
C89	C	1.151517	0.425315	-0.841879
C90	C	1.651517	0.925315	-0.341879
C91	C	1.042025	0.541087	-0.848528
C92	C	1.542025	1.041087	-0.348528
C93	C	1.036889	0.546509	-0.943055
C94	C	1.536889	1.046509	-0.443055
C95	C	1.130470	0.447606	-0.226080
C96	C	1.630470	0.947606	0.273920
C97	C	1.136108	0.441577	-0.125461
C98	C	1.636108	0.941577	0.374539
H99	H	1.198153	0.799662	-0.376182
H100	H	1.698153	1.299662	0.123818
H101	H	1.235962	1.109599	-0.336478
H102	H	1.735962	1.609599	0.163522
H103	H	0.999542	0.586018	-0.812745
H104	H	1.499542	1.086018	-0.312745
Cl105	Cl	0.964840	0.622687	-1.006654
Cl106	Cl	1.464840	1.122687	-0.506654
Cl107	Cl	1.223571	0.349135	-0.778289
Cl108	Cl	1.723571	0.849135	-0.278289
Cl109	Cl	1.270612	0.299386	-0.916750
Cl110	Cl	1.770612	0.799386	-0.416750
H111	H	1.235902	0.336046	-1.110640
H112	H	1.735902	0.836046	-0.610640
Cl113	Cl	1.011876	0.572925	-1.145124
Cl114	Cl	1.511876	1.072925	-0.645124
Cl115	Cl	1.270612	0.915685	-0.299723
Cl116	Cl	1.770612	1.415685	0.200277
H117	H	0.990198	0.983330	-0.595946
H118	H	1.490198	1.483330	-0.095946
Cl119	Cl	1.011904	1.144196	-0.573148
Cl120	Cl	1.511904	1.644196	-0.073148
H121	H	0.999472	0.811812	-0.586026
H122	H	1.499472	1.311812	-0.086026
