data_functionalizedCrystal
_audit_creation_method	'MofGen! by Chris Wilmer'
_symmetry_space_group_name_H-M	'P1'
_symmetry_Int_Tables_number	1
_symmetry_cell_setting	triclinic
loop_
_symmetry_equiv_pos_as_xyz
  x,y,z
_cell_length_a	17.699077
_cell_length_b	9.798715
_cell_length_c	17.699083
_cell_angle_alpha	90.004036
_cell_angle_beta	83.281795
_cell_angle_gamma	90.003125
loop_
_atom_site_label
_atom_site_type_symbol
_atom_site_fract_x
_atom_site_fract_y
_atom_site_fract_z
O1	O	1.004078	0.113476	0.095688
O2	O	1.504078	0.613476	0.595688
O3	O	0.783699	0.113483	0.108145
O4	O	1.283699	0.613483	0.608145
O5	O	0.900115	0.113467	-0.008273
O6	O	1.400115	0.613467	0.491727
O7	O	0.887662	0.113491	0.212106
O8	O	1.387662	0.613491	0.712106
O9	O	0.900106	-0.113515	-0.008273
O10	O	1.400106	0.386485	0.491727
O11	O	0.783690	-0.113500	0.108145
O12	O	1.283690	0.386500	0.608145
O13	O	1.004069	-0.113507	0.095688
O14	O	1.504069	0.386493	0.595688
Zn15	Zn	0.893878	-0.149541	0.101916
Zn16	Zn	1.393878	0.350459	0.601916
Zn17	Zn	0.893890	0.149517	0.101917
Zn18	Zn	1.393890	0.649517	0.601917
O19	O	0.887654	-0.113491	0.212106
O20	O	1.387654	0.386509	0.712106
C21	C	0.755498	-0.000008	0.107700
C22	C	1.255498	0.499992	0.607700
C23	C	0.671479	-0.000005	0.106363
C24	C	1.171479	0.499995	0.606363
N25	N	0.893876	-0.353641	0.101916
N26	N	1.393876	0.146359	0.601916
C27	C	0.632007	-0.123735	0.105733
C28	C	1.132007	0.376265	0.605733
C29	C	0.553065	-0.123736	0.104465
C30	C	1.053065	0.376264	0.604465
C31	C	0.513595	-0.000007	0.103832
C32	C	1.013595	0.499993	0.603832
C33	C	0.553073	0.123732	0.104460
C34	C	1.053073	0.623732	0.604460
C35	C	0.632015	0.123732	0.105722
C36	C	1.132015	0.623732	0.605722
C37	C	0.234709	0.123734	0.099366
C38	C	0.734709	0.623734	0.599366
C39	C	0.155762	0.123724	0.098106
C40	C	0.655762	0.623724	0.598106
C41	C	0.155759	-0.123735	0.098108
C42	C	0.655759	0.376265	0.598108
C43	C	0.234701	-0.123734	0.099371
C44	C	0.734701	0.376266	0.599371
C45	C	0.274173	0.000004	0.099995
C46	C	0.774173	0.500004	0.599995
C47	C	0.359772	0.000004	0.101369
C48	C	0.859772	0.500004	0.601369
C49	C	0.427997	-0.000006	0.102464
C50	C	0.927997	0.499994	0.602464
C51	C	0.942758	-0.421425	0.052822
C52	C	1.442758	0.078575	0.552822
C53	C	0.942770	-0.578587	0.052819
C54	C	1.442770	-0.078587	0.552819
C55	C	1.032271	-0.000013	0.096133
C56	C	1.532271	0.499987	0.596133
C57	C	1.116289	-0.000007	0.097470
C58	C	1.616289	0.499993	0.597470
C59	C	0.899664	-0.000024	-0.036470
C60	C	1.399664	0.499976	0.463530
C61	C	0.898326	-0.000025	-0.120488
C62	C	1.398326	0.499975	0.379512
N63	N	0.893898	0.353617	0.101911
N64	N	1.393898	0.853617	0.601911
C65	C	0.966659	-0.000029	-0.169110
C66	C	1.466659	0.499971	0.330890
C67	C	0.965397	-0.000017	-0.248054
C68	C	1.465397	0.499983	0.251946
C69	C	0.895800	-0.000010	-0.278373
C70	C	1.395800	0.499990	0.221627
C71	C	0.827461	-0.000002	-0.229744
C72	C	1.327461	0.499998	0.270256
C73	C	0.828724	-0.000005	-0.150803
C74	C	1.328724	0.499995	0.349197
C75	C	0.822366	0.000009	-0.548107
C76	C	1.322366	0.500009	-0.048107
C77	C	0.821108	0.000007	-0.627055
C78	C	1.321108	0.500007	-0.127055
C79	C	0.959039	-0.000003	-0.645358
C80	C	1.459039	0.499997	-0.145358
C81	C	0.960302	-0.000006	-0.566417
C82	C	1.460302	0.499994	-0.066417
C83	C	0.891963	0.000010	-0.517795
C84	C	1.391963	0.500010	-0.017795
C85	C	0.893333	-0.000001	-0.432196
C86	C	1.393333	0.499999	0.067804
C87	C	0.894430	-0.000010	-0.363971
C88	C	1.394430	0.499990	0.136029
C89	C	0.888104	0.000003	0.240303
C90	C	1.388104	0.500003	0.740303
C91	C	0.889443	0.000013	0.324321
C92	C	1.389443	0.500013	0.824321
H93	H	0.664137	-0.224490	0.106254
H94	H	1.164137	0.275510	0.606254
H95	H	0.766721	0.000021	-0.508528
H96	H	1.266721	0.500021	-0.008528
H97	H	0.520931	0.224475	0.103939
H98	H	1.020931	0.724475	0.603939
Br99	Br	0.726649	0.000014	-0.668202
Br100	Br	1.226649	0.500014	-0.168202
H101	H	0.770794	0.000012	-0.254436
H102	H	1.270794	0.500012	0.245564
H103	H	0.773080	-0.000001	-0.111214
H104	H	1.273080	0.499999	0.388786
Br105	Br	1.012533	-0.675735	-0.017234
Br106	Br	1.512533	-0.175735	0.482766
Br107	Br	0.824129	-0.450831	0.171965
Br108	Br	1.324129	0.049169	0.671965
H109	H	0.520932	-0.224489	0.103939
H110	H	1.020932	0.275511	0.603939
Br111	Br	1.061117	-0.000058	-0.127971
Br112	Br	1.561117	0.499942	0.372029
H113	H	0.266833	-0.224488	0.099890
H114	H	0.766833	0.275512	0.599890
H115	H	0.123613	-0.224488	0.097597
H116	H	0.623613	0.275512	0.597597
Br117	Br	1.012309	-0.324236	-0.017423
Br118	Br	1.512309	0.175764	0.482577
H119	H	0.266838	0.224489	0.099872
H120	H	0.766838	0.724489	0.599872
Br121	Br	0.102196	0.291654	0.097248
Br122	Br	0.602196	0.791654	0.597248
Br123	Br	1.058140	-0.000022	-0.314039
Br124	Br	1.558140	0.499978	0.185961
Br125	Br	1.051786	-0.000024	-0.711349
Br126	Br	1.551786	0.499976	-0.211349
H127	H	0.664152	0.224486	0.106237
H128	H	1.164152	0.724486	0.606237
H129	H	0.852049	-0.588101	0.143948
H130	H	1.352049	-0.088101	0.643948
Br131	Br	1.054757	-0.000013	-0.525273
Br132	Br	1.554757	0.499987	-0.025273
