data_functionalizedCrystal
_audit_creation_method	'MofGen! by Chris Wilmer'
_symmetry_space_group_name_H-M	'P1'
_symmetry_Int_Tables_number	1
_symmetry_cell_setting	triclinic
loop_
_symmetry_equiv_pos_as_xyz
  x,y,z
_cell_length_a	12.759395
_cell_length_b	21.395361
_cell_length_c	21.395355
_cell_angle_alpha	89.978489
_cell_angle_beta	89.977841
_cell_angle_gamma	90.032245
loop_
_atom_site_label
_atom_site_type_symbol
_atom_site_fract_x
_atom_site_fract_y
_atom_site_fract_z
Zn1	Zn	1.606169	-0.249485	-0.354208
Zn2	Zn	1.606005	-0.354245	-0.249425
Zn3	Zn	1.430462	-0.249488	-0.249449
Zn4	Zn	1.430410	-0.354232	-0.354170
O5	O	1.518262	-0.301863	-0.301813
O6	O	1.753168	-0.263386	-0.340315
O7	O	1.582672	-0.340356	-0.161751
O8	O	1.453860	-0.161810	-0.263372
O9	O	1.753048	-0.340353	-0.263331
O10	O	1.582951	-0.161808	-0.340338
O11	O	1.453701	-0.263391	-0.161768
O12	O	1.283434	-0.263378	-0.263335
O13	O	1.453772	-0.340330	-0.441853
O14	O	1.283396	-0.340333	-0.340273
O15	O	1.582901	-0.263373	-0.441881
O16	O	1.582622	-0.441921	-0.263294
O17	O	1.453613	-0.441912	-0.340249
C18	C	1.518123	-0.464650	-0.301778
C19	C	1.518160	-0.534292	-0.301784
C20	C	1.245294	-0.301855	-0.301803
C21	C	1.128517	-0.301867	-0.301813
C22	C	1.585394	-0.566989	-0.261755
C23	C	1.585443	-0.632424	-0.261769
C24	C	1.518239	-0.665160	-0.301806
C25	C	1.450999	-0.632455	-0.341843
C26	C	1.450960	-0.567020	-0.341833
C27	C	1.423641	-0.768877	-0.306718
C28	C	1.423678	-0.834310	-0.306725
C29	C	1.518361	-0.866981	-0.301843
C30	C	1.613009	-0.834211	-0.296941
C31	C	1.612969	-0.768777	-0.296931
C32	C	1.518274	-0.736112	-0.301822
C33	C	1.585654	-0.970631	-0.261826
C34	C	1.585705	-1.036067	-0.261845
C35	C	1.451252	-1.036096	-0.341916
C36	C	1.451211	-0.970661	-0.341901
C37	C	1.518410	-0.937932	-0.301852
C38	C	1.128516	-0.382129	-0.381798
C39	C	1.073655	-0.422266	-0.421793
C40	C	0.963933	-0.422273	-0.421801
C41	C	0.909071	-0.382139	-0.381811
C42	C	0.963932	-0.342003	-0.341816
C43	C	1.073656	-0.342001	-0.341811
C44	C	0.963933	-0.261738	-0.261835
C45	C	1.073655	-0.261733	-0.261823
C46	C	0.909070	-0.221604	-0.221845
C47	C	0.963931	-0.181470	-0.181846
C48	C	1.073660	-0.181465	-0.181840
C49	C	1.128516	-0.221597	-0.221828
C50	C	1.792295	-0.301871	-0.301824
C51	C	1.909072	-0.301874	-0.301829
C52	C	1.518349	-0.301850	-0.465237
C53	C	1.518386	-0.301845	-0.534878
C54	C	1.518429	-0.138439	-0.301862
C55	C	1.518501	-0.068798	-0.301883
C56	C	1.585621	-0.261772	-0.567607
C57	C	1.585619	-0.261745	-0.633042
C58	C	1.518394	-0.301802	-0.665746
C59	C	1.451147	-0.341878	-0.633010
C60	C	1.451142	-0.341899	-0.567575
C61	C	1.510050	-0.358217	-0.769409
C62	C	1.510062	-0.358197	-0.834842
C63	C	1.518401	-0.301736	-0.867567
C64	C	1.526750	-0.245293	-0.834851
C65	C	1.526746	-0.245314	-0.769417
C66	C	1.518391	-0.301783	-0.736699
C67	C	1.585637	-0.261630	-0.971249
C68	C	1.585629	-0.261602	-1.036685
C69	C	1.451161	-0.341741	-1.036651
C70	C	1.451165	-0.341763	-0.971216
C71	C	1.518408	-0.301709	-0.938519
C72	C	1.518235	-0.301830	-0.139026
C73	C	1.518402	-0.301659	-0.069385
H74	H	1.640115	-0.540343	-0.229147
C75	C	1.305981	-0.695381	-0.259141
C76	C	1.319554	-0.732970	-0.312086
H77	H	1.241726	-0.673214	-0.262459
H78	H	1.304662	-0.720928	-0.222833
H79	H	1.362343	-0.666502	-0.256231
H80	H	1.263195	-0.761853	-0.314993
H81	H	1.320864	-0.707421	-0.348404
H82	H	1.118336	-0.454941	-0.454353
H83	H	0.919254	-0.148793	-0.149293
H84	H	1.217857	-0.221598	-0.221825
H85	H	1.640376	-0.943982	-0.229218
C86	C	1.273232	-0.372250	-1.056763
C87	C	1.377267	-0.385772	-1.072597
H88	H	1.227613	-0.399431	-1.078961
H89	H	1.263611	-0.378005	-1.013115
H90	H	1.257914	-0.330147	-1.067487
H91	H	1.392589	-0.427874	-1.061869
H92	H	1.386893	-0.380022	-1.116255
C93	C	1.285766	-0.322551	-0.397870
C94	C	1.249124	-0.382128	-0.381786
H95	H	1.360225	-0.322553	-0.397859
H96	H	1.260996	-0.311789	-0.438323
H97	H	1.260941	-0.292910	-0.368329
H98	H	1.273944	-0.411769	-0.411330
H99	H	1.273905	-0.392898	-0.341327
H100	H	1.118321	-0.148776	-0.149275
H101	H	1.690034	-0.742097	-0.292941
H102	H	1.396408	-0.374491	-0.659641
H103	H	1.640462	-1.062688	-0.229249
C104	C	0.795732	-0.457916	-0.457322
C105	C	0.903622	-0.466389	-0.465763
H106	H	0.758500	-0.485149	-0.484466
H107	H	0.777719	-0.467022	-0.415212
H108	H	0.777805	-0.415831	-0.466574
H109	H	0.921550	-0.508473	-0.456507
H110	H	0.921642	-0.457287	-0.507883
C111	C	1.399882	-0.447864	-0.951052
C112	C	1.377266	-0.385819	-0.935236
H113	H	1.354258	-0.475061	-0.928837
H114	H	1.390260	-0.453579	-0.994697
H115	H	1.470464	-0.457032	-0.940339
H116	H	1.306686	-0.376650	-0.945954
H117	H	1.386879	-0.380101	-0.891582
H118	H	1.690109	-0.860810	-0.292966
H119	H	1.396387	-0.374531	-0.540928
C120	C	0.751948	-0.162040	-0.237946
C121	C	0.788462	-0.221613	-0.221854
H122	H	0.677489	-0.162049	-0.237954
H123	H	0.776763	-0.132398	-0.208405
H124	H	0.776815	-0.151275	-0.278400
H125	H	0.763601	-0.232376	-0.181398
H126	H	0.763636	-0.251264	-0.251396
H127	H	1.396283	-0.659112	-0.374443
H128	H	1.640197	-0.659052	-0.229172
H129	H	1.396209	-0.540398	-0.374430
C130	C	1.718533	-0.182555	-0.574218
C131	C	1.659522	-0.217737	-0.531667
H132	H	1.764150	-0.155368	-0.552028
H133	H	1.758694	-0.209848	-0.599743
H134	H	1.672773	-0.158583	-0.599734
H135	H	1.705283	-0.241714	-0.506153
H136	H	1.619359	-0.190441	-0.506131
C137	C	1.726982	-0.252957	-0.897702
C138	C	1.659548	-0.217600	-0.935305
H139	H	1.772616	-0.225774	-0.875518
H140	H	1.686944	-0.276822	-0.868843
H141	H	1.767132	-0.280247	-0.923246
H142	H	1.619392	-0.190314	-0.909761
H143	H	1.699590	-0.193725	-0.964168
H144	H	1.640377	-0.228966	-1.063332
H145	H	1.396537	-1.062749	-0.374518
H146	H	1.396458	-0.944037	-0.374494
H147	H	1.640367	-0.229109	-0.659695
C148	C	1.236532	-0.827834	-0.316407
C149	C	1.319645	-0.870327	-0.312112
H150	H	1.172307	-0.850070	-0.319736
H151	H	1.235179	-0.802333	-0.280086
H152	H	1.245739	-0.802288	-0.352317
H153	H	1.310442	-0.895870	-0.276198
H154	H	1.320997	-0.895839	-0.348436
H155	H	1.533542	-0.199357	-0.742782
C156	C	1.493396	-0.469812	-0.775973
C157	C	1.500764	-0.420279	-0.733441
H158	H	1.487632	-0.508122	-0.753767
H159	H	1.433240	-0.464250	-0.801507
H160	H	1.554332	-0.470660	-0.801481
H161	H	1.439824	-0.419428	-0.707936
H162	H	1.560926	-0.425843	-0.707896
H163	H	0.819730	-0.382143	-0.381826
C164	C	1.451699	-0.144386	-0.854962
C165	C	1.535910	-0.183219	-0.870807
H166	H	1.457361	-0.106065	-0.877157
H167	H	1.387732	-0.164416	-0.865675
H168	H	1.452907	-0.136335	-0.811307
H169	H	1.534697	-0.191275	-0.914460
H170	H	1.599894	-0.163186	-0.860098
C171	C	1.589673	-0.428341	-0.908424
C172	C	1.500907	-0.420242	-0.870793
H173	H	1.584027	-0.466650	-0.930612
H174	H	1.594636	-0.394721	-0.937279
H175	H	1.650557	-0.429156	-0.882897
H176	H	1.440023	-0.419423	-0.896320
H177	H	1.495933	-0.453871	-0.841935
