data_functionalizedCrystal
_audit_creation_method	'MofGen! by Chris Wilmer'
_symmetry_space_group_name_H-M	'P1'
_symmetry_Int_Tables_number	1
_symmetry_cell_setting	triclinic
loop_
_symmetry_equiv_pos_as_xyz
  x,y,z
_cell_length_a	10.723023
_cell_length_b	17.699104
_cell_length_c	16.776229
_cell_angle_alpha	90.007465
_cell_angle_beta	89.992604
_cell_angle_gamma	96.120467
loop_
_atom_site_label
_atom_site_type_symbol
_atom_site_fract_x
_atom_site_fract_y
_atom_site_fract_z
O1	O	1.655387	-0.106150	-0.066288
O2	O	2.155387	0.393850	0.433712
O3	O	1.292062	-0.116312	-0.066290
O4	O	1.792062	0.383688	0.433710
O5	O	1.483976	-0.001108	-0.066282
O6	O	1.983976	0.498892	0.433718
O7	O	1.463473	-0.221354	-0.066296
O8	O	1.963473	0.278646	0.433704
O9	O	1.483949	-0.001101	0.066295
O10	O	1.983949	0.498899	0.566295
O11	O	1.292035	-0.116305	0.066286
O12	O	1.792035	0.383695	0.566286
O13	O	1.655360	-0.106143	0.066289
O14	O	2.155360	0.393857	0.566289
Zn15	Zn	1.473693	-0.111223	0.087337
Zn16	Zn	1.973693	0.388777	0.587337
Zn17	Zn	1.473729	-0.111232	-0.087338
Zn18	Zn	1.973729	0.388768	0.412662
O19	O	1.463446	-0.221348	0.066280
O20	O	1.963446	0.278652	0.566280
C21	C	1.245561	-0.115569	-0.000002
C22	C	1.745561	0.384431	0.499998
C23	C	1.107045	-0.113357	-0.000003
C24	C	1.607045	0.386643	0.499997
C25	C	0.902118	-0.110081	0.068673
C26	C	1.402118	0.389919	0.568673
C27	C	1.045283	-0.112367	0.068675
C28	C	1.545283	0.387633	0.568675
C29	C	1.483223	0.027097	0.000007
C30	C	1.983223	0.527097	0.500007
C31	C	1.481006	0.111129	0.000007
C32	C	1.981006	0.611129	0.500007
C33	C	1.701861	-0.106886	-0.000001
C34	C	2.201861	0.393114	0.499999
C35	C	1.840378	-0.109098	-0.000006
C36	C	2.340378	0.390902	0.499994
C37	C	1.464199	-0.249552	-0.000010
C38	C	1.964199	0.250448	0.499990
C39	C	1.466416	-0.333584	-0.000015
C40	C	1.966416	0.166416	0.499985
N41	N	1.473678	-0.111216	0.206548
N42	N	1.973678	0.388784	0.706548
C43	C	1.581151	0.635368	-0.000015
C44	C	2.081151	1.135368	0.499985
C45	C	1.583227	0.556411	-0.000008
C46	C	2.083227	1.056411	0.499992
C47	C	1.470566	0.508504	-0.000007
C48	C	1.970566	1.008504	0.499993
C49	C	1.355822	0.539557	-0.000005
C50	C	1.855822	1.039557	0.499995
C51	C	1.353748	0.618513	-0.000006
C52	C	1.853748	1.118513	0.499994
C53	C	1.364186	0.221139	0.000002
C54	C	1.864186	0.721139	0.500002
C55	C	1.366269	0.142178	0.000001
C56	C	1.866269	0.642178	0.500001
C57	C	1.593666	0.159037	0.000000
C58	C	2.093666	0.659037	0.500000
C59	C	1.591591	0.237992	-0.000001
C60	C	2.091591	0.737992	0.499999
C61	C	1.476848	0.269039	0.000005
C62	C	1.976848	0.769039	0.500005
C63	C	1.474598	0.354653	-0.000001
C64	C	1.974598	0.854653	0.499999
C65	C	1.472815	0.422891	-0.000006
C66	C	1.972815	0.922891	0.499994
C67	C	1.558683	-0.060225	0.248269
C68	C	2.058683	0.439775	0.748269
C69	C	1.558689	-0.060225	0.331721
C70	C	2.058689	0.439775	0.831721
C71	C	1.473695	-0.111220	0.373451
C72	C	1.973695	0.388780	0.873451
C73	C	1.388681	-0.162213	0.331724
C74	C	1.888681	0.337787	0.831724
C75	C	1.388670	-0.162209	0.248274
C76	C	1.888670	0.337791	0.748274
C77	C	1.388722	-0.162229	0.668272
C78	C	1.888722	0.337771	1.168272
C79	C	1.388742	-0.162231	0.751728
C80	C	1.888742	0.337769	1.251728
C81	C	1.558741	-0.060245	0.751719
C82	C	2.058741	0.439755	1.251719
C83	C	1.558730	-0.060241	0.668268
C84	C	2.058730	0.439759	1.168268
C85	C	1.473712	-0.111231	0.626549
C86	C	1.973712	0.388769	1.126549
C87	C	1.473705	-0.111230	0.536061
C88	C	1.973705	0.388770	1.036061
C89	C	1.473707	-0.111225	0.463938
C90	C	1.973707	0.388775	0.963938
N91	N	1.473742	-0.111236	0.793450
N92	N	1.973742	0.388764	1.293450
H93	H	1.672893	0.674369	-0.000023
H94	H	2.172893	1.174369	0.499977
O95	O	1.234304	0.487891	0.000003
O96	O	1.734304	0.987891	0.500003
H97	H	1.229809	0.451513	-0.054036
H98	H	1.729809	0.951513	0.445964
O99	O	1.036750	-0.112233	-0.077902
O100	O	1.536750	0.387767	0.422098
H101	H	0.966182	-0.162782	-0.081327
H102	H	1.466182	0.337218	0.418673
O103	O	0.910752	-0.110222	-0.077890
O104	O	1.410752	0.389778	0.422110
H105	H	0.874590	-0.161322	-0.112570
H106	H	1.374590	0.338678	0.387430
H107	H	0.848988	-0.109234	0.127470
H108	H	1.348988	0.390766	0.627470
O109	O	1.706976	0.522920	-0.000026
O110	O	2.206976	1.022920	0.499974
H111	H	1.784967	0.569497	-0.000043
H112	H	2.284967	1.069497	0.499957
H113	H	1.683331	0.276995	-0.000006
H114	H	2.183331	0.776995	0.499994
O115	O	1.297041	-0.217234	0.623283
O116	O	1.797041	0.282766	1.123283
H117	H	1.236474	-0.185041	0.585283
H118	H	1.736474	0.314959	1.085283
H119	H	1.687095	0.133750	-0.000016
H120	H	2.187095	0.633750	0.499984
H121	H	1.274522	0.103173	0.000004
H122	H	1.774522	0.603173	0.500004
H123	H	1.627944	-0.018719	0.634294
H124	H	2.127944	0.481281	1.134294
H125	H	1.270755	0.246407	-0.000002
H126	H	1.770755	0.746407	0.499998
O127	O	1.650433	-0.005238	0.796714
O128	O	2.150433	0.494762	1.296714
H129	H	1.636157	-0.013798	0.861754
H130	H	2.136157	0.486202	1.361754
O131	O	1.115597	-0.113500	0.146567
O132	O	1.615597	0.386500	0.646567
H133	H	1.101960	-0.061607	0.181251
H134	H	1.601960	0.438393	0.681251
H135	H	1.319471	-0.203732	0.365706
H136	H	1.819471	0.296268	0.865706
O137	O	1.229999	0.652007	-0.000010
O138	O	1.729999	1.152007	0.499990
H139	H	1.152006	0.605431	-0.000016
H140	H	1.652006	1.105431	0.499984
H141	H	1.627900	-0.018703	0.214298
H142	H	2.127900	0.481297	0.714298
O143	O	1.650394	-0.005242	0.376723
O144	O	2.150394	0.494758	0.876723
H145	H	1.709512	0.030207	0.333686
H146	H	2.209512	0.530207	0.833686
H147	H	1.319525	-0.203758	0.785703
H148	H	1.819525	0.296242	1.285703
H149	H	1.319449	-0.203730	0.214305
H150	H	1.819449	0.296270	0.714305
