data_functionalizedCrystal
_audit_creation_method	'MofGen! by Chris Wilmer'
_symmetry_space_group_name_H-M	'P1'
_symmetry_Int_Tables_number	1
_symmetry_cell_setting	triclinic
loop_
_symmetry_equiv_pos_as_xyz
  x,y,z
_cell_length_a	14.446369
_cell_length_b	14.446369
_cell_length_c	18.426585
_cell_angle_alpha	90.002293
_cell_angle_beta	59.997188
_cell_angle_gamma	59.999699
loop_
_atom_site_label
_atom_site_type_symbol
_atom_site_fract_x
_atom_site_fract_y
_atom_site_fract_z
Zr1	Zr	1.013198	0.891774	-0.095250
O2	O	1.206331	0.743958	-0.211142
O3	O	0.820074	0.937086	-0.059718
O4	O	1.013202	0.937077	-0.211130
O5	O	1.013198	0.743974	0.059700
O6	O	1.013193	1.089414	-0.211126
O7	O	1.013204	0.743966	-0.059730
O8	O	0.667724	1.089429	0.059723
O9	O	1.358667	0.743960	-0.211148
O10	O	0.899499	1.070100	-0.044566
O11	O	0.899500	0.956418	0.044560
O12	O	1.126883	0.956408	-0.133708
O13	O	1.126884	0.842727	-0.044581
Zr14	Zr	1.013174	1.134746	0.095236
Zr15	Zr	1.013185	1.134734	-0.095243
Zr16	Zr	1.013188	0.891786	0.095229
Zr17	Zr	1.256156	0.891776	-0.095259
Zr18	Zr	0.770216	1.134744	0.095244
O19	O	1.206298	1.089434	0.059703
O20	O	1.206313	1.089416	-0.211133
O21	O	1.206317	0.743976	0.059694
O22	O	0.820041	1.282562	0.211128
O23	O	0.820055	1.282544	-0.059708
O24	O	0.820060	0.937104	0.211118
O25	O	1.013175	1.282545	-0.059715
O26	O	1.013171	1.089442	0.211115
O27	O	1.013179	0.937105	0.211111
O28	O	1.013168	1.282553	0.059716
O29	O	1.358657	0.937080	-0.211142
O30	O	0.667716	1.089439	0.211128
O31	O	0.667705	1.282560	0.211133
O32	O	0.667713	1.282550	0.059728
O33	O	1.358659	0.743970	-0.059743
O34	O	1.358648	0.937090	-0.059737
O35	O	0.899489	1.070111	0.133693
O36	O	0.899488	1.183793	0.044567
O37	O	1.126872	1.070102	-0.044575
O38	O	1.126873	0.956420	0.044552
C39	C	0.709283	1.013257	0.000004
C40	C	0.606141	1.013256	0.000007
C41	C	0.459132	0.941901	0.056477
C42	C	0.566752	0.941513	0.056249
C43	C	0.655145	0.960943	-0.096850
C44	C	0.547912	0.960407	-0.096556
C45	C	0.372674	1.136975	0.039561
C46	C	0.478825	1.136793	0.041538
C47	C	1.013203	0.709354	-0.000016
C48	C	1.013208	0.606211	-0.000019
C49	C	1.156604	0.387840	-0.055957
C50	C	1.156701	0.495071	-0.056272
C51	C	0.941979	0.602884	-0.041020
C52	C	0.942889	0.495115	-0.041430
C53	C	0.939929	0.496488	0.096992
C54	C	0.942631	0.602457	0.096839
C55	C	1.317089	1.013263	-0.000018
C56	C	1.420231	1.013264	-0.000022
C57	C	1.013199	1.013244	-0.238267
C58	C	1.013203	1.013239	-0.319130
C59	C	1.013169	1.317166	0.000002
C60	C	1.013164	1.420309	0.000005
C61	C	1.013164	1.013282	-0.615214
C62	C	1.013169	1.013272	-0.532832
C63	C	1.013183	1.013259	-0.467175
C64	C	1.013189	1.013251	-0.384788
C65	C	1.013173	1.013276	0.238252
C66	C	1.013169	1.013281	0.319116
C67	C	0.709266	1.317163	0.000012
C68	C	0.606118	1.420305	0.000019
C69	C	0.709270	1.013273	0.238263
C70	C	0.606124	1.013277	0.319130
C71	C	0.709253	1.317179	0.238272
C72	C	0.606101	1.420326	0.319142
C73	C	1.317119	0.709341	-0.238287
C74	C	1.420271	0.606193	-0.319156
C75	C	1.317106	0.709357	-0.000027
C76	C	1.420254	0.606215	-0.000034
C77	C	1.317102	1.013247	-0.238278
C78	C	1.420249	1.013242	-0.319145
C79	C	0.557679	1.072626	0.403641
C80	C	0.460776	1.072626	0.479631
C81	C	0.412312	1.013283	0.471109
C82	C	0.460766	0.953927	0.386589
C83	C	0.557674	0.953921	0.310601
C84	C	0.557659	1.528116	0.310596
C85	C	0.460750	1.625043	0.386575
C86	C	0.412279	1.614178	0.471098
C87	C	0.460730	1.506377	0.479642
C88	C	0.557644	1.409452	0.403665
C89	C	1.468725	0.498404	-0.310611
C90	C	1.565664	0.401476	-0.386589
C91	C	1.614140	0.412342	-0.471113
C92	C	1.565683	0.520143	-0.479657
C93	C	1.468752	0.617068	-0.403679
C94	C	1.468682	1.072597	-0.310594
C95	C	1.565586	1.072615	-0.386570
C96	C	1.614062	1.013271	-0.471095
C97	C	1.565619	0.953915	-0.479644
C98	C	1.468710	0.953904	-0.403669
C99	C	0.459790	1.638676	0.055951
C100	C	0.566719	1.531446	0.056266
C101	C	0.479257	1.423635	0.041026
C102	C	0.371874	1.531403	0.041435
C103	C	0.546861	1.530022	-0.096993
C104	C	0.655339	1.424054	-0.096839
H105	H	0.655559	0.850260	0.028807
F106	F	1.009069	0.429298	-0.134715
H107	H	1.605165	0.528976	-0.548485
F108	F	0.309171	1.013300	0.551991
H109	H	1.605103	0.905598	-0.548475
H110	H	0.421292	0.905611	0.379664
H111	H	1.693067	0.333410	-0.532971
F112	F	0.250170	1.194083	0.131367
H113	H	1.429302	0.704832	-0.410648
H114	H	0.281112	1.581755	0.112805
H115	H	0.501510	1.345365	0.002232
F116	F	1.417107	1.135764	-0.220643
H117	H	0.530036	0.976604	0.127571
H118	H	0.341924	1.504747	0.003310
F119	F	0.801810	0.532372	0.151745
H120	H	0.370258	0.976806	0.127977
H121	H	0.440694	1.421506	0.111718
H122	H	0.370115	1.693667	0.127065
H123	H	0.656071	1.533058	0.028764
H124	H	1.605018	1.120948	-0.379592
F125	F	0.409130	1.494831	0.569606
H126	H	1.605102	0.313710	-0.379615
H127	H	0.588617	0.869373	-0.128244
H128	H	1.692972	1.013289	-0.532952
F129	F	0.508469	1.709200	0.020184
H130	H	0.421311	1.712811	0.379602
F131	F	0.805337	0.529951	0.008392
F132	F	0.609216	0.890756	0.220660
F133	F	0.517746	1.534661	0.149782
H134	H	0.333365	1.693110	0.532957
H135	H	0.346698	1.190395	-0.001394
H136	H	1.429287	0.905566	-0.410644
F137	F	0.514466	1.494141	-0.151743
F138	F	0.598592	1.595392	-0.141763
H139	H	0.525943	1.009027	-0.140939
H140	H	0.687471	1.344893	-0.142039
F141	F	0.505810	0.823347	0.020944
F142	F	0.692827	1.025584	-0.154265
F143	F	0.609183	1.294737	0.412774
F144	F	0.427051	1.187878	0.134805
F145	F	0.775805	0.843091	-0.138553
F146	F	0.506924	1.212150	-0.006654
F147	F	1.417147	0.486814	-0.220661
H148	H	0.836474	0.681154	-0.002222
H149	H	0.745829	1.424574	-0.127472
H150	H	1.212897	0.333886	-0.028594
F151	F	1.229836	0.315968	-0.148908
F152	F	1.229745	0.492966	-0.020326
F153	F	1.230221	0.491864	-0.149786
H154	H	0.991459	0.605015	-0.111712
H155	H	0.985821	0.446467	0.131244
H156	H	0.597111	1.536984	0.241780
F157	F	1.010497	0.601804	0.136883
H158	H	0.837944	0.681618	0.142042
F159	F	0.609237	1.135796	0.412731
H160	H	0.421336	1.120965	0.548443
