data_functionalizedCrystal
_audit_creation_method	'MofGen! by Chris Wilmer'
_symmetry_space_group_name_H-M	'P1'
_symmetry_Int_Tables_number	1
_symmetry_cell_setting	triclinic
loop_
_symmetry_equiv_pos_as_xyz
  x,y,z
_cell_length_a	17.699097
_cell_length_b	19.188930
_cell_length_c	16.176319
_cell_angle_alpha	89.988074
_cell_angle_beta	89.988988
_cell_angle_gamma	83.216605
loop_
_atom_site_label
_atom_site_type_symbol
_atom_site_fract_x
_atom_site_fract_y
_atom_site_fract_z
O1	O	1.003956	0.088339	-0.068825
O2	O	0.783564	0.099816	-0.068812
O3	O	0.900120	-0.007571	-0.068803
O4	O	0.887400	0.195726	-0.068834
O5	O	0.900104	-0.007578	0.068691
O6	O	0.783548	0.099809	0.068681
O7	O	1.003940	0.088332	0.068669
Cu8	Cu	0.893743	0.094070	0.081229
Cu9	Cu	0.893762	0.094078	-0.081373
O10	O	0.887384	0.195719	0.068659
C11	C	0.755360	0.099400	-0.000064
C12	C	0.671344	0.098161	-0.000059
C13	C	0.899700	-0.033586	-0.000054
C14	C	0.898464	-0.111092	-0.000046
C15	C	0.155644	0.090574	-0.075038
C16	C	0.234587	0.091732	-0.075034
C17	C	0.274043	0.092309	-0.000084
C18	C	0.234554	0.091720	0.074868
C19	C	0.155614	0.090556	0.074863
C20	C	0.552912	0.096413	0.074889
C21	C	0.631858	0.097579	0.074888
C22	C	0.631885	0.097589	-0.075009
C23	C	0.552945	0.096426	-0.075013
C24	C	0.513463	0.095833	-0.000062
C25	C	0.427865	0.094575	-0.000067
C26	C	0.359639	0.093572	-0.000078
C27	C	0.966855	-0.155936	-0.000046
C28	C	0.965693	-0.228761	-0.000059
C29	C	0.896136	-0.256739	-0.000056
C30	C	0.827736	-0.211885	-0.000061
C31	C	0.828900	-0.139061	-0.000056
N32	N	0.842963	-0.364808	0.046738
N33	N	0.841862	-0.433988	0.046735
C34	C	0.892626	-0.476151	-0.000073
N35	N	0.944544	-0.446523	-0.046868
N36	N	0.945647	-0.377337	-0.046861
C37	C	0.894867	-0.335703	-0.000062
C38	C	0.959763	-0.599962	-0.000088
C39	C	0.958598	-0.672788	-0.000106
C40	C	0.820639	-0.655910	-0.000100
C41	C	0.821805	-0.583085	-0.000090
C42	C	0.891369	-0.555116	-0.000080
C43	C	1.032144	0.088748	-0.000082
C44	C	1.116160	0.089987	-0.000092
C45	C	0.887804	0.221734	-0.000092
C46	C	0.889040	0.299240	-0.000104
N47	N	0.893735	0.094064	0.195594
N48	N	0.893775	0.094079	-0.195738
C49	C	0.945361	0.046532	0.238863
C50	C	0.945365	0.046531	0.325410
C51	C	0.893746	0.094066	0.368687
C52	C	0.842114	0.141600	0.325412
C53	C	0.842107	0.141597	0.238867
C54	C	0.842139	0.141613	0.674441
C55	C	0.842152	0.141614	0.760992
C56	C	0.945398	0.046548	0.760984
C57	C	0.945391	0.046545	0.674438
C58	C	0.893757	0.094076	0.631171
C59	C	0.893752	0.094075	0.537327
C60	C	0.893753	0.094071	0.462529
H61	H	0.123524	0.090109	-0.136072
H62	H	0.766114	-0.546572	-0.000085
C63	C	0.675259	0.098208	0.157344
N64	N	0.707949	0.098680	0.219447
C65	C	0.509489	0.095782	0.157338
N66	N	0.476780	0.095314	0.219442
H67	H	0.266732	0.092206	-0.136063
C68	C	0.509548	0.095787	-0.157465
N69	N	0.476863	0.095301	-0.219569
C70	C	1.002140	-0.005774	0.373001
N71	N	1.044899	-0.045179	0.408846
C72	C	0.753660	-0.089730	-0.000054
N73	N	0.696989	-0.052573	-0.000051
H74	H	0.664041	0.098069	-0.136038
C75	C	0.277955	0.092384	0.157315
N76	N	0.310642	0.092898	0.219416
H77	H	0.800114	0.180324	0.796227
H78	H	0.123466	0.090085	0.135892
H79	H	1.023499	-0.133169	-0.000041
H80	H	0.800098	0.180316	0.639219
H81	H	1.021387	-0.265280	-0.000063
C82	C	0.785324	0.193882	0.373020
N83	N	0.742549	0.233262	0.408878
C84	C	1.002191	-0.005744	0.808585
N85	N	1.044966	-0.045129	0.844437
C86	C	0.751223	-0.242661	-0.000051
N87	N	0.693591	-0.265842	-0.000045
C88	C	1.036284	-0.569193	-0.000090
N89	N	1.093920	-0.546020	-0.000094
H90	H	1.014293	-0.709300	-0.000111
C91	C	0.744125	-0.686681	-0.000099
N92	N	0.686493	-0.709861	-0.000100
C93	C	1.002148	-0.005761	0.191266
N94	N	1.044919	-0.045152	0.155418
C95	C	1.002175	-0.005749	0.626838
N96	N	1.044943	-0.045140	0.590987
C97	C	0.785320	0.193891	0.191272
N98	N	0.742546	0.233281	0.155425
