data_functionalizedCrystal
_audit_creation_method	'MofGen! by Chris Wilmer'
_symmetry_space_group_name_H-M	'P1'
_symmetry_Int_Tables_number	1
_symmetry_cell_setting	triclinic
loop_
_symmetry_equiv_pos_as_xyz
  x,y,z
_cell_length_a	16.120297
_cell_length_b	12.759401
_cell_length_c	12.759400
_cell_angle_alpha	89.982372
_cell_angle_beta	87.124600
_cell_angle_gamma	92.881900
loop_
_atom_site_label
_atom_site_type_symbol
_atom_site_fract_x
_atom_site_fract_y
_atom_site_fract_z
Zn1	Zn	-0.471320	1.576122	0.448329
Zn2	Zn	-0.331915	1.584929	0.615114
Zn3	Zn	-0.331932	1.409336	0.439459
Zn4	Zn	-0.471291	1.400415	0.623974
O5	O	-0.401615	1.492700	0.531719
O6	O	-0.452833	1.724311	0.470458
O7	O	-0.215254	1.569056	0.584392
O8	O	-0.350441	1.431508	0.293616
O9	O	-0.350413	1.730782	0.592993
O10	O	-0.452849	1.554045	0.300133
O11	O	-0.215266	1.440048	0.455340
O12	O	-0.350413	1.261132	0.463932
O13	O	-0.587958	1.416303	0.608095
O14	O	-0.452800	1.254577	0.599494
O15	O	-0.587980	1.545395	0.479049
O16	O	-0.350385	1.560405	0.763309
O17	O	-0.452783	1.424843	0.769819
C18	C	-0.401606	1.219734	0.531712
C19	C	-0.401621	1.102956	0.531736
C20	C	-0.619064	1.478871	0.545550
C21	C	-0.711728	1.472978	0.551444
C22	C	-0.401597	1.492639	0.804685
C23	C	-0.401618	1.492707	0.921463
C24	C	-0.881387	1.462181	0.562181
C25	C	-0.922694	1.523427	0.500943
C26	C	-1.017098	1.517419	0.506917
C27	C	-0.786975	1.468187	0.556208
C28	C	-0.185011	1.506536	0.517866
C29	C	-0.092347	1.512632	0.511677
C30	C	-0.401624	1.766733	0.531727
C31	C	-0.401628	1.883509	0.531730
C32	C	-0.454948	1.935005	0.467931
C33	C	-0.454947	2.044729	0.467937
C34	C	-0.348299	2.051453	0.595542
C35	C	-0.348305	1.941731	0.595542
C36	C	-0.508271	1.876783	0.404119
C37	C	-0.561594	1.928278	0.340314
C38	C	-0.561593	2.038002	0.340320
C39	C	-0.508269	2.096231	0.404130
C40	C	-0.401650	1.492789	0.257688
C41	C	-0.401665	1.492827	0.140912
C42	C	-0.348358	1.563365	0.972905
C43	C	-0.348383	1.563428	1.082630
C44	C	-0.454931	1.422166	1.089464
C45	C	-0.454909	1.422109	0.979740
C46	C	-0.295066	1.633964	0.914628
C47	C	-0.241801	1.704626	0.966069
C48	C	-0.241827	1.704689	1.075794
C49	C	-0.295117	1.634089	1.134079
H50	H	-0.887159	1.580373	0.444027
N51	N	-0.293828	2.110947	0.660696
N52	N	-0.240707	2.175556	0.620346
H53	H	-0.202233	2.217575	0.666358
H54	H	-0.916920	1.405239	0.619092
N55	N	-0.187371	1.776754	0.906554
N56	N	-0.192966	1.873345	0.919077
H57	H	-0.154524	1.924289	0.877047
N58	N	-0.295061	1.633885	0.802548
N59	N	-0.277588	1.553029	0.752539
H60	H	-0.277590	1.552970	0.673383
H61	H	-0.198462	1.762233	1.117675
H62	H	-0.605013	1.880861	0.288368
H63	H	-0.508274	1.787440	0.404103
N64	N	-0.509344	1.350033	1.148997
N65	N	-0.503740	1.253443	1.136471
H66	H	-0.542166	1.202493	1.178515
H67	H	-0.605017	2.079926	0.288374
H68	H	-0.295141	1.634154	1.223425
N69	N	-0.508285	2.208311	0.404134
N70	N	-0.555900	2.254279	0.347170
H71	H	-0.555911	2.333435	0.347168
N72	N	-0.293839	1.889139	0.660719
N73	N	-0.246229	1.941132	0.717682
H74	H	-0.207763	1.903989	0.763718
N75	N	-0.509323	1.349934	0.927204
N76	N	-0.556897	1.286903	0.979246
H77	H	-0.595331	1.235931	0.942143
