data_functionalizedCrystal
_audit_creation_method	'MofGen! by Chris Wilmer'
_symmetry_space_group_name_H-M	'P1'
_symmetry_Int_Tables_number	1
_symmetry_cell_setting	triclinic
loop_
_symmetry_equiv_pos_as_xyz
  x,y,z
_cell_length_a	12.837943
_cell_length_b	7.681481
_cell_length_c	8.597304
_cell_angle_alpha	103.491353
_cell_angle_beta	90.035109
_cell_angle_gamma	83.665993
loop_
_atom_site_label
_atom_site_type_symbol
_atom_site_fract_x
_atom_site_fract_y
_atom_site_fract_z
O1	O	1.365648	0.211313	0.427978
O2	O	1.063842	0.208219	0.407509
O3	O	1.222999	0.174749	0.186957
O4	O	1.206491	0.244782	0.648529
O5	O	1.242589	-0.122238	0.159743
O6	O	1.083432	-0.088769	0.380295
O7	O	1.385238	-0.085675	0.400763
Zn8	Zn	1.237445	-0.134375	0.386208
Zn9	Zn	1.211635	0.256919	0.422064
O10	O	1.226081	-0.052205	0.621315
C11	C	1.035016	0.058677	0.386987
C12	C	0.919939	0.055553	0.366364
N13	N	1.255067	-0.401423	0.361737
C14	C	0.678978	0.093146	0.614297
C15	C	0.570853	0.090210	0.594926
C16	C	0.595561	0.046733	0.308253
C17	C	0.703687	0.049669	0.327623
C18	C	0.745391	0.072879	0.480650
C19	C	0.853518	0.075827	0.500020
C20	C	0.878225	0.032337	0.213347
C21	C	0.770099	0.029401	0.193977
C22	C	1.414063	0.063871	0.421286
C23	C	1.529140	0.067007	0.441910
C24	C	1.232113	0.017233	0.113861
C25	C	1.230070	-0.009651	-0.063400
N26	N	1.194021	0.523965	0.446523
C27	C	1.216967	0.105315	0.694412
C28	C	1.219009	0.132210	0.871673
H29	H	1.317395	-0.489760	0.275204
H30	H	1.211097	0.274241	-0.048303
C31	C	0.899398	0.101356	0.668336
H32	H	0.973304	0.100220	0.660738
H33	H	0.883434	0.006239	0.714559
H34	H	0.869766	0.213385	0.733549
C35	C	1.109834	-0.356718	0.563430
H36	H	1.111744	-0.234164	0.560751
H37	H	1.123186	-0.370867	0.668731
H38	H	1.042626	-0.391489	0.532911
C39	C	0.724856	0.118691	0.782615
H40	H	0.669816	0.130338	0.859438
H41	H	0.759691	0.224306	0.805615
H42	H	0.773354	0.017161	0.786639
H43	H	0.516783	0.106709	0.703755
C44	C	0.549674	0.021186	0.139941
H45	H	0.475767	0.022344	0.147554
H46	H	0.579306	-0.090832	0.074730
H47	H	0.565628	0.116313	0.093711
C48	C	0.724218	0.003882	0.025663
H49	H	0.650309	0.005047	0.033266
H50	H	0.753847	-0.108130	-0.039561
H51	H	0.740179	0.099020	-0.020546
H52	H	0.932310	0.015846	0.104524
C53	C	1.240746	-0.201536	-0.171503
H54	H	1.237929	-0.195056	-0.280459
H55	H	1.185040	-0.263509	-0.147392
H56	H	1.305872	-0.264414	-0.153366
