data_functionalizedCrystal
_audit_creation_method	'MofGen! by Chris Wilmer'
_symmetry_space_group_name_H-M	'P1'
_symmetry_Int_Tables_number	1
_symmetry_cell_setting	triclinic
loop_
_symmetry_equiv_pos_as_xyz
  x,y,z
_cell_length_a	15.995350
_cell_length_b	19.288865
_cell_length_c	17.766277
_cell_angle_alpha	90.011603
_cell_angle_beta	90.005713
_cell_angle_gamma	83.314311
loop_
_atom_site_label
_atom_site_type_symbol
_atom_site_fract_x
_atom_site_fract_y
_atom_site_fract_z
O1	O	-1.110654	-0.089532	-0.062539
O2	O	-0.610654	0.410468	0.437461
O3	O	-0.866837	-0.100588	-0.062556
O4	O	-0.366837	0.399412	0.437444
O5	O	-0.995790	0.006052	-0.062532
O6	O	-0.495790	0.506052	0.437468
O7	O	-0.981700	-0.196172	-0.062563
O8	O	-0.481700	0.303828	0.437437
O9	O	-0.995768	0.006058	0.062656
O10	O	-0.495768	0.506058	0.562656
O11	O	-0.866814	-0.100582	0.062633
O12	O	-0.366814	0.399418	0.562633
O13	O	-1.110631	-0.089526	0.062649
O14	O	-0.610631	0.410474	0.562649
Cu15	Cu	-0.988720	-0.095054	0.074072
Cu16	Cu	-0.488720	0.404946	0.574072
Cu17	Cu	-0.988747	-0.095060	-0.073978
Cu18	Cu	-0.488747	0.404940	0.426022
O19	O	-0.981677	-0.196166	0.062626
O20	O	-0.481677	0.303834	0.562626
C21	C	-0.835632	-0.100128	0.000036
C22	C	-0.335632	0.399872	0.500036
C23	C	-0.742687	-0.098757	0.000031
C24	C	-0.242687	0.401243	0.500031
C25	C	-0.995326	0.031933	0.000064
C26	C	-0.495326	0.531933	0.500064
C27	C	-0.993965	0.109040	0.000071
C28	C	-0.493965	0.609040	0.500071
C29	C	-1.141835	-0.089986	0.000055
C30	C	-0.641835	0.410014	0.500055
C31	C	-1.234781	-0.091356	0.000056
C32	C	-0.734781	0.408644	0.500056
C33	C	-0.404958	-0.093836	0.000047
C34	C	0.095042	0.406164	0.500047
C35	C	-0.452679	-0.017889	0.000338
C36	C	0.047321	0.482111	0.500338
C37	C	-0.549364	-0.019260	0.000050
C38	C	-0.049364	0.480740	0.500050
C39	C	-0.572509	-0.096277	0.000039
C40	C	-0.072509	0.403723	0.500039
C41	C	-0.531294	-0.133740	-0.071452
C42	C	-0.031294	0.366260	0.428548
C43	C	-0.434665	-0.131832	-0.071506
C44	C	0.065335	0.368168	0.428494
C45	C	-0.434295	-0.133395	0.070856
C46	C	0.065705	0.366605	0.570856
C47	C	-0.531240	-0.133377	0.071796
C48	C	-0.031240	0.366623	0.571796
C49	C	-0.667202	-0.097661	0.000033
C50	C	-0.167202	0.402339	0.500033
C51	C	-0.310266	-0.092455	0.000049
C52	C	0.189734	0.407545	0.500049
C53	C	-0.982142	-0.222047	0.000027
C54	C	-0.482142	0.277953	0.500027
C55	C	-0.983503	-0.299154	0.000016
C56	C	-0.483503	0.200846	0.500016
N57	N	-0.988708	-0.095049	0.178202
N58	N	-0.488708	0.404951	0.678202
C59	C	-1.069629	0.153540	0.000080
C60	C	-0.569629	0.653540	0.500080
C61	C	-1.068350	0.225990	0.000068
C62	C	-0.568350	0.725990	0.500068
C63	C	-0.991403	0.253937	0.000062
C64	C	-0.491403	0.753937	0.500062
C65	C	-0.915729	0.209428	0.000049
C66	C	-0.415729	0.709428	0.500049
C67	C	-0.917010	0.136979	0.000053
C68	C	-0.417010	0.636979	0.500053
C69	C	-0.930906	0.362384	0.043909
C70	C	-0.430906	0.862384	0.543909
C71	C	-0.929628	0.434832	0.043909
C72	C	-0.429628	0.934832	0.543909
C73	C	-0.987450	0.477393	0.000045
C74	C	-0.487450	0.977393	0.500045
C75	C	-1.046563	0.447500	-0.043810
C76	C	-0.546563	0.947500	0.456190
C77	C	-1.047844	0.375051	-0.043805
C78	C	-0.547844	0.875051	0.456195
C79	C	-0.990006	0.332495	0.000057
C80	C	-0.490006	0.832495	0.500057
C81	C	-1.061733	0.600453	0.000040
C82	C	-0.561733	1.100453	0.500040
C83	C	-1.060451	0.672904	0.000023
C84	C	-0.560451	1.172904	0.500023
C85	C	-0.907827	0.656340	0.000012
C86	C	-0.407827	1.156340	0.500012
C87	C	-0.909111	0.583890	0.000021
C88	C	-0.409111	1.083890	0.500021
C89	C	-0.986066	0.555951	0.000038
C90	C	-0.486066	1.055951	0.500038
N91	N	-0.988766	-0.095060	-0.178109
N92	N	-0.488766	0.404940	0.321891
C93	C	-1.045827	-0.047852	0.217599
C94	C	-0.545827	0.452148	0.717599
C95	C	-1.045832	-0.047848	0.296401
C96	C	-0.545832	0.452152	0.796401
C97	C	-0.988725	-0.095054	0.335803
C98	C	-0.488725	0.404946	0.835803
C99	C	-0.931596	-0.142255	0.296396
C100	C	-0.431596	0.357745	0.796396
C101	C	-0.931587	-0.142252	0.217595
C102	C	-0.431587	0.357748	0.717595
C103	C	-0.977516	-0.158313	0.460630
C104	C	-0.477516	0.341687	0.960630
C105	C	-0.977531	-0.158317	0.539429
C106	C	-0.477531	0.341683	1.039429
C107	C	-0.988748	-0.095063	0.578849
C108	C	-0.488748	0.404937	1.078849
C109	C	-0.999968	-0.031802	0.539460
C110	C	-0.499968	0.468198	1.039460
C111	C	-0.999959	-0.031800	0.460660
C112	C	-0.499959	0.468200	0.960660
C113	C	-0.988728	-0.095062	0.421248
C114	C	-0.488728	0.404938	0.921248
C115	C	-1.045875	-0.047858	0.703692
C116	C	-0.545875	0.452142	1.203692
C117	C	-1.045874	-0.047854	0.782495
C118	C	-0.545874	0.452146	1.282495
C119	C	-0.931642	-0.142267	0.782488
C120	C	-0.431642	0.357733	1.282488
C121	C	-0.931639	-0.142265	0.703687
C122	C	-0.431639	0.357735	1.203687
C123	C	-0.988760	-0.095061	0.664293
C124	C	-0.488760	0.404939	1.164293
H125	H	-0.577894	0.010188	0.051299
H126	H	-0.077894	0.510188	0.551299
H127	H	-0.968400	-0.209827	0.571494
H128	H	-0.468400	0.290173	1.071494
H129	H	-0.845176	0.679094	0.000003
H130	H	-0.345176	1.179094	0.500003
Cl131	Cl	-1.163478	0.281943	0.000078
Cl132	Cl	-0.663478	0.781943	0.500078
Cl133	Cl	-1.117630	0.011492	0.168077
Cl134	Cl	-0.617630	0.511492	0.668077
Cl135	Cl	-0.963492	-0.237842	0.411083
Cl136	Cl	-0.463492	0.262158	0.911083
H137	H	-1.132291	0.130797	0.000091
H138	H	-0.632291	0.630797	0.500091
Cl139	Cl	-1.119257	0.500998	-0.098958
Cl140	Cl	-0.619257	1.000998	0.401042
H141	H	-0.545206	-0.190323	-0.074118
H142	H	-0.045206	0.309677	0.425882
H143	H	-0.885131	-0.180700	0.671607
H144	H	-0.385131	0.319300	1.171607
H145	H	-1.124394	0.577704	0.000050
H146	H	-0.624394	1.077704	0.500050
H147	H	-0.433208	0.012326	-0.050640
H148	H	0.066792	0.512326	0.449360
H149	H	-0.546393	-0.189540	0.076106
H150	H	-0.046393	0.310460	0.576106
Cl151	Cl	-0.402726	-0.095055	0.154520
Cl152	Cl	0.097274	0.404945	0.654520
Cl153	Cl	-1.014054	0.047724	0.411145
Cl154	Cl	-0.514054	0.547724	0.911145
Cl155	Cl	-1.155581	0.728849	0.000029
Cl156	Cl	-0.655581	1.228849	0.500029
Cl157	Cl	-0.575263	-0.093575	-0.153588
Cl158	Cl	-0.075263	0.406425	0.346412
Cl159	Cl	-0.813985	0.527944	0.000013
Cl160	Cl	-0.313985	1.027944	0.500013
H161	H	-0.558650	-0.106030	0.124685
H162	H	-0.058650	0.393970	0.624685
Cl163	Cl	-1.122148	0.337472	-0.098939
Cl164	Cl	-0.622148	0.837472	0.401061
H165	H	-0.885098	-0.180689	0.328480
H166	H	-0.385098	0.319311	0.828480
H167	H	-0.885073	-0.180686	0.185517
H168	H	-0.385073	0.319314	0.685517
Cl169	Cl	-0.818995	0.244560	0.000036
Cl170	Cl	-0.318995	0.744560	0.500036
H171	H	-1.092346	-0.009414	0.328484
H172	H	-0.592346	0.490586	0.828484
H173	H	-0.881491	0.459164	0.079613
H174	H	-0.381491	0.959164	0.579613
H175	H	-0.434262	0.012471	0.051608
H176	H	0.065738	0.512471	0.551608
H177	H	-0.855393	0.100746	0.000046
H178	H	-0.355393	0.600746	0.500046
Cl179	Cl	-0.858211	0.308885	0.099060
Cl180	Cl	-0.358211	0.808885	0.599060
H181	H	-1.009102	0.019705	0.571554
H182	H	-0.509102	0.519705	1.071554
H183	H	-1.092384	-0.009420	0.671617
H184	H	-0.592384	0.490580	1.171617
Cl185	Cl	-0.592534	0.026304	-0.079333
Cl186	Cl	-0.092534	0.526304	0.420667
Cl187	Cl	-1.117682	0.011488	0.832027
Cl188	Cl	-0.617682	0.511488	1.332027
H189	H	-0.416470	-0.104517	-0.124940
H190	H	0.083530	0.395483	0.375060
H191	H	-0.885142	-0.180700	0.814568
H192	H	-0.385142	0.319300	1.314568
Cl193	Cl	-0.384933	-0.219847	0.071592
Cl194	Cl	0.115067	0.280153	0.571592
Cl195	Cl	-0.384549	-0.217917	-0.076529
Cl196	Cl	0.115451	0.282083	0.423471
