data_functionalizedCrystal
_audit_creation_method	'MofGen! by Chris Wilmer'
_symmetry_space_group_name_H-M	'P1'
_symmetry_Int_Tables_number	1
_symmetry_cell_setting	triclinic
loop_
_symmetry_equiv_pos_as_xyz
  x,y,z
_cell_length_a	21.295418
_cell_length_b	21.295417
_cell_length_c	21.295411
_cell_angle_alpha	89.978356
_cell_angle_beta	89.956262
_cell_angle_gamma	90.046319
loop_
_atom_site_label
_atom_site_type_symbol
_atom_site_fract_x
_atom_site_fract_y
_atom_site_fract_z
Zn1	Zn	0.962356	-0.250415	-0.356234
Zn2	Zn	1.462356	0.249585	0.143766
Zn3	Zn	0.962258	-0.355667	-0.250959
Zn4	Zn	1.462258	0.144333	0.249041
Zn5	Zn	0.857079	-0.250445	-0.250943
Zn6	Zn	1.357079	0.249555	0.249057
Zn7	Zn	0.857048	-0.355680	-0.356155
Zn8	Zn	1.357048	0.144320	0.143845
O9	O	0.909685	-0.303052	-0.303573
O10	O	1.409685	0.196948	0.196427
O11	O	1.050432	-0.264360	-0.342308
O12	O	1.550432	0.235640	0.157692
O13	O	0.948278	-0.341716	-0.162867
O14	O	1.448278	0.158284	0.337133
O15	O	0.871098	-0.162351	-0.264937
O16	O	1.371098	0.337649	0.235063
O17	O	1.050361	-0.341688	-0.264963
O18	O	1.550361	0.158312	0.235037
O19	O	0.948444	-0.162330	-0.342293
O20	O	1.448444	0.337670	0.157707
O21	O	0.871003	-0.264410	-0.162856
O22	O	1.371003	0.235590	0.337144
O23	O	0.768985	-0.264422	-0.264861
O24	O	1.268985	0.235578	0.235139
O25	O	0.871046	-0.341709	-0.444255
O26	O	1.371046	0.158291	0.055745
O27	O	0.768963	-0.341738	-0.342160
O28	O	1.268963	0.158262	0.157840
O29	O	0.948415	-0.264372	-0.444313
O30	O	1.448415	0.235628	0.055687
O31	O	0.948248	-0.443758	-0.264887
O32	O	1.448248	0.056242	0.235113
O33	O	0.870951	-0.443767	-0.342175
O34	O	1.370951	0.056233	0.157825
C35	C	0.746134	-0.303085	-0.303500
C36	C	1.246134	0.196915	0.196500
C37	C	0.676166	-0.303114	-0.303484
C38	C	1.176166	0.196886	0.196516
C39	C	0.643304	-0.343426	-0.343674
C40	C	1.143304	0.156574	0.156326
C41	C	0.577561	-0.343410	-0.343702
C42	C	1.077561	0.156590	0.156298
C43	C	0.544683	-0.303090	-0.303530
C44	C	1.044683	0.196910	0.196470
C45	C	0.577553	-0.262770	-0.263337
C46	C	1.077553	0.237230	0.236663
C47	C	0.643294	-0.262783	-0.263315
C48	C	1.143294	0.237217	0.236685
N49	N	0.441407	-0.298163	-0.248472
N50	N	0.941407	0.201837	0.251528
N51	N	0.378956	-0.298155	-0.248495
N52	N	0.878956	0.201845	0.251505
C53	C	0.346608	-0.303050	-0.303596
C54	C	0.846608	0.196950	0.196404
N55	N	0.379072	-0.307965	-0.358675
N56	N	0.879072	0.192035	0.141325
N57	N	0.441529	-0.307976	-0.358650
N58	N	0.941529	0.192024	0.141350
C59	C	0.473398	-0.303072	-0.303550
C60	C	0.973398	0.196928	0.196450
C61	C	0.242461	-0.343346	-0.343820
C62	C	0.742461	0.156654	0.156180
C63	C	0.176717	-0.343326	-0.343849
C64	C	0.676717	0.156674	0.156151
C65	C	0.176710	-0.262690	-0.263479
C66	C	0.676710	0.237310	0.236521
C67	C	0.242453	-0.262707	-0.263455
C68	C	0.742453	0.237293	0.236545
C69	C	0.275324	-0.303038	-0.303625
C70	C	0.775324	0.196962	0.196375
C71	C	0.909603	-0.466603	-0.303538
C72	C	1.409603	0.033397	0.196462
C73	C	0.909625	-0.536571	-0.303544
C74	C	1.409625	-0.036571	0.196456
C75	C	0.949910	-0.569412	-0.263342
C76	C	1.449910	-0.069412	0.236658
C77	C	0.949939	-0.635155	-0.263356
C78	C	1.449939	-0.135155	0.236644
C79	C	0.909673	-0.668054	-0.303566
C80	C	1.409673	-0.168054	0.196434
C81	C	0.869386	-0.635205	-0.343776
C82	C	1.369386	-0.135205	0.156224
C83	C	0.869362	-0.569464	-0.343765
C84	C	1.369362	-0.069464	0.156235
N85	N	0.854606	-0.771336	-0.308340
N86	N	1.354606	-0.271336	0.191660
N87	N	0.854630	-0.833787	-0.308347
N88	N	1.354630	-0.333787	0.191653
C89	C	0.909743	-0.866129	-0.303602
C90	C	1.409743	-0.366129	0.196398
N91	N	0.964832	-0.833659	-0.298838
N92	N	1.464832	-0.333659	0.201162
N93	N	0.964807	-0.771202	-0.298828
N94	N	1.464807	-0.271202	0.201172
C95	C	0.909695	-0.739339	-0.303582
C96	C	1.409695	-0.239339	0.196418
C97	C	0.950063	-0.970255	-0.263413
C98	C	1.450063	-0.470255	0.236587
C99	C	0.950094	-1.035999	-0.263431
C100	C	1.450094	-0.535999	0.236569
C101	C	0.869535	-1.036048	-0.343848
C102	C	1.369535	-0.536048	0.156152
C103	C	0.869510	-0.970305	-0.343833
C104	C	1.369510	-0.470305	0.156167
C105	C	0.909773	-0.937413	-0.303612
C106	C	1.409773	-0.437413	0.196388
C107	C	1.073876	-0.303019	-0.303646
C108	C	1.573876	0.196981	0.196354
C109	C	1.143844	-0.303005	-0.303677
C110	C	1.643844	0.196995	0.196323
C111	C	0.909738	-0.303038	-0.467763
C112	C	1.409738	0.196962	0.032237
C113	C	0.909760	-0.303033	-0.537731
C114	C	1.409760	0.196967	-0.037731
C115	C	0.909785	-0.138861	-0.303622
C116	C	1.409785	0.361139	0.196378
C117	C	0.909828	-0.068893	-0.303642
C118	C	1.409828	0.431107	0.196358
C119	C	0.950044	-0.262761	-0.570629
C120	C	1.450044	0.237239	-0.070629
C121	C	0.950043	-0.262734	-0.636371
C122	C	1.450043	0.237266	-0.136371
C123	C	0.909765	-0.302989	-0.669214
C124	C	1.409765	0.197011	-0.169214
C125	C	0.869473	-0.343263	-0.636308
C126	C	1.369473	0.156737	-0.136308
C127	C	0.869470	-0.343285	-0.570567
C128	C	1.369470	0.156715	-0.070567
N129	N	0.904908	-0.358058	-0.772428
N130	N	1.404908	0.141942	-0.272428
N131	N	0.904914	-0.358036	-0.834879
N132	N	1.404914	0.141964	-0.334879
C133	C	0.909769	-0.302926	-0.867289
C134	C	1.409769	0.197074	-0.367289
N135	N	0.914629	-0.247837	-0.834888
N136	N	1.414629	0.252163	-0.334888
N137	N	0.914627	-0.247860	-0.772430
N138	N	1.414627	0.252140	-0.272430
C139	C	0.909763	-0.302970	-0.740499
C140	C	1.409763	0.197030	-0.240499
C141	C	0.950054	-0.262621	-0.971472
C142	C	1.450054	0.237379	-0.471472
C143	C	0.950049	-0.262593	-1.037216
C144	C	1.450049	0.237407	-0.537216
C145	C	0.869482	-0.343128	-1.037151
C146	C	1.369482	0.156872	-0.537151
C147	C	0.869484	-0.343151	-0.971409
C148	C	1.369484	0.156849	-0.471409
C149	C	0.909773	-0.302898	-0.938573
C150	C	1.409773	0.197102	-0.438573
C151	C	0.909670	-0.303019	-0.140021
C152	C	1.409670	0.196981	0.359979
C153	C	0.909769	-0.302848	-0.070054
C154	C	1.409769	0.197152	0.429946
H155	H	0.149962	-0.376152	-0.376580
H156	H	0.649962	0.123848	0.123420
O157	O	0.830442	-1.068095	-0.382852
O158	O	1.330442	-0.568095	0.117148
C159	C	0.839115	-1.133163	-0.374256
C160	C	1.339115	-0.633163	0.125744
H161	H	0.859756	-1.142146	-0.325703
H162	H	1.359756	-0.642146	0.174297
H163	H	0.872629	-1.151756	-0.411639
H164	H	1.372629	-0.651756	0.088361
C165	C	0.750082	-1.155956	-0.439590
C166	C	1.250082	-0.655956	0.060410
C167	C	0.775429	-1.166990	-0.379954
C168	C	1.275429	-0.666990	0.120046
H169	H	0.710799	-1.176823	-0.443107
H170	H	1.210799	-0.676823	0.056893
H171	H	0.744240	-1.112119	-0.445383
H172	H	1.244240	-0.612119	0.054617
H173	H	0.778016	-1.171451	-0.470736
H174	H	1.278016	-0.671451	0.029264
H175	H	0.747499	-1.151489	-0.348810
H176	H	1.247499	-0.651489	0.151190
H177	H	0.781265	-1.210826	-0.374155
H178	H	1.281265	-0.710826	0.125845
O179	O	0.675289	-0.223713	-0.224239
O180	O	1.175289	0.276287	0.275761
C181	C	0.713220	-0.259503	-0.183490
C182	C	1.213220	0.240497	0.316510
H183	H	0.723042	-0.307243	-0.205600
H184	H	1.223042	0.192757	0.294400
H185	H	0.687823	-0.266344	-0.136837
H186	H	1.187823	0.233656	0.363163
C187	C	0.763627	-0.166232	-0.144978
C188	C	1.263627	0.333768	0.355022
C189	C	0.775696	-0.224866	-0.172136
C190	C	1.275696	0.275134	0.327864
H191	H	0.802164	-0.144866	-0.137971
H192	H	1.302164	0.355134	0.362029
H193	H	0.738070	-0.142119	-0.172428
H194	H	1.238070	0.357881	0.327572
H195	H	0.742462	-0.171942	-0.106103
H196	H	1.242462	0.328058	0.393897
H197	H	0.796853	-0.219155	-0.211013
H198	H	1.296853	0.280845	0.288987
H199	H	0.801257	-0.248977	-0.144691
H200	H	1.301257	0.251023	0.355309
O201	O	0.830401	-0.938470	-0.382967
O202	O	1.330401	-0.438470	0.117033
C203	C	0.844141	-0.954471	-0.445728
C204	C	1.344141	-0.454471	0.054272
H205	H	0.868358	-1.002173	-0.447073
H206	H	1.368358	-0.502173	0.052927
H207	H	0.876479	-0.917420	-0.466966
H208	H	1.376479	-0.417420	0.033034
C209	C	0.753010	-0.898972	-0.482128
C210	C	1.253010	-0.398972	0.017872
C211	C	0.782749	-0.957564	-0.483780
C212	C	1.282749	-0.457564	0.016220
H213	H	0.715142	-0.900877	-0.505601
H214	H	1.215142	-0.400877	-0.005601
H215	H	0.743754	-0.888189	-0.439845
H216	H	1.243754	-0.388189	0.060155
H217	H	0.779965	-0.868102	-0.499825
H218	H	1.279965	-0.368102	0.000175
H219	H	0.755798	-0.988430	-0.466076
H220	H	1.255798	-0.488430	0.033924
H221	H	0.791999	-0.968351	-0.526061
H222	H	1.291999	-0.468351	-0.026061
O223	O	0.989227	-0.223738	-0.538697
O224	O	1.489227	0.276262	-0.038697
C225	C	1.029851	-0.259565	-0.500671
C226	C	1.529851	0.240435	-0.000671
H227	H	1.033735	-0.309135	-0.520480
H228	H	1.533735	0.190865	-0.020480
H229	H	1.010369	-0.261759	-0.450839
H230	H	1.510369	0.238241	0.049161
C231	C	1.090528	-0.167891	-0.475359
C232	C	1.590528	0.332109	0.024641
C233	C	1.095302	-0.228773	-0.499693
C234	C	1.595302	0.271227	0.000307
H235	H	1.130901	-0.148896	-0.474753
H236	H	1.630901	0.351104	0.025247
H237	H	1.063157	-0.143753	-0.500976
H238	H	1.563157	0.356247	-0.000976
H239	H	1.074291	-0.169727	-0.433835
H240	H	1.574291	0.330273	0.066165
H241	H	1.111532	-0.226934	-0.541219
H242	H	1.611532	0.273066	-0.041219
H243	H	1.122678	-0.252910	-0.474083
H244	H	1.622678	0.247090	0.025917
H245	H	0.269226	-0.376183	-0.376531
H246	H	0.769226	0.123817	0.123469
O247	O	0.830427	-0.382441	-0.538537
O248	O	1.330427	0.117559	-0.038537
C249	C	0.866245	-0.423114	-0.500550
C250	C	1.366245	0.076886	-0.000550
H251	H	0.913964	-0.400906	-0.490741
H252	H	1.413964	0.099094	0.009259
H253	H	0.873132	-0.469754	-0.525890
H254	H	1.373132	0.030246	-0.025890
C255	C	0.772997	-0.461817	-0.450121
C256	C	1.272997	0.038183	0.049879
C257	C	0.831604	-0.434538	-0.438069
C258	C	1.331604	0.065462	0.061931
H259	H	0.751629	-0.468867	-0.411581
H260	H	1.251629	0.031133	0.088419
H261	H	0.748866	-0.434416	-0.475715
H262	H	1.248866	0.065584	0.024285
H263	H	0.778744	-0.500680	-0.471239
H264	H	1.278744	-0.000680	0.028761
H265	H	0.825856	-0.395672	-0.416958
H266	H	1.325856	0.104328	0.083042
H267	H	0.855734	-0.461933	-0.412469
H268	H	1.355734	0.038067	0.087531
O269	O	0.989239	-0.223595	-0.668240
O270	O	1.489239	0.276405	-0.168240
C271	C	1.024785	-0.188060	-0.625161
C272	C	1.524785	0.311940	-0.125161
H273	H	1.026945	-0.213855	-0.578296
H274	H	1.526945	0.286145	-0.078296
H275	H	1.001768	-0.140254	-0.618158
H276	H	1.501768	0.359746	-0.118158
C277	C	1.089136	-0.147292	-0.708429
C278	C	1.589136	0.352708	-0.208429
C279	C	1.091793	-0.178977	-0.650871
C280	C	1.591793	0.321023	-0.150871
H281	H	1.130469	-0.141687	-0.724289
H282	H	1.630469	0.358313	-0.224289
H283	H	1.065186	-0.171231	-0.737453
H284	H	1.565186	0.328769	-0.237453
H285	H	1.069952	-0.107458	-0.702585
H286	H	1.569952	0.392542	-0.202585
H287	H	1.110969	-0.218814	-0.656717
H288	H	1.610969	0.281186	-0.156717
H289	H	1.115748	-0.155045	-0.621848
H290	H	1.615748	0.344955	-0.121848
H291	H	0.836602	-0.661996	-0.376516
H292	H	1.336602	-0.161996	0.123484
H293	H	0.836557	-0.542724	-0.376503
H294	H	1.336557	-0.042724	0.123497
H295	H	0.269209	-0.229884	-0.230726
H296	H	0.769209	0.270116	0.269274
O297	O	0.989262	-1.068000	-0.224489
O298	O	1.489262	-0.568000	0.275511
C299	C	0.980671	-1.133079	-0.233142
C300	C	1.480671	-0.633079	0.266858
H301	H	0.959967	-1.142036	-0.281673
H302	H	1.459967	-0.642036	0.218327
H303	H	0.947243	-1.151843	-0.195727
H304	H	1.447243	-0.651843	0.304273
C305	C	1.069839	-1.155717	-0.167973
C306	C	1.569839	-0.655717	0.332027
C307	C	1.044415	-1.166719	-0.227581
C308	C	1.544415	-0.666719	0.272419
H309	H	1.109159	-1.176469	-0.164540
H310	H	1.609159	-0.676469	0.335460
H311	H	1.075626	-1.111873	-0.162141
H312	H	1.575626	-0.611873	0.337859
H313	H	1.041977	-1.171355	-0.136801
H314	H	1.541977	-0.671355	0.363199
H315	H	1.072273	-1.151075	-0.258752
H316	H	1.572273	-0.651075	0.241248
H317	H	1.038634	-1.210562	-0.233418
H318	H	1.538634	-0.710562	0.266582
H319	H	0.836676	-0.376038	-0.663053
H320	H	1.336676	0.123962	-0.163053
O321	O	0.989235	-0.938396	-0.224327
O322	O	1.489235	-0.438396	0.275673
C323	C	1.024791	-0.981484	-0.188837
C324	C	1.524791	-0.481484	0.311163
H325	H	1.026979	-1.028328	-0.214635
H326	H	1.526979	-0.528328	0.285365
H327	H	1.001763	-0.988534	-0.141002
H328	H	1.501763	-0.488534	0.358998
C329	C	1.089092	-0.898214	-0.148155
C330	C	1.589092	-0.398214	0.351845
C331	C	1.091785	-0.955747	-0.179842
C332	C	1.591785	-0.455747	0.320158
H333	H	1.130417	-0.882337	-0.142603
H334	H	1.630417	-0.382337	0.357397
H335	H	1.065136	-0.869184	-0.172063
H336	H	1.565136	-0.369184	0.327937
H337	H	1.069900	-0.904096	-0.108295
H338	H	1.569900	-0.404096	0.391705
H339	H	1.110969	-0.949862	-0.219703
H340	H	1.610969	-0.449862	0.280297
H341	H	1.115746	-0.984775	-0.155940
H342	H	1.615746	-0.484775	0.344060
O343	O	0.989204	-0.223458	-0.939668
O344	O	1.489204	0.276542	-0.439668
C345	C	1.024768	-0.187912	-0.982806
C346	C	1.524768	0.312088	-0.482806
H347	H	0.998985	-0.185721	-1.029649
H348	H	1.498985	0.314279	-0.529649
H349	H	1.072563	-0.210950	-0.989834
H350	H	1.572563	0.289050	-0.489834
C351	C	1.065545	-0.123613	-0.899622
C352	C	1.565545	0.376387	-0.399622
C353	C	1.033876	-0.120918	-0.957154
C354	C	1.533876	0.379082	-0.457154
H355	H	1.071167	-0.082289	-0.883799
H356	H	1.571167	0.417711	-0.383799
H357	H	1.041587	-0.147562	-0.870559
H358	H	1.541587	0.352438	-0.370559
H359	H	1.105371	-0.142814	-0.905487
H360	H	1.605371	0.357186	-0.405487
H361	H	0.994048	-0.101725	-0.951288
H362	H	1.494048	0.398275	-0.451288
H363	H	1.057827	-0.096964	-0.986216
H364	H	1.557827	0.403036	-0.486216
H365	H	0.982746	-0.661899	-0.230619
H366	H	1.482746	-0.161899	0.269381
H367	H	0.982852	-0.229795	-1.064000
H368	H	1.482852	0.270205	-0.564000
H369	H	0.670063	-0.376266	-0.376384
H370	H	1.170063	0.123734	0.123616
O371	O	0.830419	-0.382217	-1.069144
O372	O	1.330419	0.117783	-0.569144
C373	C	0.839048	-0.373553	-1.134224
C374	C	1.339048	0.126447	-0.634224
H375	H	0.887638	-0.352917	-1.143239
H376	H	1.387638	0.147083	-0.643239
H377	H	0.801726	-0.340039	-1.152857
H378	H	1.301726	0.159961	-0.652857
C379	C	0.773573	-0.462584	-1.156895
C380	C	1.273573	0.037416	-0.656895
C381	C	0.833255	-0.437243	-1.167967
C382	C	1.333255	0.062757	-0.667967
H383	H	0.769997	-0.501869	-1.177710
H384	H	1.269997	-0.001869	-0.677710
H385	H	0.767758	-0.468420	-1.113049
H386	H	1.267758	0.031580	-0.613049
H387	H	0.742478	-0.434649	-1.172423
H388	H	1.242478	0.065351	-0.672423
H389	H	0.864348	-0.465173	-1.152432
H390	H	1.364348	0.034827	-0.652432
H391	H	0.839076	-0.431413	-1.211811
H392	H	1.339076	0.068587	-0.711811
H393	H	0.982696	-0.542633	-0.230593
H394	H	1.482696	-0.042633	0.269407
O395	O	0.830422	-0.382365	-0.939478
O396	O	1.330422	0.117635	-0.439478
C397	C	0.844129	-0.445096	-0.955562
C398	C	1.344129	0.054904	-0.455562
H399	H	0.894417	-0.448260	-0.973669
H400	H	1.394417	0.051740	-0.473669
H401	H	0.810372	-0.461543	-0.993697
H402	H	1.310372	0.038457	-0.493697
C403	C	0.775008	-0.483243	-0.874915
C404	C	1.275008	0.016757	-0.374915
C405	C	0.836775	-0.487130	-0.897150
C406	C	1.336775	0.012870	-0.397150
H407	H	0.770469	-0.509173	-0.838886
H408	H	1.270469	-0.009173	-0.338886
H409	H	0.765771	-0.440980	-0.864081
H410	H	1.265771	0.059020	-0.364081
H411	H	0.746884	-0.496948	-0.906701
H412	H	1.246884	0.003052	-0.406701
H413	H	0.864897	-0.473418	-0.865368
H414	H	1.364897	0.026582	-0.365368
H415	H	0.846017	-0.529392	-0.907978
H416	H	1.346017	-0.029392	-0.407978
O417	O	0.545696	-0.382537	-0.382831
O418	O	1.045696	0.117463	0.117169
C419	C	0.561828	-0.368868	-0.445593
C420	C	1.061828	0.131132	0.054407
H421	H	0.609589	-0.344686	-0.446931
H422	H	1.109589	0.155314	0.053069
H423	H	0.524885	-0.336525	-0.466865
H424	H	1.024885	0.163475	0.033135
C425	C	0.506174	-0.459994	-0.481964
C426	C	1.006174	0.040006	0.018036
C427	C	0.564837	-0.430299	-0.483608
C428	C	1.064837	0.069701	0.016392
H429	H	0.508028	-0.497887	-0.505416
H430	H	1.008028	0.002113	-0.005416
H431	H	0.495304	-0.469203	-0.439681
H432	H	0.995304	0.030797	0.060319
H433	H	0.475395	-0.433035	-0.499690
H434	H	0.975395	0.066965	0.000310
H435	H	0.595614	-0.457255	-0.465876
H436	H	1.095614	0.042745	0.034124
H437	H	0.575713	-0.421096	-0.525890
H438	H	1.075713	0.078904	-0.025890
O439	O	0.545689	-0.223635	-0.224224
O440	O	1.045689	0.276365	0.275776
C441	C	0.561662	-0.237313	-0.161454
C442	C	1.061662	0.262687	0.338546
H443	H	0.609370	-0.261519	-0.160091
H444	H	1.109370	0.238481	0.339909
H445	H	0.524608	-0.269639	-0.140202
H446	H	1.024608	0.230361	0.359798
C447	C	0.506126	-0.146161	-0.125110
C448	C	1.006126	0.353839	0.374890
C449	C	0.564723	-0.175885	-0.123435
C450	C	1.064723	0.324115	0.376565
H451	H	0.508012	-0.108270	-0.101657
H452	H	1.008012	0.391730	0.398343
H453	H	0.495362	-0.136946	-0.167399
H454	H	0.995362	0.363054	0.332601
H455	H	0.475254	-0.173106	-0.107401
H456	H	0.975254	0.326894	0.392599
H457	H	0.595593	-0.148944	-0.141151
H458	H	1.095593	0.351056	0.358849
H459	H	0.575493	-0.185094	-0.081148
H460	H	1.075493	0.314906	0.418852
H461	H	0.149942	-0.229857	-0.230773
H462	H	0.649942	0.270143	0.269227
