data_functionalizedCrystal
_audit_creation_method	'MofGen! by Chris Wilmer'
_symmetry_space_group_name_H-M	'P1'
_symmetry_Int_Tables_number	1
_symmetry_cell_setting	triclinic
loop_
_symmetry_equiv_pos_as_xyz
  x,y,z
_cell_length_a	14.971506
_cell_length_b	11.026607
_cell_length_c	13.448316
_cell_angle_alpha	89.996104
_cell_angle_beta	89.992937
_cell_angle_gamma	96.104202
loop_
_atom_site_label
_atom_site_type_symbol
_atom_site_fract_x
_atom_site_fract_y
_atom_site_fract_z
O1	O	1.212300	0.158300	-0.082696
O2	O	0.954933	0.177217	-0.082696
O3	O	1.062286	-0.008928	-0.082693
O4	O	1.104947	0.344445	-0.082700
O5	O	1.062267	-0.008939	0.082691
O6	O	0.954914	0.177206	0.082687
O7	O	1.212281	0.158289	0.082688
Cu8	Cu	1.083596	0.167746	0.097788
Cu9	Cu	1.083618	0.167760	-0.097797
O10	O	1.104928	0.344433	0.082684
C11	C	0.921463	0.176361	-0.000004
C12	C	0.821759	0.173812	-0.000005
C13	C	1.054407	-0.054156	-0.000002
C14	C	1.030945	-0.188907	-0.000006
C15	C	0.399440	0.273444	-0.000017
C16	C	0.493122	0.275829	-0.000021
C17	C	0.532818	0.166462	-0.000014
C18	C	0.478827	0.054702	-0.000014
C19	C	0.385147	0.052319	-0.000016
C20	C	0.674087	0.059678	-0.000005
C21	C	0.767774	0.062062	-0.000001
C22	C	0.782063	0.283189	-0.000010
C23	C	0.688382	0.280805	-0.000013
C24	C	0.634397	0.169045	-0.000010
C25	C	1.095726	-0.262612	-0.000007
C26	C	1.071479	-0.401884	-0.000011
C27	C	1.245751	0.159145	-0.000006
C28	C	1.345455	0.161693	-0.000013
C29	C	1.112807	0.389662	-0.000009
C30	C	1.136269	0.524412	-0.000012
N31	N	1.083586	0.167736	0.235353
N32	N	1.083633	0.167760	-0.235361
C33	C	1.131146	0.085345	0.287395
C34	C	1.131152	0.085344	0.391498
C35	C	1.083602	0.167740	0.443557
C36	C	1.036036	0.250135	0.391508
C37	C	1.036026	0.250130	0.287407
C38	C	1.036062	0.250143	0.608488
C39	C	1.036073	0.250151	0.712597
C40	C	1.131188	0.085358	0.712579
C41	C	1.131178	0.085352	0.608478
C42	C	1.083613	0.167749	0.556436
H43	H	0.367126	0.362504	-0.000015
H44	H	0.998063	-0.441883	-0.000017
Cl45	Cl	1.190942	-0.018236	0.456924
H46	H	0.630135	-0.031328	-0.000008
H47	H	0.957534	-0.228912	-0.000012
H48	H	1.169872	0.018253	0.245015
Cl49	Cl	0.560984	0.416322	-0.000031
Cl50	Cl	1.190962	-0.018225	0.543030
H51	H	0.997296	0.317219	0.245035
Cl52	Cl	1.190984	-0.018223	0.778007
Cl53	Cl	0.817678	-0.075430	-0.000001
H54	H	0.656064	0.369861	-0.000012
Cl55	Cl	1.209070	-0.200858	-0.000013
H56	H	0.997352	0.317246	0.754978
H57	H	0.826022	0.374187	-0.000012
Cl58	Cl	0.528731	-0.082789	-0.000007
H59	H	0.997326	0.317236	0.566119
H60	H	0.341193	-0.038680	-0.000015
Cl61	Cl	1.249619	-0.413843	-0.000016
Cl62	Cl	0.976252	0.353716	0.456952
