data_functionalizedCrystal
_audit_creation_method	'MofGen! by Chris Wilmer'
_symmetry_space_group_name_H-M	'P1'
_symmetry_Int_Tables_number	1
_symmetry_cell_setting	triclinic
loop_
_symmetry_equiv_pos_as_xyz
  x,y,z
_cell_length_a	16.992694
_cell_length_b	8.597275
_cell_length_c	15.455313
_cell_angle_alpha	100.403906
_cell_angle_beta	87.142206
_cell_angle_gamma	87.972717
loop_
_atom_site_label
_atom_site_type_symbol
_atom_site_fract_x
_atom_site_fract_y
_atom_site_fract_z
O1	O	1.045170	0.328869	-0.047439
O2	O	0.816871	0.325188	-0.047739
O3	O	0.936321	0.097596	-0.064733
O4	O	0.925721	0.556461	-0.030445
O5	O	0.929490	0.110554	0.080497
O6	O	0.810040	0.338146	0.097490
O7	O	1.038340	0.341827	0.097791
Cu8	Cu	0.923566	0.341169	0.110901
Cu9	Cu	0.931645	0.325846	-0.060849
O10	O	0.918890	0.569419	0.114785
C11	C	0.784224	0.326934	0.024519
C12	C	0.697122	0.312812	0.023453
C13	C	0.932148	0.045089	0.003472
C14	C	0.929881	-0.130671	-0.009668
C15	C	0.647440	0.449061	0.033635
C16	C	0.565599	0.435784	0.032655
C17	C	0.533441	0.286257	0.021487
C18	C	0.583129	0.149998	0.011307
C19	C	0.664969	0.163276	0.012293
C20	C	0.289617	0.231222	0.017398
C21	C	0.207771	0.217954	0.016409
C22	C	0.190246	0.503742	0.037759
C23	C	0.272088	0.517007	0.038739
C24	C	0.321769	0.380748	0.028564
N25	N	0.449786	0.272682	0.020482
N26	N	0.405422	0.394325	0.029575
C27	C	1.070987	0.340081	0.025531
C28	C	1.158089	0.354203	0.026591
C29	C	0.923063	0.621926	0.046578
C30	C	0.925330	0.797686	0.059712
N31	N	0.917890	0.351947	0.231702
N32	N	0.937327	0.315056	-0.181651
C33	C	0.968654	0.255298	0.269879
C34	C	0.964369	0.263465	0.361297
C35	C	0.909323	0.368289	0.414536
C36	C	0.858553	0.464941	0.376352
C37	C	0.862835	0.456766	0.284936
C38	C	0.890839	0.403534	0.688749
C39	C	0.886563	0.411705	0.780172
C40	C	0.992378	0.210225	0.765110
C41	C	0.996659	0.202066	0.673693
C42	C	0.945886	0.298713	0.635516
N43	N	0.904943	0.376642	0.507980
N44	N	0.950263	0.290350	0.542074
H45	H	0.673616	0.570822	0.042729
C46	C	0.798000	0.580252	0.434911
C47	C	0.793323	0.589337	0.535472
C48	C	0.732770	0.704655	0.594028
C49	C	0.676895	0.810888	0.552023
C50	C	0.681569	0.801806	0.451456
C51	C	0.742122	0.686488	0.392900
H52	H	0.834687	0.510694	0.566572
H53	H	0.729310	0.711378	0.668475
H54	H	0.632070	0.896253	0.595369
H55	H	0.640205	0.880449	0.420356
H56	H	0.745583	0.679766	0.318453
C57	C	0.344256	0.081335	0.006198
C58	C	0.399387	0.057875	0.079356
C59	C	0.454029	-0.092023	0.068155
C60	C	0.453539	-0.218459	-0.016204
C61	C	0.398405	-0.195003	-0.089368
C62	C	0.343764	-0.045105	-0.078167
H63	H	0.399751	0.151474	0.141808
H64	H	0.494842	-0.109386	0.122316
H65	H	0.493988	-0.329422	-0.024496
H66	H	0.398041	-0.288602	-0.151821
H67	H	0.302950	-0.027742	-0.132328
C68	C	0.135595	0.653619	0.048961
C69	C	0.080455	0.677067	-0.024191
C70	C	0.025804	0.826951	-0.012985
C71	C	0.026293	0.953388	0.071374
C72	C	0.081435	0.929944	0.144532
C73	C	0.136086	0.780059	0.133326
H74	H	0.080091	0.583467	-0.086644
H75	H	-0.015016	0.844305	-0.067142
H76	H	-0.014163	1.064341	0.079670
H77	H	0.081798	1.023543	0.206985
H78	H	0.176906	0.762705	0.187483
C79	C	1.057206	0.086754	0.615126
C80	C	1.061912	0.077774	0.514572
C81	C	1.122461	-0.037533	0.456003
C82	C	1.178304	-0.143858	0.497988
C83	C	1.173601	-0.134881	0.598547
C84	C	1.113051	-0.019575	0.657116
H85	H	1.020571	0.156486	0.483488
H86	H	1.125942	-0.044177	0.381563
H87	H	1.223126	-0.229215	0.454632
H88	H	1.214941	-0.213593	0.629632
H89	H	1.109570	-0.012930	0.731557
H90	H	0.849500	0.482230	0.657674
C91	C	0.719624	0.013401	0.001091
C92	C	0.712064	-0.099576	0.067563
C93	C	0.766718	-0.249455	0.056365
C94	C	0.828931	-0.286358	-0.021303
C95	C	0.836493	-0.173378	-0.087780
C96	C	0.781840	-0.023498	-0.076583
H97	H	0.666008	-0.072261	0.125062
H98	H	0.761120	-0.333090	0.105576
H99	H	0.869389	-0.397307	-0.029592
H100	H	0.882550	-0.200692	-0.145280
H101	H	0.787438	0.060136	-0.125793
H102	H	0.932044	-0.203797	-0.079115
H103	H	0.181592	0.096184	0.007313
C104	C	0.922412	-0.103531	0.153540
C105	C	0.854853	0.021344	0.184417
C106	C	0.851935	0.120126	0.278243
C107	C	0.916577	0.094033	0.341193
C108	C	0.984141	-0.030848	0.310318
C109	C	0.987059	-0.129630	0.216492
H110	H	0.806997	0.040665	0.137816
H111	H	0.801919	0.212572	0.301099
H112	H	0.914417	0.167157	0.410649
H113	H	1.031997	-0.050169	0.356919
H114	H	1.037074	-0.222076	0.193636
H115	H	0.556940	0.028250	0.002226
H116	H	1.013482	0.169947	0.226538
H117	H	0.525150	0.546733	0.040945
H118	H	0.298265	0.638767	0.047823
H119	H	1.005705	0.184765	0.392380
H120	H	0.821496	0.535466	0.253853
H121	H	1.033714	0.131538	0.796201
H122	H	0.841735	0.497072	0.823516
