data_functionalizedCrystal
_audit_creation_method	'MofGen! by Chris Wilmer'
_symmetry_space_group_name_H-M	'P1'
_symmetry_Int_Tables_number	1
_symmetry_cell_setting	triclinic
loop_
_symmetry_equiv_pos_as_xyz
  x,y,z
_cell_length_a	16.959455
_cell_length_b	16.959454
_cell_length_c	18.215399
_cell_angle_alpha	90.022741
_cell_angle_beta	89.981437
_cell_angle_gamma	89.980118
loop_
_atom_site_label
_atom_site_type_symbol
_atom_site_fract_x
_atom_site_fract_y
_atom_site_fract_z
Zn1	Zn	1.208401	0.314754	-0.416118
Zn2	Zn	1.708401	0.814754	0.083882
Zn3	Zn	1.208307	0.446939	-0.293062
Zn4	Zn	1.708307	0.946939	0.206938
Zn5	Zn	1.076220	0.314772	-0.293068
Zn6	Zn	1.576220	0.814772	0.206932
Zn7	Zn	1.076188	0.446887	-0.416090
Zn8	Zn	1.576188	0.946887	0.083910
O9	O	1.142279	0.380838	-0.354584
O10	O	1.642279	0.880838	0.145416
O11	O	1.319000	0.332303	-0.399803
O12	O	1.819000	0.832303	0.100197
O13	O	1.190760	0.429436	-0.190079
O14	O	1.690760	0.929436	0.309921
O15	O	1.093807	0.204159	-0.309404
O16	O	1.593807	0.704159	0.190596
O17	O	1.318931	0.429419	-0.309395
O18	O	1.818931	0.929419	0.190605
O19	O	1.190920	0.204146	-0.399808
O20	O	1.690920	0.704146	0.100192
O21	O	1.093716	0.332333	-0.190083
O22	O	1.593716	0.832333	0.309917
O23	O	0.965605	0.332283	-0.309378
O24	O	1.465605	0.832283	0.190622
O25	O	1.093752	0.429330	-0.519078
O26	O	1.593752	0.929330	-0.019078
O27	O	0.965581	0.429348	-0.399762
O28	O	1.465581	0.929348	0.100238
O29	O	1.190889	0.332253	-0.519098
O30	O	1.690889	0.832253	-0.019098
O31	O	1.190729	0.557543	-0.309369
O32	O	1.690729	1.057543	0.190631
O33	O	1.093661	0.557505	-0.399757
O34	O	1.593661	1.057505	0.100243
C35	C	0.936913	0.380812	-0.354568
C36	C	1.436913	0.880812	0.145432
C37	C	0.849056	0.380820	-0.354578
C38	C	1.349056	0.880820	0.145422
C39	C	0.477568	0.330255	-0.307620
C40	C	0.977568	0.830255	0.192380
C41	C	0.477593	0.431486	-0.401591
C42	C	0.977593	0.931486	0.098409
C43	C	0.560138	0.431475	-0.401587
C44	C	1.060138	0.931475	0.098413
C45	C	0.601403	0.380854	-0.354597
C46	C	1.101403	0.880854	0.145403
C47	C	0.560122	0.330244	-0.307612
C48	C	1.060122	0.830244	0.192388
C49	C	0.601426	0.482089	-0.448566
C50	C	1.101426	0.982089	0.051434
C51	C	0.683977	0.482081	-0.448562
C52	C	1.183977	0.982081	0.051438
C53	C	0.725243	0.431455	-0.401576
C54	C	1.225243	0.931455	0.098424
C55	C	0.683957	0.380843	-0.354590
C56	C	1.183957	0.880843	0.145410
C57	C	0.725221	0.330221	-0.307600
C58	C	1.225221	0.830221	0.192400
C59	C	0.683937	0.279604	-0.260617
C60	C	1.183937	0.779604	0.239383
C61	C	0.601388	0.279618	-0.260626
C62	C	1.101388	0.779618	0.239374
C63	C	0.807791	0.431441	-0.401567
C64	C	1.307791	0.931441	0.098433
C65	C	0.807775	0.330210	-0.307593
C66	C	1.307775	0.830210	0.192407
C67	C	1.142202	0.586204	-0.354575
C68	C	1.642202	1.086204	0.145425
C69	C	1.142242	0.674061	-0.354596
C70	C	1.642242	1.174061	0.145404
C71	C	1.091776	1.045547	-0.401655
C72	C	1.591776	1.545547	0.098345
C73	C	1.192936	1.045527	-0.307610
C74	C	1.692936	1.545527	0.192390
C75	C	1.192912	0.962981	-0.307602
C76	C	1.692912	1.462981	0.192398
C77	C	1.142319	0.921714	-0.354620
C78	C	1.642319	1.421714	0.145380
C79	C	1.091749	0.962993	-0.401646
C80	C	1.591749	1.462993	0.098354
C81	C	1.243475	0.921695	-0.260571
C82	C	1.743475	1.421695	0.239429
C83	C	1.243453	0.839144	-0.260560
C84	C	1.743453	1.339144	0.239440
C85	C	1.192863	0.797876	-0.307583
C86	C	1.692863	1.297876	0.192417
C87	C	1.142292	0.839160	-0.354612
C88	C	1.642292	1.339160	0.145388
C89	C	1.091699	0.797894	-0.401630
C90	C	1.591699	1.297894	0.098370
C91	C	1.041131	0.839176	-0.448663
C92	C	1.541131	1.339176	0.051337
C93	C	1.041159	0.921725	-0.448669
C94	C	1.541159	1.421725	0.051331
C95	C	1.192835	0.715328	-0.307577
C96	C	1.692835	1.215328	0.192423
C97	C	1.091672	0.715340	-0.401622
C98	C	1.591672	1.215340	0.098378
C99	C	1.348447	0.380865	-0.354602
C100	C	1.848447	0.880865	0.145398
C101	C	1.436304	0.380876	-0.354609
C102	C	1.936304	0.880876	0.145391
C103	C	1.142327	0.380784	-0.546537
C104	C	1.642327	0.880784	-0.046537
C105	C	1.142348	0.380760	-0.628336
C106	C	1.642348	0.880760	-0.128336
C107	C	1.142365	1.174670	-0.354614
C108	C	1.642365	1.674670	0.145386
C109	C	1.142369	1.086813	-0.354636
C110	C	1.642369	1.586813	0.145364
C111	C	1.192945	0.330165	-0.816542
C112	C	1.692945	0.830165	-0.316542
C113	C	1.192954	0.330142	-0.893401
C114	C	1.692954	0.830142	-0.393401
C115	C	1.091806	0.431234	-0.893369
C116	C	1.591806	0.931234	-0.393369
C117	C	1.091793	0.431252	-0.816511
C118	C	1.591793	0.931252	-0.316511
C119	C	1.142367	0.380719	-0.778100
C120	C	1.642367	0.880719	-0.278100
C121	C	1.142390	0.380677	-0.931816
C122	C	1.642390	0.880677	-0.431816
C123	C	1.142399	0.380653	-1.015150
C124	C	1.642399	0.880653	-0.515150
C125	C	1.142357	0.380742	-0.694761
C126	C	1.642357	0.880742	-0.194761
C127	C	1.142276	0.380835	-0.163378
C128	C	1.642276	0.880835	0.336622
C129	C	1.142409	0.380636	-0.081580
C130	C	1.642409	0.880636	0.418420
H131	H	0.717545	0.238392	-0.222355
H132	H	1.217545	0.738392	0.277645
Br133	Br	1.023157	1.101569	-0.465488
Br134	Br	1.523157	1.601569	0.034512
H135	H	1.050601	0.472419	-0.785211
H136	H	1.550601	0.972419	-0.285211
Br137	Br	0.421543	0.261557	-0.243866
Br138	Br	0.921543	0.761557	0.256134
Br139	Br	0.863771	0.261499	-0.243824
Br140	Br	1.363771	0.761499	0.256176
Br141	Br	0.739999	0.550773	-0.512324
Br142	Br	1.239999	1.050773	-0.012324
Br143	Br	0.972538	0.977755	-0.512494
Br144	Br	1.472538	1.477755	-0.012494
H145	H	1.234123	0.289015	-0.785270
H146	H	1.734123	0.789015	-0.285270
Br147	Br	1.261594	1.101531	-0.243801
Br148	Br	1.761594	1.601531	0.256199
Br149	Br	1.261604	0.261535	-0.945570
Br150	Br	1.761604	0.761535	-0.445570
Br151	Br	0.421591	0.500203	-0.465341
Br152	Br	0.921591	1.000203	0.034659
H153	H	0.567767	0.238409	-0.222374
H154	H	1.067767	0.738409	0.277626
H155	H	1.284660	0.955301	-0.222286
H156	H	1.784660	1.455301	0.277714
H157	H	0.567822	0.523308	-0.486817
H158	H	1.067822	1.023308	0.013183
Br159	Br	0.863818	0.500136	-0.465318
Br160	Br	1.363818	1.000136	0.034682
Br161	Br	1.023013	0.659342	-0.465443
Br162	Br	1.523013	1.159342	0.034557
Br163	Br	1.023177	0.499814	-0.945503
Br164	Br	1.523177	0.999814	-0.445503
Br165	Br	0.972466	0.783162	-0.512466
Br166	Br	1.472466	1.283162	-0.012466
H167	H	1.284629	0.805537	-0.222265
H168	H	1.784629	1.305537	0.277735
H169	H	1.234003	0.681719	-0.269280
H170	H	1.734003	1.181719	0.230720
