data_functionalizedCrystal
_audit_creation_method	'MofGen! by Chris Wilmer'
_symmetry_space_group_name_H-M	'P1'
_symmetry_Int_Tables_number	1
_symmetry_cell_setting	triclinic
loop_
_symmetry_equiv_pos_as_xyz
  x,y,z
_cell_length_a	12.827893
_cell_length_b	12.759400
_cell_length_c	12.827885
_cell_angle_alpha	89.969506
_cell_angle_beta	89.980728
_cell_angle_gamma	90.014655
loop_
_atom_site_label
_atom_site_type_symbol
_atom_site_fract_x
_atom_site_fract_y
_atom_site_fract_z
Zn1	Zn	1.597675	-0.418216	-0.590844
Zn2	Zn	1.597571	-0.593932	-0.416102
Zn3	Zn	1.422916	-0.418267	-0.416117
Zn4	Zn	1.422904	-0.593854	-0.590802
O5	O	1.510266	-0.506067	-0.503466
O6	O	1.743897	-0.441537	-0.567675
O7	O	1.574365	-0.570684	-0.269868
O8	O	1.446147	-0.271240	-0.439319
O9	O	1.743821	-0.570634	-0.439293
O10	O	1.574541	-0.271202	-0.567690
O11	O	1.446046	-0.441624	-0.269879
O12	O	1.276678	-0.441548	-0.439278
O13	O	1.446125	-0.570501	-0.737043
O14	O	1.276669	-0.570550	-0.567618
O15	O	1.574529	-0.441461	-0.737074
O16	O	1.574352	-0.740942	-0.439252
O17	O	1.446025	-0.740885	-0.567603
C18	C	1.238756	-0.506047	-0.503446
C19	C	1.122603	-0.506064	-0.503462
C20	C	1.070842	-0.569998	-0.566871
C21	C	0.950791	-0.570017	-0.566889
C22	C	1.510204	-0.779035	-0.503444
C23	C	1.510273	-0.895811	-0.503470
C24	C	1.577168	-0.950668	-0.436711
C25	C	1.577232	-1.060392	-0.436743
C26	C	1.443499	-1.060393	-0.570296
C27	C	1.443440	-0.950671	-0.570268
C28	C	1.644001	-0.895809	-0.369913
C29	C	1.710899	-0.950666	-0.303148
C30	C	1.710964	-1.060390	-0.303180
C31	C	1.644129	-1.115257	-0.369977
C32	C	1.782836	-0.506088	-0.503487
C33	C	1.898990	-0.506097	-0.503495
C34	C	1.510337	-0.505966	-0.776036
C35	C	1.510368	-0.505923	-0.892190
C36	C	1.510357	-0.232034	-0.503511
C37	C	1.510396	-0.115257	-0.503530
C38	C	1.573913	-0.442058	-0.943989
C39	C	1.573946	-0.442012	-1.064040
C40	C	1.510256	-0.506092	-0.231956
C41	C	1.510428	-0.505839	-0.115803
H42	H	0.943497	-0.451362	-0.449202
C43	C	1.063149	-0.433274	-0.430948
C44	C	1.000475	-0.492759	-0.363917
C45	C	0.945707	-0.425744	-0.297086
H46	H	1.020504	-0.387562	-0.470912
H47	H	1.111164	-0.393185	-0.391102
H48	H	0.952465	-0.532831	-0.403759
H49	H	1.043093	-0.538469	-0.323930
H50	H	0.993722	-0.385654	-0.257240
H51	H	0.903069	-0.380035	-0.337059
H52	H	0.903184	-0.466095	-0.251592
H53	H	1.388970	-0.906006	-0.624630
H54	H	1.115403	-0.624717	-0.621148
C55	C	1.644125	-0.776681	-0.369762
C56	C	1.716987	-0.740375	-0.296995
C57	C	1.717136	-0.630641	-0.296837
H58	H	1.576744	-0.751800	-0.351593
H59	H	1.662202	-0.751750	-0.437188
H60	H	1.698903	-0.765295	-0.229584
H61	H	1.784378	-0.765226	-0.315147
H62	H	1.735214	-0.605711	-0.364263
H63	H	1.649752	-0.605772	-0.278670
H64	H	1.766579	-0.605994	-0.247473
H65	H	1.765320	-0.905988	-0.248770
H66	H	1.455982	-0.560560	-0.936718
H67	H	0.906277	-0.624756	-0.621173
C68	C	1.783636	-1.119762	-0.230586
C69	C	1.842130	-1.048229	-0.172067
C70	C	1.909075	-1.102881	-0.105166
H71	H	1.829266	-1.162498	-0.270492
H72	H	1.743729	-1.162612	-0.184976
H73	H	1.882033	-1.005397	-0.217671
H74	H	1.796527	-1.005491	-0.132139
H75	H	1.869168	-1.145731	-0.059557
H76	H	1.954698	-1.145616	-0.145081
H77	H	1.948764	-1.054355	-0.065447
C78	C	1.646259	-0.369135	-0.884490
C79	C	1.587042	-0.301889	-0.821813
C80	C	1.653655	-0.234708	-0.766980
H81	H	1.686158	-0.328961	-0.932434
H82	H	1.691708	-0.409360	-0.841848
H83	H	1.541611	-0.261668	-0.864451
H84	H	1.547145	-0.342035	-0.773850
H85	H	1.699104	-0.274933	-0.724337
H86	H	1.693551	-0.194541	-0.814931
H87	H	1.613487	-0.189080	-0.724440
H88	H	1.644195	-1.204602	-0.370006
H89	H	1.628352	-0.387338	-1.108587
H90	H	1.389084	-1.105074	-0.624678
H91	H	1.456025	-0.560523	-1.071264
