data_functionalizedCrystal
_audit_creation_method	'MofGen! by Chris Wilmer'
_symmetry_space_group_name_H-M	'P1'
_symmetry_Int_Tables_number	1
_symmetry_cell_setting	triclinic
loop_
_symmetry_equiv_pos_as_xyz
  x,y,z
_cell_length_a	10.723024
_cell_length_b	10.723024
_cell_length_c	9.798715
_cell_angle_alpha	90.002215
_cell_angle_beta	90.003154
_cell_angle_gamma	84.467869
loop_
_atom_site_label
_atom_site_type_symbol
_atom_site_fract_x
_atom_site_fract_y
_atom_site_fract_z
O1	O	-1.657187	-0.175025	-0.113478
O2	O	-1.294034	-0.191778	-0.113483
O3	O	-1.483987	-0.001825	-0.113475
O4	O	-1.467234	-0.364978	-0.113486
O5	O	-1.483974	-0.001824	0.113507
O6	O	-1.294021	-0.191777	0.113499
O7	O	-1.657174	-0.175023	0.113504
Zn8	Zn	-1.475595	-0.183400	0.149540
Zn9	Zn	-1.475613	-0.183402	-0.149519
O10	O	-1.467221	-0.364976	0.113496
C11	C	-1.247528	-0.190558	0.000008
C12	C	-1.108974	-0.186911	0.000006
C13	C	-1.482762	0.044675	0.000014
C14	C	-1.479114	0.183229	0.000009
C15	C	-1.703680	-0.176243	0.000010
C16	C	-1.842234	-0.179891	0.000003
C17	C	-1.468447	-0.411477	0.000004
C18	C	-1.472094	-0.550031	-0.000000
C19	C	-1.033991	-0.293198	0.000002
C20	C	-0.890788	-0.289431	0.000001
N21	N	-1.475592	-0.183398	0.353640
C22	C	-1.585401	0.258212	0.000009
C23	C	-1.581634	0.401415	0.000004
N24	N	-1.475625	-0.183394	-0.353619
C25	C	-1.555546	-0.103469	0.578574
C26	C	-1.555529	-0.103471	0.421412
H27	H	-1.075814	-0.386984	0.000007
O28	O	-1.394103	-0.265207	0.576905
C29	C	-1.415429	-0.388946	0.611741
H30	H	-1.515314	-0.390473	0.651093
H31	H	-1.346521	-0.425057	0.694587
C32	C	-1.274201	-0.471395	0.436395
C33	C	-1.396885	-0.473272	0.484716
H34	H	-1.262757	-0.523414	0.358042
H35	H	-1.259829	-0.388030	0.412927
H36	H	-1.216791	-0.501485	0.505444
H37	H	-1.454292	-0.443169	0.415673
H38	H	-1.411267	-0.556635	0.508169
H39	H	-1.672624	0.465848	0.000009
H40	H	-1.623948	-0.035039	0.363101
H41	H	-1.067152	-0.093125	-0.000026
O42	O	-0.919212	-0.071412	-0.000176
C43	C	-0.995326	-0.066681	-0.117751
H44	H	-1.002634	-0.165810	-0.156946
H45	H	-0.952096	-0.009260	-0.200065
C46	C	-1.118022	0.116579	-0.033901
C47	C	-1.127005	-0.005174	-0.082035
H48	H	-1.199246	0.154524	-0.011873
H49	H	-1.066739	0.113396	0.045309
H50	H	-1.081991	0.164414	-0.102505
H51	H	-1.163021	-0.053011	-0.013426
H52	H	-1.178297	-0.001997	-0.161233
H53	H	-1.385328	0.225051	-0.000001
H54	H	-1.623987	-0.035045	0.636871
H55	H	-1.407161	-0.251824	0.411942
H56	H	-0.826355	-0.380421	-0.000008
O57	O	-1.697186	0.208125	0.000072
C58	C	-1.676062	0.076294	0.000039
H59	H	-1.578908	0.046691	0.043009
H60	H	-1.682377	0.039992	-0.108855
C61	C	-1.895022	0.057674	0.036280
C62	C	-1.775700	0.021314	0.089068
H63	H	-1.956486	0.023758	0.091191
H64	H	-1.909256	0.146491	0.036297
H65	H	-1.900267	0.027420	-0.054464
H66	H	-1.770452	0.051581	0.179803
H67	H	-1.761468	-0.067499	0.089068
H68	H	-1.381099	0.385544	0.000010
