data_functionalizedCrystal
_audit_creation_method	'MofGen! by Chris Wilmer'
_symmetry_space_group_name_H-M	'P1'
_symmetry_Int_Tables_number	1
_symmetry_cell_setting	triclinic
loop_
_symmetry_equiv_pos_as_xyz
  x,y,z
_cell_length_a	25.639242
_cell_length_b	25.639240
_cell_length_c	25.639233
_cell_angle_alpha	90.025929
_cell_angle_beta	90.022166
_cell_angle_gamma	90.028283
loop_
_atom_site_label
_atom_site_type_symbol
_atom_site_fract_x
_atom_site_fract_y
_atom_site_fract_z
Zn1	Zn	0.799247	-0.208277	0.295716
Zn2	Zn	1.049247	0.041723	0.545716
Zn3	Zn	1.299247	0.291723	0.795716
Zn4	Zn	1.549247	0.541723	1.045716
Zn5	Zn	0.799179	-0.295696	0.208270
Zn6	Zn	1.049179	-0.045696	0.458270
Zn7	Zn	1.299179	0.204304	0.708270
Zn8	Zn	1.549179	0.454304	0.958270
Zn9	Zn	0.711823	-0.208269	0.208280
Zn10	Zn	0.961823	0.041731	0.458280
Zn11	Zn	1.211823	0.291731	0.708280
Zn12	Zn	1.461823	0.541731	0.958280
Zn13	Zn	0.711777	-0.295676	0.295659
Zn14	Zn	0.961777	-0.045676	0.545659
Zn15	Zn	1.211777	0.204324	0.795659
Zn16	Zn	1.461777	0.454324	1.045659
O17	O	0.755506	-0.251979	0.251981
O18	O	1.005506	-0.001979	0.501981
O19	O	1.255506	0.248021	0.751981
O20	O	1.505506	0.498021	1.001981
O21	O	0.872403	-0.219884	0.284135
O22	O	1.122403	0.030116	0.534135
O23	O	1.372403	0.280116	0.784135
O24	O	1.622403	0.530116	1.034135
O25	O	0.787582	-0.284103	0.135106
O26	O	1.037582	-0.034103	0.385106
O27	O	1.287582	0.215897	0.635106
O28	O	1.537582	0.465897	0.885106
O29	O	0.723467	-0.135105	0.219907
O30	O	0.973467	0.114895	0.469907
O31	O	1.223467	0.364895	0.719907
O32	O	1.473467	0.614895	0.969907
O33	O	0.872353	-0.284111	0.219889
O34	O	1.122353	-0.034111	0.469889
O35	O	1.372353	0.215889	0.719889
O36	O	1.622353	0.465889	0.969889
O37	O	0.787697	-0.135111	0.284146
O38	O	1.037697	0.114889	0.534146
O39	O	1.287697	0.364889	0.784146
O40	O	1.537697	0.614889	1.034146
O41	O	0.723402	-0.219871	0.135114
O42	O	0.973402	0.030129	0.385114
O43	O	1.223402	0.280129	0.635114
O44	O	1.473402	0.530129	0.885114
O45	O	0.638652	-0.219853	0.219852
O46	O	0.888652	0.030147	0.469852
O47	O	1.138652	0.280147	0.719852
O48	O	1.388652	0.530147	0.969852
O49	O	0.723389	-0.284078	0.368832
O50	O	0.973389	-0.034078	0.618832
O51	O	1.223389	0.215922	0.868832
O52	O	1.473389	0.465922	1.118832
O53	O	0.638618	-0.284070	0.284049
O54	O	0.888618	-0.034070	0.534049
O55	O	1.138618	0.215930	0.784049
O56	O	1.388618	0.465930	1.034049
O57	O	0.787653	-0.219866	0.368874
O58	O	1.037653	0.030134	0.618874
O59	O	1.287653	0.280134	0.868874
O60	O	1.537653	0.530134	1.118874
O61	O	0.787538	-0.368858	0.219834
O62	O	1.037538	-0.118858	0.469834
O63	O	1.287538	0.131142	0.719834
O64	O	1.537538	0.381142	0.969834
O65	O	0.723324	-0.368844	0.284039
O66	O	0.973324	-0.118844	0.534039
O67	O	1.223324	0.131156	0.784039
O68	O	1.473324	0.381156	1.034039
C69	C	0.619664	-0.251959	0.251946
C70	C	0.869664	-0.001959	0.501946
C71	C	1.119664	0.248041	0.751946
C72	C	1.369664	0.498041	1.001946
C73	C	0.561550	-0.251963	0.251943
C74	C	0.811550	-0.001963	0.501943
C75	C	1.061550	0.248037	0.751943
C76	C	1.311550	0.498037	1.001943
C77	C	0.755433	-0.387822	0.251940
C78	C	1.005433	-0.137822	0.501940
C79	C	1.255433	0.112178	0.751940
C80	C	1.505433	0.362178	1.001940
C81	C	0.755449	-0.445936	0.251940
C82	C	1.005449	-0.195936	0.501940
C83	C	1.255449	0.054064	0.751940
C84	C	1.505449	0.304064	1.001940
C85	C	0.201178	-0.285473	0.285377
C86	C	0.451178	-0.035473	0.535377
C87	C	0.701178	0.214527	0.785377
C88	C	0.951178	0.464527	1.035377
C89	C	0.146574	-0.285477	0.285385
C90	C	0.396574	-0.035477	0.535385
C91	C	0.646574	0.214523	0.785385
C92	C	0.896574	0.464523	1.035385
O93	O	0.118330	-0.313943	0.313782
O94	O	0.368330	-0.063943	0.563782
O95	O	0.618330	0.186057	0.813782
O96	O	0.868330	0.436057	1.063782
N97	N	0.119267	-0.251994	0.252015
N98	N	0.369267	-0.001994	0.502015
N99	N	0.619267	0.248006	0.752015
N100	N	0.869267	0.498006	1.002015
C101	C	0.146568	-0.218502	0.218639
C102	C	0.396568	0.031498	0.468639
C103	C	0.646568	0.281498	0.718639
C104	C	0.896568	0.531498	0.968639
O105	O	0.118328	-0.190022	0.190256
O106	O	0.368328	0.059978	0.440256
O107	O	0.618328	0.309978	0.690256
O108	O	0.868328	0.559978	0.940256
C109	C	0.201171	-0.218496	0.218634
C110	C	0.451171	0.031504	0.468634
C111	C	0.701171	0.281504	0.718634
C112	C	0.951171	0.531504	0.968634
C113	C	0.228475	-0.251985	0.252002
C114	C	0.478475	-0.001985	0.502002
C115	C	0.728475	0.248015	0.752002
C116	C	0.978475	0.498015	1.002002
C117	C	0.228482	-0.318959	0.318743
C118	C	0.478482	-0.068959	0.568743
C119	C	0.728482	0.181041	0.818743
C120	C	0.978482	0.431041	1.068743
C121	C	0.283082	-0.318956	0.318734
C122	C	0.533082	-0.068956	0.568734
C123	C	0.783082	0.181044	0.818734
C124	C	1.033082	0.431044	1.068734
C125	C	0.310379	-0.285468	0.285359
C126	C	0.560379	-0.035468	0.535359
C127	C	0.810379	0.214532	0.785359
C128	C	1.060379	0.464532	1.035359
C129	C	0.283076	-0.251983	0.251993
C130	C	0.533076	-0.001983	0.501993
C131	C	0.783076	0.248017	0.751993
C132	C	1.033076	0.498017	1.001993
C133	C	0.228471	-0.185002	0.185260
C134	C	0.478471	0.064998	0.435260
C135	C	0.728471	0.314998	0.685260
C136	C	0.978471	0.564998	0.935260
C137	C	0.283078	-0.184999	0.185258
C138	C	0.533078	0.065001	0.435258
C139	C	0.783078	0.315001	0.685258
C140	C	1.033078	0.565001	0.935258
C141	C	0.310382	-0.218488	0.218626
C142	C	0.560382	0.031512	0.468626
C143	C	0.810382	0.281512	0.718626
C144	C	1.060382	0.531512	0.968626
C145	C	0.364973	-0.218492	0.218609
C146	C	0.614973	0.031508	0.468609
C147	C	0.864973	0.281508	0.718609
C148	C	1.114973	0.531508	0.968609
N149	N	0.392279	-0.251974	0.251979
N150	N	0.642279	-0.001974	0.501979
N151	N	0.892279	0.248026	0.751979
N152	N	1.142279	0.498026	1.001979
C153	C	0.364983	-0.285463	0.285354
C154	C	0.614983	-0.035463	0.535354
C155	C	0.864983	0.214537	0.785354
C156	C	1.114983	0.464537	1.035354
C157	C	0.031897	-0.218515	0.218653
C158	C	0.281897	0.031485	0.468653
C159	C	0.531897	0.281485	0.718653
C160	C	0.781897	0.531485	0.968653
C161	C	-0.022705	-0.218523	0.218655
C162	C	0.227295	0.031477	0.468655
C163	C	0.477295	0.281477	0.718655
C164	C	0.727295	0.531477	0.968655
C165	C	-0.022695	-0.285497	0.285402
C166	C	0.227305	-0.035497	0.535402
C167	C	0.477305	0.214503	0.785402
C168	C	0.727305	0.464503	1.035402
C169	C	0.031908	-0.285492	0.285397
C170	C	0.281908	-0.035492	0.535397
C171	C	0.531908	0.214508	0.785397
C172	C	0.781908	0.464508	1.035397
C173	C	0.059204	-0.251998	0.252023
C174	C	0.309204	-0.001998	0.502023
C175	C	0.559204	0.248002	0.752023
C176	C	0.809204	0.498002	1.002023
C177	C	0.479648	-0.285455	0.285332
C178	C	0.729648	-0.035455	0.535332
C179	C	0.979648	0.214545	0.785332
C180	C	1.229648	0.464545	1.035332
C181	C	0.534253	-0.285451	0.285318
C182	C	0.784253	-0.035451	0.535318
C183	C	1.034253	0.214549	0.785318
C184	C	1.284253	0.464549	1.035318
C185	C	0.534239	-0.218475	0.218573
C186	C	0.784239	0.031525	0.468573
C187	C	1.034239	0.281525	0.718573
C188	C	1.284239	0.531525	0.968573
C189	C	0.479638	-0.218481	0.218585
C190	C	0.729638	0.031519	0.468585
C191	C	0.979638	0.281519	0.718585
C192	C	1.229638	0.531519	0.968585
C193	C	0.452344	-0.251972	0.251968
C194	C	0.702344	-0.001972	0.501968
C195	C	0.952344	0.248028	0.751968
C196	C	1.202344	0.498028	1.001968
O197	O	0.393252	-0.190038	0.190228
O198	O	0.643252	0.059962	0.440228
O199	O	0.893252	0.309962	0.690228
O200	O	1.143252	0.559962	0.940228
O201	O	0.393229	-0.313933	0.313736
O202	O	0.643229	-0.063933	0.563736
O203	O	0.893229	0.186067	0.813736
O204	O	1.143229	0.436067	1.063736
C205	C	0.788967	-0.806264	0.285491
C206	C	1.038967	-0.556264	0.535491
C207	C	1.288967	-0.306264	0.785491
C208	C	1.538967	-0.056264	1.035491
C209	C	0.788983	-0.860868	0.285501
C210	C	1.038983	-0.610868	0.535501
C211	C	1.288983	-0.360868	0.785501
C212	C	1.538983	-0.110868	1.035501
O213	O	0.817394	-0.889074	0.313985
O214	O	1.067394	-0.639074	0.563985
O215	O	1.317394	-0.389074	0.813985
O216	O	1.567394	-0.139074	1.063985
N217	N	0.755579	-0.888218	0.252032
N218	N	1.005579	-0.638218	0.502032
N219	N	1.255579	-0.388218	0.752032
N220	N	1.505579	-0.138218	1.002032
C221	C	0.722154	-0.860962	0.218553
C222	C	0.972154	-0.610962	0.468553
C223	C	1.222154	-0.360962	0.718553
C224	C	1.472154	-0.110962	0.968553
O225	O	0.693742	-0.889240	0.190086
O226	O	0.943742	-0.639240	0.440086
O227	O	1.193742	-0.389240	0.690086
O228	O	1.443742	-0.139240	0.940086
C229	C	0.722136	-0.806359	0.218546
C230	C	0.972136	-0.556359	0.468546
C231	C	1.222136	-0.306359	0.718546
C232	C	1.472136	-0.056359	0.968546
C233	C	0.755546	-0.779011	0.252014
C234	C	1.005546	-0.529011	0.502014
C235	C	1.255546	-0.279011	0.752014
C236	C	1.505546	-0.029011	1.002014
C237	C	0.822374	-0.778916	0.318956
C238	C	1.072374	-0.528916	0.568956
C239	C	1.322374	-0.278916	0.818956
C240	C	1.572374	-0.028916	1.068956
C241	C	0.822359	-0.724315	0.318945
C242	C	1.072359	-0.474315	0.568945
C243	C	1.322359	-0.224315	0.818945
C244	C	1.572359	0.025685	1.068945
C245	C	0.788938	-0.697062	0.285468
C246	C	1.038938	-0.447062	0.535468
C247	C	1.288938	-0.197062	0.785468
C248	C	1.538938	0.052938	1.035468
C249	C	0.755531	-0.724410	0.252002
C250	C	1.005531	-0.474410	0.502002
C251	C	1.255531	-0.224410	0.752002
C252	C	1.505531	0.025590	1.002002
C253	C	0.688708	-0.779103	0.185070
C254	C	0.938708	-0.529103	0.435070
C255	C	1.188708	-0.279103	0.685070
C256	C	1.438708	-0.029103	0.935070
C257	C	0.688693	-0.724496	0.185066
C258	C	0.938693	-0.474496	0.435066
C259	C	1.188693	-0.224496	0.685066
C260	C	1.438693	0.025504	0.935066
C261	C	0.722103	-0.697148	0.218534
C262	C	0.972103	-0.447148	0.468534
C263	C	1.222103	-0.197148	0.718534
C264	C	1.472103	0.052852	0.968534
C265	C	0.722095	-0.642557	0.218514
C266	C	0.972095	-0.392557	0.468514
C267	C	1.222095	-0.142557	0.718514
C268	C	1.472095	0.107443	0.968514
N269	N	0.755498	-0.615206	0.251983
N270	N	1.005498	-0.365206	0.501983
N271	N	1.255498	-0.115206	0.751983
N272	N	1.505498	0.134794	1.001983
C273	C	0.788920	-0.642459	0.285460
C274	C	1.038920	-0.392459	0.535460
C275	C	1.288920	-0.142459	0.785460
C276	C	1.538920	0.107541	1.035460
C277	C	0.722193	-0.975633	0.218572
C278	C	0.972193	-0.725633	0.468572
C279	C	1.222193	-0.475633	0.718572
C280	C	1.472193	-0.225633	0.968572
C281	C	0.722213	-1.030235	0.218577
C282	C	0.972213	-0.780235	0.468577
C283	C	1.222213	-0.530235	0.718577
C284	C	1.472213	-0.280235	0.968577
C285	C	0.789041	-1.030137	0.285526
C286	C	1.039041	-0.780137	0.535526
C287	C	1.289041	-0.530137	0.785526
C288	C	1.539041	-0.280137	1.035526
C289	C	0.789024	-0.975534	0.285518
C290	C	1.039024	-0.725534	0.535518
C291	C	1.289024	-0.475534	0.785518
C292	C	1.539024	-0.225534	1.035518
C293	C	0.755597	-0.948282	0.252042
C294	C	1.005597	-0.698282	0.502042
C295	C	1.255597	-0.448282	0.752042
C296	C	1.505597	-0.198282	1.002042
C297	C	0.788887	-0.527794	0.285433
C298	C	1.038887	-0.277794	0.535433
C299	C	1.288887	-0.027794	0.785433
C300	C	1.538887	0.222206	1.035433
C301	C	0.788870	-0.473189	0.285417
C302	C	1.038870	-0.223189	0.535417
C303	C	1.288870	0.026811	0.785417
C304	C	1.538870	0.276811	1.035417
C305	C	0.722040	-0.473291	0.218471
C306	C	0.972040	-0.223291	0.468471
C307	C	1.222040	0.026709	0.718471
C308	C	1.472040	0.276709	0.968471
C309	C	0.722058	-0.527892	0.218484
C310	C	0.972058	-0.277892	0.468484
C311	C	1.222058	-0.027892	0.718484
C312	C	1.472058	0.222108	0.968484
C313	C	0.755483	-0.555142	0.251970
C314	C	1.005483	-0.305142	0.501970
C315	C	1.255483	-0.055142	0.751970
C316	C	1.505483	0.194858	1.001970
O317	O	0.693697	-0.614316	0.190046
O318	O	0.943697	-0.364316	0.440046
O319	O	1.193697	-0.114316	0.690046
O320	O	1.443697	0.135684	0.940046
O321	O	0.817322	-0.614175	0.313927
O322	O	1.067322	-0.364175	0.563927
O323	O	1.317322	-0.114175	0.813927
O324	O	1.567322	0.135825	1.063927
C325	C	0.891879	-0.252000	0.252017
C326	C	1.141879	-0.002000	0.502017
C327	C	1.391879	0.248000	0.752017
C328	C	1.641879	0.498000	1.002017
C329	C	0.949993	-0.252009	0.252032
C330	C	1.199993	-0.002009	0.502032
C331	C	1.449993	0.247991	0.752032
C332	C	1.699993	0.497991	1.002032
C333	C	0.755523	-0.251970	0.388354
C334	C	1.005523	-0.001970	0.638354
C335	C	1.255523	0.248030	0.888354
C336	C	1.505523	0.498030	1.138354
C337	C	0.755530	-0.251966	0.446468
C338	C	1.005530	-0.001966	0.696468
C339	C	1.255530	0.248034	0.946468
C340	C	1.505530	0.498034	1.196468
C341	C	0.755595	-0.115606	0.252034
C342	C	1.005595	0.134394	0.502034
C343	C	1.255595	0.384394	0.752034
C344	C	1.505595	0.634394	1.002034
C345	C	0.755632	-0.057492	0.252056
C346	C	1.005632	0.192508	0.502056
C347	C	1.255632	0.442508	0.752056
C348	C	1.505632	0.692508	1.002056
C349	C	0.755520	-0.251951	0.116139
C350	C	1.005520	-0.001951	0.366139
C351	C	1.255520	0.248049	0.616139
C352	C	1.505520	0.498049	0.866139
C353	C	0.755614	-0.251807	0.058025
C354	C	1.005614	-0.001807	0.308025
C355	C	1.255614	0.248193	0.558025
C356	C	1.505614	0.498193	0.808025
C357	C	0.789035	-0.218432	0.806859
C358	C	1.039035	0.031568	1.056859
C359	C	1.289035	0.281568	1.306859
C360	C	1.539035	0.531568	1.556859
C361	C	0.789041	-0.218417	0.861463
C362	C	1.039041	0.031583	1.111463
C363	C	1.289041	0.281583	1.361463
C364	C	1.539041	0.531583	1.611463
O365	O	0.817486	-0.189967	0.889723
O366	O	1.067486	0.060033	1.139723
O367	O	1.317486	0.310033	1.389723
O368	O	1.567486	0.560033	1.639723
N369	N	0.755588	-0.251844	0.888751
N370	N	1.005588	-0.001844	1.138751
N371	N	1.255588	0.248156	1.388751
N372	N	1.505588	0.498156	1.638751
C373	C	0.722122	-0.285283	0.861432
C374	C	0.972122	-0.035283	1.111432
C375	C	1.222122	0.214717	1.361432
C376	C	1.472122	0.464717	1.611432
O377	O	0.693668	-0.313713	0.889656
O378	O	0.943668	-0.063713	1.139656
O379	O	1.193668	0.186287	1.389656
O380	O	1.443668	0.436287	1.639656
C381	C	0.722114	-0.285294	0.806828
C382	C	0.972114	-0.035294	1.056828
C383	C	1.222114	0.214706	1.306828
C384	C	1.472114	0.464706	1.556828
C385	C	0.755573	-0.251870	0.779543
C386	C	1.005573	-0.001870	1.029543
C387	C	1.255573	0.248130	1.279543
C388	C	1.505573	0.498130	1.529543
C389	C	0.822491	-0.185009	0.779574
C390	C	1.072491	0.064991	1.029574
C391	C	1.322491	0.314991	1.279574
C392	C	1.572491	0.564991	1.529574
C393	C	0.822485	-0.185025	0.724973
C394	C	1.072485	0.064975	0.974973
C395	C	1.322485	0.314975	1.224973
C396	C	1.572485	0.564975	1.474973
C397	C	0.789023	-0.218462	0.697658
C398	C	1.039023	0.031538	0.947658
C399	C	1.289023	0.281538	1.197658
C400	C	1.539023	0.531538	1.447658
C401	C	0.755567	-0.251885	0.724943
C402	C	1.005567	-0.001885	0.974943
C403	C	1.255567	0.248115	1.224943
C404	C	1.505567	0.498115	1.474943
C405	C	0.688646	-0.318731	0.779510
C406	C	0.938646	-0.068731	1.029510
C407	C	1.188646	0.181269	1.279510
C408	C	1.438646	0.431269	1.529510
C409	C	0.688640	-0.318739	0.724903
C410	C	0.938640	-0.068739	0.974903
C411	C	1.188640	0.181261	1.224903
C412	C	1.438640	0.431261	1.474903
C413	C	0.722099	-0.285314	0.697618
C414	C	0.972099	-0.035314	0.947618
C415	C	1.222099	0.214686	1.197618
C416	C	1.472099	0.464686	1.447618
C417	C	0.722099	-0.285338	0.643027
C418	C	0.972099	-0.035338	0.893027
C419	C	1.222099	0.214662	1.143027
C420	C	1.472099	0.464662	1.393027
N421	N	0.755552	-0.251912	0.615739
N422	N	1.005552	-0.001912	0.865739
N423	N	1.255552	0.248088	1.115739
N424	N	1.505552	0.498088	1.365739
C425	C	0.789014	-0.218474	0.643055
C426	C	1.039014	0.031526	0.893055
C427	C	1.289014	0.281526	1.143055
C428	C	1.539014	0.531526	1.393055
C429	C	0.722143	-0.285256	0.976102
C430	C	0.972143	-0.035256	1.226102
C431	C	1.222143	0.214744	1.476102
C432	C	1.472143	0.464744	1.726102
C433	C	0.722154	-0.285247	1.030705
C434	C	0.972154	-0.035247	1.280705
C435	C	1.222154	0.214753	1.530705
C436	C	1.472154	0.464753	1.780705
C437	C	0.789072	-0.218381	1.030733
C438	C	1.039072	0.031619	1.280733
C439	C	1.289072	0.281619	1.530733
C440	C	1.539072	0.531619	1.780733
C441	C	0.789063	-0.218392	0.976129
C442	C	1.039063	0.031608	1.226129
C443	C	1.289063	0.281608	1.476129
C444	C	1.539063	0.531608	1.726129
C445	C	0.755596	-0.251829	0.948815
C446	C	1.005596	-0.001829	1.198815
C447	C	1.255596	0.248171	1.448815
C448	C	1.505596	0.498171	1.698815
C449	C	0.789000	-0.218509	0.528389
C450	C	1.039000	0.031491	0.778389
C451	C	1.289000	0.281491	1.028389
C452	C	1.539000	0.531491	1.278389
C453	C	0.788992	-0.218529	0.473784
C454	C	1.038992	0.031471	0.723784
C455	C	1.288992	0.281471	0.973784
C456	C	1.538992	0.531471	1.223784
C457	C	0.722072	-0.285393	0.473761
C458	C	0.972072	-0.035393	0.723761
C459	C	1.222072	0.214607	0.973761
C460	C	1.472072	0.464607	1.223761
C461	C	0.722081	-0.285375	0.528362
C462	C	0.972081	-0.035375	0.778362
C463	C	1.222081	0.214625	1.028362
C464	C	1.472081	0.464625	1.278362
C465	C	0.755547	-0.251929	0.555674
C466	C	1.005547	-0.001929	0.805674
C467	C	1.255547	0.248071	1.055674
C468	C	1.505547	0.498071	1.305674
O469	O	0.693668	-0.313773	0.614732
O470	O	0.943668	-0.063773	0.864732
O471	O	1.193668	0.186227	1.114732
O472	O	1.443668	0.436227	1.364732
O473	O	0.817459	-0.190044	0.614823
O474	O	1.067459	0.059956	0.864823
O475	O	1.317459	0.309956	1.114823
O476	O	1.567459	0.559956	1.364823
H477	H	0.556481	-0.312723	0.312491
H478	H	0.806481	-0.062723	0.562491
H479	H	1.056481	0.187277	0.812491
H480	H	1.306481	0.437277	1.062491
H481	H	0.849740	-0.157777	0.801809
H482	H	1.099740	0.092223	1.051809
H483	H	1.349740	0.342223	1.301809
H484	H	1.599740	0.592223	1.551809
Cl485	Cl	0.831138	-0.176343	1.065082
Cl486	Cl	1.081138	0.073657	1.315082
Cl487	Cl	1.331138	0.323657	1.565082
Cl488	Cl	1.581138	0.573657	1.815082
Cl489	Cl	0.830875	-0.438812	0.327494
Cl490	Cl	1.080875	-0.188812	0.577494
Cl491	Cl	1.330875	0.061188	0.827494
Cl492	Cl	1.580875	0.311188	1.077494
Cl493	Cl	0.831059	-0.176506	0.439486
Cl494	Cl	1.081059	0.073494	0.689486
Cl495	Cl	1.331059	0.323494	0.939486
Cl496	Cl	1.581059	0.573494	1.189486
H497	H	0.054118	-0.191241	0.191472
H498	H	0.304118	0.058759	0.441472
H499	H	0.554118	0.308759	0.691472
H500	H	0.804118	0.558759	0.941472
H501	H	-0.044930	-0.312763	0.312580
H502	H	0.205070	-0.062763	0.562580
H503	H	0.455070	0.187237	0.812580
H504	H	0.705070	0.437237	1.062580
H505	H	0.694841	-0.312597	0.550578
H506	H	0.944841	-0.062597	0.800578
H507	H	1.194841	0.187403	1.050578
H508	H	1.444841	0.437403	1.300578
H509	H	0.457431	-0.312726	0.312517
H510	H	0.707431	-0.062726	0.562517
H511	H	0.957431	0.187274	0.812517
H512	H	1.207431	0.437274	1.062517
Cl513	Cl	0.831069	-0.176459	0.562717
Cl514	Cl	1.081069	0.073541	0.812717
Cl515	Cl	1.331069	0.323541	1.062717
Cl516	Cl	1.581069	0.573541	1.312717
Cl517	Cl	0.445313	-0.176389	0.176627
Cl518	Cl	0.695313	0.073611	0.426627
Cl519	Cl	0.945313	0.323611	0.676627
Cl520	Cl	1.195313	0.573611	0.926627
H521	H	0.661380	-0.345963	0.702666
H522	H	0.911380	-0.095963	0.952666
H523	H	1.161380	0.154037	1.202666
H524	H	1.411380	0.404037	1.452666
Cl525	Cl	0.680097	-0.327277	1.064999
Cl526	Cl	0.930097	-0.077277	1.314999
Cl527	Cl	1.180097	0.172723	1.564999
Cl528	Cl	1.430097	0.422723	1.814999
H529	H	0.556474	-0.191211	0.191398
H530	H	0.806474	0.058789	0.441398
H531	H	1.056474	0.308789	0.691398
H532	H	1.306474	0.558789	0.941398
H533	H	0.694830	-0.312619	0.451511
H534	H	0.944830	-0.062619	0.701511
H535	H	1.194830	0.187381	0.951511
H536	H	1.444830	0.437381	1.201511
Cl537	Cl	0.831126	-0.176370	0.941834
Cl538	Cl	1.081126	0.073630	1.191834
Cl539	Cl	1.331126	0.323630	1.441834
Cl540	Cl	1.581126	0.573630	1.691834
Cl541	Cl	0.831025	-0.941159	0.327595
Cl542	Cl	1.081025	-0.691159	0.577595
Cl543	Cl	1.331025	-0.441159	0.827595
Cl544	Cl	1.581025	-0.191159	1.077595
Cl545	Cl	0.864547	-0.142998	0.690680
Cl546	Cl	1.114547	0.107002	0.940680
Cl547	Cl	1.364547	0.357002	1.190680
Cl548	Cl	1.614547	0.607002	1.440680
Cl549	Cl	0.646582	-0.360755	0.813798
Cl550	Cl	0.896582	-0.110755	1.063798
Cl551	Cl	1.146582	0.139245	1.313798
Cl552	Cl	1.396582	0.389245	1.563798
H553	H	0.305308	-0.346225	0.345907
H554	H	0.555308	-0.096225	0.595907
H555	H	0.805308	0.153775	0.845907
H556	H	1.055308	0.403775	1.095907
Cl557	Cl	0.680069	-0.327300	0.941770
Cl558	Cl	0.930069	-0.077300	1.191770
Cl559	Cl	1.180069	0.172700	1.441770
Cl560	Cl	1.430069	0.422700	1.691770
H561	H	0.206262	-0.346229	0.345924
H562	H	0.456262	-0.096229	0.595924
H563	H	0.706262	0.153771	0.845924
H564	H	0.956262	0.403771	1.095924
H565	H	0.054135	-0.312760	0.312570
H566	H	0.304135	-0.062760	0.562570
H567	H	0.554135	0.187240	0.812570
H568	H	0.804135	0.437240	1.062570
Cl569	Cl	-0.057023	-0.176428	0.176698
Cl570	Cl	0.192977	0.073572	0.426698
Cl571	Cl	0.442977	0.323572	0.676698
Cl572	Cl	0.692977	0.573572	0.926698
Cl573	Cl	0.830909	-0.562043	0.327529
Cl574	Cl	1.080909	-0.312043	0.577529
Cl575	Cl	1.330909	-0.062043	0.827529
Cl576	Cl	1.580909	0.187957	1.077529
Cl577	Cl	0.317390	-0.142890	0.143299
Cl578	Cl	0.567390	0.107110	0.393299
Cl579	Cl	0.817390	0.357110	0.643299
Cl580	Cl	1.067390	0.607110	0.893299
Cl581	Cl	0.194160	-0.142896	0.143312
Cl582	Cl	0.444160	0.107104	0.393312
Cl583	Cl	0.694160	0.357104	0.643312
Cl584	Cl	0.944160	0.607104	0.893312
H585	H	0.849590	-0.801099	0.346221
H586	H	1.099590	-0.551099	0.596221
H587	H	1.349590	-0.301099	0.846221
H588	H	1.599590	-0.051099	1.096221
Cl589	Cl	0.864358	-0.689943	0.361026
Cl590	Cl	1.114358	-0.439943	0.611026
Cl591	Cl	1.364358	-0.189943	0.861026
Cl592	Cl	1.614358	0.060057	1.111026
Cl593	Cl	0.831057	-1.064408	0.327613
Cl594	Cl	1.081057	-0.814408	0.577613
Cl595	Cl	1.331057	-0.564408	0.827613
Cl596	Cl	1.581057	-0.314408	1.077613
Cl597	Cl	0.680063	-0.562273	0.176403
Cl598	Cl	0.930063	-0.312273	0.426403
Cl599	Cl	1.180063	-0.062273	0.676403
Cl600	Cl	1.430063	0.187727	0.926403
Cl601	Cl	0.680217	-1.064608	0.176494
Cl602	Cl	0.930217	-0.814608	0.426494
Cl603	Cl	1.180217	-0.564608	0.676494
Cl604	Cl	1.430217	-0.314608	0.926494
H605	H	0.694974	-0.953447	0.191308
H606	H	0.944974	-0.703447	0.441308
H607	H	1.194974	-0.453447	0.691308
H608	H	1.444974	-0.203447	0.941308
Cl609	Cl	0.646668	-0.690240	0.142978
Cl610	Cl	0.896668	-0.440240	0.392978
Cl611	Cl	1.146668	-0.190240	0.642978
Cl612	Cl	1.396668	0.059760	0.892978
Cl613	Cl	0.646702	-0.813470	0.142995
Cl614	Cl	0.896702	-0.563470	0.392995
Cl615	Cl	1.146702	-0.313470	0.642995
Cl616	Cl	1.396702	-0.063470	0.892995
Cl617	Cl	0.680026	-0.439021	0.176387
Cl618	Cl	0.930026	-0.189021	0.426387
Cl619	Cl	1.180026	0.060979	0.676387
Cl620	Cl	1.430026	0.310979	0.926387
