data_functionalizedCrystal
_audit_creation_method	'MofGen! by Chris Wilmer'
_symmetry_space_group_name_H-M	'P1'
_symmetry_Int_Tables_number	1
_symmetry_cell_setting	triclinic
loop_
_symmetry_equiv_pos_as_xyz
  x,y,z
_cell_length_a	29.839134
_cell_length_b	29.839131
_cell_length_c	13.033255
_cell_angle_alpha	97.142732
_cell_angle_beta	82.786976
_cell_angle_gamma	90.027971
loop_
_atom_site_label
_atom_site_type_symbol
_atom_site_fract_x
_atom_site_fract_y
_atom_site_fract_z
Zn1	Zn	0.719033	-0.211204	-0.591116
Zn2	Zn	0.709425	-0.276795	-0.416337
Zn3	Zn	0.634368	-0.201671	-0.416352
Zn4	Zn	0.643865	-0.286291	-0.590989
O5	O	0.676673	-0.243990	-0.503698
O6	O	0.780628	-0.219920	-0.567978
O7	O	0.691473	-0.258866	-0.270107
O8	O	0.645646	-0.140072	-0.439595
O9	O	0.773569	-0.268109	-0.439568
O10	O	0.707849	-0.147075	-0.567993
O11	O	0.636329	-0.203673	-0.270118
O12	O	0.572758	-0.212881	-0.439471
O13	O	0.661832	-0.284294	-0.737238
O14	O	0.579736	-0.275051	-0.567776
O15	O	0.717058	-0.229128	-0.737331
O16	O	0.700682	-0.340918	-0.439445
O17	O	0.652515	-0.347895	-0.567761
C18	C	0.559946	-0.243962	-0.503612
C19	C	0.510011	-0.243962	-0.503600
C20	C	0.676600	-0.360708	-0.503610
C21	C	0.676611	-0.410642	-0.503608
C22	C	0.149791	-0.211583	-0.437027
C23	C	0.337460	-0.211567	-0.436963
O24	O	0.358631	-0.183994	-0.380263
N25	N	0.364568	-0.243972	-0.503652
C26	C	0.344757	-0.276382	-0.570367
O27	O	0.372120	-0.303942	-0.627097
C28	C	0.157088	-0.276396	-0.570435
C29	C	0.129982	-0.243991	-0.503734
C30	C	0.122685	-0.179181	-0.370332
C31	C	0.075770	-0.179187	-0.370344
C32	C	0.055961	-0.211595	-0.437052
C33	C	0.083067	-0.243997	-0.503746
C34	C	0.137277	-0.308803	-0.637154
C35	C	0.090357	-0.308803	-0.637167
C36	C	0.063251	-0.276399	-0.570466
C37	C	0.016343	-0.276411	-0.570466
N38	N	-0.010765	-0.244006	-0.503777
C39	C	0.009044	-0.211598	-0.437070
C40	C	0.443285	-0.276373	-0.570325
C41	C	0.490202	-0.276370	-0.570307
C42	C	0.482902	-0.211555	-0.436904
C43	C	0.435984	-0.211560	-0.436918
C44	C	0.416177	-0.243968	-0.503636
C45	C	-0.089480	-0.211613	-0.437100
C46	C	-0.136399	-0.211623	-0.437116
C47	C	-0.129095	-0.276437	-0.570522
C48	C	-0.082180	-0.276429	-0.570503
C49	C	-0.062374	-0.244013	-0.503789
O50	O	-0.004857	-0.303967	-0.627145
O51	O	-0.018326	-0.184036	-0.380365
C52	C	0.196705	-0.211577	-0.437014
C53	C	0.223811	-0.243980	-0.503709
C54	C	0.204003	-0.276388	-0.570416
C55	C	0.270728	-0.243977	-0.503691
C56	C	0.290537	-0.211569	-0.436983
C57	C	0.263429	-0.179163	-0.370294
C58	C	0.216514	-0.179169	-0.370307
C59	C	0.231111	-0.308793	-0.637105
C60	C	0.278025	-0.308785	-0.637087
C61	C	0.297834	-0.276377	-0.570379
C62	C	0.709061	-0.723908	-0.570651
C63	C	0.709113	-0.911584	-0.570714
O64	O	0.736632	-0.938925	-0.627651
N65	N	0.676756	-0.931438	-0.503814
C66	C	0.644381	-0.904371	-0.436900
O67	O	0.616857	-0.925565	-0.380007
C68	C	0.644327	-0.716696	-0.436843
C69	C	0.676690	-0.696843	-0.503739
C70	C	0.741421	-0.704055	-0.637542
C71	C	0.741409	-0.657139	-0.637522
C72	C	0.709037	-0.630074	-0.570610
C73	C	0.676678	-0.649927	-0.503719
C74	C	0.611951	-0.689629	-0.369934
C75	C	0.611939	-0.642708	-0.369928
C76	C	0.644302	-0.622856	-0.436824
C77	C	0.644294	-0.575946	-0.436786
N78	N	0.676652	-0.556092	-0.503685
C79	C	0.709023	-0.583156	-0.570597
C80	C	0.644412	-1.002903	-0.436933
C81	C	0.644426	-1.049822	-0.436945
C82	C	0.709158	-1.057032	-0.570761
C83	C	0.709145	-1.010112	-0.570742
C84	C	0.676769	-0.983049	-0.503832
C85	C	0.708996	-0.484627	-0.570549
C86	C	0.708983	-0.437706	-0.570519
C87	C	0.644249	-0.430501	-0.436708
C88	C	0.644264	-0.477417	-0.436733
C89	C	0.676640	-0.504480	-0.503662
O90	O	0.616786	-0.548579	-0.379887
O91	O	0.736537	-0.561954	-0.627498
C92	C	0.709073	-0.770824	-0.570671
C93	C	0.676713	-0.790677	-0.503780
C94	C	0.644342	-0.763612	-0.436868
C95	C	0.676727	-0.837595	-0.503792
C96	C	0.709099	-0.864659	-0.570704
C97	C	0.741456	-0.844805	-0.637603
C98	C	0.741444	-0.797888	-0.637583
C99	C	0.611984	-0.783467	-0.369969
C100	C	0.611999	-0.830384	-0.369994
C101	C	0.644370	-0.857448	-0.436906
C102	C	0.793856	-0.244019	-0.503786
C103	C	0.843792	-0.244031	-0.503823
C104	C	0.691576	-0.258834	-0.776261
C105	C	0.697927	-0.265159	-0.892411
C106	C	0.676760	-0.126818	-0.503810
C107	C	0.676797	-0.076886	-0.503857
C108	C	0.680040	-0.247207	-1.064251
C109	C	0.673473	-0.240668	-0.944204
C110	C	0.661854	-0.229172	-0.232196
C111	C	0.655590	-0.222720	-0.116047
H112	H	-0.158467	-0.185234	-0.382797
C113	C	-0.052363	-0.312076	-0.643874
N114	N	-0.029907	-0.338923	-0.699148
C115	C	0.732803	-0.299999	-0.952557
N116	N	0.759080	-0.326231	-0.997860
C117	C	0.714786	-0.282173	-1.124403
N118	N	0.740921	-0.308546	-1.169708
C119	C	0.045960	-0.143533	-0.296982
N120	N	0.023510	-0.116675	-0.241728
H121	H	0.629794	-0.196916	-1.071518
C122	C	0.421502	-0.312034	-0.643708
N123	N	0.405097	-0.338897	-0.698972
C124	C	0.144466	-0.143528	-0.296938
N125	N	0.160868	-0.116674	-0.241646
C126	C	-0.067700	-0.175956	-0.363705
N127	N	-0.051297	-0.149101	-0.308418
H128	H	0.499038	-0.185167	-0.382587
C129	C	0.406172	-0.175910	-0.363550
N130	N	0.383720	-0.149055	-0.308290
C131	C	0.520013	-0.312022	-0.643673
N132	N	0.542466	-0.338875	-0.698938
H133	H	0.159340	-0.335191	-0.691469
H134	H	0.767816	-0.866849	-0.692082
C135	C	-0.150894	-0.312083	-0.643899
N136	N	-0.167314	-0.338930	-0.699173
H137	H	0.074233	-0.335193	-0.691502
C138	C	0.307837	-0.344436	-0.710466
N139	N	0.330290	-0.371286	-0.765740
C140	C	0.744614	-0.514389	-0.644167
N141	N	0.771443	-0.536806	-0.699610
C142	C	0.285228	-0.143512	-0.296922
N143	N	0.301650	-0.116659	-0.241667
H144	H	0.617894	-0.408458	-0.382226
H145	H	0.194448	-0.152782	-0.315993
H146	H	0.214987	-0.335184	-0.691429
C147	C	0.576395	-0.852215	-0.296398
N148	N	0.549576	-0.868658	-0.240974
C149	C	0.777047	-0.776057	-0.711173
N150	N	0.803864	-0.759617	-0.766606
H151	H	0.735338	-0.421545	-0.624994
C152	C	0.638624	-0.205802	-0.884056
N153	N	0.612377	-0.179541	-0.838750
C154	C	0.608827	-1.071653	-0.363346
N155	N	0.582012	-1.088095	-0.307914
C156	C	0.576366	-0.753703	-0.296368
N157	N	0.549536	-0.731286	-0.240929
C158	C	0.777012	-0.635308	-0.711110
N159	N	0.803830	-0.618867	-0.766539
H160	H	0.767782	-0.726087	-0.692036
H161	H	0.735498	-0.993952	-0.625215
C162	C	0.576323	-0.612941	-0.296318
N163	N	0.549497	-0.590521	-0.240872
C164	C	0.744764	-1.086811	-0.644370
N165	N	0.771580	-1.109244	-0.699816
C166	C	0.608789	-0.973140	-0.363332
N167	N	0.581957	-0.950724	-0.307897
H168	H	0.585598	-0.705784	-0.315460
H169	H	0.617915	-0.493581	-0.382253
