data_functionalizedCrystal
_audit_creation_method	'MofGen! by Chris Wilmer'
_symmetry_space_group_name_H-M	'P1'
_symmetry_Int_Tables_number	1
_symmetry_cell_setting	triclinic
loop_
_symmetry_equiv_pos_as_xyz
  x,y,z
_cell_length_a	16.992697
_cell_length_b	16.974875
_cell_length_c	14.421503
_cell_angle_alpha	93.657657
_cell_angle_beta	89.998313
_cell_angle_gamma	87.024218
loop_
_atom_site_label
_atom_site_type_symbol
_atom_site_fract_x
_atom_site_fract_y
_atom_site_fract_z
O1	O	-1.040214	-0.167640	0.064404
O2	O	-0.706880	0.165693	0.397738
O3	O	-0.373547	0.499027	0.731071
O4	O	-0.811930	-0.165800	0.064574
O5	O	-0.478597	0.167533	0.397907
O6	O	-0.145264	0.500866	0.731240
O7	O	-0.932437	-0.052019	0.073085
O8	O	-0.599104	0.281314	0.406418
O9	O	-0.265770	0.614647	0.739752
O10	O	-0.919707	-0.281421	0.055893
O11	O	-0.586374	0.051912	0.389227
O12	O	-0.253040	0.385246	0.722560
O13	O	-0.932417	-0.052036	-0.081140
O14	O	-0.599084	0.281297	0.252193
O15	O	-0.265750	0.614630	0.585527
O16	O	-0.811910	-0.165817	-0.089651
O17	O	-0.478577	0.167516	0.243682
O18	O	-0.145244	0.500850	0.577016
O19	O	-1.040194	-0.167657	-0.089820
O20	O	-0.706860	0.165677	0.243513
O21	O	-0.373527	0.499010	0.576846
Cu22	Cu	-0.926050	-0.166738	-0.103818
Cu23	Cu	-0.592717	0.166595	0.229516
Cu24	Cu	-0.259384	0.499928	0.562849
Cu25	Cu	-0.926074	-0.166719	0.078571
Cu26	Cu	-0.592741	0.166615	0.411904
Cu27	Cu	-0.259407	0.499948	0.745238
O28	O	-0.919687	-0.281438	-0.098331
O29	O	-0.586354	0.051896	0.235002
O30	O	-0.253020	0.385229	0.568335
C31	C	-0.782710	-0.163443	-0.012357
C32	C	-0.449377	0.169891	0.320976
C33	C	-0.116044	0.503224	0.654309
C34	C	-0.695674	-0.156383	-0.011816
C35	C	-0.362341	0.176951	0.321517
C36	C	-0.029007	0.510284	0.654851
C37	C	-0.931943	-0.022539	-0.001815
C38	C	-0.598610	0.310794	0.331518
C39	C	-0.265276	0.644128	0.664851
C40	C	-0.930492	0.065329	0.004776
C41	C	-0.597158	0.398663	0.338110
C42	C	-0.263825	0.731996	0.671443
C43	C	-0.645360	-0.224498	-0.016921
C44	C	-0.312026	0.108835	0.316413
C45	C	0.021307	0.442169	0.649746
C46	C	-0.563580	-0.217860	-0.016434
C47	C	-0.230247	0.115473	0.316899
C48	C	0.103087	0.448807	0.650232
C49	C	-0.532117	-0.143106	-0.010837
C50	C	-0.198783	0.190227	0.322496
C51	C	0.134550	0.523561	0.655830
C52	C	-0.582438	-0.074986	-0.005735
C53	C	-0.249104	0.258348	0.327598
C54	C	0.084229	0.591681	0.660932
C55	C	-0.664216	-0.081624	-0.006228
C56	C	-0.330882	0.251709	0.327106
C57	C	0.002451	0.585042	0.660439
C58	C	-0.288549	-0.115591	-0.008796
C59	C	0.044784	0.217743	0.324538
C60	C	0.378118	0.551076	0.657871
C61	C	-0.206765	-0.108957	-0.008300
C62	C	0.126569	0.224376	0.325033
C63	C	0.459902	0.557710	0.658366
C64	C	-0.187913	-0.251832	-0.019002
C65	C	0.145421	0.081501	0.314332
C66	C	0.478754	0.414835	0.647665
C67	C	-0.269693	-0.258464	-0.019488
C68	C	0.063640	0.074869	0.313845
C69	C	0.396974	0.408202	0.647178
C70	C	-0.320007	-0.190344	-0.014391
C71	C	0.013327	0.142989	0.318942
C72	C	0.346660	0.476323	0.652275
N73	N	-0.448525	-0.136319	-0.010337
N74	N	-0.115192	0.197014	0.322996
N75	N	0.218141	0.530348	0.656329
N76	N	-0.403597	-0.197132	-0.014898
N77	N	-0.070263	0.136202	0.318436
N78	N	0.263070	0.469535	0.651769
C79	C	-0.069414	-0.170014	-0.012883
C80	C	0.263920	0.163319	0.320450
C81	C	0.597253	0.496653	0.653784
C82	C	-0.156450	-0.177072	-0.013405
C83	C	0.176883	0.156261	0.319928
C84	C	0.510216	0.489594	0.653262
C85	C	-0.929797	0.106608	-0.076191
C86	C	-0.596464	0.439941	0.257143
C87	C	-0.263130	0.773275	0.590476
C88	C	-0.928438	0.189170	-0.069989
C89	C	-0.595105	0.522503	0.263345
C90	C	-0.261772	0.855837	0.596678
C91	C	-0.927769	0.230451	0.017181
C92	C	-0.594435	0.563784	0.350514
C93	C	-0.261102	0.897118	0.683847
C94	C	-0.928466	0.189167	0.098154
C95	C	-0.595133	0.522500	0.431487
C96	C	-0.261799	0.855834	0.764821
C97	C	-0.929830	0.106607	0.091951
C98	C	-0.596497	0.439940	0.425285
C99	C	-0.263163	0.773274	0.758618
C100	C	-0.923695	0.477369	0.044746
C101	C	-0.590362	0.810703	0.378079
C102	C	-0.257028	1.144036	0.711413
C103	C	-0.922328	0.559935	0.050943
C104	C	-0.588995	0.893268	0.384276
C105	C	-0.255662	1.226602	0.717609
C106	C	-0.922303	0.559932	-0.117201
C107	C	-0.588969	0.893266	0.216133
C108	C	-0.255636	1.226599	0.549466
C109	C	-0.923662	0.477371	-0.123396
C110	C	-0.590329	0.810704	0.209938
C111	C	-0.256995	1.144037	0.543271
C112	C	-0.924363	0.436094	-0.042423
C113	C	-0.591030	0.769427	0.290911
C114	C	-0.257697	1.102760	0.624244
N115	N	-0.926378	0.314842	0.023522
N116	N	-0.593044	0.648176	0.356855
N117	N	-0.259711	0.981509	0.690189
N118	N	-0.925760	0.351704	-0.048765
N119	N	-0.592427	0.685038	0.284568
N120	N	-0.259093	1.018371	0.617902
C121	C	-0.920181	0.689082	-0.023432
C122	C	-0.586848	1.022415	0.309902
C123	C	-0.253515	1.355748	0.643235
C124	C	-0.921634	0.601214	-0.030024
C125	C	-0.588300	0.934547	0.303309
C126	C	-0.254967	1.267880	0.636642
N127	N	-0.926039	-0.166752	-0.232100
N128	N	-0.592706	0.166581	0.101233
N129	N	-0.259373	0.499914	0.434567
C130	C	-0.870307	-0.219339	-0.485687
C131	C	-0.536974	0.113995	-0.152354
C132	C	-0.203641	0.447328	0.180979
C133	C	-0.941137	-0.239161	-0.548985
C134	C	-0.607803	0.094172	-0.215652
C135	C	-0.274470	0.427505	0.117681
C136	C	-0.926058	-0.166735	-0.421260
C137	C	-0.592725	0.166599	-0.087927
C138	C	-0.259392	0.499932	0.245407
C139	C	-0.855247	-0.146932	-0.542057
C140	C	-0.521914	0.186402	-0.208724
C141	C	-0.188581	0.519735	0.124609
C142	C	-0.926071	-0.166719	-0.603980
C143	C	-0.592737	0.166614	-0.270647
C144	C	-0.259404	0.499948	0.062686
C145	C	-0.996924	-0.186595	-0.483200
C146	C	-0.663590	0.146738	-0.149867
C147	C	-0.330257	0.480072	0.183466
C148	C	-0.910987	-0.094331	-0.476264
C149	C	-0.577654	0.239002	-0.142931
C150	C	-0.244321	0.572335	0.190403
C151	C	-0.981868	-0.114127	-0.539532
C152	C	-0.648535	0.219206	-0.206199
C153	C	-0.315202	0.552540	0.127134
C154	C	-0.926050	-0.166746	-0.316000
C155	C	-0.592717	0.166588	0.017334
C156	C	-0.259384	0.499921	0.350667
C157	C	-0.926087	-0.166708	-0.709238
C158	C	-0.592753	0.166625	-0.375905
C159	C	-0.259420	0.499959	-0.042572
N160	N	-0.926091	-0.166699	0.206854
N161	N	-0.592758	0.166634	0.540187
N162	N	-0.259424	0.499968	0.873520
H163	H	-0.670970	-0.285371	-0.021478
H164	H	-0.337637	0.047963	0.311856
H165	H	-0.004303	0.381296	0.645189
N166	N	-0.924492	0.432883	0.132096
N167	N	-0.591159	0.766216	0.465429
N168	N	-0.257826	1.099550	0.798763
H169	H	-0.973657	0.401996	0.133497
H170	H	-0.640323	0.735329	0.466831
H171	H	-0.306990	1.068662	0.800164
H172	H	-0.923843	0.471635	0.188185
H173	H	-0.590510	0.804969	0.521519
H174	H	-0.257177	1.138302	0.854852
H175	H	-0.930396	0.072999	0.157883
H176	H	-0.597063	0.406332	0.491217
H177	H	-0.263730	0.739666	0.824550
H178	H	-0.924224	0.443766	-0.194378
H179	H	-0.590891	0.777099	0.138955
H180	H	-0.257558	1.110433	0.472288
H181	H	-0.795358	-0.130190	-0.567964
H182	H	-0.462025	0.203143	-0.234631
H183	H	-0.128692	0.536476	0.098702
N184	N	-0.172819	-0.028329	-0.002281
N185	N	0.160514	0.305004	0.331052
N186	N	0.493847	0.638337	0.664385
H187	H	-0.139310	-0.022381	0.055333
H188	H	0.194024	0.310953	0.388666
H189	H	0.527357	0.644286	0.721999
H190	H	-0.217139	0.013774	0.000829
H191	H	0.116194	0.347107	0.334163
H192	H	0.449528	0.680441	0.667496
H193	H	-0.927876	0.222776	-0.135921
H194	H	-0.594543	0.556109	0.197413
H195	H	-0.261210	0.889442	0.530746
N196	N	-0.509348	-0.291353	-0.021960
N197	N	-0.176015	0.041980	0.311374
N198	N	0.157319	0.375314	0.644707
H199	H	-0.474985	-0.291809	0.035165
H200	H	-0.141651	0.041524	0.368499
H201	H	0.191682	0.374858	0.701832
H202	H	-0.475061	-0.291762	-0.079210
H203	H	-0.141727	0.041571	0.254123
H204	H	0.191606	0.374904	0.587456
H205	H	-0.146939	-0.307292	-0.023154
H206	H	0.186394	0.026042	0.310180
H207	H	0.519728	0.359375	0.643513
H208	H	-0.295304	-0.319337	-0.024036
H209	H	0.038029	0.013996	0.309298
H210	H	0.371363	0.347330	0.642631
N211	N	-1.076269	-0.208872	-0.449048
N212	N	-0.742935	0.124461	-0.115714
N213	N	-0.409602	0.457795	0.217619
H214	H	-1.087784	-0.263377	-0.476186
H215	H	-0.754450	0.069956	-0.142852
H216	H	-0.421117	0.403289	0.190481
H217	H	-1.118365	-0.169354	-0.469073
H218	H	-0.785032	0.163980	-0.135739
H219	H	-0.451699	0.497313	0.197594
N220	N	-0.807926	-0.278321	-0.454199
N221	N	-0.474593	0.055012	-0.120866
N222	N	-0.141259	0.388345	0.212468
H223	H	-0.808026	-0.277556	-0.384113
H224	H	-0.474693	0.055778	-0.050780
H225	H	-0.141360	0.389111	0.282554
H226	H	-0.754565	-0.263899	-0.476642
H227	H	-0.421232	0.069435	-0.143309
H228	H	-0.087899	0.402768	0.190025
H229	H	-0.898207	-0.033126	-0.444481
H230	H	-0.564873	0.300207	-0.111148
H231	H	-0.231540	0.633541	0.222186
H232	H	-1.029072	-0.069635	-0.563132
H233	H	-0.695738	0.263698	-0.229799
H234	H	-0.362405	0.597032	0.103535
H235	H	-0.329505	-0.060122	-0.004646
H236	H	0.003828	0.273211	0.328687
H237	H	0.337161	0.606545	0.662021
H238	H	-0.556814	-0.014119	-0.001191
H239	H	-0.223481	0.319214	0.332143
H240	H	0.109853	0.652548	0.665476
H241	H	-0.705182	-0.026157	-0.002071
H242	H	-0.371848	0.307176	0.331263
H243	H	-0.038515	0.640509	0.664596
H244	H	-0.930329	0.073002	-0.147174
H245	H	-0.596996	0.406335	0.186160
H246	H	-0.263663	0.739668	0.519493
H247	H	-0.953895	-0.300385	-0.580748
H248	H	-0.620562	0.032949	-0.247415
H249	H	-0.287229	0.366282	0.085919
H250	H	-0.921733	0.593549	-0.183124
H251	H	-0.588399	0.926882	0.150209
H252	H	-0.255066	1.260216	0.483542
N253	N	-0.921562	0.604460	0.144965
N254	N	-0.588228	0.937793	0.478298
N255	N	-0.254895	1.271127	0.811632
H256	H	-0.922200	0.565783	0.195321
H257	H	-0.588867	0.899117	0.528654
H258	H	-0.255533	1.232450	0.861987
H259	H	-0.969560	0.642074	0.151474
H260	H	-0.636227	0.975408	0.484807
H261	H	-0.302894	1.308741	0.818141
H262	H	-0.927926	0.222785	0.169129
H263	H	-0.594592	0.556118	0.502463
H264	H	-0.261259	0.889452	0.835796
