data_functionalizedCrystal
_audit_creation_method	'MofGen! by Chris Wilmer'
_symmetry_space_group_name_H-M	'P1'
_symmetry_Int_Tables_number	1
_symmetry_cell_setting	triclinic
loop_
_symmetry_equiv_pos_as_xyz
  x,y,z
_cell_length_a	16.109317
_cell_length_b	13.262415
_cell_length_c	15.186229
_cell_angle_alpha	74.080478
_cell_angle_beta	89.998767
_cell_angle_gamma	96.027767
loop_
_atom_site_label
_atom_site_type_symbol
_atom_site_fract_x
_atom_site_fract_y
_atom_site_fract_z
O1	O	-1.103621	0.134995	-0.105464
O2	O	-0.861623	0.151766	-0.109503
O3	O	-0.988707	-0.009414	-0.070885
O4	O	-0.976537	0.296175	-0.144082
O5	O	-0.988698	-0.009416	0.075573
O6	O	-0.861614	0.151764	0.036955
O7	O	-1.103612	0.134992	0.040994
Zn8	Zn	-0.982612	0.143378	0.062228
Zn9	Zn	-0.982623	0.143381	-0.130737
O10	O	-0.976528	0.296173	0.002376
C11	C	-0.830641	0.151083	-0.036113
C12	C	-0.738339	0.149037	-0.035632
C13	C	-0.439246	0.142430	-0.113873
C14	C	-0.525974	0.144346	-0.114336
C15	C	-0.525983	0.144329	0.045344
C16	C	-0.439257	0.142406	0.045807
C17	C	-0.395890	0.141462	-0.033805
C18	C	-0.569345	0.145300	-0.034731
C19	C	-0.663379	0.147377	-0.035232
C20	C	-0.301850	0.139383	-0.033304
C21	C	-0.988019	-0.048519	0.011708
C22	C	-0.985974	-0.165037	0.039611
C23	C	-0.980230	-0.493463	-0.201076
C24	C	-0.982159	-0.383990	-0.227297
C25	C	-0.983112	-0.329246	-0.160572
C26	C	-0.982138	-0.383987	-0.067622
C27	C	-0.980215	-0.493472	-0.041398
C28	C	-0.983098	-0.329255	-0.000894
C29	C	-0.982123	-0.383995	0.092056
C30	C	-0.980200	-0.493469	0.118275
C31	C	-0.979247	-0.548213	0.051550
C32	C	-0.985020	-0.219770	-0.027118
C33	C	-0.985005	-0.219778	0.132560
C34	C	-0.983077	-0.329251	0.158780
C35	C	-0.134594	0.135677	-0.032402
C36	C	-0.226896	0.137726	-0.032904
C37	C	-0.977216	0.335278	-0.080219
C38	C	-0.979261	0.451796	-0.108128
N39	N	-0.982610	0.143375	0.193921
N40	N	-0.982631	0.143375	-0.262428
C41	C	-1.038902	0.072029	0.436738
C42	C	-1.038905	0.072026	0.528928
C43	C	-0.926333	0.214725	0.494748
C44	C	-0.926327	0.214722	0.402561
C45	C	-0.982617	0.143375	0.373558
C46	C	-0.982625	0.143376	0.557935
C47	C	-0.982628	0.143374	0.657892
C48	C	-0.982613	0.143375	0.273595
H49	H	-0.403957	0.141617	0.111013
H50	H	-0.561270	0.145133	-0.179535
H51	H	-1.084736	0.013932	0.413128
C52	C	-1.100823	-0.006452	0.598427
C53	C	-1.162743	-0.084919	0.566521
C54	C	-1.224663	-0.163403	0.636021
C55	C	-1.224662	-0.163419	0.737428
C56	C	-1.162739	-0.084949	0.769340
C57	C	-1.100819	-0.006466	0.699839
H58	H	-1.162747	-0.084910	0.491449
H59	H	-1.270502	-0.221491	0.612397
H60	H	-1.270498	-0.221517	0.788876
H61	H	-1.162736	-0.084958	0.844412
H62	H	-1.054980	0.051623	0.723463
H63	H	-0.880505	0.272816	0.518371
C64	C	-0.573688	0.145379	0.132912
C65	C	-0.669083	0.147501	0.132405
C66	C	-0.716785	0.148554	0.219974
C67	C	-0.669093	0.147487	0.308049
C68	C	-0.573693	0.145365	0.308559
C69	C	-0.525991	0.144311	0.220990
H70	H	-0.704392	0.148291	0.067204
H71	H	-0.787407	0.150125	0.219597
H72	H	-0.704405	0.148267	0.372873
H73	H	-0.538384	0.144574	0.373760
H74	H	-0.455369	0.142740	0.221368
C75	C	-0.986085	-0.159562	-0.129357
C76	C	-1.057933	-0.186555	-0.188749
C77	C	-1.058997	-0.126348	-0.290995
C78	C	-0.988213	-0.039147	-0.333850
C79	C	-0.916360	-0.012149	-0.274458
C80	C	-0.915296	-0.072357	-0.172212
H81	H	-1.110336	-0.251111	-0.157025
H82	H	-1.112187	-0.146334	-0.334960
H83	H	-0.989000	0.005422	-0.409539
H84	H	-0.863957	0.052406	-0.306182
H85	H	-0.862106	-0.052371	-0.128247
C86	C	-0.983218	-0.323777	-0.329535
C87	C	-0.982160	-0.383984	-0.402933
C88	C	-0.983215	-0.323769	-0.505178
C89	C	-0.985328	-0.203346	-0.534025
C90	C	-0.986386	-0.143132	-0.460626
C91	C	-0.985331	-0.203348	-0.358381
H92	H	-0.980596	-0.473134	-0.381580
H93	H	-0.982432	-0.368344	-0.559513
H94	H	-0.986109	-0.158771	-0.609713
H95	H	-0.987950	-0.053982	-0.481979
H96	H	-0.986115	-0.158773	-0.304046
H97	H	-0.984682	-0.240108	-0.181927
C98	C	-0.864410	0.293208	0.333053
C99	C	-0.802524	0.371727	0.364939
C100	C	-0.740607	0.450206	0.295432
C101	C	-0.740576	0.450165	0.194038
C102	C	-0.802464	0.371643	0.162147
C103	C	-0.864381	0.293165	0.231654
H104	H	-0.802545	0.371760	0.440001
H105	H	-0.694794	0.508333	0.319041
H106	H	-0.694742	0.508260	0.142585
H107	H	-0.802443	0.371611	0.087085
H108	H	-0.910195	0.235038	0.208045
C109	C	-0.979179	-0.553684	-0.274462
C110	C	-1.049966	-0.640890	-0.275517
C111	C	-1.048914	-0.701113	-0.348909
C112	C	-0.977076	-0.674131	-0.421245
C113	C	-0.906284	-0.586922	-0.420193
C114	C	-0.907335	-0.526698	-0.346801
H115	H	-1.103149	-0.660867	-0.221967
H116	H	-1.101319	-0.765672	-0.349687
H117	H	-0.976297	-0.718713	-0.475574
H118	H	-0.853100	-0.566945	-0.473743
H119	H	-0.854930	-0.462140	-0.346023
H120	H	-0.403939	0.141661	-0.178699
C121	C	-0.982008	-0.389478	0.261022
C122	C	-0.908575	-0.452808	0.298125
C123	C	-0.907505	-0.513038	0.400366
C124	C	-0.979868	-0.509938	0.465502
C125	C	-1.053306	-0.446606	0.428400
C126	C	-1.054376	-0.386376	0.326160
H127	H	-0.855003	-0.455104	0.249906
H128	H	-0.853141	-0.559920	0.427831
H129	H	-0.979076	-0.554524	0.541187
H130	H	-1.106879	-0.444310	0.476619
H131	H	-1.108741	-0.339494	0.298695
C132	C	-0.986052	-0.159573	0.205966
C133	C	-0.915263	-0.072375	0.207031
C134	C	-0.916313	-0.012163	0.280431
C135	C	-0.988153	-0.039150	0.352767
C136	C	-1.058947	-0.126352	0.351704
C137	C	-1.057897	-0.186564	0.278304
H138	H	-0.862078	-0.052393	0.153482
H139	H	-0.863906	0.052390	0.281217
H140	H	-0.988930	0.005422	0.407102
H141	H	-1.112132	-0.146334	0.405254
H142	H	-1.110304	-0.251117	0.277518
H143	H	-0.977675	-0.637355	0.072894
H144	H	-0.979418	-0.538037	0.193961
