data_functionalizedCrystal
_audit_creation_method	'MofGen! by Chris Wilmer'
_symmetry_space_group_name_H-M	'P1'
_symmetry_Int_Tables_number	1
_symmetry_cell_setting	triclinic
loop_
_symmetry_equiv_pos_as_xyz
  x,y,z
_cell_length_a	10.654545
_cell_length_b	15.538191
_cell_length_c	9.730223
_cell_angle_alpha	89.998968
_cell_angle_beta	89.997167
_cell_angle_gamma	65.877586
loop_
_atom_site_label
_atom_site_type_symbol
_atom_site_fract_x
_atom_site_fract_y
_atom_site_fract_z
O1	O	1.606184	0.131896	-0.114262
O2	O	1.234827	0.144469	-0.114266
O3	O	1.492793	0.001524	-0.114270
O4	O	1.348218	0.274840	-0.114259
O5	O	1.492783	0.001520	0.114310
O6	O	1.234817	0.144465	0.114314
O7	O	1.606173	0.131892	0.114318
Zn8	Zn	1.420493	0.138178	0.150608
Zn9	Zn	1.420507	0.138183	-0.150556
O10	O	1.348207	0.274836	0.114321
C11	C	1.188455	0.143544	0.000023
C12	C	1.050301	0.140785	0.000021
C13	C	0.985398	0.139484	0.124620
C14	C	0.855598	0.136876	0.124620
C15	C	0.855613	0.136874	-0.124590
C16	C	0.985415	0.139475	-0.124589
C17	C	1.507914	-0.033475	0.000016
C18	C	1.552971	-0.137755	0.000003
C19	C	1.105346	-0.428464	0.000027
C20	C	1.147715	-0.526454	0.000030
C21	C	1.386031	-0.547342	0.000033
C22	C	1.343682	-0.449353	0.000022
C23	C	1.203338	-0.389921	0.000021
C24	C	1.441674	-0.410809	0.000016
C25	C	1.399328	-0.312828	0.000013
C26	C	1.258990	-0.253390	0.000016
C27	C	1.160992	-0.291940	0.000018
C28	C	1.582017	-0.470243	0.000028
C29	C	1.680009	-0.431700	0.000022
C30	C	1.637663	-0.333717	0.000009
C31	C	1.497325	-0.274279	0.000012
C32	C	1.735661	-0.295168	0.000007
C33	C	1.693315	-0.197186	0.000004
C34	C	1.454979	-0.176298	0.000008
C35	C	1.652546	0.132816	0.000026
C36	C	1.790699	0.135576	0.000019
C37	C	1.333086	0.309835	0.000033
C38	C	1.288030	0.414115	0.000037
N39	N	1.420493	0.138174	0.356144
N40	N	1.420521	0.138180	-0.356093
C41	C	1.534737	0.074905	0.428069
C42	C	1.534750	0.074905	0.571952
C43	C	1.306266	0.201451	0.571973
C44	C	1.306251	0.201446	0.428093
H45	H	1.340697	-0.127904	-0.000003
C46	C	1.660394	0.005311	0.348923
H47	H	1.644033	0.014374	0.252931
H48	H	1.675391	-0.057469	0.372508
H49	H	1.739284	0.016107	0.372492
H50	H	1.224514	-0.173608	0.000021
C51	C	1.180586	0.271050	0.348964
H52	H	1.196937	0.261978	0.252970
H53	H	1.165606	0.333829	0.372533
H54	H	1.101689	0.260266	0.372556
C55	C	1.056787	0.140897	0.261684
H56	H	0.999546	0.139735	0.335889
H57	H	1.072931	0.196579	0.266887
H58	H	1.141924	0.087226	0.266844
H59	H	1.067908	-0.557830	0.000055
H60	H	1.213254	0.252967	0.630568
H61	H	0.802760	0.135817	0.226082
H62	H	0.802766	0.135808	-0.226043
C63	C	1.056811	0.140910	-0.261655
H64	H	0.999570	0.139771	-0.335868
H65	H	1.141953	0.087253	-0.266834
H66	H	1.072937	0.196605	-0.266828
H67	H	1.627776	0.023385	0.630508
C68	C	1.006615	-0.226559	0.000004
H69	H	0.954313	-0.263544	0.000009
H70	H	0.985156	-0.187903	-0.079708
H71	H	0.985137	-0.187902	0.079724
H72	H	0.991064	-0.380071	0.000015
C73	C	1.540399	-0.612721	0.000027
H74	H	1.551587	-0.676596	0.000021
H75	H	1.582428	-0.600954	0.079731
H76	H	1.582415	-0.600956	-0.079701
H77	H	1.616491	-0.550025	0.000018
H78	H	1.794277	-0.480102	0.000028
H79	H	1.773110	-0.165804	0.000001
H80	H	1.849929	-0.343571	0.000022
