data_functionalizedCrystal
_audit_creation_method	'MofGen! by Chris Wilmer'
_symmetry_space_group_name_H-M	'P1'
_symmetry_Int_Tables_number	1
_symmetry_cell_setting	triclinic
loop_
_symmetry_equiv_pos_as_xyz
  x,y,z
_cell_length_a	10.654550
_cell_length_b	14.971494
_cell_length_c	9.130313
_cell_angle_alpha	89.997198
_cell_angle_beta	89.999724
_cell_angle_gamma	84.051244
loop_
_atom_site_label
_atom_site_type_symbol
_atom_site_fract_x
_atom_site_fract_y
_atom_site_fract_z
O1	O	1.666497	0.125631	-0.121684
O2	O	2.166497	0.625631	0.378316
O3	O	1.300891	0.137600	-0.121710
O4	O	1.800891	0.637600	0.378290
O5	O	1.493488	0.001469	-0.121693
O6	O	1.993488	0.501469	0.378307
O7	O	1.473900	0.261762	-0.121701
O8	O	1.973900	0.761762	0.378299
O9	O	1.493474	0.001465	0.121906
O10	O	1.993474	0.501465	0.621906
O11	O	1.300877	0.137596	0.121889
O12	O	1.800877	0.637596	0.621889
O13	O	1.666484	0.125627	0.121915
O14	O	2.166484	0.625627	0.621915
Cu15	Cu	1.483679	0.131611	0.144144
Cu16	Cu	1.983679	0.631611	0.644144
Cu17	Cu	1.483695	0.131616	-0.143940
Cu18	Cu	1.983695	0.631616	0.356060
O19	O	1.473887	0.261758	0.121898
O20	O	1.973887	0.761758	0.621898
C21	C	1.254095	0.136719	0.000086
C22	C	1.754095	0.636719	0.500086
C23	C	1.114680	0.134090	0.000076
C24	C	1.614680	0.634090	0.500076
C25	C	1.034338	0.214241	0.000077
C26	C	1.534338	0.714241	0.500077
C27	C	0.903344	0.211765	0.000103
C28	C	1.403344	0.711765	0.500103
C29	C	0.933047	0.048979	0.000119
C30	C	1.433047	0.548979	0.500119
C31	C	1.064038	0.051456	0.000104
C32	C	1.564038	0.551456	0.500104
C33	C	1.492603	-0.031862	0.000104
C34	C	1.992603	0.468138	0.500104
C35	C	1.489972	-0.131173	0.000097
C36	C	1.989972	0.368827	0.500097
C37	C	1.488747	-0.177823	-0.132691
C38	C	1.988747	0.322177	0.367309
C39	C	1.486267	-0.271135	-0.132693
C40	C	1.986267	0.228865	0.367307
C41	C	1.485022	-0.317798	0.000095
C42	C	1.985022	0.182202	0.500095
C43	C	1.486244	-0.271141	0.132892
C44	C	1.986244	0.228859	0.632892
C45	C	1.488715	-0.177830	0.132893
C46	C	1.988715	0.322170	0.632893
C47	C	1.481097	-0.465633	0.132882
C48	C	1.981097	0.034367	0.632882
C49	C	1.478628	-0.558951	0.132882
C50	C	1.978628	-0.058951	0.632882
C51	C	1.478649	-0.558938	-0.132703
C52	C	1.978649	-0.058938	0.367297
C53	C	1.481120	-0.465626	-0.132703
C54	C	1.981120	0.034374	0.367297
C55	C	1.482344	-0.418977	0.000096
C56	C	1.982344	0.081023	0.500096
C57	C	1.713279	0.126507	0.000116
C58	C	2.213279	0.626507	0.500116
C59	C	1.852694	0.129137	0.000116
C60	C	2.352694	0.629137	0.500116
C61	C	1.474771	0.295089	0.000097
C62	C	1.974771	0.795089	0.500097
C63	C	1.477402	0.394400	0.000095
C64	C	1.977402	0.894400	0.500095
N65	N	1.483678	0.131607	0.346767
N66	N	1.983678	0.631607	0.846767
N67	N	1.483707	0.131612	-0.346562
N68	N	1.983707	0.631612	0.153438
C69	C	1.568988	0.071354	0.423426
C70	C	2.068988	0.571354	0.923426
C71	C	1.569000	0.071354	0.576763
C72	C	2.069000	0.571354	1.076763
C73	C	1.398387	0.191868	0.576768
C74	C	1.898387	0.691868	1.076768
C75	C	1.398370	0.191863	0.423434
C76	C	1.898370	0.691863	0.923434
H77	H	1.489767	-0.139837	-0.240821
H78	H	1.989767	0.360163	0.259179
O79	O	1.150703	-0.034999	0.000115
O80	O	1.650703	0.465001	0.500115
H81	H	1.211099	-0.037765	-0.099167
H82	H	1.711099	0.462235	0.400833
H83	H	1.485274	-0.309113	-0.240821
H84	H	1.985274	0.190887	0.259179
O85	O	1.490051	-0.127509	0.276112
O86	O	1.990051	0.372491	0.776112
H87	H	1.488785	-0.175632	0.368448
H88	H	1.988785	0.324368	0.868448
H89	H	1.638449	0.022288	0.361008
H90	H	2.138449	0.522288	0.861008
O91	O	0.816689	0.298216	0.000114
O92	O	1.316689	0.798216	0.500114
H93	H	0.756276	0.300980	-0.099155
H94	H	1.256276	0.800980	0.400845
H95	H	1.482066	-0.427651	0.241021
H96	H	1.982066	0.072349	0.741021
H97	H	1.328933	0.240929	0.639205
H98	H	1.828933	0.740929	1.139205
H99	H	1.328894	0.240929	0.361013
H100	H	1.828894	0.740929	0.861013
H101	H	1.075566	0.281527	0.000065
H102	H	1.575566	0.781527	0.500065
H103	H	1.482143	-0.427637	-0.240830
H104	H	1.982143	0.072363	0.259170
H105	H	1.477649	-0.596924	-0.240832
H106	H	1.977649	-0.096924	0.259168
O107	O	1.484908	-0.321477	0.276107
O108	O	1.984908	0.178523	0.776107
H109	H	1.399845	-0.296142	0.339777
H110	H	1.899845	0.203858	0.839777
O111	O	0.878428	-0.040146	0.000139
O112	O	1.378428	0.459854	0.500139
H113	H	0.773843	-0.028404	0.000136
H114	H	1.273843	0.471596	0.500136
O115	O	1.477265	-0.609284	0.276097
O116	O	1.977265	-0.109284	0.776097
H117	H	1.478509	-0.561169	0.368441
H118	H	1.978509	-0.061169	0.868441
O119	O	1.661028	0.006379	0.659452
O120	O	2.161028	0.506379	1.159452
H121	H	1.720351	-0.035512	0.580375
H122	H	2.220351	0.464488	1.080375
