data_functionalizedCrystal
_audit_creation_method	'MofGen! by Chris Wilmer'
_symmetry_space_group_name_H-M	'P1'
_symmetry_Int_Tables_number	1
_symmetry_cell_setting	triclinic
loop_
_symmetry_equiv_pos_as_xyz
  x,y,z
_cell_length_a	16.992694
_cell_length_b	8.559649
_cell_length_c	16.053802
_cell_angle_alpha	92.204030
_cell_angle_beta	87.249047
_cell_angle_gamma	80.223444
loop_
_atom_site_label
_atom_site_type_symbol
_atom_site_fract_x
_atom_site_fract_y
_atom_site_fract_z
O1	O	1.023824	0.329978	-0.069320
O2	O	0.795762	0.326287	-0.069345
O3	O	0.929885	0.098096	-0.069329
O4	O	0.889700	0.558168	-0.069335
O5	O	0.922506	0.110601	0.069529
O6	O	0.788383	0.338792	0.069513
O7	O	1.016444	0.342483	0.069538
Zn8	Zn	0.901242	0.342623	0.091572
Zn9	Zn	0.910964	0.326147	-0.091379
O10	O	0.882321	0.570673	0.069523
C11	C	0.763145	0.327794	0.000081
C12	C	0.676954	0.313635	0.000072
C13	C	0.618488	0.450242	0.000071
C14	C	0.537502	0.436931	0.000082
C15	C	0.514985	0.287010	0.000089
C16	C	0.573459	0.150392	0.000093
C17	C	0.654442	0.163706	0.000087
C18	C	0.274709	0.231830	0.000112
C19	C	0.193719	0.218527	0.000115
C20	C	0.157768	0.505067	0.000106
C21	C	0.238755	0.518367	0.000096
C22	C	0.297221	0.381749	0.000104
N23	N	0.432206	0.273399	0.000099
N24	N	0.379998	0.395362	0.000100
C25	C	0.929241	0.045208	0.000098
C26	C	0.938306	-0.131015	0.000095
C27	C	1.049061	0.340975	0.000110
C28	C	1.135252	0.355134	0.000114
C29	C	0.882965	0.623562	0.000093
C30	C	0.873901	0.799784	0.000091
N31	N	0.894612	0.353867	0.216432
N32	N	0.917601	0.314891	-0.216239
C33	C	0.951698	0.256811	0.260132
C34	C	0.947067	0.264692	0.347539
C35	C	0.885353	0.369639	0.391243
C36	C	0.828261	0.466699	0.347536
C37	C	0.832890	0.458808	0.260132
C38	C	0.865138	0.404060	0.652650
C39	C	0.860515	0.411947	0.740061
C40	C	0.979321	0.209937	0.740057
C41	C	0.983946	0.202063	0.652651
C42	C	0.926852	0.299117	0.608952
N43	N	0.880619	0.377701	0.480586
N44	N	0.931583	0.291046	0.519610
H45	H	0.175391	0.096437	0.000120
H46	H	0.555119	0.028324	0.000110
H47	H	0.993551	0.185660	0.383119
O48	O	0.793941	0.525124	0.787205
H49	H	0.755010	0.591272	0.742135
H50	H	0.702047	0.052465	0.000088
H51	H	1.025803	0.130918	0.775645
H52	H	0.811826	-0.124646	0.000087
O53	O	0.094709	0.652413	0.000104
H54	H	0.098642	0.728764	0.056696
O55	O	1.018251	0.143578	0.213002
H56	H	1.011880	0.154390	0.144881
O57	O	1.020541	-0.231105	0.000109
H58	H	1.014999	-0.358455	0.000110
H59	H	1.034199	0.116607	0.617069
O60	O	0.771307	0.563488	0.213005
H61	H	0.739619	0.488253	0.173208
O62	O	0.803564	0.508746	0.605523
H63	H	0.805152	0.635148	0.622285
O64	O	0.642773	0.611944	0.000071
H65	H	0.588508	0.704699	0.000084
O66	O	0.474439	0.584269	0.000081
H67	H	0.503702	0.690754	0.000066
H68	H	0.257081	0.640447	0.000080
O69	O	0.761698	0.579903	0.394668
H70	H	0.768074	0.569101	0.462788
H71	H	0.322304	0.120586	0.000119
