data_functionalizedCrystal
_audit_creation_method	'MofGen! by Chris Wilmer'
_symmetry_space_group_name_H-M	'P1'
_symmetry_Int_Tables_number	1
_symmetry_cell_setting	triclinic
loop_
_symmetry_equiv_pos_as_xyz
  x,y,z
_cell_length_a	29.839134
_cell_length_b	25.639239
_cell_length_c	25.639233
_cell_angle_alpha	90.018747
_cell_angle_beta	89.976874
_cell_angle_gamma	89.966453
loop_
_atom_site_label
_atom_site_type_symbol
_atom_site_fract_x
_atom_site_fract_y
_atom_site_fract_z
Zn1	Zn	0.686733	0.208286	-0.295756
Zn2	Zn	0.936733	0.458286	-0.045756
Zn3	Zn	1.186733	0.708286	0.204244
Zn4	Zn	1.436733	0.958286	0.454244
Zn5	Zn	0.686667	0.295705	-0.208320
Zn6	Zn	0.936667	0.545705	0.041680
Zn7	Zn	1.186667	0.795705	0.291680
Zn8	Zn	1.436667	1.045705	0.541680
Zn9	Zn	0.611615	0.208277	-0.208318
Zn10	Zn	0.861615	0.458277	0.041682
Zn11	Zn	1.111615	0.708277	0.291682
Zn12	Zn	1.361615	0.958277	0.541682
Zn13	Zn	0.611567	0.295684	-0.295708
Zn14	Zn	0.861567	0.545684	-0.045708
Zn15	Zn	1.111567	0.795684	0.204292
Zn16	Zn	1.361567	1.045684	0.454292
O17	O	0.649146	0.251988	-0.252026
O18	O	0.899146	0.501988	-0.002026
O19	O	1.149146	0.751988	0.247974
O20	O	1.399146	1.001988	0.497974
O21	O	0.749592	0.219895	-0.284178
O22	O	0.999592	0.469895	-0.034178
O23	O	1.249592	0.719895	0.215822
O24	O	1.499592	0.969895	0.465822
O25	O	0.676704	0.284112	-0.135155
O26	O	0.926704	0.534112	0.114845
O27	O	1.176704	0.784112	0.364845
O28	O	1.426704	1.034112	0.614845
O29	O	0.621626	0.135113	-0.219936
O30	O	0.871626	0.385113	0.030064
O31	O	1.121626	0.635113	0.280064
O32	O	1.371626	0.885113	0.530064
O33	O	0.749543	0.284121	-0.219939
O34	O	0.999543	0.534121	0.030061
O35	O	1.249543	0.784121	0.280061
O36	O	1.499543	1.034121	0.530061
O37	O	0.676816	0.135120	-0.284176
O38	O	0.926816	0.385120	-0.034176
O39	O	1.176816	0.635120	0.215824
O40	O	1.426816	0.885120	0.465824
O41	O	0.621563	0.219880	-0.135153
O42	O	0.871563	0.469880	0.114847
O43	O	1.121563	0.719880	0.364847
O44	O	1.371563	0.969880	0.614847
O45	O	0.548741	0.219860	-0.219890
O46	O	0.798741	0.469860	0.030110
O47	O	1.048741	0.719860	0.280110
O48	O	1.298741	0.969860	0.530110
O49	O	0.621546	0.284086	-0.368880
O50	O	0.871546	0.534086	-0.118880
O51	O	1.121546	0.784086	0.131120
O52	O	1.371546	1.034086	0.381120
O53	O	0.548706	0.284078	-0.284095
O54	O	0.798706	0.534078	-0.034095
O55	O	1.048706	0.784078	0.215905
O56	O	1.298706	1.034078	0.465905
O57	O	0.676770	0.219875	-0.368915
O58	O	0.926770	0.469875	-0.118915
O59	O	1.176770	0.719875	0.131085
O60	O	1.426770	0.969875	0.381085
O61	O	0.676658	0.368867	-0.219893
O62	O	0.926658	0.618867	0.030107
O63	O	1.176658	0.868867	0.280107
O64	O	1.426658	1.118867	0.530107
O65	O	0.621482	0.368852	-0.284097
O66	O	0.871482	0.618852	-0.034097
O67	O	1.121482	0.868852	0.215903
O68	O	1.371482	1.118852	0.465903
C69	C	0.532423	0.251966	-0.251988
C70	C	0.782423	0.501966	-0.001988
C71	C	1.032423	0.751966	0.248012
C72	C	1.282423	1.001966	0.498012
C73	C	0.482489	0.251969	-0.251984
C74	C	0.732489	0.501969	-0.001984
C75	C	0.982489	0.751969	0.248016
C76	C	1.232489	1.001969	0.498016
C77	C	0.649070	0.387831	-0.252002
C78	C	0.899070	0.637831	-0.002002
C79	C	1.149070	0.887831	0.247998
C80	C	1.399070	1.137831	0.497998
C81	C	0.649079	0.445945	-0.252009
C82	C	0.899079	0.695945	-0.002009
C83	C	1.149079	0.945945	0.247991
C84	C	1.399079	1.195945	0.497991
C85	C	0.649160	0.251979	-0.388399
C86	C	0.899160	0.501979	-0.138399
C87	C	1.149160	0.751979	0.111601
C88	C	1.399160	1.001979	0.361601
C89	C	0.649166	0.251975	-0.446513
C90	C	0.899166	0.501975	-0.196513
C91	C	1.149166	0.751975	0.053487
C92	C	1.399166	1.001975	0.303487
C93	C	0.172837	0.285476	-0.285416
C94	C	0.422837	0.535476	-0.035416
C95	C	0.672837	0.785476	0.214584
C96	C	0.922837	1.035476	0.464584
C97	C	-0.014836	0.285490	-0.285439
C98	C	0.235164	0.535490	-0.035439
C99	C	0.485164	0.785490	0.214561
C100	C	0.735164	1.035490	0.464561
O101	O	-0.039108	0.313954	-0.313842
O102	O	0.210892	0.563954	-0.063842
O103	O	0.460892	0.813954	0.186158
O104	O	0.710892	1.063954	0.436158
N105	N	-0.038296	0.252007	-0.252065
N106	N	0.211704	0.502007	-0.002065
N107	N	0.461704	0.752007	0.247935
N108	N	0.711704	1.002007	0.497935
C109	C	-0.014835	0.218516	-0.218685
C110	C	0.235165	0.468516	0.031315
C111	C	0.485165	0.718516	0.281315
C112	C	0.735165	0.968516	0.531315
O113	O	-0.039096	0.190033	-0.190302
O114	O	0.210904	0.440033	0.059698
O115	O	0.460904	0.690033	0.309698
O116	O	0.710904	0.940033	0.559698
C117	C	0.172837	0.218499	-0.218664
C118	C	0.422837	0.468499	0.031336
C119	C	0.672837	0.718499	0.281336
C120	C	0.922837	0.968499	0.531336
C121	C	0.196294	0.251988	-0.252037
C122	C	0.446294	0.501988	-0.002037
C123	C	0.696294	0.751988	0.247963
C124	C	0.946294	1.001988	0.497963
C125	C	0.196294	0.318962	-0.318787
C126	C	0.446294	0.568962	-0.068787
C127	C	0.696294	0.818962	0.181213
C128	C	0.946294	1.068962	0.431213
C129	C	0.243210	0.318960	-0.318779
C130	C	0.493210	0.568960	-0.068779
C131	C	0.743210	0.818960	0.181221
C132	C	0.993210	1.068960	0.431221
C133	C	0.266668	0.285472	-0.285400
C134	C	0.516668	0.535472	-0.035400
C135	C	0.766668	0.785472	0.214600
C136	C	1.016668	1.035472	0.464600
C137	C	0.243210	0.251986	-0.252029
C138	C	0.493210	0.501986	-0.002029
C139	C	0.743210	0.751986	0.247971
C140	C	0.993210	1.001986	0.497971
C141	C	0.196297	0.185005	-0.185287
C142	C	0.446297	0.435005	0.064713
C143	C	0.696297	0.685005	0.314713
C144	C	0.946297	0.935005	0.564713
C145	C	0.243218	0.185003	-0.185286
C146	C	0.493218	0.435003	0.064714
C147	C	0.743218	0.685003	0.314714
C148	C	0.993218	0.935003	0.564714
C149	C	0.266676	0.218492	-0.218659
C150	C	0.516676	0.468492	0.031341
C151	C	0.766676	0.718492	0.281341
C152	C	1.016676	0.968492	0.531341
C153	C	0.313583	0.218496	-0.218642
C154	C	0.563583	0.468496	0.031358
C155	C	0.813583	0.718496	0.281358
C156	C	1.063583	0.968496	0.531358
N157	N	0.337043	0.251979	-0.252017
N158	N	0.587043	0.501979	-0.002017
N159	N	0.837043	0.751979	0.247983
N160	N	1.087043	1.001979	0.497983
C161	C	0.313585	0.285467	-0.285396
C162	C	0.563585	0.535467	-0.035396
C163	C	0.813585	0.785467	0.214604
C164	C	1.063585	1.035467	0.464604
C165	C	-0.113366	0.218528	-0.218697
C166	C	0.136634	0.468528	0.031303
C167	C	0.386634	0.718528	0.281303
C168	C	0.636634	0.968528	0.531303
C169	C	-0.160284	0.218533	-0.218701
C170	C	0.089716	0.468533	0.031299
C171	C	0.339716	0.718533	0.281299
C172	C	0.589716	0.968533	0.531299
C173	C	-0.160282	0.285507	-0.285457
C174	C	0.089718	0.535507	-0.035457
C175	C	0.339718	0.785507	0.214543
C176	C	0.589718	1.035507	0.464543
C177	C	-0.113363	0.285504	-0.285450
C178	C	0.136637	0.535504	-0.035450
C179	C	0.386637	0.785504	0.214550
C180	C	0.636637	1.035504	0.464550
C181	C	-0.089906	0.252011	-0.252071
C182	C	0.160094	0.502011	-0.002071
C183	C	0.410094	0.752011	0.247929
C184	C	0.660094	1.002011	0.497929
C185	C	0.412111	0.285460	-0.285376
C186	C	0.662111	0.535460	-0.035376
C187	C	0.912111	0.785460	0.214624
C188	C	1.162111	1.035460	0.464624
C189	C	0.459031	0.285457	-0.285363
C190	C	0.709031	0.535457	-0.035363
C191	C	0.959031	0.785457	0.214637
C192	C	1.209031	1.035457	0.464637
C193	C	0.459025	0.218481	-0.218609
C194	C	0.709025	0.468481	0.031391
C195	C	0.959025	0.718481	0.281391
C196	C	1.209025	0.968481	0.531391
C197	C	0.412109	0.218486	-0.218620
C198	C	0.662109	0.468486	0.031380
C199	C	0.912109	0.718486	0.281380
C200	C	1.162109	0.968486	0.531380
C201	C	0.388654	0.251978	-0.252007
C202	C	0.638654	0.501978	-0.002007
C203	C	0.888654	0.751978	0.247993
C204	C	1.138654	1.001978	0.497993
O205	O	0.337884	0.190043	-0.190258
O206	O	0.587884	0.440043	0.059742
O207	O	0.837884	0.690043	0.309742
O208	O	1.087884	0.940043	0.559742
O209	O	0.337854	0.313937	-0.313782
O210	O	0.587854	0.563937	-0.063782
O211	O	0.837854	0.813937	0.186218
O212	O	1.087854	1.063937	0.436218
C213	C	0.125921	0.285478	-0.285424
C214	C	0.375921	0.535478	-0.035424
C215	C	0.625921	0.785478	0.214576
C216	C	0.875921	1.035478	0.464576
C217	C	0.102464	0.251992	-0.252054
C218	C	0.352464	0.501992	-0.002054
C219	C	0.602464	0.751992	0.247946
C220	C	0.852464	1.001992	0.497946
C221	C	0.125921	0.218504	-0.218675
C222	C	0.375921	0.468504	0.031325
C223	C	0.625921	0.718504	0.281325
C224	C	0.875921	0.968504	0.531325
C225	C	0.055546	0.251997	-0.252058
C226	C	0.305546	0.501997	-0.002058
C227	C	0.555546	0.751997	0.247942
C228	C	0.805546	1.001997	0.497942
C229	C	0.032088	0.285485	-0.285437
C230	C	0.282088	0.535485	-0.035437
C231	C	0.532088	0.785485	0.214563
C232	C	0.782088	1.035485	0.464563
C233	C	0.055548	0.318968	-0.318811
C234	C	0.305548	0.568968	-0.068811
C235	C	0.555548	0.818968	0.181189
C236	C	0.805548	1.068968	0.431189
C237	C	0.102463	0.318966	-0.318803
C238	C	0.352463	0.568966	-0.068803
C239	C	0.602463	0.818966	0.181197
C240	C	0.852463	1.068966	0.431197
C241	C	0.102461	0.185021	-0.185300
C242	C	0.352461	0.435021	0.064700
C243	C	0.602461	0.685021	0.314700
C244	C	0.852461	0.935021	0.564700
C245	C	0.055546	0.185026	-0.185311
C246	C	0.305546	0.435026	0.064689
C247	C	0.555546	0.685026	0.314689
C248	C	0.805546	0.935026	0.564689
C249	C	0.032088	0.218514	-0.218690
C250	C	0.282088	0.468514	0.031310
C251	C	0.532088	0.718514	0.281310
C252	C	0.782088	0.968514	0.531310
C253	C	0.766324	0.252011	-0.252064
C254	C	1.016324	0.502011	-0.002064
C255	C	1.266324	0.752011	0.247936
C256	C	1.516324	1.002011	0.497936
C257	C	0.816258	0.252021	-0.252080
C258	C	1.066258	0.502021	-0.002080
C259	C	1.316258	0.752021	0.247920
C260	C	1.566258	1.002021	0.497920
C261	C	0.649234	0.115615	-0.252061
C262	C	0.899234	0.365615	-0.002061
C263	C	1.149234	0.615615	0.247939
C264	C	1.399234	0.865615	0.497939
C265	C	0.649271	0.057501	-0.252076
C266	C	0.899271	0.307501	-0.002076
C267	C	1.149271	0.557501	0.247924
C268	C	1.399271	0.807501	0.497924
C269	C	0.677951	0.806303	-0.218652
C270	C	0.927951	1.056303	0.031348
C271	C	1.177951	1.306303	0.281348
C272	C	1.427951	1.556303	0.531348
C273	C	0.677968	0.860907	-0.218659
C274	C	0.927968	1.110907	0.031341
C275	C	1.177968	1.360907	0.281341
C276	C	1.427968	1.610907	0.531341
O277	O	0.702437	0.889140	-0.190271
O278	O	0.952437	1.139140	0.059729
O279	O	1.202437	1.389140	0.309729
O280	O	1.452437	1.639140	0.559729
N281	N	0.649225	0.888227	-0.252060
N282	N	0.899225	1.138227	-0.002060
N283	N	1.149225	1.388227	0.247940
N284	N	1.399225	1.638227	0.497940
C285	C	0.620465	0.860940	-0.285461
C286	C	0.870465	1.110940	-0.035461
C287	C	1.120465	1.360940	0.214539
C288	C	1.370465	1.610940	0.464539
O289	O	0.596018	0.889192	-0.313872
O290	O	0.846018	1.139192	-0.063872
O291	O	1.096018	1.389192	0.186128
O292	O	1.346018	1.639192	0.436128
C293	C	0.620450	0.806337	-0.285456
C294	C	0.870450	1.056337	-0.035456
C295	C	1.120450	1.306337	0.214544
C296	C	1.370450	1.556337	0.464544
C297	C	0.649192	0.779020	-0.252048
C298	C	0.899192	1.029020	-0.002048
C299	C	1.149192	1.279020	0.247952
C300	C	1.399192	1.529020	0.497952
C301	C	0.706691	0.778986	-0.185247
C302	C	0.956691	1.028986	0.064753
C303	C	1.206691	1.278986	0.314753
C304	C	1.456691	1.528986	0.564753
C305	C	0.706673	0.724385	-0.185240
C306	C	0.956673	0.974385	0.064760
C307	C	1.206673	1.224385	0.314760
C308	C	1.456673	1.474385	0.564760
C309	C	0.677914	0.697102	-0.218636
C310	C	0.927914	0.947102	0.031364
C311	C	1.177914	1.197102	0.281364
C312	C	1.427914	1.447102	0.531364
C313	C	0.649174	0.724419	-0.252041
C314	C	0.899174	0.974419	-0.002041
C315	C	1.149174	1.224419	0.247959
C316	C	1.399174	1.474419	0.497959
C317	C	0.591693	0.779050	-0.318859
C318	C	0.841693	1.029050	-0.068859
C319	C	1.091693	1.279050	0.181141
C320	C	1.341693	1.529050	0.431141
C321	C	0.591681	0.724443	-0.318852
C322	C	0.841681	0.974443	-0.068852
C323	C	1.091681	1.224443	0.181148
C324	C	1.341681	1.474443	0.431148
C325	C	0.620423	0.697126	-0.285444
C326	C	0.870423	0.947126	-0.035444
C327	C	1.120423	1.197126	0.214556
C328	C	1.370423	1.447126	0.464556
C329	C	0.620398	0.642535	-0.285430
C330	C	0.870398	0.892535	-0.035430
C331	C	1.120398	1.142535	0.214570
C332	C	1.370398	1.392535	0.464570
N333	N	0.649141	0.615215	-0.252029
N334	N	0.899141	0.865215	-0.002029
N335	N	1.149141	1.115215	0.247971
N336	N	1.399141	1.365215	0.497971
C337	C	0.677900	0.642499	-0.218632
C338	C	0.927900	0.892499	0.031368
C339	C	1.177900	1.142499	0.281368
C340	C	1.427900	1.392499	0.531368
C341	C	0.620499	0.975611	-0.285469
C342	C	0.870499	1.225611	-0.035469
C343	C	1.120499	1.475611	0.214531
C344	C	1.370499	1.725611	0.464531
C345	C	0.620511	1.030213	-0.285471
C346	C	0.870511	1.280213	-0.035471
C347	C	1.120511	1.530213	0.214529
C348	C	1.370511	1.780213	0.464529
C349	C	0.678015	1.030177	-0.218670
C350	C	0.928015	1.280177	0.031330
C351	C	1.178015	1.530177	0.281330
C352	C	1.428015	1.780177	0.531330
C353	C	0.678000	0.975573	-0.218665
C354	C	0.928000	1.225573	0.031335
C355	C	1.178000	1.475573	0.281335
C356	C	1.428000	1.725573	0.531335
C357	C	0.649242	0.948291	-0.252067
C358	C	0.899242	1.198291	-0.002067
C359	C	1.149242	1.448291	0.247933
C360	C	1.399242	1.698291	0.497933
C361	C	0.677859	0.527834	-0.218618
C362	C	0.927859	0.777834	0.031382
C363	C	1.177859	1.027834	0.281382
C364	C	1.427859	1.277834	0.531382
C365	C	0.677837	0.473228	-0.218612
C366	C	0.927837	0.723228	0.031388
C367	C	1.177837	0.973228	0.281388
C368	C	1.427837	1.223228	0.531388
C369	C	0.620335	0.473269	-0.285415
C370	C	0.870335	0.723269	-0.035415
C371	C	1.120335	0.973269	0.214585
C372	C	1.370335	1.223269	0.464585
C373	C	0.620355	0.527870	-0.285420
C374	C	0.870355	0.777870	-0.035420
C375	C	1.120355	1.027870	0.214580
C376	C	1.370355	1.277870	0.464580
C377	C	0.649121	0.555151	-0.252019
C378	C	0.899121	0.805151	-0.002019
C379	C	1.149121	1.055151	0.247981
C380	C	1.399121	1.305151	0.497981
O381	O	0.595942	0.614268	-0.313805
O382	O	0.845942	0.864268	-0.063805
O383	O	1.095942	1.114268	0.186195
O384	O	1.345942	1.364268	0.436195
O385	O	0.702346	0.614240	-0.190230
O386	O	0.952346	0.864240	0.059770
O387	O	1.202346	1.114240	0.309770
O388	O	1.452346	1.364240	0.559770
C389	C	0.677958	0.218441	-0.806900
C390	C	0.927958	0.468441	-0.556900
C391	C	1.177958	0.718441	-0.306900
C392	C	1.427958	0.968441	-0.056900
C393	C	0.677963	0.218427	-0.861504
C394	C	0.927963	0.468427	-0.611504
C395	C	1.177963	0.718427	-0.361504
C396	C	1.427963	0.968427	-0.111504
O397	O	0.702407	0.189976	-0.889761
O398	O	0.952407	0.439976	-0.639761
O399	O	1.202407	0.689976	-0.389761
O400	O	1.452407	0.939976	-0.139761
N401	N	0.649216	0.251853	-0.888795
N402	N	0.899216	0.501853	-0.638795
N403	N	1.149216	0.751853	-0.388795
N404	N	1.399216	1.001853	-0.138795
C405	C	0.620458	0.285291	-0.861480
C406	C	0.870458	0.535291	-0.611480
C407	C	1.120458	0.785291	-0.361480
C408	C	1.370458	1.035291	-0.111480
O409	O	0.596006	0.313721	-0.889707
O410	O	0.846006	0.563721	-0.639707
O411	O	1.096006	0.813721	-0.389707
O412	O	1.346006	1.063721	-0.139707
C413	C	0.620450	0.285303	-0.806876
C414	C	0.870450	0.535303	-0.556876
C415	C	1.120450	0.785303	-0.306876
C416	C	1.370450	1.035303	-0.056876
C417	C	0.649203	0.251878	-0.779588
C418	C	0.899203	0.501878	-0.529588
C419	C	1.149203	0.751878	-0.279588
C420	C	1.399203	1.001878	-0.029588
C421	C	0.706708	0.185019	-0.779611
C422	C	0.956708	0.435019	-0.529611
C423	C	1.206708	0.685019	-0.279611
C424	C	1.456708	0.935019	-0.029611
C425	C	0.706703	0.185034	-0.725010
C426	C	0.956703	0.435034	-0.475010
C427	C	1.206703	0.685034	-0.225010
C428	C	1.456703	0.935034	0.024990
C429	C	0.677948	0.218472	-0.697698
C430	C	0.927948	0.468472	-0.447698
C431	C	1.177948	0.718472	-0.197698
C432	C	1.427948	0.968472	0.052302
C433	C	0.649198	0.251894	-0.724987
C434	C	0.899198	0.501894	-0.474987
C435	C	1.149198	0.751894	-0.224987
C436	C	1.399198	1.001894	0.025013
C437	C	0.591690	0.318739	-0.779562
C438	C	0.841690	0.568739	-0.529562
C439	C	1.091690	0.818739	-0.279562
C440	C	1.341690	1.068739	-0.029562
C441	C	0.591685	0.318747	-0.724954
C442	C	0.841685	0.568747	-0.474954
C443	C	1.091685	0.818747	-0.224954
C444	C	1.341685	1.068747	0.025046
C445	C	0.620437	0.285323	-0.697666
C446	C	0.870437	0.535323	-0.447666
C447	C	1.120437	0.785323	-0.197666
C448	C	1.370437	1.035323	0.052334
C449	C	0.620438	0.285346	-0.643075
C450	C	0.870438	0.535346	-0.393075
C451	C	1.120438	0.785346	-0.143075
C452	C	1.370438	1.035346	0.106925
N453	N	0.649185	0.251920	-0.615783
N454	N	0.899185	0.501920	-0.365783
N455	N	1.149185	0.751920	-0.115783
N456	N	1.399185	1.001920	0.134217
C457	C	0.677940	0.218483	-0.643095
C458	C	0.927940	0.468483	-0.393095
C459	C	1.177940	0.718483	-0.143095
C460	C	1.427940	0.968483	0.106905
C461	C	0.620475	0.285264	-0.976150
C462	C	0.870475	0.535264	-0.726150
C463	C	1.120475	0.785264	-0.476150
C464	C	1.370475	1.035264	-0.226150
C465	C	0.620484	0.285256	-1.030753
C466	C	0.870484	0.535256	-0.780753
C467	C	1.120484	0.785256	-0.530753
C468	C	1.370484	1.035256	-0.280753
C469	C	0.677990	0.218390	-1.030773
C470	C	0.927990	0.468390	-0.780773
C471	C	1.177990	0.718390	-0.530773
C472	C	1.427990	0.968390	-0.280773
C473	C	0.677982	0.218402	-0.976170
C474	C	0.927982	0.468402	-0.726170
C475	C	1.177982	0.718402	-0.476170
C476	C	1.427982	0.968402	-0.226170
C477	C	0.649223	0.251838	-0.948859
C478	C	0.899223	0.501838	-0.698859
C479	C	1.149223	0.751838	-0.448859
C480	C	1.399223	1.001838	-0.198859
C481	C	0.677928	0.218518	-0.528430
C482	C	0.927928	0.468518	-0.278430
C483	C	1.177928	0.718518	-0.028430
C484	C	1.427928	0.968518	0.221570
C485	C	0.677921	0.218538	-0.473825
C486	C	0.927921	0.468538	-0.223825
C487	C	1.177921	0.718538	0.026175
C488	C	1.427921	0.968538	0.276175
C489	C	0.620415	0.285401	-0.473809
C490	C	0.870415	0.535401	-0.223809
C491	C	1.120415	0.785401	0.026191
C492	C	1.370415	1.035401	0.276191
C493	C	0.620422	0.285384	-0.528409
C494	C	0.870422	0.535384	-0.278409
C495	C	1.120422	0.785384	-0.028409
C496	C	1.370422	1.035384	0.221591
C497	C	0.649180	0.251938	-0.555719
C498	C	0.899180	0.501938	-0.305719
C499	C	1.149180	0.751938	-0.055719
C500	C	1.399180	1.001938	0.194281
O501	O	0.596005	0.313781	-0.614783
O502	O	0.846005	0.563781	-0.364783
O503	O	1.096005	0.813781	-0.114783
O504	O	1.346005	1.063781	0.135217
O505	O	0.702384	0.190053	-0.614861
O506	O	0.952384	0.440053	-0.364861
O507	O	1.202384	0.690053	-0.114861
O508	O	1.452384	0.940053	0.135139
C509	C	0.649157	0.251960	-0.116183
C510	C	0.899157	0.501960	0.133817
C511	C	1.149157	0.751960	0.383817
C512	C	1.399157	1.001960	0.633817
C513	C	0.649238	0.251816	-0.058069
C514	C	0.899238	0.501816	0.191931
C515	C	1.149238	0.751816	0.441931
C516	C	1.399238	1.001816	0.691931
H517	H	0.393019	0.312731	-0.312564
H518	H	0.643019	0.562731	-0.062564
H519	H	0.893019	0.812731	0.187436
H520	H	1.143019	1.062731	0.437436
H521	H	0.262305	0.346229	-0.345956
H522	H	0.512305	0.596229	-0.095956
H523	H	0.762305	0.846229	0.154044
H524	H	1.012305	1.096229	0.404044
H525	H	0.568260	0.345970	-0.702721
H526	H	0.818260	0.595970	-0.452721
H527	H	1.068260	0.845970	-0.202721
H528	H	1.318260	1.095970	0.047279
H529	H	0.701337	0.191319	-0.451609
H530	H	0.951337	0.441319	-0.201609
H531	H	1.201337	0.691319	0.048391
H532	H	1.451337	0.941319	0.298391
H533	H	0.597102	1.052450	-0.312670
H534	H	0.847102	1.302450	-0.062670
H535	H	1.097102	1.552450	0.187330
H536	H	1.347102	1.802450	0.437330
H537	H	0.701242	0.450988	-0.191406
H538	H	0.951242	0.700988	0.058594
H539	H	1.201242	0.950988	0.308594
H540	H	1.451242	1.200988	0.558594
H541	H	-0.094267	0.312773	-0.312626
H542	H	0.155733	0.562773	-0.062626
H543	H	0.405733	0.812773	0.187374
H544	H	0.655733	1.062773	0.437374
O545	O	0.589457	0.321332	-0.946691
O546	O	0.839457	0.571332	-0.696691
O547	O	1.089457	0.821332	-0.446691
O548	O	1.339457	1.071332	-0.196691
H549	H	0.566611	0.297928	-0.921815
H550	H	0.816611	0.547928	-0.671815
H551	H	1.066611	0.797928	-0.421815
H552	H	1.316611	1.047928	-0.171815
H553	H	-0.094272	0.191253	-0.191514
H554	H	0.155728	0.441253	0.058486
H555	H	0.405728	0.691253	0.308486
H556	H	0.655728	0.941253	0.558486
O557	O	0.737714	0.808410	-0.149228
O558	O	0.987714	1.058410	0.100772
O559	O	1.237714	1.308410	0.350772
O560	O	1.487714	1.558410	0.600772
H561	H	0.717632	0.833323	-0.122604
H562	H	0.967632	1.083323	0.127396
H563	H	1.217632	1.333323	0.377396
H564	H	1.467632	1.583323	0.627396
H565	H	0.177206	0.157736	-0.158110
H566	H	0.427206	0.407736	0.091890
H567	H	0.677206	0.657736	0.341890
H568	H	0.927206	0.907736	0.591890
O569	O	0.560694	0.808506	-0.354893
O570	O	0.810694	1.058506	-0.104893
O571	O	1.060694	1.308506	0.145107
O572	O	1.310694	1.558506	0.395107
H573	H	0.568380	0.797997	-0.395934
H574	H	0.818380	1.047997	-0.145934
H575	H	1.068380	1.297997	0.104066
H576	H	1.318380	1.547997	0.354066
H577	H	0.701395	0.191183	-0.953955
H578	H	0.951395	0.441183	-0.703955
H579	H	1.201395	0.691183	-0.453955
H580	H	1.451395	0.941183	-0.203955
O581	O	0.737680	0.694930	-0.149212
O582	O	0.987680	0.944930	0.100788
O583	O	1.237680	1.194930	0.350788
O584	O	1.487680	1.444930	0.600788
H585	H	0.717588	0.670088	-0.122574
H586	H	0.967588	0.920088	0.127426
H587	H	1.217588	1.170088	0.377426
H588	H	1.467588	1.420088	0.627426
H589	H	0.393009	0.191218	-0.191444
H590	H	0.643009	0.441218	0.058556
H591	H	0.893009	0.691218	0.308556
H592	H	1.143009	0.941218	0.558556
H593	H	0.262314	0.157725	-0.158108
H594	H	0.512314	0.407725	0.091892
H595	H	0.762314	0.657725	0.341892
H596	H	1.012314	0.907725	0.591892
O597	O	0.709009	0.946111	-0.182644
O598	O	0.959009	1.196111	0.067356
O599	O	1.209009	1.446111	0.317356
O600	O	1.459009	1.696111	0.567356
H601	H	0.688918	0.921264	-0.156010
H602	H	0.938918	1.171264	0.093990
H603	H	1.188918	1.421264	0.343990
H604	H	1.438918	1.671264	0.593990
H605	H	0.701433	1.052401	-0.191478
H606	H	0.951433	1.302401	0.058522
H607	H	1.201433	1.552401	0.308522
H608	H	1.451433	1.802401	0.558522
O609	O	0.589476	0.946184	-0.321492
O610	O	0.839476	1.196184	-0.071492
O611	O	1.089476	1.446184	0.178508
O612	O	1.339476	1.696184	0.428508
H613	H	0.566629	0.921339	-0.298057
H614	H	0.816629	1.171339	-0.048057
H615	H	1.066629	1.421339	0.201943
H616	H	1.316629	1.671339	0.451943
O617	O	0.589348	0.557331	-0.321447
O618	O	0.839348	0.807331	-0.071447
O619	O	1.089348	1.057331	0.178553
O620	O	1.339348	1.307331	0.428553
H621	H	0.566511	0.582241	-0.298020
H622	H	0.816511	0.832241	-0.048020
H623	H	1.066511	1.082241	0.201980
H624	H	1.316511	1.332241	0.451980
H625	H	0.568264	0.702233	-0.346053
H626	H	0.818264	0.952233	-0.096053
H627	H	1.068264	1.202233	0.153947
H628	H	1.318264	1.452233	0.403947
H629	H	0.597076	0.312479	-1.052966
H630	H	0.847076	0.562479	-0.802966
H631	H	1.097076	0.812479	-0.552966
H632	H	1.347076	1.062479	-0.302966
H633	H	0.596919	0.451047	-0.312605
H634	H	0.846919	0.701047	-0.062605
H635	H	1.096919	0.951047	0.187395
H636	H	1.346919	1.201047	0.437395
H637	H	0.701344	0.191281	-0.550659
H638	H	0.951344	0.441281	-0.300659
H639	H	1.201344	0.691281	-0.050659
H640	H	1.451344	0.941281	0.199341
O641	O	0.708880	0.557255	-0.182590
O642	O	0.958880	0.807255	0.067410
O643	O	1.208880	1.057255	0.317410
O644	O	1.458880	1.307255	0.567410
H645	H	0.728856	0.529079	-0.159360
H646	H	0.978856	0.779079	0.090640
H647	H	1.228856	1.029079	0.340640
H648	H	1.478856	1.279079	0.590640
H649	H	0.730124	0.157787	-0.801843
H650	H	0.980124	0.407787	-0.551843
H651	H	1.230124	0.657787	-0.301843
H652	H	1.480124	0.907787	-0.051843
H653	H	0.121558	0.346236	-0.345979
H654	H	0.371558	0.596236	-0.095979
H655	H	0.621558	0.846236	0.154021
H656	H	0.871558	1.096236	0.404021
O657	O	0.560672	0.354783	-0.808987
O658	O	0.810672	0.604783	-0.558987
O659	O	1.060672	0.854783	-0.308987
O660	O	1.310672	1.104783	-0.058987
H661	H	0.540673	0.378025	-0.780813
H662	H	0.790673	0.628025	-0.530813
H663	H	1.040673	0.878025	-0.280813
H664	H	1.290673	1.128025	-0.030813
O665	O	-0.185560	0.321651	-0.321460
O666	O	0.064440	0.571651	-0.071460
O667	O	0.314440	0.821651	0.178540
O668	O	0.564440	1.071651	0.428540
H669	H	-0.206916	0.298315	-0.348124
H670	H	0.043084	0.548315	-0.098124
H671	H	0.293084	0.798315	0.151876
H672	H	0.543084	1.048315	0.401876
H673	H	0.597014	0.312605	-0.550629
H674	H	0.847014	0.562605	-0.300629
H675	H	1.097014	0.812605	-0.050629
H676	H	1.347014	1.062605	0.199371
O677	O	0.737712	0.148981	-0.695580
O678	O	0.987712	0.398981	-0.445580
O679	O	1.237712	0.648981	-0.195580
O680	O	1.487712	0.898981	0.054420
H681	H	0.757703	0.125727	-0.723753
H682	H	1.007703	0.375727	-0.473753
H683	H	1.257703	0.625727	-0.223753
H684	H	1.507703	0.875727	0.026247
H685	H	0.701403	0.191162	-1.053020
H686	H	0.951403	0.441162	-0.803020
H687	H	1.201403	0.691162	-0.553020
H688	H	1.451403	0.941162	-0.303020
H689	H	0.597004	0.312627	-0.451562
H690	H	0.847004	0.562627	-0.201562
H691	H	1.097004	0.812627	0.048438
H692	H	1.347004	1.062627	0.298438
H693	H	0.478128	0.312730	-0.312540
H694	H	0.728128	0.562730	-0.062540
H695	H	0.978128	0.812730	0.187460
H696	H	1.228128	1.062730	0.437460
H697	H	0.177200	0.346232	-0.345971
H698	H	0.427200	0.596232	-0.095971
H699	H	0.677200	0.846232	0.154029
H700	H	0.927200	1.096232	0.404029
O701	O	0.484328	0.182362	-0.182608
O702	O	0.734328	0.432362	0.067392
O703	O	0.984328	0.682362	0.317392
O704	O	1.234328	0.932362	0.567392
H705	H	0.505723	0.155795	-0.206059
H706	H	0.755723	0.405795	0.043941
H707	H	1.005723	0.655795	0.293941
H708	H	1.255723	0.905795	0.543941
O709	O	-0.185586	0.182421	-0.182701
O710	O	0.064414	0.432421	0.067299
O711	O	0.314414	0.682421	0.317299
O712	O	0.564414	0.932421	0.567299
H713	H	-0.176563	0.141398	-0.191745
H714	H	0.073437	0.391398	0.058255
H715	H	0.323437	0.641398	0.308255
H716	H	0.573437	0.891398	0.558255
O717	O	0.030243	0.355086	-0.354817
O718	O	0.280243	0.605086	-0.104817
O719	O	0.530243	0.855086	0.145183
O720	O	0.780243	1.105086	0.395183
H721	H	-0.006321	0.349453	-0.349215
H722	H	0.243679	0.599453	-0.099215
H723	H	0.493679	0.849453	0.150785
H724	H	0.743679	1.099453	0.400785
O725	O	0.030244	0.148907	-0.149313
O726	O	0.280244	0.398907	0.100687
O727	O	0.530244	0.648907	0.350687
O728	O	0.780244	0.898907	0.600687
H729	H	0.039271	0.107886	-0.158359
H730	H	0.289271	0.357886	0.091641
H731	H	0.539271	0.607886	0.341641
H732	H	0.789271	0.857886	0.591641
O733	O	0.127760	0.148912	-0.149286
O734	O	0.377760	0.398912	0.100714
O735	O	0.627760	0.648912	0.350714
O736	O	0.877760	0.898912	0.600714
H737	H	0.103560	0.125638	-0.126077
H738	H	0.353560	0.375638	0.123923
H739	H	0.603560	0.625638	0.373923
H740	H	0.853560	0.875638	0.623923
