data_functionalizedCrystal
_audit_creation_method	'MofGen! by Chris Wilmer'
_symmetry_space_group_name_H-M	'P1'
_symmetry_Int_Tables_number	1
_symmetry_cell_setting	triclinic
loop_
_symmetry_equiv_pos_as_xyz
  x,y,z
_cell_length_a	17.699083
_cell_length_b	16.992695
_cell_length_c	16.176319
_cell_angle_alpha	89.993125
_cell_angle_beta	89.998611
_cell_angle_gamma	86.975619
loop_
_atom_site_label
_atom_site_type_symbol
_atom_site_fract_x
_atom_site_fract_y
_atom_site_fract_z
O1	O	1.010252	0.099146	-0.068631
O2	O	0.790676	0.112045	-0.068658
O3	O	0.899584	-0.008546	-0.068638
O4	O	0.901344	0.219736	-0.068651
O5	O	0.899567	-0.008553	0.068855
O6	O	0.790660	0.112037	0.068835
O7	O	1.010235	0.099138	0.068862
Cu8	Cu	0.900446	0.105587	0.081403
Cu9	Cu	0.900465	0.105596	-0.081199
O10	O	0.901328	0.219729	0.068842
C11	C	0.762442	0.111579	0.000085
C12	C	0.678338	0.110192	0.000075
C13	C	0.897311	-0.037758	0.000108
C14	C	0.890554	-0.124789	0.000107
C15	C	0.634124	0.180976	0.000071
C16	C	0.555099	0.179669	0.000082
C17	C	0.520290	0.107576	0.000091
C18	C	0.564510	0.036787	0.000097
C19	C	0.643533	0.038095	0.000092
C20	C	0.245818	0.031509	0.000118
C21	C	0.166789	0.030206	0.000120
C22	C	0.157384	0.173082	0.000108
C23	C	0.236408	0.174391	0.000103
C24	C	0.280621	0.103602	0.000113
C25	C	0.366308	0.105020	0.000103
C26	C	0.434604	0.106157	0.000095
C27	C	0.955751	-0.175154	0.000116
C28	C	0.949398	-0.256928	0.000107
C29	C	0.877846	-0.288336	0.000096
C30	C	0.812643	-0.237965	0.000084
C31	C	0.818998	-0.156192	0.000087
C32	C	0.851510	-0.531884	0.000081
C33	C	0.845160	-0.613663	0.000081
C34	C	0.981915	-0.632621	0.000102
C35	C	0.988263	-0.550845	0.000110
C36	C	0.923061	-0.500481	0.000094
N37	N	0.871350	-0.371923	0.000090
N38	N	0.929558	-0.416897	0.000095
C39	C	1.038469	0.099604	0.000117
C40	C	1.122574	0.100991	0.000122
C41	C	0.903601	0.248941	0.000094
C42	C	0.910358	0.335972	0.000090
N43	N	0.900438	0.105580	0.195768
N44	N	0.900479	0.105597	-0.195564
C45	C	0.948679	0.052204	0.239041
C46	C	0.948683	0.052203	0.325588
C47	C	0.900449	0.105583	0.368861
C48	C	0.852202	0.158961	0.325582
C49	C	0.852195	0.158957	0.239036
C50	C	0.852229	0.158976	0.674610
C51	C	0.852242	0.158977	0.761161
C52	C	0.948717	0.052222	0.761162
C53	C	0.948709	0.052218	0.674617
C54	C	0.900461	0.105593	0.631345
C55	C	0.900456	0.105593	0.537501
C56	C	0.900457	0.105588	0.462703
H57	H	0.662460	0.239682	0.000064
H58	H	0.754384	-0.263544	0.000070
H59	H	0.281807	-0.026132	0.000127
N60	N	0.781186	-0.477571	0.000069
H61	H	0.780778	-0.443220	-0.050903
H62	H	0.734938	-0.509937	0.000095
N63	N	0.800159	0.216526	0.192365
H64	H	0.812236	0.272162	0.207412
H65	H	0.807493	0.208355	0.130987
N66	N	0.767982	-0.647539	0.000060
H67	H	0.773853	-0.706984	0.000065
H68	H	0.739223	-0.629110	0.051024
N69	N	1.032928	-0.141285	0.000134
H70	H	1.038622	-0.107770	-0.050831
H71	H	1.038555	-0.107828	0.051141
H72	H	0.765906	-0.115186	0.000080
N73	N	0.507413	0.256016	0.000066
H74	H	0.452070	0.244250	0.000073
H75	H	0.519174	0.287444	0.051029
H76	H	0.987989	0.008755	0.639387
N77	N	0.800211	0.216548	0.807837
H78	H	0.769641	0.250358	0.767293
H79	H	0.764952	0.186567	0.843755
H80	H	0.987964	0.008741	0.360821
N81	N	0.526970	-0.040972	0.000119
H82	H	0.470200	-0.031061	0.000122
H83	H	0.542835	-0.071943	-0.050847
H84	H	0.264745	0.233096	0.000092
H85	H	0.988001	0.008758	0.796403
H86	H	0.679531	-0.019545	0.000095
N87	N	1.000708	-0.005365	0.192372
H88	H	1.031268	-0.039179	0.232921
H89	H	0.969640	-0.039990	0.156472
H90	H	0.138450	-0.028504	0.000128
H91	H	0.812945	0.202437	0.639385
N92	N	1.019718	-0.311251	0.000122
H93	H	1.066009	-0.278946	0.000137
H94	H	1.020047	-0.345597	0.051092
H95	H	1.046528	-0.525279	0.000120
H96	H	1.034999	-0.673635	0.000114
N97	N	0.800176	0.216529	0.372256
H98	H	0.831195	0.251208	0.408152
H99	H	0.769621	0.250288	0.331659
N100	N	0.109698	0.249437	0.000099
H101	H	0.054354	0.237673	0.000106
H102	H	0.121460	0.280862	0.051063
