data_functionalizedCrystal
_audit_creation_method	'MofGen! by Chris Wilmer'
_symmetry_space_group_name_H-M	'P1'
_symmetry_Int_Tables_number	1
_symmetry_cell_setting	triclinic
loop_
_symmetry_equiv_pos_as_xyz
  x,y,z
_cell_length_a	14.519709
_cell_length_b	27.731996
_cell_length_c	13.596369
_cell_angle_alpha	89.988048
_cell_angle_beta	90.000291
_cell_angle_gamma	83.150767
loop_
_atom_site_label
_atom_site_type_symbol
_atom_site_fract_x
_atom_site_fract_y
_atom_site_fract_z
O1	O	1.222743	0.063364	-0.081677
O2	O	1.556077	0.396697	0.251657
O3	O	1.889410	0.730030	0.584990
O4	O	0.954134	0.070825	-0.081708
O5	O	1.287467	0.404159	0.251625
O6	O	1.620801	0.737492	0.584958
O7	O	1.096806	-0.003264	-0.081670
O8	O	1.430140	0.330069	0.251663
O9	O	1.763473	0.663403	0.584996
O10	O	1.080071	0.137453	-0.081715
O11	O	1.413405	0.470786	0.251618
O12	O	1.746738	0.804120	0.584952
O13	O	1.096792	-0.003268	0.081913
O14	O	1.430126	0.330065	0.415246
O15	O	1.763459	0.663399	0.748579
O16	O	0.954120	0.070822	0.081874
O17	O	1.287453	0.404155	0.415208
O18	O	1.620787	0.737488	0.748541
O19	O	1.222729	0.063360	0.081906
O20	O	1.556063	0.396693	0.415239
O21	O	1.889396	0.730026	0.748573
Zn22	Zn	1.088422	0.067090	0.107863
Zn23	Zn	1.421756	0.400423	0.441196
Zn24	Zn	1.755089	0.733757	0.774529
Zn25	Zn	1.088441	0.067095	-0.107665
Zn26	Zn	1.421774	0.400429	0.225668
Zn27	Zn	1.755108	0.733762	0.559002
O28	O	1.080057	0.137449	0.081868
O29	O	1.413391	0.470783	0.415201
O30	O	1.746724	0.804116	0.748535
C31	C	0.919773	0.070476	0.000079
C32	C	1.253107	0.403809	0.333413
C33	C	1.586440	0.737142	0.666746
C34	C	0.817411	0.069434	0.000068
C35	C	1.150744	0.402767	0.333401
C36	C	1.484077	0.736100	0.666735
C37	C	0.442583	0.065597	0.000114
C38	C	0.775916	0.398931	0.333447
C39	C	1.109250	0.732264	0.666781
C40	C	0.546872	0.066663	0.000101
C41	C	0.880205	0.399996	0.333434
C42	C	1.213539	0.733329	0.666768
C43	C	0.629994	0.067515	0.000090
C44	C	0.963327	0.400849	0.333424
C45	C	1.296660	0.734182	0.666757
C46	C	0.734289	0.068581	0.000079
C47	C	1.067622	0.401914	0.333412
C48	C	1.400956	0.735248	0.666746
C49	C	1.096455	-0.021275	0.000124
C50	C	1.429789	0.312058	0.333458
C51	C	1.763122	0.645392	0.666791
C52	C	1.095420	-0.074936	0.000134
C53	C	1.428753	0.258397	0.333468
C54	C	1.762087	0.591730	0.666801
C55	C	1.088913	-0.407681	-0.089084
C56	C	1.422246	-0.074348	0.244250
C57	C	1.755580	0.258985	0.577583
C58	C	1.084981	-0.609358	-0.089101
C59	C	1.418314	-0.276025	0.244232
C60	C	1.751648	0.057308	0.577565
O61	O	1.084439	-0.635430	-0.164937
O62	O	1.417773	-0.302097	0.168396
O63	O	1.751106	0.031237	0.501730
N64	N	1.084485	-0.634580	0.000067
N65	N	1.417818	-0.301247	0.333400
N66	N	1.751152	0.032087	0.666733
C67	C	1.084966	-0.609379	0.089246
C68	C	1.418299	-0.276046	0.422579
C69	C	1.751633	0.057288	0.755912
O70	O	1.084444	-0.635458	0.165088
O71	O	1.417778	-0.302125	0.498422
O72	O	1.751111	0.031208	0.831755
C73	C	1.088891	-0.407702	0.089262
C74	C	1.422225	-0.074369	0.422596
C75	C	1.755558	0.258964	0.755929
C76	C	1.089397	-0.382484	0.000088
C77	C	1.422730	-0.049151	0.333422
C78	C	1.756063	0.284183	0.666755
C79	C	1.089417	-0.382463	-0.178250
C80	C	1.422751	-0.049130	0.155083
C81	C	1.756084	0.284204	0.488416
C82	C	1.090405	-0.332047	-0.178245
C83	C	1.423739	0.001286	0.155088
C84	C	1.757072	0.334620	0.488422
C85	C	1.090889	-0.306850	-0.089073
C86	C	1.424222	0.026484	0.244260
C87	C	1.757556	0.359817	0.577594
C88	C	1.090385	-0.332068	0.000094
C89	C	1.423718	0.001265	0.333427
C90	C	1.757051	0.334599	0.666760
C91	C	1.089366	-0.382502	0.178440
C92	C	1.422699	-0.049168	0.511774
C93	C	1.756032	0.284165	0.845107
C94	C	1.090345	-0.332079	0.178437
C95	C	1.423678	0.001254	0.511770
C96	C	1.757011	0.334587	0.845103
C97	C	1.090850	-0.306861	0.089263
C98	C	1.424183	0.026472	0.422596
C99	C	1.757517	0.359806	0.755929
C100	C	1.091856	-0.256455	0.089271
C101	C	1.425190	0.076878	0.422605
C102	C	1.758523	0.410212	0.755938
N103	N	1.092352	-0.231233	0.000103
N104	N	1.425686	0.102100	0.333436
N105	N	1.759019	0.435433	0.666770
C106	C	1.091869	-0.256431	-0.089069
C107	C	1.425202	0.076903	0.244264
C108	C	1.758535	0.410236	0.577598
C109	C	1.082907	-0.715262	0.089231
C110	C	1.416240	-0.381929	0.422564
C111	C	1.749574	-0.048596	0.755897
C112	C	1.081927	-0.765681	0.089227
C113	C	1.415261	-0.432348	0.422560
C114	C	1.748594	-0.099015	0.755893
C115	C	1.081941	-0.765657	-0.089121
C116	C	1.415274	-0.432324	0.244213
C117	C	1.748607	-0.098990	0.577546
C118	C	1.082927	-0.715238	-0.089116
C119	C	1.416260	-0.381904	0.244218
C120	C	1.749594	-0.048571	0.577551
C121	C	1.083403	-0.690041	0.000063
C122	C	1.416736	-0.356707	0.333396
C123	C	1.750070	-0.023374	0.666729
C124	C	1.093944	-0.150554	-0.089051
C125	C	1.427278	0.182780	0.244282
C126	C	1.760611	0.516113	0.577616
C127	C	1.094936	-0.100134	-0.089038
C128	C	1.428270	0.233200	0.244296
C129	C	1.761603	0.566533	0.577629
C130	C	1.094918	-0.100162	0.089309
C131	C	1.428251	0.233172	0.422642
C132	C	1.761585	0.566505	0.755976
C133	C	1.093931	-0.150578	0.089296
C134	C	1.427264	0.182756	0.422630
C135	C	1.760598	0.516089	0.755963
C136	C	1.093441	-0.175772	0.000108
C137	C	1.426774	0.157561	0.333442
C138	C	1.760108	0.490894	0.666775
O139	O	1.092388	-0.230352	0.165067
O140	O	1.425721	0.102982	0.498400
O141	O	1.759055	0.436315	0.831734
O142	O	1.092370	-0.230341	-0.164900
O143	O	1.425703	0.102992	0.168433
O144	O	1.759037	0.436326	0.501766
C145	C	1.087925	-0.458097	-0.089089
C146	C	1.421258	-0.124764	0.244244
C147	C	1.754592	0.208569	0.577578
C148	C	1.087421	-0.483316	0.000078
C149	C	1.420754	-0.149983	0.333411
C150	C	1.754087	0.183351	0.666744
C151	C	1.087904	-0.458118	0.089250
C152	C	1.421238	-0.124785	0.422583
C153	C	1.754571	0.208548	0.755917
C154	C	1.086441	-0.533735	0.000074
C155	C	1.419774	-0.200402	0.333407
C156	C	1.753108	0.132932	0.666741
C157	C	1.085957	-0.558932	-0.089098
C158	C	1.419291	-0.225599	0.244235
C159	C	1.752624	0.107734	0.577568
C160	C	1.086453	-0.533711	-0.178266
C161	C	1.419787	-0.200377	0.155067
C162	C	1.753120	0.132956	0.488400
C163	C	1.087441	-0.483295	-0.178261
C164	C	1.420775	-0.149961	0.155072
C165	C	1.754108	0.183372	0.488406
C166	C	1.087408	-0.483340	0.178418
C167	C	1.420742	-0.150007	0.511751
C168	C	1.754075	0.183327	0.845085
C169	C	1.086421	-0.533756	0.178405
C170	C	1.419755	-0.200423	0.511739
C171	C	1.753088	0.132911	0.845072
C172	C	1.085938	-0.558953	0.089233
C173	C	1.419271	-0.225620	0.422567
C174	C	1.752604	0.107713	0.755900
C175	C	1.257090	0.063709	0.000116
C176	C	1.590423	0.397043	0.333450
C177	C	1.923757	0.730376	0.666783
C178	C	1.359453	0.064752	0.000121
C179	C	1.692786	0.398085	0.333454
C180	C	2.026119	0.731418	0.666788
C181	C	1.080408	0.155460	0.000071
C182	C	1.413741	0.488794	0.333404
C183	C	1.747075	0.822127	0.666738
C184	C	1.081443	0.209121	0.000055
C185	C	1.414777	0.542455	0.333388
C186	C	1.748110	0.875788	0.666721
N187	N	1.088417	0.067086	0.254954
N188	N	1.421750	0.400420	0.588288
N189	N	1.755083	0.733753	0.921621
N190	N	1.088454	0.067095	-0.254757
N191	N	1.421788	0.400429	0.078577
N192	N	1.755121	0.733762	0.411910
C193	C	1.088440	0.067096	0.656245
C194	C	1.421773	0.400429	0.989579
C195	C	1.755106	0.733762	1.322912
C196	C	1.088431	0.067095	0.544594
C197	C	1.421764	0.400428	0.877927
C198	C	1.755097	0.733761	1.211261
C199	C	1.088429	0.067091	0.455603
C200	C	1.421762	0.400425	0.788937
C201	C	1.755095	0.733758	1.122270
C202	C	1.088419	0.067090	0.343945
C203	C	1.421752	0.400423	0.677278
C204	C	1.755085	0.733756	1.010612
H205	H	1.095350	-0.079603	-0.161657
H206	H	1.428683	0.253730	0.171676
H207	H	1.762017	0.587063	0.505010
H208	H	1.093541	-0.171061	-0.161676
H209	H	1.426874	0.162273	0.171657
H210	H	1.760208	0.495606	0.504990
H211	H	1.090813	-0.311519	-0.250860
H212	H	1.424147	0.021815	0.082474
H213	H	1.757480	0.355148	0.415807
Cl214	Cl	1.088811	-0.414131	-0.290368
Cl215	Cl	1.422144	-0.080797	0.042965
Cl216	Cl	1.755477	0.252536	0.376299
Cl217	Cl	1.081327	-0.797343	-0.201222
Cl218	Cl	1.414660	-0.464009	0.132111
Cl219	Cl	1.747994	-0.130676	0.465445
Cl220	Cl	1.095526	-0.068476	0.201405
Cl221	Cl	1.428859	0.264858	0.534738
Cl222	Cl	1.762193	0.598191	0.868072
H223	H	1.088956	-0.403026	0.251056
H224	H	1.422289	-0.069693	0.584389
H225	H	1.755622	0.263641	0.917722
H226	H	1.086017	-0.554285	0.251027
H227	H	1.419350	-0.220952	0.584360
H228	H	1.752684	0.112382	0.917694
H229	H	1.083299	-0.694752	0.161854
H230	H	1.416632	-0.361418	0.495188
H231	H	1.749966	-0.028085	0.828521
H232	H	1.090718	-0.311565	0.251058
H233	H	1.424052	0.021768	0.584391
H234	H	1.757385	0.355101	0.917725
H235	H	1.087804	-0.462829	0.251034
H236	H	1.421137	-0.129496	0.584368
H237	H	1.754470	0.203837	0.917701
H238	H	1.083337	-0.694708	-0.161729
H239	H	1.416670	-0.361375	0.171604
H240	H	1.750004	-0.028041	0.504938
Cl241	Cl	1.093313	-0.182283	0.201402
Cl242	Cl	1.426647	0.151050	0.534735
Cl243	Cl	1.759980	0.484384	0.868069
Cl244	Cl	1.085849	-0.565397	-0.290367
Cl245	Cl	1.419183	-0.232064	0.042966
Cl246	Cl	1.752516	0.101269	0.376299
Cl247	Cl	1.081310	-0.797379	0.201336
Cl248	Cl	1.414643	-0.464046	0.534669
Cl249	Cl	1.747976	-0.130713	0.868003
Cl250	Cl	1.088074	-0.451599	-0.290372
Cl251	Cl	1.421408	-0.118266	0.042961
Cl252	Cl	1.754741	0.215068	0.376295
