data_functionalizedCrystal
_audit_creation_method	'MofGen! by Chris Wilmer'
_symmetry_space_group_name_H-M	'P1'
_symmetry_Int_Tables_number	1
_symmetry_cell_setting	triclinic
loop_
_symmetry_equiv_pos_as_xyz
  x,y,z
_cell_length_a	17.699083
_cell_length_b	17.038272
_cell_length_c	16.776229
_cell_angle_alpha	89.993292
_cell_angle_beta	89.998886
_cell_angle_gamma	87.197286
loop_
_atom_site_label
_atom_site_type_symbol
_atom_site_fract_x
_atom_site_fract_y
_atom_site_fract_z
O1	O	1.010620	0.098861	-0.066177
O2	O	0.791093	0.111723	-0.066203
O3	O	0.899552	-0.008521	-0.066184
O4	O	0.902161	0.219105	-0.066196
O5	O	0.899536	-0.008529	0.066393
O6	O	0.791077	0.111716	0.066374
O7	O	1.010604	0.098854	0.066400
Zn8	Zn	0.900838	0.105283	0.087436
Zn9	Zn	0.900859	0.105293	-0.087239
O10	O	0.902145	0.219098	0.066381
C11	C	0.762857	0.111258	0.000082
C12	C	0.678748	0.109876	0.000072
C13	C	0.634797	0.180457	0.000069
C14	C	0.555767	0.179153	0.000079
C15	C	0.520690	0.107267	0.000087
C16	C	0.564647	0.036681	0.000093
C17	C	0.643675	0.037986	0.000089
C18	C	0.245935	0.031418	0.000113
C19	C	0.166901	0.030119	0.000116
C20	C	0.158028	0.172585	0.000104
C21	C	0.237056	0.173890	0.000099
C22	C	0.281006	0.103304	0.000109
C23	C	0.366699	0.104719	0.000100
C24	C	0.434999	0.105852	0.000091
C25	C	0.897170	-0.037649	0.000104
C26	C	0.890090	-0.124431	0.000103
C27	C	0.955100	-0.174651	0.000112
C28	C	0.948442	-0.256191	0.000103
C29	C	0.876773	-0.287509	0.000092
C30	C	0.811758	-0.237282	0.000081
C31	C	0.818417	-0.155744	0.000084
C32	C	0.853251	-0.533228	0.000079
C33	C	0.846597	-0.614773	0.000078
C34	C	0.983282	-0.633676	0.000099
C35	C	0.989934	-0.552135	0.000106
C36	C	0.924919	-0.501916	0.000091
C37	C	0.869967	-0.370855	0.000086
C38	C	0.931726	-0.418571	0.000092
C39	C	1.038840	0.099318	0.000113
C40	C	1.122949	0.100701	0.000118
C41	C	0.904526	0.248226	0.000091
C42	C	0.911607	0.335007	0.000087
N43	N	0.900829	0.105276	0.206647
N44	N	0.900873	0.105294	-0.206450
C45	C	0.948872	0.052054	0.248373
C46	C	0.948876	0.052053	0.331825
C47	C	0.900841	0.105279	0.373550
C48	C	0.852793	0.158504	0.331819
C49	C	0.852785	0.158501	0.248368
C50	C	0.852821	0.158520	0.668366
C51	C	0.852834	0.158521	0.751823
C52	C	0.948912	0.052072	0.751823
C53	C	0.948904	0.052069	0.668372
C54	C	0.900854	0.105290	0.626648
C55	C	0.900849	0.105289	0.536160
C56	C	0.900849	0.105285	0.464037
H57	H	0.138344	-0.028422	0.000123
H58	H	0.813698	0.201856	0.634401
H59	H	0.281710	-0.026057	0.000122
H60	H	0.536080	-0.021849	0.000112
C61	C	1.043869	-0.053147	0.323444
C62	C	1.001699	-0.006439	0.377690
H63	H	1.076485	-0.089253	0.351760
H64	H	1.010562	-0.081238	0.290909
H65	H	1.073168	-0.020626	0.290881
H66	H	0.972395	-0.038960	0.410249
H67	H	1.035010	0.021654	0.410238
H68	H	0.800310	-0.492349	0.000066
C69	C	0.958395	-0.054396	0.154586
C70	C	1.001653	-0.006491	0.202532
H71	H	0.990975	-0.090549	0.126291
H72	H	0.925077	-0.082434	0.187165
H73	H	0.929805	-0.022692	0.117776
H74	H	1.030239	-0.038195	0.239346
H75	H	1.034984	0.021549	0.169950
H76	H	0.813678	0.201839	0.365796
C77	C	0.757821	0.263731	0.256744
C78	C	0.799979	0.217008	0.202500
H79	H	0.725222	0.299853	0.228426
H80	H	0.728510	0.231226	0.289300
H81	H	0.791142	0.291811	0.289286
H82	H	0.766658	0.188923	0.169963
H83	H	0.829292	0.249517	0.169930
H84	H	0.988022	0.008730	0.634402
H85	H	0.663351	0.238994	0.000061
H86	H	0.679459	-0.019489	0.000091
C87	C	0.554934	0.320109	0.000055
C88	C	0.507457	0.256738	0.000071
H89	H	0.525108	0.368008	0.000047
H90	H	0.585944	0.317654	0.046282
H91	H	0.585941	0.317647	-0.046183
H92	H	0.476454	0.259196	0.046313
H93	H	0.476434	0.259193	-0.046160
C94	C	0.958501	-0.054352	0.845679
C95	C	1.001723	-0.006440	0.797689
H96	H	0.991104	-0.090475	0.873989
H97	H	0.929901	-0.022654	0.882468
H98	H	0.925192	-0.082430	0.813121
H99	H	1.035027	0.021642	0.830248
H100	H	1.030335	-0.038142	0.760896
C101	C	0.757840	0.263734	0.743444
C102	C	0.800022	0.217024	0.797689
H103	H	0.725235	0.299845	0.771762
H104	H	0.791140	0.291820	0.710888
H105	H	0.728527	0.231214	0.710903
H106	H	0.829339	0.249544	0.830226
H107	H	0.766718	0.188937	0.830259
H108	H	0.990079	-0.393068	0.000083
H109	H	0.265612	0.232426	0.000089
H110	H	1.001381	-0.297077	0.000112
C111	C	0.063998	0.253777	-0.068045
C112	C	0.109714	0.250176	0.000102
H113	H	0.034170	0.301675	-0.068044
H114	H	0.095009	0.251327	-0.114271
H115	H	0.031800	0.210775	-0.068028
H116	H	0.141916	0.293175	0.000082
H117	H	0.078700	0.252634	0.046340
C118	C	1.073655	-0.165650	-0.068032
C119	C	1.033880	-0.140227	0.000120
H120	H	1.122289	-0.144395	-0.068030
H121	H	1.078993	-0.221391	-0.068026
H122	H	1.046661	-0.148391	-0.114260
H123	H	1.060871	-0.157491	0.046348
H124	H	1.028545	-0.084474	0.000121
C125	C	1.124372	-0.579013	0.000126
C126	C	1.068715	-0.517713	0.000120
H127	H	1.173008	-0.557761	0.000133
H128	H	1.118924	-0.610429	0.046352
H129	H	1.118938	-0.610416	-0.046113
H130	H	1.074146	-0.486314	0.046362
H131	H	1.074166	-0.486284	-0.046111
C132	C	0.712152	-0.587901	0.000033
C133	C	0.767813	-0.649199	0.000053
H134	H	0.663518	-0.609157	0.000012
H135	H	0.717574	-0.556498	0.046265
H136	H	0.717609	-0.556485	-0.046200
H137	H	0.762359	-0.680612	0.046290
H138	H	0.762387	-0.680615	-0.046183
C139	C	0.740860	-0.353879	0.000078
C140	C	0.732978	-0.271705	0.000072
H141	H	0.692222	-0.375127	0.000079
H142	H	0.767848	-0.371117	-0.046149
H143	H	0.767846	-0.371122	0.046316
H144	H	0.705997	-0.254461	-0.046170
H145	H	0.705978	-0.254460	0.046303
H146	H	1.036213	-0.674572	0.000110
C147	C	0.682642	-0.145244	0.000069
C148	C	0.746955	-0.100539	0.000077
H149	H	0.638525	-0.111162	0.000067
H150	H	0.682895	-0.177434	-0.046160
H151	H	0.682886	-0.177447	0.046306
H152	H	0.746715	-0.068340	-0.046163
H153	H	0.746702	-0.068335	0.046310
H154	H	0.811613	-0.396363	0.000079
