data_functionalizedCrystal
_audit_creation_method	'MofGen! by Chris Wilmer'
_symmetry_space_group_name_H-M	'P1'
_symmetry_Int_Tables_number	1
_symmetry_cell_setting	triclinic
loop_
_symmetry_equiv_pos_as_xyz
  x,y,z
_cell_length_a	13.032831
_cell_length_b	19.805406
_cell_length_c	19.805399
_cell_angle_alpha	89.985648
_cell_angle_beta	82.810414
_cell_angle_gamma	82.806157
loop_
_atom_site_label
_atom_site_type_symbol
_atom_site_fract_x
_atom_site_fract_y
_atom_site_fract_z
Zn1	Zn	1.597866	-0.401117	-0.513989
Zn2	Zn	1.597815	-0.514301	-0.400823
Zn3	Zn	1.423103	-0.386738	-0.386464
Zn4	Zn	1.423127	-0.499874	-0.499626
O5	O	1.510478	-0.450507	-0.450225
O6	O	1.744105	-0.428187	-0.510999
O7	O	1.574608	-0.497400	-0.304199
O8	O	1.446297	-0.293930	-0.403382
O9	O	1.744068	-0.511342	-0.427856
O10	O	1.574694	-0.304494	-0.497075
O11	O	1.446247	-0.403680	-0.293649
O12	O	1.276860	-0.389690	-0.389454
O13	O	1.446338	-0.486753	-0.596250
O14	O	1.276878	-0.472810	-0.472594
O15	O	1.574718	-0.414197	-0.606803
O16	O	1.574631	-0.607103	-0.413928
O17	O	1.446289	-0.596503	-0.486518
C18	C	1.238949	-0.428125	-0.427907
C19	C	1.122788	-0.418566	-0.418375
C20	C	1.510485	-0.626364	-0.450239
C21	C	1.510584	-0.701604	-0.450276
C22	C	1.510536	-0.450470	-0.626773
C23	C	1.510561	-0.450453	-0.702007
C24	C	1.071036	-0.455496	-0.455200
C25	C	0.950977	-0.445618	-0.445349
C26	C	1.783067	-0.472978	-0.472631
C27	C	1.899228	-0.482553	-0.482179
C28	C	1.510498	-0.273966	-0.450229
C29	C	1.510507	-0.198735	-0.450230
C30	C	1.443666	-0.157890	-0.401452
C31	C	1.443672	-0.087202	-0.401460
C32	C	1.510526	-0.057361	-0.450244
C33	C	1.577371	-0.098211	-0.499027
C34	C	1.577358	-0.168897	-0.499022
C35	C	1.577422	0.186858	-0.499051
C36	C	1.577432	0.257549	-0.499052
C37	C	1.443736	0.268553	-0.401489
C38	C	1.443724	0.197867	-0.401484
C39	C	1.510564	0.157023	-0.450269
C40	C	1.510554	0.080376	-0.450261
C41	C	1.510542	0.019285	-0.450250
C42	C	1.577410	-0.412671	-0.742848
C43	C	1.577421	-0.412653	-0.813537
C44	C	1.510587	-0.450420	-0.843385
C45	C	1.443731	-0.488204	-0.802539
C46	C	1.443716	-0.488218	-0.731851
C47	C	1.443790	-0.488145	-1.087617
C48	C	1.443813	-0.488130	-1.158311
C49	C	1.577495	-0.412580	-1.169304
C50	C	1.577480	-0.412594	-1.098615
C51	C	1.510620	-0.450375	-1.057775
C52	C	1.510608	-0.450394	-0.981126
C53	C	1.510604	-0.450406	-0.920033
C54	C	1.510479	-0.450501	-0.274370
C55	C	1.510657	-0.450343	-0.199153
H56	H	0.906405	-0.406681	-0.406530
H57	H	1.631779	-0.202152	-0.538746
H58	H	1.389244	-0.053947	-0.361741
H59	H	1.389308	0.301816	-0.361767
O60	O	1.642256	0.147092	-0.546405
C61	C	1.627933	0.078301	-0.535936
H62	H	1.547271	0.075290	-0.507140
H63	H	1.689907	0.053123	-0.504985
C64	C	1.736601	0.044934	-0.640577
C65	C	1.637527	0.041236	-0.605214
H66	H	1.742524	0.022069	-0.683310
H67	H	1.746255	0.091280	-0.647630
H68	H	1.788235	0.023954	-0.614777
H69	H	1.585896	0.062224	-0.631010
H70	H	1.627865	-0.005107	-0.598168
O71	O	1.378670	-0.524819	-0.692141
C72	C	1.311178	-0.480734	-0.645690
H73	H	1.304733	-0.426888	-0.666460
H74	H	1.343474	-0.481080	-0.594772
C75	C	1.210447	-0.570983	-0.610165
C76	C	1.202525	-0.504849	-0.635677
H77	H	1.143426	-0.585858	-0.603985
H78	H	1.255920	-0.600684	-0.641457
H79	H	1.237365	-0.571262	-0.567736
H80	H	1.175620	-0.504571	-0.678109
H81	H	1.157045	-0.475147	-0.604391
O82	O	0.952343	-0.528927	-0.528589
C83	C	0.925763	-0.512063	-0.593905
H84	H	0.895680	-0.455537	-0.594955
H85	H	0.862503	-0.543205	-0.606385
C86	C	1.059770	-0.597356	-0.645685
C87	C	1.022830	-0.527929	-0.646977
H88	H	1.119642	-0.607145	-0.678423
H89	H	1.077675	-0.608720	-0.601681
H90	H	1.007044	-0.623300	-0.656083
H91	H	1.075550	-0.501987	-0.636571
H92	H	1.004936	-0.516561	-0.690981
O93	O	1.642250	-0.375958	-0.853305
C94	C	1.627944	-0.384047	-0.922097
H95	H	1.547294	-0.399571	-0.925116
H96	H	1.689939	-0.425188	-0.947264
C97	C	1.736569	-0.297272	-0.955461
C98	C	1.637511	-0.316333	-0.959169
H99	H	1.742475	-0.255504	-0.978331
H100	H	1.746211	-0.291823	-0.909115
H101	H	1.788221	-0.331561	-0.976433
H102	H	1.585862	-0.282047	-0.938191
H103	H	1.627860	-0.321774	-1.005513
O104	O	1.642404	0.286431	-0.546514
C105	C	1.701413	0.235224	-0.589564
H106	H	1.658602	0.188365	-0.588385
H107	H	1.780781	0.221158	-0.571309
C108	C	1.769068	0.319141	-0.664289
C109	C	1.716482	0.261590	-0.662845
H110	H	1.778368	0.335405	-0.709492
H111	H	1.729316	0.353641	-0.635284
H112	H	1.835203	0.307411	-0.649073
H113	H	1.650344	0.273322	-0.678053
H114	H	1.756223	0.227093	-0.691854
O115	O	1.069739	-0.372163	-0.371975
C116	C	1.096280	-0.389051	-0.306655
H117	H	1.175562	-0.421549	-0.311676
H118	H	1.034861	-0.418801	-0.278800
C119	C	1.003763	-0.283498	-0.259985
C120	C	1.101144	-0.323408	-0.266151
H121	H	1.006760	-0.243007	-0.234998
H122	H	0.985879	-0.272121	-0.303991
H123	H	0.952591	-0.308297	-0.236774
H124	H	1.152312	-0.298612	-0.289369
H125	H	1.119037	-0.334779	-0.222148
O126	O	1.378624	-0.186762	-0.354033
C127	C	1.319647	-0.135552	-0.310972
H128	H	1.316049	-0.084862	-0.338404
H129	H	1.357901	-0.131197	-0.262711
C130	C	1.212829	-0.216225	-0.258381
C131	C	1.208402	-0.153968	-0.292075
H132	H	1.144209	-0.227586	-0.246721
H133	H	1.252564	-0.250728	-0.287389
H134	H	1.244711	-0.212588	-0.218167
H135	H	1.176532	-0.157608	-0.332292
H136	H	1.168658	-0.119466	-0.263073
H137	H	1.389288	0.173574	-0.361757
O138	O	1.642337	-0.375885	-1.209073
C139	C	1.628040	-0.383979	-1.277866
H140	H	1.547386	-0.399493	-1.280889
H141	H	1.690028	-0.425128	-1.303026
C142	C	1.736696	-0.297220	-1.311232
C143	C	1.637632	-0.316270	-1.314944
H144	H	1.742617	-0.255455	-1.334105
H145	H	1.746332	-0.291769	-1.264885
H146	H	1.788342	-0.331516	-1.332197
H147	H	1.585988	-0.281978	-1.293972
H148	H	1.627987	-0.321713	-1.361289
O149	O	1.642367	-0.375923	-0.713964
C150	C	1.701388	-0.342584	-0.765174
H151	H	1.658591	-0.336703	-0.812042
H152	H	1.780759	-0.373911	-0.779219
C153	C	1.769016	-0.279018	-0.681264
C154	C	1.716448	-0.271789	-0.738827
H155	H	1.778311	-0.235350	-0.665012
H156	H	1.729256	-0.301480	-0.646763
H157	H	1.835153	-0.305126	-0.692977
H158	H	1.650308	-0.245689	-0.727111
H159	H	1.756198	-0.249321	-0.773326
H160	H	1.631906	-0.381843	-1.074317
H161	H	1.631801	-0.073910	-0.538751
H162	H	1.389384	-0.518885	-1.182611
H163	H	1.389310	-0.518952	-0.826847
O164	O	1.378800	-0.524895	-1.048052
C165	C	1.319793	-0.558207	-1.089556
H166	H	1.362625	-0.564084	-1.143461
H167	H	1.240440	-0.526862	-1.090562
C168	C	1.252062	-0.621779	-0.994511
C169	C	1.304674	-0.629003	-1.060716
H170	H	1.242732	-0.665448	-0.976720
H171	H	1.291813	-0.599334	-0.966548
H172	H	1.185941	-0.595655	-0.995358
H173	H	1.370799	-0.655118	-1.059867
H174	H	1.264934	-0.651453	-1.088678
H175	H	1.115612	-0.494425	-0.494022
