data_functionalizedCrystal
_audit_creation_method	'MofGen! by Chris Wilmer'
_symmetry_space_group_name_H-M	'P1'
_symmetry_Int_Tables_number	1
_symmetry_cell_setting	triclinic
loop_
_symmetry_equiv_pos_as_xyz
  x,y,z
_cell_length_a	12.759399
_cell_length_b	12.594517
_cell_length_c	12.759393
_cell_angle_alpha	90.014978
_cell_angle_beta	90.031285
_cell_angle_gamma	90.015508
loop_
_atom_site_label
_atom_site_type_symbol
_atom_site_fract_x
_atom_site_fract_y
_atom_site_fract_z
Zn1	Zn	-0.418206	1.627278	0.593885
Zn2	Zn	-0.593924	1.627168	0.418206
Zn3	Zn	-0.418260	1.449279	0.418235
Zn4	Zn	-0.593843	1.449265	0.593858
O5	O	-0.506058	1.538248	0.506046
O6	O	-0.441526	1.776209	0.570580
O7	O	-0.570679	1.603531	0.271188
O8	O	-0.271232	1.472943	0.441559
O9	O	-0.570626	1.776128	0.441509
O10	O	-0.271192	1.603718	0.570608
O11	O	-0.441619	1.472837	0.271210
O12	O	-0.441540	1.300332	0.441533
O13	O	-0.570487	1.472919	0.740883
O14	O	-0.570540	1.300321	0.570562
O15	O	-0.441447	1.603704	0.740902
O16	O	-0.740935	1.603517	0.441483
O17	O	-0.740875	1.472813	0.570534
C18	C	-0.506038	1.261707	0.506048
C19	C	-0.506055	1.143401	0.506074
C20	C	-0.576345	1.003410	0.576123
C21	C	-0.601923	1.074179	0.480237
C22	C	-0.480523	1.074203	0.601950
C23	C	-0.531716	1.003385	0.410106
C24	C	-0.410272	1.003403	0.531884
C25	C	-0.435814	1.074141	0.435931
C26	C	-0.779026	1.538180	0.506025
C27	C	-0.895802	1.538249	0.506052
C28	C	-1.060396	1.470243	0.573226
C29	C	-0.950672	1.470178	0.573201
C30	C	-0.950662	1.606398	0.438931
C31	C	-1.060384	1.606469	0.438962
C32	C	-1.060401	1.391594	0.650743
C33	C	-0.950677	1.391528	0.650717
C34	C	-0.232025	1.538344	0.506089
C35	C	-0.115248	1.538385	0.506108
C36	C	-0.505952	1.538322	0.780079
C37	C	-0.505907	1.538354	0.896856
C38	C	-0.506079	1.815868	0.506044
C39	C	-0.506088	1.934174	0.506043
C40	C	-0.506088	1.538235	0.233078
C41	C	-0.505837	1.538409	0.116302
C42	C	-0.438710	1.606463	0.951730
C43	C	-0.438672	1.606488	1.061454
C44	C	-0.573038	1.470292	1.061421
C45	C	-0.573070	1.470263	0.951699
C46	C	-0.361137	1.685098	0.951750
C47	C	-0.361099	1.685123	1.061474
H48	H	-0.682938	1.105267	0.458386
H49	H	-0.905980	1.661831	0.384263
H50	H	-0.329280	0.972291	0.553761
N51	N	-0.453427	1.113228	0.703684
N52	N	-0.509277	1.090558	0.780965
H53	H	-0.490149	1.118117	0.852817
H54	H	-0.627717	1.414853	1.106087
H55	H	-0.376386	1.105001	0.376611
H56	H	-1.090090	1.413626	0.732144
H57	H	-0.553423	0.972409	0.328990
H58	H	-0.382892	1.767559	1.091248
H59	H	-1.105041	1.661965	0.384317
N60	N	-0.650959	0.964454	0.650356
N61	N	-0.745819	0.987157	0.640541
H62	H	-0.798518	0.959644	0.692962
H63	H	-1.094528	1.313329	0.621540
H64	H	-0.920989	1.309086	0.628848
N65	N	-0.907880	1.428491	0.747705
N66	N	-0.967584	1.456224	0.820360
H67	H	-0.937359	1.482332	0.888855
N68	N	-0.641702	1.400669	0.895662
N69	N	-0.701658	1.339880	0.944644
H70	H	-0.750131	1.290725	0.905069
H71	H	-0.279773	1.663045	0.921995
N72	N	-0.397732	1.783304	0.909053
N73	N	-0.425108	1.856874	0.968833
H74	H	-0.450958	1.926233	0.938679
H75	H	-0.283790	1.655630	1.095524
