data_functionalizedCrystal
_audit_creation_method	'MofGen! by Chris Wilmer'
_symmetry_space_group_name_H-M	'P1'
_symmetry_Int_Tables_number	1
_symmetry_cell_setting	triclinic
loop_
_symmetry_equiv_pos_as_xyz
  x,y,z
_cell_length_a	12.759401
_cell_length_b	13.032721
_cell_length_c	12.759393
_cell_angle_alpha	97.149226
_cell_angle_beta	89.979062
_cell_angle_gamma	97.205831
loop_
_atom_site_label
_atom_site_type_symbol
_atom_site_fract_x
_atom_site_fract_y
_atom_site_fract_z
Zn1	Zn	1.553113	-0.415945	-0.647098
Zn2	Zn	1.530669	-0.590725	-0.493722
Zn3	Zn	1.377404	-0.416001	-0.471441
Zn4	Zn	1.355078	-0.590652	-0.669350
O5	O	1.454066	-0.503331	-0.570403
O6	O	1.697156	-0.439137	-0.626765
O7	O	1.510289	-0.567601	-0.343752
O8	O	1.419449	-0.269756	-0.476105
O9	O	1.680666	-0.567547	-0.514080
O10	O	1.548541	-0.269715	-0.605160
O11	O	1.397686	-0.439232	-0.327382
O12	O	1.227423	-0.439161	-0.497681
O13	O	1.381397	-0.567423	-0.813412
O14	O	1.211019	-0.567477	-0.643084
O15	O	1.526892	-0.439067	-0.797064
O16	O	1.488640	-0.736953	-0.535656
O17	O	1.359634	-0.736899	-0.664689
C18	C	1.181100	-0.503318	-0.570380
C19	C	1.064321	-0.503338	-0.570399
C20	C	1.419307	-0.774844	-0.605028
C21	C	1.404533	-0.890999	-0.619876
C22	C	1.000932	-0.570253	-0.646017
C23	C	0.891208	-0.570257	-0.646038
C24	C	0.908271	-0.436427	-0.494813
C25	C	1.017994	-0.436419	-0.494797
C26	C	0.736520	-0.607755	-0.774684
C27	C	0.673126	-0.674687	-0.850295
C28	C	0.695691	-0.776671	-0.879257
C29	C	0.781646	-0.811745	-0.832595
C30	C	0.845034	-0.744819	-0.756977
C31	C	0.822472	-0.642819	-0.728033
C32	C	1.172682	-0.398932	-0.366152
C33	C	1.236072	-0.332010	-0.290528
C34	C	1.213509	-0.230024	-0.261555
C35	C	1.127550	-0.194954	-0.308199
C36	C	1.064160	-0.261875	-0.383823
C37	C	1.086731	-0.363861	-0.412798
C38	C	1.461832	-0.942776	-0.562700
C39	C	1.446564	-1.062828	-0.578045
C40	C	1.728097	-0.503344	-0.570426
C41	C	1.844873	-0.503350	-0.570436
C42	C	1.454157	-0.503230	-0.844423
C43	C	1.454196	-0.503188	-0.961194
C44	C	1.488989	-0.230757	-0.535665
C45	C	1.503872	-0.114602	-0.520862
C46	C	1.529962	-0.436342	-1.007544
C47	C	1.529986	-0.436297	-1.117263
C48	C	1.378473	-0.569952	-1.134273
C49	C	1.378446	-0.569991	-1.024556
C50	C	1.583354	-0.313001	-1.251507
C51	C	1.659135	-0.246164	-1.297862
C52	C	1.763696	-0.230139	-1.260226
C53	C	1.792494	-0.280966	-1.176238
C54	C	1.716717	-0.347811	-1.129890
C55	C	1.612145	-0.363816	-1.167522
C56	C	1.325089	-0.693289	-0.890309
C57	C	1.249316	-0.760139	-0.843960
C58	C	1.144752	-0.776175	-0.881596
C59	C	1.115955	-0.725366	-0.965589
C60	C	1.191728	-0.658516	-1.011938
C61	C	1.296291	-0.642479	-0.974295
C62	C	1.454045	-0.503355	-0.297438
C63	C	1.454247	-0.503104	-0.180630
H64	H	0.915016	-0.773375	-0.718985
C65	C	1.747956	-0.403183	-1.038846
C66	C	1.727777	-0.511150	-1.067355
C67	C	1.756556	-0.562187	-0.983511
H68	H	1.708039	-0.383618	-0.978416
H69	H	1.821097	-0.384141	-1.023073
H70	H	1.654650	-0.530185	-1.083113
H71	H	1.767692	-0.530746	-1.127771
H72	H	1.829696	-0.543145	-0.967739
H73	H	1.716636	-0.542613	-0.923087
H74	H	1.742878	-0.635447	-1.002846
C75	C	1.366212	-1.122159	-0.658639
C76	C	1.392404	-1.095606	-0.759241
C77	C	1.318419	-1.150251	-0.833510
H78	H	1.297827	-1.104443	-0.641092
H79	H	1.366655	-1.194964	-0.658338
H80	H	1.391950	-1.022817	-0.759540
H81	H	1.460776	-1.113324	-0.776821
H82	H	1.318862	-1.223056	-0.833208
H83	H	1.250039	-1.132532	-0.815953
H84	H	1.336185	-1.132250	-0.901778
C85	C	1.324185	-0.950334	-0.700466
C86	C	1.350377	-0.923780	-0.801067
C87	C	1.276392	-0.978426	-0.875337
H88	H	1.255800	-0.932618	-0.682918
H89	H	1.324628	-1.023138	-0.700164
H90	H	1.349923	-0.850992	-0.801367
H91	H	1.418749	-0.941499	-0.818648
H92	H	1.276835	-1.051231	-0.875035
H93	H	1.208012	-0.960706	-0.857779
H94	H	1.294158	-0.960425	-0.943604
H95	H	1.272774	-0.801520	-0.775576
H96	H	1.564240	-1.070058	-0.460551
H97	H	1.825397	-0.175719	-1.297975
C98	C	1.542237	-0.883517	-0.482124
C99	C	1.516071	-0.910107	-0.381530
C100	C	1.590123	-0.855550	-0.307277
H101	H	1.541869	-0.810706	-0.482356
H102	H	1.610594	-0.901300	-0.499753
H103	H	1.447732	-0.892317	-0.363906
H104	H	1.516447	-0.982908	-0.381264
H105	H	1.658480	-0.873333	-0.324905
H106	H	1.589749	-0.782743	-0.307518
H107	H	1.572385	-0.873591	-0.239017
C108	C	1.103021	-0.084198	-0.276967
C109	C	1.108371	-0.031169	-0.366128
C110	C	1.085768	0.070856	-0.337394
H111	H	1.153041	-0.049231	-0.225292
H112	H	1.034023	-0.085931	-0.248683
H113	H	1.177358	-0.029430	-0.394397
H114	H	1.058352	-0.066105	-0.417813
H115	H	1.016770	0.069123	-0.309110
H116	H	1.135791	0.105814	-0.285718
H117	H	1.089385	0.106846	-0.397886
C118	C	0.970898	-0.223889	-0.434678
C119	C	0.984861	-0.230361	-0.544042
C120	C	0.898964	-0.195392	-0.590926
H121	H	0.966445	-0.153557	-0.406725
H122	H	0.907606	-0.266128	-0.420261
H123	H	1.048136	-0.188121	-0.558451
H124	H	0.989301	-0.300682	-0.572025
H125	H	0.835672	-0.237631	-0.576509
H126	H	0.894519	-0.125062	-0.562965
H127	H	0.908422	-0.199787	-0.665135
H128	H	0.718147	-0.524707	-0.751118
C129	C	1.196963	-0.509743	-0.397586
C130	C	1.110190	-0.580131	-0.375081
C131	C	1.132514	-0.682218	-0.404029
H132	H	1.257178	-0.521198	-0.359002
H133	H	1.210735	-0.519797	-0.471086
H134	H	1.096431	-0.570083	-0.301594
H135	H	1.049965	-0.568710	-0.413662
H136	H	1.146286	-0.692272	-0.477529
H137	H	1.192730	-0.693662	-0.365443
H138	H	1.073639	-0.729989	-0.388772
H139	H	1.265125	-0.175540	-0.199968
H140	H	1.038649	-0.624740	-0.707579
H141	H	1.591640	-0.381943	-0.955958
H142	H	1.635678	-0.204781	-1.366245
C143	C	1.296281	-0.642656	-1.202957
C144	C	1.305884	-0.746061	-1.189426
C145	C	1.230178	-0.813067	-1.252668
H146	H	1.307064	-0.633204	-1.274974
H147	H	1.227619	-0.627426	-1.183003
H148	H	1.374529	-0.761285	-1.209386
H149	H	1.295089	-0.755546	-1.117423
H150	H	1.161516	-0.797838	-1.232714
H151	H	1.240968	-0.803606	-1.324681
H152	H	1.236677	-0.883234	-1.243488
C153	C	1.906068	-0.263399	-1.135499
C154	C	1.966260	-0.193962	-1.194047
C155	C	2.070886	-0.177741	-1.156535
H156	H	1.934344	-0.327909	-1.142679
H157	H	1.907933	-0.234968	-1.063154
H158	H	1.964399	-0.222396	-1.266374
H159	H	1.938017	-0.129440	-1.186873
H160	H	2.072751	-0.149310	-1.084190
H161	H	2.099151	-0.242255	-1.163717
H162	H	2.111737	-0.130620	-1.196247
C163	C	1.002362	-0.742867	-1.006274
C164	C	0.942161	-0.812263	-0.947688
C165	C	0.837512	-0.828405	-0.985128
H166	H	1.000402	-0.771301	-1.078606
H167	H	0.974163	-0.678303	-0.999060
H168	H	0.970353	-0.876814	-0.954912
H169	H	0.944090	-0.783848	-0.875355
H170	H	0.809312	-0.763841	-0.977915
H171	H	0.835562	-0.856835	-1.057461
H172	H	0.796650	-0.875483	-0.945378
C173	C	1.329282	-0.370076	-0.239662
C174	C	1.315265	-0.363641	-0.130307
C175	C	1.401099	-0.398700	-0.083407
H176	H	1.392615	-0.327892	-0.254014
H177	H	1.333669	-0.440420	-0.267666
H178	H	1.310890	-0.293309	-0.102312
H179	H	1.251949	-0.405826	-0.115924
H180	H	1.405486	-0.469044	-0.111411
H181	H	1.464427	-0.356513	-0.097767
H182	H	1.391597	-0.394348	-0.009206
C183	C	1.062625	-0.848762	-0.831103
C184	C	1.110214	-0.889821	-0.749481
C185	C	1.034588	-0.956677	-0.702939
H186	H	1.033976	-0.904018	-0.882736
H187	H	1.007697	-0.810995	-0.803247
H188	H	1.165123	-0.927587	-0.777338
H189	H	1.138857	-0.834590	-0.697826
H190	H	0.979660	-0.918910	-0.675083
H191	H	1.005944	-1.011926	-0.754580
H192	H	1.066864	-0.984536	-0.647547
H193	H	1.498212	-0.326034	-1.282152
H194	H	0.800003	-0.894796	-0.856175
H195	H	0.644067	-0.831167	-0.940823
H196	H	1.168273	-0.617145	-1.080330
H197	H	0.603142	-0.646120	-0.888287
H198	H	0.870537	-0.381946	-0.433260
H199	H	1.410231	-0.680230	-0.859652
