data_functionalizedCrystal
_audit_creation_method	'MofGen! by Chris Wilmer'
_symmetry_space_group_name_H-M	'P1'
_symmetry_Int_Tables_number	1
_symmetry_cell_setting	triclinic
loop_
_symmetry_equiv_pos_as_xyz
  x,y,z
_cell_length_a	18.215407
_cell_length_b	19.805404
_cell_length_c	18.215399
_cell_angle_alpha	90.028419
_cell_angle_beta	90.016899
_cell_angle_gamma	90.027052
loop_
_atom_site_label
_atom_site_type_symbol
_atom_site_fract_x
_atom_site_fract_y
_atom_site_fract_z
Zn1	Zn	1.125048	-0.269516	0.416056
Zn2	Zn	1.458381	0.063817	0.749389
Zn3	Zn	1.791714	0.397151	1.082722
Zn4	Zn	1.124946	-0.382707	0.292989
Zn5	Zn	1.458279	-0.049374	0.626322
Zn6	Zn	1.791613	0.283960	0.959655
Zn7	Zn	1.001980	-0.269532	0.293009
Zn8	Zn	1.335314	0.063801	0.626343
Zn9	Zn	1.668647	0.397134	0.959676
Zn10	Zn	1.001936	-0.382663	0.416020
Zn11	Zn	1.335270	-0.049330	0.749353
Zn12	Zn	1.668603	0.284003	1.082686
O13	O	1.063478	-0.326105	0.354518
O14	O	1.396811	0.007229	0.687852
O15	O	1.730144	0.340562	1.021185
O16	O	1.228019	-0.284543	0.399737
O17	O	1.561352	0.048791	0.733070
O18	O	1.894685	0.382124	1.066404
O19	O	1.108610	-0.367719	0.190007
O20	O	1.441944	-0.034386	0.523340
O21	O	1.775277	0.298948	0.856674
O22	O	1.018367	-0.174814	0.309356
O23	O	1.351700	0.158520	0.642689
O24	O	1.685033	0.491853	0.976022
O25	O	1.227944	-0.367703	0.309320
O26	O	1.561277	-0.034370	0.642653
O27	O	1.894611	0.298963	0.975987
O28	O	1.108784	-0.174802	0.399757
O29	O	1.442117	0.158532	0.733091
O30	O	1.775450	0.491865	1.066424
O31	O	1.018268	-0.284570	0.190022
O32	O	1.351601	0.048763	0.523356
O33	O	1.684935	0.382096	0.856689
O34	O	0.898990	-0.284528	0.309321
O35	O	1.232324	0.048805	0.642654
O36	O	1.565657	0.382139	0.975987
O37	O	1.018291	-0.367629	0.519009
O38	O	1.351625	-0.034296	0.852342
O39	O	1.684958	0.299038	1.185676
O40	O	0.898958	-0.367645	0.399696
O41	O	1.232291	-0.034312	0.733029
O42	O	1.565624	0.299022	1.066363
O43	O	1.108741	-0.284500	0.519035
O44	O	1.442074	0.048833	0.852369
O45	O	1.775408	0.382166	1.185702
O46	O	1.108568	-0.477418	0.309285
O47	O	1.441901	-0.144084	0.642618
O48	O	1.775234	0.189249	0.975952
O49	O	1.018193	-0.477386	0.399676
O50	O	1.351526	-0.144052	0.733009
O51	O	1.684859	0.189281	1.066342
C52	C	0.872271	-0.326084	0.354507
C53	C	1.205605	0.007249	0.687840
C54	C	1.538938	0.340583	1.021174
C55	C	0.790472	-0.326091	0.354520
C56	C	1.123806	0.007242	0.687853
C57	C	1.457139	0.340575	1.021186
C58	C	0.525417	-0.369455	0.401512
C59	C	0.858751	-0.036121	0.734845
C60	C	1.192084	0.297212	1.068179
C61	C	0.602276	-0.369449	0.401509
C62	C	0.935609	-0.036116	0.734842
C63	C	1.268943	0.297218	1.068175
C64	C	0.602279	-0.282770	0.307538
C65	C	0.935613	0.050564	0.640871
C66	C	1.268946	0.383897	0.974204
C67	C	0.525422	-0.282779	0.307538
C68	C	0.858755	0.050554	0.640871
C69	C	1.192089	0.383887	0.974205
C70	C	0.486993	-0.326121	0.354529
C71	C	0.820326	0.007212	0.687863
C72	C	1.153660	0.340546	1.021196
C73	C	0.640709	-0.326106	0.354525
C74	C	0.974042	0.007228	0.687859
C75	C	1.307376	0.340561	1.021192
C76	C	0.724043	-0.326099	0.354521
C77	C	1.057376	0.007234	0.687855
C78	C	1.390709	0.340568	1.021188
C79	C	0.403654	-0.326129	0.354533
C80	C	0.736987	0.007205	0.687866
C81	C	1.070321	0.340538	1.021200
C82	C	1.063384	-0.501961	0.354490
C83	C	1.396718	-0.168627	0.687823
C84	C	1.730051	0.164706	1.021157
C85	C	1.063412	-0.577193	0.354503
C86	C	1.396745	-0.243859	0.687836
C87	C	1.730078	0.089474	1.021169
C88	C	1.110717	-1.038978	0.307555
C89	C	1.444050	-0.705644	0.640888
C90	C	1.777383	-0.372311	0.974222
C91	C	1.110682	-0.968289	0.307541
C92	C	1.444015	-0.634956	0.640874
C93	C	1.777349	-0.301623	0.974207
C94	C	1.063574	-0.932954	0.354557
C95	C	1.396907	-0.599621	0.687891
C96	C	1.730241	-0.266288	1.021224
C97	C	1.016492	-0.968311	0.401586
C98	C	1.349826	-0.634978	0.734920
C99	C	1.683159	-0.301645	1.068253
C100	C	1.016524	-1.038999	0.401596
C101	C	1.349857	-0.705665	0.734930
C102	C	1.683190	-0.372332	1.068263
C103	C	1.016364	-0.683238	0.401546
C104	C	1.349698	-0.349905	0.734879
C105	C	1.683031	-0.016572	1.068212
C106	C	1.016338	-0.612546	0.401534
C107	C	1.349671	-0.279213	0.734867
C108	C	1.683005	0.054121	1.068200
C109	C	1.110523	-0.612529	0.307490
C110	C	1.443856	-0.279196	0.640824
C111	C	1.777189	0.054138	0.974157
C112	C	1.110554	-0.683216	0.307500
C113	C	1.443887	-0.349883	0.640834
C114	C	1.777221	-0.016549	0.974167
C115	C	1.063470	-0.718567	0.354526
C116	C	1.396803	-0.385234	0.687859
C117	C	1.730136	-0.051900	1.021193
C118	C	1.063507	-0.795215	0.354540
C119	C	1.396840	-0.461882	0.687873
C120	C	1.730173	-0.128549	1.021207
C121	C	1.063540	-0.856307	0.354548
C122	C	1.396874	-0.522974	0.687881
C123	C	1.730207	-0.189641	1.021214
C124	C	1.255431	-0.326126	0.354530
C125	C	1.588764	0.007207	0.687864
C126	C	1.922097	0.340541	1.021197
C127	C	1.337229	-0.326135	0.354535
C128	C	1.670563	0.007198	0.687869
C129	C	2.003896	0.340532	1.021202
C130	C	1.063522	-0.326058	0.546471
C131	C	1.396856	0.007275	0.879805
C132	C	1.730189	0.340609	1.213138
C133	C	1.063542	-0.326038	0.628270
C134	C	1.396875	0.007295	0.961604
C135	C	1.730208	0.340629	1.294937
C136	C	1.063591	-0.149562	0.354563
C137	C	1.396925	0.183771	0.687896
C138	C	1.730258	0.517105	1.021230
C139	C	1.063640	-0.074330	0.354582
C140	C	1.396973	0.259003	0.687915
C141	C	1.730307	0.592337	1.021249
C142	C	1.063475	-0.326102	0.163312
C143	C	1.396809	0.007231	0.496645
C144	C	1.730142	0.340564	0.829979
C145	C	1.063599	-0.325932	0.081514
C146	C	1.396932	0.007402	0.414847
C147	C	1.730265	0.340735	0.748180
C148	C	1.110656	-0.282712	0.816479
C149	C	1.443989	0.050621	1.149813
C150	C	1.777322	0.383954	1.483146
C151	C	1.110664	-0.282693	0.893338
C152	C	1.443998	0.050641	1.226671
C153	C	1.777331	0.383974	1.560005
C154	C	1.016480	-0.369259	0.893299
C155	C	1.349813	-0.035926	1.226633
C156	C	1.683146	0.297408	1.559966
C157	C	1.016468	-0.369275	0.816442
C158	C	1.349801	-0.035942	1.149775
C159	C	1.683134	0.297392	1.483109
C160	C	1.063560	-0.326003	0.778034
C161	C	1.396893	0.007331	1.111367
C162	C	1.730227	0.340664	1.444701
C163	C	1.063581	-0.325967	0.931750
C164	C	1.396914	0.007366	1.265083
C165	C	1.730247	0.340700	1.598417
C166	C	1.063590	-0.325946	1.015084
C167	C	1.396923	0.007387	1.348417
C168	C	1.730256	0.340721	1.681750
C169	C	1.063550	-0.326023	0.694695
C170	C	1.396883	0.007311	1.028028
C171	C	1.730217	0.340644	1.361362
H172	H	0.494131	-0.404746	0.439775
H173	H	0.827464	-0.071413	0.773109
H174	H	1.160797	0.261920	1.106442
H175	H	1.148859	-0.583739	0.269197
H176	H	1.482192	-0.250405	0.602530
H177	H	1.815526	0.082928	0.935863
C178	C	0.533139	-0.197091	0.214653
C179	C	0.866472	0.136242	0.547987
C180	C	1.199806	0.469576	0.881320
C181	C	0.483180	-0.235141	0.255892
C182	C	0.816513	0.098192	0.589226
C183	C	1.149847	0.431525	0.922559
H184	H	0.507059	-0.167682	0.182774
H185	H	0.840392	0.165652	0.516107
H186	H	1.173725	0.498985	0.849440
H187	H	0.563096	-0.226544	0.186448
H188	H	0.896429	0.106789	0.519781
H189	H	1.229762	0.440123	0.853115
H190	H	0.563137	-0.171233	0.246772
H191	H	0.896470	0.162100	0.580106
H192	H	1.229803	0.495434	0.913439
H193	H	0.453186	-0.261003	0.223773
H194	H	0.786519	0.072330	0.557107
H195	H	1.119853	0.405663	0.890440
H196	H	0.453211	-0.205685	0.284100
H197	H	0.786544	0.127649	0.617433
H198	H	1.119877	0.460982	0.950766
C199	C	0.923374	-0.454851	0.824117
C200	C	1.256708	-0.121518	1.157451
C201	C	1.590041	0.211816	1.490784
C202	C	0.964699	-0.416866	0.774177
C203	C	1.298032	-0.083533	1.107510
C204	C	1.631366	0.249800	1.440843
H205	H	0.891419	-0.484232	0.798023
H206	H	1.224752	-0.150898	1.131356
H207	H	1.558086	0.182435	1.464689
H208	H	0.895246	-0.425355	0.854097
H209	H	1.228579	-0.092021	1.187431
H210	H	1.561912	0.241312	1.520764
H211	H	0.955435	-0.480737	0.854093
H212	H	1.288768	-0.147403	1.187426
H213	H	1.622101	0.185930	1.520760
H214	H	0.932638	-0.390977	0.744204
H215	H	1.265972	-0.057643	1.077538
H216	H	1.599305	0.275690	1.410871
H217	H	0.992830	-0.446366	0.744184
H218	H	1.326163	-0.113033	1.077517
H219	H	1.659496	0.220300	1.410851
H220	H	1.149081	-1.067743	0.269273
H221	H	1.482415	-0.734409	0.602606
H222	H	1.815748	-0.401076	0.935939
C223	C	0.594548	-0.455120	0.494401
C224	C	0.927881	-0.121786	0.827735
C225	C	1.261214	0.211547	1.161068
C226	C	0.644512	-0.417080	0.453157
C227	C	0.977845	-0.083746	0.786491
C228	C	1.311179	0.249587	1.119824
H229	H	0.620624	-0.484523	0.526291
H230	H	0.953957	-0.151190	0.859624
H231	H	1.287290	0.182144	1.192957
H232	H	0.564552	-0.480977	0.462291
H233	H	0.897885	-0.147644	0.795624
H234	H	1.231219	0.185689	1.128958
H235	H	0.564589	-0.425655	0.522603
H236	H	0.897923	-0.092322	0.855936
H237	H	1.231256	0.241012	1.189270
H238	H	0.674467	-0.446544	0.424951
H239	H	1.007800	-0.113211	0.758285
H240	H	1.341133	0.220122	1.091618
H241	H	0.674520	-0.391220	0.485272
H242	H	1.007853	-0.057887	0.818605
H243	H	1.341187	0.275447	1.151938
H244	H	1.148917	-0.711982	0.269217
H245	H	1.482250	-0.378649	0.602550
H246	H	1.815583	-0.045316	0.935884
H247	H	0.978132	-0.939538	0.439865
H248	H	1.311466	-0.606204	0.773199
H249	H	1.644799	-0.272871	1.106532
C250	C	1.203800	-0.975373	0.214597
C251	C	1.537133	-0.642039	0.547931
C252	C	1.870467	-0.308706	0.881264
C253	C	1.162438	-0.929430	0.255855
C254	C	1.495771	-0.596097	0.589188
C255	C	1.829105	-0.262764	0.922522
H256	H	1.235757	-0.951381	0.182692
H257	H	1.569090	-0.618048	0.516025
H258	H	1.902423	-0.284715	0.849359
H259	H	1.171769	-1.002983	0.186419
H260	H	1.505102	-0.669649	0.519752
H261	H	1.838435	-0.336316	0.853085
H262	H	1.231936	-1.002904	0.246703
H263	H	1.565269	-0.669571	0.580037
H264	H	1.898602	-0.336237	0.913370
H265	H	1.134298	-0.901902	0.223749
H266	H	1.467632	-0.568569	0.557082
H267	H	1.800965	-0.235236	0.890416
H268	H	1.194474	-0.901809	0.284036
H269	H	1.527807	-0.568475	0.617369
H270	H	1.861140	-0.235142	0.950702
H271	H	0.633578	-0.247482	0.269280
H272	H	0.966911	0.085852	0.602613
H273	H	1.300244	0.419185	0.935947
H274	H	1.149013	-0.247440	0.924637
H275	H	1.482347	0.085893	1.257970
H276	H	1.815680	0.419226	1.591304
H277	H	0.977974	-0.583777	0.439821
H278	H	1.311308	-0.250444	0.773155
H279	H	1.644641	0.082889	1.106488
C280	C	0.923267	-0.676145	0.494509
C281	C	1.256600	-0.342811	0.827842
C282	C	1.589934	-0.009478	1.161175
C283	C	0.964615	-0.722090	0.453241
C284	C	1.297948	-0.388757	0.786574
C285	C	1.631282	-0.055423	1.119908
H286	H	0.891322	-0.700134	0.526427
H287	H	1.224655	-0.366801	0.859761
H288	H	1.557988	-0.033467	1.193094
H289	H	0.895127	-0.648616	0.462415
H290	H	1.228460	-0.315283	0.795749
H291	H	1.561793	0.018050	1.129082
H292	H	0.955313	-0.648532	0.522680
H293	H	1.288646	-0.315199	0.856014
H294	H	1.621980	0.018134	1.189347
H295	H	0.932569	-0.749699	0.425065
H296	H	1.265902	-0.416366	0.758398
H297	H	1.599236	-0.083033	1.091732
H298	H	0.992757	-0.749630	0.485338
H299	H	1.326091	-0.416297	0.818672
H300	H	1.659424	-0.082963	1.152005
C301	C	1.120917	-0.191686	0.730076
C302	C	1.454250	0.141647	1.063409
C303	C	1.787583	0.474980	1.396742
C304	C	1.162410	-0.235141	0.774260
C305	C	1.495743	0.098192	1.107593
C306	C	1.829077	0.431526	1.440927
H307	H	1.152869	-0.162319	0.704011
H308	H	1.486202	0.171015	1.037344
H309	H	1.819535	0.504348	1.370677
H310	H	1.088877	-0.165793	0.760063
H311	H	1.422211	0.167540	1.093397
H312	H	1.755544	0.500874	1.426730
H313	H	1.092872	-0.217479	0.696179
H314	H	1.426206	0.115854	1.029512
H315	H	1.759539	0.449187	1.362846
H316	H	1.190450	-0.209348	0.808161
H317	H	1.523784	0.123985	1.141494
H318	H	1.857117	0.457318	1.474827
H319	H	1.194462	-0.261037	0.744270
H320	H	1.527796	0.072297	1.077603
H321	H	1.861129	0.405630	1.410936
H322	H	0.978193	-1.067781	0.439894
H323	H	1.311526	-0.734448	0.773227
H324	H	1.644859	-0.401115	1.106561
H325	H	0.978140	-0.404491	0.924580
H326	H	1.311474	-0.071158	1.257914
H327	H	1.644807	0.262175	1.591247
