data_functionalizedCrystal
_audit_creation_method	'MofGen! by Chris Wilmer'
_symmetry_space_group_name_H-M	'P1'
_symmetry_Int_Tables_number	1
_symmetry_cell_setting	triclinic
loop_
_symmetry_equiv_pos_as_xyz
  x,y,z
_cell_length_a	16.959454
_cell_length_b	19.077105
_cell_length_c	16.959455
_cell_angle_alpha	92.299293
_cell_angle_beta	90.010582
_cell_angle_gamma	87.716588
loop_
_atom_site_label
_atom_site_type_symbol
_atom_site_fract_x
_atom_site_fract_y
_atom_site_fract_z
Zn1	Zn	-0.363425	1.075880	0.495439
Zn2	Zn	-0.030091	1.409213	0.828773
Zn3	Zn	0.303242	1.742546	1.162106
Zn4	Zn	-0.495578	1.075837	0.363267
Zn5	Zn	-0.162244	1.409170	0.696601
Zn6	Zn	0.171089	1.742504	1.029934
Zn7	Zn	-0.358101	0.958218	0.357972
Zn8	Zn	-0.024767	1.291551	0.691305
Zn9	Zn	0.308566	1.624884	1.024638
Zn10	Zn	-0.490244	0.958160	0.490100
Zn11	Zn	-0.156910	1.291493	0.823433
Zn12	Zn	0.176423	1.624827	1.156766
O13	O	-0.426837	1.017024	0.426695
O14	O	-0.093503	1.350357	0.760028
O15	O	0.239830	1.683690	1.093361
O16	O	-0.385415	1.174364	0.482357
O17	O	-0.052082	1.507697	0.815691
O18	O	0.281251	1.841031	1.149024
O19	O	-0.477345	1.060241	0.251954
O20	O	-0.144012	1.393574	0.585288
O21	O	0.189321	1.726907	0.918621
O22	O	-0.248198	0.973868	0.376225
O23	O	0.085136	1.307201	0.709559
O24	O	0.418469	1.640535	1.042892
O25	O	-0.482508	1.174333	0.385251
O26	O	-0.149175	1.507666	0.718584
O27	O	0.184159	1.840999	1.051918
O28	O	-0.252109	1.060314	0.477222
O29	O	0.081224	1.393647	0.810556
O30	O	0.414557	1.726980	1.143889
O31	O	-0.376341	0.973826	0.248064
O32	O	-0.043008	1.307160	0.581397
O33	O	0.290325	1.640493	0.914730
O34	O	-0.371169	0.859720	0.371048
O35	O	-0.037836	1.193053	0.704381
O36	O	0.295498	1.526387	1.037714
O37	O	-0.473417	0.973770	0.601419
O38	O	-0.140083	1.307103	0.934752
O39	O	0.193250	1.640436	1.268085
O40	O	-0.468254	0.859678	0.468122
O41	O	-0.134921	1.193011	0.801455
O42	O	0.198412	1.526344	1.134788
O43	O	-0.380243	1.060258	0.605342
O44	O	-0.046910	1.393591	0.938675
O45	O	0.286423	1.726924	1.272008
O46	O	-0.605479	1.060185	0.380073
O47	O	-0.272146	1.393518	0.713407
O48	O	0.061187	1.726851	1.046740
O49	O	-0.601560	0.973728	0.473257
O50	O	-0.268227	1.307062	0.806590
O51	O	0.065106	1.640395	1.139923
C52	C	-0.418556	0.834162	0.418431
C53	C	-0.085222	1.167495	0.751765
C54	C	0.248111	1.500828	1.085098
C55	C	-0.415032	0.755932	0.414915
C56	C	-0.081699	1.089266	0.748248
C57	C	0.251635	1.422599	1.081581
C58	C	-0.632200	1.016965	0.426678
C59	C	-0.298867	1.350298	0.760012
C60	C	0.034466	1.683631	1.093345
C61	C	-0.720059	1.017004	0.426701
C62	C	-0.386725	1.350337	0.760034
C63	C	-0.053392	1.683670	1.093368
C64	C	-0.464000	0.719176	0.463725
C65	C	-0.130667	1.052510	0.797058
C66	C	0.202667	1.385843	1.130391
C67	C	-0.460679	0.645672	0.460424
C68	C	-0.127345	0.979005	0.793758
C69	C	0.205988	1.312338	1.127091
C70	C	-0.408393	0.608924	0.408310
C71	C	-0.075060	0.942258	0.741643
C72	C	0.258274	1.275591	1.074977
C73	C	-0.359420	0.645685	0.359498
C74	C	-0.026087	0.979019	0.692831
C75	C	0.307247	1.312352	1.026165
C76	C	-0.362738	0.719189	0.362803
C77	C	-0.029404	1.052522	0.696136
C78	C	0.303929	1.385855	1.029470
C79	C	-0.393038	0.389093	0.393019
C80	C	-0.059705	0.722427	0.726352
C81	C	0.273629	1.055760	1.059686
C82	C	-0.389726	0.315585	0.389716
C83	C	-0.056392	0.648918	0.723049
C84	C	0.276941	0.982252	1.056383
C85	C	-0.490984	0.315576	0.490644
C86	C	-0.157650	0.648910	0.823977
C87	C	0.175683	0.982243	1.157311
C88	C	-0.494300	0.389081	0.493941
C89	C	-0.160967	0.722414	0.827274
C90	C	0.172366	1.055748	1.160607
C91	C	-0.445324	0.425836	0.445132
C92	C	-0.111991	0.759169	0.778465
C93	C	0.221342	1.092502	1.111799
N94	N	-0.404999	0.533791	0.404934
N95	N	-0.071665	0.867124	0.738267
N96	N	0.261668	1.200457	1.071600
N97	N	-0.448715	0.500968	0.448513
N98	N	-0.115382	0.834301	0.781846
N99	N	0.217952	1.167635	1.115179
C100	C	-1.089527	0.972071	0.475213
C101	C	-0.756194	1.305404	0.808546
C102	C	-0.422861	1.638738	1.141879
C103	C	-1.093552	1.062172	0.378266
C104	C	-0.760218	1.395506	0.711599
C105	C	-0.426885	1.728839	1.044932
C106	C	-1.011005	1.062148	0.378257
C107	C	-0.677671	1.395481	0.711591
C108	C	-0.344338	1.728814	1.044924
C109	C	-0.967715	1.017083	0.426726
C110	C	-0.634382	1.350417	0.760060
C111	C	-0.301048	1.683750	1.093393
C112	C	-1.006973	0.972044	0.475204
C113	C	-0.673639	1.305377	0.808537
C114	C	-0.340306	1.638710	1.141871
C115	C	-0.971741	1.107182	0.329775
C116	C	-0.638407	1.440515	0.663108
C117	C	-0.305074	1.773848	0.996442
C118	C	-0.889189	1.107158	0.329764
C119	C	-0.555855	1.440492	0.663097
C120	C	-0.222522	1.773825	0.996431
C121	C	-0.845898	1.062097	0.378238
C122	C	-0.512565	1.395430	0.711571
C123	C	-0.179231	1.728764	1.044904
C124	C	-0.885160	1.017056	0.426718
C125	C	-0.551827	1.350389	0.760051
C126	C	-0.218494	1.683723	1.093385
C127	C	-0.841871	0.971991	0.475187
C128	C	-0.508538	1.305325	0.808520
C129	C	-0.175204	1.638658	1.141854
C130	C	-0.881132	0.926953	0.523672
C131	C	-0.547799	1.260287	0.857005
C132	C	-0.214465	1.593620	1.190338
C133	C	-0.963682	0.926982	0.523678
C134	C	-0.630348	1.260315	0.857011
C135	C	-0.297015	1.593649	1.190344
C136	C	-0.763348	1.062068	0.378232
C137	C	-0.430015	1.395402	0.711565
C138	C	-0.096681	1.728735	1.044898
C139	C	-0.759316	0.971964	0.475178
C140	C	-0.425983	1.305297	0.808512
C141	C	-0.092649	1.638631	1.141845
C142	C	-0.220672	1.017102	0.426729
C143	C	0.112661	1.350435	0.760062
C144	C	0.445995	1.683769	1.093396
C145	C	-0.132817	1.017135	0.426743
C146	C	0.200516	1.350469	0.760077
C147	C	0.533850	1.683802	1.093410
C148	C	-0.426829	1.017012	0.632862
C149	C	-0.093496	1.350345	0.966196
C150	C	0.239838	1.683679	1.299529
C151	C	-0.426826	1.017007	0.720719
C152	C	-0.093492	1.350340	1.054052
C153	C	0.239841	1.683674	1.387385
C154	C	-0.435151	1.200600	0.434991
C155	C	-0.101817	1.533933	0.768324
C156	C	0.231516	1.867266	1.101657
C157	C	-0.438693	1.278829	0.438526
C158	C	-0.105360	1.612162	0.771859
C159	C	0.227973	1.945496	1.105193
C160	C	-0.475359	0.971987	1.090155
C161	C	-0.142025	1.305320	1.423488
C162	C	0.191308	1.638654	1.756821
C163	C	-0.378336	1.062048	1.094235
C164	C	-0.045003	1.395381	1.427568
C165	C	0.288330	1.728715	1.760901
C166	C	-0.378330	1.062046	1.011689
C167	C	-0.044996	1.395379	1.345022
C168	C	0.288337	1.728712	1.678355
C169	C	-0.426839	1.017014	0.968372
C170	C	-0.093506	1.350347	1.301705
C171	C	0.239828	1.683681	1.635038
C172	C	-0.475355	0.971985	1.007601
C173	C	-0.142022	1.305318	1.340934
C174	C	0.191312	1.638652	1.674268
C175	C	-0.329820	1.107079	0.972454
C176	C	0.003513	1.440412	1.305787
C177	C	0.336846	1.773746	1.639120
C178	C	-0.329812	1.107079	0.889903
C179	C	0.003521	1.440412	1.223236
C180	C	0.336854	1.773746	1.556569
C181	C	-0.378318	1.062043	0.846584
C182	C	-0.044985	1.395377	1.179917
C183	C	0.288348	1.728710	1.513251
C184	C	-0.426836	1.017012	0.885818
C185	C	-0.093502	1.350345	1.219152
C186	C	0.239831	1.683678	1.552485
C187	C	-0.475345	0.971980	0.842501
C188	C	-0.142012	1.305314	1.175835
C189	C	0.191322	1.638647	1.509168
C190	C	-0.523859	0.926945	0.881734
C191	C	-0.190525	1.260278	1.215067
C192	C	0.142808	1.593611	1.548400
C193	C	-0.523861	0.926949	0.964282
C194	C	-0.190528	1.260283	1.297616
C195	C	0.142806	1.593616	1.630949
C196	C	-0.378316	1.062039	0.764035
C197	C	-0.044983	1.395372	1.097369
C198	C	0.288351	1.728705	1.430702
C199	C	-0.475342	0.971978	0.759948
C200	C	-0.142008	1.305311	1.093281
C201	C	0.191325	1.638645	1.426614
C202	C	-0.426858	1.017026	1.221328
C203	C	-0.093525	1.350359	1.554662
C204	C	0.239809	1.683693	1.887995
C205	C	-0.426849	1.017019	1.133471
C206	C	-0.093516	1.350352	1.466805
C207	C	0.239818	1.683685	1.800138
H208	H	-0.506579	0.749091	0.506159
H209	H	-0.173246	1.082424	0.839493
H210	H	0.160088	1.415758	1.172826
H211	H	-0.724075	0.935270	0.514651
H212	H	-0.390741	1.268603	0.847984
H213	H	-0.057408	1.601936	1.181318
Br214	Br	-0.589697	0.865839	0.822937
Br215	Br	-0.256364	1.199172	1.156270
Br216	Br	0.076969	1.532505	1.489604
H217	H	-1.006993	1.143865	0.290308
H218	H	-0.673659	1.477199	0.623641
H219	H	-0.340326	1.810532	0.956975
Br220	Br	-0.312514	1.123166	1.153022
Br221	Br	0.020820	1.456500	1.486355
Br222	Br	0.354153	1.789833	1.819689
Br223	Br	-0.822372	0.865792	0.589443
Br224	Br	-0.489039	1.199125	0.922776
Br225	Br	-0.155706	1.532458	1.256109
H226	H	-0.995656	0.890314	0.563151
H227	H	-0.662322	1.223647	0.896484
H228	H	-0.328989	1.556981	1.229817
Br229	Br	-0.326566	0.438965	0.326782
Br230	Br	0.006768	0.772299	0.660116
Br231	Br	0.340101	1.105632	0.993449
H232	H	-0.347139	0.285667	0.347283
H233	H	-0.013806	0.619000	0.680616
H234	H	0.319527	0.952334	1.013950
H235	H	-0.514855	0.935318	1.122101
H236	H	-0.181522	1.268652	1.455434
H237	H	0.151812	1.601985	1.788768
H238	H	-0.290309	1.143749	0.857967
H239	H	0.043024	1.477083	1.191300
H240	H	0.376358	1.810416	1.524633
Br241	Br	-1.142807	0.910956	0.541016
Br242	Br	-0.809473	1.244289	0.874350
Br243	Br	-0.476140	1.577623	1.207683
Br244	Br	-1.152301	1.123327	0.312488
Br245	Br	-0.818968	1.456660	0.645822
Br246	Br	-0.485635	1.789994	0.979155
H247	H	-0.857227	1.143831	0.290286
H248	H	-0.523894	1.477164	0.623620
H249	H	-0.190561	1.810498	0.956953
H250	H	-0.500554	0.615748	0.500170
H251	H	-0.167221	0.949082	0.833503
H252	H	0.166112	1.282415	1.166836
Br253	Br	-0.710067	1.123176	0.312425
Br254	Br	-0.376734	1.456509	0.645759
Br255	Br	-0.043401	1.789843	0.979092
H256	H	-0.514837	0.935301	0.724684
H257	H	-0.181504	1.268634	1.058018
H258	H	0.151830	1.601968	1.391351
H259	H	-0.536878	0.418996	0.536376
H260	H	-0.203545	0.752329	0.869709
H261	H	0.129788	1.085663	1.203043
Br262	Br	-0.589698	0.865838	1.017531
Br263	Br	-0.256365	1.199171	1.350864
Br264	Br	0.076969	1.532504	1.684197
Br265	Br	-0.312490	1.123160	0.710795
Br266	Br	0.020844	1.456493	1.044128
Br267	Br	0.354177	1.789826	1.377461
H268	H	-0.530856	0.285643	0.530382
H269	H	-0.197523	0.618976	0.863716
H270	H	0.135811	0.952309	1.197049
Br271	Br	-0.263999	1.168197	1.031243
Br272	Br	0.069334	1.501530	1.364577
Br273	Br	0.402668	1.834863	1.697910
H274	H	-0.316845	0.615760	0.317069
H275	H	0.016489	0.949093	0.650402
H276	H	0.349822	1.282426	0.983735
H277	H	-0.322859	0.749114	0.323061
H278	H	0.010475	1.082448	0.656394
H279	H	0.343808	1.415781	0.989728
