data_functionalizedCrystal
_audit_creation_method	'MofGen! by Chris Wilmer'
_symmetry_space_group_name_H-M	'P1'
_symmetry_Int_Tables_number	1
_symmetry_cell_setting	triclinic
loop_
_symmetry_equiv_pos_as_xyz
  x,y,z
_cell_length_a	21.395364
_cell_length_b	13.032721
_cell_length_c	21.395355
_cell_angle_alpha	97.165964
_cell_angle_beta	89.975448
_cell_angle_gamma	97.219379
loop_
_atom_site_label
_atom_site_type_symbol
_atom_site_fract_x
_atom_site_fract_y
_atom_site_fract_z
Zn1	Zn	0.926244	-0.415770	-0.385921
Zn2	Zn	1.426244	0.084230	0.114079
Zn3	Zn	0.912860	-0.590511	-0.294450
Zn4	Zn	1.412860	-0.090511	0.205550
Zn5	Zn	0.821456	-0.415816	-0.281161
Zn6	Zn	1.321456	0.084184	0.218839
Zn7	Zn	0.808140	-0.590529	-0.399191
Zn8	Zn	1.308140	-0.090529	0.100809
O9	O	0.867175	-0.503157	-0.340181
O10	O	1.367175	-0.003157	0.159819
O11	O	1.012149	-0.438923	-0.373795
O12	O	1.512149	0.061077	0.126205
O13	O	0.900706	-0.567348	-0.205010
O14	O	1.400706	-0.067348	0.294990
O15	O	0.846531	-0.269562	-0.283943
O16	O	1.346531	0.230438	0.216057
O17	O	1.002315	-0.567304	-0.306591
O18	O	1.502315	-0.067304	0.193409
O19	O	0.923518	-0.269529	-0.360910
O20	O	1.423518	0.230471	0.139090
O21	O	0.833552	-0.439001	-0.195247
O22	O	1.333552	0.060999	0.304753
O23	O	0.732010	-0.439019	-0.296811
O24	O	1.232010	0.060981	0.203189
O25	O	0.823836	-0.567336	-0.485108
O26	O	1.323836	-0.067336	0.014892
O27	O	0.722226	-0.567380	-0.383527
O28	O	1.222226	-0.067380	0.116473
O29	O	0.910606	-0.438941	-0.475359
O30	O	1.410606	0.061059	0.024641
O31	O	0.887794	-0.736761	-0.319459
O32	O	1.387794	-0.236761	0.180541
O33	O	0.810857	-0.736775	-0.396412
O34	O	1.310857	-0.236775	0.103588
C35	C	0.704383	-0.503207	-0.340167
C36	C	1.204383	-0.003207	0.159833
C37	C	0.634739	-0.503254	-0.340178
C38	C	1.134739	-0.003254	0.159822
C39	C	0.607160	-0.436516	-0.375241
C40	C	1.107160	0.063484	0.124759
C41	C	0.541727	-0.436488	-0.375242
C42	C	1.041727	0.063512	0.124758
C43	C	0.503873	-0.503217	-0.340187
C44	C	1.003873	-0.003217	0.159813
C45	C	0.531459	-0.569961	-0.305116
C46	C	1.031459	-0.069961	0.194884
C47	C	0.596892	-0.569979	-0.305112
C48	C	1.096892	-0.069979	0.194888
C49	C	0.392992	-0.597334	-0.342316
C50	C	0.892992	-0.097334	0.157684
C51	C	0.327561	-0.597318	-0.342325
C52	C	0.827561	-0.097318	0.157675
C53	C	0.302057	-0.503160	-0.340196
C54	C	0.802057	-0.003160	0.159804
C55	C	0.341993	-0.409016	-0.338072
C56	C	0.841993	0.090984	0.161928
C57	C	0.407426	-0.409034	-0.338068
C58	C	0.907426	0.090966	0.161932
C59	C	0.432922	-0.503204	-0.340187
C60	C	0.932922	-0.003204	0.159813
C61	C	0.203528	-0.436385	-0.375262
C62	C	0.703528	0.063615	0.124738
C63	C	0.138094	-0.436356	-0.375257
C64	C	0.638094	0.063644	0.124743
C65	C	0.127827	-0.569838	-0.305136
C66	C	0.627827	-0.069838	0.194864
C67	C	0.193261	-0.569858	-0.305136
C68	C	0.693261	-0.069858	0.194864
C69	C	0.231108	-0.503133	-0.340202
C70	C	0.731108	-0.003133	0.159798
C71	C	0.846445	-0.774688	-0.360831
C72	C	1.346445	-0.274688	0.139169
C73	C	0.837634	-0.890850	-0.369686
C74	C	1.337634	-0.390850	0.130314
C75	C	0.871807	-0.942598	-0.335588
C76	C	1.371807	-0.442598	0.164412
C77	C	0.862701	-1.062658	-0.344739
C78	C	1.362701	-0.562658	0.155261
C79	C	1.030602	-0.503106	-0.340195
C80	C	1.530602	-0.003106	0.159805
C81	C	1.100245	-0.503085	-0.340201
C82	C	1.600245	-0.003085	0.159799
C83	C	0.867229	-0.503135	-0.503603
C84	C	1.367229	-0.003135	-0.003603
C85	C	0.867251	-0.503126	-0.573243
C86	C	1.367251	-0.003126	-0.073243
C87	C	0.888003	-0.230565	-0.319464
C88	C	1.388003	0.269435	0.180536
C89	C	0.896878	-0.114402	-0.310636
C90	C	1.396878	0.385598	0.189364
C91	C	0.912432	-0.436268	-0.600881
C92	C	1.412432	0.063732	-0.100881
C93	C	0.912434	-0.436223	-0.666313
C94	C	1.412434	0.063777	-0.166313
C95	C	0.867262	-0.503055	-0.704106
C96	C	1.367262	-0.003055	-0.204106
C97	C	0.822074	-0.569918	-0.676461
C98	C	1.322074	-0.069918	-0.176461
C99	C	0.822068	-0.569953	-0.611030
C100	C	1.322068	-0.069953	-0.111030
C101	C	0.855130	-0.597159	-0.814938
C102	C	1.355130	-0.097159	-0.314938
C103	C	0.855140	-0.597125	-0.880368
C104	C	1.355140	-0.097125	-0.380368
C105	C	0.867274	-0.502945	-0.905919
C106	C	1.367274	-0.002945	-0.405919
C107	C	0.879412	-0.408796	-0.866031
C108	C	1.379412	0.091204	-0.366031
C109	C	0.879407	-0.408831	-0.800599
C110	C	1.379407	0.091169	-0.300599
C111	C	0.867262	-0.503023	-0.775056
C112	C	1.367262	-0.003023	-0.275056
C113	C	0.912459	-0.436032	-1.004505
C114	C	1.412459	0.063968	-0.504505
C115	C	0.912458	-0.435986	-1.069938
C116	C	1.412458	0.064014	-0.569938
C117	C	0.822100	-0.569689	-1.080086
C118	C	1.322100	-0.069689	-0.580086
C119	C	0.822099	-0.569727	-1.014653
C120	C	1.322099	-0.069727	-0.514653
C121	C	0.867282	-0.502900	-0.976867
C122	C	1.367282	-0.002900	-0.476867
C123	C	0.867163	-0.503102	-0.177389
C124	C	1.367163	-0.003102	0.322611
C125	C	0.867284	-0.502817	-0.107727
C126	C	1.367284	-0.002817	0.392273
H127	H	0.637971	-0.382182	-0.403795
H128	H	1.137971	0.117818	0.096205
F129	F	0.892330	-0.308554	-0.893218
F130	F	1.392330	0.191446	-0.393218
H131	H	0.907807	-0.898019	-0.299622
H132	H	1.407807	-0.398019	0.200378
H133	H	0.785292	-0.624329	-0.707237
H134	H	1.285292	-0.124329	-0.207237
H135	H	0.826704	-1.107234	-0.380712
H136	H	1.326704	-0.607234	0.119288
H137	H	0.619346	-0.624328	-0.276558
H138	H	1.119346	-0.124328	0.223442
F139	F	0.842229	-0.697407	-0.787752
F140	F	1.342229	-0.197407	-0.287752
H141	H	0.519268	-0.382136	-0.403793
H142	H	1.019268	0.117864	0.096207
F143	F	0.243810	-0.365366	-0.412578
F144	F	0.743810	0.134634	0.087422
H145	H	0.932881	-1.069827	-0.274667
H146	H	1.432881	-0.569827	0.225333
F147	F	0.790585	-0.949115	-0.416703
F148	F	1.290585	-0.449115	0.083297
F149	F	0.960517	-0.365140	-0.560669
F150	F	1.460517	0.134860	-0.060669
H151	H	0.949224	-0.381774	-0.688819
H152	H	1.449224	0.118226	-0.188819
F153	F	0.892322	-0.308634	-0.758150
F154	F	1.392322	0.191366	-0.258150
F155	F	0.960544	-0.364906	-0.964287
F156	F	1.460544	0.135094	-0.464287
F157	F	0.491173	-0.640975	-0.267806
F158	F	0.991173	-0.140975	0.232194
H159	H	0.949248	-0.381536	-1.092438
H160	H	1.449248	0.118464	-0.592438
H161	H	0.785314	-0.624094	-1.110856
H162	H	1.285314	-0.124094	-0.610856
F163	F	0.774013	-0.640891	-0.985239
F164	F	1.274013	-0.140891	-0.485239
H165	H	0.845260	-0.673787	-0.912840
H166	H	1.345260	-0.173787	-0.412840
H167	H	0.439939	-0.332379	-0.336336
H168	H	0.939939	0.167621	0.163664
F169	F	0.314856	-0.308798	-0.335806
F170	F	0.814856	0.191202	0.164194
H171	H	0.115642	-0.382003	-0.403809
H172	H	0.615642	0.117997	0.096191
F173	F	0.087546	-0.640851	-0.267823
F174	F	0.587546	-0.140851	0.232177
H175	H	0.785275	-0.624396	-0.588528
H176	H	1.285275	-0.124396	-0.088528
H177	H	0.215715	-0.624208	-0.276587
H178	H	0.715715	-0.124208	0.223413
F179	F	0.285063	-0.697514	-0.344595
F180	F	0.785063	-0.197514	0.155405
H181	H	0.413751	-0.674014	-0.344049
H182	H	0.913751	-0.174014	0.155951
