data_functionalizedCrystal
_audit_creation_method	'MofGen! by Chris Wilmer'
_symmetry_space_group_name_H-M	'P1'
_symmetry_Int_Tables_number	1
_symmetry_cell_setting	triclinic
loop_
_symmetry_equiv_pos_as_xyz
  x,y,z
_cell_length_a	17.077404
_cell_length_b	10.686203
_cell_length_c	17.077396
_cell_angle_alpha	85.611112
_cell_angle_beta	90.019501
_cell_angle_gamma	94.365430
loop_
_atom_site_label
_atom_site_type_symbol
_atom_site_fract_x
_atom_site_fract_y
_atom_site_fract_z
Zn1	Zn	1.224099	0.502339	0.419951
Zn2	Zn	1.724099	1.002339	0.919951
Zn3	Zn	1.234107	0.713359	0.278649
Zn4	Zn	1.734107	1.213359	0.778649
Zn5	Zn	1.092833	0.502383	0.288697
Zn6	Zn	1.592833	1.002383	0.788697
Zn7	Zn	1.102896	0.713284	0.409876
Zn8	Zn	1.602896	1.213284	0.909876
O9	O	1.163484	0.607841	0.349293
O10	O	1.663484	1.107841	0.849293
O11	O	1.335274	0.530344	0.401218
O12	O	1.835274	1.030344	0.901218
O13	O	1.215343	0.685422	0.170133
O14	O	1.715343	1.185422	0.670133
O15	O	1.101846	0.325802	0.314530
O16	O	1.601846	0.825802	0.814530
O17	O	1.342627	0.685379	0.297404
O18	O	1.842627	1.185379	0.797404
O19	O	1.198287	0.325769	0.410962
O20	O	1.698287	0.825769	0.910962
O21	O	1.111550	0.530419	0.177515
O22	O	1.611550	1.030419	0.677515
O23	O	0.984320	0.530347	0.304760
O24	O	1.484320	1.030347	0.804760
O25	O	1.118997	0.685252	0.521062
O26	O	1.618997	1.185252	1.021062
O27	O	0.991714	0.685295	0.393790
O28	O	1.491714	1.185295	0.893790
O29	O	1.208044	0.530271	0.528464
O30	O	1.708044	1.030271	1.028464
O31	O	1.225101	0.889924	0.287635
O32	O	1.725101	1.389924	0.787635
O33	O	1.128701	0.889869	0.384047
O34	O	1.628701	1.389869	0.884047
C35	C	0.959535	0.607818	0.349273
C36	C	1.459535	1.107818	0.849273
C37	C	0.872286	0.607839	0.349281
C38	C	1.372286	1.107839	0.849281
C39	C	0.835172	0.688642	0.395553
C40	C	1.335172	1.188642	0.895553
C41	C	0.753192	0.688645	0.395565
C42	C	1.253192	1.188645	0.895565
C43	C	0.708327	0.607850	0.349301
C44	C	1.208327	1.107850	0.849301
C45	C	0.745447	0.527038	0.303028
C46	C	1.245447	1.027038	0.803028
C47	C	0.827425	0.527030	0.303020
C48	C	1.327425	1.027030	0.803020
C49	C	0.574578	0.527063	0.303046
C50	C	1.074578	1.027063	0.803046
C51	C	0.492594	0.527072	0.303052
C52	C	0.992594	1.027072	0.803052
C53	C	0.500344	0.688678	0.395590
C54	C	1.000344	1.188678	0.895590
C55	C	0.582323	0.688670	0.395583
C56	C	1.082323	1.188670	0.895583
C57	C	0.619437	0.607859	0.349308
C58	C	1.119437	1.107859	0.849308
C59	C	1.179100	0.935681	0.333674
C60	C	1.679100	1.435681	0.833674
C61	C	1.185853	1.075932	0.327019
C62	C	1.685853	1.575932	0.827019
C63	C	1.368229	0.607865	0.349314
C64	C	1.868229	1.107865	0.849314
C65	C	1.455479	0.607875	0.349323
C66	C	1.955479	1.107875	0.849323
C67	C	1.163527	0.607748	0.554042
C68	C	1.663527	1.107748	1.054042
C69	C	1.163545	0.607709	0.641294
C70	C	1.663545	1.107709	1.141294
C71	C	1.147820	1.278722	0.364999
C72	C	1.647820	1.778722	0.864999
C73	C	1.141126	1.138470	0.371713
C74	C	1.641126	1.638470	0.871713
C75	C	1.163482	0.607843	0.145345
C76	C	1.663482	1.107843	0.645345
C77	C	1.163598	0.607527	0.058111
C78	C	1.663598	1.107527	0.558111
C79	C	1.209914	0.527004	0.686140
C80	C	1.709914	1.027004	1.186140
C81	C	1.209921	0.526962	0.768122
C82	C	1.709921	1.026962	1.268122
C83	C	1.163564	0.607632	0.805257
C84	C	1.663564	1.107632	1.305257
C85	C	1.117190	0.688341	0.760405
C86	C	1.617190	1.188341	1.260405
C87	C	1.117179	0.688375	0.678424
C88	C	1.617179	1.188375	1.178424
C89	C	1.117218	0.688265	0.931279
C90	C	1.617218	1.188265	1.431279
C91	C	1.117230	0.688232	1.013265
C92	C	1.617230	1.188232	1.513265
C93	C	1.209960	0.526851	1.020977
C94	C	1.709960	1.026851	1.520977
C95	C	1.209949	0.526886	0.938996
C96	C	1.709949	1.026886	1.438996
C97	C	1.163576	0.607596	0.894150
C98	C	1.663576	1.107596	1.394150
H99	H	0.722977	0.754444	0.433243
H100	H	1.222977	1.254444	0.933243
H101	H	1.247702	0.461204	0.908763
H102	H	1.747702	0.961204	1.408763
H103	H	1.097668	1.084717	0.415070
H104	H	1.597668	1.584717	0.915070
C105	C	0.631672	0.777555	0.446471
C106	C	1.131672	1.277555	0.946471
N107	N	0.668843	0.844503	0.484802
N108	N	1.168843	1.344503	0.984802
C109	C	1.260971	0.438068	1.070309
C110	C	1.760971	0.938068	1.570309
N111	N	1.299393	0.371202	1.107470
N112	N	1.799393	0.871202	1.607470
C113	C	0.459517	0.777565	0.446497
C114	C	0.959517	1.277565	0.946497
N115	N	0.428763	0.844513	0.484837
N116	N	0.928763	1.344513	0.984837
H117	H	1.229308	1.129693	0.283654
H118	H	1.729308	1.629693	0.783654
H119	H	0.871695	0.754439	0.433223
H120	H	1.371695	1.254439	0.933223
C121	C	0.615401	0.438169	0.252139
C122	C	1.115401	0.938169	0.752139
N123	N	0.646150	0.371222	0.213792
N124	N	1.146150	0.871222	0.713792
H125	H	1.247666	0.461316	0.655911
H126	H	1.747666	0.961316	1.155911
C127	C	1.260932	0.438182	0.817450
C128	C	1.760932	0.938182	1.317450
N129	N	1.299355	0.371309	0.854602
N130	N	1.799355	0.871309	1.354602
H131	H	1.079443	0.753968	0.894768
H132	H	1.579443	1.253968	1.394768
H133	H	0.708911	0.461248	0.265363
H134	H	1.208911	0.961248	0.765363
H135	H	1.079480	0.753918	1.043498
H136	H	1.579480	1.253918	1.543498
C137	C	1.066188	0.777067	0.801257
C138	C	1.566188	1.277067	1.301257
N139	N	1.027772	0.843897	0.832025
N140	N	1.527772	1.343897	1.332025
H141	H	0.456066	0.461267	0.265390
H142	H	0.956066	0.961267	0.765390
C143	C	0.868250	0.438143	0.252116
C144	C	1.368250	0.938143	0.752116
N145	N	0.898998	0.371188	0.213775
N146	N	1.398998	0.871188	0.713775
C147	C	1.066171	0.777159	0.629094
C148	C	1.566171	1.277159	1.129094
N149	N	1.027749	0.844032	0.591939
N150	N	1.527749	1.344032	1.091939
