data_functionalizedCrystal
_audit_creation_method	'MofGen! by Chris Wilmer'
_symmetry_space_group_name_H-M	'P1'
_symmetry_Int_Tables_number	1
_symmetry_cell_setting	triclinic
loop_
_symmetry_equiv_pos_as_xyz
  x,y,z
_cell_length_a	19.077068
_cell_length_b	19.077212
_cell_length_c	19.805399
_cell_angle_alpha	87.677406
_cell_angle_beta	92.269429
_cell_angle_gamma	94.708021
loop_
_atom_site_label
_atom_site_type_symbol
_atom_site_fract_x
_atom_site_fract_y
_atom_site_fract_z
Zn1	Zn	-0.237477	1.066453	-0.433184
Zn2	Zn	0.095856	1.399786	-0.099850
Zn3	Zn	0.429190	1.733120	0.233483
Zn4	Zn	-0.355370	1.061626	-0.324358
Zn5	Zn	-0.022036	1.394959	0.008975
Zn6	Zn	0.311297	1.728292	0.342308
Zn7	Zn	-0.242221	0.948563	-0.315626
Zn8	Zn	0.091112	1.281897	0.017707
Zn9	Zn	0.424445	1.615230	0.351041
Zn10	Zn	-0.360055	0.943789	-0.433122
Zn11	Zn	-0.026722	1.277122	-0.099789
Zn12	Zn	0.306612	1.610456	0.233544
O13	O	-0.298781	1.005108	-0.376573
O14	O	0.034553	1.338441	-0.043239
O15	O	0.367886	1.671774	0.290094
O16	O	-0.249170	1.164465	-0.422428
O17	O	0.084164	1.497798	-0.089095
O18	O	0.417497	1.831132	0.244239
O19	O	-0.340385	1.046606	-0.228483
O20	O	-0.007052	1.379939	0.104850
O21	O	0.326282	1.713272	0.438183
O22	O	-0.142940	0.968220	-0.327591
O23	O	0.190394	1.301553	0.005742
O24	O	0.523727	1.634887	0.339075
O25	O	-0.335785	1.160918	-0.342474
O26	O	-0.002451	1.494252	-0.009141
O27	O	0.330882	1.827585	0.324192
O28	O	-0.139454	1.054833	-0.413961
O29	O	0.193879	1.388166	-0.080627
O30	O	0.527213	1.721500	0.252706
O31	O	-0.257255	0.963539	-0.222068
O32	O	0.076078	1.296872	0.111266
O33	O	0.409411	1.630206	0.444599
O34	O	-0.261798	0.849278	-0.327532
O35	O	0.071535	1.182611	0.005801
O36	O	0.404868	1.515944	0.339135
O37	O	-0.343770	0.960083	-0.527847
O38	O	-0.010437	1.293416	-0.194514
O39	O	0.322897	1.626749	0.138820
O40	O	-0.348370	0.845770	-0.413856
O41	O	-0.015037	1.179103	-0.080523
O42	O	0.318296	1.512437	0.252810
O43	O	-0.253713	1.050204	-0.527892
O44	O	0.079621	1.383537	-0.194559
O45	O	0.412954	1.716870	0.138775
O46	O	-0.454643	1.041976	-0.342415
O47	O	-0.121310	1.375309	-0.009082
O48	O	0.212023	1.708643	0.324252
O49	O	-0.458086	0.955402	-0.422324
O50	O	-0.124752	1.288735	-0.088990
O51	O	0.208581	1.622069	0.244343
C52	C	-0.306108	0.821944	-0.369740
C53	C	0.027225	1.155278	-0.036407
C54	C	0.360559	1.488611	0.296926
C55	C	-0.309260	0.743586	-0.366834
C56	C	0.024074	1.076919	-0.033501
C57	C	0.357407	1.410252	0.299833
C58	C	-0.331834	0.302310	-0.346021
C59	C	0.001500	0.635644	-0.012687
C60	C	0.334833	0.968977	0.320646
C61	C	-0.328869	0.375937	-0.348746
C62	C	0.004465	0.709270	-0.015413
C63	C	0.337798	1.042604	0.317921
C64	C	-0.282364	0.414596	-0.391810
C65	C	0.050969	0.747929	-0.058476
C66	C	0.384303	1.081263	0.274857
C67	C	-0.238816	0.379625	-0.432145
C68	C	0.094517	0.712958	-0.098812
C69	C	0.427850	1.046291	0.234521
C70	C	-0.241778	0.306000	-0.429416
C71	C	0.091555	0.639333	-0.096083
C72	C	0.424888	0.972666	0.237251
C73	C	-0.268674	0.634990	-0.404441
C74	C	0.064659	0.968323	-0.071107
C75	C	0.397993	1.301656	0.262226
C76	C	-0.265717	0.708620	-0.407168
C77	C	0.067616	1.041953	-0.073835
C78	C	0.400950	1.375286	0.259498
C79	C	-0.355769	0.704927	-0.323768
C80	C	-0.022435	1.038260	0.009566
C81	C	0.310898	1.371593	0.342899
C82	C	-0.358729	0.631300	-0.321045
C83	C	-0.025396	0.964634	0.012288
C84	C	0.307937	1.297967	0.345621
C85	C	-0.315179	0.596336	-0.361378
C86	C	0.018154	0.929669	-0.028045
C87	C	0.351487	1.263002	0.305288
N88	N	-0.279334	0.489854	-0.394598
N89	N	0.054000	0.823187	-0.061265
N90	N	0.387333	1.156521	0.272069
N91	N	-0.318207	0.521079	-0.358586
N92	N	0.015127	0.854412	-0.025253
N93	N	0.348460	1.187746	0.308081
C94	C	-0.481943	0.997666	-0.383326
C95	C	-0.148610	1.331000	-0.049992
C96	C	0.184724	1.664333	0.283341
C97	C	-0.560298	0.994547	-0.386240
C98	C	-0.226965	1.327880	-0.052906
C99	C	0.106368	1.661214	0.280427
C100	C	-0.595293	1.038191	-0.346042
C101	C	-0.261959	1.371525	-0.012708
C102	C	0.071374	1.704858	0.320625
C103	C	-0.668916	1.035262	-0.348787
C104	C	-0.335582	1.368595	-0.015453
C105	C	-0.002249	1.701929	0.317880
C106	C	-0.707543	0.988684	-0.391726
C107	C	-0.374209	1.322018	-0.058393
C108	C	-0.040876	1.655351	0.274940
C109	C	-0.672543	0.945038	-0.431929
C110	C	-0.339210	1.278372	-0.098595
C111	C	-0.005877	1.611705	0.234738
C112	C	-0.598922	0.947972	-0.429187
C113	C	-0.265588	1.281305	-0.095854
C114	C	0.067745	1.614638	0.237480
C115	C	-0.927923	0.975077	-0.404387
C116	C	-0.594590	1.308410	-0.071054
C117	C	-0.261256	1.641744	0.262280
C118	C	-1.001550	0.972145	-0.407124
C119	C	-0.668216	1.305479	-0.073791
C120	C	-0.334883	1.638812	0.259542
C121	C	-0.997917	1.062370	-0.323983
C122	C	-0.664584	1.395703	0.009351
C123	C	-0.331250	1.729037	0.342684
C124	C	-0.924294	1.065296	-0.321242
C125	C	-0.590961	1.398630	0.012092
C126	C	-0.257627	1.731963	0.345425
C127	C	-0.889301	1.021653	-0.361447
C128	C	-0.555968	1.354986	-0.028113
C129	C	-0.222634	1.688320	0.305220
N130	N	-0.782797	0.985687	-0.394531
N131	N	-0.449464	1.319021	-0.061198
N132	N	-0.116131	1.652354	0.272135
N133	N	-0.814048	1.024654	-0.358645
N134	N	-0.480714	1.357988	-0.025311
N135	N	-0.147381	1.691321	0.308022
C136	C	-0.114902	1.012598	-0.369809
C137	C	0.218431	1.345931	-0.036475
C138	C	0.551764	1.679264	0.296858
C139	C	-0.036544	1.015789	-0.366926
C140	C	0.296789	1.349123	-0.033593
C141	C	0.630122	1.682456	0.299740
C142	C	-0.298735	1.005149	-0.553115
C143	C	0.034599	1.338482	-0.219782
C144	C	0.367932	1.671816	0.113551
C145	C	-0.298715	1.005167	-0.628347
C146	C	0.034618	1.338500	-0.295014
C147	C	0.367952	1.671833	0.038320
C148	C	-0.291425	1.188986	-0.383432
C149	C	0.041908	1.522320	-0.050099
C150	C	0.375241	1.855653	0.283235
C151	C	-0.288291	1.267344	-0.386355
C152	C	0.045042	1.600678	-0.053022
C153	C	0.378376	1.934011	0.280312
C154	C	-0.251820	1.052094	-0.663716
C155	C	0.081513	1.385427	-0.330382
C156	C	0.414847	1.718760	0.002951
C157	C	-0.251799	1.052102	-0.734404
C158	C	0.081534	1.385435	-0.401070
C159	C	0.414867	1.718768	-0.067737
C160	C	-0.298678	1.005186	-0.769722
C161	C	0.034656	1.338519	-0.436389
C162	C	0.367989	1.671852	-0.103055
C163	C	-0.345575	0.958254	-0.734348
C164	C	-0.012242	1.291587	-0.401015
C165	C	0.321092	1.624920	-0.067682
C166	C	-0.345592	0.958243	-0.663661
C167	C	-0.012258	1.291576	-0.330328
C168	C	0.321075	1.624909	0.003005
C169	C	-0.345508	0.958296	-1.019421
C170	C	-0.012174	1.291629	-0.686088
C171	C	0.321159	1.624963	-0.352754
C172	C	-0.345489	0.958312	-1.090113
C173	C	-0.012155	1.291645	-0.756780
C174	C	0.321178	1.624979	-0.423446
C175	C	-0.251715	1.052155	-1.090163
C176	C	0.081618	1.385488	-0.756830
C177	C	0.414952	1.718822	-0.423497
C178	C	-0.251732	1.052144	-1.019476
C179	C	0.081601	1.385477	-0.686143
C180	C	0.414935	1.718811	-0.352810
C181	C	-0.298626	1.005210	-0.984109
C182	C	0.034707	1.338543	-0.650775
C183	C	0.368040	1.671877	-0.317442
C184	C	-0.298647	1.005201	-0.907461
C185	C	0.034686	1.338534	-0.574127
C186	C	0.368019	1.671868	-0.240794
C187	C	-0.298661	1.005198	-0.846369
C188	C	0.034673	1.338531	-0.513036
C189	C	0.368006	1.671864	-0.179702
C190	C	-0.298774	1.005109	-0.200716
C191	C	0.034559	1.338443	0.132617
C192	C	0.367893	1.671776	0.465950
C193	C	-0.298590	1.005236	-0.125483
C194	C	0.034744	1.338570	0.207851
C195	C	0.368077	1.671903	0.541184
H196	H	-0.200948	0.411107	-0.467206
H197	H	0.132385	0.744440	-0.133872
H198	H	0.465718	1.077774	0.199461
O199	O	-0.381993	0.260620	-0.299570
O200	O	-0.048660	0.593954	0.033763
O201	O	0.284673	0.927287	0.367096
H202	H	-0.376744	0.203549	-0.304451
H203	H	-0.043411	0.536882	0.028883
H204	H	0.289923	0.870216	0.362216
H205	H	-0.703999	0.907117	-0.466894
H206	H	-0.370666	1.240450	-0.133561
H207	H	-0.037333	1.573783	0.199772
O208	O	-0.194810	0.268282	-0.472915
O209	O	0.138523	0.601616	-0.139582
O210	O	0.471856	0.934949	0.193751
H211	H	-0.227757	0.233467	-0.507219
H212	H	0.105577	0.566800	-0.173886
H213	H	0.438910	0.900134	0.159448
O214	O	-0.201129	1.102765	-1.128320
O215	O	0.132205	1.436099	-0.794987
O216	O	0.465538	1.769432	-0.461654
H217	H	-0.211012	1.157602	-1.117277
H218	H	0.122321	1.490935	-0.783944
H219	H	0.455654	1.824269	-0.450610
O220	O	-0.201172	1.102746	-0.981381
O221	O	0.132162	1.436080	-0.648048
O222	O	0.465495	1.769413	-0.314714
H223	H	-0.168554	1.135376	-1.017851
H224	H	0.164779	1.468710	-0.684518
H225	H	0.498113	1.802043	-0.351184
H226	H	-0.570430	0.912433	-0.461921
H227	H	-0.237097	1.245766	-0.128588
H228	H	0.096237	1.579100	0.204745
O229	O	-0.553631	1.088432	-0.299731
O230	O	-0.220297	1.421765	0.033603
O231	O	0.113036	1.755098	0.366936
H232	H	-0.590336	1.118293	-0.272246
H233	H	-0.257003	1.451627	0.061087
H234	H	0.076330	1.784960	0.394421
O235	O	-0.890196	0.927983	-0.447734
O236	O	-0.556863	1.261316	-0.114401
O237	O	-0.223529	1.594650	0.218932
H238	H	-0.903803	0.939463	-0.501841
H239	H	-0.570470	1.272796	-0.168508
H240	H	-0.237136	1.606130	0.164825
H241	H	-0.383742	0.920051	-0.763110
H242	H	-0.050408	1.253385	-0.429777
H243	H	0.282925	1.586718	-0.096443
O244	O	-0.706663	1.082330	-0.305427
O245	O	-0.373329	1.415664	0.027907
O246	O	-0.039996	1.748997	0.361240
H247	H	-0.667434	1.115204	-0.275100
H248	H	-0.334101	1.448537	0.058233
H249	H	-0.000768	1.781870	0.391567
H250	H	-1.026416	1.097903	-0.291251
H251	H	-0.693083	1.431236	0.042082
H252	H	-0.359750	1.764570	0.375415
O253	O	-0.201258	1.102696	-0.625623
O254	O	0.132075	1.436030	-0.292290
O255	O	0.465409	1.769363	0.041044
H256	H	-0.168641	1.135324	-0.662095
H257	H	0.164692	1.468657	-0.328762
H258	H	0.498025	1.801991	0.004571
O259	O	-0.201224	1.102719	-0.772554
O260	O	0.132109	1.436053	-0.439221
O261	O	0.465443	1.769386	-0.105888
H262	H	-0.168637	1.135348	-0.736120
H263	H	0.164696	1.468681	-0.402787
H264	H	0.498030	1.802015	-0.069454
O265	O	-0.221704	0.597283	-0.447942
O266	O	0.111629	0.930617	-0.114608
O267	O	0.444963	1.263950	0.218725
H268	H	-0.233305	0.610942	-0.502018
H269	H	0.100029	0.944275	-0.168684
H270	H	0.433362	1.277609	0.164649
O271	O	-0.882629	1.115527	-0.274924
O272	O	-0.549295	1.448860	0.058410
O273	O	-0.215962	1.782193	0.391743
H274	H	-0.847590	1.152709	-0.305328
H275	H	-0.514257	1.486042	0.028006
H276	H	-0.180924	1.819375	0.361339
H277	H	-0.364325	0.404403	-0.315901
H278	H	-0.030991	0.737736	0.017433
H279	H	0.302342	1.071070	0.350766
H280	H	-0.227842	0.740094	-0.442235
H281	H	0.105491	1.073427	-0.108901
H282	H	0.438824	1.406761	0.224432
O283	O	-0.396049	0.907643	-0.981275
O284	O	-0.062716	1.240976	-0.647941
O285	O	0.270617	1.574309	-0.314608
H286	H	-0.428634	0.875014	-1.017711
H287	H	-0.095300	1.208348	-0.684378
H288	H	0.238033	1.541681	-0.351044
O289	O	-1.043217	0.921911	-0.453445
O290	O	-0.709883	1.255245	-0.120112
O291	O	-0.376550	1.588578	0.213222
H292	H	-1.006516	0.892061	-0.480948
H293	H	-0.673182	1.225394	-0.147614
H294	H	-0.339849	1.558728	0.185719
H295	H	-0.396598	0.599829	-0.285978
H296	H	-0.063264	0.933162	0.047356
H297	H	0.270069	1.266496	0.380689
H298	H	-0.383664	0.920104	-1.118867
H299	H	-0.050331	1.253438	-0.785534
H300	H	0.283002	1.586771	-0.452200
O301	O	-0.396162	0.907620	-0.625508
O302	O	-0.062829	1.240954	-0.292174
O303	O	0.270505	1.574287	0.041159
H304	H	-0.428758	0.874998	-0.661941
H305	H	-0.095424	1.208332	-0.328607
H306	H	0.237909	1.541665	0.004726
H307	H	-0.391224	0.733403	-0.290930
H308	H	-0.057891	1.066736	0.042403
H309	H	0.275443	1.400070	0.375736
