data_functionalizedCrystal
_audit_creation_method	'MofGen! by Chris Wilmer'
_symmetry_space_group_name_H-M	'P1'
_symmetry_Int_Tables_number	1
_symmetry_cell_setting	triclinic
loop_
_symmetry_equiv_pos_as_xyz
  x,y,z
_cell_length_a	15.625950
_cell_length_b	15.624967
_cell_length_c	14.185569
_cell_angle_alpha	59.445742
_cell_angle_beta	120.545593
_cell_angle_gamma	89.782810
loop_
_atom_site_label
_atom_site_type_symbol
_atom_site_fract_x
_atom_site_fract_y
_atom_site_fract_z
O1	O	1.288168	0.025868	0.375597
O2	O	0.995802	0.069803	0.253296
O3	O	1.163968	-0.098374	0.375638
O4	O	1.120001	0.194046	0.253254
O5	O	1.213646	-0.148051	0.578612
O6	O	1.045479	0.020127	0.456270
O7	O	1.337845	-0.023808	0.578570
Cu8	Cu	1.196198	-0.006376	0.535953
Cu9	Cu	1.137449	0.052372	0.295913
O10	O	1.169679	0.144370	0.456228
C11	C	0.983488	0.047895	0.340207
C12	C	0.872785	0.056612	0.296779
C13	C	0.643959	-0.050018	0.706984
C14	C	0.539919	-0.041793	0.666112
C15	C	0.485814	0.012358	0.444859
C16	C	0.589851	0.004142	0.485710
C17	C	0.668916	-0.027048	0.616775
C18	C	0.614808	0.027113	0.395500
C19	C	0.718836	0.018893	0.436351
C20	C	0.797908	-0.012299	0.567412
C21	C	0.772945	-0.035268	0.657626
C22	C	0.535742	0.058295	0.264440
C23	C	0.560699	0.081266	0.174230
C24	C	0.664728	0.073053	0.215077
C25	C	0.743800	0.041862	0.346138
C26	C	0.689691	0.096023	0.124863
C27	C	0.793720	0.087802	0.165714
C28	C	0.847828	0.033642	0.386988
C29	C	1.191741	-0.160372	0.491710
C30	C	1.200470	-0.271094	0.535164
C31	C	1.239852	-0.454236	0.707046
C32	C	1.231646	-0.350192	0.666202
C33	C	1.177493	-0.296018	0.444922
C34	C	1.185699	-0.400060	0.485750
C35	C	1.216878	-0.479162	0.616813
C36	C	1.162725	-0.424986	0.395517
C37	C	1.170926	-0.529019	0.436341
C38	C	1.202101	-0.608125	0.567397
C39	C	1.225079	-0.583194	0.657637
C40	C	1.131539	-0.345881	0.264452
C41	C	1.108565	-0.370807	0.174219
C42	C	1.116773	-0.474843	0.215045
C43	C	1.147948	-0.553949	0.346101
C44	C	1.093794	-0.499773	0.124805
C45	C	1.101995	-0.603806	0.165628
C46	C	1.156148	-0.657981	0.386924
C47	C	1.350158	-0.001899	0.491657
C48	C	1.460859	-0.010614	0.535077
C49	C	1.141906	0.206368	0.340153
C50	C	1.133174	0.317093	0.296691
N51	N	1.237526	-0.047698	0.704787
N52	N	1.096129	0.093685	0.127085
C53	C	0.974710	0.215044	0.881270
C54	C	1.006022	0.183749	1.009064
C55	C	1.154956	0.034876	1.117350
C56	C	1.123654	0.066155	0.989563
C57	C	1.033531	0.156240	0.871531
C58	C	1.182474	0.007351	0.979824
C59	C	1.151177	0.038631	0.852047
C60	C	1.061060	0.128715	0.734010
C61	C	1.002234	0.187520	0.743754
C62	C	1.272601	-0.082730	1.097858
C63	C	1.331422	-0.141533	1.088118
C64	C	1.300121	-0.110258	0.960340
C65	C	1.210003	-0.020174	0.842303
C66	C	1.358947	-0.169063	0.950596
C67	C	1.327649	-0.137783	0.822820
C68	C	1.178706	0.011106	0.714527
H69	H	0.708337	-0.075401	0.813703
H70	H	1.208768	-0.692832	0.600629
O71	O	0.849762	-0.065746	0.785036
C72	C	0.860427	-0.167764	0.881368
H73	H	0.829721	-0.210866	0.832669
H74	H	0.947707	-0.214844	0.971501
H75	H	0.812481	-0.160078	0.917832
H76	H	1.152104	-0.231600	0.338208
H77	H	0.928840	0.260870	0.647644
H78	H	1.083280	-0.624097	0.092148
O79	O	0.515847	-0.064101	0.753899
C80	C	0.607950	-0.093421	0.878347
H81	H	0.666994	-0.059331	0.860777
H82	H	0.585806	-0.060903	0.922064
H83	H	0.645524	-0.183735	0.952832
O84	O	0.408928	0.042833	0.317481
C85	C	0.327484	0.136756	0.248253
H86	H	0.360462	0.180110	0.296094
H87	H	0.295780	0.190198	0.136847
H88	H	0.260353	0.115910	0.255837
H89	H	0.912206	0.008259	0.493707
H90	H	1.124848	-0.261170	0.231211
O91	O	0.817777	0.110210	0.077895
C92	C	0.725690	0.139483	-0.046536
H93	H	0.652284	0.169408	-0.057479
H94	H	0.725818	0.205140	-0.133967
H95	H	0.724502	0.067575	-0.048783
O96	O	0.434652	0.066253	0.224571
C97	C	0.370220	0.098704	0.089551
H98	H	0.422042	0.077320	0.064698
H99	H	0.310027	0.056719	0.077394
H100	H	0.326490	0.188312	0.017381
O101	O	0.483950	0.111715	0.046822
C102	C	0.473254	0.213760	-0.049492
H103	H	0.549933	0.229280	-0.001373
H104	H	0.456474	0.218569	-0.140544
H105	H	0.404708	0.275945	-0.084443
O106	O	0.948734	0.240795	1.018458
C107	C	0.843781	0.241681	0.954313
H108	H	0.842412	0.170337	0.950894
H109	H	0.813132	0.237393	1.013803
H110	H	0.790932	0.318028	0.846375
H111	H	1.068399	-0.435352	0.018089
H112	H	1.250330	-0.329900	0.739679
H113	H	0.901317	0.288394	0.785159
H114	H	1.250474	-0.647606	0.764364
O115	O	1.269973	-0.531013	0.834299
C116	C	1.196916	-0.502427	0.852684
H117	H	1.117621	-0.444239	0.749478
H118	H	1.185208	-0.576541	0.916628
H119	H	1.228843	-0.463387	0.906812
O120	O	1.242430	-0.052736	1.231916
C121	C	1.228064	-0.142441	1.233687
H122	H	1.166834	-0.115914	1.125529
H123	H	1.306811	-0.197778	1.278850
H124	H	1.198932	-0.186168	1.298115
H125	H	1.298083	-0.108191	1.201898
O126	O	1.186306	-0.734898	0.514151
C127	C	1.105116	-0.777038	0.505412
H128	H	1.053629	-0.762539	0.402454
H129	H	1.142042	-0.866081	0.589704
H130	H	1.054024	-0.736573	0.517012
H131	H	0.625304	0.121407	0.018155
H132	H	1.083176	-0.306389	0.067505
H133	H	1.105312	0.084456	0.618416
O134	O	1.030532	0.159278	0.609777
C135	C	0.938360	0.251380	0.507692
H136	H	0.933235	0.294538	0.550653
H137	H	0.942040	0.306017	0.418889
H138	H	0.865274	0.228063	0.470985
O139	O	1.418845	-0.229140	1.202820
C140	C	1.389403	-0.303730	1.280027
H141	H	1.301369	-0.288441	1.210820
H142	H	1.438165	-0.387405	1.329387
H143	H	1.404869	-0.295660	1.362304
H144	H	1.432332	-0.242406	1.046713
O145	O	1.384875	-0.195050	0.813592
C146	C	1.471144	-0.281255	0.945169
H147	H	1.452618	-0.300765	1.020400
H148	H	1.485035	-0.353463	0.946138
H149	H	1.545535	-0.259245	0.975364
H150	H	0.882614	-0.018992	0.600671
