data_functionalizedCrystal
_audit_creation_method	'MofGen! by Chris Wilmer'
_symmetry_space_group_name_H-M	'P1'
_symmetry_Int_Tables_number	1
_symmetry_cell_setting	triclinic
loop_
_symmetry_equiv_pos_as_xyz
  x,y,z
_cell_length_a	9.065215
_cell_length_b	9.065218
_cell_length_c	9.130313
_cell_angle_alpha	90.000552
_cell_angle_beta	90.000271
_cell_angle_gamma	85.015291
loop_
_atom_site_label
_atom_site_type_symbol
_atom_site_fract_x
_atom_site_fract_y
_atom_site_fract_z
O1	O	1.960395	0.216330	-0.121776
O2	O	1.531110	0.234081	-0.121782
O3	O	1.754626	0.010563	-0.121776
O4	O	1.736880	0.439848	-0.121782
O5	O	1.754623	0.010569	0.121823
O6	O	1.531107	0.234087	0.121817
O7	O	1.960393	0.216336	0.121823
Cu8	Cu	1.745750	0.225212	0.144063
Cu9	Cu	1.745753	0.225205	-0.144021
O10	O	1.736877	0.439854	0.121817
C11	C	1.476122	0.232379	0.000017
C12	C	1.312279	0.227281	0.000014
C13	C	1.752919	-0.044421	0.000021
C14	C	1.747819	-0.208264	0.000014
C15	C	2.015381	0.218038	0.000021
C16	C	2.179224	0.223136	0.000014
C17	C	1.738584	0.494837	0.000017
C18	C	1.743683	0.658680	0.000014
N19	N	1.745758	0.225216	0.346685
N20	N	1.745756	0.225189	-0.346644
C21	C	1.844757	0.126277	0.423340
C22	C	1.844753	0.126259	0.576677
C23	C	1.646747	0.324133	0.576691
C24	C	1.646745	0.324143	0.423357
C25	C	1.959079	0.012040	0.423333
C26	C	1.959075	0.012022	0.576670
H27	H	1.566120	0.404694	0.360946
H28	H	2.072578	0.037829	0.618288
C29	C	1.537815	0.432923	0.661027
H30	H	1.478840	0.491834	0.593409
H31	H	1.591674	0.495095	0.720869
H32	H	1.475695	0.378938	0.720815
C33	C	2.104022	0.061241	0.359075
H34	H	2.168572	0.083139	0.436566
H35	H	2.082674	0.147059	0.300517
H36	H	2.150255	-0.016141	0.300516
H37	H	1.922728	-0.095316	0.624218
H38	H	1.933359	-0.101487	0.381714
