data_functionalizedCrystal
_audit_creation_method	'MofGen! by Chris Wilmer'
_symmetry_space_group_name_H-M	'P1'
_symmetry_Int_Tables_number	1
_symmetry_cell_setting	triclinic
loop_
_symmetry_equiv_pos_as_xyz
  x,y,z
_cell_length_a	13.897448
_cell_length_b	19.805407
_cell_length_c	13.897441
_cell_angle_alpha	90.024326
_cell_angle_beta	89.969401
_cell_angle_gamma	89.983323
loop_
_atom_site_label
_atom_site_type_symbol
_atom_site_fract_x
_atom_site_fract_y
_atom_site_fract_z
Zn1	Zn	-0.384010	-1.034798	-0.545474
Zn2	Zn	-0.050677	-0.701465	-0.212140
Zn3	Zn	0.282656	-0.368132	0.121193
Zn4	Zn	-0.545332	-1.034724	-0.384175
Zn5	Zn	-0.211999	-0.701391	-0.050842
Zn6	Zn	0.121335	-0.368057	0.282492
Zn7	Zn	-0.384050	-0.921607	-0.384182
Zn8	Zn	-0.050716	-0.588273	-0.050849
Zn9	Zn	0.282617	-0.254940	0.282485
Zn10	Zn	-0.545262	-0.921594	-0.545418
Zn11	Zn	-0.211929	-0.588261	-0.212084
Zn12	Zn	0.121405	-0.254927	0.121249
O13	O	-0.464663	-0.978181	-0.464812
O14	O	-0.131330	-0.644847	-0.131479
O15	O	0.202003	-0.311514	0.201855
O16	O	-0.405423	-1.129505	-0.524098
O17	O	-0.072089	-0.796172	-0.190764
O18	O	0.261244	-0.462839	0.142569
O19	O	-0.523983	-1.019693	-0.249194
O20	O	-0.190650	-0.686360	0.084139
O21	O	0.142683	-0.353026	0.417472
O22	O	-0.249063	-0.936658	-0.405604
O23	O	0.084271	-0.603325	-0.072271
O24	O	0.417604	-0.269992	0.261063
O25	O	-0.523945	-1.129451	-0.405592
O26	O	-0.190612	-0.796117	-0.072259
O27	O	0.142722	-0.462784	0.261074
O28	O	-0.249034	-1.019820	-0.524104
O29	O	0.084300	-0.686487	-0.190771
O30	O	0.417633	-0.353153	0.142562
O31	O	-0.405490	-0.936586	-0.249199
O32	O	-0.072157	-0.603253	0.084134
O33	O	0.261177	-0.269920	0.417467
O34	O	-0.405422	-0.826888	-0.405550
O35	O	-0.072089	-0.493555	-0.072216
O36	O	0.261245	-0.160222	0.261117
O37	O	-0.523826	-0.936636	-0.680407
O38	O	-0.190493	-0.603303	-0.347073
O39	O	0.142841	-0.269970	-0.013740
O40	O	-0.523864	-0.826879	-0.524009
O41	O	-0.190531	-0.493546	-0.190675
O42	O	0.142802	-0.160212	0.142658
O43	O	-0.405355	-1.019807	-0.680448
O44	O	-0.072022	-0.686474	-0.347115
O45	O	0.261312	-0.353141	-0.013781
O46	O	-0.680304	-1.019681	-0.405538
O47	O	-0.346971	-0.686347	-0.072204
O48	O	-0.013638	-0.353014	0.261129
O49	O	-0.680253	-0.936564	-0.524002
O50	O	-0.346920	-0.603231	-0.190669
O51	O	-0.013586	-0.269898	0.142665
C52	C	-0.464641	-0.802325	-0.464774
C53	C	-0.131307	-0.468991	-0.131441
C54	C	0.202026	-0.135658	0.201892
C55	C	-0.464654	-0.727093	-0.464781
C56	C	-0.131321	-0.393759	-0.131448
C57	C	0.202013	-0.060426	0.201886
C58	C	-0.715278	-0.978131	-0.464784
C59	C	-0.381945	-0.644798	-0.131451
C60	C	-0.048611	-0.311465	0.201883
C61	C	-0.822492	-0.978172	-0.464804
C62	C	-0.489158	-0.644839	-0.131471
C63	C	-0.155825	-0.311506	0.201862
C64	C	-0.526419	-0.691761	-0.526362
C65	C	-0.193085	-0.358428	-0.193028
C66	C	0.140248	-0.025095	0.140305
C67	C	-0.526419	-0.621073	-0.526373
C68	C	-0.193085	-0.287740	-0.193039
C69	C	0.140248	0.045594	0.140294
C70	C	-0.464658	-0.585717	-0.464797
C71	C	-0.131325	-0.252384	-0.131464
C72	C	0.202009	0.080949	0.201869
C73	C	-0.402886	-0.621053	-0.403214
C74	C	-0.069553	-0.287720	-0.069881
C75	C	0.263780	0.045613	0.263452
C76	C	-0.402882	-0.691741	-0.403209
C77	C	-0.069549	-0.358407	-0.069875
C78	C	0.263784	-0.025074	0.263458
C79	C	-0.402901	-0.335980	-0.403236
C80	C	-0.069567	-0.002647	-0.069902
C81	C	0.263766	0.330686	0.263431
C82	C	-0.402911	-0.265288	-0.403244
C83	C	-0.069578	0.068045	-0.069910
C84	C	0.263755	0.401379	0.263423
C85	C	-0.526437	-0.265313	-0.526399
C86	C	-0.193104	0.068021	-0.193066
C87	C	0.140230	0.401354	0.140267
C88	C	-0.526433	-0.336000	-0.526394
C89	C	-0.193099	-0.002666	-0.193061
C90	C	0.140234	0.330667	0.140273
C91	C	-0.464658	-0.371330	-0.464815
C92	C	-0.131325	-0.037996	-0.131481
C93	C	0.202009	0.295337	0.201852
C94	C	-0.464658	-0.447978	-0.464805
C95	C	-0.131324	-0.114645	-0.131471
C96	C	0.202009	0.218688	0.201862
C97	C	-0.464663	-0.509070	-0.464802
C98	C	-0.131329	-0.175737	-0.131468
C99	C	0.202004	0.157597	0.201865
C100	C	-1.018787	-0.978243	-0.464865
C101	C	-0.685453	-0.644910	-0.131532
C102	C	-0.352120	-0.311577	0.201802
C103	C	-0.909554	-0.978202	-0.464834
C104	C	-0.576221	-0.644868	-0.131501
C105	C	-0.242888	-0.311535	0.201832
C106	C	-0.213070	-0.978249	-0.464861
C107	C	0.120263	-0.644915	-0.131528
C108	C	0.453596	-0.311582	0.201806
C109	C	-0.105857	-0.978278	-0.464882
C110	C	0.227477	-0.644944	-0.131549
C111	C	0.560810	-0.311611	0.201785
C112	C	-0.464578	-0.978229	-0.716405
C113	C	-0.131245	-0.644895	-0.383072
C114	C	0.202088	-0.311562	-0.049738
C115	C	-0.464542	-0.978249	-0.823619
C116	C	-0.131209	-0.644916	-0.490286
C117	C	0.202125	-0.311583	-0.156952
C118	C	-0.464681	-0.154723	-0.464841
C119	C	-0.131347	0.178610	-0.131508
C120	C	0.201986	0.511943	0.201826
C121	C	-0.464672	-0.229955	-0.464830
C122	C	-0.131339	0.103378	-0.131496
C123	C	0.201995	0.436711	0.201837
C124	C	-0.464477	-0.978268	-1.019914
C125	C	-0.131143	-0.644934	-0.686581
C126	C	0.202190	-0.311601	-0.353248
C127	C	-0.464516	-0.978255	-0.910682
C128	C	-0.131182	-0.644922	-0.577348
C129	C	0.202151	-0.311589	-0.244015
C130	C	-0.464679	-0.978172	-0.214198
C131	C	-0.131345	-0.644839	0.119136
C132	C	0.201988	-0.311505	0.452469
C133	C	-0.464443	-0.978283	-0.106984
C134	C	-0.131110	-0.644949	0.226349
C135	C	0.202223	-0.311616	0.559682
H136	H	-0.576715	-0.720543	-0.576500
H137	H	-0.243381	-0.387210	-0.243167
H138	H	0.089952	-0.053876	0.090167
F139	F	-0.337152	-0.373572	-0.337700
F140	F	-0.003819	-0.040239	-0.004366
F141	F	0.329515	0.293094	0.328967
H142	H	-0.352596	-0.592261	-0.353083
H143	H	-0.019262	-0.258928	-0.019750
H144	H	0.314071	0.074405	0.313584
H145	H	-0.576715	-0.592309	-0.576517
H146	H	-0.243381	-0.258976	-0.243183
H147	H	0.089952	0.074357	0.090150
F148	F	-0.592170	-0.373624	-0.591927
F149	F	-0.258837	-0.040291	-0.258593
F150	F	0.074496	0.293042	0.074740
H151	H	-0.576733	-0.236538	-0.576544
H152	H	-0.243400	0.096795	-0.243210
H153	H	0.089933	0.430128	0.090123
F154	F	-0.337173	-0.227661	-0.337705
F155	F	-0.003839	0.105672	-0.004371
F156	F	0.329494	0.439005	0.328962
F157	F	-0.337142	-0.729343	-0.337668
F158	F	-0.003809	-0.396009	-0.004335
F159	F	0.329525	-0.062676	0.328998
