data_functionalizedCrystal
_audit_creation_method	'MofGen! by Chris Wilmer'
_symmetry_space_group_name_H-M	'P1'
_symmetry_Int_Tables_number	1
_symmetry_cell_setting	triclinic
loop_
_symmetry_equiv_pos_as_xyz
  x,y,z
_cell_length_a	14.809374
_cell_length_b	18.878441
_cell_length_c	18.878441
_cell_angle_alpha	89.998124
_cell_angle_beta	67.426636
_cell_angle_gamma	127.153496
loop_
_atom_site_label
_atom_site_type_symbol
_atom_site_fract_x
_atom_site_fract_y
_atom_site_fract_z
Zr1	Zr	1.000588	0.179321	0.768751
O2	O	1.191299	0.308891	0.672102
O3	O	0.809881	0.128186	0.786964
O4	O	1.000594	0.292428	0.803420
O5	O	1.000581	0.028076	0.655651
O6	O	1.000594	0.292427	0.919989
O7	O	1.000586	0.144648	0.655647
O8	O	0.659444	-0.001373	0.890554
O9	O	1.341731	0.321876	0.685087
O10	O	0.888321	0.120167	0.895517
O11	O	0.888317	0.033172	0.808526
O12	O	1.112856	0.226546	0.827900
O13	O	1.112852	0.139550	0.740908
Zr14	Zr	1.000581	-0.006601	0.954672
Zr15	Zr	1.000589	0.179319	0.954666
Zr16	Zr	1.000580	-0.006599	0.768757
Zr17	Zr	1.240510	0.200030	0.789459
Zr18	Zr	0.760659	-0.027310	0.933964
O19	O	1.191288	0.044535	0.936459
O20	O	1.191300	0.308888	0.936450
O21	O	1.191287	0.044537	0.672111
O22	O	0.809870	-0.136171	1.051321
O23	O	0.809883	0.128183	1.051312
O24	O	0.809869	-0.136168	0.786973
O25	O	1.000589	0.144644	1.067772
O26	O	1.000576	-0.119708	0.920004
O27	O	1.000575	-0.119707	0.803434
O28	O	1.000583	0.028072	1.067776
O29	O	1.341732	0.321874	0.832864
O30	O	0.659437	-0.149154	0.890559
O31	O	0.659438	-0.149156	1.038337
O32	O	0.659445	-0.001374	1.038331
O33	O	1.341724	0.174094	0.685092
O34	O	1.341725	0.174093	0.832870
O35	O	0.888313	-0.053826	0.895523
O36	O	0.888318	0.033170	0.982515
O37	O	1.112853	0.139548	0.914897
O38	O	1.112848	0.052553	0.827906
C39	C	0.700479	0.060456	0.835809
C40	C	0.598626	0.051664	0.827017
C41	C	1.000595	0.318917	0.861704
C42	C	1.000599	0.397845	0.861701
C43	C	1.000574	-0.146197	0.861720
C44	C	1.000570	-0.225125	0.861722
C45	C	0.553219	0.090900	0.866252
C46	C	0.447948	0.081815	0.857166
C47	C	1.300690	0.112264	0.887615
C48	C	1.402543	0.121056	0.896406
C49	C	1.000583	0.086362	0.629160
C50	C	1.000583	0.086363	0.550234
C51	C	1.117803	0.490453	0.826405
C52	C	1.117798	0.564611	0.826413
C53	C	1.000589	0.546157	0.861712
C54	C	0.883376	0.453539	0.897013
C55	C	0.883382	0.379384	0.897010
C56	C	0.883373	0.608106	0.897016
C57	C	0.883367	0.682267	0.897018
C58	C	1.117789	0.793333	0.826419
C59	C	1.117795	0.719178	0.826416
C60	C	1.000582	0.626565	0.861716
C61	C	1.000589	0.150586	0.513152
C62	C	1.000582	0.150582	0.438995
C63	C	1.000578	0.086358	0.401918
C64	C	1.000568	0.022129	0.439006
C65	C	1.000565	0.022129	0.513165
C66	C	1.000575	0.022134	0.284435
C67	C	1.000580	0.022134	0.210271
C68	C	1.000592	0.150587	0.210265
C69	C	1.000590	0.150587	0.284424
C70	C	1.000582	0.086358	0.321506
C71	C	1.000586	0.086358	1.094263
C72	C	1.000586	0.086357	1.173189
C73	C	0.700480	0.060453	1.068360
C74	C	0.598628	0.051661	1.138495
C75	C	0.700468	-0.172101	0.835816
C76	C	0.598611	-0.259821	0.827028
C77	C	0.700470	-0.172104	1.068368
C78	C	0.598613	-0.259824	1.138505
C79	C	1.300700	0.344824	0.655055
C80	C	1.402556	0.432544	0.584918
C81	C	1.300689	0.112267	0.655063
C82	C	1.402542	0.121059	0.584929
C83	C	1.300701	0.344821	0.887607
C84	C	1.402558	0.432541	0.896395
C85	C	0.550798	0.092952	1.126019
C86	C	0.455110	0.084709	1.191912
C87	C	0.407247	0.035169	1.270279
C88	C	0.455085	-0.006122	1.282754
C89	C	0.550778	0.002127	1.216863
C90	C	0.550777	-0.346434	0.868313
C91	C	0.455085	-0.428862	0.860053
C92	C	0.407223	-0.424675	0.810512
C93	C	0.455067	-0.338052	0.769223
C94	C	0.550764	-0.255625	0.777479
C95	C	0.550783	-0.255607	1.216859
C96	C	0.455091	-0.338021	1.282769
C97	C	0.407226	-0.424652	1.270322
C98	C	0.455065	-0.428866	1.191961
C99	C	0.550762	-0.346452	1.126053
C100	C	1.450398	0.428328	0.506565
C101	C	1.546119	0.510745	0.440658
C102	C	1.593990	0.597376	0.453105
C103	C	1.546144	0.601589	0.531466
C104	C	1.450431	0.519174	0.597372
C105	C	1.450381	0.079777	0.597405
C106	C	1.546096	0.088043	0.531515
C107	C	1.593963	0.137585	0.453147
C108	C	1.546119	0.178872	0.440672
C109	C	1.450413	0.170612	0.506562
C110	C	1.533278	0.480891	0.843454
C111	C	1.628996	0.563307	0.851710
C112	C	1.593992	0.597374	0.912904
C113	C	1.463259	0.549016	0.965851
C114	C	1.367543	0.466599	0.957598
H115	H	0.592272	0.131214	0.906571
H116	H	0.589768	0.133303	1.062214
H117	H	1.735438	0.602671	0.808589
N118	N	1.597781	0.695029	0.544885
H119	H	1.665668	0.746592	0.491239
H120	H	1.524699	0.695598	0.571359
N121	N	1.398776	0.026352	0.681927
H122	H	1.302709	-0.027646	0.706435
H123	H	1.443713	0.001527	0.679759
N124	N	1.398830	0.523727	0.681880
H125	H	1.443683	0.591115	0.679756
H126	H	1.302763	0.486654	0.706331
N127	N	0.403511	0.129233	1.178442
H128	H	0.335630	0.116499	1.232071
H129	H	0.476610	0.199047	1.151942
H130	H	0.589735	-0.349861	0.908653
N131	N	1.571043	0.444150	0.777454
H132	H	1.623944	0.492504	0.723056
H133	H	1.623867	0.430724	0.784906
N134	N	0.303990	-0.513543	1.341406
H135	H	0.337278	-0.546373	1.344328
H136	H	0.280986	-0.497652	1.392891
N137	N	0.403432	-0.333543	0.715797
H138	H	0.335545	-0.398907	0.716842
H139	H	0.363785	-0.304182	0.736226
H140	H	1.000563	-0.030172	0.314627
H141	H	0.589741	-0.185076	1.227008
H142	H	0.787925	0.532697	0.925762
H143	H	1.411427	0.357796	0.496415
H144	H	0.416141	-0.499386	0.893680
N145	N	1.244235	0.664485	0.788342
H146	H	1.249487	0.697748	0.743092
H147	H	1.249401	0.697650	0.830494
H148	H	1.213248	0.505490	0.797655
H149	H	0.329301	-0.491798	0.803797
N150	N	1.244215	0.893219	0.788343
H151	H	1.226431	0.937398	0.793703
H152	H	1.295407	0.904507	0.816598
H153	H	1.434776	0.576767	1.015674
N154	N	1.597737	0.232288	0.356142
H155	H	1.637458	0.299250	0.352595
H156	H	1.665564	0.231168	0.316354
N157	N	0.602419	-0.162202	0.732901
H158	H	0.557593	-0.172064	0.700253
H159	H	0.585806	-0.130842	0.773117
H160	H	0.408889	0.041491	0.816849
N161	N	0.403432	-0.522306	1.178543
H162	H	0.335548	-0.573868	1.232188
H163	H	0.363782	-0.532603	1.142337
H164	H	0.329326	0.028458	1.323925
N165	N	1.226550	0.414454	1.014693
H166	H	1.206968	0.394789	1.071963
H167	H	1.207093	0.456613	1.010119
H168	H	1.585059	0.507296	0.376859
H169	H	0.416150	-0.334574	1.346568
N170	N	0.454279	0.174475	0.949807
H171	H	0.409514	0.199412	0.974740
H172	H	0.437628	0.131315	0.993999
N173	N	1.000597	0.219861	0.553134
H174	H	0.920893	0.184965	0.607906
H175	H	1.080359	0.260472	0.559840
H176	H	0.589693	-0.349899	1.062256
H177	H	1.585033	0.054417	0.541688
N178	N	0.403456	-0.059551	1.367281
H179	H	0.335575	-0.058509	1.407123
H180	H	0.363804	-0.126483	1.370738
H181	H	0.589709	-0.031503	1.227032
N182	N	1.697222	0.686263	0.382017
H183	H	1.720256	0.670438	0.330493
H184	H	1.663849	0.719045	0.379170
H185	H	1.671893	0.144304	0.399502
H186	H	1.671943	0.664487	0.919613
H187	H	0.559563	0.011344	0.786703
N188	N	0.756966	0.279498	0.935082
H189	H	0.751736	0.246250	0.892986
H190	H	0.751830	0.246338	0.980334
N191	N	1.244208	0.739074	0.788347
H192	H	1.295456	0.776261	0.729243
H193	H	1.295343	0.776220	0.816652
H194	H	1.411465	0.204227	0.496392
H195	H	0.787924	0.667235	0.925760
H196	H	1.000586	0.202877	0.408804
N197	N	0.756960	0.433639	0.935090
H198	H	0.751731	0.461931	0.892991
H199	H	0.682783	0.363708	0.957457
H200	H	1.000603	0.202887	0.314609
H201	H	1.000598	0.202884	0.180069
H202	H	1.000556	-0.030168	0.408817
N203	N	1.000578	-0.047132	0.170277
H204	H	1.000564	-0.087825	0.205023
H205	H	0.920873	-0.087687	0.163508
H206	H	1.000558	-0.030169	0.543357
