data_functionalizedCrystal
_audit_creation_method	'MofGen! by Chris Wilmer'
_symmetry_space_group_name_H-M	'P1'
_symmetry_Int_Tables_number	1
_symmetry_cell_setting	triclinic
loop_
_symmetry_equiv_pos_as_xyz
  x,y,z
_cell_length_a	14.044220
_cell_length_b	14.044220
_cell_length_c	12.503552
_cell_angle_alpha	86.157908
_cell_angle_beta	86.160109
_cell_angle_gamma	86.811122
loop_
_atom_site_label
_atom_site_type_symbol
_atom_site_fract_x
_atom_site_fract_y
_atom_site_fract_z
O1	O	-1.282206	0.225122	0.089201
O2	O	-1.032206	0.475122	0.339201
O3	O	-0.782206	0.725122	0.589201
O4	O	-0.532206	0.975122	0.839201
O5	O	-1.005536	0.216814	0.089228
O6	O	-0.755536	0.466814	0.339228
O7	O	-0.505536	0.716814	0.589228
O8	O	-0.255536	0.966814	0.839228
O9	O	-1.139718	0.082632	0.089210
O10	O	-0.889718	0.332632	0.339210
O11	O	-0.639718	0.582632	0.589210
O12	O	-0.389718	0.832632	0.839210
O13	O	-1.148024	0.359303	0.089219
O14	O	-0.898024	0.609303	0.339219
O15	O	-0.648024	0.859303	0.589219
O16	O	-0.398024	1.109303	0.839219
O17	O	-1.129615	0.092732	-0.089431
O18	O	-0.879615	0.342732	0.160569
O19	O	-0.629615	0.592732	0.410569
O20	O	-0.379615	0.842732	0.660569
O21	O	-0.995433	0.226914	-0.089413
O22	O	-0.745433	0.476914	0.160587
O23	O	-0.495433	0.726914	0.410587
O24	O	-0.245433	0.976914	0.660587
O25	O	-1.272103	0.235221	-0.089440
O26	O	-1.022103	0.485221	0.160560
O27	O	-0.772103	0.735221	0.410560
O28	O	-0.522103	0.985221	0.660560
Cu29	Cu	-1.132846	0.231990	-0.105738
Cu30	Cu	-0.882846	0.481990	0.144262
Cu31	Cu	-0.632846	0.731990	0.394262
Cu32	Cu	-0.382846	0.981990	0.644262
Cu33	Cu	-1.144794	0.220046	0.105526
Cu34	Cu	-0.894794	0.470046	0.355526
Cu35	Cu	-0.644794	0.720046	0.605526
Cu36	Cu	-0.394794	0.970046	0.855526
O37	O	-1.137921	0.369403	-0.089422
O38	O	-0.887921	0.619403	0.160578
O39	O	-0.637921	0.869403	0.410578
O40	O	-0.387921	1.119403	0.660578
C41	C	-0.964863	0.218228	-0.000089
C42	C	-0.714863	0.468228	0.249911
C43	C	-0.464863	0.718228	0.499911
C44	C	-0.214863	0.968228	0.749911
C45	C	-0.858721	0.207383	-0.000078
C46	C	-0.608721	0.457383	0.249922
C47	C	-0.358721	0.707383	0.499922
C48	C	-0.108721	0.957383	0.749922
C49	C	-1.131031	0.052060	-0.000109
C50	C	-0.881031	0.302060	0.249891
C51	C	-0.631031	0.552060	0.499891
C52	C	-0.381031	0.802060	0.749891
C53	C	-1.120187	-0.054083	-0.000105
C54	C	-0.870187	0.195917	0.249895
C55	C	-0.620187	0.445917	0.499895
C56	C	-0.370187	0.695917	0.749895
C57	C	-1.312776	0.233807	-0.000121
C58	C	-1.062776	0.483807	0.249879
C59	C	-0.812776	0.733807	0.499879
C60	C	-0.562776	0.983807	0.749879
C61	C	-1.418919	0.244652	-0.000124
C62	C	-1.168919	0.494652	0.249876
C63	C	-0.918919	0.744652	0.499876
C64	C	-0.668919	0.994652	0.749876
C65	C	-1.146609	0.399975	-0.000101
C66	C	-0.896609	0.649975	0.249899
C67	C	-0.646609	0.899975	0.499899
C68	C	-0.396609	1.149975	0.749899
C69	C	-1.157453	0.506118	-0.000098
C70	C	-0.907453	0.756118	0.249902
C71	C	-0.657453	1.006118	0.499902
C72	C	-0.407453	1.256118	0.749902
C73	C	-0.664382	0.187558	-0.000100
C74	C	-0.414382	0.437558	0.249900
C75	C	-0.164382	0.687558	0.499900
C76	C	0.085618	0.937558	0.749900
C77	C	-0.613252	0.264473	-0.000102
C78	C	-0.363252	0.514473	0.249898
C79	C	-0.113252	0.764473	0.499898
C80	C	0.136748	1.014473	0.749898
C81	C	-0.505115	0.253442	-0.000115
C82	C	-0.255115	0.503442	0.249885
C83	C	-0.005115	0.753442	0.499885
C84	C	0.244885	1.003442	0.749885
C85	C	-0.772529	0.198588	-0.000088
C86	C	-0.522529	0.448588	0.249912
C87	C	-0.272529	0.698588	0.499912
C88	C	-0.022529	0.948588	0.749912
N89	N	-1.124449	0.240391	-0.254330
N90	N	-0.874449	0.490391	-0.004330
N91	N	-0.624449	0.740391	0.245670
N92	N	-0.374449	0.990391	0.495670
C93	C	-1.177279	0.700456	-0.000105
C94	C	-0.927279	0.950456	0.249895
C95	C	-0.677279	1.200456	0.499895
C96	C	-0.427279	1.450456	0.749895
C97	C	-1.100365	0.751585	-0.000098
C98	C	-0.850365	1.001585	0.249902
C99	C	-0.600365	1.251585	0.499902
C100	C	-0.350365	1.501585	0.749902
C101	C	-1.111396	0.859722	-0.000102
C102	C	-0.861396	1.109722	0.249898
C103	C	-0.611396	1.359722	0.499898
C104	C	-0.361396	1.609722	0.749898
C105	C	-1.166249	0.592310	-0.000101
C106	C	-0.916249	0.842310	0.249899
C107	C	-0.666249	1.092310	0.499899
C108	C	-0.416249	1.342310	0.749899
C109	C	-1.165544	0.199276	-0.526768
C110	C	-0.915544	0.449276	-0.276768
C111	C	-0.665544	0.699276	-0.026768
C112	C	-0.415544	0.949276	0.223232
C113	C	-1.112105	0.252750	-0.473437
C114	C	-0.862105	0.502750	-0.223437
C115	C	-0.612105	0.752750	0.026563
C116	C	-0.362105	1.002750	0.276563
C117	C	-1.118975	0.245872	-0.351514
C118	C	-0.868975	0.495872	-0.101514
C119	C	-0.618975	0.745872	0.148486
C120	C	-0.368975	0.995872	0.398486
C121	C	-1.158675	0.206153	-0.648702
C122	C	-0.908675	0.456153	-0.398702
C123	C	-0.658675	0.706153	-0.148702
C124	C	-0.408675	0.956153	0.101298
N125	N	-1.153197	0.211638	0.254117
N126	N	-0.903197	0.461638	0.504117
N127	N	-0.653197	0.711638	0.754117
N128	N	-0.403197	0.961638	1.004117
H129	H	-0.650692	0.338606	-0.000095
H130	H	-0.400692	0.588606	0.249905
H131	H	-0.150692	0.838606	0.499905
H132	H	0.099308	1.088606	0.749905
Br133	Br	-1.027252	0.337664	-0.549951
Br134	Br	-0.777252	0.587664	-0.299951
Br135	Br	-0.527252	0.837664	-0.049951
Br136	Br	-0.277252	1.087664	0.200049
H137	H	-1.026232	0.714146	-0.000091
H138	H	-0.776232	0.964146	0.249909
H139	H	-0.526232	1.214146	0.499909
H140	H	-0.276232	1.464146	0.749909
H141	H	-1.251406	0.737893	-0.000116
H142	H	-1.001406	0.987893	0.249884
H143	H	-0.751406	1.237893	0.499884
H144	H	-0.501406	1.487893	0.749884
Br145	Br	-1.250396	0.114368	-0.450258
Br146	Br	-1.000396	0.364368	-0.200258
Br147	Br	-0.750396	0.614368	0.049742
Br148	Br	-0.500396	0.864368	0.299742
H149	H	-0.626945	0.113431	-0.000109
H150	H	-0.376945	0.363431	0.249891
H151	H	-0.126945	0.613431	0.499891
H152	H	0.123055	0.863431	0.749891
