data_functionalizedCrystal
_audit_creation_method	'MofGen! by Chris Wilmer'
_symmetry_space_group_name_H-M	'P1'
_symmetry_Int_Tables_number	1
_symmetry_cell_setting	triclinic
loop_
_symmetry_equiv_pos_as_xyz
  x,y,z
_cell_length_a	18.050591
_cell_length_b	18.050590
_cell_length_c	12.759393
_cell_angle_alpha	89.964247
_cell_angle_beta	89.973464
_cell_angle_gamma	90.015000
loop_
_atom_site_label
_atom_site_type_symbol
_atom_site_fract_x
_atom_site_fract_y
_atom_site_fract_z
Zn1	Zn	1.135392	-0.295686	-0.594176
Zn2	Zn	1.135309	-0.419896	-0.418483
Zn3	Zn	1.011197	-0.295717	-0.418491
Zn4	Zn	1.011180	-0.419831	-0.594100
O5	O	1.073270	-0.357782	-0.506313
O6	O	1.239306	-0.312177	-0.570899
O7	O	1.118817	-0.403464	-0.271463
O8	O	1.027713	-0.191788	-0.441831
O9	O	1.239245	-0.403434	-0.441818
O10	O	1.118959	-0.191765	-0.570906
O11	O	1.027633	-0.312230	-0.271469
O12	O	0.907270	-0.312166	-0.441757
O13	O	1.027685	-0.403323	-0.741131
O14	O	0.907258	-0.403353	-0.570777
O15	O	1.118943	-0.312114	-0.741187
O16	O	1.118802	-0.523812	-0.441744
O17	O	1.027605	-0.523764	-0.570769
C18	C	0.880317	-0.357756	-0.506260
C19	C	0.797772	-0.357763	-0.506262
C20	C	1.073212	-0.550735	-0.506271
C21	C	1.073256	-0.633280	-0.506288
C22	C	0.548931	-0.308125	-0.436268
C23	C	0.598368	-0.290029	-0.532150
C24	C	0.500651	-0.357801	-0.506348
C25	C	0.598296	-0.375843	-0.410429
C26	C	0.646636	-0.357780	-0.506301
C27	C	0.549001	-0.339670	-0.602282
C28	C	0.548925	-0.425516	-0.480496
C29	C	0.598339	-0.407446	-0.576445
C30	C	0.416553	-0.357811	-0.506374
C31	C	0.730733	-0.357771	-0.506286
C32	C	1.122952	-0.832730	-0.436222
C33	C	1.141096	-0.882055	-0.532112
C34	C	1.073298	-0.784411	-0.506330
C35	C	1.055230	-0.882167	-0.410483
C36	C	1.073340	-0.930396	-0.506362
C37	C	1.091476	-0.832648	-0.602270
C38	C	1.005580	-0.832756	-0.480576
C39	C	1.023697	-0.882059	-0.576532
C40	C	1.073276	-0.700312	-0.506310
C41	C	1.073362	-1.014492	-0.506393
C42	C	1.266975	-0.357809	-0.506366
C43	C	1.349521	-0.357821	-0.506389
C44	C	1.073322	-0.357708	-0.780346
C45	C	1.073344	-0.357676	-0.897123
C46	C	1.073347	-0.164077	-0.506378
C47	C	1.073380	-0.081531	-0.506405
C48	C	1.120868	-0.310179	-0.952016
C49	C	1.120886	-0.310152	-1.061740
C50	C	1.025852	-0.405125	-1.061669
C51	C	1.025832	-0.405148	-0.951947
C52	C	1.175737	-0.255349	-0.952058
C53	C	1.175755	-0.255322	-1.061782
C54	C	1.073260	-0.357803	-0.233345
C55	C	1.073382	-0.357626	-0.116569
H56	H	0.527239	-0.266092	-0.377096
C57	C	0.627466	-0.464192	-0.656561
C58	C	0.711469	-0.475157	-0.670817
C59	C	0.740597	-0.531901	-0.750932
C60	C	0.685721	-0.577681	-0.816792
C61	C	0.601712	-0.566717	-0.802538
C62	C	0.572585	-0.509973	-0.722423
H63	H	0.752096	-0.441267	-0.622062
H64	H	0.802785	-0.540017	-0.761484
H65	H	0.707282	-0.619686	-0.876099
H66	H	0.561085	-0.600607	-0.851293
H67	H	0.510396	-0.501857	-0.711871
H68	H	1.233272	-0.270730	-1.091570
H69	H	1.160354	-0.197834	-0.922305
C70	C	1.249524	-0.283199	-0.906077
C71	C	1.312773	-0.307042	-0.979723
C72	C	1.386559	-0.334895	-0.933742
C73	C	1.397097	-0.338905	-0.814114
C74	C	1.333847	-0.315061	-0.740461
C75	C	1.260061	-0.287209	-0.786442
H76	H	1.304973	-0.304074	-1.068286
H77	H	1.433380	-0.352545	-0.988266
H78	H	1.451718	-0.359523	-0.780076
H79	H	1.341646	-0.318029	-0.651899
H80	H	1.213239	-0.269558	-0.731918
C81	C	0.967002	-0.911154	-0.656733
C82	C	0.901992	-0.959999	-0.620091
C83	C	0.845304	-0.989101	-0.700295
C84	C	0.853626	-0.969358	-0.817140
C85	C	0.918638	-0.920510	-0.853788
C86	C	0.975326	-0.891408	-0.773584
H87	H	0.895830	-0.974617	-0.533590
H88	H	0.797178	-1.025261	-0.673165
H89	H	0.811662	-0.990900	-0.876512
H90	H	0.924800	-0.905892	-0.940289
H91	H	1.023452	-0.855248	-0.800714
H92	H	0.527437	-0.324335	-0.683403
H93	H	0.527191	-0.482773	-0.458615
H94	H	0.619952	-0.391111	-0.329331
H95	H	1.039931	-0.903918	-0.329413
C96	C	0.973540	-0.457389	-0.891577
C97	C	0.889123	-0.451295	-0.906666
C98	C	0.836825	-0.503537	-0.846303
C99	C	0.868943	-0.561875	-0.770851
C100	C	0.953364	-0.567972	-0.755758
C101	C	1.005663	-0.515729	-0.816121
H102	H	0.865343	-0.408108	-0.962524
H103	H	0.774330	-0.499024	-0.857476
H104	H	0.830229	-0.600548	-0.726166
H105	H	0.977144	-0.611158	-0.699900
H106	H	1.068157	-0.520243	-0.804948
C107	C	1.147968	-0.181495	-1.107788
C108	C	1.079161	-0.180304	-1.179074
C109	C	1.051371	-0.106480	-1.225080
C110	C	1.092388	-0.033846	-1.199802
C111	C	1.161200	-0.035034	-1.128513
C112	C	1.188990	-0.108858	-1.082506
H113	H	1.048793	-0.234075	-1.197789
H114	H	1.000432	-0.105602	-1.277853
H115	H	1.071817	0.020802	-1.233859
H116	H	1.191567	0.018736	-1.109797
H117	H	1.239929	-0.109737	-1.029733
C118	C	0.928213	-0.803471	-0.451087
C119	C	0.894181	-0.823000	-0.343877
C120	C	0.816813	-0.793713	-0.314374
C121	C	0.773478	-0.744897	-0.392082
C122	C	0.807510	-0.725365	-0.499300
C123	C	0.884877	-0.754652	-0.528802
H124	H	0.926260	-0.859139	-0.286347
H125	H	0.791621	-0.808172	-0.235005
H126	H	0.716206	-0.723217	-0.370243
H127	H	0.775430	-0.689227	-0.556830
H128	H	0.910069	-0.740193	-0.608172
C129	C	1.179692	-0.803460	-0.356211
C130	C	1.262318	-0.822922	-0.368216
C131	C	1.319059	-0.793651	-0.288212
C132	C	1.293175	-0.744917	-0.196201
C133	C	1.210545	-0.725452	-0.184191
C134	C	1.153804	-0.754724	-0.264196
H135	H	1.281482	-0.859000	-0.436332
H136	H	1.380227	-0.808060	-0.297102
H137	H	1.335178	-0.723248	-0.136977
H138	H	1.191381	-0.689374	-0.116076
H139	H	1.092636	-0.740314	-0.255305
C140	C	1.218483	-0.911317	-0.561567
C141	C	1.232502	-0.995343	-0.567911
C142	C	1.309891	-1.024601	-0.597357
C143	C	1.373261	-0.969833	-0.620459
C144	C	1.359244	-0.885801	-0.614116
C145	C	1.281855	-0.856543	-0.584670
H146	H	1.185590	-1.035891	-0.550809
H147	H	1.320267	-1.086807	-0.602052
H148	H	1.430549	-0.991491	-0.642256
H149	H	1.406156	-0.845253	-0.631217
H150	H	1.271478	-0.794337	-0.579974
C151	C	0.627713	-0.212659	-0.561676
C152	C	0.608213	-0.145200	-0.493195
C153	C	0.637554	-0.067829	-0.522713
C154	C	0.686395	-0.057917	-0.620713
C155	C	0.705897	-0.125378	-0.689201
C156	C	0.676556	-0.202749	-0.659682
H157	H	0.572056	-0.152535	-0.420644
H158	H	0.623118	-0.017890	-0.472014
H159	H	0.708115	-0.000642	-0.642564
H160	H	0.742054	-0.118043	-0.761751
H161	H	0.690993	-0.252689	-0.710382
C162	C	0.973597	-0.457350	-1.121974
C163	C	0.889171	-0.451283	-1.106865
C164	C	0.836915	-0.503511	-1.167166
C165	C	0.869086	-0.561807	-1.242577
C166	C	0.953516	-0.567877	-1.257690
C167	C	1.005771	-0.515648	-1.197389
H168	H	0.865352	-0.408126	-1.051038
H169	H	0.774414	-0.499018	-1.155978
H170	H	0.830403	-0.600470	-1.287216
H171	H	0.977335	-0.611034	-1.313517
H172	H	1.068272	-0.520142	-1.208577
H173	H	1.106719	-0.810990	-0.683410
