data_functionalizedCrystal
_audit_creation_method	'MofGen! by Chris Wilmer'
_symmetry_space_group_name_H-M	'P1'
_symmetry_Int_Tables_number	1
_symmetry_cell_setting	triclinic
loop_
_symmetry_equiv_pos_as_xyz
  x,y,z
_cell_length_a	20.919287
_cell_length_b	20.875641
_cell_length_c	20.875641
_cell_angle_alpha	60.089808
_cell_angle_beta	86.850091
_cell_angle_gamma	60.562186
loop_
_atom_site_label
_atom_site_type_symbol
_atom_site_fract_x
_atom_site_fract_y
_atom_site_fract_z
Zr1	Zr	0.647226	0.691825	-0.140167
O2	O	0.553235	0.818432	-0.238436
O3	O	0.672523	0.560471	-0.106580
O4	O	0.681968	0.684458	-0.240554
O5	O	0.540339	0.701912	-0.002720
O6	O	0.787515	0.684047	-0.246164
O7	O	0.543790	0.694445	-0.104462
O8	O	0.770619	0.462258	-0.006509
O9	O	0.557235	0.923701	-0.242375
O10	O	0.766329	0.615951	-0.100625
O11	O	0.684985	0.621830	-0.020510
O12	O	0.696106	0.767808	-0.178247
O13	O	0.614762	0.773687	-0.098131
Zr14	Zr	0.810059	0.703078	0.013154
Zr15	Zr	0.815562	0.691169	-0.149114
Zr16	Zr	0.641723	0.703734	0.022100
Zr17	Zr	0.653606	0.859718	-0.146449
Zr18	Zr	0.803679	0.535185	0.019436
O19	O	0.784762	0.834432	-0.020433
O20	O	0.792587	0.817499	-0.251157
O21	O	0.545411	0.835364	-0.007713
O22	O	0.904050	0.576472	0.111423
O23	O	0.911875	0.559539	-0.119301
O24	O	0.664698	0.577404	0.124143
O25	O	0.916946	0.692991	-0.124294
O26	O	0.775317	0.710445	0.113541
O27	O	0.669770	0.710857	0.119150
O28	O	0.913496	0.700458	-0.022551
O29	O	0.691040	0.923180	-0.249486
O30	O	0.766245	0.471723	0.122473
O31	O	0.900050	0.471202	0.115361
O32	O	0.904424	0.461736	-0.013620
O33	O	0.552861	0.933167	-0.113394
O34	O	0.686666	0.932646	-0.120505
O35	O	0.761179	0.627095	0.051233
O36	O	0.842523	0.621216	-0.028882
O37	O	0.772300	0.773073	-0.106504
O38	O	0.690956	0.778953	-0.026388
C39	C	0.720662	0.487443	-0.055649
C40	C	0.717953	0.416168	-0.052983
C41	C	0.759139	0.379614	-0.093549
C42	C	0.756596	0.312640	-0.091036
C43	C	0.712862	0.282225	-0.047961
C44	C	0.671675	0.318782	-0.007389
C45	C	0.674223	0.385751	-0.009898
C46	C	0.700692	0.082261	-0.035968
C47	C	0.698146	0.015289	-0.033464
C48	C	0.783068	0.009150	-0.117110
C49	C	0.785609	0.076124	-0.119619
C50	C	0.744425	0.112673	-0.079045
N51	N	0.710259	0.213768	-0.045393
N52	N	0.747032	0.181124	-0.081609
C53	C	0.518080	0.698272	-0.052316
C54	C	0.446617	0.698551	-0.048519
C55	C	0.414944	0.694570	-0.102787
C56	C	0.347799	0.694828	-0.099214
C57	C	0.312325	0.699071	-0.041377
C58	C	0.344004	0.703049	0.012897
C59	C	0.411151	0.702786	0.009327
C60	C	0.109493	0.700067	-0.027791
C61	C	0.042341	0.700333	-0.024227
C62	C	0.046141	0.692110	-0.136338
C63	C	0.113287	0.691852	-0.139905
C64	C	0.144962	0.695825	-0.085629
C65	C	0.243691	0.699337	-0.037725
C66	C	0.213598	0.695553	-0.089278
C67	C	0.939205	0.696631	-0.074697
C68	C	1.010668	0.696353	-0.078495
C69	C	0.735526	0.682556	-0.266479
C70	C	0.737862	0.677500	-0.335366
C71	C	0.736623	0.907460	-0.071364
C72	C	0.739332	0.978735	-0.074031
C73	C	0.702305	0.754391	-0.408247
C74	C	0.704510	0.749635	-0.472971
C75	C	0.742267	0.667988	-0.464812
C76	C	0.777829	0.591092	-0.391924
C77	C	0.775628	0.595848	-0.327201
C78	C	0.752784	0.645263	-0.654037
C79	C	0.754980	0.640513	-0.718767
C80	C	0.681662	0.799057	-0.799810
C81	C	0.679461	0.803806	-0.735082
C82	C	0.715026	0.726910	-0.662200
N83	N	0.744520	0.663125	-0.530970
N84	N	0.712777	0.731773	-0.596044
C85	C	0.721759	0.712348	0.139465
C86	C	0.719423	0.717403	0.208352
C87	C	0.931224	0.486623	-0.066840
C88	C	0.999979	0.415070	-0.067971
C89	C	0.713779	0.502339	0.147323
C90	C	0.708734	0.436120	0.218876
C91	C	0.924341	0.501519	0.136132
C92	C	0.990760	0.435021	0.203888
C93	C	0.532944	0.893384	-0.263146
C94	C	0.466526	0.959882	-0.330901
C95	C	0.526061	0.908280	-0.060174
C96	C	0.457306	0.979834	-0.059043
C97	C	0.743506	0.892564	-0.274336
C98	C	0.748551	0.958783	-0.345890
C99	C	0.992494	0.378718	-0.105958
C100	C	1.057091	0.311495	-0.107036
C101	C	1.129171	0.280619	-0.070122
C102	C	1.136654	0.316977	-0.032134
C103	C	1.072058	0.384204	-0.031061
C104	C	0.746137	0.407772	0.289934
C105	C	0.741394	0.345562	0.357173
C106	C	0.699253	0.311696	0.353351
C107	C	0.661845	0.340050	0.282285
C108	C	0.666584	0.402264	0.215048
C109	C	1.064418	0.400724	0.193887
C110	C	1.126832	0.338251	0.257543
C111	C	1.115586	0.310072	0.331201
C112	C	1.041920	0.344376	0.341201
C113	C	0.979508	0.406852	0.277544
C114	C	0.392868	0.994187	-0.320901
C115	C	0.330454	1.056681	-0.384558
C116	C	0.341700	1.084864	-0.458216
C117	C	0.415366	1.050556	-0.468215
C118	C	0.477778	0.988068	-0.404558
C119	C	0.464791	1.016191	-0.021062
C120	C	0.400196	1.083432	-0.020003
C121	C	0.328116	1.114310	-0.056919
C122	C	0.320633	1.077949	-0.094904
C123	C	0.385228	1.010714	-0.095968
C124	C	0.790699	0.992629	-0.342043
C125	C	0.795454	1.054841	-0.409270
C126	C	0.758056	1.083210	-0.480342
C127	C	0.715906	1.049357	-0.484186
C128	C	0.711156	0.987142	-0.416961
H129	H	0.816600	-0.020614	-0.150144
H130	H	0.214802	0.702795	0.009366
H131	H	0.695400	0.261038	0.408105
C132	C	0.759741	0.511816	-0.562153
C133	C	0.791865	0.560731	-0.573935
H134	H	0.783865	0.459627	-0.512698
H135	H	0.766451	0.497320	-0.599540
H136	H	0.707121	0.545325	-0.566219
H137	H	0.844484	0.527224	-0.569875
H138	H	0.785161	0.575225	-0.536538
C139	C	1.008378	0.489670	0.003870
C140	C	1.080291	0.424145	0.010713
H141	H	1.013467	0.514326	0.029660
H142	H	0.978827	0.465090	0.025897
H143	H	0.984076	0.534042	-0.048588
H144	H	1.104592	0.379769	0.063171
H145	H	1.109854	0.448725	-0.011312
C146	C	0.227101	1.121335	-0.524570
C147	C	0.273091	1.153544	-0.528184
H148	H	0.184745	1.163733	-0.567766
H149	H	0.209869	1.109465	-0.479273
H150	H	0.255498	1.068971	-0.524234
H151	H	0.244695	1.205906	-0.528514
H152	H	0.290322	1.165427	-0.573492
C153	C	0.687861	1.142317	-0.620499
C154	C	0.674791	1.080555	-0.562314
H155	H	0.662471	1.161585	-0.668731
H156	H	0.740765	1.116385	-0.616714
H157	H	0.669199	1.190874	-0.615518
H158	H	0.693459	1.031995	-0.567291
H159	H	0.621876	1.106486	-0.566101
H160	H	0.808576	0.524613	-0.385286
C161	C	0.539830	0.371064	0.240049
C162	C	0.615533	0.302807	0.278099
H163	H	0.511244	0.348062	0.237473
H164	H	0.537291	0.412164	0.189836
H165	H	0.519609	0.399247	0.267041
H166	H	0.635755	0.274627	0.251103
H167	H	0.618075	0.261692	0.328321
H168	H	0.270478	1.084604	-0.376401
H169	H	0.780454	0.435339	0.293061
H170	H	0.761929	1.133870	-0.535075
C171	C	1.208827	0.329115	0.042032
C172	C	1.215887	0.283022	0.008453
H173	H	1.257744	0.308148	0.067089
H174	H	1.179347	0.320760	0.078129
H175	H	1.184612	0.389698	0.003645
H176	H	1.240097	0.222439	0.046841
H177	H	1.245379	0.291369	-0.027647
H178	H	0.406304	1.113027	0.010932
H179	H	0.785726	0.574022	-0.712115
C180	C	0.729476	0.333714	0.477095
C181	C	0.782522	0.314401	0.435280
H182	H	0.754867	0.314482	0.525311
H183	H	0.703705	0.304641	0.484449
H184	H	0.693887	0.395121	0.449887
H185	H	0.818107	0.252993	0.462486
H186	H	0.808305	0.343471	0.427929
C187	C	0.653018	0.361783	0.129672
C188	C	0.625477	0.433410	0.136941
H189	H	0.627641	0.381011	0.081450
H190	H	0.644163	0.319896	0.169169
H191	H	0.705927	0.335874	0.133454
H192	H	0.572569	0.459315	0.133164
H193	H	0.634325	0.475312	0.097433
C194	C	0.838065	1.152645	-0.479042
C195	C	0.841781	1.092050	-0.405032
H196	H	0.866669	1.175610	-0.476422
H197	H	0.786718	1.198957	-0.504863
H198	H	0.858301	1.124455	-0.506028
H199	H	0.821541	1.120241	-0.378048
H200	H	0.893138	1.045730	-0.379200
H201	H	0.383696	0.971244	-0.260930
C202	C	1.154627	0.388278	0.117611
C203	C	1.076791	0.431615	0.112930
H204	H	1.162268	0.407329	0.067633
H205	H	1.175785	0.326937	0.145631
H206	H	1.178615	0.401190	0.142735
H207	H	1.052804	0.418697	0.087811
H208	H	1.055624	0.492970	0.084899
C209	C	0.632989	0.988004	-0.497778
C210	C	0.664812	0.949954	-0.421197
H211	H	0.604374	0.965050	-0.500395
H212	H	0.672284	0.975130	-0.523023
H213	H	0.600717	1.049637	-0.521849
H214	H	0.697089	0.888321	-0.397127
H215	H	0.625512	0.962821	-0.395942
H216	H	1.050983	0.281900	-0.137970
H217	H	1.181762	0.225878	-0.071001
C218	C	1.248346	0.319169	0.278510
C219	C	1.207797	0.300566	0.246530
H220	H	1.298326	0.295914	0.271702
H221	H	1.250595	0.293437	0.331484
H222	H	1.223622	0.380776	0.254022
H223	H	1.232518	0.238959	0.271022
H224	H	1.205551	0.326295	0.193546
C225	C	0.210048	1.158331	-0.020882
C226	C	0.257112	1.188219	-0.055752
H227	H	0.166213	1.203963	-0.020166
H228	H	0.236724	1.109675	0.029950
H229	H	0.195277	1.141099	-0.048792
H230	H	0.271887	1.205445	-0.027839
H231	H	0.230431	1.236890	-0.106593
C232	C	0.888714	0.096834	-0.118963
C233	C	0.833692	0.109544	-0.166962
H234	H	0.918395	0.117470	-0.148193
H235	H	0.920519	0.036227	-0.080983
H236	H	0.864540	0.128198	-0.095170
H237	H	0.857867	0.078174	-0.190751
H238	H	0.801883	0.170161	-0.204955
H239	H	0.821154	0.969541	-0.284179
C240	C	0.007409	0.612873	-0.159148
C241	C	0.011329	0.687730	-0.195990
H242	H	-0.014076	0.610165	-0.195976
H243	H	-0.023329	0.615447	-0.124201
H244	H	0.056979	0.562238	-0.132290
H245	H	-0.038241	0.738366	-0.222843
H246	H	0.042067	0.685163	-0.230950
C247	C	0.842833	0.366805	-0.175968
C248	C	0.807217	0.413041	-0.140897
H249	H	0.872520	0.387435	-0.205194
H250	H	0.805503	0.375428	-0.208520
H251	H	0.874643	0.306194	-0.137973
H252	H	0.775403	0.473651	-0.178893
H253	H	0.844552	0.404425	-0.108344
H254	H	0.636070	0.294009	0.027688
C255	C	1.099908	0.251301	0.475922
C256	C	1.029566	0.313387	0.422169
H257	H	1.092280	0.232162	0.525909
H258	H	1.128977	0.276913	0.467779
H259	H	1.126166	0.202713	0.470537
H260	H	1.003310	0.361977	0.427550
H261	H	1.000485	0.287775	0.430315
H262	H	0.804582	0.533235	-0.267858
H263	H	0.662529	-0.009471	0.001613
C264	C	0.901861	0.406598	0.366642
C265	C	0.898542	0.444537	0.288546
H266	H	0.851876	0.429858	0.373437
H267	H	0.929372	0.419212	0.388336
H268	H	0.926577	0.344994	0.391115
H269	H	0.873831	0.506140	0.264075
H270	H	0.871020	0.431930	0.266843
H271	H	1.166413	0.259199	0.383027
H272	H	0.424514	1.073510	-0.528195
H273	H	0.379123	0.981113	-0.126894
H274	H	0.537752	0.960136	-0.412710
H275	H	0.523476	0.991057	0.009005
H276	H	0.261937	1.103100	-0.124961
H277	H	0.667160	0.112008	-0.002927
C278	C	0.752031	0.284778	-0.188722
C279	C	0.801867	0.272454	-0.135626
H280	H	0.779984	0.259961	-0.216245
H281	H	0.716694	0.345638	-0.223230
H282	H	0.725625	0.257077	-0.162697
H283	H	0.828269	0.300161	-0.161652
H284	H	0.837218	0.211582	-0.101113
C285	C	0.473426	0.612718	-0.161224
C286	C	0.453937	0.689902	-0.166362
H287	H	0.497502	0.609833	-0.200471
H288	H	0.428905	0.612312	-0.166867
H289	H	0.507100	0.563662	-0.112853
H290	H	0.420259	0.738958	-0.214732
H291	H	0.498464	0.690316	-0.160727
C292	C	0.309072	0.615592	-0.122034
C293	C	0.312989	0.690451	-0.158869
H294	H	0.287588	0.612887	-0.158866
H295	H	0.278335	0.618160	-0.087086
H296	H	0.358643	0.564958	-0.095178
H297	H	0.263417	0.741086	-0.185721
H298	H	0.343726	0.687890	-0.193831
H299	H	0.142168	0.688396	-0.187001
C300	C	0.045329	0.708426	0.086242
C301	C	0.003347	0.704996	0.039354
H302	H	0.021256	0.711302	0.125493
H303	H	0.048153	0.758857	0.056604
H304	H	0.095049	0.657434	0.108439
H305	H	-0.046371	0.755991	0.017153
H306	H	0.000515	0.654560	0.068997
H307	H	0.933810	0.403855	-0.136028
C308	C	0.148228	0.779288	-0.004957
C309	C	0.144297	0.704438	0.031870
H310	H	0.169719	0.781981	0.031880
H311	H	0.098669	0.829923	-0.031813
H312	H	0.178975	0.776712	-0.039904
H313	H	0.113546	0.707018	0.066814
H314	H	0.193864	0.653790	0.058739
H315	H	0.640683	0.415515	0.023133
H316	H	0.315120	0.706499	0.059993
H317	H	0.436939	0.706025	0.053519
H318	H	0.242485	0.692093	-0.136368
H319	H	0.671553	0.820877	-0.414898
C320	C	0.697519	0.883101	-0.564881
C321	C	0.665419	0.834160	-0.553080
H322	H	0.673380	0.935289	-0.614336
H323	H	0.750133	0.849613	-0.560822
H324	H	0.690802	0.897606	-0.527493
H325	H	0.672141	0.819650	-0.590465
H326	H	0.612792	0.867655	-0.557147
C327	C	0.607222	0.960043	-0.821695
C328	C	0.637963	0.893556	-0.744054
H329	H	0.581606	1.015450	-0.827232
H330	H	0.572405	0.955039	-0.843277
H331	H	0.646810	0.954738	-0.847227
H332	H	0.598374	0.898857	-0.718523
H333	H	0.672782	0.898562	-0.722462
C334	C	0.652485	0.862167	-0.935011
C335	C	0.642580	0.883578	-0.879922
H336	H	0.628362	0.914350	-0.984470
H337	H	0.630705	0.828971	-0.926996
H338	H	0.705110	0.828669	-0.930935
H339	H	0.589955	0.917071	-0.883995
H340	H	0.664358	0.916787	-0.887941
