data_functionalizedCrystal
_audit_creation_method	'MofGen! by Chris Wilmer'
_symmetry_space_group_name_H-M	'P1'
_symmetry_Int_Tables_number	1
_symmetry_cell_setting	triclinic
loop_
_symmetry_equiv_pos_as_xyz
  x,y,z
_cell_length_a	19.188930
_cell_length_b	14.044220
_cell_length_c	13.101039
_cell_angle_alpha	93.659868
_cell_angle_beta	93.345801
_cell_angle_gamma	91.833170
loop_
_atom_site_label
_atom_site_type_symbol
_atom_site_fract_x
_atom_site_fract_y
_atom_site_fract_z
O1	O	0.164759	-1.262233	-0.085127
O2	O	0.498092	-0.928899	0.248206
O3	O	0.831425	-0.595566	0.581540
O4	O	0.158685	-0.986290	-0.085152
O5	O	0.492018	-0.652957	0.248181
O6	O	0.825352	-0.319624	0.581514
O7	O	0.060581	-1.132223	-0.085119
O8	O	0.393914	-0.798890	0.248214
O9	O	0.727248	-0.465557	0.581548
O10	O	0.262863	-1.116300	-0.085160
O11	O	0.596196	-0.782966	0.248173
O12	O	0.929530	-0.449633	0.581506
O13	O	0.067633	-1.121753	0.085309
O14	O	0.400966	-0.788419	0.418642
O15	O	0.734299	-0.455086	0.751975
O16	O	0.165737	-0.975820	0.085275
O17	O	0.499070	-0.642486	0.418609
O18	O	0.832403	-0.309153	0.751942
O19	O	0.171810	-1.251762	0.085300
O20	O	0.505144	-0.918429	0.418634
O21	O	0.838477	-0.585095	0.751967
Zn22	Zn	0.169893	-1.112128	0.112347
Zn23	Zn	0.503226	-0.778795	0.445680
Zn24	Zn	0.836560	-0.445462	0.779014
Zn25	Zn	0.160602	-1.125924	-0.112199
Zn26	Zn	0.493936	-0.792591	0.221135
Zn27	Zn	0.827269	-0.459257	0.554468
O28	O	0.269914	-1.105829	0.085267
O29	O	0.603248	-0.772496	0.418600
O30	O	0.936581	-0.439162	0.751934
C31	C	0.038063	-1.126472	0.000098
C32	C	0.371396	-0.793139	0.333431
C33	C	0.704729	-0.459805	0.666764
C34	C	-0.039541	-1.124923	0.000106
C35	C	0.293792	-0.791590	0.333440
C36	C	0.627125	-0.458257	0.666773
C37	C	0.159553	-0.945752	0.000059
C38	C	0.492886	-0.612418	0.333392
C39	C	0.826219	-0.279085	0.666725
C40	C	0.151623	-0.840559	0.000050
C41	C	0.484957	-0.507226	0.333383
C42	C	0.818290	-0.173893	0.666717
C43	C	0.170943	-1.292301	0.000087
C44	C	0.504276	-0.958967	0.333421
C45	C	0.837609	-0.625634	0.666754
C46	C	0.178872	-1.397494	0.000089
C47	C	0.512205	-1.064160	0.333423
C48	C	0.845538	-0.730827	0.666756
C49	C	-0.078939	-1.210553	0.000119
C50	C	0.254394	-0.877219	0.333452
C51	C	0.587728	-0.543886	0.666786
C52	C	-0.151857	-1.209099	0.000103
C53	C	0.181476	-0.875766	0.333436
C54	C	0.514809	-0.542432	0.666769
C55	C	-0.185374	-1.122010	0.000094
C56	C	0.147959	-0.788677	0.333427
C57	C	0.481292	-0.455344	0.666761
C58	C	-0.145968	-1.036370	0.000075
C59	C	0.187366	-0.703037	0.333409
C60	C	0.520699	-0.369703	0.666742
C61	C	-0.073051	-1.037827	0.000082
C62	C	0.260282	-0.704493	0.333415
C63	C	0.593615	-0.371160	0.666748
N64	N	-0.295275	-1.051878	0.058088
N65	N	0.038058	-0.718544	0.391421
N66	N	0.371391	-0.385211	0.724754
N67	N	-0.364543	-1.050500	0.058084
N68	N	-0.031210	-0.717167	0.391417
N69	N	0.302123	-0.383833	0.724750
C70	C	-0.405067	-1.117617	0.000073
C71	C	-0.071734	-0.784283	0.333406
C72	C	0.261599	-0.450950	0.666739
N73	N	-0.373707	-1.186177	-0.057921
N74	N	-0.040374	-0.852844	0.275412
N75	N	0.292960	-0.519510	0.608745
N76	N	-0.304433	-1.187558	-0.057913
N77	N	0.028900	-0.854224	0.275420
N78	N	0.362234	-0.520891	0.608754
C79	C	-0.264440	-1.120421	0.000086
C80	C	0.068894	-0.787088	0.333420
C81	C	0.402227	-0.453755	0.666753
C82	C	-0.523532	-1.201676	0.000066
C83	C	-0.190198	-0.868342	0.333399
C84	C	0.143135	-0.535009	0.666733
C85	C	-0.596452	-1.200219	0.000043
C86	C	-0.263118	-0.866886	0.333377
C87	C	0.070215	-0.533552	0.666710
C88	C	-0.590560	-1.027487	0.000026
C89	C	-0.257227	-0.694154	0.333360
C90	C	0.076107	-0.360820	0.666693
C91	C	-0.517642	-1.028947	0.000039
C92	C	-0.184309	-0.695613	0.333372
C93	C	0.149025	-0.362280	0.666706
C94	C	-0.484132	-1.116043	0.000064
C95	C	-0.150799	-0.782710	0.333397
C96	C	0.182534	-0.449377	0.666730
C97	C	0.292433	-1.111580	0.000048
C98	C	0.625766	-0.778247	0.333382
C99	C	0.959099	-0.444914	0.666715
C100	C	0.370037	-1.113129	0.000033
C101	C	0.703370	-0.779796	0.333366
C102	C	1.036703	-0.446463	0.666699
N103	N	0.176234	-1.102720	0.265593
N104	N	0.509567	-0.769387	0.598927
N105	N	0.842900	-0.436054	0.932260
C106	C	0.137129	-0.647957	0.000073
C107	C	0.470462	-0.314623	0.333407
C108	C	0.803796	0.018710	0.666740
C109	C	0.193363	-0.590091	0.000066
C110	C	0.526696	-0.256757	0.333399
C111	C	0.860030	0.076576	0.666733
C112	C	0.185298	-0.482920	0.000079
C113	C	0.518631	-0.149587	0.333412
C114	C	0.851965	0.183747	0.666746
C115	C	0.145193	-0.755137	0.000060
C116	C	0.478526	-0.421804	0.333394
C117	C	0.811859	-0.088471	0.666727
N118	N	0.154257	-1.135340	-0.265445
N119	N	0.487590	-0.802006	0.067888
N120	N	0.820923	-0.468673	0.401222
C121	C	0.184867	-1.089920	0.474633
C122	C	0.518200	-0.756587	0.807966
C123	C	0.851534	-0.423254	1.141300
C124	C	0.145626	-1.148137	0.525522
C125	C	0.478959	-0.814803	0.858855
C126	C	0.812292	-0.481470	1.192189
C127	C	0.150429	-1.141014	0.641839
C128	C	0.483762	-0.807681	0.975172
C129	C	0.817096	-0.474348	1.308505
C130	C	0.180064	-1.097041	0.358306
C131	C	0.513398	-0.763708	0.691639
C132	C	0.846731	-0.430374	1.024972
H133	H	-0.051660	-1.281474	0.000136
H134	H	0.281673	-0.948140	0.333469
H135	H	0.615006	-0.614807	0.666802
C136	C	0.235123	-1.015365	0.533788
C137	C	0.568456	-0.682031	0.867121
C138	C	0.901789	-0.348698	1.200454
N139	N	0.272975	-0.959211	0.578355
N140	N	0.606309	-0.625878	0.911688
N141	N	0.939642	-0.292544	1.245022
H142	H	0.082932	-0.617011	0.000090
H143	H	0.416266	-0.283678	0.333423
H144	H	0.749599	0.049656	0.666757
C145	C	-0.195203	-1.303301	0.000123
C146	C	0.138130	-0.969968	0.333456
C147	C	0.471464	-0.636634	0.666790
N148	N	-0.227849	-1.374254	0.000141
N149	N	0.105485	-1.040921	0.333475
N150	N	0.438818	-0.707588	0.666808
C151	C	-0.639789	-1.294423	0.000063
C152	C	-0.306456	-0.961090	0.333396
C153	C	0.026878	-0.627756	0.666729
N154	N	-0.672431	-1.365379	0.000082
N155	N	-0.339098	-1.032046	0.333415
N156	N	-0.005765	-0.698712	0.666749
C157	C	-0.182837	-0.940572	0.000073
C158	C	0.150496	-0.607238	0.333407
C159	C	0.483829	-0.273905	0.666740
N160	N	-0.210608	-0.868413	0.000071
N161	N	0.122726	-0.535080	0.333405
N162	N	0.456059	-0.201747	0.666738
H163	H	-0.485564	-0.959218	0.000034
H164	H	-0.152230	-0.625884	0.333368
H165	H	0.181103	-0.292551	0.666701
H166	H	0.108423	-1.203327	0.481732
H167	H	0.441756	-0.869993	0.815066
H168	H	0.775090	-0.536660	1.148399
H169	H	-0.040974	-0.968095	0.000072
H170	H	0.292360	-0.634761	0.333405
H171	H	0.625693	-0.301428	0.666738
H172	H	-0.496247	-1.272595	0.000082
H173	H	-0.162913	-0.939262	0.333415
H174	H	0.170420	-0.605929	0.666748
H175	H	-0.617849	-0.956578	0.000014
H176	H	-0.284516	-0.623245	0.333348
H177	H	0.048818	-0.289911	0.666681
H178	H	0.247564	-0.621038	0.000050
H179	H	0.580897	-0.287705	0.333383
H180	H	0.914231	0.045629	0.666717
