data_functionalizedCrystal
_audit_creation_method	'MofGen! by Chris Wilmer'
_symmetry_space_group_name_H-M	'P1'
_symmetry_Int_Tables_number	1
_symmetry_cell_setting	triclinic
loop_
_symmetry_equiv_pos_as_xyz
  x,y,z
_cell_length_a	11.169417
_cell_length_b	12.827892
_cell_length_c	11.169409
_cell_angle_alpha	90.033086
_cell_angle_beta	90.019824
_cell_angle_gamma	90.016270
loop_
_atom_site_label
_atom_site_type_symbol
_atom_site_fract_x
_atom_site_fract_y
_atom_site_fract_z
Zn1	Zn	1.834920	-0.415924	0.678536
Zn2	Zn	2.168254	-0.082591	1.011870
Zn3	Zn	2.501587	0.250743	1.345203
Zn4	Zn	1.834792	-0.590711	0.477851
Zn5	Zn	2.168125	-0.257378	0.811184
Zn6	Zn	2.501459	0.075955	1.144517
Zn7	Zn	1.634206	-0.415988	0.477871
Zn8	Zn	1.967539	-0.082654	0.811204
Zn9	Zn	2.300873	0.250679	1.144538
Zn10	Zn	1.634196	-0.590626	0.678496
Zn11	Zn	1.967529	-0.257293	1.011829
Zn12	Zn	2.300863	0.076040	1.345162
O13	O	1.734528	-0.503312	0.578188
O14	O	2.067862	-0.169979	0.911522
O15	O	2.401195	0.163354	1.244855
O16	O	2.002853	-0.439119	0.651924
O17	O	2.336186	-0.105785	0.985257
O18	O	2.669520	0.227548	1.318590
O19	O	1.808134	-0.567596	0.309904
O20	O	2.141468	-0.234263	0.643237
O21	O	2.474801	0.099071	0.976570
O22	O	1.660889	-0.269743	0.504515
O23	O	1.994223	0.063590	0.837848
O24	O	2.327556	0.396924	1.171182
O25	O	2.002759	-0.567534	0.504481
O26	O	2.336092	-0.234201	0.837814
O27	O	2.669425	0.099132	1.171148
O28	O	1.808353	-0.269696	0.651943
O29	O	2.141686	0.063637	0.985277
O30	O	2.475020	0.396970	1.318610
O31	O	1.660765	-0.439227	0.309918
O32	O	1.994098	-0.105894	0.643252
O33	O	2.327431	0.227439	0.976585
O34	O	1.466255	-0.439145	0.504475
O35	O	1.799588	-0.105812	0.837809
O36	O	2.132922	0.227522	1.171142
O37	O	1.660872	-0.567389	0.846451
O38	O	1.994205	-0.234056	1.179784
O39	O	2.327538	0.099277	1.513118
O40	O	1.466248	-0.567451	0.651874
O41	O	1.799581	-0.234118	0.985207
O42	O	2.132914	0.099216	1.318540
O43	O	1.808343	-0.439036	0.846481
O44	O	2.141676	-0.105703	1.179814
O45	O	2.475010	0.227630	1.513148
O46	O	1.808124	-0.736936	0.504441
O47	O	2.141458	-0.403603	0.837775
O48	O	2.474791	-0.070269	1.171108
O49	O	1.660747	-0.736874	0.651854
O50	O	1.994081	-0.403540	0.985188
O51	O	2.327414	-0.070207	1.318521
C52	C	1.422704	-0.503296	0.578173
C53	C	1.756037	-0.169963	0.911506
C54	C	2.089370	0.163370	1.244840
C55	C	1.289304	-0.503315	0.578195
C56	C	1.622637	-0.169982	0.911528
C57	C	1.955970	0.163352	1.244862
C58	C	1.734453	-0.774822	0.578167
C59	C	2.067787	-0.441489	0.911501
C60	C	2.401120	-0.108156	1.244834
C61	C	1.734531	-0.890975	0.578198
C62	C	2.067864	-0.557642	0.911532
C63	C	2.401198	-0.224309	1.244865
C64	C	1.807545	-0.942756	0.505335
C65	C	2.140878	-0.609423	0.838668
C66	C	2.474211	-0.276090	1.172001
C67	C	1.807626	-1.062807	0.505365
C68	C	2.140960	-0.729473	0.838699
C69	C	2.474293	-0.396140	1.172032
C70	C	2.047571	-0.503329	0.578205
C71	C	2.380904	-0.169996	0.911538
C72	C	2.714237	0.163338	1.244871
C73	C	2.180971	-0.503336	0.578212
C74	C	2.514304	-0.170003	0.911545
C75	C	2.847637	0.163331	1.244878
C76	C	1.734621	-0.503196	0.891231
C77	C	2.067954	-0.169863	1.224564
C78	C	2.401287	0.163470	1.557898
C79	C	1.734660	-0.503147	1.024631
C80	C	2.067993	-0.169813	1.357964
C81	C	2.401327	0.163520	1.691298
C82	C	1.734637	-0.230742	0.578236
C83	C	2.067970	0.102591	0.911569
C84	C	2.401303	0.435925	1.244903
C85	C	1.734683	-0.114589	0.578256
C86	C	2.068016	0.218744	0.911590
C87	C	2.401349	0.552078	1.244923
C88	C	1.734506	-0.503352	0.266364
C89	C	2.067839	-0.170019	0.599697
C90	C	2.401172	0.163314	0.933030
C91	C	1.734699	-0.503108	0.132964
C92	C	2.068032	-0.169774	0.466298
C93	C	2.401366	0.163559	0.799631
H94	H	1.870133	-1.107337	0.442981
H95	H	2.203466	-0.774004	0.776314
H96	H	2.536799	-0.440670	1.109647
C97	C	1.582700	-0.880264	0.729820
C98	C	1.916033	-0.546931	1.063153
C99	C	2.249367	-0.213598	1.396487
C100	C	1.650225	-0.951097	0.662451
C101	C	1.983558	-0.617764	0.995784
C102	C	2.316892	-0.284431	1.329118
H103	H	1.530658	-0.917382	0.781841
H104	H	1.863991	-0.584048	1.115174
H105	H	2.197325	-0.250715	1.448507
H106	H	1.536745	-0.837769	0.677523
H107	H	1.870078	-0.504436	1.010856
H108	H	2.203412	-0.171102	1.344189
H109	H	1.634907	-0.837616	0.775802
H110	H	1.968240	-0.504282	1.109135
H111	H	2.301573	-0.170949	1.442469
H112	H	1.598019	-0.993741	0.616462
H113	H	1.931352	-0.660408	0.949795
H114	H	2.264685	-0.327074	1.283129
H115	H	1.696183	-0.993610	0.714755
H116	H	2.029517	-0.660277	1.048088
H117	H	2.362850	-0.326944	1.381422
H118	H	1.869999	-0.898214	0.442935
H119	H	2.203332	-0.564880	0.776268
H120	H	2.536666	-0.231547	1.109601
H121	H	1.672165	-1.070066	0.640637
H122	H	2.005498	-0.736733	0.973970
H123	H	2.338831	-0.403400	1.307303
