data_functionalizedCrystal
_audit_creation_method	'MofGen! by Chris Wilmer'
_symmetry_space_group_name_H-M	'P1'
_symmetry_Int_Tables_number	1
_symmetry_cell_setting	triclinic
loop_
_symmetry_equiv_pos_as_xyz
  x,y,z
_cell_length_a	16.974800
_cell_length_b	10.654550
_cell_length_c	16.053802
_cell_angle_alpha	92.591674
_cell_angle_beta	91.074188
_cell_angle_gamma	83.936244
loop_
_atom_site_label
_atom_site_type_symbol
_atom_site_fract_x
_atom_site_fract_y
_atom_site_fract_z
O1	O	1.049952	0.160086	0.001543
O2	O	0.820596	0.179310	-0.013962
O3	O	0.940547	-0.013097	-0.005850
O4	O	0.930001	0.352493	-0.006569
O5	O	0.933944	-0.002550	0.132562
O6	O	0.813993	0.189857	0.124451
O7	O	1.043349	0.170633	0.139955
Zn8	Zn	0.927623	0.181920	0.154179
Zn9	Zn	0.936322	0.168024	-0.028186
O10	O	0.923398	0.363040	0.131843
C11	C	0.787926	0.183659	0.053259
C12	C	0.700418	0.180890	0.047344
C13	C	0.655713	0.185335	0.120015
C14	C	0.573491	0.182714	0.114459
C15	C	0.535976	0.175656	0.036231
C16	C	0.580689	0.171206	-0.036446
C17	C	0.662909	0.173819	-0.030889
C18	C	0.290460	0.167216	0.011522
C19	C	0.208233	0.164607	0.005971
C20	C	0.201041	0.176112	0.156876
C21	C	0.283263	0.178732	0.162426
C22	C	0.327969	0.174276	0.089749
N23	N	0.451933	0.172979	0.030550
N24	N	0.412012	0.176943	0.095431
C25	C	0.936471	-0.054613	0.063303
C26	C	0.934155	-0.194032	0.063143
C27	C	1.004780	-0.274262	0.067920
C28	C	1.002599	-0.405260	0.067767
C29	C	0.859160	-0.375785	0.058063
C30	C	0.861343	-0.244790	0.058210
C31	C	1.077592	-0.223504	0.072853
C32	C	1.148224	-0.303736	0.077631
C33	C	1.146042	-0.434734	0.077478
C34	C	1.073229	-0.485501	0.072546
C35	C	1.076019	0.166283	0.072732
C36	C	1.163527	0.169052	0.078642
C37	C	0.927474	0.404556	0.062688
C38	C	0.929791	0.543975	0.062843
N39	N	0.921692	0.191402	0.278638
N40	N	0.942260	0.158531	-0.152644
C41	C	0.972750	0.109562	0.325785
C42	C	0.968608	0.116208	0.412911
C43	C	0.913412	0.204700	0.452890
C44	C	0.862348	0.286544	0.405737
C45	C	0.866486	0.279891	0.318611
C46	C	0.895334	0.233722	0.713077
C47	C	0.891201	0.240371	0.800209
C48	C	0.997462	0.070032	0.807377
C49	C	1.001598	0.063393	0.720250
C50	C	0.950532	0.145232	0.673105
N51	N	0.909179	0.211497	0.541947
N52	N	0.954761	0.138428	0.584048
H53	H	0.537097	0.186312	0.173636
O54	O	0.706288	0.169730	-0.101506
C55	C	0.729229	0.269362	-0.229371
C56	C	0.680055	0.274168	-0.149421
H57	H	0.708027	0.353775	-0.268141
H58	H	0.794443	0.272518	-0.212010
H59	H	0.721585	0.178169	-0.267180
H60	H	0.687632	0.365347	-0.111575
H61	H	0.614860	0.270942	-0.166840
O62	O	0.788369	-0.424891	0.053237
C63	C	0.646325	-0.381832	0.043683
C64	C	0.726443	-0.326057	0.049122
H65	H	0.596236	-0.301950	0.040372
H66	H	0.644429	-0.446793	-0.014570
H67	H	0.638998	-0.438055	0.101287
H68	H	0.733822	-0.269773	-0.008439
H69	H	0.728302	-0.261165	0.107411
H70	H	1.046544	-0.008664	0.687702
H71	H	0.824908	0.346533	0.280225
H72	H	1.039037	0.003401	0.845771
H73	H	1.079377	-0.116840	0.072981
O74	O	0.792768	-0.166803	0.053428
C75	C	0.715439	-0.007197	-0.023717
C76	C	0.793127	-0.095475	-0.018408
H77	H	0.715711	0.050514	-0.081782
H78	H	0.662994	-0.065911	-0.027317
H79	H	0.710123	0.059226	0.034062
H80	H	0.798520	-0.161915	-0.076171
H81	H	0.845534	-0.036682	-0.014768
O82	O	0.544304	0.164132	-0.112456
C83	C	0.533672	0.044858	-0.242594
C84	C	0.574923	0.052688	-0.156529
H85	H	0.558422	-0.045224	-0.278258
H86	H	0.467225	0.043675	-0.234137
H87	H	0.544867	0.130389	-0.279127
H88	H	0.563790	-0.032823	-0.119950
H89	H	0.641356	0.053931	-0.165046
H90	H	0.313802	0.184474	0.226128
H91	H	0.326850	0.163583	-0.047657
O92	O	0.171919	0.157701	-0.070091
C93	C	0.187716	0.146662	-0.219183
C94	C	0.228946	0.154438	-0.133104
H95	H	0.233801	0.144049	-0.270153
H96	H	0.156156	0.057328	-0.225157
H97	H	0.142650	0.232952	-0.225961
H98	H	0.274047	0.068213	-0.126268
H99	H	0.260453	0.243826	-0.127169
H100	H	0.686250	0.191093	0.183717
H101	H	1.207506	-0.262394	0.081625
O102	O	1.214721	-0.512490	0.082156
C103	C	1.357225	-0.527896	0.091751
C104	C	1.279503	-0.439696	0.086471
H105	H	1.409622	-0.469079	0.095223
H106	H	1.357077	-0.585529	0.149865
H107	H	1.362513	-0.594394	0.034008
H108	H	1.274165	-0.373122	0.144171
H109	H	1.279684	-0.382152	0.028320
H110	H	1.071459	-0.592170	0.072413
H111	H	1.017700	0.037508	0.293240
O112	O	0.845811	0.313407	0.667335
C113	C	0.802052	0.529557	0.637683
C114	C	0.858194	0.439447	0.689529
H115	H	0.812031	0.631479	0.655621
H116	H	0.814479	0.509724	0.568533
H117	H	0.738033	0.514168	0.650556
H118	H	0.922232	0.454784	0.676728
H119	H	0.845697	0.459301	0.758663
H120	H	0.164634	0.179738	0.216046
H121	H	0.817401	0.358592	0.438292
O122	O	1.018298	0.036665	0.458586
C123	C	1.124118	-0.133007	0.456501
C124	C	1.067899	-0.042983	0.404675
H125	H	1.164223	-0.197443	0.412936
H126	H	1.161895	-0.075553	0.499934
H127	H	1.087809	-0.192730	0.495008
H128	H	1.104145	0.016760	0.366119
H129	H	1.030119	-0.100511	0.361295
H130	H	0.846251	0.312437	0.832755
