data_functionalizedCrystal
_audit_creation_method	'MofGen! by Chris Wilmer'
_symmetry_space_group_name_H-M	'P1'
_symmetry_Int_Tables_number	1
_symmetry_cell_setting	triclinic
loop_
_symmetry_equiv_pos_as_xyz
  x,y,z
_cell_length_a	23.532407
_cell_length_b	23.532407
_cell_length_c	14.586319
_cell_angle_alpha	90.001839
_cell_angle_beta	89.996242
_cell_angle_gamma	97.151323
loop_
_atom_site_label
_atom_site_type_symbol
_atom_site_fract_x
_atom_site_fract_y
_atom_site_fract_z
O1	O	-0.069134	0.755259	-0.076111
O2	O	0.264199	1.088592	0.257222
O3	O	0.597533	1.421925	0.590555
O4	O	-0.079137	0.589395	-0.076136
O5	O	0.254196	0.922729	0.257197
O6	O	0.587529	1.256062	0.590530
O7	O	0.008796	0.677329	-0.076135
O8	O	0.342129	1.010662	0.257199
O9	O	0.675463	1.343995	0.590532
O10	O	-0.157067	0.667325	-0.076113
O11	O	0.176266	1.000659	0.257220
O12	O	0.509599	1.333992	0.590554
O13	O	0.008797	0.677323	0.076346
O14	O	0.342131	1.010656	0.409679
O15	O	0.675464	1.343989	0.743013
O16	O	-0.079136	0.589389	0.076345
O17	O	0.254197	0.922723	0.409678
O18	O	0.587531	1.256056	0.743011
O19	O	-0.069133	0.755253	0.076369
O20	O	0.264201	1.088586	0.409703
O21	O	0.597534	1.421919	0.743036
Cu22	Cu	-0.074134	0.672320	0.090280
Cu23	Cu	0.259199	1.005654	0.423613
Cu24	Cu	0.592532	1.338987	0.756946
Cu25	Cu	-0.074136	0.672328	-0.090047
Cu26	Cu	0.259198	1.005661	0.243287
Cu27	Cu	0.592531	1.338994	0.576620
O28	O	-0.157066	0.667319	0.076368
O29	O	0.176267	1.000653	0.409701
O30	O	0.509601	1.333986	0.743034
C31	C	-0.078882	0.568176	0.000101
C32	C	0.254451	0.901510	0.333434
C33	C	0.587785	1.234843	0.666767
C34	C	-0.078116	0.504959	0.000090
C35	C	0.255217	0.838293	0.333424
C36	C	0.588551	1.171626	0.666757
C37	C	-0.125350	0.105856	0.000138
C38	C	0.207984	0.439190	0.333471
C39	C	0.541317	0.772523	0.666805
C40	C	-0.124638	0.046456	0.000144
C41	C	0.208695	0.379789	0.333477
C42	C	0.542029	0.713123	0.666810
O43	O	-0.168424	0.009711	0.000183
O44	O	0.164909	0.343045	0.333516
O45	O	0.498243	0.676378	0.666849
N46	N	-0.072362	0.023830	0.000135
N47	N	0.260972	0.357163	0.333469
N48	N	0.594305	0.690496	0.666802
C49	C	-0.020794	0.060607	0.000131
C50	C	0.312540	0.393941	0.333464
C51	C	0.645873	0.727274	0.666797
O52	O	0.023737	0.035908	0.000125
O53	O	0.357070	0.369241	0.333458
O54	O	0.690404	0.702574	0.666792
C55	C	-0.021506	0.120006	0.000132
C56	C	0.311828	0.453340	0.333465
C57	C	0.645161	0.786673	0.666798
C58	C	-0.073785	0.142629	0.000131
C59	C	0.259548	0.475962	0.333464
C60	C	0.592881	0.809296	0.666798
C61	C	-0.177625	0.128479	0.000138
C62	C	0.155708	0.461813	0.333472
C63	C	0.489042	0.795146	0.666805
C64	C	-0.178336	0.187876	0.000131
C65	C	0.154997	0.521209	0.333464
C66	C	0.488330	0.854542	0.666798
C67	C	-0.126772	0.224649	0.000124
C68	C	0.206561	0.557982	0.333457
C69	C	0.539895	0.891315	0.666790
C70	C	-0.074496	0.202025	0.000124
C71	C	0.258837	0.535359	0.333457
C72	C	0.592170	0.868692	0.666790
C73	C	0.030062	0.156783	0.000134
C74	C	0.363395	0.490116	0.333467
C75	C	0.696729	0.823450	0.666800
C76	C	0.029345	0.216185	0.000136
C77	C	0.362679	0.549519	0.333469
C78	C	0.696012	0.882852	0.666802
C79	C	-0.022934	0.238808	0.000135
C80	C	0.310399	0.572141	0.333468
C81	C	0.643732	0.905475	0.666801
C82	C	-0.023643	0.298194	0.000109
C83	C	0.309690	0.631528	0.333442
C84	C	0.643023	0.964861	0.666776
N85	N	-0.075920	0.320820	0.000117
N86	N	0.257414	0.654154	0.333451
N87	N	0.590747	0.987487	0.666784
C88	C	-0.127484	0.284048	0.000125
C89	C	0.205849	0.617381	0.333458
C90	C	0.539183	0.950714	0.666791
C91	C	-0.019302	-0.064135	0.000130
C92	C	0.314031	0.269198	0.333464
C93	C	0.647365	0.602532	0.666797
C94	C	-0.018589	-0.123533	0.000123
C95	C	0.314744	0.209800	0.333456
C96	C	0.648077	0.543134	0.666789
C97	C	-0.122434	-0.137680	0.000137
C98	C	0.210899	0.195653	0.333470
C99	C	0.544232	0.528986	0.666804
C100	C	-0.123146	-0.078281	0.000138
C101	C	0.210187	0.255052	0.333472
C102	C	0.543520	0.588385	0.666805
C103	C	-0.071578	-0.041509	0.000139
C104	C	0.261755	0.291824	0.333472
C105	C	0.595088	0.625158	0.666805
C106	C	-0.128974	0.408784	0.000109
C107	C	0.204360	0.742118	0.333442
C108	C	0.537693	1.075451	0.666775
C109	C	-0.129680	0.468186	0.000098
C110	C	0.203653	0.801520	0.333431
C111	C	0.536986	1.134853	0.666764
C112	C	-0.025836	0.482329	0.000088
C113	C	0.307497	0.815662	0.333421
C114	C	0.640831	1.148995	0.666755
C115	C	-0.025129	0.422932	0.000094
C116	C	0.308204	0.756265	0.333427
C117	C	0.641538	1.089598	0.666761
C118	C	-0.076702	0.386160	0.000108
C119	C	0.256631	0.719494	0.333441
C120	C	0.589964	1.052827	0.666774
O121	O	0.020119	0.334974	0.000074
O122	O	0.353453	0.668307	0.333407
O123	O	0.686786	1.001640	0.666741
O124	O	-0.172007	0.308755	0.000143
O125	O	0.161326	0.642089	0.333476
O126	O	0.494660	0.975422	0.666809
C127	C	-0.178283	0.667577	0.000130
C128	C	0.155051	1.000910	0.333464
C129	C	0.488384	1.334244	0.666797
C130	C	-0.241500	0.668343	0.000139
C131	C	0.091833	1.001676	0.333472
C132	C	0.425167	1.335010	0.666806
C133	C	-0.640603	0.621110	0.000085
C134	C	-0.307270	0.954443	0.333418
C135	C	0.026064	1.287776	0.666752
C136	C	-0.700003	0.621821	0.000079
C137	C	-0.366670	0.955154	0.333412
C138	C	-0.033336	1.288488	0.666746
O139	O	-0.736748	0.578035	0.000039
O140	O	-0.403414	0.911368	0.333372
O141	O	-0.070081	1.244702	0.666705
N142	N	-0.722629	0.674097	0.000088
N143	N	-0.389296	1.007431	0.333421
N144	N	-0.055963	1.340764	0.666755
C145	C	-0.685852	0.725666	0.000094
C146	C	-0.352518	1.058999	0.333427
C147	C	-0.019185	1.392332	0.666761
O148	O	-0.710551	0.770196	0.000100
O149	O	-0.377218	1.103529	0.333433
O150	O	-0.043885	1.436863	0.666767
C151	C	-0.626453	0.724954	0.000094
C152	C	-0.293119	1.058287	0.333427
C153	C	0.040214	1.391620	0.666760
C154	C	-0.603830	0.672674	0.000094
C155	C	-0.270497	1.006007	0.333427
C156	C	0.062837	1.339340	0.666761
C157	C	-0.617980	0.568834	0.000084
C158	C	-0.284646	0.902167	0.333418
C159	C	0.048687	1.235501	0.666751
C160	C	-0.558584	0.568123	0.000092
C161	C	-0.225250	0.901456	0.333426
C162	C	0.108083	1.234790	0.666759
C163	C	-0.521811	0.619687	0.000101
C164	C	-0.188477	0.953020	0.333435
C165	C	0.144856	1.286354	0.666768
C166	C	-0.544434	0.671963	0.000102
C167	C	-0.211101	1.005296	0.333435
C168	C	0.122233	1.338629	0.666769
C169	C	-0.589676	0.776521	0.000093
C170	C	-0.256343	1.109854	0.333426
C171	C	0.076990	1.443188	0.666760
C172	C	-0.530274	0.775805	0.000092
C173	C	-0.196940	1.109138	0.333425
C174	C	0.136393	1.442471	0.666759
C175	C	-0.507651	0.723525	0.000092
C176	C	-0.174318	1.056858	0.333426
C177	C	0.159016	1.390192	0.666759
C178	C	-0.448265	0.722816	0.000119
C179	C	-0.114931	1.056149	0.333452
C180	C	0.218402	1.389482	0.666785
N181	N	-0.425639	0.670539	0.000110
N182	N	-0.092305	1.003873	0.333443
N183	N	0.241028	1.337206	0.666776
C184	C	-0.462412	0.618975	0.000101
C185	C	-0.129078	0.952308	0.333434
C186	C	0.204255	1.285642	0.666768
C187	C	-0.810594	0.727157	0.000093
C188	C	-0.477261	1.060490	0.333426
C189	C	-0.143928	1.393824	0.666759
C190	C	-0.869992	0.727870	0.000100
C191	C	-0.536659	1.061203	0.333433
C192	C	-0.203325	1.394536	0.666766
C193	C	-0.884140	0.624025	0.000083
C194	C	-0.550806	0.957358	0.333416
C195	C	-0.217473	1.290692	0.666750
C196	C	-0.824740	0.623313	0.000083
C197	C	-0.491407	0.956646	0.333416
C198	C	-0.158074	1.289979	0.666749
C199	C	-0.787968	0.674881	0.000084
C200	C	-0.454635	1.008214	0.333417
C201	C	-0.121301	1.341547	0.666750
C202	C	-0.337675	0.617485	0.000119
C203	C	-0.004341	0.950819	0.333452
C204	C	0.328992	1.284152	0.666785
C205	C	-0.278273	0.616779	0.000130
C206	C	0.055061	0.950112	0.333464
C207	C	0.388394	1.283445	0.666797
C208	C	-0.264131	0.720623	0.000142
C209	C	0.069203	1.053957	0.333476
C210	C	0.402536	1.387290	0.666809
C211	C	-0.323527	0.721330	0.000135
C212	C	0.009806	1.054664	0.333469
C213	C	0.343139	1.387997	0.666802
C214	C	-0.360299	0.669757	0.000120
C215	C	-0.026965	1.003090	0.333454
C216	C	0.306368	1.336423	0.666787
O217	O	-0.411486	0.766579	0.000155
O218	O	-0.078152	1.099912	0.333489
O219	O	0.255181	1.433245	0.666822
O220	O	-0.437704	0.574452	0.000083
O221	O	-0.104370	0.907785	0.333416
O222	O	0.228963	1.241119	0.666749
C223	C	0.030013	0.677071	0.000101
C224	C	0.363346	1.010404	0.333434
C225	C	0.696679	1.343738	0.666767
C226	C	0.093230	0.676305	0.000086
C227	C	0.426563	1.009638	0.333419
C228	C	0.759896	1.342972	0.666753
C229	C	-0.069388	0.776472	0.000130
C230	C	0.263945	1.109805	0.333464
C231	C	0.597278	1.443138	0.666797
C232	C	-0.070154	0.839689	0.000135
C233	C	0.263179	1.173022	0.333468
C234	C	0.596513	1.506355	0.666801
N235	N	-0.074133	0.672320	0.217111
N236	N	0.259200	1.005653	0.550445
N237	N	0.592534	1.338986	0.883778
N238	N	-0.074133	0.672333	-0.216878
N239	N	0.259201	1.005666	0.116455
N240	N	0.592534	1.339000	0.449788
C241	C	-0.035209	0.711269	0.452119
C242	C	0.298124	1.044603	0.785452
C243	C	0.631458	1.377936	1.118785
C244	C	-0.035208	0.711271	0.548100
C245	C	0.298126	1.044604	0.881433
C246	C	0.631459	1.377937	1.214766
C247	C	-0.113059	0.633379	0.548108
C248	C	0.220275	0.966713	0.881441
C249	C	0.553608	1.300046	1.214775
C250	C	-0.113057	0.633375	0.452128
C251	C	0.220277	0.966709	0.785462
C252	C	0.553610	1.300042	1.118795
C253	C	-0.074133	0.672324	0.404136
C254	C	0.259201	1.005657	0.737470
C255	C	0.592534	1.338990	1.070803
C256	C	-0.074133	0.672329	0.596097
C257	C	0.259200	1.005662	0.929430
C258	C	0.592534	1.338996	1.262764
C259	C	-0.074132	0.672331	0.700164
C260	C	0.259202	1.005664	1.033497
C261	C	0.592535	1.338997	1.366831
C262	C	-0.074133	0.672321	0.300062
C263	C	0.259200	1.005655	0.633396
C264	C	0.592534	1.338988	0.966729
H265	H	-0.170970	0.378851	0.000123
H266	H	0.162363	0.712185	0.333456
H267	H	0.495697	1.045518	0.666789
Br268	Br	0.017618	0.764126	0.386990
Br269	Br	0.350951	1.097459	0.720323
Br270	Br	0.684284	1.430793	1.053656
Br271	Br	0.017622	0.764125	0.613217
Br272	Br	0.350955	1.097458	0.946551
Br273	Br	0.684289	1.430792	1.279884
Br274	Br	-0.247575	0.545823	0.000136
Br275	Br	0.085759	0.879156	0.333469
Br276	Br	0.419092	1.212490	0.666802
Br277	Br	-0.527891	0.497168	0.000083
Br278	Br	-0.194558	0.830501	0.333417
Br279	Br	0.138776	1.163835	0.666750
H280	H	0.071339	0.246123	0.000136
H281	H	0.404673	0.579457	0.333470
H282	H	0.738006	0.912790	0.666803
H283	H	-0.144751	0.601669	0.587193
H284	H	0.188583	0.935003	0.920526
H285	H	0.521916	1.268336	1.253859
H286	H	-0.144753	0.601658	0.413058
H287	H	0.188580	0.934992	0.746392
H288	H	0.521913	1.268325	1.079725
H289	H	-0.172255	0.486602	0.000096
H290	H	0.161079	0.819935	0.333430
H291	H	0.494412	1.153269	0.666763
H292	H	-0.220908	0.206289	0.000130
H293	H	0.112426	0.539622	0.333463
H294	H	0.445759	0.872956	0.666797
Br295	Br	-0.667876	0.498844	0.000068
Br296	Br	-0.334543	0.832177	0.333402
Br297	Br	-0.001209	1.165511	0.666735
H298	H	-0.367608	0.575489	0.000106
H299	H	-0.034274	0.908823	0.333439
H300	H	0.299059	1.242156	0.666773
H301	H	-0.219617	0.098544	0.000147
H302	H	0.113716	0.431877	0.333481
H303	H	0.447049	0.765211	0.666814
H304	H	-0.164421	-0.167632	0.000147
H305	H	0.168913	0.165701	0.333481
H306	H	0.502246	0.499035	0.666814
Br307	Br	-0.194099	-0.047586	0.000137
Br308	Br	0.139234	0.285748	0.333471
Br309	Br	0.472567	0.619081	0.666804
Br310	Br	0.052364	-0.154227	0.000096
Br311	Br	0.385698	0.179106	0.333429
Br312	Br	0.719031	0.512439	0.666763
H313	H	-0.234180	0.762605	0.000154
H314	H	0.099154	1.095939	0.333487
H315	H	0.432487	1.429272	0.666820
Br316	Br	0.050690	-0.014235	0.000122
Br317	Br	0.384023	0.319099	0.333456
Br318	Br	0.717357	0.652432	0.666789
Br319	Br	0.045822	0.392228	0.000098
Br320	Br	0.379156	0.725562	0.333432
Br321	Br	0.712489	1.058895	0.666765
H322	H	-0.888406	0.770441	0.000114
H323	H	-0.555072	1.103774	0.333447
H324	H	-0.221739	1.437108	0.666780
Br325	Br	-0.760694	0.797149	0.000104
Br326	Br	-0.427361	1.130482	0.333437
Br327	Br	-0.094027	1.463816	0.666770
H328	H	0.016146	0.512280	0.000079
H329	H	0.349480	0.845613	0.333412
H330	H	0.682813	1.178946	0.666745
Br331	Br	-0.620363	0.847477	0.000071
Br332	Br	-0.287029	1.180810	0.333405
Br333	Br	0.046304	1.514143	0.666738
Br334	Br	-0.480371	0.845794	0.000087
Br335	Br	-0.147038	1.179127	0.333421
Br336	Br	0.186295	1.512460	0.666754
H337	H	-0.806326	0.580742	0.000087
H338	H	-0.472992	0.914075	0.333420
H339	H	-0.139659	1.247409	0.666753
Br340	Br	0.101018	0.126097	0.000115
Br341	Br	0.434351	0.459430	0.333448
Br342	Br	0.767684	0.792763	0.666782
H343	H	-0.914091	0.582038	0.000076
H344	H	-0.580758	0.915372	0.333410
H345	H	-0.247425	1.248705	0.666743
H346	H	-0.341947	0.763901	0.000148
H347	H	-0.008614	1.097234	0.333481
H348	H	0.324719	1.430567	0.666815
