data_functionalizedCrystal
_audit_creation_method	'MofGen! by Chris Wilmer'
_symmetry_space_group_name_H-M	'P1'
_symmetry_Int_Tables_number	1
_symmetry_cell_setting	triclinic
loop_
_symmetry_equiv_pos_as_xyz
  x,y,z
_cell_length_a	10.654546
_cell_length_b	10.654551
_cell_length_c	14.048226
_cell_angle_alpha	89.996418
_cell_angle_beta	89.992635
_cell_angle_gamma	84.484422
loop_
_atom_site_label
_atom_site_type_symbol
_atom_site_fract_x
_atom_site_fract_y
_atom_site_fract_z
O1	O	1.667848	0.176381	-0.079175
O2	O	1.302369	0.193191	-0.079172
O3	O	1.493511	0.002047	-0.079174
O4	O	1.476706	0.367525	-0.079173
O5	O	1.493487	0.002035	0.079147
O6	O	1.302345	0.193180	0.079150
O7	O	1.667824	0.176369	0.079146
Zn8	Zn	1.485081	0.184772	0.104285
Zn9	Zn	1.485112	0.184788	-0.104310
O10	O	1.476683	0.367514	0.079149
C11	C	1.255559	0.191952	-0.000011
C12	C	1.116116	0.188262	-0.000010
C13	C	1.492265	-0.044757	-0.000015
C14	C	1.488572	-0.184200	-0.000022
C15	C	1.050634	0.186522	-0.086315
C16	C	0.919613	0.183045	-0.086323
C17	C	0.919568	0.183042	0.086288
C18	C	1.050586	0.186529	0.086295
C19	C	1.050659	0.186518	-0.185971
C20	C	0.919638	0.183041	-0.185978
C21	C	1.486853	-0.249706	-0.086321
C22	C	1.483373	-0.380726	-0.086317
C23	C	1.483337	-0.380724	0.086294
C24	C	1.486808	-0.249705	0.086289
C25	C	1.486879	-0.249709	-0.185977
C26	C	1.483399	-0.380729	-0.185972
C27	C	1.714634	0.177608	-0.000017
C28	C	1.854078	0.181298	-0.000024
C29	C	1.477928	0.414317	-0.000012
C30	C	1.481621	0.553760	-0.000012
N31	N	1.485070	0.184761	0.246646
N32	N	1.485134	0.184789	-0.246671
C33	C	1.569734	0.100158	0.296463
C34	C	1.569743	0.100157	0.396120
C35	C	1.485092	0.184767	0.445959
C36	C	1.400418	0.269375	0.396135
C37	C	1.400404	0.269368	0.296479
C38	C	1.400454	0.269384	0.603849
C39	C	1.400469	0.269392	0.703512
C40	C	1.569793	0.100173	0.703490
C41	C	1.569779	0.100167	0.603835
C42	C	1.485106	0.184776	0.554017
H43	H	1.103894	0.187959	0.156573
H44	H	1.331536	0.338289	0.744086
H45	H	1.570195	-0.427019	-0.224236
H46	H	1.102385	0.097078	-0.216886
C47	C	1.662850	0.007084	0.241649
H48	H	1.713265	-0.043310	0.285595
H49	H	1.715516	0.052741	0.202758
H50	H	1.617206	-0.045624	0.202789
H51	H	1.481898	-0.434074	0.156565
C52	C	1.662886	0.007106	0.450915
H53	H	1.713312	-0.043272	0.406960
H54	H	1.617276	-0.045602	0.489806
H55	H	1.715558	0.052791	0.489774
H56	H	0.867931	0.272483	-0.216910
H57	H	1.400095	-0.203424	-0.224243
H58	H	1.578483	-0.220141	-0.216897
H59	H	1.331500	0.338278	0.563291
H60	H	1.638714	0.031278	0.563256
C61	C	1.307263	0.362408	0.450950
H62	H	1.256819	0.412775	0.407005
H63	H	1.352858	0.415128	0.489828
H64	H	1.254611	0.316700	0.489824
C65	C	1.488691	-0.177652	0.181217
H66	H	1.487155	-0.235433	0.232618
H67	H	1.416937	-0.117598	0.184799
H68	H	1.563164	-0.135487	0.184807
H69	H	1.331460	0.338259	0.255919
H70	H	0.866198	0.181632	0.156554
C71	C	1.084205	0.306316	-0.237651
H72	H	1.009092	0.353227	-0.258902
H73	H	1.136590	0.283266	-0.290776
H74	H	1.127615	0.356377	-0.195145
H75	H	0.894828	0.094361	-0.224241
H76	H	1.391807	-0.410293	-0.216902
H77	H	1.638735	0.031282	0.744057
