data_functionalizedCrystal
_audit_creation_method	'MofGen! by Chris Wilmer'
_symmetry_space_group_name_H-M	'P1'
_symmetry_Int_Tables_number	1
_symmetry_cell_setting	triclinic
loop_
_symmetry_equiv_pos_as_xyz
  x,y,z
_cell_length_a	19.077409
_cell_length_b	12.827892
_cell_length_c	19.076919
_cell_angle_alpha	87.721647
_cell_angle_beta	94.476475
_cell_angle_gamma	87.681147
loop_
_atom_site_label
_atom_site_type_symbol
_atom_site_fract_x
_atom_site_fract_y
_atom_site_fract_z
Zn1	Zn	1.061703	0.373874	-0.355477
Zn2	Zn	1.561703	0.873874	0.144523
Zn3	Zn	1.066372	0.541320	-0.237609
Zn4	Zn	1.566372	1.041320	0.262391
Zn5	Zn	0.948559	0.373909	-0.242325
Zn6	Zn	1.448559	0.873909	0.257675
Zn7	Zn	0.943802	0.555893	-0.360172
Zn8	Zn	1.443802	1.055893	0.139828
O9	O	1.005109	0.461249	-0.298896
O10	O	1.505109	0.961249	0.201104
O11	O	1.160970	0.389973	-0.335902
O12	O	1.660970	0.889973	0.164098
O13	O	1.054688	0.513028	-0.139587
O14	O	1.554688	1.013028	0.360413
O15	O	0.963604	0.227666	-0.257343
O16	O	1.463604	0.727666	0.242657
O17	O	1.164400	0.512994	-0.249306
O18	O	1.664400	1.012994	0.250694
O19	O	1.046731	0.227641	-0.340475
O20	O	1.546731	0.727641	0.159525
O21	O	0.968131	0.390032	-0.143052
O22	O	1.468131	0.890032	0.356948
O23	O	0.849280	0.404162	-0.261897
O24	O	1.349280	0.904162	0.238103
O25	O	0.955497	0.537832	-0.458197
O26	O	1.455497	1.037832	0.041803
O27	O	0.845785	0.537865	-0.348479
O28	O	1.345785	1.037865	0.151521
O29	O	1.042119	0.404103	-0.454747
O30	O	1.542119	0.904103	0.045253
O31	O	1.050076	0.689491	-0.253859
O32	O	1.550076	1.189491	0.246141
O33	O	0.960024	0.700197	-0.343906
O34	O	1.460024	1.200197	0.156094
C35	C	0.821954	0.472600	-0.306209
C36	C	1.321954	0.972600	0.193791
C37	C	0.743600	0.477482	-0.309355
C38	C	1.243600	0.977482	0.190645
C39	C	0.302349	0.512417	-0.331948
C40	C	0.802349	1.012417	0.168052
C41	C	0.375973	0.507837	-0.328980
C42	C	0.875973	1.007837	0.171020
C43	C	0.414578	0.435832	-0.282491
C44	C	0.914578	0.935832	0.217509
C45	C	0.379556	0.368410	-0.238964
C46	C	0.879556	0.868410	0.261036
C47	C	0.305934	0.372996	-0.241930
C48	C	0.805934	0.872996	0.258070
C49	C	0.634956	0.414646	-0.268793
C50	C	1.134956	0.914646	0.231207
C51	C	0.708583	0.410063	-0.265832
C52	C	1.208583	0.910063	0.234168
C53	C	0.704994	0.549492	-0.355847
C54	C	1.204994	1.049492	0.144153
C55	C	0.631371	0.554067	-0.358812
C56	C	1.131371	1.054067	0.141188
C57	C	0.596356	0.486649	-0.315282
C58	C	1.096356	0.986649	0.184718
N59	N	0.489833	0.431147	-0.279458
N60	N	0.989833	0.931147	0.220542
N61	N	0.521103	0.491340	-0.318313
N62	N	1.021103	0.991340	0.181687
C63	C	1.005059	0.732762	-0.298895
C64	C	1.505059	1.232762	0.201105
C65	C	1.005101	0.848913	-0.298915
C66	C	1.505101	1.348913	0.201085
C67	C	1.049709	0.895366	-0.254405
C68	C	1.549709	1.395366	0.245595
C69	C	1.049753	1.015414	-0.254425
C70	C	1.549753	1.515414	0.245575
C71	C	1.188978	0.449854	-0.291554
C72	C	1.688978	0.949854	0.208446
C73	C	1.267333	0.444998	-0.288426
C74	C	1.767333	0.944998	0.211574
C75	C	0.997757	0.472589	-0.482765
C76	C	1.497757	0.972589	0.017235
C77	C	0.994624	0.477422	-0.561120
C78	C	1.494624	0.977422	-0.061120
C79	C	1.005172	1.188676	-0.298921
C80	C	1.505172	1.688676	0.201079
C81	C	1.005183	1.072524	-0.298953
C82	C	1.505183	1.572524	0.201047
C83	C	1.038249	0.410070	-0.596136
C84	C	1.538249	0.910070	-0.096136
C85	C	1.035296	0.414607	-0.669758
C86	C	1.535296	0.914607	-0.169758
C87	C	0.988722	0.486502	-0.708363
C88	C	1.488722	0.986502	-0.208363
C89	C	0.945092	0.553857	-0.673342
C90	C	1.445092	1.053857	-0.173342
C91	C	0.948041	0.549314	-0.599721
C92	C	1.448041	1.049314	-0.099721
C93	C	0.975062	0.507551	-0.928739
C94	C	1.475062	1.007551	-0.428739
C95	C	0.972117	0.512091	-1.002365
C96	C	1.472117	1.012091	-0.502365
C97	C	1.062321	0.372839	-0.998776
C98	C	1.562321	0.872839	-0.498776
C99	C	1.065269	0.368307	-0.925153
C100	C	1.565269	0.868307	-0.425153
C101	C	1.021637	0.435658	-0.890139
C102	C	1.521637	0.935658	-0.390139
N103	N	0.985705	0.491144	-0.783617
N104	N	1.485705	0.991144	-0.283617
N105	N	1.024651	0.431010	-0.814886
N106	N	1.524651	0.931010	-0.314886
C107	C	1.012473	0.449874	-0.115740
C108	C	1.512473	0.949874	0.384260
C109	C	1.015742	0.444739	-0.037381
C110	C	1.515742	0.944739	0.462619
H111	H	0.404480	0.562739	-0.364419
H112	H	0.904480	1.062739	0.135581
H113	H	0.912510	0.604149	-0.571212
H114	H	1.412510	1.104149	-0.071212
Cl115	Cl	0.749018	0.634249	-0.410560
Cl116	Cl	1.249018	1.134249	0.089440
Cl117	Cl	0.253824	0.602938	-0.390397
Cl118	Cl	0.753824	1.102938	0.109603
H119	H	0.740013	0.351415	-0.227981
H120	H	1.240013	0.851415	0.272019
H121	H	1.103197	0.309765	-0.893726
H122	H	1.603197	0.809765	-0.393726
Cl123	Cl	0.582844	0.644592	-0.417256
Cl124	Cl	1.082844	1.144592	0.082744
H125	H	1.097843	0.318005	-1.027293
H126	H	1.597843	0.818005	-0.527293
H127	H	0.606456	0.359753	-0.233345
H128	H	1.106456	0.859753	0.266655
H129	H	1.087870	0.846262	-0.216284
H130	H	1.587870	1.346262	0.283716
H131	H	1.087942	1.055383	-0.216316
H132	H	1.587942	1.555383	0.283684
H133	H	0.966987	1.032564	-0.337060
H134	H	1.466987	1.532564	0.162940
Cl135	Cl	0.428089	0.277892	-0.180519
Cl136	Cl	0.928089	0.777892	0.319481
Cl137	Cl	0.261913	0.288242	-0.187210
Cl138	Cl	0.761913	0.788242	0.312790
H139	H	1.070822	0.359765	-0.698265
H140	H	1.570822	0.859765	-0.198265
H141	H	0.966946	0.898020	-0.337040
H142	H	1.466946	1.398020	0.162960
H143	H	1.076177	0.351528	-0.564708
H144	H	1.576177	0.851528	-0.064708
Cl145	Cl	0.913558	0.602474	-1.050896
Cl146	Cl	1.413558	1.102474	-0.550896
Cl147	Cl	0.920210	0.592222	-0.884730
Cl148	Cl	1.420210	1.092222	-0.384730
H149	H	0.907168	0.612391	-0.704780
H150	H	1.407168	1.112391	-0.204780
