data_functionalizedCrystal
_audit_creation_method	'MofGen! by Chris Wilmer'
_symmetry_space_group_name_H-M	'P1'
_symmetry_Int_Tables_number	1
_symmetry_cell_setting	triclinic
loop_
_symmetry_equiv_pos_as_xyz
  x,y,z
_cell_length_a	27.440280
_cell_length_b	20.875641
_cell_length_c	20.875619
_cell_angle_alpha	55.997428
_cell_angle_beta	87.032194
_cell_angle_gamma	62.438438
loop_
_atom_site_label
_atom_site_type_symbol
_atom_site_fract_x
_atom_site_fract_y
_atom_site_fract_z
Zr1	Zr	0.493411	0.702032	-0.109852
O2	O	0.423559	0.835861	-0.217195
O3	O	0.512103	0.568211	-0.073542
O4	O	0.521307	0.702027	-0.212269
O5	O	0.410191	0.702047	0.027090
O6	O	0.601509	0.702014	-0.212255
O7	O	0.414355	0.702045	-0.078468
O8	O	0.585045	0.462642	0.035903
O9	O	0.426655	0.941419	-0.221067
O10	O	0.583217	0.623242	-0.062158
O11	O	0.520256	0.623252	0.016609
O12	O	0.531092	0.780803	-0.146725
O13	O	0.468131	0.780814	-0.067958
Zr14	Zr	0.614684	0.702015	0.058523
Zr15	Zr	0.621324	0.702012	-0.109830
Zr16	Zr	0.486771	0.702035	0.058501
Zr17	Zr	0.498350	0.870385	-0.116028
Zr18	Zr	0.609745	0.533662	0.064699
O19	O	0.595992	0.835837	0.022213
O20	O	0.605434	0.835833	-0.217164
O21	O	0.414116	0.835865	0.022182
O22	O	0.684536	0.568187	0.165866
O23	O	0.693979	0.568183	-0.073511
O24	O	0.502661	0.568215	0.165835
O25	O	0.697904	0.702001	-0.078419
O26	O	0.586788	0.702021	0.160940
O27	O	0.506586	0.702033	0.160926
O28	O	0.693740	0.702003	0.027139
O29	O	0.528329	0.941403	-0.221050
O30	O	0.579766	0.462645	0.169721
O31	O	0.681440	0.462629	0.169738
O32	O	0.686719	0.462627	0.035920
O33	O	0.421376	0.941421	-0.087249
O34	O	0.523050	0.941405	-0.087232
O35	O	0.577003	0.623244	0.095396
O36	O	0.639964	0.623234	0.016629
O37	O	0.587839	0.780795	-0.067938
O38	O	0.524878	0.780806	0.010829
C39	C	0.547870	0.491440	-0.017940
C40	C	0.545774	0.419970	-0.015318
C41	C	0.577653	0.386387	-0.055202
C42	C	0.575684	0.319229	-0.052731
C43	C	0.541833	0.285658	-0.010380
C44	C	0.509954	0.319243	0.029509
C45	C	0.511926	0.386396	0.027042
C46	C	0.532414	0.084816	0.001411
C47	C	0.530442	0.017660	0.003873
C48	C	0.596174	0.017649	-0.078366
C49	C	0.598140	0.084807	-0.080833
C50	C	0.566263	0.118383	-0.040941
N51	N	0.539819	0.217013	-0.007855
N52	N	0.568281	0.187022	-0.043461
C53	C	0.394048	0.702048	-0.025692
C54	C	0.339746	0.702057	-0.025701
C55	C	0.030253	0.619763	0.018501
C56	C	-0.020766	0.619758	0.018508
O57	O	-0.024015	0.549812	0.056074
N58	N	-0.073491	0.702003	-0.025636
C59	C	-0.075197	0.784258	-0.069783
O60	O	-0.124729	0.854213	-0.107329
C61	C	-0.024179	0.784262	-0.069785
C62	C	0.028546	0.702012	-0.025645
C63	C	0.082976	0.537520	0.062638
C64	C	0.133991	0.537525	0.062629
C65	C	0.132284	0.619774	0.018484
C66	C	0.079561	0.702017	-0.025654
C67	C	-0.025886	0.866516	-0.113927
C68	C	0.025138	0.866513	-0.113925
C69	C	0.077863	0.784263	-0.069785
C70	C	0.128869	0.784271	-0.069808
N71	N	0.181595	0.702027	-0.025664
C72	C	0.183302	0.619778	0.018482
C73	C	-0.182336	0.784243	-0.069774
C74	C	-0.233354	0.784240	-0.069777
C75	C	-0.178919	0.619740	0.018515
C76	C	-0.127901	0.619744	0.018513
C77	C	-0.129611	0.701998	-0.025631
C78	C	0.290436	0.619796	0.018460
C79	C	0.341453	0.619808	0.018445
C80	C	0.287014	0.784307	-0.069844
C81	C	0.236001	0.784295	-0.069833
C82	C	0.237715	0.702032	-0.025675
O83	O	0.132162	0.854182	-0.107352
O84	O	0.232836	0.549835	0.056030
C85	C	0.714047	0.701999	-0.025637
C86	C	0.768349	0.701991	-0.025628
C87	C	0.562354	0.702020	-0.236249
C88	C	0.565173	0.702019	-0.307719
C89	C	0.560225	0.912608	-0.033389
C90	C	0.562321	0.984078	-0.036011
C91	C	0.585781	0.702024	-0.710028
C92	C	0.583130	0.702028	-0.642875
C93	C	0.537622	0.702030	-0.609303
C94	C	0.494758	0.702037	-0.642891
C95	C	0.497408	0.702040	-0.710046
C96	C	0.524959	0.702029	-0.408462
C97	C	0.522314	0.702023	-0.341301
C98	C	0.610685	0.702016	-0.341291
C99	C	0.613332	0.702013	-0.408444
C100	C	0.570468	0.702025	-0.442029
N101	N	0.534912	0.702031	-0.540661
N102	N	0.573176	0.702030	-0.510673
C103	C	0.545741	0.702027	0.184920
C104	C	0.542922	0.702029	0.256390
C105	C	0.707870	0.491415	-0.017912
C106	C	0.760076	0.419937	-0.015281
C107	C	0.539564	0.491444	0.192644
C108	C	0.534648	0.419975	0.266737
C109	C	0.699563	0.491419	0.192672
C110	C	0.748950	0.419941	0.266773
C111	C	0.408532	0.912629	-0.244001
C112	C	0.359145	0.984106	-0.318102
C113	C	0.400225	0.912632	-0.033417
C114	C	0.348019	0.984111	-0.036048
C115	C	0.568531	0.912604	-0.243974
C116	C	0.573447	0.984073	-0.318066
C117	C	0.754971	0.386374	-0.055179
C118	C	0.804020	0.319221	-0.052723
C119	C	0.858173	0.285628	-0.010364
C120	C	0.863276	0.319198	0.029535
C121	C	0.814228	0.386354	0.027073
C122	C	0.561961	0.386408	0.342664
C123	C	0.557340	0.319265	0.412288
C124	C	0.525409	0.285685	0.405982
C125	C	0.498094	0.319258	0.330046
C126	C	0.502712	0.386405	0.260424
C127	C	0.805013	0.386369	0.260457
C128	C	0.851422	0.319218	0.330076
C129	C	0.841768	0.285636	0.406011
C130	C	0.785699	0.319214	0.412326
C131	C	0.739291	0.386369	0.342707
C132	C	0.303082	1.017686	-0.311786
C133	C	0.256673	1.084858	-0.381406
C134	C	0.266328	1.118444	-0.457341
C135	C	0.322397	1.084861	-0.463656
C136	C	0.368805	1.017695	-0.394037
C137	C	0.353124	1.017681	0.003843
C138	C	0.304076	1.084852	0.001367
C139	C	0.249924	1.118447	-0.040994
C140	C	0.244821	1.084874	-0.080889
C141	C	0.293868	1.017709	-0.078418
C142	C	0.605381	1.017632	-0.311734
C143	C	0.610011	1.084776	-0.381345
C144	C	0.582703	1.118364	-0.457286
C145	C	0.550767	1.084799	-0.463616
C146	C	0.546141	1.017651	-0.394006
H147	H	0.601642	0.291886	-0.085206
O148	O	-0.082746	0.955229	-0.161531
H149	H	-0.075352	1.012413	-0.192215
H150	H	0.625704	0.112139	-0.115318
H151	H	0.482395	0.291900	0.063996
O152	O	0.478728	0.702036	-0.444675
H153	H	0.488208	0.702048	-0.497018
H154	H	0.480472	0.413726	0.198604
O155	O	0.398323	0.531093	0.066056
H156	H	0.390934	0.473902	0.096760
O157	O	0.197031	1.190879	-0.043635
H158	H	0.174294	1.252089	-0.107111
O159	O	0.521311	1.121015	-0.545519
H160	H	0.490234	1.195096	-0.580803
O161	O	0.498021	0.121036	0.044422
H162	H	0.505080	0.173368	0.035600
H163	H	-0.183737	0.851229	-0.105725
O164	O	0.891826	0.213191	0.481096
H165	H	0.891163	0.238954	0.515617
H166	H	0.898106	0.230945	-0.008366
H167	H	-0.084974	0.552769	0.054463
O168	O	0.921684	0.282955	0.075229
H169	H	0.954927	0.230611	0.070241
O170	O	0.411526	0.981461	0.049534
H171	H	0.444781	0.929109	0.044563
O172	O	0.815434	0.422594	0.178559
H173	H	0.862218	0.387969	0.185875
O174	O	0.511687	0.981469	-0.400839
H175	H	0.493472	1.016119	-0.465343
H176	H	0.200723	1.112238	-0.115379
O177	O	0.775288	0.282978	0.494230
H178	H	0.816980	0.230631	0.541572
H179	H	0.605215	0.413720	-0.089692
H180	H	0.308243	1.112176	0.033858
O181	O	0.630556	-0.018564	-0.121390
H182	H	0.623501	-0.070903	-0.112559
O183	O	0.288359	0.981495	-0.121436
H184	H	0.242462	1.016138	-0.151298
H185	H	0.897072	0.291885	0.324920
H186	H	0.579586	0.291937	0.474111
O187	O	0.493939	-0.018564	0.049565
H188	H	0.472110	0.016055	0.076900
O189	O	0.477540	0.422627	0.070054
H190	H	0.453665	0.388010	0.099910
H191	H	0.291840	0.552809	0.054418
H192	H	0.176918	0.470549	0.098569
O193	O	0.798511	0.283017	-0.095755
H194	H	0.771908	0.252417	-0.070858
O195	O	0.634862	0.702032	-0.746243
H196	H	0.664215	0.702042	-0.711613
O197	O	0.292662	0.981473	-0.229888
H198	H	0.245879	1.016126	-0.237206
O199	O	0.819735	0.422539	0.070122
H200	H	0.865632	0.387884	0.099996
O201	O	0.678822	0.422558	0.349525
H202	H	0.679911	0.387909	0.414026
H203	H	0.472096	0.291907	0.324924
O204	O	0.285145	0.873043	-0.117493
H205	H	0.264008	0.912443	-0.182132
O206	O	0.332808	1.121086	-0.545559
H207	H	0.311959	1.108197	-0.577643
O208	O	0.662414	0.702013	-0.444659
H209	H	0.645383	0.763507	-0.508262
O210	O	0.429273	0.981466	-0.400853
H211	H	0.428183	1.016101	-0.465353
O212	O	0.634845	0.981401	-0.229829
H213	H	0.657834	1.016016	-0.237134
O214	O	0.196203	1.121057	-0.374586
H215	H	0.197290	1.086398	-0.310085
H216	H	0.084375	0.470540	0.098591
H217	H	0.636015	1.112097	-0.376175
H218	H	0.228535	1.173135	-0.514023
O219	O	0.587687	1.190800	-0.532362
H220	H	0.633456	1.165019	-0.531355
O221	O	-0.177080	0.531023	0.066140
H222	H	-0.221416	0.544846	0.058729
O223	O	0.596401	0.422620	0.349475
H224	H	0.577949	0.453229	0.380946
O225	O	-0.290219	0.872951	-0.117392
H226	H	-0.282828	0.930139	-0.148084
H227	H	0.023739	0.933496	-0.149863
H228	H	0.193069	0.851270	-0.105785
O229	O	0.629360	0.702012	-0.606646
H230	H	0.661454	0.701996	-0.641265
H231	H	0.645584	0.702008	-0.313940
H232	H	0.485253	0.702024	-0.313969
H233	H	0.457702	0.702044	-0.615556
H234	H	0.462507	0.702045	-0.737389
H235	H	0.710883	0.413724	-0.089682
O236	O	0.520441	0.213246	0.481078
H237	H	0.544808	0.195541	0.534932
