data_functionalizedCrystal
_audit_creation_method	'MofGen! by Chris Wilmer'
_symmetry_space_group_name_H-M	'P1'
_symmetry_Int_Tables_number	1
_symmetry_cell_setting	triclinic
loop_
_symmetry_equiv_pos_as_xyz
  x,y,z
_cell_length_a	14.519731
_cell_length_b	12.996460
_cell_length_c	17.699083
_cell_angle_alpha	90.007036
_cell_angle_beta	83.485934
_cell_angle_gamma	90.005673
loop_
_atom_site_label
_atom_site_type_symbol
_atom_site_fract_x
_atom_site_fract_y
_atom_site_fract_z
O1	O	1.223435	0.085571	0.099292
O2	O	1.723435	0.585571	0.599292
O3	O	0.954911	0.085573	0.110959
O4	O	1.454911	0.585573	0.610959
O5	O	1.096759	0.085563	-0.005042
O6	O	1.596759	0.585563	0.494958
O7	O	1.081586	0.085581	0.215292
O8	O	1.581586	0.585581	0.715292
O9	O	1.096744	-0.085571	-0.005048
O10	O	1.596744	0.414429	0.494952
O11	O	0.954896	-0.085561	0.110952
O12	O	1.454896	0.414439	0.610952
O13	O	1.223420	-0.085563	0.099285
O14	O	1.723420	0.414437	0.599285
Cu15	Cu	1.089157	-0.101188	0.105118
Cu16	Cu	1.589157	0.398812	0.605118
Cu17	Cu	1.089174	0.101198	0.105126
Cu18	Cu	1.589174	0.601198	0.605126
O19	O	1.081572	-0.085553	0.215286
O20	O	1.581572	0.414447	0.715286
C21	C	0.920546	0.000006	0.110409
C22	C	1.420546	0.500006	0.610409
C23	C	0.818173	0.000007	0.108771
C24	C	1.318173	0.500007	0.608771
C25	C	0.735035	0.000011	0.107440
C26	C	1.235035	0.500011	0.607440
C27	C	0.630733	0.000011	0.105776
C28	C	1.130733	0.500011	0.605776
C29	C	0.547599	0.000011	0.104456
C30	C	1.047599	0.500011	0.604456
C31	C	0.443291	0.000013	0.102793
C32	C	0.943291	0.500013	0.602793
N33	N	1.089151	-0.243535	0.105112
N34	N	1.589151	0.256465	0.605112
C35	C	1.089173	-0.663349	0.105127
C36	C	1.589173	-0.163349	0.605127
C37	C	1.089164	-0.546544	0.105125
C38	C	1.589164	-0.046544	0.605125
C39	C	1.089162	-0.453446	0.105120
C40	C	1.589162	0.046554	0.605120
C41	C	1.089153	-0.336633	0.105117
C42	C	1.589153	0.163367	0.605117
C43	C	1.257784	0.000006	0.099835
C44	C	1.757784	0.500006	0.599835
C45	C	1.360158	0.000013	0.101473
C46	C	1.860158	0.500013	0.601473
C47	C	1.096208	-0.000004	-0.033244
C48	C	1.596208	0.499996	0.466756
C49	C	1.094577	-0.000005	-0.117266
C50	C	1.594577	0.499995	0.382734
N51	N	1.089187	0.243545	0.105126
N52	N	1.589187	0.743545	0.605126
C53	C	1.177839	-0.000007	-0.165644
C54	C	1.677839	0.499993	0.334356
C55	C	1.176301	0.000003	-0.244592
C56	C	1.676301	0.500003	0.255408
C57	C	1.091500	0.000006	-0.275161
C58	C	1.591500	0.500006	0.224839
C59	C	1.008232	0.000011	-0.226777
C60	C	1.508232	0.500011	0.273223
C61	C	1.009771	0.000010	-0.147831
C62	C	1.509771	0.500010	0.352169
C63	C	1.002023	0.000020	-0.545158
C64	C	1.502023	0.500020	-0.045158
C65	C	1.000491	0.000019	-0.624111
C66	C	1.500491	0.500019	-0.124111
C67	C	1.168554	0.000013	-0.641919
C68	C	1.668554	0.500013	-0.141919
C69	C	1.170093	0.000011	-0.562973
C70	C	1.670093	0.500011	-0.062973
C71	C	1.086825	0.000022	-0.514596
C72	C	1.586825	0.500022	-0.014596
C73	C	1.088493	0.000014	-0.428992
C74	C	1.588493	0.500014	0.071008
C75	C	1.089830	0.000007	-0.360763
C76	C	1.589830	0.500007	0.139237
C77	C	1.082123	0.000017	0.243488
C78	C	1.582123	0.500017	0.743488
C79	C	1.083754	0.000024	0.327510
C80	C	1.583754	0.500024	0.827510
H81	H	1.246894	-0.000016	-0.140761
H82	H	1.746894	0.499984	0.359239
H83	H	0.939185	0.000021	-0.251672
H84	H	1.439185	0.500021	0.248328
O85	O	1.257267	-0.000052	-0.291477
O86	O	1.757267	0.499948	0.208523
C87	C	1.332444	-0.000039	-0.247567
C88	C	1.832444	0.499961	0.252433
H89	H	1.308897	-0.032438	-0.188684
H90	H	1.808897	0.467562	0.311316
H91	H	1.358461	0.082059	-0.241902
H92	H	1.858461	0.582059	0.258098
C93	C	1.440144	-0.027369	-0.359120
C94	C	1.940144	0.472631	0.140880
C95	C	1.411226	-0.067169	-0.286800
C96	C	1.911226	0.432831	0.213200
H97	H	1.488744	-0.068773	-0.383322
H98	H	1.988744	0.431227	0.116678
H99	H	1.389497	-0.027374	-0.388704
H100	H	1.889497	0.472626	0.111296
H101	H	1.461819	0.041045	-0.354389
H102	H	1.961819	0.541045	0.145611
H103	H	1.389542	-0.135577	-0.291533
H104	H	1.889542	0.364423	0.208467
H105	H	1.461872	-0.067177	-0.257218
H106	H	1.961872	0.432823	0.242782
H107	H	0.931431	0.000020	-0.648996
H108	H	1.431431	0.500020	-0.148996
H109	H	0.941970	0.000012	-0.108442
H110	H	1.441970	0.500012	0.391558
H111	H	1.239146	0.000003	-0.538088
H112	H	1.739146	0.500003	-0.038088
O113	O	1.249358	0.000060	-0.689022
O114	O	1.749358	0.500060	-0.189022
C115	C	1.229823	0.000041	-0.765258
C116	C	1.729823	0.500041	-0.265258
H117	H	1.157398	0.032446	-0.768385
H118	H	1.657398	0.532446	-0.268385
H119	H	1.233361	-0.082059	-0.788093
H120	H	1.733361	0.417941	-0.288093
C121	C	1.390493	0.027353	-0.809622
C122	C	1.890493	0.527353	-0.309622
C123	C	1.301542	0.067161	-0.813464
C124	C	1.801542	0.567161	-0.313464
H125	H	1.434734	0.068751	-0.839359
H126	H	1.934734	0.568751	-0.339359
H127	H	1.403655	0.027362	-0.758261
H128	H	1.903655	0.527362	-0.258261
H129	H	1.393428	-0.041063	-0.828650
H130	H	1.893428	0.458937	-0.328650
H131	H	1.298605	0.135570	-0.794427
H132	H	1.798605	0.635570	-0.294427
H133	H	1.288381	0.067165	-0.864823
H134	H	1.788381	0.567165	-0.364823
H135	H	0.934221	0.000028	-0.505779
H136	H	1.434221	0.500028	-0.005779
