data_functionalizedCrystal
_audit_creation_method	'MofGen! by Chris Wilmer'
_symmetry_space_group_name_H-M	'P1'
_symmetry_Int_Tables_number	1
_symmetry_cell_setting	triclinic
loop_
_symmetry_equiv_pos_as_xyz
  x,y,z
_cell_length_a	12.759401
_cell_length_b	12.759400
_cell_length_c	12.759393
_cell_angle_alpha	89.968436
_cell_angle_beta	89.980535
_cell_angle_gamma	90.014356
loop_
_atom_site_label
_atom_site_type_symbol
_atom_site_fract_x
_atom_site_fract_y
_atom_site_fract_z
Zn1	Zn	1.606256	-0.418214	-0.594009
Zn2	Zn	2.106256	0.081786	-0.094009
Zn3	Zn	1.606150	-0.593932	-0.418329
Zn4	Zn	2.106150	-0.093932	0.081671
Zn5	Zn	1.430557	-0.418267	-0.418345
Zn6	Zn	1.930557	0.081733	0.081655
Zn7	Zn	1.430546	-0.593850	-0.593967
Zn8	Zn	1.930546	-0.093850	-0.093967
O9	O	1.518377	-0.506066	-0.506162
O10	O	2.018377	-0.006066	-0.006162
O11	O	1.753263	-0.441535	-0.570715
O12	O	2.253263	0.058465	-0.070715
O13	O	1.582818	-0.570687	-0.271310
O14	O	2.082818	-0.070687	0.228690
O15	O	1.453913	-0.271239	-0.441671
O16	O	1.953913	0.228761	0.058329
O17	O	1.753185	-0.570635	-0.441643
O18	O	2.253185	-0.070635	0.058357
O19	O	1.582998	-0.271200	-0.570730
O20	O	2.082998	0.228800	-0.070730
O21	O	1.453811	-0.441626	-0.271322
O22	O	1.953811	0.058374	0.228678
O23	O	1.283535	-0.441546	-0.441631
O24	O	1.783535	0.058454	0.058369
O25	O	1.453894	-0.570495	-0.740994
O26	O	1.953894	-0.070495	-0.240994
O27	O	1.283527	-0.570546	-0.570660
O28	O	1.783527	-0.070546	-0.070660
O29	O	1.582987	-0.441455	-0.741024
O30	O	2.082987	0.058545	-0.241024
O31	O	1.582807	-0.740942	-0.441603
O32	O	2.082807	-0.240942	0.058397
O33	O	1.453791	-0.740882	-0.570644
O34	O	1.953791	-0.240882	-0.070644
C35	C	1.245410	-0.506044	-0.506143
C36	C	1.745410	-0.006044	-0.006143
C37	C	1.128633	-0.506060	-0.506160
C38	C	1.628633	-0.006060	-0.006160
C39	C	0.964008	-0.573201	-0.438881
C40	C	1.464008	-0.073201	0.061119
C41	C	1.073732	-0.573180	-0.438863
C42	C	1.573732	-0.073180	0.061137
C43	C	1.073805	-0.438949	-0.573472
C44	C	1.573805	0.061051	-0.073472
C45	C	0.964083	-0.438966	-0.573484
C46	C	1.464083	0.061034	-0.073484
C47	C	0.909112	-0.640333	-0.371587
C48	C	1.409112	-0.140333	0.128413
C49	C	0.963932	-0.707442	-0.304274
C50	C	1.463932	-0.207442	0.195726
C51	C	1.073656	-0.707421	-0.304256
C52	C	1.573656	-0.207421	0.195744
C53	C	1.128560	-0.640291	-0.371551
C54	C	1.628560	-0.140291	0.128449
C55	C	1.518315	-0.779033	-0.506140
C56	C	2.018315	-0.279033	-0.006140
C57	C	1.518384	-0.895810	-0.506166
C58	C	2.018384	-0.395810	-0.006166
C59	C	1.585637	-0.950668	-0.439049
C60	C	2.085637	-0.450668	0.060951
C61	C	1.585702	-1.060392	-0.439081
C62	C	2.085702	-0.560392	0.060919
C63	C	1.451252	-1.060389	-0.573351
C64	C	1.951252	-0.560389	-0.073351
C65	C	1.451193	-0.950667	-0.573323
C66	C	1.951193	-0.450667	-0.073323
C67	C	1.652828	-0.895811	-0.371892
C68	C	2.152828	-0.395811	0.128108
C69	C	1.720086	-0.950669	-0.304768
C70	C	2.220086	-0.450669	0.195232
C71	C	1.720150	-1.060393	-0.304801
C72	C	2.220150	-0.560393	0.195199
C73	C	1.652957	-1.115259	-0.371957
C74	C	2.152957	-0.615259	0.128043
C75	C	1.792411	-0.506088	-0.506182
C76	C	2.292411	-0.006088	-0.006182
C77	C	1.909187	-0.506098	-0.506190
C78	C	2.409187	-0.006098	-0.006190
C79	C	1.518451	-0.505960	-0.780196
C80	C	2.018451	-0.005960	-0.280196
C81	C	1.518482	-0.505915	-0.896973
C82	C	2.018482	-0.005915	-0.396973
C83	C	1.518468	-0.232032	-0.506207
C84	C	2.018468	0.267968	-0.006207
C85	C	1.518507	-0.115256	-0.506226
C86	C	2.018507	0.384744	-0.006226
C87	C	1.585710	-0.438717	-0.951852
C88	C	2.085710	0.061283	-0.451852
C89	C	1.585735	-0.438679	-1.061576
C90	C	2.085735	0.061321	-0.561576
C91	C	1.451301	-0.573045	-1.061532
C92	C	1.951301	-0.073045	-0.561532
C93	C	1.451272	-0.573077	-0.951809
C94	C	1.951272	-0.073077	-0.451809
C95	C	1.663328	-0.361146	-0.951879
C96	C	2.163328	0.138854	-0.451879
C97	C	1.663353	-0.361108	-1.061603
C98	C	2.163353	0.138892	-0.561603
C99	C	1.518364	-0.506096	-0.233195
C100	C	2.018364	-0.006096	0.266805
C101	C	1.518537	-0.505845	-0.116419
C102	C	2.018537	-0.005845	0.383581
H103	H	0.819769	-0.640360	-0.371596
H104	H	1.319769	-0.140360	0.128404
F105	F	1.791602	-0.892277	-0.233309
F106	F	2.291602	-0.392277	0.266691
F107	F	1.379704	-0.644582	-0.893406
F108	F	1.879704	-0.144582	-0.393406
H109	H	1.118288	-0.762058	-0.249439
H110	H	1.618288	-0.262058	0.250561
H111	H	1.217904	-0.640271	-0.371523
H112	H	1.717904	-0.140271	0.128477
H113	H	1.118516	-0.384296	-0.628262
H114	H	1.618516	0.115704	-0.128262
F115	F	0.905499	-0.778875	-0.232649
F116	F	1.405499	-0.278875	0.267351
F117	F	1.379775	-0.644519	-1.119902
F118	F	1.879775	-0.144519	-0.619902
H119	H	1.641559	-0.279781	-0.922122
H120	H	2.141559	0.220219	-0.422122
F121	F	1.652996	-0.779034	-0.372082
F122	F	2.152996	-0.279034	0.127918
F123	F	1.791739	-1.118775	-0.233372
F124	F	2.291739	-0.618775	0.266628
F125	F	1.652690	-1.232037	-0.371648
F126	F	2.152690	-0.732037	0.128352
F127	F	0.905736	-0.367543	-0.645118
F128	F	1.405736	0.132457	-0.145118
F129	F	1.379744	-1.118784	-0.644816
F130	F	1.879744	-0.618784	-0.144816
F131	F	1.379617	-0.892279	-0.644759
F132	F	1.879617	-0.392279	-0.144759
F133	F	1.764327	-0.399267	-0.907388
F134	F	2.264327	0.100733	-0.407388
F135	F	1.625181	-0.260106	-1.106111
F136	F	2.125181	0.239894	-0.606111
F137	F	1.769710	-0.389580	-1.100532
F138	F	2.269710	0.110420	-0.600532
