data_functionalizedCrystal
_audit_creation_method	'MofGen! by Chris Wilmer'
_symmetry_space_group_name_H-M	'P1'
_symmetry_Int_Tables_number	1
_symmetry_cell_setting	triclinic
loop_
_symmetry_equiv_pos_as_xyz
  x,y,z
_cell_length_a	16.109295
_cell_length_b	15.186229
_cell_length_c	16.109301
_cell_angle_alpha	90.005167
_cell_angle_beta	96.539666
_cell_angle_gamma	89.999572
loop_
_atom_site_label
_atom_site_type_symbol
_atom_site_fract_x
_atom_site_fract_y
_atom_site_fract_z
O1	O	-1.103134	0.073171	0.106844
O2	O	-0.603134	0.573171	0.606844
O3	O	-0.861071	0.073187	0.120148
O4	O	-0.361071	0.573187	0.620148
O5	O	-0.988752	0.073170	-0.007535
O6	O	-0.488752	0.573170	0.492465
O7	O	-0.975453	0.073188	0.234527
O8	O	-0.475453	0.573188	0.734527
O9	O	-0.988743	-0.073288	-0.007537
O10	O	-0.488743	0.426712	0.492463
O11	O	-0.861062	-0.073271	0.120146
O12	O	-0.361062	0.426729	0.620146
O13	O	-1.103125	-0.073286	0.106842
O14	O	-0.603125	0.426714	0.606842
Zn15	Zn	-0.982092	-0.096531	0.113494
Zn16	Zn	-0.482092	0.403469	0.613494
Zn17	Zn	-0.982104	0.096432	0.113496
Zn18	Zn	-0.482104	0.596432	0.613496
O19	O	-0.975444	-0.073269	0.234525
O20	O	-0.475444	0.426731	0.734525
C21	C	-0.830092	-0.000040	0.119609
C22	C	-0.330092	0.499960	0.619609
C23	C	-0.737796	-0.000035	0.117996
C24	C	-0.237796	0.499965	0.617996
N25	N	-0.982091	-0.228224	0.113492
N26	N	-0.482091	0.271776	0.613492
C27	C	-0.515523	-0.000038	0.190008
C28	C	-0.015523	0.499962	0.690008
C29	C	-0.428803	-0.000044	0.188486
C30	C	0.071197	0.499956	0.688486
C31	C	-0.448677	-0.000052	0.036996
C32	C	0.051323	0.499948	0.536996
C33	C	-0.535396	-0.000053	0.038520
C34	C	-0.035396	0.499947	0.538520
C35	C	-0.568816	-0.000041	0.115028
C36	C	-0.068816	0.499959	0.615028
C37	C	-0.395377	-0.000046	0.111982
C38	C	0.104623	0.499954	0.611982
C39	C	-0.301351	-0.000052	0.110331
C40	C	0.198649	0.499948	0.610331
C41	C	-0.662849	-0.000037	0.116679
C42	C	-0.162849	0.499963	0.616679
C43	C	-1.038647	-0.453955	0.056973
C44	C	-0.538647	0.046045	0.556973
C45	C	-1.038650	-0.546144	0.056971
C46	C	-0.538650	-0.046144	0.556971
C47	C	-0.925549	-0.546138	0.170014
C48	C	-0.425549	-0.046138	0.670014
C49	C	-0.925543	-0.453950	0.170011
C50	C	-0.425543	0.046050	0.670011
C51	C	-0.982097	-0.407861	0.113491
C52	C	-0.482097	0.092139	0.613491
C53	C	-0.982106	-0.592238	0.113492
C54	C	-0.482106	-0.092238	0.613492
C55	C	-0.982108	-0.692195	0.113490
C56	C	-0.482108	-0.192195	0.613490
C57	C	-0.982094	-0.307898	0.113492
C58	C	-0.482094	0.192102	0.613492
C59	C	-0.134104	-0.000056	0.107386
C60	C	0.365896	0.499944	0.607386
C61	C	-0.226397	-0.000053	0.109014
C62	C	0.273603	0.499947	0.609014
C63	C	-0.988209	-0.000059	-0.038511
C64	C	-0.488209	0.499941	0.461489
C65	C	-0.986594	-0.000061	-0.130806
C66	C	-0.486594	0.499939	0.369194
N67	N	-0.982112	0.228125	0.113492
N68	N	-0.482112	0.728125	0.613492
C69	C	-1.058602	-0.000051	-0.353080
C70	C	-0.558602	0.499949	0.146920
C71	C	-1.057078	-0.000044	-0.439800
C72	C	-0.557078	0.499956	0.060200
C73	C	-0.905588	-0.000038	-0.419923
C74	C	-0.405588	0.499962	0.080077
C75	C	-0.907113	-0.000039	-0.333204
C76	C	-0.407113	0.499961	0.166796
C77	C	-0.983622	-0.000050	-0.299785
C78	C	-0.483622	0.499950	0.200215
C79	C	-0.980573	-0.000042	-0.473225
C80	C	-0.480573	0.499958	0.026775
C81	C	-0.978920	-0.000034	-0.567251
C82	C	-0.478920	0.499966	-0.067251
C83	C	-0.985276	-0.000056	-0.205754
C84	C	-0.485276	0.499944	0.294246
C85	C	-0.975987	-0.000038	0.265501
C86	C	-0.475987	0.499962	0.765501
C87	C	-0.977602	-0.000031	0.357796
C88	C	-0.477602	0.499969	0.857796
H89	H	-0.542731	-0.000036	0.252306
H90	H	-0.042731	0.499964	0.752306
H91	H	-0.846052	-0.000035	-0.289809
H92	H	-0.346052	0.499965	0.210191
H93	H	-0.385414	-0.000043	0.249542
H94	H	0.114586	0.499957	0.749542
H95	H	-0.578790	-0.000058	-0.022542
H96	H	-0.078790	0.499942	0.477458
H97	H	-1.120900	-0.000058	-0.325874
H98	H	-0.620900	0.499942	0.174126
H99	H	-1.118133	-0.000043	-0.483190
H100	H	-0.618133	0.499957	0.016810
H101	H	-1.084695	-0.416431	0.010950
H102	H	-0.584695	0.083569	0.510950
H103	H	-0.879489	-0.416418	0.216036
H104	H	-0.379489	0.083582	0.716036
H105	H	-1.084697	-0.583671	0.010947
H106	H	-0.584697	-0.083671	0.510947
H107	H	-0.879506	-0.583673	0.216032
H108	H	-0.379506	-0.083673	0.716032
Cl109	Cl	-0.406656	-0.000060	-0.059180
Cl110	Cl	0.093344	0.499940	0.440820
H111	H	-0.843297	-0.000030	-0.447144
H112	H	-0.343297	0.499970	0.052856
