data_functionalizedCrystal
_audit_creation_method	'MofGen! by Chris Wilmer'
_symmetry_space_group_name_H-M	'P1'
_symmetry_Int_Tables_number	1
_symmetry_cell_setting	triclinic
loop_
_symmetry_equiv_pos_as_xyz
  x,y,z
_cell_length_a	16.109301
_cell_length_b	16.109301
_cell_length_c	14.586319
_cell_angle_alpha	90.000846
_cell_angle_beta	90.000787
_cell_angle_gamma	96.538519
loop_
_atom_site_label
_atom_site_type_symbol
_atom_site_fract_x
_atom_site_fract_y
_atom_site_fract_z
O1	O	-1.103131	0.106866	-0.076173
O2	O	-0.603131	0.606866	0.423827
O3	O	-0.861069	0.120165	-0.076186
O4	O	-0.361069	0.620165	0.423814
O5	O	-0.988749	-0.007515	-0.076184
O6	O	-0.488749	0.492485	0.423816
O7	O	-0.975450	0.234547	-0.076175
O8	O	-0.475450	0.734547	0.423825
O9	O	-0.988741	-0.007517	0.076297
O10	O	-0.488741	0.492483	0.576297
O11	O	-0.861060	0.120164	0.076295
O12	O	-0.361060	0.620164	0.576295
O13	O	-1.103122	0.106864	0.076308
O14	O	-0.603122	0.606864	0.576308
Cu15	Cu	-0.982090	0.113514	0.090224
Cu16	Cu	-0.482090	0.613514	0.590224
Cu17	Cu	-0.982101	0.113516	-0.090102
Cu18	Cu	-0.482101	0.613516	0.409898
O19	O	-0.975441	0.234545	0.076306
O20	O	-0.475441	0.734545	0.576306
C21	C	-0.830090	0.119626	0.000052
C22	C	-0.330090	0.619626	0.500052
C23	C	-0.737794	0.118011	0.000047
C24	C	-0.237794	0.618011	0.500047
C25	C	-0.988206	-0.038491	0.000053
C26	C	-0.488206	0.461509	0.500053
C27	C	-0.986591	-0.130786	0.000044
C28	C	-0.486591	0.369214	0.500044
C29	C	-1.134101	0.107404	0.000067
C30	C	-0.634101	0.607404	0.500067
C31	C	-1.226397	0.109019	0.000067
C32	C	-0.726397	0.609019	0.500067
C33	C	-0.975984	0.265521	0.000066
C34	C	-0.475984	0.765521	0.500066
C35	C	-0.977600	0.357816	0.000070
C36	C	-0.477600	0.857816	0.500070
C37	C	-0.515522	0.190018	0.000060
C38	C	-0.015522	0.690018	0.500060
C39	C	-0.428801	0.188494	0.000066
C40	C	0.071199	0.688494	0.500066
C41	C	-0.448676	0.037006	0.000057
C42	C	0.051324	0.537006	0.500057
C43	C	-0.535394	0.038530	0.000057
C44	C	-0.035394	0.538530	0.500057
C45	C	-0.568815	0.115039	0.000054
C46	C	-0.068815	0.615039	0.500054
C47	C	-0.395376	0.111990	0.000059
C48	C	0.104624	0.611990	0.500059
C49	C	-0.301350	0.110337	0.000066
C50	C	0.198650	0.610337	0.500066
C51	C	-0.662847	0.116693	0.000050
C52	C	-0.162847	0.616693	0.500050
N53	N	-0.982089	0.113512	0.217056
N54	N	-0.482089	0.613512	0.717056
C55	C	-0.905592	0.580088	0.000053
C56	C	-0.405592	1.080088	0.500053
C57	C	-0.907116	0.666809	0.000046
C58	C	-0.407116	1.166809	0.500046
C59	C	-1.058605	0.646934	0.000058
C60	C	-0.558605	1.146934	0.500058
C61	C	-1.057080	0.560216	0.000059
C62	C	-0.557080	1.060216	0.500059
C63	C	-0.980571	0.526795	0.000060
C64	C	-0.480571	1.026795	0.500060
C65	C	-0.983620	0.700234	0.000053
C66	C	-0.483620	1.200234	0.500053
C67	C	-0.985273	0.794260	0.000046
C68	C	-0.485273	1.294260	0.500046
C69	C	-0.978917	0.432763	0.000066
C70	C	-0.478917	0.932763	0.500066
N71	N	-0.982109	0.113511	-0.216934
N72	N	-0.482109	0.613511	0.283066
C73	C	-1.038644	0.056994	0.452063
C74	C	-0.538644	0.556994	0.952063
C75	C	-1.038647	0.056992	0.548044
C76	C	-0.538647	0.556992	1.048044
C77	C	-0.925547	0.170032	0.548052
C78	C	-0.425547	0.670032	1.048052
C79	C	-0.925541	0.170030	0.452072
C80	C	-0.425541	0.670030	0.952072
C81	C	-0.982095	0.113511	0.404081
C82	C	-0.482095	0.613511	0.904081
C83	C	-0.982103	0.113512	0.596041
C84	C	-0.482103	0.613512	1.096041
C85	C	-0.982105	0.113510	0.700108
C86	C	-0.482105	0.613510	1.200108
C87	C	-0.982092	0.113512	0.300007
C88	C	-0.482092	0.613512	0.800007
H89	H	-0.542730	0.252317	0.000065
H90	H	-0.042730	0.752317	0.500065
H91	H	-1.084694	0.010969	0.587109
H92	H	-0.584694	0.510969	1.087109
Cl93	Cl	-0.812852	0.733803	0.000032
Cl94	Cl	-0.312852	1.233803	0.500032
Cl95	Cl	-0.809410	0.538077	0.000050
Cl96	Cl	-0.309410	1.038077	0.500050
H97	H	-0.385413	0.249550	0.000072
H98	H	0.114587	0.749550	0.500072
Cl99	Cl	-1.154782	0.688955	0.000060
Cl100	Cl	-0.654782	1.188955	0.500060
Cl101	Cl	-0.406655	-0.059172	0.000054
Cl102	Cl	0.093345	0.440828	0.500054
H103	H	-0.879503	0.216049	0.587136
H104	H	-0.379503	0.716049	1.087136
H105	H	-1.118140	0.516822	0.000061
H106	H	-0.618140	1.016822	0.500061
Cl107	Cl	-0.854440	0.241082	0.391745
Cl108	Cl	-0.354440	0.741082	0.891745
H109	H	-0.578788	-0.022530	0.000055
H110	H	-0.078788	0.477470	0.500055
H111	H	-1.084693	0.010972	0.412990
H112	H	-0.584693	0.510972	0.912990
