data_functionalizedCrystal
_audit_creation_method	'MofGen! by Chris Wilmer'
_symmetry_space_group_name_H-M	'P1'
_symmetry_Int_Tables_number	1
_symmetry_cell_setting	triclinic
loop_
_symmetry_equiv_pos_as_xyz
  x,y,z
_cell_length_a	12.759401
_cell_length_b	16.120444
_cell_length_c	16.120256
_cell_angle_alpha	95.616860
_cell_angle_beta	92.881458
_cell_angle_gamma	92.925484
loop_
_atom_site_label
_atom_site_type_symbol
_atom_site_fract_x
_atom_site_fract_y
_atom_site_fract_z
Zn1	Zn	1.552075	-0.356782	-0.489397
Zn2	Zn	1.551940	-0.489468	-0.356708
Zn3	Zn	1.385766	-0.349712	-0.349649
Zn4	Zn	1.366951	-0.496512	-0.496440
O5	O	1.464183	-0.423119	-0.423049
O6	O	1.699077	-0.374394	-0.471803
O7	O	1.537714	-0.465023	-0.238809
O8	O	1.415758	-0.233684	-0.362285
O9	O	1.698978	-0.471878	-0.374317
O10	O	1.537945	-0.238878	-0.464957
O11	O	1.415627	-0.362344	-0.233623
O12	O	1.236250	-0.369174	-0.369114
O13	O	1.383691	-0.483883	-0.612468
O14	O	1.222427	-0.477027	-0.476960
O15	O	1.519701	-0.381224	-0.607294
O16	O	1.519470	-0.607369	-0.381146
O17	O	1.383560	-0.612543	-0.483806
C18	C	1.191218	-0.423098	-0.423036
C19	C	1.074439	-0.423111	-0.423051
C20	C	1.019610	-0.372456	-0.473900
C21	C	0.909884	-0.372472	-0.473906
C22	C	0.909827	-0.473805	-0.372213
C23	C	1.019551	-0.473784	-0.372203
C24	C	1.074498	-0.321783	-0.524749
C25	C	1.019668	-0.271125	-0.575602
C26	C	0.909942	-0.271141	-0.575608
C27	C	0.855047	-0.321815	-0.524761
C28	C	1.449486	-0.640285	-0.434024
C29	C	1.443293	-0.733191	-0.438748
C30	C	1.496556	-0.942100	-0.398726
C31	C	1.432004	-0.903286	-0.447380
C32	C	1.438287	-0.808636	-0.442575
C33	C	1.490275	-1.036758	-0.403529
C34	C	1.738214	-0.423139	-0.423062
C35	C	1.854990	-0.423148	-0.423067
C36	C	1.449612	-0.434128	-0.641056
C37	C	1.443403	-0.438819	-0.733958
C38	C	1.478965	-0.205105	-0.412048
C39	C	1.485264	-0.112201	-0.407361
C40	C	1.496563	-0.398631	-0.942881
C41	C	1.432033	-0.447350	-0.904044
C42	C	1.438361	-0.442602	-0.809399
C43	C	1.490237	-0.403378	-1.037534
C44	C	1.478762	-0.412092	-0.205886
C45	C	1.485191	-0.407165	-0.112972
H46	H	0.865122	-0.515063	-0.330817
H47	H	1.372029	-0.492621	-0.941874
H48	H	1.556534	-0.904250	-0.353465
O49	O	1.568008	-0.344581	-0.897664
C50	C	1.515171	-0.288093	-0.844433
H51	H	1.434398	-0.316920	-0.832946
H52	H	1.505642	-0.227794	-0.874864
C53	C	1.678647	-0.233493	-0.774803
C54	C	1.579443	-0.268903	-0.760689
H55	H	1.718293	-0.221652	-0.723146
H56	H	1.714245	-0.271548	-0.810667
H57	H	1.670691	-0.183249	-0.800165
H58	H	1.587398	-0.319151	-0.735337
H59	H	1.543847	-0.230856	-0.724817
O60	O	1.072761	-0.523117	-0.322910
C61	C	1.039111	-0.607372	-0.345240
H62	H	1.004200	-0.615074	-0.412224
H63	H	0.976948	-0.626902	-0.301495
C64	C	1.176361	-0.653161	-0.255967
C65	C	1.133491	-0.662622	-0.338241
H66	H	1.234577	-0.687244	-0.251647
H67	H	1.199030	-0.596398	-0.240920
H68	H	1.124549	-0.669436	-0.219523
H69	H	1.185299	-0.646338	-0.374683
H70	H	1.110833	-0.719385	-0.353294
O71	O	1.181087	-0.321638	-0.524815
C72	C	1.217777	-0.266069	-0.580614
H73	H	1.157053	-0.217858	-0.589940
H74	H	1.230941	-0.302385	-0.643181
C75	C	1.396679	-0.280653	-0.532994
C76	C	1.322102	-0.221434	-0.544443
H77	H	1.461034	-0.253122	-0.510685
H78	H	1.371962	-0.318093	-0.495403
H79	H	1.407637	-0.310911	-0.585137
H80	H	1.311135	-0.191184	-0.492299
H81	H	1.346820	-0.183988	-0.582024
O82	O	1.360470	-0.948564	-0.501305
C83	C	1.370051	-1.034357	-0.494168
H84	H	1.408072	-1.042922	-0.430278
H85	H	1.421020	-1.061578	-0.545017
C86	C	1.213607	-1.069214	-0.582456
C87	C	1.260298	-1.079734	-0.503983
H88	H	1.145908	-1.097206	-0.588514
H89	H	1.207154	-1.011414	-0.587267
H90	H	1.256092	-1.091898	-0.624821
H91	H	1.217820	-1.057041	-0.461620
H92	H	1.266742	-1.137531	-0.499164
H93	H	1.064372	-0.229862	-0.616995
H94	H	0.765703	-0.321806	-0.524751
O95	O	0.856839	-0.221909	-0.625079
C96	C	0.928820	-0.177166	-0.669936
H97	H	1.004536	-0.211538	-0.674496
H98	H	0.946807	-0.112093	-0.636225
C99	C	0.787873	-0.127548	-0.752715
C100	C	0.880866	-0.169767	-0.758322
H101	H	0.758293	-0.122980	-0.807234
H102	H	0.739377	-0.157689	-0.722492
H103	H	0.802876	-0.073324	-0.724619
H104	H	0.865860	-0.223993	-0.786408
H105	H	0.929359	-0.139635	-0.788552
