data_functionalizedCrystal
_audit_creation_method	'MofGen! by Chris Wilmer'
_symmetry_space_group_name_H-M	'P1'
_symmetry_Int_Tables_number	1
_symmetry_cell_setting	triclinic
loop_
_symmetry_equiv_pos_as_xyz
  x,y,z
_cell_length_a	10.540510
_cell_length_b	10.540535
_cell_length_c	13.448316
_cell_angle_alpha	89.992069
_cell_angle_beta	89.993015
_cell_angle_gamma	84.518476
loop_
_atom_site_label
_atom_site_type_symbol
_atom_site_fract_x
_atom_site_fract_y
_atom_site_fract_z
O1	O	1.685910	0.178724	-0.082701
O2	O	1.316492	0.195619	-0.082702
O3	O	1.509632	0.002464	-0.082692
O4	O	1.492770	0.371879	-0.082712
O5	O	1.509608	0.002451	0.082692
O6	O	1.316467	0.195607	0.082681
O7	O	1.685886	0.178712	0.082682
Cu8	Cu	1.501174	0.187158	0.097783
Cu9	Cu	1.501203	0.187173	-0.097803
O10	O	1.492745	0.371867	0.082672
C11	C	1.269176	0.194354	-0.000011
C12	C	1.128226	0.190587	-0.000011
C13	C	0.910769	0.324772	-0.000398
C14	C	1.057364	0.328790	-0.000019
C15	C	1.083454	0.119834	0.094433
C16	C	0.936693	0.116795	0.094506
C17	C	0.936915	0.113930	-0.093566
C18	C	1.083256	0.120486	-0.094808
C19	C	1.508357	-0.044845	0.000000
C20	C	1.504577	-0.185793	0.000002
C21	C	1.363561	-0.222449	-0.000006
C22	C	1.359584	-0.369049	-0.000399
C23	C	1.568962	-0.395118	-0.094279
C24	C	1.571963	-0.248353	-0.094341
C25	C	1.573986	-0.248505	0.093738
C26	C	1.567464	-0.394851	0.094960
C27	C	1.733201	0.179977	-0.000012
C28	C	1.874151	0.183744	-0.000018
C29	C	1.494021	0.419176	-0.000023
C30	C	1.497801	0.560124	-0.000031
N31	N	1.501163	0.187147	0.235347
N32	N	1.501225	0.187173	-0.235367
C33	C	1.586713	0.101654	0.287392
C34	C	1.586721	0.101653	0.391495
C35	C	1.501184	0.187152	0.443552
C36	C	1.415625	0.272650	0.391499
C37	C	1.415612	0.272644	0.287398
C38	C	1.415661	0.272659	0.608479
C39	C	1.415675	0.272667	0.712588
C40	C	1.586769	0.101668	0.712577
C41	C	1.586756	0.101662	0.608475
C42	C	1.501198	0.187161	0.556430
H43	H	1.130845	0.018092	0.097951
N44	N	1.711414	-0.219130	0.094952
H45	H	1.715159	-0.123798	0.097547
H46	H	1.755447	-0.259739	0.155331
H47	H	1.523925	-0.208163	-0.165064
H48	H	1.309399	-0.180486	0.067576
N49	N	0.906204	-0.020113	0.100205
H50	H	0.944179	-0.068657	0.040851
H51	H	0.943286	-0.060160	0.163327
H52	H	1.345986	0.342278	0.566108
N53	N	1.323376	0.364876	0.447644
H54	H	1.269177	0.419034	0.398874
H55	H	1.266825	0.315745	0.490857
H56	H	1.656412	0.032048	0.566091
N57	N	0.907576	-0.023513	-0.094405
H58	H	0.859368	-0.040976	-0.157061
H59	H	0.989849	-0.081026	-0.092156
H60	H	1.346021	0.342288	0.754967
H61	H	0.894376	0.157519	-0.165149
H62	H	1.656371	0.032035	0.245015
H63	H	1.303920	-0.398392	0.067143
N64	N	1.124302	0.184897	0.187533
H65	H	1.171798	0.260188	0.168747
H66	H	1.046554	0.215267	0.227998
H67	H	1.670730	-0.442485	-0.097520
H68	H	1.656432	0.032051	0.754958
N69	N	1.293039	-0.164881	-0.089405
H70	H	1.352038	-0.115159	-0.129899
H71	H	1.262331	-0.235086	-0.131582
N72	N	1.286210	-0.406684	-0.090412
H73	H	1.329668	-0.379555	-0.152786
H74	H	1.283299	-0.502176	-0.090965
N75	N	1.323335	0.364847	0.231258
H76	H	1.269150	0.419014	0.280030
H77	H	1.372426	0.421433	0.188045
H78	H	0.867251	0.378299	0.066944
N79	N	0.883404	0.180839	0.188009
H80	H	0.821588	0.256384	0.169701
H81	H	0.837710	0.118186	0.228143
H82	H	1.675340	-0.225332	-0.098354
N83	N	1.679004	0.009467	0.447642
H84	H	1.735628	0.058546	0.490814
H85	H	1.629912	-0.047184	0.490797
H86	H	1.529973	-0.206055	0.165205
N87	N	1.096262	0.402106	-0.089698
H88	H	1.018113	0.432102	-0.129831
H89	H	1.140085	0.478193	-0.067073
N90	N	1.498900	-0.432815	0.187316
H91	H	1.408328	-0.391729	0.186490
H92	H	1.498395	-0.528555	0.189097
N93	N	0.855213	0.396112	-0.090112
H94	H	0.805763	0.337712	-0.131381
H95	H	0.796379	0.471866	-0.067503
N96	N	1.121196	0.188649	-0.187364
H97	H	1.167322	0.264622	-0.167980
H98	H	1.179232	0.128439	-0.229243
H99	H	1.085757	0.384467	0.067790
N100	N	1.504322	-0.436022	-0.187553
H101	H	1.413107	-0.396731	-0.188731
H102	H	1.550903	-0.406778	-0.247741
N103	N	1.148243	-0.013169	-0.102363
H104	H	1.243518	-0.009686	-0.106571
H105	H	1.127163	-0.063504	-0.041643
N106	N	1.701087	-0.459826	0.102892
H107	H	1.718440	-0.519630	0.044758
H108	H	1.764185	-0.393499	0.102262
