data_functionalizedCrystal
_audit_creation_method	'MofGen! by Chris Wilmer'
_symmetry_space_group_name_H-M	'P1'
_symmetry_Int_Tables_number	1
_symmetry_cell_setting	triclinic
loop_
_symmetry_equiv_pos_as_xyz
  x,y,z
_cell_length_a	13.339070
_cell_length_b	14.044220
_cell_length_c	12.376457
_cell_angle_alpha	102.319698
_cell_angle_beta	75.589755
_cell_angle_gamma	104.409086
loop_
_atom_site_label
_atom_site_type_symbol
_atom_site_fract_x
_atom_site_fract_y
_atom_site_fract_z
O1	O	1.404410	0.473359	-0.094060
O2	O	1.104116	0.409471	-0.094052
O3	O	1.249753	0.302247	-0.094045
O4	O	1.258772	0.580583	-0.094067
O5	O	1.213353	0.329006	0.093966
O6	O	1.067716	0.436230	0.093959
O7	O	1.368010	0.500118	0.093950
Zn8	Zn	1.212084	0.472423	0.123805
Zn9	Zn	1.260042	0.437166	-0.123907
O10	O	1.222373	0.607343	0.093943
C11	C	1.047253	0.412059	-0.000045
C12	C	0.932047	0.379891	-0.000042
C13	C	0.589833	0.630012	-0.000080
C14	C	0.698075	0.660238	-0.000087
C15	C	0.756573	0.590154	-0.000075
C16	C	0.706819	0.489838	-0.000057
C17	C	0.598569	0.459608	-0.000059
C18	C	0.765309	0.419750	-0.000054
C19	C	0.715555	0.319434	-0.000037
C20	C	0.607315	0.289209	-0.000038
C21	C	0.548816	0.359293	-0.000049
C22	C	0.873559	0.449980	-0.000053
C23	C	0.882295	0.279576	-0.000032
C24	C	0.774053	0.249350	-0.000025
C25	C	1.227607	0.279274	-0.000039
C26	C	1.215836	0.170953	-0.000037
C27	C	1.194321	-0.027370	-0.000053
C28	C	1.277803	-0.063049	-0.000059
C29	C	1.265831	-0.173403	-0.000068
C30	C	1.206291	0.082993	-0.000044
C31	C	1.424874	0.497530	-0.000059
C32	C	1.540081	0.529697	-0.000070
C33	C	1.244519	0.630315	-0.000065
C34	C	1.256291	0.738635	-0.000074
N35	N	1.179361	0.496486	0.292862
N36	N	1.292772	0.413098	-0.292964
C37	C	1.368731	0.357221	0.647856
C38	C	1.391627	0.340378	0.529517
C39	C	1.338563	0.379403	0.470347
C40	C	1.262597	0.435275	0.529528
C41	C	1.239704	0.452127	0.647878
C42	C	1.209536	0.474309	0.470370
C43	C	1.133571	0.530180	0.529551
C44	C	1.110681	0.547029	0.647889
C45	C	1.163746	0.508003	0.707059
C46	C	1.232429	0.457457	0.352020
C47	C	1.103403	0.552362	0.352042
C48	C	1.080506	0.569206	0.470381
H49	H	0.738578	0.741913	-0.000110
H50	H	0.542196	0.687062	-0.000099
H51	H	1.048834	0.592532	0.696075
H52	H	1.018654	0.614698	0.518581
H53	H	1.358280	-0.010727	-0.000137
H54	H	1.453478	0.294889	0.481336
C55	C	1.087056	-0.097128	-0.000280
C56	C	1.052101	-0.094240	-0.097013
C57	C	0.953302	-0.158509	-0.097264
H58	H	1.037672	-0.076703	0.065212
H59	H	1.093137	-0.163120	-0.000345
H60	H	1.046013	-0.028262	-0.096938
H61	H	1.101457	-0.114674	-0.162521
H62	H	0.959383	-0.224501	-0.097329
H63	H	0.903927	-0.138078	-0.031768
H64	H	0.929577	-0.156565	-0.162901
C65	C	0.553477	0.180257	0.000032
C66	C	0.627863	0.125353	0.000073
C67	C	0.578305	0.024987	0.000153
H68	H	0.524127	0.155458	-0.065513
H69	H	0.498756	0.174218	0.065622
H70	H	0.682565	0.131387	-0.065510
H71	H	0.657218	0.150121	0.065613
H72	H	0.523585	0.018947	0.065743
H73	H	0.548957	0.000197	-0.065393
H74	H	0.628766	-0.012277	0.000192
C75	C	1.363524	0.360959	0.341865
C76	C	1.441386	0.303654	0.302700
C77	C	1.464396	0.286625	0.184344
H78	H	1.388539	0.422868	0.314936
H79	H	1.301296	0.326352	0.315073
H80	H	1.503602	0.338262	0.329480
H81	H	1.416393	0.241735	0.329598
H82	H	1.402168	0.252018	0.157552
H83	H	1.489407	0.348538	0.157426
H84	H	1.517220	0.247735	0.157756
H85	H	0.460676	0.334688	-0.000043
C86	C	1.045980	0.594810	0.287672
C87	C	1.119688	0.659095	0.219689
C88	C	1.066840	0.698207	0.160357
H89	H	0.997471	0.630573	0.339737
H90	H	1.008652	0.541965	0.241454
H91	H	1.156999	0.711932	0.265902
H92	H	1.168200	0.623355	0.167603
H93	H	1.029512	0.645362	0.114140
H94	H	1.018332	0.733964	0.212430
H95	H	1.116843	0.741821	0.114216
H96	H	0.929925	0.222507	-0.000027
H97	H	0.733530	0.167670	-0.000020
C98	C	1.426145	0.314712	0.712163
C99	C	1.352439	0.250393	0.780106
C100	C	1.405295	0.211203	0.839354
H101	H	1.463496	0.367489	0.758407
H102	H	1.474638	0.278963	0.660014
H103	H	1.303966	0.286141	0.832249
H104	H	1.315085	0.197599	0.733890
H105	H	1.453787	0.175453	0.787204
H106	H	1.442644	0.263986	0.885591
H107	H	1.355295	0.167551	0.885452
C108	C	1.139076	0.526229	0.835546
C109	C	1.201823	0.480108	0.874690
C110	C	1.179141	0.496887	0.993046
H111	H	1.066501	0.499301	0.862478
H112	H	1.153722	0.595833	0.862349
H113	H	1.187170	0.410518	0.847899
H114	H	1.274402	0.507027	0.847789
H115	H	1.193786	0.566491	1.019849
H116	H	1.106564	0.469959	1.019967
H117	H	1.221717	0.465605	1.019620
H118	H	1.294281	0.411966	0.303845
C119	C	0.927464	0.558896	-0.000242
C120	C	0.917199	0.589179	-0.096961
C121	C	0.966828	0.689516	-0.097165
H122	H	1.000329	0.566999	-0.000298
H123	H	0.895210	0.598320	0.065283
H124	H	0.949457	0.549768	-0.162469
H125	H	0.844346	0.581101	-0.096926
H126	H	0.934574	0.728939	-0.031640
H127	H	1.039691	0.697610	-0.097218
H128	H	0.959862	0.710078	-0.162782
H129	H	0.844709	0.614769	-0.000084
