data_functionalizedCrystal
_audit_creation_method	'MofGen! by Chris Wilmer'
_symmetry_space_group_name_H-M	'P1'
_symmetry_Int_Tables_number	1
_symmetry_cell_setting	triclinic
loop_
_symmetry_equiv_pos_as_xyz
  x,y,z
_cell_length_a	10.489716
_cell_length_b	10.489741
_cell_length_c	10.268362
_cell_angle_alpha	89.995004
_cell_angle_beta	89.995798
_cell_angle_gamma	84.534155
loop_
_atom_site_label
_atom_site_type_symbol
_atom_site_fract_x
_atom_site_fract_y
_atom_site_fract_z
O1	O	1.694072	0.179820	-0.108289
O2	O	2.194072	0.679820	0.391711
O3	O	1.322872	0.196745	-0.108294
O4	O	1.822872	0.696745	0.391706
O5	O	1.516919	0.002684	-0.108284
O6	O	2.016919	0.502684	0.391716
O7	O	1.500026	0.373881	-0.108299
O8	O	2.000026	0.873881	0.391701
O9	O	1.516902	0.002676	0.108317
O10	O	2.016902	0.502676	0.608317
O11	O	1.322855	0.196737	0.108307
O12	O	1.822855	0.696737	0.608307
O13	O	1.694055	0.179812	0.108312
O14	O	2.194055	0.679812	0.608312
Cu15	Cu	1.508453	0.188274	0.128087
Cu16	Cu	2.008453	0.688274	0.628087
Cu17	Cu	1.508474	0.188283	-0.128069
Cu18	Cu	2.008474	0.688283	0.371931
O19	O	1.500009	0.373873	0.108301
O20	O	2.000009	0.873873	0.608301
C21	C	1.275332	0.195470	0.000006
C22	C	1.775332	0.695470	0.500006
C23	C	1.133701	0.191665	0.000004
C24	C	1.633701	0.691665	0.500004
C25	C	1.036027	0.310669	-0.000004
C26	C	1.536027	0.810669	0.499996
C27	C	0.958672	0.247781	0.106800
C28	C	1.458672	0.747781	0.606800
C29	C	0.958696	0.247761	-0.106751
C30	C	1.458696	0.747761	0.393249
C31	C	1.058212	0.128826	0.106896
C32	C	1.558212	0.628826	0.606896
C33	C	1.058240	0.128823	-0.106751
C34	C	1.558240	0.628823	0.393249
C35	C	0.980935	0.065848	0.000079
C36	C	1.480935	0.565848	0.500079
C37	C	1.515634	-0.044852	0.000016
C38	C	2.015634	0.455148	0.500016
C39	C	1.511817	-0.186481	0.000014
C40	C	2.011817	0.313519	0.500014
C41	C	1.388351	-0.254610	0.000002
C42	C	1.888351	0.245390	0.500002
C43	C	1.446667	-0.346742	0.106799
C44	C	1.946667	0.153258	0.606799
C45	C	1.446713	-0.346708	-0.106753
C46	C	1.946713	0.153292	0.393247
C47	C	1.570184	-0.276747	0.106898
C48	C	2.070184	0.223253	0.606898
C49	C	1.570212	-0.276704	-0.106749
C50	C	2.070212	0.223296	0.393251
C51	C	1.628618	-0.368808	0.000073
C52	C	2.128618	0.131192	0.500073
C53	C	1.741596	0.181087	0.000009
C54	C	2.241596	0.681087	0.500009
C55	C	1.883227	0.184892	0.000002
C56	C	2.383227	0.684892	0.500002
C57	C	1.501293	0.421409	-0.000001
C58	C	2.001293	0.921409	0.499999
C59	C	1.505110	0.563038	-0.000007
C60	C	2.005110	1.063038	0.499993
N61	N	1.508449	0.188266	0.308252
N62	N	2.008449	0.688266	0.808252
N63	N	1.508489	0.188281	-0.308235
N64	N	2.008489	0.688281	0.191765
C65	C	1.508467	0.188281	0.573923
C66	C	2.008467	0.688281	1.073923
C67	C	1.508453	0.188276	0.426085
C68	C	2.008453	0.688276	0.926085
H69	H	1.060696	0.414185	0.000091
H70	H	1.560696	0.914185	0.500091
F71	F	1.255667	-0.189702	0.000135
F72	F	1.755667	0.310298	0.500135
H73	H	1.394418	-0.377752	0.197086
H74	H	1.894418	0.122248	0.697086
H75	H	0.915219	0.298025	-0.197032
H76	H	1.415219	0.798025	0.302968
F77	F	1.761420	-0.433424	0.000148
F78	F	2.261420	0.066576	0.500148
F79	F	0.901826	0.313437	0.224814
F80	F	1.401826	0.813437	0.724814
F81	F	1.378411	-0.387198	-0.224759
F82	F	1.878411	0.112802	0.275241
F83	F	1.638402	-0.236464	0.225042
F84	F	2.138402	0.263536	0.725042
H85	H	1.622416	-0.245661	-0.197041
H86	H	2.122416	0.254339	0.302959
F87	F	0.948993	-0.069550	0.000166
F88	F	1.448993	0.430450	0.500166
F89	F	1.114814	0.063198	0.225037
F90	F	1.614814	0.563198	0.725037
H91	H	1.101743	0.078629	-0.197044
H92	H	1.601743	0.578629	0.302956
