data_functionalizedCrystal
_audit_creation_method	'MofGen! by Chris Wilmer'
_symmetry_space_group_name_H-M	'P1'
_symmetry_Int_Tables_number	1
_symmetry_cell_setting	triclinic
loop_
_symmetry_equiv_pos_as_xyz
  x,y,z
_cell_length_a	19.805407
_cell_length_b	19.805405
_cell_length_c	19.805407
_cell_angle_alpha	90.012351
_cell_angle_beta	90.010057
_cell_angle_gamma	90.028666
loop_
_atom_site_label
_atom_site_type_symbol
_atom_site_fract_x
_atom_site_fract_y
_atom_site_fract_z
Zn1	Zn	1.034665	-0.269539	0.382739
Zn2	Zn	1.534665	0.230461	0.882739
Zn3	Zn	1.034600	-0.382699	0.269553
Zn4	Zn	1.534600	0.117301	0.769553
Zn5	Zn	0.921500	-0.269533	0.269562
Zn6	Zn	1.421500	0.230467	0.769562
Zn7	Zn	0.921443	-0.382695	0.382698
Zn8	Zn	1.421443	0.117305	0.882698
O9	O	0.978052	-0.326117	0.326138
O10	O	1.478052	0.173883	0.826138
O11	O	1.129373	-0.284554	0.367738
O12	O	1.629373	0.215446	0.867738
O13	O	1.019594	-0.367687	0.174837
O14	O	1.519594	0.132313	0.674837
O15	O	0.936563	-0.174818	0.284596
O16	O	1.436563	0.325182	0.784596
O17	O	1.129325	-0.367692	0.284581
O18	O	1.629325	0.132308	0.784581
O19	O	1.019705	-0.174822	0.367747
O20	O	1.519705	0.325178	0.867747
O21	O	0.936500	-0.284544	0.174844
O22	O	1.436500	0.215456	0.674844
O23	O	0.826776	-0.284541	0.284556
O24	O	1.326776	0.215459	0.784556
O25	O	0.936465	-0.367686	0.477420
O26	O	1.436465	0.132314	0.977420
O27	O	0.826734	-0.367680	0.367677
O28	O	1.326734	0.132320	0.867677
O29	O	1.019649	-0.284550	0.477450
O30	O	1.519649	0.215450	0.977450
O31	O	1.019538	-0.477415	0.284541
O32	O	1.519538	0.022585	0.784541
O33	O	0.936402	-0.477412	0.367668
O34	O	1.436402	0.022588	0.867668
C35	C	0.802196	-0.326110	0.326114
C36	C	1.302196	0.173890	0.826114
C37	C	0.726964	-0.326123	0.326119
C38	C	1.226964	0.173877	0.826119
C39	C	0.977975	-0.501973	0.326113
C40	C	1.477975	-0.001973	0.826113
C41	C	0.978004	-0.577205	0.326126
C42	C	1.478004	-0.077205	0.826126
C43	C	0.265201	-0.282908	0.369531
C44	C	0.765201	0.217092	0.869531
C45	C	0.335890	-0.282909	0.369526
C46	C	0.835890	0.217091	0.869526
C47	C	0.371202	-0.326127	0.326160
C48	C	0.871202	0.173873	0.826160
C49	C	0.335822	-0.369352	0.282801
C50	C	0.835822	0.130648	0.782801
C51	C	0.265135	-0.369353	0.282810
C52	C	0.765135	0.130647	0.782810
C53	C	0.620896	-0.369346	0.282765
C54	C	1.120896	0.130654	0.782765
C55	C	0.691588	-0.369340	0.282758
C56	C	1.191588	0.130660	0.782758
C57	C	0.691650	-0.282902	0.369481
C58	C	1.191650	0.217098	0.869481
C59	C	0.620963	-0.282904	0.369490
C60	C	1.120963	0.217096	0.869490
C61	C	0.585589	-0.326131	0.326134
C62	C	1.085589	0.173869	0.826134
C63	C	0.508941	-0.326130	0.326140
C64	C	1.008941	0.173870	0.826140
C65	C	0.447849	-0.326125	0.326149
C66	C	0.947849	0.173875	0.826149
C67	C	1.021270	-0.612493	0.369456
C68	C	1.521270	-0.112493	0.869456
C69	C	1.021294	-0.683181	0.369469
C70	C	1.521294	-0.183181	0.869469
C71	C	0.978055	-0.718580	0.326147
C72	C	1.478055	-0.218580	0.826147
C73	C	0.934784	-0.683287	0.282814
C74	C	1.434784	-0.183287	0.782814
C75	C	0.934757	-0.612600	0.282806
C76	C	1.434757	-0.112600	0.782806
C77	C	0.934893	-0.968361	0.282849
C78	C	1.434893	-0.468361	0.782849
C79	C	0.934925	-1.039053	0.282860
C80	C	1.434925	-0.539053	0.782860
C81	C	1.021430	-1.038942	0.369512
C82	C	1.521430	-0.538942	0.869512
C83	C	1.021403	-0.968255	0.369503
C84	C	1.521403	-0.468255	0.869503
C85	C	0.978130	-0.932968	0.326174
C86	C	1.478130	-0.432968	0.826174
C87	C	0.978103	-0.856319	0.326162
C88	C	1.478103	-0.356319	0.826162
C89	C	0.978085	-0.795228	0.326155
C90	C	1.478085	-0.295228	0.826155
C91	C	1.154595	-0.326124	0.326163
C92	C	1.654595	0.173876	0.826163
C93	C	1.229827	-0.326128	0.326174
C94	C	1.729827	0.173872	0.826174
C95	C	0.978058	-0.326118	0.502681
C96	C	1.478058	0.173882	1.002681
C97	C	0.978060	-0.326119	0.577913
C98	C	1.478060	0.173881	1.077913
C99	C	0.978148	-0.149574	0.326177
C100	C	1.478148	0.350426	0.826177
C101	C	0.978189	-0.074342	0.326194
C102	C	1.478189	0.425658	0.826194
C103	C	1.021369	-0.282837	0.613274
C104	C	1.521369	0.217163	1.113274
C105	C	1.021363	-0.282835	0.683962
C106	C	1.521363	0.217165	1.183962
C107	C	0.978052	-0.326119	0.719288
C108	C	1.478052	0.173881	1.219288
C109	C	0.934738	-0.369402	0.683922
C110	C	1.434738	0.130598	1.183922
C111	C	0.934741	-0.369401	0.613235
C112	C	1.434741	0.130599	1.113235
C113	C	0.934725	-0.369410	0.968996
C114	C	1.434725	0.130590	1.468996
C115	C	0.934727	-0.369410	1.039688
C116	C	1.434727	0.130590	1.539688
C117	C	1.021347	-0.282845	1.039723
C118	C	1.521347	0.217155	1.539723
C119	C	1.021350	-0.282843	0.969035
C120	C	1.521350	0.217157	1.469035
C121	C	0.978034	-0.326124	0.933676
C122	C	1.478034	0.173876	1.433676
C123	C	0.978040	-0.326124	0.857027
C124	C	1.478040	0.173876	1.357027
C125	C	0.978049	-0.326122	0.795935
C126	C	1.478049	0.173878	1.295935
C127	C	0.978039	-0.326129	1.150282
C128	C	1.478039	0.173871	1.650282
C129	C	0.978033	-0.326124	1.075050
C130	C	1.478033	0.173876	1.575050
H131	H	0.236455	-0.247710	0.404840
H132	H	0.736455	0.252290	0.904840
H133	H	0.720337	-0.404536	0.247443
H134	H	1.220337	0.095464	0.747443
H135	H	0.899455	-0.404659	1.068448
H136	H	1.399455	0.095341	1.568448
C137	C	0.581994	-0.416886	0.235067
C138	C	1.081994	0.083114	0.735067
H139	H	0.613150	-0.442617	0.209234
H140	H	1.113150	0.057383	0.709234
H141	H	0.554411	-0.446421	0.260905
H142	H	1.054411	0.053579	0.760905
H143	H	0.554424	-0.390943	0.205623
H144	H	1.054424	0.109057	0.705623
C145	C	0.887104	-0.417010	0.574335
C146	C	1.387104	0.082990	1.074335
H147	H	0.893303	-0.410805	0.527177
H148	H	1.393303	0.089195	1.027177
H149	H	0.896981	-0.462488	0.585909
H150	H	1.396981	0.037512	1.085909
H151	H	0.841630	-0.407095	0.585913
H152	H	1.341630	0.092905	1.085913
H153	H	0.592215	-0.247709	0.404800
H154	H	1.092215	0.252291	0.904800
H155	H	0.364579	-0.404543	0.247494
H156	H	0.864579	0.095457	0.747494
C157	C	0.226223	-0.416894	0.235116
C158	C	0.726223	0.083106	0.735116
H159	H	0.257377	-0.442629	0.209283
H160	H	0.757377	0.057371	0.709283
H161	H	0.198642	-0.446425	0.260959
H162	H	0.698642	0.053575	0.760959
H163	H	0.198652	-0.390953	0.205671
H164	H	0.698652	0.109047	0.705671
H165	H	0.899465	-0.404662	0.940214
H166	H	1.399465	0.095338	1.440214
C167	C	0.887356	-1.077994	0.235210
C168	C	1.387356	-0.577994	0.735210
H169	H	0.893577	-1.125146	0.241418
H170	H	1.393577	-0.625146	0.741418
H171	H	0.841867	-1.066449	0.245075
H172	H	1.341867	-0.566449	0.745075
H173	H	0.897291	-1.066417	0.189737
H174	H	1.397291	-0.566417	0.689737
C175	C	1.069009	-0.235221	0.574421
C176	C	1.569009	0.264779	1.074421
H177	H	1.094795	-0.209438	0.605608
H178	H	1.594795	0.290562	1.105608
H179	H	1.098489	-0.261108	0.546844
H180	H	1.598489	0.238892	1.046844
H181	H	1.043127	-0.205726	0.546851
H182	H	1.543127	0.294274	1.046851
C183	C	0.887165	-0.573780	0.235144
C184	C	1.387165	-0.073780	0.735144
H185	H	0.893336	-0.526612	0.241348
H186	H	1.393336	-0.026612	0.741348
H187	H	0.897107	-0.585369	0.189676
H188	H	1.397107	-0.085369	0.689676
H189	H	0.841684	-0.585403	0.245015
H190	H	1.341684	-0.085403	0.745015
C191	C	0.887219	-0.722221	0.235162
C192	C	1.387219	-0.222221	0.735162
H193	H	0.861442	-0.691079	0.209360
H194	H	1.361442	-0.191079	0.709360
H195	H	0.913142	-0.749784	0.205698
H196	H	1.413142	-0.249784	0.705698
H197	H	0.857717	-0.749812	0.261035
H198	H	1.357717	-0.249812	0.761035
C199	C	1.069006	-0.235228	0.722856
C200	C	1.569006	0.264772	1.222856
H201	H	1.094807	-0.209456	0.691694
H202	H	1.594807	0.290544	1.191694
H203	H	1.043133	-0.205733	0.750433
H204	H	1.543133	0.294267	1.250433
H205	H	1.098482	-0.261128	0.750431
H206	H	1.598482	0.238872	1.250431
H207	H	1.056483	-0.583676	0.404731
H208	H	1.556483	-0.083676	0.904731
C209	C	0.887304	-0.929554	0.235180
C210	C	1.387304	-0.429554	0.735180
H211	H	0.861564	-0.960762	0.209375
H212	H	1.361564	-0.460762	0.709375
H213	H	0.857778	-0.901994	0.261033
H214	H	1.357778	-0.401994	0.761033
H215	H	0.913215	-0.901968	0.205708
H216	H	1.413215	-0.401968	0.705708
C217	C	1.068990	-0.235228	0.930180
C218	C	1.568990	0.264772	1.430180
H219	H	1.094778	-0.209445	0.961365
H220	H	1.594778	0.290555	1.461365
H221	H	1.098468	-0.261117	0.902603
H222	H	1.598468	0.238883	1.402603
H223	H	1.043107	-0.205734	0.902609
H224	H	1.543107	0.294266	1.402609
H225	H	0.899471	-0.404642	0.712690
H226	H	1.399471	0.095358	1.212690
H227	H	1.056531	-0.711910	0.404747
H228	H	1.556531	-0.211910	0.904747
C229	C	1.068989	-0.235231	1.078620
C230	C	1.568989	0.264769	1.578620
H231	H	1.062782	-0.241424	1.125778
H232	H	1.562782	0.258576	1.625778
H233	H	1.114460	-0.245141	1.067042
H234	H	1.614460	0.254859	1.567042
H235	H	1.059107	-0.189750	1.067042
H236	H	1.559107	0.310250	1.567042
H237	H	1.056663	-1.067681	0.404795
H238	H	1.556663	-0.567681	0.904795
C239	C	0.374799	-0.235362	0.417213
C240	C	0.874799	0.264638	0.917213
H241	H	0.343644	-0.209616	0.443034
H242	H	0.843644	0.290384	0.943034
H243	H	0.402372	-0.261292	0.446659
H244	H	0.902372	0.238708	0.946659
H245	H	0.402379	-0.205830	0.391362
H246	H	0.902379	0.294170	0.891362
C247	C	0.730563	-0.235360	0.417180
C248	C	1.230563	0.264640	0.917180
H249	H	0.777719	-0.241552	0.410972
H250	H	1.277719	0.258448	0.910972
H251	H	0.718998	-0.189868	0.407357
H252	H	1.218998	0.310132	0.907357
H253	H	0.718983	-0.245341	0.462643
H254	H	1.218983	0.254659	0.962643
H255	H	1.056615	-0.939435	0.404778
H256	H	1.556615	-0.439435	0.904778
