data_functionalizedCrystal
_audit_creation_method	'MofGen! by Chris Wilmer'
_symmetry_space_group_name_H-M	'P1'
_symmetry_Int_Tables_number	1
_symmetry_cell_setting	triclinic
loop_
_symmetry_equiv_pos_as_xyz
  x,y,z
_cell_length_a	12.759401
_cell_length_b	13.897448
_cell_length_c	12.759393
_cell_angle_alpha	89.966654
_cell_angle_beta	89.981504
_cell_angle_gamma	90.017853
loop_
_atom_site_label
_atom_site_type_symbol
_atom_site_fract_x
_atom_site_fract_y
_atom_site_fract_z
Zn1	Zn	1.606234	-0.383954	-0.593968
Zn2	Zn	1.606119	-0.545283	-0.418283
Zn3	Zn	1.430536	-0.384004	-0.418308
Zn4	Zn	1.430515	-0.545209	-0.593924
O5	O	1.518351	-0.464613	-0.506121
O6	O	1.753239	-0.405365	-0.570671
O7	O	1.582788	-0.523942	-0.271265
O8	O	1.453899	-0.249016	-0.441638
O9	O	1.753155	-0.523893	-0.441596
O10	O	1.582983	-0.248979	-0.570695
O11	O	1.453788	-0.405451	-0.271283
O12	O	1.283512	-0.405379	-0.441596
O13	O	1.453864	-0.523766	-0.740951
O14	O	1.283497	-0.523815	-0.570621
O15	O	1.582964	-0.405293	-0.740984
O16	O	1.582768	-0.680255	-0.441554
O17	O	1.453753	-0.680201	-0.570597
C18	C	1.245383	-0.464595	-0.506107
C19	C	1.128607	-0.464611	-0.506125
C20	C	1.073764	-0.526379	-0.573198
C21	C	0.964040	-0.526391	-0.573209
C22	C	0.964011	-0.402864	-0.439067
C23	C	1.073733	-0.402847	-0.439062
C24	C	1.073780	-0.597700	-0.650640
C25	C	0.964056	-0.597712	-0.650652
C26	C	1.518274	-0.715227	-0.506090
C27	C	1.518337	-0.822441	-0.506113
C28	C	1.518448	-1.018736	-0.506178
C29	C	1.518383	-0.909503	-0.506145
C30	C	1.792384	-0.464631	-0.506136
C31	C	1.909161	-0.464639	-0.506142
C32	C	1.518424	-0.464515	-0.780154
C33	C	1.518456	-0.464474	-0.896931
C34	C	1.518456	-0.213020	-0.506174
C35	C	1.518501	-0.105806	-0.506197
C36	C	1.585687	-0.402779	-0.951812
C37	C	1.585712	-0.402744	-1.061536
C38	C	1.451271	-0.526107	-1.061489
C39	C	1.451242	-0.526137	-0.951767
C40	C	1.663309	-0.331559	-0.951839
C41	C	1.663334	-0.331524	-1.061564
C42	C	1.518338	-0.464640	-0.233154
C43	C	1.518510	-0.464410	-0.116377
H44	H	1.103590	-0.577777	-0.732048
H45	H	1.107791	-0.668626	-0.621353
O46	O	1.628469	-0.246847	-1.102065
C47	C	1.525024	-0.229927	-1.067854
H48	H	1.509994	-0.271762	-0.992452
H49	H	1.467598	-0.254574	-1.130794
C50	C	1.528363	-0.070253	-1.139925
C51	C	1.509906	-0.121630	-1.047310
H52	H	1.519034	-0.003451	-1.127257
H53	H	1.598054	-0.081654	-1.162978
H54	H	1.480505	-0.090803	-1.192366
H55	H	1.557771	-0.101089	-0.994875
H56	H	1.440222	-0.110224	-1.024247
O57	O	1.637213	-0.242520	-0.916208
C58	C	1.545531	-0.248733	-0.854860
H59	H	1.536629	-0.325163	-0.823603
H60	H	1.474557	-0.229698	-0.905001
C61	C	1.564213	-0.084119	-0.800725
C62	C	1.553285	-0.177989	-0.762328
H63	H	1.568992	-0.040479	-0.743649
H64	H	1.625979	-0.079931	-0.842059
H65	H	1.505066	-0.068270	-0.842509
H66	H	1.612437	-0.193842	-0.720556
H67	H	1.491528	-0.182179	-0.720984
O68	O	1.755491	-0.363362	-0.911098
C69	C	1.800503	-0.290365	-0.848987
H70	H	1.736657	-0.238722	-0.821797
H71	H	1.861098	-0.249297	-0.897120
C72	C	1.932478	-0.399293	-0.786246
C73	C	1.854060	-0.335868	-0.752843
H74	H	1.965520	-0.427360	-0.726942
H75	H	1.902156	-0.448471	-0.828094
H76	H	1.982964	-0.365060	-0.826357
H77	H	1.803570	-0.370103	-0.712744
H78	H	1.884375	-0.286696	-0.710985
H79	H	0.930060	-0.571046	-0.728004
O80	O	1.760435	-0.355221	-1.097142
C81	C	1.800434	-0.279230	-1.158539
H82	H	1.759735	-0.209248	-1.135895
H83	H	1.785606	-0.294945	-1.244957
C84	C	1.969119	-0.355478	-1.167269
C85	C	1.919139	-0.269524	-1.139451
H86	H	2.042342	-0.349492	-1.155499
H87	H	1.942171	-0.406677	-1.125908
H88	H	1.956751	-0.368565	-1.239282
H89	H	1.931495	-0.256445	-1.067436
H90	H	1.946092	-0.218322	-1.180799
O91	O	0.928619	-0.686880	-0.624601
C92	C	0.965537	-0.754463	-0.698242
H93	H	1.038952	-0.725188	-0.738001
H94	H	0.902442	-0.768075	-0.759720
C95	C	0.901752	-0.885401	-0.593094
C96	C	0.991927	-0.849449	-0.641920
H97	H	0.918027	-0.943995	-0.558354
H98	H	0.876876	-0.839870	-0.543482
H99	H	0.849182	-0.896737	-0.644334
H100	H	1.044491	-0.838102	-0.590678
H101	H	1.016813	-0.894981	-0.691522
O102	O	1.385884	-0.586143	-0.898618
C103	C	1.326546	-0.640537	-0.970549
H104	H	1.369604	-0.643877	-1.048760
H105	H	1.246784	-0.605183	-0.982235
C106	C	1.258425	-0.739100	-0.831627
C107	C	1.311314	-0.743208	-0.927685
H108	H	1.249024	-0.802431	-0.805185
H109	H	1.298398	-0.702452	-0.783164
H110	H	1.191963	-0.709634	-0.841378
H111	H	1.377780	-0.772663	-0.917930
H112	H	1.271351	-0.779864	-0.976145
H113	H	0.919319	-0.352578	-0.384467
H114	H	1.118381	-0.352543	-0.384452
O115	O	1.386088	-0.585978	-1.114921
C116	C	1.400507	-0.572705	-1.223534
H117	H	1.481604	-0.541115	-1.238536
H118	H	1.338218	-0.521324	-1.254681
C119	C	1.291247	-0.709084	-1.261412
C120	C	1.390855	-0.670292	-1.279838
H121	H	1.285288	-0.769279	-1.296144
H122	H	1.281528	-0.718025	-1.188238
H123	H	1.239350	-0.666257	-1.287368
H124	H	1.442748	-0.713113	-1.253870
H125	H	1.400581	-0.661361	-1.353009
