data_functionalizedCrystal
_audit_creation_method	'MofGen! by Chris Wilmer'
_symmetry_space_group_name_H-M	'P1'
_symmetry_Int_Tables_number	1
_symmetry_cell_setting	triclinic
loop_
_symmetry_equiv_pos_as_xyz
  x,y,z
_cell_length_a	11.792241
_cell_length_b	13.448316
_cell_length_c	14.971486
_cell_angle_alpha	90.006811
_cell_angle_beta	96.096228
_cell_angle_gamma	89.997457
loop_
_atom_site_label
_atom_site_type_symbol
_atom_site_fract_x
_atom_site_fract_y
_atom_site_fract_z
O1	O	1.506121	-0.082596	-0.122599
O2	O	1.175699	-0.082619	-0.135234
O3	O	1.349766	-0.082600	0.001248
O4	O	1.332054	-0.082615	-0.259081
O5	O	1.349744	0.082784	0.001256
O6	O	1.175677	0.082765	-0.135226
O7	O	1.506099	0.082788	-0.122591
Cu8	Cu	1.340886	0.097877	-0.128907
Cu9	Cu	1.340912	-0.097708	-0.128917
O10	O	1.332032	0.082769	-0.259073
C11	C	1.133402	0.000070	-0.134436
C12	C	1.007404	0.000061	-0.132061
N13	N	1.340876	0.235442	-0.128900
N14	N	1.340931	-0.235273	-0.128918
C15	C	0.776720	0.000090	-0.127692
C16	C	0.905089	0.000074	-0.130120
C17	C	1.548396	0.000097	-0.123389
C18	C	1.674395	0.000099	-0.125764
C19	C	1.348963	0.000092	0.034580
C20	C	1.346589	0.000091	0.133887
C21	C	1.417977	0.287490	-0.068491
C22	C	1.417984	0.391594	-0.068490
C23	C	1.340895	0.443646	-0.128903
C24	C	1.263786	0.391590	-0.189315
C25	C	1.263774	0.287489	-0.189311
C26	C	1.263817	0.608570	-0.189321
C27	C	1.263830	0.712678	-0.189327
C28	C	1.418027	0.712675	-0.068500
C29	C	1.418016	0.608574	-0.068496
C30	C	1.340908	0.556525	-0.128909
C31	C	1.332835	0.000075	-0.292405
C32	C	1.335209	0.000069	-0.391711
C33	C	1.448849	0.000099	0.190702
C34	C	1.446612	0.000088	0.284011
C35	C	1.342114	0.000078	0.320502
C36	C	1.239846	0.000067	0.263679
C37	C	1.242084	0.000070	0.170372
C38	C	1.235188	0.000063	0.458160
C39	C	1.232949	0.000062	0.551473
C40	C	1.439715	0.000081	0.571798
C41	C	1.441954	0.000085	0.478492
C42	C	1.339685	0.000076	0.421675
H43	H	1.480757	0.245116	-0.019299
O44	O	1.188875	0.558162	-0.248095
C45	C	1.035900	0.569145	-0.367912
C46	C	1.120718	0.626356	-0.301412
H47	H	0.980757	0.624255	-0.411023
H48	H	1.084897	0.520422	-0.412915
H49	H	0.979197	0.520394	-0.328976
H50	H	1.177441	0.675162	-0.340274
H51	H	1.071650	0.675017	-0.256409
O52	O	1.131343	-0.000009	0.586774
C53	C	0.926494	-0.000006	0.556773
C54	C	1.041483	0.000057	0.516676
H55	H	0.853812	0.000068	0.500118
H56	H	0.920232	-0.069239	0.599909
H57	H	0.920316	0.069187	0.599989
H58	H	1.047739	-0.069089	0.473419
H59	H	1.047696	0.069336	0.473592
O60	O	1.142823	0.000197	0.115088
C61	C	1.025304	0.085893	-0.002011
C62	C	1.137773	0.085868	0.060530
H63	H	1.021173	0.155161	-0.046124
H64	H	1.021179	0.016726	-0.046271
H65	H	0.950250	0.085838	0.040115
H66	H	1.212890	0.085959	0.018474
H67	H	1.141798	0.155029	0.104793
H68	H	1.201012	0.433977	-0.238502
O69	O	1.135919	0.000188	0.402877
C70	C	1.018406	0.085899	0.285784
C71	C	1.130876	0.085863	0.348323
H72	H	1.014281	0.155170	0.241674
H73	H	1.014274	0.016735	0.241520
H74	H	0.943353	0.085846	0.327911
H75	H	1.205992	0.085950	0.306267
H76	H	1.134908	0.155021	0.392591
H77	H	1.154761	0.000051	0.293397
O78	O	1.550389	-0.000069	0.155301
C79	C	1.727831	-0.085713	0.144164
C80	C	1.612865	-0.085653	0.184296
H81	H	1.778385	-0.154890	0.167606
H82	H	1.711935	-0.085776	0.067712
H83	H	1.778318	-0.016468	0.167516
H84	H	1.562318	-0.154887	0.161013
H85	H	1.628841	-0.085539	0.260743
O86	O	1.188838	0.237079	-0.248081
C87	C	1.035852	0.248062	-0.367889
C88	C	1.120679	0.305273	-0.301396
H89	H	0.980707	0.303172	-0.410999
H90	H	1.084842	0.199335	-0.412894
H91	H	0.979153	0.199314	-0.328948
H92	H	1.177400	0.354075	-0.340264
H93	H	1.071618	0.353937	-0.256392
O94	O	1.492930	0.442268	-0.009937
C95	C	1.647953	0.559748	0.008259
C96	C	1.563122	0.502436	-0.058152
H97	H	1.704742	0.608391	-0.030698
H98	H	1.598966	0.608567	0.053192
H99	H	1.703008	0.504650	0.051455
H100	H	1.508047	0.557462	-0.101408
H101	H	1.612179	0.453603	-0.103025
O102	O	1.492785	0.558167	-0.009599
C103	C	1.558975	0.526740	0.145671
C104	C	1.474221	0.583793	0.079008
H105	H	1.544011	0.547453	0.217324
H106	H	1.545841	0.443352	0.135507
H107	H	1.649883	0.547229	0.133525
H108	H	1.383279	0.563388	0.091114
H109	H	1.487454	0.667167	0.089187
O110	O	1.545920	-0.000080	0.339235
C111	C	1.663387	-0.085733	0.456393
C112	C	1.550884	-0.085672	0.393892
H113	H	1.667426	-0.154915	0.500613
H114	H	1.738498	-0.085784	0.414324
H115	H	1.667488	-0.016493	0.500557
H116	H	1.546671	-0.154900	0.349716
H117	H	1.475826	-0.085569	0.436015
H118	H	1.480811	0.755059	-0.019310
O119	O	1.543432	0.000271	0.442998
C120	C	1.665903	0.085930	0.349405
C121	C	1.550952	0.085858	0.389560
H122	H	1.672010	0.155109	0.306176
H123	H	1.738660	0.085997	0.406002
H124	H	1.672105	0.016687	0.306259
H125	H	1.544638	0.155090	0.432696
H126	H	1.478249	0.085740	0.332920
H127	H	1.201055	0.755054	-0.238521
O128	O	1.539033	-0.000096	0.627020
C129	C	1.656496	-0.085749	0.744180
C130	C	1.543995	-0.085688	0.681677
H131	H	1.660534	-0.154932	0.788400
H132	H	1.731608	-0.085800	0.702113
H133	H	1.660597	-0.016509	0.788344
H134	H	1.539783	-0.154915	0.637501
H135	H	1.468935	-0.085585	0.723798
