data_functionalizedCrystal
_audit_creation_method	'MofGen! by Chris Wilmer'
_symmetry_space_group_name_H-M	'P1'
_symmetry_Int_Tables_number	1
_symmetry_cell_setting	triclinic
loop_
_symmetry_equiv_pos_as_xyz
  x,y,z
_cell_length_a	14.853567
_cell_length_b	15.944493
_cell_length_c	13.930277
_cell_angle_alpha	90.001318
_cell_angle_beta	89.995755
_cell_angle_gamma	83.554987
loop_
_atom_site_label
_atom_site_type_symbol
_atom_site_fract_x
_atom_site_fract_y
_atom_site_fract_z
O1	O	1.196203	0.109667	-0.079752
O2	O	1.696203	0.609667	0.420248
O3	O	0.933724	0.122731	-0.079767
O4	O	1.433724	0.622731	0.420233
O5	O	1.072158	-0.006071	-0.079767
O6	O	1.572158	0.493929	0.420233
O7	O	1.057769	0.238470	-0.079752
O8	O	1.557769	0.738470	0.420248
O9	O	1.072139	-0.006073	0.079895
O10	O	1.572139	0.493927	0.579895
O11	O	0.933705	0.122729	0.079895
O12	O	1.433705	0.622729	0.579895
O13	O	1.196184	0.109665	0.079910
O14	O	1.696184	0.609665	0.579910
Zn15	Zn	1.064941	0.116196	0.105252
Zn16	Zn	1.564941	0.616196	0.605252
Zn17	Zn	1.064967	0.116200	-0.105109
Zn18	Zn	1.564967	0.616200	0.394891
O19	O	1.057749	0.238467	0.079910
O20	O	1.557749	0.738467	0.579910
C21	C	0.900126	0.122138	0.000062
C22	C	1.400126	0.622138	0.500062
C23	C	0.800045	0.120364	0.000056
C24	C	1.300045	0.620364	0.500056
C25	C	1.071561	-0.037368	0.000060
C26	C	1.571561	0.462632	0.500060
C27	C	1.069797	-0.130618	0.000048
C28	C	1.569797	0.369382	0.500048
C29	C	0.387638	0.036355	0.000072
C30	C	0.887638	0.536355	0.500072
C31	C	0.366127	0.189375	0.000081
C32	C	0.866127	0.689375	0.500081
C33	C	0.460158	0.191042	0.000078
C34	C	0.960158	0.691042	0.500078
C35	C	0.517934	0.115365	0.000070
C36	C	1.017934	0.615365	0.500070
C37	C	0.481678	0.038020	0.000066
C38	C	0.981678	0.538020	0.500066
C39	C	0.496420	0.268386	0.000072
C40	C	0.996420	0.768386	0.500072
C41	C	0.590457	0.270057	0.000068
C42	C	1.090457	0.770057	0.500068
C43	C	0.648235	0.194379	0.000068
C44	C	1.148235	0.694379	0.500068
C45	C	0.611974	0.117031	0.000065
C46	C	1.111974	0.617031	0.500065
C47	C	0.669750	0.041354	0.000057
C48	C	1.169750	0.541354	0.500057
C49	C	0.633491	-0.035995	0.000061
C50	C	1.133491	0.464005	0.500061
C51	C	0.539456	-0.037658	0.000066
C52	C	1.039456	0.462342	0.500066
C53	C	0.742270	0.196041	0.000063
C54	C	1.242270	0.696041	0.500063
C55	C	0.763790	0.043019	0.000051
C56	C	1.263790	0.543019	0.500051
C57	C	1.151283	-0.366287	0.000070
C58	C	1.651283	0.133713	0.500070
C59	C	1.107350	-0.416903	-0.078653
C60	C	1.607350	0.083097	0.421347
C61	C	1.066530	-0.301343	0.000059
C62	C	1.566530	0.198657	0.500059
C63	C	1.107312	-0.416882	0.078761
C64	C	1.607312	0.083118	0.578761
C65	C	1.063381	-0.466256	0.000075
C66	C	1.563381	0.033744	0.500075
C67	C	1.022620	-0.350730	-0.078729
C68	C	1.522620	0.149270	0.421271
C69	C	1.022594	-0.350706	0.078755
C70	C	1.522594	0.149294	0.578755
C71	C	0.978599	-0.401288	0.000013
C72	C	1.478599	0.098712	0.500013
C73	C	1.068347	-0.206341	0.000050
C74	C	1.568347	0.293659	0.500050
C75	C	1.061557	-0.561255	0.000077
C76	C	1.561557	-0.061255	0.500077
C77	C	1.229781	0.110258	0.000079
C78	C	1.729781	0.610258	0.500079
C79	C	1.329862	0.112032	0.000079
C80	C	1.829862	0.612032	0.500079
C81	C	1.058347	0.269764	0.000081
C82	C	1.558347	0.769764	0.500081
C83	C	1.060110	0.363014	0.000087
C84	C	1.560110	0.863014	0.500087
N85	N	1.064931	0.116193	0.248818
N86	N	1.564931	0.616193	0.748818
N87	N	1.064984	0.116196	-0.248675
N88	N	1.564984	0.616196	0.251325
C89	C	1.003665	0.173211	0.701088
C90	C	1.503665	0.673211	1.201088
C91	C	1.126293	0.059182	0.701057
C92	C	1.626293	0.559182	1.201057
C93	C	1.126282	0.059180	0.600561
C94	C	1.626282	0.559180	1.100561
C95	C	1.064963	0.116194	0.550324
C96	C	1.564963	0.616194	1.050324
C97	C	1.003655	0.173212	0.600583
C98	C	1.503655	0.673212	1.100583
C99	C	1.187595	0.002169	0.550295
C100	C	1.687595	0.502169	1.050295
C101	C	1.187588	0.002164	0.449793
C102	C	1.687588	0.502164	0.949793
C103	C	1.126263	0.059176	0.399554
C104	C	1.626263	0.559176	0.899554
C105	C	1.064952	0.116195	0.449819
C106	C	1.564952	0.616195	0.949819
C107	C	1.003633	0.173210	0.399582
C108	C	1.503633	0.673210	0.899582
C109	C	0.942317	0.230226	0.449845
C110	C	1.442317	0.730226	0.949845
C111	C	0.942331	0.230223	0.550344
C112	C	1.442331	0.730223	1.050344
C113	C	1.126250	0.059178	0.299056
C114	C	1.626250	0.559178	0.799056
C115	C	1.003622	0.173211	0.299077
C116	C	1.503622	0.673211	0.799077
H117	H	0.810826	-0.018607	0.000049
H118	H	1.310826	0.481393	0.500049
H119	H	0.680545	-0.097611	0.000049
H120	H	1.180545	0.402389	0.500049
C121	C	0.499564	-0.122734	0.000062
C122	C	0.999564	0.377266	0.500062
N123	N	0.469513	-0.186813	0.000056
N124	N	0.969513	0.313187	0.500056
C125	C	0.874869	0.292941	0.394571
C126	C	1.374869	0.792941	0.894571
N127	N	0.824068	0.340176	0.352935
N128	N	1.324068	0.840176	0.852935
H129	H	0.358112	-0.026621	0.000079
H130	H	0.858112	0.473379	0.500079
H131	H	1.176177	0.012761	0.258136
H132	H	1.676177	0.512761	0.758136
C133	C	1.255029	-0.060560	0.394513
C134	C	1.755029	0.439440	0.894513
N135	N	1.305824	-0.107808	0.352876
N136	N	1.805824	0.392192	0.852876
C137	C	0.782151	0.281120	0.000057
C138	C	1.282151	0.781120	0.500057
N139	N	0.812187	0.345206	0.000056
N140	N	1.312187	0.845206	0.500056
H141	H	1.237524	-0.044247	0.591202
H142	H	1.737524	0.455753	1.091202
H143	H	1.143151	-0.445808	-0.145205
H144	H	1.643151	0.054192	0.354795
C145	C	1.155675	-0.455904	0.168674
C146	C	1.655675	0.044096	0.668674
N147	N	1.192107	-0.485293	0.236394
N148	N	1.692107	0.014707	0.736394
C149	C	0.936188	0.235954	0.243824
C150	C	1.436188	0.735954	0.743824
N151	N	0.885405	0.283222	0.202208
N152	N	1.385405	0.783222	0.702208
C153	C	0.302571	0.272615	0.000089
C154	C	0.802571	0.772615	0.500089
N155	N	0.254696	0.335314	0.000098
N156	N	0.754696	0.835314	0.500098
C157	C	1.249906	-0.345060	-0.000030
C158	C	1.749906	0.154940	0.499970
N159	N	1.324187	-0.329070	-0.000110
N160	N	1.824187	0.170930	0.499890
H161	H	0.905538	-0.416836	-0.000035
H162	H	1.405538	0.083164	0.499965
C163	C	0.432863	0.351625	0.000081
C164	C	0.932863	0.851625	0.500081
N165	N	0.384986	0.414323	0.000092
N166	N	0.884986	0.914323	0.500092
C167	C	0.974316	-0.311853	-0.168746
C168	C	1.474316	0.188147	0.331254
N169	N	0.937937	-0.282568	-0.236547
N170	N	1.437937	0.217432	0.263453
H171	H	0.892410	0.276644	0.591274
H172	H	1.392410	0.776644	1.091274
H173	H	0.619970	0.333039	0.000065
H174	H	1.119970	0.833039	0.500065
H175	H	0.953740	0.219630	0.742014
H176	H	1.453740	0.719630	1.242014
C177	C	0.974267	-0.311641	0.168670
C178	C	1.474267	0.188359	0.668670
N179	N	0.937871	-0.282220	0.236401
N180	N	1.437871	0.217780	0.736401
H181	H	1.176221	0.012766	0.741963
H182	H	1.676221	0.512766	1.241963
