data_functionalizedCrystal
_audit_creation_method	'MofGen! by Chris Wilmer'
_symmetry_space_group_name_H-M	'P1'
_symmetry_Int_Tables_number	1
_symmetry_cell_setting	triclinic
loop_
_symmetry_equiv_pos_as_xyz
  x,y,z
_cell_length_a	17.699104
_cell_length_b	14.853567
_cell_length_c	16.776229
_cell_angle_alpha	89.995834
_cell_angle_beta	89.992410
_cell_angle_gamma	83.463224
loop_
_atom_site_label
_atom_site_type_symbol
_atom_site_fract_x
_atom_site_fract_y
_atom_site_fract_z
O1	O	0.098816	1.196013	-0.066235
O2	O	0.110587	0.933511	-0.066249
O3	O	-0.005468	1.072169	-0.066234
O4	O	0.214870	1.057355	-0.066249
O5	O	-0.005475	1.072150	0.066342
O6	O	0.110580	0.933493	0.066328
O7	O	0.098809	1.195995	0.066342
Zn8	Zn	0.104693	1.064741	0.087384
Zn9	Zn	0.104702	1.064765	-0.087291
O10	O	0.214863	1.057337	0.066327
C11	C	0.110050	0.899915	0.000038
C12	C	0.108452	0.799837	0.000033
C13	C	-0.033669	1.071625	0.000054
C14	C	-0.117691	1.070023	0.000054
C15	C	-0.642374	1.142378	0.000035
C16	C	-0.563426	1.143878	0.000043
C17	C	-0.515020	1.062481	0.000040
C18	C	-0.545565	0.979578	0.000039
C19	C	-0.624511	0.978080	0.000037
C20	C	-0.227183	0.985621	0.000046
C21	C	-0.148232	0.987126	0.000045
C22	C	-0.166098	1.151420	0.000051
C23	C	-0.245044	1.149921	0.000050
C24	C	-0.275583	1.067019	0.000052
C25	C	-0.361187	1.065394	0.000046
C26	C	-0.429417	1.064105	0.000041
C27	C	0.032757	0.387575	0.000056
C28	C	0.170632	0.365799	0.000045
C29	C	0.172135	0.459827	0.000043
C30	C	0.103947	0.517734	0.000045
C31	C	0.034257	0.481613	0.000051
C32	C	0.241824	0.495956	0.000030
C33	C	0.243329	0.589990	0.000026
C34	C	0.175141	0.647898	0.000034
C35	C	0.105448	0.611772	0.000040
C36	C	0.037261	0.669678	0.000043
C37	C	-0.032433	0.633553	0.000055
C38	C	-0.033931	0.539521	0.000059
C39	C	0.176639	0.741930	0.000030
C40	C	0.038762	0.763716	0.000038
C41	C	0.243065	1.057880	0.000037
C42	C	0.327086	1.059482	0.000031
C43	C	0.099346	1.229591	0.000053
C44	C	0.100944	1.329668	0.000053
N45	N	0.104686	1.064731	0.206595
N46	N	0.104703	1.064782	-0.206502
C47	C	0.053318	1.126147	0.248319
C48	C	0.053318	1.126152	0.331771
C49	C	0.104689	1.064744	0.373498
C50	C	0.156059	1.003322	0.331769
C51	C	0.156056	1.003313	0.248318
C52	C	0.156074	1.003354	0.668316
C53	C	0.156075	1.003369	0.751773
C54	C	0.053336	1.126193	0.751769
C55	C	0.053333	1.126185	0.668318
C56	C	0.104700	1.064759	0.626596
C57	C	0.104699	1.064753	0.536108
C58	C	0.104694	1.064754	0.463985
H59	H	-0.538565	1.211380	0.000047
O60	O	-0.136307	1.231875	0.000092
C61	C	-0.056248	1.215751	0.000076
H62	H	-0.037791	1.145355	0.025176
H63	H	-0.031956	1.268784	0.038568
H64	H	-0.034258	1.220076	-0.063527
O65	O	-0.292096	1.228967	-0.000090
C66	C	-0.338300	1.233016	-0.068743
H67	H	-0.309435	1.186858	-0.116737
H68	H	-0.347092	1.305658	-0.091786
H69	H	-0.395735	1.209807	-0.053222
H70	H	-0.016766	0.810858	0.000043
H71	H	0.011504	1.176191	0.634346
H72	H	-0.090672	0.510099	0.000087
O73	O	0.003355	1.185731	0.792337
C74	C	-0.043401	1.137560	0.840636
H75	H	-0.044791	1.066467	0.815497
H76	H	-0.103502	1.174473	0.841588
H77	H	-0.019721	1.132788	0.903879
H78	H	-0.023986	0.358158	0.000068
H79	H	-0.087951	0.680713	0.000051
H80	H	0.226147	0.318646	0.000037
H81	H	0.197884	0.953301	0.214348
H82	H	0.197900	0.953341	0.634352
O83	O	0.308004	0.439614	-0.000079
C84	C	0.311268	0.384581	-0.068745
H85	H	0.251188	0.379956	-0.091630
H86	H	0.339380	0.313846	-0.053297
H87	H	0.345872	0.415436	-0.116832
H88	H	0.233382	0.771339	0.000022
H89	H	-0.108820	0.920839	0.000044
H90	H	0.300078	0.619394	0.000016
O91	O	0.003343	1.185834	0.207912
C92	C	-0.041984	1.240056	0.262638
H93	H	-0.042892	1.203102	0.322129
H94	H	-0.102408	1.253937	0.238537
H95	H	-0.017305	1.306972	0.271499
O96	O	0.003346	1.185694	0.372332
C97	C	-0.043418	1.137533	0.420633
H98	H	-0.044811	1.066438	0.395500
H99	H	-0.103517	1.174452	0.421578
H100	H	-0.019741	1.132767	0.483878
O101	O	0.205934	0.943757	0.372424
C102	C	0.194912	0.956919	0.455027
H103	H	0.166736	1.028654	0.466419
H104	H	0.252216	0.946769	0.486731
H105	H	0.156874	0.905979	0.478726
O106	O	0.206004	0.943622	0.792184
C107	C	0.251353	0.889416	0.737466
H108	H	0.220320	0.888459	0.677984
H109	H	0.262780	0.817401	0.761591
H110	H	0.307627	0.918554	0.728576
H111	H	-0.252037	0.918118	0.000038
H112	H	-0.506146	0.913304	0.000041
O113	O	-0.689424	1.221425	-0.000104
C114	C	-0.735628	1.225476	-0.068757
H115	H	-0.706763	1.179317	-0.116751
H116	H	-0.744418	1.298118	-0.091800
H117	H	-0.793063	1.202269	-0.053237
H118	H	-0.649375	0.910577	0.000040
