data_functionalizedCrystal
_audit_creation_method	'MofGen! by Chris Wilmer'
_symmetry_space_group_name_H-M	'P1'
_symmetry_Int_Tables_number	1
_symmetry_cell_setting	triclinic
loop_
_symmetry_equiv_pos_as_xyz
  x,y,z
_cell_length_a	16.120530
_cell_length_b	18.101395
_cell_length_c	18.101389
_cell_angle_alpha	90.020787
_cell_angle_beta	92.913729
_cell_angle_gamma	87.126665
loop_
_atom_site_label
_atom_site_type_symbol
_atom_site_fract_x
_atom_site_fract_y
_atom_site_fract_z
Zn1	Zn	1.274469	-0.352368	0.476079
Zn2	Zn	1.274356	-0.476197	0.352235
Zn3	Zn	1.135060	-0.346090	0.345979
Zn4	Zn	1.134999	-0.469881	0.469766
O5	O	1.204721	-0.411134	0.411015
O6	O	1.391119	-0.374064	0.464911
O7	O	1.255857	-0.458954	0.247772
O8	O	1.153625	-0.243293	0.363261
O9	O	1.391036	-0.465041	0.373923
O10	O	1.256048	-0.247905	0.458844
O11	O	1.153516	-0.363365	0.243175
O12	O	1.018387	-0.357241	0.357140
O13	O	1.153522	-0.454276	0.574237
O14	O	1.018343	-0.448189	0.448085
O15	O	1.255990	-0.367940	0.578875
O16	O	1.255798	-0.578989	0.367802
O17	O	1.153413	-0.574348	0.454152
C18	C	0.988115	-0.401349	0.401249
C19	C	0.895450	-0.397181	0.397089
C20	C	0.725790	-0.389553	0.389500
C21	C	0.684493	-0.432769	0.432584
C22	C	0.590088	-0.428525	0.428361
C23	C	0.820203	-0.393796	0.393722
C24	C	1.204610	-0.603539	0.410988
C25	C	1.204638	-0.685855	0.411005
C26	C	1.204821	-0.984954	0.411053
C27	C	1.140553	-0.950747	0.465530
C28	C	1.140247	-0.865115	0.465337
C29	C	1.204730	-0.836567	0.411030
C30	C	1.180947	-0.866637	0.331910
C31	C	1.180533	-0.952264	0.332235
C32	C	1.293013	-0.957278	0.435014
C33	C	1.292495	-0.871604	0.436703
C34	C	1.204680	-0.752706	0.411012
C35	C	1.204869	-1.068816	0.411065
C36	C	1.422173	-0.420958	0.420819
C37	C	1.514838	-0.425144	0.424997
C38	C	1.204762	-0.411104	0.604179
C39	C	1.204779	-0.411091	0.686494
C40	C	1.204856	-0.217978	0.411059
C41	C	1.204913	-0.135667	0.411078
C42	C	1.204728	-0.411113	0.218605
C43	C	1.204873	-0.410924	0.136297
C44	C	1.204811	-0.411035	0.837203
C45	C	1.140351	-0.465344	0.865640
C46	C	1.140116	-0.465132	0.951247
C47	C	1.204841	-0.410980	0.985588
C48	C	1.181328	-0.331825	0.953445
C49	C	1.180842	-0.332166	0.867778
C50	C	1.292953	-0.435194	0.872737
C51	C	1.292498	-0.436863	0.958367
C52	C	1.204860	-0.410945	1.069448
C53	C	1.204790	-0.411065	0.753343
H54	H	0.720038	-0.472953	0.472641
Br55	Br	1.032108	-0.438434	0.824904
H56	H	0.690247	-0.349372	0.349446
Br57	Br	1.164575	-0.562742	0.987382
H58	H	1.155127	-0.844729	0.523879
Br59	Br	1.376532	-0.839692	0.375923
H60	H	1.155284	-0.971966	0.524253
Br61	Br	1.074632	-0.826201	0.298389
Br62	Br	1.032262	-0.981857	0.438883
Br63	Br	1.031290	-0.826151	0.438367
Br64	Br	1.073083	-0.980824	0.299171
Br65	Br	1.255158	-0.990156	0.261916
Br66	Br	1.256511	-0.836091	0.262120
H67	H	1.225767	-0.290092	0.849070
H68	H	1.314698	-0.979811	0.491934
H69	H	1.310430	-0.852056	0.494950
H70	H	1.226849	-0.290066	0.975850
H71	H	1.340896	-0.979683	0.395385
H72	H	1.154846	-0.524096	0.845697
Br73	Br	1.031264	-0.437930	0.980505
Br74	Br	1.073473	-0.298860	0.829647
Br75	Br	1.075152	-0.298051	0.984415
Br76	Br	1.328711	-0.530142	0.838350
Br77	Br	1.322063	-0.533991	0.993555
H78	H	1.343079	-0.400517	0.982039
H79	H	1.340975	-0.395684	0.854638
