data_functionalizedCrystal
_audit_creation_method	'MofGen! by Chris Wilmer'
_symmetry_space_group_name_H-M	'P1'
_symmetry_Int_Tables_number	1
_symmetry_cell_setting	triclinic
loop_
_symmetry_equiv_pos_as_xyz
  x,y,z
_cell_length_a	12.996460
_cell_length_b	14.971486
_cell_length_c	14.971486
_cell_angle_alpha	83.614129
_cell_angle_beta	90.006353
_cell_angle_gamma	90.000625
loop_
_atom_site_label
_atom_site_type_symbol
_atom_site_fract_x
_atom_site_fract_y
_atom_site_fract_z
O1	O	-0.085449	-1.186946	-0.116564
O2	O	0.247884	-0.853613	0.216769
O3	O	0.581218	-0.520279	0.550102
O4	O	-0.085477	-0.926546	-0.130523
O5	O	0.247856	-0.593212	0.202810
O6	O	0.581190	-0.259879	0.536144
O7	O	-0.085455	-1.063725	0.006656
O8	O	0.247878	-0.730392	0.339990
O9	O	0.581212	-0.397059	0.673323
O10	O	-0.085471	-1.049766	-0.253744
O11	O	0.247862	-0.716433	0.079590
O12	O	0.581196	-0.383100	0.412923
O13	O	0.085679	-1.063711	0.006664
O14	O	0.419012	-0.730378	0.339997
O15	O	0.752345	-0.397044	0.673331
O16	O	0.085657	-0.926531	-0.130516
O17	O	0.418990	-0.593198	0.202818
O18	O	0.752323	-0.259865	0.536151
O19	O	0.085685	-1.186932	-0.116557
O20	O	0.419018	-0.853598	0.216777
O21	O	0.752351	-0.520265	0.550110
Cu22	Cu	0.101297	-1.056730	-0.123535
Cu23	Cu	0.434630	-0.723397	0.209798
Cu24	Cu	0.767963	-0.390064	0.543131
Cu25	Cu	-0.101089	-1.056747	-0.123544
Cu26	Cu	0.232244	-0.723414	0.209789
Cu27	Cu	0.565578	-0.390080	0.543122
O28	O	0.085663	-1.049752	-0.253736
O29	O	0.418996	-0.716419	0.079597
O30	O	0.752329	-0.383085	0.412930
C31	C	0.000086	-0.893214	-0.129895
C32	C	0.333420	-0.559881	0.203438
C33	C	0.666753	-0.226547	0.536772
C34	C	0.000076	-0.793917	-0.128024
C35	C	0.333409	-0.460583	0.205309
C36	C	0.666742	-0.127250	0.538642
N37	N	0.243644	-1.056725	-0.123529
N38	N	0.576977	-0.723392	0.209805
N39	N	0.910310	-0.390058	0.543138
N40	N	-0.243436	-1.056760	-0.123544
N41	N	0.089897	-0.723426	0.209789
N42	N	0.423231	-0.390093	0.543122
C43	C	0.663458	-1.056746	-0.123545
C44	C	0.996791	-0.723413	0.209788
C45	C	1.330125	-0.390079	0.543121
C46	C	0.546653	-1.056737	-0.123544
C47	C	0.879986	-0.723404	0.209790
C48	C	1.213320	-0.390071	0.543123
C49	C	0.453555	-1.056736	-0.123538
C50	C	0.786888	-0.723402	0.209796
C51	C	1.120221	-0.390069	0.543129
C52	C	0.336742	-1.056726	-0.123535
C53	C	0.670075	-0.723393	0.209799
C54	C	1.003409	-0.390060	0.543132
C55	C	0.000112	-1.063094	0.039985
C56	C	0.333445	-0.729761	0.373318
C57	C	0.666778	-0.396427	0.706652
C58	C	0.000110	-1.061223	0.139282
C59	C	0.333444	-0.727890	0.472615
C60	C	0.666777	-0.394556	0.805949
C61	C	0.000119	-1.220263	-0.117185
C62	C	0.333452	-0.886930	0.216149
C63	C	0.666786	-0.553597	0.549482
C64	C	0.000123	-1.319561	-0.119056
C65	C	0.333456	-0.986227	0.214278
C66	C	0.666790	-0.652894	0.547611
C67	C	0.000072	-0.736692	-0.208614
C68	C	0.333406	-0.403358	0.124720
C69	C	0.666739	-0.070025	0.458053
C70	C	0.000088	-0.643392	-0.206850
C71	C	0.333421	-0.310059	0.126483
C72	C	0.666754	0.023275	0.459816
C73	C	0.000099	-0.607320	-0.124497
C74	C	0.333433	-0.273986	0.208836
C75	C	0.666766	0.059347	0.542169
C76	C	0.000106	-0.664552	-0.043902
C77	C	0.333439	-0.331219	0.289431
C78	C	0.666773	0.002114	0.622765
C79	C	0.000098	-0.757850	-0.045666
C80	C	0.333431	-0.424517	0.287667
C81	C	0.666764	-0.091183	0.621001
C82	C	0.000120	-0.470090	-0.040231
C83	C	0.333454	-0.136757	0.293103
C84	C	0.666787	0.196577	0.626436
C85	C	0.000126	-0.376786	-0.038466
C86	C	0.333460	-0.043453	0.294867
C87	C	0.666793	0.289881	0.628200
C88	C	0.000110	-0.355632	-0.201415
C89	C	0.333443	-0.022299	0.131918
C90	C	0.666777	0.311035	0.465251
C91	C	0.000102	-0.448930	-0.203179
C92	C	0.333435	-0.115596	0.130154
C93	C	0.666769	0.217737	0.463487
C94	C	0.000107	-0.506156	-0.122584
C95	C	0.333440	-0.172822	0.210750
C96	C	0.666773	0.160511	0.544083
C97	C	0.000094	-1.050384	-0.287065
C98	C	0.333427	-0.717050	0.046269
C99	C	0.666761	-0.383717	0.379602
C100	C	0.000088	-1.052254	-0.386362
C101	C	0.333422	-0.718921	-0.053028
C102	C	0.666755	-0.385588	0.280305
C103	C	0.000120	-1.141812	0.196507
C104	C	0.333453	-0.808479	0.529841
C105	C	0.666787	-0.475146	0.863174
C106	C	0.000109	-1.140049	0.289807
C107	C	0.333443	-0.806716	0.623140
C108	C	0.666776	-0.473383	0.956473
C109	C	0.000097	-1.057696	0.325879
C110	C	0.333430	-0.724363	0.659212
C111	C	0.666763	-0.391029	0.992546
C112	C	0.000084	-0.977101	0.268646
C113	C	0.333418	-0.643767	0.601980
C114	C	0.666751	-0.310434	0.935313
C115	C	0.000087	-0.978865	0.175349
C116	C	0.333421	-0.645531	0.508682
C117	C	0.666754	-0.312198	0.842015
C118	C	0.000080	-0.973430	0.463109
C119	C	0.333413	-0.640096	0.796442
C120	C	0.666747	-0.306763	1.129776
C121	C	0.000079	-0.971665	0.556413
C122	C	0.333412	-0.638332	0.889746
C123	C	0.666745	-0.304998	1.223080
C124	C	0.000102	-1.134614	0.577567
C125	C	0.333435	-0.801281	0.910900
C126	C	0.666769	-0.467947	1.244233
C127	C	0.000105	-1.136378	0.484269
C128	C	0.333439	-0.803045	0.817603
C129	C	0.666772	-0.469712	1.150936
C130	C	0.000095	-1.055782	0.427043
C131	C	0.333428	-0.722449	0.760376
C132	C	0.666761	-0.389116	1.093710
H133	H	0.000062	-0.766054	-0.275675
H134	H	0.333395	-0.432720	0.057658
H135	H	0.666729	-0.099387	0.390992
Br136	Br	0.000132	-0.547754	0.069150
Br137	Br	0.333465	-0.214421	0.402484
Br138	Br	0.666799	0.118913	0.735817
Br139	Br	0.000062	-0.864048	0.385445
Br140	Br	0.333395	-0.530715	0.718778
Br141	Br	0.666729	-0.197382	1.052112
Br142	Br	0.000071	-0.497885	-0.314946
Br143	Br	0.333404	-0.164552	0.018388
Br144	Br	0.666737	0.168782	0.351721
H145	H	0.000085	-0.904606	0.585780
H146	H	0.333418	-0.571273	0.919113
H147	H	0.666752	-0.237939	1.252446
H148	H	0.000137	-0.347419	0.028593
H149	H	0.333471	-0.014086	0.361926
H150	H	0.666804	0.319247	0.695260
H151	H	0.000111	-0.309033	-0.267039
H152	H	0.333444	0.024300	0.066294
H153	H	0.666778	0.357633	0.399627
H154	H	0.000100	-0.804443	0.019958
H155	H	0.333433	-0.471109	0.353292
H156	H	0.666767	-0.137776	0.686625
Br157	Br	0.000114	-1.243995	0.655229
Br158	Br	0.333448	-0.910661	0.988563
Br159	Br	0.666781	-0.577328	1.321896
Br160	Br	0.000122	-1.249425	0.367467
Br161	Br	0.333455	-0.916092	0.700801
Br162	Br	0.666789	-0.582759	1.034134
Br163	Br	0.000120	-1.248144	0.435314
Br164	Br	0.333453	-0.914811	0.768647
Br165	Br	0.666786	-0.581478	1.101981
H166	H	0.000130	-0.635175	0.023152
H167	H	0.333463	-0.301842	0.356485
H168	H	0.666797	0.031492	0.689818
H169	H	0.000136	-1.208874	0.167145
H170	H	0.333470	-0.875541	0.500478
H171	H	0.666803	-0.542207	0.833812
H172	H	0.000067	-0.910047	0.298024
H173	H	0.333401	-0.576714	0.631357
H174	H	0.666734	-0.243380	0.964690
H175	H	0.000084	-0.596802	-0.272474
H176	H	0.333417	-0.263469	0.060859
H177	H	0.666750	0.069864	0.394192
Br178	Br	0.000066	-0.869489	0.097684
Br179	Br	0.333400	-0.536156	0.431017
Br180	Br	0.666733	-0.202823	0.764351
