data_functionalizedCrystal
_audit_creation_method	'MofGen! by Chris Wilmer'
_symmetry_space_group_name_H-M	'P1'
_symmetry_Int_Tables_number	1
_symmetry_cell_setting	triclinic
loop_
_symmetry_equiv_pos_as_xyz
  x,y,z
_cell_length_a	11.792254
_cell_length_b	17.000371
_cell_length_c	10.268362
_cell_angle_alpha	89.994238
_cell_angle_beta	89.995475
_cell_angle_gamma	79.898923
loop_
_atom_site_label
_atom_site_type_symbol
_atom_site_fract_x
_atom_site_fract_y
_atom_site_fract_z
O1	O	1.495055	0.109095	-0.108300
O2	O	1.163497	0.120323	-0.108303
O3	O	1.349863	-0.001068	-0.108292
O4	O	1.308689	0.230485	-0.108311
O5	O	1.349848	-0.001073	0.108309
O6	O	1.163482	0.120317	0.108298
O7	O	1.495040	0.109090	0.108301
Cu8	Cu	1.329260	0.114703	0.128077
Cu9	Cu	1.329277	0.114709	-0.128079
O10	O	1.308674	0.230480	0.108290
C11	C	1.121276	0.119613	-0.000003
C12	C	0.995492	0.117496	-0.000004
C13	C	1.352067	-0.030715	0.000008
C14	C	1.358643	-0.119045	0.000007
C15	C	0.893343	0.115776	-0.000009
C16	C	0.765190	0.113625	-0.000010
C17	C	1.257443	-0.151510	0.000000
C18	C	1.263629	-0.234506	0.000004
C19	C	1.371016	-0.285036	0.000005
C20	C	1.472224	-0.252565	0.000015
C21	C	1.466037	-0.169570	0.000021
C22	C	1.394915	-0.536078	-0.000004
C23	C	1.401094	-0.619077	-0.000014
C24	C	1.192498	-0.601013	-0.000023
C25	C	1.186321	-0.518018	-0.000025
C26	C	1.287528	-0.485554	-0.000007
C27	C	1.377342	-0.369871	0.000004
C28	C	1.281202	-0.400720	0.000002
C29	C	1.537262	0.109799	-0.000002
C30	C	1.663045	0.111916	-0.000010
C31	C	1.306470	0.260127	-0.000013
C32	C	1.299894	0.348457	-0.000020
N33	N	1.329256	0.114698	0.308243
N34	N	1.329291	0.114707	-0.308245
C35	C	1.329272	0.114707	0.573913
C36	C	1.329259	0.114705	0.426075
H37	H	1.169997	-0.110374	-0.000007
N38	N	1.154478	-0.269524	0.000022
H39	H	1.085511	-0.224920	0.000021
H40	H	1.152497	-0.303566	-0.080268
H41	H	1.098874	-0.476881	-0.000029
H42	H	1.110100	-0.627454	-0.000035
H43	H	1.488546	-0.660218	-0.000022
H44	H	1.477325	-0.509657	0.000007
N45	N	1.588051	-0.307060	0.000033
H46	H	1.576617	-0.364564	0.000027
H47	H	1.632525	-0.296490	-0.080258
N48	N	1.575188	-0.134550	0.000037
H49	H	1.644157	-0.179152	0.000035
H50	H	1.577173	-0.100500	-0.080254
N51	N	1.165388	-0.346216	0.000001
H52	H	1.120872	-0.356698	-0.080298
H53	H	1.120946	-0.356736	0.080343
N54	N	1.493158	-0.424380	-0.000011
H55	H	1.537682	-0.413883	-0.080307
H56	H	1.537590	-0.413872	0.080334
