data_functionalizedCrystal
_audit_creation_method	'MofGen! by Chris Wilmer'
_symmetry_space_group_name_H-M	'P1'
_symmetry_Int_Tables_number	1
_symmetry_cell_setting	triclinic
loop_
_symmetry_equiv_pos_as_xyz
  x,y,z
_cell_length_a	15.698487
_cell_length_b	14.809374
_cell_length_c	14.809374
_cell_angle_alpha	60.797835
_cell_angle_beta	89.999658
_cell_angle_gamma	67.426642
loop_
_atom_site_label
_atom_site_type_symbol
_atom_site_fract_x
_atom_site_fract_y
_atom_site_fract_z
Zr1	Zr	0.940906	0.955222	-0.203689
O2	O	0.836558	1.113140	-0.350847
O3	O	0.958121	0.777456	-0.145613
O4	O	0.992965	0.926604	-0.332153
O5	O	0.791032	0.993488	-0.031908
O6	O	1.133147	0.926607	-0.332156
O7	O	0.801713	0.963992	-0.164306
O8	O	1.070817	0.659808	0.001531
O9	O	0.853363	1.260287	-0.365595
O10	O	1.087927	0.857927	-0.136510
O11	O	0.975340	0.879937	-0.037700
O12	O	1.016365	1.055539	-0.257328
O13	O	0.903777	1.077549	-0.158519
Zr14	Zr	1.147444	1.002269	0.007467
Zr15	Zr	1.164479	0.955227	-0.203693
Zr16	Zr	0.923870	1.002264	0.007471
Zr17	Zr	0.967707	1.189903	-0.227211
Zr18	Zr	1.120642	0.767587	0.030988
O19	O	1.130228	1.180035	-0.050610
O20	O	1.154451	1.113147	-0.350852
O21	O	0.812336	1.180028	-0.050605
O22	O	1.251791	0.844350	0.154624
O23	O	1.276014	0.777463	-0.145618
O24	O	0.933899	0.844343	0.154630
O25	O	1.297317	0.964003	-0.164315
O26	O	1.095384	1.030887	0.135931
O27	O	0.955202	1.030883	0.135933
O28	O	1.286636	0.993498	-0.031916
O29	O	1.031074	1.260291	-0.365598
O30	O	1.057276	0.697200	0.169375
O31	O	1.234987	0.697204	0.169372
O32	O	1.248528	0.659812	0.001528
O33	O	0.839822	1.297679	-0.197751
O34	O	1.017533	1.297683	-0.197754
O35	O	1.071984	0.901951	0.061105
O36	O	1.184572	0.879941	-0.037704
O37	O	1.113009	1.077554	-0.158522
O38	O	1.000422	1.099564	-0.059713
C39	C	1.010650	0.685195	-0.068689
C40	C	0.999272	0.585566	-0.058704
C41	C	1.050050	0.530230	-0.103268
C42	C	1.038292	0.427259	-0.092949
C43	C	0.764518	0.978739	-0.098107
C44	C	0.669605	0.978737	-0.098105
C45	C	0.495823	0.978757	-0.098117
C46	C	0.592526	0.978751	-0.098113
C47	C	1.323831	0.978751	-0.098116
C48	C	1.418744	0.978753	-0.098118
C49	C	1.065483	0.919903	-0.362240
C50	C	1.072715	0.899932	-0.451883
C51	C	1.077699	1.272296	-0.127533
C52	C	1.089077	1.371924	-0.137519
C53	C	1.040440	0.989058	-0.551783
C54	C	1.047914	0.968420	-0.644435
C55	C	1.022866	1.037587	0.166018
C56	C	1.015634	1.057558	0.255660
C57	C	1.290307	0.685201	-0.068694
C58	C	1.373841	0.585574	-0.058710
C59	C	0.989341	0.744037	0.195439
C60	C	0.970731	0.664379	0.295068
C61	C	1.268998	0.744043	0.195435
C62	C	1.345301	0.664387	0.295062
C63	C	0.819352	1.213447	-0.391657
C64	C	0.743049	1.293103	-0.491284
C65	C	0.798043	1.272290	-0.127528
C66	C	0.714508	1.371916	-0.137512
C67	C	1.099008	1.213454	-0.391662
C68	C	1.117618	1.293111	-0.491291
C69	C	1.362623	0.527296	-0.105606
C70	C	1.441108	0.433695	-0.096246
C71	C	1.530808	0.398369	-0.039984
C72	C	1.542025	0.456658	0.006913
C73	C	1.463543	0.550262	-0.002454
C74	C	1.012439	0.638464	0.393439
C75	C	0.994949	0.563632	0.487057
C76	C	0.935758	0.514710	0.482303
C77	C	0.894046	0.540631	0.383921
C78	C	0.911530	0.615469	0.290304
C79	C	1.439912	0.615491	0.290270
C80	C	1.511617	0.540657	0.383871
C81	C	1.488709	0.514715	0.482262
C82	C	1.394088	0.563620	0.487051
C83	C	1.322385	0.638458	0.393451
C84	C	0.648438	1.342011	-0.486494
C85	C	0.576736	1.416874	-0.580097
C86	C	0.599646	1.442821	-0.678489
C87	C	0.694266	1.393910	-0.683278
C88	C	0.765967	1.319055	-0.589676
C89	C	0.725728	1.430203	-0.090626
C90	C	0.647248	1.523824	-0.100012
C91	C	0.557548	1.559152	-0.156278
C92	C	0.546331	1.500860	-0.203170
C93	C	0.624811	1.407246	-0.193790
C94	C	1.176814	1.342011	-0.486502
C95	C	1.194318	1.416848	-0.580104
C96	C	1.152620	1.442789	-0.678494
C97	C	1.093421	1.393881	-0.683281
C98	C	1.075923	1.319039	-0.589679
H99	H	0.947096	0.556706	-0.012909
O100	O	0.857846	1.271740	-0.594495
C101	C	0.884870	1.360071	-0.656453
H102	H	0.819027	1.443361	-0.712295
H103	H	0.934175	1.334825	-0.705140
H104	H	0.923260	1.373455	-0.602029
H105	H	1.588656	0.500844	0.379953
H106	H	0.656399	1.571272	-0.061821
O107	O	1.217375	1.316612	-0.390858
C108	C	1.274873	1.196988	-0.325917
H109	H	1.249972	1.150125	-0.354099
H110	H	1.269411	1.166543	-0.239996
H111	H	1.351729	1.177565	-0.331143
H112	H	0.629766	1.320889	-0.406386
H113	H	1.547103	0.453774	0.558470
O114	O	1.035370	0.538372	0.582700
C115	C	1.007268	0.461812	0.664321
H116	H	0.937909	0.469867	0.629977
H117	H	0.996655	0.483895	0.728503
H118	H	1.064515	0.369769	0.700485
O119	O	0.975929	1.166882	-0.764700
C120	C	0.881463	1.225086	-0.823591
H121	H	0.872520	1.182229	-0.866901
H122	H	0.864013	1.318837	-0.884091
H123	H	0.831469	1.221259	-0.767404
O124	O	1.462115	0.640838	0.194650
C125	C	1.433009	0.760450	0.129656
H126	H	1.374141	0.807374	0.157771
H127	H	1.405543	0.790842	0.043740
H128	H	1.495803	0.779858	0.134900
H129	H	1.615070	0.427882	0.052721
O130	O	0.481408	1.650077	-0.165238
C131	C	0.510561	1.693954	-0.111804
H132	H	0.579105	1.623993	-0.049047
H133	H	0.453065	1.722754	-0.071757
H134	H	0.523088	1.770595	-0.171399
H135	H	1.375448	0.542486	0.567174
O136	O	0.529937	1.515378	-0.769363
C137	C	0.464941	1.469667	-0.764591
H138	H	0.501156	1.372499	-0.706169
H139	H	0.439325	1.488944	-0.846845
H140	H	0.401785	1.510596	-0.736901
O141	O	0.918622	0.442160	0.573202
C142	C	0.820528	0.487844	0.568474
H143	H	0.786345	0.585009	0.510034
H144	H	0.808902	0.468584	0.650733
H145	H	0.787015	0.446880	0.540833
O146	O	1.251806	1.464299	-0.575256
C147	C	1.284859	1.425339	-0.468339
H148	H	1.233985	1.396775	-0.419575
H149	H	1.288984	1.498175	-0.463629
H150	H	1.358333	1.349565	-0.435358
O151	O	1.087420	0.859225	-0.624398
C152	C	1.086002	0.862924	-0.721364
H153	H	1.027943	0.949037	-0.786963
H154	H	1.071297	0.789932	-0.713132
H155	H	1.157618	0.852793	-0.742407
O156	O	0.459119	1.535298	-0.257742
C157	C	0.392271	1.630437	-0.255975
H158	H	0.419673	1.630574	-0.184777
H159	H	0.322153	1.624165	-0.249287
H160	H	0.380931	1.713503	-0.332429
O161	O	1.474603	0.606702	0.043219
C162	C	1.570610	0.555456	0.094863
H163	H	1.606497	0.462858	0.114558
H164	H	1.575169	0.555988	0.171416
H165	H	1.607798	0.606082	0.040377
O166	O	1.230522	0.685803	0.398308
C167	C	1.225694	0.646868	0.505223
H168	H	1.290828	0.562005	0.559634
H169	H	1.158957	0.633325	0.518603
H170	H	1.223389	0.713789	0.523888
O171	O	0.716545	1.418854	-0.778805
C172	C	0.760924	1.316510	-0.779532
H173	H	0.793418	1.239803	-0.694314
H174	H	0.819046	1.320726	-0.825370
H175	H	0.706197	1.306241	-0.819499
H176	H	1.431956	0.386246	-0.134436
H177	H	1.007279	1.080641	-0.568718
H178	H	1.105884	0.808350	-0.434948
O179	O	1.169789	1.515392	-0.769332
C180	C	1.267883	1.469659	-0.764593
H181	H	1.308786	1.407547	-0.677955
H182	H	1.289867	1.542698	-0.803579
H183	H	1.284319	1.421756	-0.808413
O184	O	1.052957	1.419254	-0.778953
C185	C	1.081117	1.495781	-0.860528
H186	H	1.103265	1.544007	-0.831780
H187	H	1.019348	1.560085	-0.933376
H188	H	1.143507	1.445133	-0.882392
H189	H	1.027717	1.279232	-0.593593
O190	O	0.836419	0.493276	0.379250
C191	C	0.745415	0.581563	0.317266
H192	H	0.734583	0.662716	0.316284
H193	H	0.689373	0.552961	0.352871
H194	H	0.738700	0.600402	0.232524
O195	O	0.613996	1.350434	-0.239160
C196	C	0.641952	1.234030	-0.159789
H197	H	0.692732	1.209443	-0.087932
H198	H	0.679004	1.177183	-0.192343
H199	H	0.576727	1.221337	-0.134912
H200	H	1.289594	0.556052	-0.151433
H201	H	0.877567	0.636556	0.210211
H202	H	0.499698	1.456685	-0.576178
H203	H	1.102233	0.559082	-0.149056
H204	H	0.798758	1.401449	-0.044803
H205	H	1.060636	0.678291	0.397330
O206	O	0.976170	0.392622	-0.038215
C207	C	1.025534	0.277572	0.047281
H208	H	1.094652	0.233158	0.029547
H209	H	0.979951	0.230379	0.058337
H210	H	1.041916	0.276146	0.123090
O211	O	1.151396	0.406342	-0.192007
C212	C	1.220052	0.398205	-0.123447
H213	H	1.190268	0.401589	-0.054374
H214	H	1.239126	0.473070	-0.169146
H215	H	1.286277	0.313378	-0.091385
H216	H	1.594706	0.322148	-0.032364
