data_functionalizedCrystal
_audit_creation_method	'MofGen! by Chris Wilmer'
_symmetry_space_group_name_H-M	'P1'
_symmetry_Int_Tables_number	1
_symmetry_cell_setting	triclinic
loop_
_symmetry_equiv_pos_as_xyz
  x,y,z
_cell_length_a	18.101398
_cell_length_b	18.101397
_cell_length_c	16.120297
_cell_angle_alpha	87.130973
_cell_angle_beta	87.127415
_cell_angle_gamma	90.018196
loop_
_atom_site_label
_atom_site_type_symbol
_atom_site_fract_x
_atom_site_fract_y
_atom_site_fract_z
Zn1	Zn	1.110945	-0.316129	0.471491
Zn2	Zn	1.444278	0.017204	0.804825
Zn3	Zn	1.777612	0.350537	1.138158
Zn4	Zn	1.117142	-0.433693	0.332074
Zn5	Zn	1.450475	-0.100360	0.665407
Zn6	Zn	1.783808	0.232974	0.998741
Zn7	Zn	0.993381	-0.309865	0.332082
Zn8	Zn	1.326715	0.023468	0.665415
Zn9	Zn	1.660048	0.356801	0.998749
Zn10	Zn	0.987081	-0.439926	0.471424
Zn11	Zn	1.320414	-0.106592	0.804758
Zn12	Zn	1.653747	0.226741	1.138091
O13	O	1.052137	-0.374903	0.401768
O14	O	1.385470	-0.041570	0.735101
O15	O	1.718804	0.291763	1.068435
O16	O	1.215399	-0.331738	0.453022
O17	O	1.548732	0.001596	0.786355
O18	O	1.882065	0.334929	1.119689
O19	O	1.105955	-0.412037	0.215413
O20	O	1.439288	-0.078704	0.548746
O21	O	1.772621	0.254630	0.882080
O22	O	1.009020	-0.207065	0.350607
O23	O	1.342353	0.126269	0.683940
O24	O	1.675687	0.459602	1.017273
O25	O	1.219951	-0.418111	0.350593
O26	O	1.553285	-0.084778	0.683926
O27	O	1.886618	0.248556	1.017259
O28	O	1.095393	-0.211667	0.453030
O29	O	1.428727	0.121666	0.786363
O30	O	1.762060	0.455000	1.119697
O31	O	1.015029	-0.321061	0.215419
O32	O	1.348362	0.012272	0.548752
O33	O	1.681695	0.345605	0.882086
O34	O	0.888914	-0.327105	0.350542
O35	O	1.222247	0.006228	0.683875
O36	O	1.555580	0.339562	1.017208
O37	O	0.998281	-0.428734	0.588095
O38	O	1.331615	-0.095400	0.921428
O39	O	1.664948	0.237933	1.254762
O40	O	0.884285	-0.422660	0.452916
O41	O	1.217618	-0.089326	0.786249
O42	O	1.550951	0.244007	1.119582
O43	O	1.089284	-0.337781	0.588144
O44	O	1.422617	-0.004448	0.921478
O45	O	1.755951	0.328886	1.254811
O46	O	1.099845	-0.538151	0.350527
O47	O	1.433179	-0.204818	0.683861
O48	O	1.766512	0.128515	1.017194
O49	O	1.004290	-0.542730	0.452908
O50	O	1.337623	-0.209397	0.786241
O51	O	1.670957	0.123936	1.119574
C52	C	0.859729	-0.374880	0.401723
C53	C	1.193062	-0.041546	0.735056
C54	C	1.526395	0.291787	1.068389
C55	C	0.777415	-0.374888	0.401723
C56	C	1.110748	-0.041555	0.735056
C57	C	1.444081	0.291779	1.068390
C58	C	0.626704	-0.374905	0.401761
C59	C	0.960038	-0.041572	0.735094
C60	C	1.293371	0.291762	1.068427
C61	C	0.598234	-0.314707	0.337457
C62	C	0.931567	0.018626	0.670790
C63	C	1.264900	0.351959	1.004123
C64	C	0.512606	-0.314501	0.337668
C65	C	0.845939	0.018832	0.671001
C66	C	1.179273	0.352165	1.004335
C67	C	0.478320	-0.374921	0.401796
C68	C	0.811654	-0.041588	0.735129
C69	C	1.144987	0.291745	1.068463
C70	C	0.505496	-0.358053	0.489756
C71	C	0.838829	-0.024720	0.823089
C72	C	1.172162	0.308614	1.156422
C73	C	0.591158	-0.357611	0.489363
C74	C	0.924491	-0.024278	0.822697
C75	C	1.257825	0.309056	1.156030
C76	C	0.596146	-0.452154	0.378880
C77	C	0.929479	-0.118821	0.712214
C78	C	1.262812	0.214513	1.045547
C79	C	0.510580	-0.451655	0.376963
C80	C	0.843914	-0.118322	0.710297
C81	C	1.177247	0.215011	1.043630
C82	C	0.394460	-0.374932	0.401821
C83	C	0.727793	-0.041599	0.735155
C84	C	1.061126	0.291734	1.068488
C85	C	0.710565	-0.374893	0.401741
C86	C	1.043898	-0.041559	0.735074
C87	C	1.377231	0.291774	1.068408
C88	C	1.052076	-0.567312	0.401728
C89	C	1.385409	-0.233979	0.735061
C90	C	1.718742	0.099355	1.068394
C91	C	1.052116	-0.649627	0.401738
C92	C	1.385449	-0.316293	0.735071
C93	C	1.718782	0.017040	1.068405
C94	C	1.052207	-0.948721	0.401814
C95	C	1.385540	-0.615388	0.735148
C96	C	1.718874	-0.282054	1.068481
C97	C	1.112176	-0.914476	0.337227
C98	C	1.445509	-0.581143	0.670560
C99	C	1.778843	-0.247810	1.003893
C100	C	1.112366	-0.828865	0.337394
C101	C	1.445699	-0.495532	0.670728
C102	C	1.779033	-0.162198	1.004061
C103	C	1.052162	-0.800337	0.401776
C104	C	1.385495	-0.467003	0.735109
C105	C	1.718828	-0.133670	1.068442
C106	C	1.069361	-0.835305	0.489653
C107	C	1.402694	-0.501972	0.822986
C108	C	1.736027	-0.168638	1.156319
C109	C	1.069818	-0.920934	0.489301
C110	C	1.403151	-0.587601	0.822634
C111	C	1.736485	-0.254267	1.155968
C112	C	0.974853	-0.916212	0.379285
C113	C	1.308186	-0.582878	0.712618
C114	C	1.641519	-0.249545	1.045952
C115	C	0.975328	-0.830474	0.377324
C116	C	1.308661	-0.497140	0.710657
C117	C	1.641995	-0.163807	1.043990
C118	C	1.052135	-0.716477	0.401759
C119	C	1.385468	-0.383143	0.735093
C120	C	1.718801	-0.049810	1.068426
C121	C	1.052235	-1.032581	0.401836
C122	C	1.385569	-0.699248	0.735170
C123	C	1.718902	-0.365915	1.068503
C124	C	1.245297	-0.374928	0.401814
C125	C	1.578630	-0.041595	0.735147
C126	C	1.911964	0.291739	1.068481
C127	C	1.327610	-0.374938	0.401833
C128	C	1.660944	-0.041605	0.735167
C129	C	1.994277	0.291728	1.068500
C130	C	1.042389	-0.384651	0.619215
C131	C	1.375722	-0.051318	0.952548
C132	C	1.709055	0.282015	1.285881
C133	C	1.038234	-0.388805	0.711878
C134	C	1.371568	-0.055472	1.045211
C135	C	1.704901	0.277861	1.378544
C136	C	1.052218	-0.181744	0.401827
C137	C	1.385552	0.151589	0.735160
C138	C	1.718885	0.484923	1.068493
C139	C	1.052253	-0.099431	0.401852
C140	C	1.385586	0.233902	0.735185
C141	C	1.718920	0.567236	1.068518
C142	C	1.061890	-0.365140	0.185167
C143	C	1.395224	-0.031806	0.518500
C144	C	1.728557	0.301527	0.851834
C145	C	1.066188	-0.360777	0.092505
C146	C	1.399522	-0.027444	0.425838
C147	C	1.732855	0.305889	0.759171
C148	C	1.030622	-0.396373	0.881534
C149	C	1.363956	-0.063040	1.214867
C150	C	1.697289	0.270294	1.548200
C151	C	1.073798	-0.353212	0.922854
C152	C	1.407131	-0.019878	1.256187
C153	C	1.740465	0.313455	1.589521
C154	C	1.069563	-0.357422	1.017257
C155	C	1.402896	-0.024089	1.350590
C156	C	1.736229	0.309244	1.683923
C157	C	1.034857	-0.392163	0.787123
C158	C	1.368190	-0.058830	1.120456
C159	C	1.701523	0.274503	1.453789
H160	H	0.621723	-0.324608	0.272030
H161	H	0.955056	0.008726	0.605363
H162	H	1.288390	0.342059	0.938697
H163	H	0.958442	-0.935034	0.316316
H164	H	1.291775	-0.601700	0.649649
H165	H	1.625108	-0.268367	0.982983
H166	H	0.610281	-0.301271	0.508702
H167	H	0.943615	0.032062	0.842035
H168	H	1.276948	0.365395	1.175369
O169	O	1.126985	-0.300085	0.875805
O170	O	1.460318	0.033248	1.209138
O171	O	1.793652	0.366581	1.542471
H172	H	1.113583	-0.242685	0.892451
H173	H	1.446917	0.090648	1.225784
H174	H	1.780250	0.423982	1.559118
H175	H	0.990482	-0.436485	0.917054
H176	H	1.323815	-0.103151	1.250388
H177	H	1.657148	0.230182	1.583721
H178	H	0.619095	-0.257707	0.352453
H179	H	0.952429	0.075626	0.685786
H180	H	1.285762	0.408960	1.019120
O181	O	0.475942	-0.284282	0.515827
O182	O	0.809275	0.049051	0.849161
O183	O	1.142609	0.382385	1.182494
H184	H	0.522874	-0.246835	0.525890
H185	H	0.856208	0.086499	0.859224
H186	H	1.189541	0.419832	1.192557
O187	O	0.488604	-0.327814	0.251288
O188	O	0.821937	0.005520	0.584621
O189	O	1.155270	0.338853	0.917954
H190	H	0.509800	-0.382177	0.231923
H191	H	0.843133	-0.048843	0.565257
H192	H	1.176466	0.284490	0.898590
O193	O	0.484570	-0.238582	0.357792
O194	O	0.817903	0.094751	0.691126
O195	O	1.151236	0.428084	1.024459
H196	H	0.532189	-0.201875	0.367420
H197	H	0.865523	0.131459	0.700754
H198	H	1.198856	0.464792	1.034087
H199	H	0.609680	-0.399782	0.538934
H200	H	0.943013	-0.066449	0.872267
H201	H	1.276346	0.266885	1.205600
O202	O	0.620227	-0.511502	0.440903
O203	O	0.953561	-0.178169	0.774236
O204	O	1.286894	0.155164	1.107569
H205	H	0.653798	-0.486151	0.487800
H206	H	0.987131	-0.152818	0.821133
H207	H	1.320465	0.180515	1.154467
H208	H	0.482945	-0.400735	0.538994
H209	H	0.816279	-0.067402	0.872327
H210	H	1.149612	0.265932	1.205660
H211	H	1.102064	-0.804967	0.272235
H212	H	1.435398	-0.471633	0.605568
H213	H	1.768731	-0.138300	0.938902
H214	H	0.493142	-0.464452	0.312229
H215	H	0.826475	-0.131119	0.645562
H216	H	1.159809	0.202214	0.978895
O217	O	0.628458	-0.473591	0.295332
O218	O	0.961791	-0.140257	0.628666
O219	O	1.295125	0.193076	0.961999
H220	H	0.666663	-0.429419	0.269182
H221	H	0.999997	-0.096086	0.602515
H222	H	1.333330	0.237248	0.935849
H223	H	0.962288	-0.807300	0.312653
H224	H	1.295621	-0.473967	0.645986
H225	H	1.628954	-0.140634	0.979320
H226	H	0.487247	-0.498566	0.420353
H227	H	0.820580	-0.165232	0.753686
H228	H	1.153914	0.168101	1.087019
H229	H	1.102043	-0.932174	0.271872
H230	H	1.435376	-0.598840	0.605206
H231	H	1.768710	-0.265507	0.938539
H232	H	1.169246	-0.936611	0.351962
H233	H	1.502580	-0.603277	0.685296
H234	H	1.835913	-0.269944	1.018629
H235	H	1.169746	-0.808996	0.352301
H236	H	1.503079	-0.475662	0.685634
H237	H	1.836413	-0.142329	1.018968
O238	O	1.144559	-0.948470	0.514567
O239	O	1.477892	-0.615137	0.847901
O240	O	1.811226	-0.281804	1.181234
H241	H	1.180038	-0.900622	0.526918
H242	H	1.513371	-0.567288	0.860251
H243	H	1.846704	-0.233955	1.193584
H244	H	1.026846	-0.817171	0.539070
H245	H	1.360179	-0.483838	0.872403
H246	H	1.693513	-0.150504	1.205737
O247	O	1.014196	-0.951374	0.555217
O248	O	1.347529	-0.618041	0.888551
O249	O	1.680862	-0.284708	1.221884
H250	H	1.029379	-0.933476	0.616996
H251	H	1.362712	-0.600142	0.950329
H252	H	1.696045	-0.266809	1.283663
O253	O	1.143268	-0.808190	0.515494
O254	O	1.476601	-0.474857	0.848827
O255	O	1.809934	-0.141524	1.182161
H256	H	1.142082	-0.747055	0.518263
H257	H	1.475415	-0.413721	0.851596
H258	H	1.808748	-0.080388	1.184930
O259	O	0.913375	-0.804748	0.435064
O260	O	1.246708	-0.471415	0.768397
O261	O	1.580042	-0.138082	1.101731
H262	H	0.936483	-0.769931	0.482307
H263	H	1.269817	-0.436597	0.815640
H264	H	1.603150	-0.103264	1.148974
O265	O	0.915698	-0.946003	0.441470
O266	O	1.249031	-0.612670	0.774803
O267	O	1.582364	-0.279337	1.108136
H268	H	0.941222	-0.983763	0.488213
H269	H	1.274555	-0.650430	0.821547
H270	H	1.607889	-0.317096	1.154880
