data_functionalizedCrystal
_audit_creation_method	'MofGen! by Chris Wilmer'
_symmetry_space_group_name_H-M	'P1'
_symmetry_Int_Tables_number	1
_symmetry_cell_setting	triclinic
loop_
_symmetry_equiv_pos_as_xyz
  x,y,z
_cell_length_a	18.050591
_cell_length_b	18.050582
_cell_length_c	18.050588
_cell_angle_alpha	90.021152
_cell_angle_beta	89.973991
_cell_angle_gamma	89.980240
loop_
_atom_site_label
_atom_site_type_symbol
_atom_site_fract_x
_atom_site_fract_y
_atom_site_fract_z
Zn1	Zn	1.135286	-0.420016	0.295777
Zn2	Zn	1.635286	0.079984	0.795777
Zn3	Zn	1.135193	-0.295829	0.419960
Zn4	Zn	1.635193	0.204171	0.919960
Zn5	Zn	1.011105	-0.295829	0.295781
Zn6	Zn	1.511105	0.204171	0.795781
Zn7	Zn	1.011050	-0.419967	0.419922
Zn8	Zn	1.511050	0.080033	0.919922
O9	O	1.073158	-0.357910	0.357860
O10	O	1.573158	0.142090	0.857860
O11	O	1.239198	-0.403562	0.312265
O12	O	1.739198	0.096438	0.812265
O13	O	1.118717	-0.191904	0.403505
O14	O	1.618717	0.308096	0.903505
O15	O	1.027639	-0.312324	0.191856
O16	O	1.527639	0.187676	0.691856
O17	O	1.239130	-0.312323	0.403502
O18	O	1.739130	0.187677	0.903502
O19	O	1.118874	-0.403563	0.191853
O20	O	1.618874	0.096437	0.691853
O21	O	1.027550	-0.191905	0.312271
O22	O	1.527550	0.308095	0.812271
O23	O	0.907173	-0.312276	0.312234
O24	O	1.407173	0.187724	0.812234
O25	O	1.027546	-0.523898	0.403436
O26	O	1.527546	-0.023898	0.903436
O27	O	0.907133	-0.403479	0.403440
O28	O	1.407133	0.096521	0.903440
O29	O	1.118821	-0.523934	0.312227
O30	O	1.618821	-0.023934	0.812227
O31	O	1.118664	-0.312275	0.523880
O32	O	1.618664	0.187725	1.023880
O33	O	1.027456	-0.403479	0.523852
O34	O	1.527456	0.096521	1.023852
C35	C	0.880206	-0.357873	0.357834
C36	C	1.380206	0.142127	0.857834
C37	C	0.797661	-0.357875	0.357841
C38	C	1.297661	0.142125	0.857841
C39	C	0.548835	-0.308396	0.308192
C40	C	1.048835	0.191604	0.808192
C41	C	0.598268	-0.376171	0.290110
C42	C	1.098268	0.123829	0.790110
C43	C	0.500540	-0.357936	0.357879
C44	C	1.000540	0.142064	0.857879
C45	C	0.598189	-0.290134	0.375906
C46	C	1.098189	0.209866	0.875906
C47	C	0.646525	-0.357902	0.357858
C48	C	1.146525	0.142098	0.857858
C49	C	0.548885	-0.425747	0.339763
C50	C	1.048885	0.074253	0.839763
C51	C	0.548803	-0.339664	0.425589
C52	C	1.048803	0.160336	0.925589
C53	C	0.598213	-0.407486	0.407534
C54	C	1.098213	0.092514	0.907534
C55	C	0.416442	-0.357954	0.357888
C56	C	0.916442	0.142046	0.857888
C57	C	0.730622	-0.357891	0.357848
C58	C	1.230622	0.142109	0.857848
C59	C	1.073188	-0.551616	0.357827
C60	C	1.573188	-0.051616	0.857827
C61	C	1.073200	-0.634162	0.357813
C62	C	1.573200	-0.134162	0.857813
C63	C	1.023602	-0.833593	0.407345
C64	C	1.523602	-0.333593	0.907345
C65	C	1.091357	-0.882990	0.425502
C66	C	1.591357	-0.382990	0.925502
C67	C	1.073237	-0.785292	0.357756
C68	C	1.573237	-0.285292	0.857756
C69	C	1.005519	-0.882976	0.339578
C70	C	1.505519	-0.382976	0.839578
C71	C	1.073266	-0.931277	0.357703
C72	C	1.573266	-0.431277	0.857703
C73	C	1.141027	-0.833602	0.375950
C74	C	1.641027	-0.333602	0.875950
C75	C	1.055143	-0.833584	0.289994
C76	C	1.555143	-0.333584	0.789994
C77	C	1.122945	-0.882959	0.308126
C78	C	1.622945	-0.382959	0.808126
C79	C	1.073219	-0.701194	0.357789
C80	C	1.573219	-0.201194	0.857789
C81	C	1.073292	-1.015374	0.357670
C82	C	1.573292	-0.515374	0.857670
C83	C	1.266864	-0.357948	0.357887
C84	C	1.766864	0.142052	0.857887
C85	C	1.349410	-0.357964	0.357898
C86	C	1.849410	0.142036	0.857898
C87	C	1.073064	-0.357888	0.550812
C88	C	1.573064	0.142112	1.050812
C89	C	1.073092	-0.357903	0.633358
C90	C	1.573092	0.142097	1.133358
C91	C	1.073172	-0.164958	0.357839
C92	C	1.573172	0.335042	0.857839
C93	C	1.073304	-0.082413	0.357644
C94	C	1.573304	0.417587	0.857644
C95	C	1.073273	-0.357949	0.164154
C96	C	1.573273	0.142051	0.664154
C97	C	1.073322	-0.357965	0.081609
C98	C	1.573322	0.142035	0.581609
C99	C	1.023571	-0.407500	0.882195
C100	C	1.523571	0.092500	1.382195
C101	C	1.091288	-0.425730	0.832731
C102	C	1.591288	0.074270	1.332731
C103	C	1.073246	-0.357945	0.930478
C104	C	1.573246	0.142055	1.430478
C105	C	1.005457	-0.339729	0.832861
C106	C	1.505457	0.160271	1.332861
C107	C	1.073167	-0.357926	0.784493
C108	C	1.573167	0.142074	1.284493
C109	C	1.140999	-0.376210	0.882101
C110	C	1.640999	0.123790	1.382101
C111	C	1.055123	-0.290177	0.882236
C112	C	1.555123	0.209823	1.382236
C113	C	1.122886	-0.308382	0.832794
C114	C	1.622886	0.191618	1.332794
C115	C	1.073291	-0.357957	1.014577
C116	C	1.573291	0.142043	1.514577
C117	C	1.073130	-0.357913	0.700397
C118	C	1.573130	0.142087	1.200397
H119	H	0.527318	-0.483089	0.324440
H120	H	1.027318	0.016911	0.824440
O121	O	0.973467	-0.457493	0.907990
O122	O	1.473467	0.042507	1.407990
C123	C	0.902265	-0.438879	0.881842
C124	C	1.402265	0.061121	1.381842
H125	H	0.907547	-0.403957	0.829498
H126	H	1.407547	0.096043	1.329498
H127	H	0.870188	-0.491678	0.868766
H128	H	1.370188	0.008322	1.368766
H129	H	0.871482	-0.405951	0.926115
H130	H	1.371482	0.094049	1.426115
H131	H	1.106679	-0.904692	0.482785
H132	H	1.606679	-0.404692	0.982785
O133	O	0.624046	-0.457447	0.457643
O134	O	1.124046	0.042553	0.957643
C135	C	0.702150	-0.456470	0.457495
C136	C	1.202150	0.043530	0.957495
H137	H	0.722454	-0.400939	0.435329
H138	H	1.222454	0.099061	0.935329
H139	H	0.723396	-0.464658	0.516392
H140	H	1.223396	0.035342	1.016392
H141	H	0.723756	-0.503020	0.420646
H142	H	1.223756	-0.003020	0.920646
H143	H	0.981668	-0.811918	0.449335
H144	H	1.481668	-0.311918	0.949335
O145	O	1.036758	-0.807576	0.221735
O146	O	1.536758	-0.307576	0.721735
C147	C	0.972468	-0.763517	0.227137
C148	C	1.472468	-0.263517	0.727137
H149	H	0.966633	-0.741881	0.286195
H150	H	1.466633	-0.241881	0.786195
H151	H	0.976939	-0.714789	0.187227
H152	H	1.476939	-0.214789	0.687227
H153	H	0.921846	-0.798251	0.212359
H154	H	1.421846	-0.298251	0.712359
H155	H	0.619849	-0.232809	0.391162
H156	H	1.119849	0.267191	0.891162
H157	H	0.948163	-0.324331	0.811228
H158	H	1.448163	0.175669	1.311228
O159	O	1.036893	-0.221875	0.908328
O160	O	1.536893	0.278125	1.408328
C161	C	1.037842	-0.222695	0.986427
C162	C	1.537842	0.277305	1.486427
H163	H	1.074949	-0.269690	1.006500
H164	H	1.574949	0.230310	1.506500
H165	H	1.060175	-0.167625	1.007801
H166	H	1.560175	0.332375	1.507801
H167	H	0.979173	-0.231431	1.008134
H168	H	1.479173	0.268569	1.508134
O169	O	1.209329	-0.807719	0.394370
O170	O	1.709329	-0.307719	0.894370
C171	C	1.208485	-0.729614	0.394189
C172	C	1.708485	-0.229614	0.894189
H173	H	1.149295	-0.709161	0.402447
H174	H	1.649295	-0.209161	0.902447
H175	H	1.244905	-0.708051	0.441050
H176	H	1.744905	-0.208051	0.941050
H177	H	1.230572	-0.708471	0.338926
H178	H	1.730572	-0.208471	0.838926
H179	H	1.164980	-0.904498	0.266168
H180	H	1.664980	-0.404498	0.766168
O181	O	0.937166	-0.908889	0.321385
O182	O	1.437166	-0.408889	0.821385
C183	C	0.909649	-0.952954	0.379703
C184	C	1.409649	-0.452954	0.879703
H185	H	0.938369	-0.936876	0.433594
H186	H	1.438369	-0.436876	0.933594
H187	H	0.847426	-0.943779	0.385492
H188	H	1.347426	-0.443779	0.885492
H189	H	0.920901	-1.013837	0.367182
H190	H	1.420901	-0.513837	0.867182
O191	O	0.522998	-0.258580	0.257939
O192	O	1.022998	0.241420	0.757939
C193	C	0.548220	-0.278101	0.186616
C194	C	1.048220	0.221899	0.686616
H195	H	0.562111	-0.339700	0.185297
H196	H	1.062111	0.160300	0.685297
H197	H	0.503056	-0.265798	0.144239
H198	H	1.003056	0.234202	0.644239
H199	H	0.599888	-0.244588	0.172637
H200	H	1.099888	0.255412	0.672637
O201	O	0.522891	-0.321087	0.493869
O202	O	1.022891	0.178913	0.993869
C203	C	0.547981	-0.249554	0.512682
C204	C	1.047981	0.250446	1.012682
H205	H	0.561852	-0.217601	0.460010
H206	H	1.061852	0.282399	0.960010
H207	H	0.502745	-0.219048	0.544537
H208	H	1.002745	0.280952	1.044537
H209	H	0.599634	-0.254167	0.548710
H210	H	1.099634	0.245833	1.048710
H211	H	1.106588	-0.483032	0.810987
H212	H	1.606588	0.016968	1.310987
O213	O	1.209318	-0.394686	0.907916
O214	O	1.709318	0.105314	1.407916
C215	C	1.208532	-0.394486	0.986023
C216	C	1.708532	0.105514	1.486023
H217	H	1.149357	-0.402685	1.006522
H218	H	1.649357	0.097315	1.506522
H219	H	1.244963	-0.441375	1.007531
H220	H	1.744963	0.058625	1.507531
H221	H	1.230642	-0.339238	1.007175
H222	H	1.730642	0.160762	1.507175
O223	O	1.173116	-0.258461	0.807107
O224	O	1.673116	0.241539	1.307107
C225	C	1.244421	-0.277921	0.832347
C226	C	1.744421	0.222079	1.332347
H227	H	1.245798	-0.339539	0.846104
H228	H	1.745798	0.160461	1.346104
H229	H	1.286860	-0.265495	0.787244
H230	H	1.786860	0.234505	1.287244
H231	H	1.258266	-0.244465	0.884099
H232	H	1.758266	0.255535	1.384099
H233	H	0.619982	-0.391625	0.232837
H234	H	1.119982	0.108375	0.732837
