data_functionalizedCrystal
_audit_creation_method	'MofGen! by Chris Wilmer'
_symmetry_space_group_name_H-M	'P1'
_symmetry_Int_Tables_number	1
_symmetry_cell_setting	triclinic
loop_
_symmetry_equiv_pos_as_xyz
  x,y,z
_cell_length_a	14.519731
_cell_length_b	14.519709
_cell_length_c	9.198806
_cell_angle_alpha	89.995869
_cell_angle_beta	89.995963
_cell_angle_gamma	83.684499
loop_
_atom_site_label
_atom_site_type_symbol
_atom_site_fract_x
_atom_site_fract_y
_atom_site_fract_z
O1	O	1.223855	0.120983	-0.120899
O2	O	0.955381	0.135199	-0.120901
O3	O	1.096736	-0.006147	-0.120887
O4	O	1.082500	0.262329	-0.120913
O5	O	1.096725	-0.006147	0.120898
O6	O	0.955369	0.135198	0.120884
O7	O	1.223844	0.120982	0.120886
Cu8	Cu	1.089606	0.128090	0.142962
Cu9	Cu	1.089619	0.128091	-0.142977
O10	O	1.082488	0.262328	0.120872
C11	C	0.921016	0.134532	-0.000009
C12	C	0.818635	0.132536	-0.000010
C13	C	1.096067	-0.040507	0.000006
C14	C	1.094079	-0.142889	0.000007
C15	C	0.735491	0.130915	-0.000015
C16	C	0.631182	0.128888	-0.000016
C17	C	0.548043	0.127280	-0.000015
C18	C	0.443728	0.125253	-0.000018
C19	C	1.086759	-0.517785	-0.000031
C20	C	1.088792	-0.413477	-0.000020
C21	C	1.090419	-0.330340	-0.000011
C22	C	1.092452	-0.226025	-0.000003
C23	C	1.258209	0.121649	-0.000009
C24	C	1.360589	0.123645	-0.000018
C25	C	1.083157	0.296688	-0.000024
C26	C	1.085146	0.399070	-0.000034
N27	N	1.089603	0.128090	0.344076
N28	N	1.089629	0.128084	-0.344091
C29	C	1.148956	0.068483	0.416279
C30	C	1.148970	0.068479	0.583691
H31	H	1.199757	0.017449	0.354158
H32	H	1.038815	0.179122	0.593827
H33	H	1.038796	0.179116	0.406199
F34	F	1.215395	0.001779	0.664846
