data_functionalizedCrystal
_audit_creation_method	'MofGen! by Chris Wilmer'
_symmetry_space_group_name_H-M	'P1'
_symmetry_Int_Tables_number	1
_symmetry_cell_setting	triclinic
loop_
_symmetry_equiv_pos_as_xyz
  x,y,z
_cell_length_a	14.519709
_cell_length_b	14.519709
_cell_length_c	8.140239
_cell_angle_alpha	89.995533
_cell_angle_beta	90.002892
_cell_angle_gamma	83.680145
loop_
_atom_site_label
_atom_site_type_symbol
_atom_site_fract_x
_atom_site_fract_y
_atom_site_fract_z
O1	O	1.223865	0.120890	-0.136403
O2	O	1.723865	0.620890	0.363597
O3	O	0.955388	0.135126	-0.136454
O4	O	1.455388	0.635126	0.363546
O5	O	1.096745	-0.006230	-0.136412
O6	O	1.596745	0.493770	0.363588
O7	O	1.082509	0.262247	-0.136445
O8	O	1.582509	0.762247	0.363555
O9	O	1.096737	-0.006232	0.136815
O10	O	1.596737	0.493768	0.636815
O11	O	0.955381	0.135125	0.136773
O12	O	1.455381	0.635125	0.636773
O13	O	1.223857	0.120888	0.136824
O14	O	1.723857	0.620888	0.636824
Zn15	Zn	1.089618	0.128006	0.180179
Zn16	Zn	1.589618	0.628006	0.680179
Zn17	Zn	1.089628	0.128008	-0.179809
Zn18	Zn	1.589628	0.628008	0.320191
O19	O	1.082501	0.262245	0.136783
O20	O	1.582501	0.762245	0.636783
C21	C	0.921025	0.134462	0.000153
C22	C	1.421025	0.634462	0.500153
C23	C	0.818643	0.132474	0.000135
C24	C	1.318643	0.632474	0.500135
C25	C	1.096078	-0.040591	0.000201
C26	C	1.596078	0.459409	0.500201
C27	C	1.094090	-0.142972	0.000202
C28	C	1.594090	0.357028	0.500202
C29	C	0.443748	0.125154	0.000210
C30	C	0.943748	0.625154	0.500210
C31	C	0.548056	0.127187	0.000189
C32	C	1.048056	0.627187	0.500189
C33	C	0.631192	0.128814	0.000171
C34	C	1.131192	0.628814	0.500171
C35	C	0.735507	0.130847	0.000152
C36	C	1.235507	0.630847	0.500152
C37	C	1.086770	-0.517868	0.000158
C38	C	1.586770	-0.017868	0.500158
C39	C	1.088803	-0.413560	0.000171
C40	C	1.588803	0.086440	0.500171
C41	C	1.090430	-0.330423	0.000181
C42	C	1.590430	0.169577	0.500181
C43	C	1.092463	-0.226109	0.000191
C44	C	1.592463	0.273891	0.500191
C45	C	1.258221	0.121553	0.000213
C46	C	1.758221	0.621553	0.500213
C47	C	1.360602	0.123541	0.000221
C48	C	1.860602	0.623541	0.500221
C49	C	1.083168	0.296606	0.000165
C50	C	1.583168	0.796606	0.500165
C51	C	1.085156	0.398987	0.000154
C52	C	1.585156	0.898987	0.500154
N53	N	1.089618	0.128004	0.425862
N54	N	1.589618	0.628004	0.925862
N55	N	1.089636	0.128003	-0.425492
N56	N	1.589636	0.628003	0.074508
