data_functionalizedCrystal
_audit_creation_method	'MofGen! by Chris Wilmer'
_symmetry_space_group_name_H-M	'P1'
_symmetry_Int_Tables_number	1
_symmetry_cell_setting	triclinic
loop_
_symmetry_equiv_pos_as_xyz
  x,y,z
_cell_length_a	29.999520
_cell_length_b	29.998686
_cell_length_c	29.995014
_cell_angle_alpha	60.005185
_cell_angle_beta	60.010401
_cell_angle_gamma	59.993433
loop_
_atom_site_label
_atom_site_type_symbol
_atom_site_fract_x
_atom_site_fract_y
_atom_site_fract_z
O1	O	0.061772	-0.651300	0.544623
O2	O	0.023267	-0.507084	0.438819
O3	O	0.114589	-0.598332	0.438743
O4	O	-0.029550	-0.560051	0.544699
O5	O	0.144886	-0.568039	0.468961
O6	O	0.053564	-0.476791	0.469038
O7	O	0.092069	-0.621007	0.574841
Zn8	Zn	0.077627	-0.544089	0.526737
Zn9	Zn	0.037709	-0.584002	0.486923
O10	O	0.000748	-0.529758	0.574918
N11	N	0.104871	-0.516854	0.553912
N12	N	0.010470	-0.611242	0.459748
C13	C	0.143162	-0.478782	0.827124
C14	C	0.378203	-0.478734	0.591892
C15	C	0.143005	-0.478752	0.591997
C16	C	0.142986	-0.243586	0.592008
C17	C	0.180857	-0.357087	0.629814
C18	C	0.180866	-0.440920	0.629807
C19	C	0.201840	-0.419964	0.650755
C20	C	0.293272	-0.404201	0.602606
C21	C	0.350426	-0.423248	0.583534
C22	C	0.350451	-0.515727	0.618798
C23	C	0.293297	-0.496678	0.637872
C24	C	0.194628	-0.328499	0.573626
C25	C	0.175551	-0.271340	0.554591
C26	C	0.128936	-0.271362	0.647935
C27	C	0.148014	-0.328521	0.666970
C28	C	0.124672	-0.427119	0.643641
C29	C	0.105611	-0.446170	0.624592
C30	C	0.198934	-0.492820	0.577889
C31	C	0.217998	-0.473770	0.596931
C32	C	0.124740	-0.427136	0.742229
C33	C	0.105728	-0.446202	0.799386
C34	C	0.199085	-0.492863	0.799337
C35	C	0.218096	-0.473798	0.742178
C36	C	0.180923	-0.440933	0.713626
C37	C	0.264710	-0.440915	0.629773
C38	C	0.121509	-0.499370	0.889991
C39	C	0.441068	-0.498953	0.570621
C40	C	0.121297	-0.499349	0.571429
C41	C	0.121653	-0.180715	0.571802
C42	C	-0.111071	-0.648912	0.421584
C43	C	-0.027286	-0.649018	0.421777
C44	C	-0.048200	-0.669944	0.400740
C45	C	-0.064036	-0.761340	0.448814
C46	C	-0.045033	-0.818500	0.467893
C47	C	0.047447	-0.818609	0.432797
C48	C	0.028444	-0.761451	0.413717
C49	C	-0.139731	-0.662677	0.477755
C50	C	-0.196885	-0.643554	0.496701
C51	C	-0.196717	-0.596907	0.403303
C52	C	-0.139562	-0.616030	0.384357
C53	C	-0.041053	-0.592827	0.407952
C54	C	-0.022041	-0.573809	0.427083
C55	C	0.024504	-0.667167	0.473848
C56	C	0.005492	-0.686188	0.454725
C57	C	-0.040886	-0.592836	0.309259
C58	C	-0.021740	-0.573821	0.252102
C59	C	0.024886	-0.667185	0.252163
C60	C	0.005743	-0.686199	0.309322
C61	C	-0.027145	-0.649023	0.337868
C62	C	-0.027299	-0.732818	0.421728
N63	N	0.492511	-0.516826	0.553742
O64	O	0.679283	-0.525926	0.419277
O65	O	0.679465	-0.632059	0.563349
O66	O	0.679393	-0.631817	0.471975
O67	O	0.679355	-0.526168	0.510650
O68	O	0.588593	-0.601610	0.502313
O69	O	0.588665	-0.601852	0.593686
O70	O	0.588483	-0.495720	0.449614
Zn71	Zn	0.574158	-0.543990	0.526467
Zn72	Zn	0.693790	-0.583788	0.486496
O73	O	0.588555	-0.495962	0.540987
N74	N	0.775436	-0.610952	0.459215
N75	N	0.104844	-0.129269	0.553931
O76	O	-0.029548	0.057600	0.544709
O77	O	0.114530	0.057617	0.438578
O78	O	0.023130	0.057594	0.438850
O79	O	0.061852	0.057623	0.544437
O80	O	0.053431	-0.033213	0.469115
O81	O	0.144831	-0.033190	0.468843
O82	O	0.000753	-0.033207	0.574974
Zn83	Zn	0.077603	-0.047616	0.526714
Zn84	Zn	0.037680	0.072026	0.486838
O85	O	0.092153	-0.033184	0.574702
N86	N	0.010432	0.153679	0.459622
N87	N	0.105130	-0.516904	0.941437
O88	O	0.095923	-0.651280	1.128292
O89	O	-0.010184	-0.507155	1.128318
O90	O	-0.009938	-0.598539	1.128284
O91	O	0.095677	-0.559897	1.128326
O92	O	0.020315	-0.568257	1.037481
O93	O	0.020068	-0.476874	1.037515
O94	O	0.126176	-0.620999	1.037489
Zn95	Zn	0.077925	-0.544128	1.023085
Zn96	Zn	0.038066	-0.584026	1.142722
O97	O	0.125929	-0.529616	1.037523
N98	N	0.010860	-0.611256	1.224371
C99	C	0.034807	-0.473765	0.439352
C100	C	0.147897	-0.586765	0.439257
C101	C	0.080529	-0.654326	0.574308
C102	C	-0.032561	-0.541326	0.574403
C103	C	0.634087	-0.631571	0.596668
C104	C	0.633999	-0.631272	0.483513
C105	C	0.633858	-0.496206	0.416295
C106	C	0.633949	-0.496507	0.529449
C107	C	0.147793	0.012327	0.439058
C108	C	0.034644	0.012187	0.439432
C109	C	-0.032548	0.012195	0.574457
C110	C	0.080639	0.012222	0.574120
C111	C	-0.009670	-0.473857	1.082920
C112	C	-0.009359	-0.587018	1.082860
C113	C	0.125662	-0.654297	1.082887
C114	C	0.125358	-0.541129	1.082927
H115	H	0.094465	-0.400370	0.718985
C116	C	0.170006	-0.709532	1.082902
C117	C	0.150440	-0.743231	1.082896
C118	C	0.191272	-0.794119	1.082916
H119	H	0.201051	-0.704825	1.051249
H120	H	0.179925	-0.725904	1.114583
H121	H	0.140528	-0.726863	1.051219
H122	H	0.119400	-0.747954	1.114548
H123	H	0.201191	-0.810491	1.114596
H124	H	0.222314	-0.789407	1.051262
H125	H	0.178000	-0.816992	1.082917
C126	C	0.169542	-0.529995	1.082907
C127	C	0.149751	-0.476684	1.082906
C128	C	0.190440	-0.466406	1.082880
H129	H	0.179523	-0.555136	1.114561
H130	H	0.200589	-0.534035	1.051227
H131	H	0.118714	-0.472649	1.114583
H132	H	0.139774	-0.451532	1.051255
H133	H	0.221487	-0.470446	1.051200
H134	H	0.200418	-0.491550	1.114534
H135	H	0.177019	-0.430233	1.082874
H136	H	-0.042525	-0.595273	1.082811
C137	C	0.633905	-0.452312	0.540594
C138	C	0.633948	-0.472108	0.593891
C139	C	0.633900	-0.431409	0.604179
H140	H	0.665536	-0.442315	0.515440
H141	H	0.602204	-0.421272	0.536583
H142	H	0.665646	-0.503138	0.597897
H143	H	0.602320	-0.482101	0.619056
H144	H	0.602199	-0.400370	0.600167
H145	H	0.665531	-0.421415	0.579022
H146	H	0.633924	-0.444834	0.640342
C147	C	0.044704	-0.431130	0.830337
C148	C	0.016223	-0.398255	0.793095
C149	C	-0.039991	-0.384354	0.821588
H150	H	0.035270	-0.463405	0.852636
H151	H	0.035325	-0.411714	0.852623
H152	H	0.025599	-0.417671	0.770819
H153	H	0.025641	-0.365972	0.770795
H154	H	-0.049370	-0.364938	0.843874
H155	H	-0.049420	-0.416632	0.843886
H156	H	-0.059322	-0.362043	0.796324
C157	C	0.203093	-0.597744	0.394909
C158	C	0.212745	-0.641635	0.382436
C159	C	0.263588	-0.651769	0.341591
H160	H	0.203246	-0.566185	0.363140
H161	H	0.230885	-0.606413	0.407437
H162	H	0.184960	-0.632963	0.369906
H163	H	0.212603	-0.673202	0.414193
H164	H	0.291381	-0.660438	0.354119
H165	H	0.263737	-0.620208	0.309826
H166	H	0.270146	-0.681553	0.333127
C167	C	0.023957	-0.418555	0.394978
C168	C	0.070569	-0.418474	0.348254
C169	C	0.060598	-0.367622	0.307369
H170	H	-0.005795	-0.411879	0.386398
H171	H	0.015336	-0.390789	0.407516
H172	H	0.079184	-0.446232	0.335718
H173	H	0.100328	-0.425141	0.356816
H174	H	0.051976	-0.339856	0.319907
H175	H	0.030845	-0.360951	0.298794
H176	H	0.092224	-0.367559	0.275664
C177	C	-0.087707	-0.530500	0.618850
C178	C	-0.080523	-0.536599	0.664506
C179	C	-0.131309	-0.526639	0.705464
H180	H	-0.110661	-0.494368	0.605689
H181	H	-0.104074	-0.555748	0.628833
H182	H	-0.064164	-0.511352	0.654523
H183	H	-0.057578	-0.572728	0.677683
H184	H	-0.147676	-0.551886	0.715447
H185	H	-0.154260	-0.490506	0.692297
H186	H	-0.126441	-0.530780	0.736448
H187	H	0.270043	-0.526578	0.659994
H188	H	0.634133	-0.664888	0.638048
H189	H	0.633799	-0.462884	0.374920
C190	C	0.044578	-0.431158	0.639696
C191	C	0.016138	-0.398327	0.672579
C192	C	-0.040085	-0.384496	0.686511
H193	H	0.035103	-0.411732	0.607434
H194	H	0.035205	-0.463477	0.659113
H195	H	0.025507	-0.366014	0.653163
H196	H	0.025597	-0.417743	0.704848
H197	H	-0.049458	-0.416815	0.705928
H198	H	-0.049554	-0.365072	0.654246
H199	H	-0.059388	-0.362224	0.708828
H200	H	-0.067667	-0.562559	0.332499
C201	C	0.239533	-0.528551	0.830234
C202	C	0.292804	-0.536559	0.792948
C203	C	0.330081	-0.569437	0.821390
H204	H	0.234125	-0.511145	0.852532
H205	H	0.234097	-0.562836	0.852516
H206	H	0.298239	-0.502280	0.770674
H207	H	0.298230	-0.553971	0.770648
H208	H	0.324644	-0.603722	0.843672
H209	H	0.324668	-0.552028	0.843687
H210	H	0.366229	-0.574879	0.796095
H211	H	0.088756	-0.695753	0.607538
H212	H	0.026351	0.012184	0.406260
C213	C	0.633905	-0.675470	0.472490
C214	C	0.587158	-0.656776	0.459784
C215	C	0.587049	-0.697480	0.449633
H216	H	0.665515	-0.683975	0.442680
H217	H	0.633920	-0.707258	0.504040
H218	H	0.587148	-0.624999	0.428237
H219	H	0.555541	-0.648276	0.489587
H220	H	0.587064	-0.729267	0.481184
H221	H	0.618661	-0.705981	0.419825
H222	H	0.555330	-0.684803	0.441016
C223	C	0.239336	-0.528461	0.542183
C224	C	0.292627	-0.536456	0.534140
C225	C	0.329861	-0.569279	0.501243
H226	H	0.233932	-0.562752	0.559586
H227	H	0.233854	-0.511003	0.507912
H228	H	0.298107	-0.553915	0.568405
H229	H	0.298049	-0.502175	0.516730
H230	H	0.324379	-0.551821	0.466972
H231	H	0.324452	-0.603567	0.518650
H232	H	0.366023	-0.574704	0.495778
H233	H	-0.033252	-0.528055	0.415829
C234	C	0.202875	0.012701	0.394576
C235	C	0.236551	0.012829	0.414087
C236	C	0.287294	0.013181	0.373123
H237	H	0.219408	-0.018887	0.384481
H238	H	0.197919	0.044449	0.363649
H239	H	0.241509	-0.018915	0.445004
H240	H	0.220035	0.044415	0.424178
H241	H	0.282337	0.044929	0.342196
H242	H	0.303822	-0.018408	0.363031
H243	H	0.310147	0.013273	0.386354
H244	H	0.263847	-0.485039	0.718893
H245	H	0.016937	-0.731954	0.332612
H246	H	-0.073925	0.012190	0.607776
H247	H	0.094434	-0.400372	0.670409
H248	H	0.263756	-0.485001	0.585661
C249	C	0.091808	0.012193	0.618297
C250	C	0.145114	0.012184	0.598494
C251	C	0.155425	0.012145	0.639177
H252	H	0.066673	0.043846	0.628277
H253	H	0.087786	-0.019491	0.649346
H254	H	0.149131	0.043864	0.567454
H255	H	0.170261	-0.019468	0.588517
H256	H	0.151404	-0.019538	0.670226
H257	H	0.130287	0.043800	0.649155
H258	H	0.191596	0.012135	0.625748
H259	H	0.373728	-0.561133	0.625383
H260	H	0.186762	-0.248063	0.508836
C261	C	-0.054032	-0.418640	1.082957
C262	C	-0.034474	-0.384948	1.082988
C263	C	-0.075326	-0.334081	1.083029
H264	H	-0.063985	-0.402230	1.051298
H265	H	-0.085057	-0.423398	1.114632
H266	H	-0.003458	-0.380188	1.051316
H267	H	-0.024524	-0.401340	1.114644
H268	H	-0.106351	-0.338839	1.114704
H269	H	-0.085276	-0.317676	1.051369
H270	H	-0.062063	-0.311217	1.083055
C271	C	0.381340	-0.383298	0.554024
C272	C	0.344071	-0.330383	0.551001
C273	C	0.372530	-0.293566	0.523814
H274	H	0.403655	-0.392787	0.573452
H275	H	0.403607	-0.384723	0.518198
H276	H	0.321814	-0.328961	0.586822
H277	H	0.321755	-0.320878	0.531569
H278	H	0.394796	-0.294990	0.487987
H279	H	0.394844	-0.303059	0.543245
H280	H	0.347247	-0.257658	0.521755
H281	H	0.270000	-0.358795	0.596010
H282	H	0.102202	-0.248101	0.678192
C283	C	0.230253	-0.359418	0.533200
C284	C	0.238211	-0.322145	0.479917
C285	C	0.271020	-0.350606	0.442662
H286	H	0.264553	-0.381714	0.538598
H287	H	0.212803	-0.381706	0.538670
H288	H	0.255663	-0.299866	0.474450
H289	H	0.203921	-0.299848	0.474502
H290	H	0.253569	-0.372895	0.448131
H291	H	0.305317	-0.372902	0.448064
H292	H	0.276419	-0.325321	0.406505
H293	H	0.016700	-0.731943	0.465981
C294	C	0.133139	-0.359535	0.727984
C295	C	0.152597	-0.345646	0.751497
C296	C	0.138910	-0.374210	0.807699
H297	H	0.094586	-0.350200	0.744121
H298	H	0.149219	-0.397673	0.734022
H299	H	0.136515	-0.307516	0.745463
H300	H	0.191148	-0.354983	0.735376
H301	H	0.154989	-0.412349	0.813737
H302	H	0.100357	-0.364873	0.823831
H303	H	0.152114	-0.364794	0.823659
C304	C	-0.036781	-0.512806	0.221076
C305	C	-0.093625	-0.489234	0.234868
C306	C	-0.107500	-0.433031	0.206292
H307	H	-0.023714	-0.496701	0.230467
H308	H	-0.020706	-0.506778	0.182942
H309	H	-0.109694	-0.495258	0.272994
H310	H	-0.106705	-0.505323	0.225477
H311	H	-0.091425	-0.427003	0.168158
H312	H	-0.094430	-0.416931	0.215685
H313	H	-0.146069	-0.417031	0.215642
C314	C	0.060509	-0.707610	0.221245
C315	C	0.031792	-0.740356	0.235094
C316	C	0.064593	-0.777609	0.206629
H317	H	0.069961	-0.688313	0.183099
H318	H	0.092786	-0.729974	0.230698
H319	H	-0.000475	-0.717995	0.225638
H320	H	0.022341	-0.759665	0.273236
H321	H	0.096871	-0.799973	0.216082
H322	H	0.074043	-0.758307	0.168484
H323	H	0.045116	-0.799834	0.216025
C324	C	0.060066	-0.707612	0.509632
C325	C	0.068040	-0.760890	0.517649
C326	C	0.100790	-0.798163	0.550618
H327	H	0.094365	-0.702239	0.492292
H328	H	0.042566	-0.702133	0.543906
H329	H	0.085541	-0.766367	0.483381
H330	H	0.033751	-0.766280	0.534995
H331	H	0.083290	-0.792685	0.584892
H332	H	0.135087	-0.792786	0.533274
H333	H	0.106201	-0.834317	0.556065
H334	H	-0.067739	-0.562558	0.381123
H335	H	0.058362	-0.738230	0.391661
H336	H	-0.074948	-0.841721	0.489940
C337	C	0.107989	-0.849673	0.423989
C338	C	0.137302	-0.835823	0.367958
C339	C	0.193072	-0.864434	0.359822
H340	H	0.119856	-0.840349	0.441262
H341	H	0.114070	-0.887805	0.439200
H342	H	0.131224	-0.797700	0.352754
H343	H	0.125451	-0.845149	0.350673
H344	H	0.199153	-0.902565	0.375033
H345	H	0.204933	-0.855107	0.377097
H346	H	0.212967	-0.855045	0.321804
C347	C	-0.124569	-0.730354	0.457520
C348	C	-0.152670	-0.767571	0.485305
C349	C	-0.208432	-0.739045	0.493319
H350	H	-0.138088	-0.708037	0.478479
H351	H	-0.129816	-0.708081	0.423144
H352	H	-0.147426	-0.789834	0.519675
H353	H	-0.139168	-0.789889	0.464355
H354	H	-0.213679	-0.716772	0.458943
H355	H	-0.221945	-0.716729	0.514277
H356	H	-0.227505	-0.764292	0.512167
H357	H	-0.116534	-0.689457	0.508068
H358	H	-0.220220	-0.654760	0.542443
H359	H	-0.219915	-0.570138	0.372989
H360	H	-0.116227	-0.604815	0.338615
