data_functionalizedCrystal
_audit_creation_method	'MofGen! by Chris Wilmer'
_symmetry_space_group_name_H-M	'P1'
_symmetry_Int_Tables_number	1
_symmetry_cell_setting	triclinic
loop_
_symmetry_equiv_pos_as_xyz
  x,y,z
_cell_length_a	17.052733
_cell_length_b	20.875621
_cell_length_c	20.875625
_cell_angle_alpha	89.999829
_cell_angle_beta	55.701926
_cell_angle_gamma	51.303253
loop_
_atom_site_label
_atom_site_type_symbol
_atom_site_fract_x
_atom_site_fract_y
_atom_site_fract_z
Zr1	Zr	1.123988	0.406178	-0.301373
O2	O	1.338216	0.259516	-0.433560
O3	O	0.909762	0.478330	-0.236343
O4	O	1.123991	0.432188	-0.405147
O5	O	1.123984	0.311124	-0.159479
O6	O	1.123992	0.537464	-0.410612
O7	O	1.123987	0.305658	-0.264757
O8	O	0.740775	0.620003	-0.108653
O9	O	1.507201	0.228584	-0.461439
O10	O	0.997876	0.554816	-0.242297
O11	O	0.997874	0.480329	-0.159651
O12	O	1.250101	0.426003	-0.358396
O13	O	1.250098	0.351516	-0.275750
Zr14	Zr	1.123985	0.582798	-0.142185
Zr15	Zr	1.123989	0.574081	-0.310090
Zr16	Zr	1.123983	0.414896	-0.133468
Zr17	Zr	1.393500	0.356846	-0.345836
Zr18	Zr	0.854473	0.632131	-0.097722
O19	O	1.338211	0.510647	-0.207215
O20	O	1.338218	0.498251	-0.445954
O21	O	1.338209	0.271911	-0.194821
O22	O	0.909757	0.729461	-0.009998
O23	O	0.909764	0.717066	-0.248737
O24	O	0.909755	0.490726	0.002396
O25	O	1.123989	0.677853	-0.284079
O26	O	1.123982	0.556789	-0.038411
O27	O	1.123981	0.451513	-0.032946
O28	O	1.123986	0.683319	-0.178801
O29	O	1.507202	0.362044	-0.468367
O30	O	0.740771	0.626933	0.024809
O31	O	0.740772	0.760393	0.017881
O32	O	0.740776	0.753463	-0.115582
O33	O	1.507197	0.235513	-0.327976
O34	O	1.507198	0.368973	-0.334905
O35	O	0.997872	0.562974	-0.085162
O36	O	0.997875	0.637461	-0.167808
O37	O	1.250099	0.508648	-0.283907
O38	O	1.250097	0.434161	-0.201261
C39	C	0.786869	0.556196	-0.166163
C40	C	0.672454	0.577139	-0.147288
C41	C	0.525601	0.665031	-0.068074
C42	C	0.418105	0.684704	-0.050339
C43	C	0.457452	0.616490	-0.111820
C44	C	0.604308	0.528598	-0.191039
C45	C	0.711814	0.508920	-0.208772
C46	C	0.643665	0.460378	-0.252519
C47	C	0.790521	0.372487	-0.331738
C48	C	0.898015	0.352813	-0.349468
C49	C	0.858668	0.421027	-0.287987
C50	C	0.536159	0.480057	-0.234786
C51	C	0.722372	0.323945	-0.375485
C52	C	0.829868	0.304272	-0.393220
C53	C	1.123985	0.284468	-0.210876
C54	C	1.123984	0.213189	-0.207176
C55	C	1.123990	0.176690	-0.263438
C56	C	1.123982	0.109720	-0.259956
C57	C	1.123979	0.079245	-0.200216
C58	C	1.123969	0.115752	-0.143948
C59	C	1.123966	0.182726	-0.147426
C60	C	1.123976	-0.120732	-0.183592
C61	C	1.123983	-0.187713	-0.180120
C62	C	1.123993	-0.193739	-0.296127
C63	C	1.124000	-0.126768	-0.299604
C64	C	1.123982	-0.090263	-0.243332
N65	N	1.123975	0.010788	-0.196658
N66	N	1.123975	-0.021802	-0.246886
C67	C	1.461104	0.432781	-0.277395
C68	C	1.575519	0.411838	-0.296270
C69	C	1.123992	0.483584	-0.431803
C70	C	1.123994	0.479883	-0.503083
C71	C	1.123988	0.704508	-0.232682
C72	C	1.123989	0.775787	-0.236382
C73	C	1.123997	0.536141	-0.539581
C74	C	1.123986	0.532668	-0.606550
C75	C	1.123983	0.472931	-0.637025
C76	C	1.123976	0.416672	-0.600519
C77	C	1.123976	0.420150	-0.533546
C78	C	1.123972	0.456313	-0.836997
C79	C	1.123976	0.452836	-0.903977
C80	C	1.123983	0.568834	-0.910002
C81	C	1.123993	0.572303	-0.843032
C82	C	1.123978	0.516048	-0.806529
N83	N	1.123977	0.469378	-0.705480
N84	N	1.123974	0.519607	-0.738070
C85	C	1.123980	0.505393	-0.011755
C86	C	1.123978	0.509094	0.059525
C87	C	0.786870	0.766216	-0.177066
C88	C	0.672456	0.858438	-0.161891
C89	C	0.786863	0.567100	0.043860
C90	C	0.672446	0.591744	0.134016
C91	C	0.786864	0.777120	0.032957
C92	C	0.672448	0.873043	0.119413
C93	C	1.461108	0.211856	-0.476515
C94	C	1.575525	0.115934	-0.562971
C95	C	1.461102	0.222761	-0.266492
C96	C	1.575517	0.130539	-0.281667
C97	C	1.461110	0.421877	-0.487418
C98	C	1.575527	0.397233	-0.577574
C99	C	0.618727	0.858606	-0.193654
C100	C	0.511238	0.945248	-0.179413
C101	C	0.457472	1.031722	-0.133403
C102	C	0.511212	1.031551	-0.101641
C103	C	0.618707	0.944908	-0.115888
C104	C	0.618714	0.646457	0.215243
C105	C	0.511223	0.669607	0.299958
C106	C	0.457458	0.638049	0.303444
C107	C	0.511200	0.583329	0.222208
C108	C	0.618697	0.560174	0.137494
C109	C	0.618719	0.956978	0.116872
C110	C	0.511228	1.047111	0.198097
C111	C	0.457461	1.053308	0.281862
C112	C	0.511201	0.969364	0.284400
C113	C	0.618697	0.879231	0.203175
C114	C	1.629267	0.031997	-0.560432
C115	C	1.736792	-0.058142	-0.641663
C116	C	1.790564	-0.064341	-0.725429
C117	C	1.736817	0.019605	-0.727965
C118	C	1.629302	0.109741	-0.646737
C119	C	1.629257	0.130369	-0.249913
C120	C	1.736776	0.043720	-0.264177
C121	C	1.790545	-0.042755	-0.310190
C122	C	1.736800	-0.042583	-0.341948
C123	C	1.629291	0.044063	-0.327690
C124	C	1.629257	0.428806	-0.581030
C125	C	1.736750	0.405669	-0.665733
C126	C	1.790517	0.350952	-0.746979
C127	C	1.736775	0.319379	-0.743520
C128	C	1.629278	0.342523	-0.658817
H129	H	0.298540	0.756266	0.014163
H130	H	1.585491	0.037027	-0.492232
N131	N	1.056407	0.258017	-0.434911
H132	H	1.118537	0.255903	-0.436815
H133	H	1.078272	0.200929	-0.433193
H134	H	1.780569	0.274826	-0.809682
H135	H	0.662502	0.788200	-0.231130
H136	H	0.662432	0.515626	0.071360
H137	H	0.369927	0.656910	0.372430
H138	H	1.124001	0.201493	-0.312088
N139	N	0.453252	0.728645	0.387569
H140	H	0.376997	0.738528	0.441769
H141	H	0.535360	0.692413	0.381338
N142	N	1.794745	-0.148673	-0.638915
H143	H	1.744348	-0.131059	-0.573520
H144	H	1.776049	-0.176181	-0.660299
N145	N	1.906487	-0.136196	-0.325548
H146	H	1.869072	-0.160369	-0.294356
H147	H	1.995670	-0.187588	-0.394146
H148	H	1.124002	-0.101957	-0.348248
N149	N	0.676685	0.950310	0.026534
H150	H	0.626325	1.017166	0.037264
H151	H	0.784604	0.903016	-0.019499
N152	N	1.123962	0.388403	-0.936834
H153	H	1.034430	0.430102	-0.923277
H154	H	1.213561	0.338651	-1.005692
N155	N	1.124032	-0.233121	-0.356826
H156	H	1.124040	-0.280177	-0.345564
H157	H	1.034500	-0.177009	-0.341556
N158	N	1.794812	0.012917	-0.818313
H159	H	1.902727	-0.034335	-0.864381
H160	H	1.776006	-0.011134	-0.843407
N161	N	1.571333	0.308462	-0.655096
H162	H	1.621716	0.270288	-0.719421
H163	H	1.590053	0.265149	-0.630051
H164	H	1.878110	-0.137741	-0.791563
N165	N	0.453184	0.549309	0.225984
H166	H	0.408567	0.577459	0.202650
H167	H	0.535247	0.475388	0.185862
N168	N	1.123988	-0.220589	-0.115688
H169	H	1.123976	-0.187301	-0.080567
H170	H	1.034456	-0.202525	-0.070510
N171	N	1.906473	0.325980	-0.838340
H172	H	1.869066	0.354494	-0.865618
H173	H	1.932312	0.354281	-0.828130
H174	H	0.949451	0.232710	-0.457720
H175	H	0.416595	0.551619	-0.170284
N176	N	0.453276	1.137641	0.195349
H177	H	0.503643	1.120033	0.129959
H178	H	0.345358	1.188324	0.237620
H179	H	1.124009	0.584780	-0.514778
H180	H	1.585546	0.178083	-0.648813
H181	H	1.585486	0.200774	-0.212440
H182	H	0.754416	0.268400	-0.425548
H183	H	0.369918	0.632513	-0.097375
N184	N	1.794728	0.043547	-0.229919
H185	H	1.744335	0.111481	-0.198599
H186	H	1.776027	0.023108	-0.184254
H187	H	1.585538	0.044190	-0.353546
H188	H	0.662439	0.944786	-0.090015
N189	N	1.123985	0.070355	-0.320638
H190	H	1.213516	-0.003293	-0.362991
H191	H	1.034385	0.088236	-0.280501
N192	N	1.124053	0.593319	-0.645937
H193	H	1.034544	0.665012	-0.594399
H194	H	1.213675	0.573436	-0.676818
N195	N	1.571281	0.487821	-0.493408
H196	H	1.621639	0.504309	-0.508463
H197	H	1.463363	0.550337	-0.448171
H198	H	1.780596	-0.113003	-0.379413
H199	H	1.780495	0.431382	-0.668532
H200	H	0.467408	0.974424	0.352612
N201	N	0.483169	0.738596	-0.001767
H202	H	0.573556	0.712791	-0.025022
H203	H	0.423730	0.802560	0.002710
H204	H	1.123966	-0.091017	-0.137775
N205	N	0.974603	0.399819	-0.307111
H206	H	0.963937	0.399291	-0.254421
H207	H	1.073554	0.333799	-0.366645
H208	H	1.123957	0.090940	-0.095302
H209	H	1.123995	0.620946	-0.818221
N210	N	1.123945	0.222104	-0.086737
H211	H	1.123943	0.192637	-0.048364
H212	H	1.213478	0.204302	-0.126862
H213	H	1.123963	0.410505	-0.807283
N214	N	1.123997	0.629507	-0.949374
H215	H	1.034461	0.676378	-0.936082
H216	H	1.124054	0.667814	-0.919890
N217	N	1.123957	0.352248	-0.633377
H218	H	1.123961	0.358578	-0.681344
H219	H	1.213493	0.281800	-0.661568
N220	N	0.341490	1.150532	0.369468
H221	H	0.315568	1.141731	0.422925
H222	H	0.378984	1.175876	0.361568
N223	N	1.123962	0.359479	-0.494172
H224	H	1.123961	0.321107	-0.523639
H225	H	1.213497	0.312667	-0.507464
H226	H	0.467496	0.945369	-0.205280
H227	H	0.467421	1.101970	-0.064179
N228	N	0.341534	1.125169	-0.118042
H229	H	0.315661	1.112145	-0.145147
H230	H	0.252394	1.176578	-0.049445
N231	N	0.676686	0.680504	0.211497
H232	H	0.626327	0.718673	0.275815
H233	H	0.784605	0.621743	0.169643
H234	H	0.662430	0.810894	0.205256
