data_functionalizedCrystal
_audit_creation_method	'MofGen! by Chris Wilmer'
_symmetry_space_group_name_H-M	'P1'
_symmetry_Int_Tables_number	1
_symmetry_cell_setting	triclinic
loop_
_symmetry_equiv_pos_as_xyz
  x,y,z
_cell_length_a	11.169417
_cell_length_b	11.169416
_cell_length_c	11.169409
_cell_angle_alpha	90.031307
_cell_angle_beta	90.020564
_cell_angle_gamma	90.011027
loop_
_atom_site_label
_atom_site_type_symbol
_atom_site_fract_x
_atom_site_fract_y
_atom_site_fract_z
Zn1	Zn	-1.834973	0.477683	-0.678551
Zn2	Zn	-1.834860	0.678423	-0.477871
Zn3	Zn	-1.634256	0.477755	-0.477885
Zn4	Zn	-1.634267	0.678325	-0.678516
O5	O	-1.734589	0.578047	-0.578206
O6	O	-2.002907	0.504321	-0.651939
O7	O	-1.808198	0.651875	-0.309923
O8	O	-1.660924	0.309796	-0.504524
O9	O	-2.002825	0.651804	-0.504500
O10	O	-1.808390	0.309742	-0.651953
O11	O	-1.660815	0.504446	-0.309934
O12	O	-1.466308	0.504351	-0.504491
O13	O	-1.660942	0.651638	-0.846470
O14	O	-1.466316	0.651709	-0.651893
O15	O	-1.808400	0.504227	-0.846496
O16	O	-1.808208	0.846360	-0.504467
O17	O	-1.660833	0.846288	-0.651880
C18	C	-1.422764	0.578028	-0.578190
C19	C	-1.289364	0.578049	-0.578212
C20	C	-1.734542	0.889871	-0.578194
C21	C	-1.734632	1.023271	-0.578229
C22	C	-1.734685	0.577914	-0.891248
C23	C	-1.734726	0.577857	-1.024649
C24	C	-2.047631	0.578066	-0.578222
C25	C	-2.181031	0.578074	-0.578229
C26	C	-1.734668	0.265004	-0.578244
C27	C	-1.734702	0.131604	-0.578260
C28	C	-1.734562	0.578092	-0.266381
C29	C	-1.734754	0.577811	-0.132982
