data_functionalizedCrystal
_audit_creation_method	'MofGen! by Chris Wilmer'
_symmetry_space_group_name_H-M	'P1'
_symmetry_Int_Tables_number	1
_symmetry_cell_setting	triclinic
loop_
_symmetry_equiv_pos_as_xyz
  x,y,z
_cell_length_a	12.594517
_cell_length_b	29.839131
_cell_length_c	12.594510
_cell_angle_alpha	89.959328
_cell_angle_beta	89.984234
_cell_angle_gamma	90.041378
loop_
_atom_site_label
_atom_site_type_symbol
_atom_site_fract_x
_atom_site_fract_y
_atom_site_fract_z
Zn1	Zn	1.627095	-0.178815	-0.601611
Zn2	Zn	1.626902	-0.253957	-0.423611
Zn3	Zn	1.449094	-0.178842	-0.423661
Zn4	Zn	1.449002	-0.253919	-0.601563
O5	O	1.538023	-0.216383	-0.512612
O6	O	1.776015	-0.188788	-0.577998
O7	O	1.603273	-0.244020	-0.274672
O8	O	1.472825	-0.115971	-0.447308
O9	O	1.775873	-0.243994	-0.447222
O10	O	1.603602	-0.115951	-0.578046
O11	O	1.472639	-0.188834	-0.274709
O12	O	1.300136	-0.188796	-0.447262
O13	O	1.472668	-0.243929	-0.750515
O14	O	1.300068	-0.243955	-0.577965
O15	O	1.603512	-0.188750	-0.750550
O16	O	1.603184	-0.316819	-0.447176
O17	O	1.472482	-0.316791	-0.577917
C18	C	1.261482	-0.216375	-0.512614
C19	C	1.143177	-0.216382	-0.512641
C20	C	1.003154	-0.246437	-0.583598
C21	C	1.073911	-0.257376	-0.486454
C22	C	1.073992	-0.205462	-0.609774
C23	C	1.003148	-0.227357	-0.415413
C24	C	1.003223	-0.175424	-0.538799
C25	C	1.073947	-0.186348	-0.441587
C26	C	1.537831	-0.333106	-0.512559
C27	C	1.537846	-0.383040	-0.512572
C28	C	1.606204	-0.692686	-0.444635
C29	C	1.606335	-0.880359	-0.444676
O30	O	1.664303	-0.904625	-0.386873
N31	N	1.538244	-0.903825	-0.512692
C32	C	1.470120	-0.880371	-0.580707
O33	O	1.412215	-0.904637	-0.638568
C34	C	1.469995	-0.692698	-0.580671
C35	C	1.538083	-0.669234	-0.512643
C36	C	1.674287	-0.669222	-0.376613
C37	C	1.674249	-0.622306	-0.376599
C38	C	1.606128	-0.598855	-0.444607
C39	C	1.538045	-0.622319	-0.512629
C40	C	1.401877	-0.669245	-0.648691
C41	C	1.401853	-0.622324	-0.648678
C42	C	1.469942	-0.598860	-0.580649
C43	C	1.469886	-0.551952	-0.580623
N44	N	1.537978	-0.528486	-0.512607
C45	C	1.606099	-0.551937	-0.444599
C46	C	1.470189	-0.978901	-0.580720
C47	C	1.470219	-1.025819	-0.580728
C48	C	1.606436	-1.025804	-0.444698
C49	C	1.606400	-0.978885	-0.444685
C50	C	1.538280	-0.955435	-0.512704
C51	C	1.606014	-0.453411	-0.444575
C52	C	1.605967	-0.406492	-0.444564
C53	C	1.469755	-0.406511	-0.580598
C54	C	1.469797	-0.453426	-0.580605
C55	C	1.537935	-0.476875	-0.512590
O56	O	1.411958	-0.527657	-0.638405
O57	O	1.664012	-0.527663	-0.386764
C58	C	1.606241	-0.739601	-0.444648
C59	C	1.538158	-0.763065	-0.512670
C60	C	1.470037	-0.739614	-0.580678
C61	C	1.538188	-0.809983	-0.512678
C62	C	1.606309	-0.833434	-0.444670
C63	C	1.674400	-0.809968	-0.376654
C64	C	1.674362	-0.763052	-0.376640
C65	C	1.401946	-0.763081	-0.648694
C66	C	1.401988	-0.809996	-0.648701
C67	C	1.470109	-0.833447	-0.580693
C68	C	1.815644	-0.216392	-0.512610
C69	C	1.933949	-0.216396	-0.512609
C70	C	1.538102	-0.216332	-0.790233
C71	C	1.538135	-0.216310	-0.908538
C72	C	1.538245	-0.099205	-0.512688
C73	C	1.538340	-0.049270	-0.512720
C74	C	1.609326	-0.186290	-1.048574
C75	C	1.635271	-0.227283	-0.977739
C76	C	1.512238	-0.175322	-0.977802
C77	C	1.564174	-0.257311	-1.048489
C78	C	1.441096	-0.205323	-1.048558
C79	C	1.467004	-0.246344	-0.977755
C80	C	1.538006	-0.216402	-0.236071
C81	C	1.538179	-0.216297	-0.117766
H82	H	0.972148	-0.140791	-0.560973
H83	H	1.490316	-0.140665	-0.946748
C84	C	1.680152	-0.953388	-0.370700
C85	C	1.619910	-0.926508	-0.302405
C86	C	1.687817	-0.903021	-0.234225
H87	H	1.726521	-0.935017	-0.411324
H88	H	1.720703	-0.974064	-0.330137
H89	H	1.579377	-0.905834	-0.342964
H90	H	1.573544	-0.944868	-0.261758
H91	H	1.728368	-0.923697	-0.193662
H92	H	1.734183	-0.884652	-0.274857
H93	H	1.646953	-0.884783	-0.187873
H94	H	0.972160	-0.236640	-0.333232
C95	C	0.961755	-0.280413	-0.663388
C96	C	0.997552	-0.323243	-0.635480
C97	C	0.959424	-0.354554	-0.708943
H98	H	0.987028	-0.272997	-0.732266
H99	H	0.886328	-0.280021	-0.663258
H100	H	1.072964	-0.323633	-0.635621
H101	H	0.972282	-0.330673	-0.566614
H102	H	0.883996	-0.354162	-0.708813
H103	H	0.984699	-0.347134	-0.777817
H104	H	0.983698	-0.383618	-0.690013
C105	C	1.748354	-0.737523	-0.302957
C106	C	1.816513	-0.710530	-0.363264
C107	C	1.884684	-0.687005	-0.295421
H108	H	1.789027	-0.758163	-0.262437
H109	H	1.707685	-0.719228	-0.256555
H110	H	1.857179	-0.728823	-0.409648
H111	H	1.775870	-0.689881	-0.403782
H112	H	1.844014	-0.668710	-0.249019
H113	H	1.925349	-0.707648	-0.254905
H114	H	1.930931	-0.668684	-0.336329
C115	C	1.115340	-0.193198	-0.719414
C116	C	1.079445	-0.224763	-0.793389
C117	C	1.117499	-0.213481	-0.894402
H118	H	1.190755	-0.193021	-0.718625
H119	H	1.090066	-0.164310	-0.738555
H120	H	1.104725	-0.253643	-0.774253
H121	H	1.004034	-0.224944	-0.794212
H122	H	1.092225	-0.184593	-0.913542
H123	H	1.192914	-0.213304	-0.893601
H124	H	1.093143	-0.234893	-0.944607
H125	H	1.661412	-0.387388	-0.389164
C126	C	1.114937	-0.152460	-0.361378
C127	C	1.028889	-0.131721	-0.311050
C128	C	1.066610	-0.100509	-0.237143
H129	H	1.156474	-0.130472	-0.396816
H130	H	1.157347	-0.167347	-0.309930
H131	H	0.986496	-0.116835	-0.362490
H132	H	0.987344	-0.153698	-0.275591
H133	H	1.109021	-0.115396	-0.185694
H134	H	1.108147	-0.078524	-0.272589
H135	H	1.008233	-0.086437	-0.202979
C136	C	1.744638	-0.239762	-0.936201
C137	C	1.737150	-0.278846	-0.875068
C138	C	1.837880	-0.290357	-0.836807
H139	H	1.771448	-0.216061	-0.893604
H140	H	1.791236	-0.244767	-0.994322
H141	H	1.690568	-0.273839	-0.816955
H142	H	1.710357	-0.302556	-0.917642
H143	H	1.884479	-0.295362	-0.894928
H144	H	1.864683	-0.266653	-0.794215
H145	H	1.832815	-0.316878	-0.795333
C146	C	1.115531	-0.303530	-0.456891
C147	C	1.226686	-0.302798	-0.456340
C148	C	1.265057	-0.345306	-0.429106
H149	H	1.091410	-0.324885	-0.507331
H150	H	1.090291	-0.311503	-0.388335
H151	H	1.251916	-0.294830	-0.524885
H152	H	1.250835	-0.281452	-0.405898
H153	H	1.239818	-0.353280	-0.360551
H154	H	1.240929	-0.366657	-0.479550
H155	H	1.340479	-0.344814	-0.428719
H156	H	1.661501	-0.472498	-0.389193
H157	H	1.729696	-0.603204	-0.321208
H158	H	1.359038	-0.196020	-1.079690
C159	C	1.386612	-0.280152	-0.936485
C160	C	1.310074	-0.257983	-0.875378
C161	C	1.235999	-0.289112	-0.837353
H162	H	1.421778	-0.301838	-0.893922
H163	H	1.353100	-0.294616	-0.994715
H164	H	1.343583	-0.243526	-0.817157
H165	H	1.274881	-0.236300	-0.917918
H166	H	1.202486	-0.303576	-0.895583
H167	H	1.271174	-0.310796	-0.794795
H168	H	1.184054	-0.274075	-0.795896
H169	H	1.729765	-0.688311	-0.321232
H170	H	1.414357	-0.472532	-0.636002
H171	H	1.414765	-1.044920	-0.636114
C172	C	1.680434	-1.051352	-0.371052
C173	C	1.665930	-1.097461	-0.385681
C174	C	1.734122	-1.121011	-0.317911
H175	H	1.665040	-1.043767	-0.299451
H176	H	1.751932	-1.043638	-0.386776
H177	H	1.594448	-1.105171	-0.369950
H178	H	1.681331	-1.105059	-0.457269
H179	H	1.805621	-1.113298	-0.333634
H180	H	1.718723	-1.113423	-0.246313
H181	H	1.724298	-1.152299	-0.327834
H182	H	1.346427	-0.688341	-0.704082
H183	H	1.414715	-0.959811	-0.636111
H184	H	1.346383	-0.603233	-0.704070
C185	C	1.395916	-0.380963	-0.654395
C186	C	1.410489	-0.334853	-0.639838
C187	C	1.342504	-0.311303	-0.707818
H188	H	1.324368	-0.388631	-0.638840
H189	H	1.411479	-0.388593	-0.725947
H190	H	1.394920	-0.327225	-0.568303
H191	H	1.482024	-0.327172	-0.655401
H192	H	1.358067	-0.318934	-0.779370
H193	H	1.270960	-0.318975	-0.692257
H194	H	1.352390	-0.280015	-0.697958
H195	H	1.729864	-0.829070	-0.321276
C196	C	1.593594	-0.303497	-1.089916
C197	C	1.593353	-0.302942	-1.201078
C198	C	1.620476	-0.345476	-1.239279
H199	H	1.543408	-0.324878	-1.065220
H200	H	1.662358	-0.311343	-1.065132
H201	H	1.524600	-0.295102	-1.225852
H202	H	1.643540	-0.281570	-1.225802
H203	H	1.689239	-0.353322	-1.214495
H204	H	1.570287	-0.366853	-1.214576
H205	H	1.620326	-0.345104	-1.314706
H206	H	1.346533	-0.829097	-0.704097
C207	C	1.327857	-0.737704	-0.722569
C208	C	1.268221	-0.768303	-0.782110
C209	C	1.199938	-0.744945	-0.850163
H210	H	1.368401	-0.719364	-0.769076
H211	H	1.281429	-0.719449	-0.681831
H212	H	1.314643	-0.786551	-0.822846
H213	H	1.227655	-0.786644	-0.735632
H214	H	1.153510	-0.726689	-0.809424
H215	H	1.240491	-0.726605	-0.896662
H216	H	1.159461	-0.765702	-0.890562
H217	H	1.669558	-0.160940	-1.079668
