data_functionalizedCrystal
_audit_creation_method	'MofGen! by Chris Wilmer'
_symmetry_space_group_name_H-M	'P1'
_symmetry_Int_Tables_number	1
_symmetry_cell_setting	triclinic
loop_
_symmetry_equiv_pos_as_xyz
  x,y,z
_cell_length_a	21.395362
_cell_length_b	12.594516
_cell_length_c	21.395355
_cell_angle_alpha	89.988593
_cell_angle_beta	89.956060
_cell_angle_gamma	90.031933
loop_
_atom_site_label
_atom_site_type_symbol
_atom_site_fract_x
_atom_site_fract_y
_atom_site_fract_z
Zn1	Zn	0.957923	-0.423414	-0.354617
Zn2	Zn	1.457923	0.076586	0.145383
Zn3	Zn	0.957853	-0.601379	-0.249852
Zn4	Zn	1.457853	-0.101379	0.250148
Zn5	Zn	0.853138	-0.423464	-0.249818
Zn6	Zn	1.353138	0.076536	0.250182
Zn7	Zn	0.853134	-0.601400	-0.354557
Zn8	Zn	1.353134	-0.101400	0.145443
O9	O	0.905512	-0.512414	-0.302211
O10	O	1.405512	-0.012414	0.197789
O11	O	1.045592	-0.446992	-0.340759
O12	O	1.545592	0.053008	0.159241
O13	O	0.943934	-0.577789	-0.162170
O14	O	1.443934	-0.077789	0.337830
O15	O	0.867069	-0.274511	-0.263730
O16	O	1.367069	0.225489	0.236270
O17	O	1.045540	-0.577741	-0.263789
O18	O	1.545540	-0.077741	0.236211
O19	O	0.944055	-0.274475	-0.340725
O20	O	1.444055	0.225525	0.159275
O21	O	0.867001	-0.447076	-0.162144
O22	O	1.367001	0.052924	0.337856
O23	O	0.765460	-0.447097	-0.263672
O24	O	1.265460	0.052903	0.236328
O25	O	0.867063	-0.577779	-0.442243
O26	O	1.367063	-0.077779	0.057757
O27	O	0.765457	-0.577827	-0.340624
O28	O	1.265457	-0.077827	0.159376
O29	O	0.944051	-0.447013	-0.442287
O30	O	1.444051	0.052987	0.057713
O31	O	0.943930	-0.750327	-0.263731
O32	O	1.443930	-0.250327	0.236269
O33	O	0.866994	-0.750343	-0.340657
O34	O	1.366994	-0.250343	0.159343
C35	C	0.742724	-0.512471	-0.302138
C36	C	1.242724	-0.012471	0.197862
C37	C	0.673083	-0.512520	-0.302122
C38	C	1.173083	-0.012520	0.197878
C39	C	0.640385	-0.580681	-0.342130
C40	C	1.140385	-0.080681	0.157870
C41	C	0.574949	-0.580655	-0.342158
C42	C	1.074949	-0.080655	0.157842
C43	C	0.542215	-0.512479	-0.302167
C44	C	1.042215	-0.012479	0.197833
C45	C	0.574921	-0.444305	-0.262155
C46	C	1.074921	0.055695	0.237845
C47	C	0.640355	-0.444326	-0.262133
C48	C	1.140355	0.055674	0.237867
C49	C	0.438489	-0.503905	-0.245761
C50	C	0.938489	-0.003905	0.254239
C51	C	0.373056	-0.503892	-0.245782
C52	C	0.873056	-0.003892	0.254218
C53	C	0.340394	-0.512410	-0.302236
C54	C	0.840394	-0.012410	0.197764
C55	C	0.373173	-0.520963	-0.358670
C56	C	0.873173	-0.020963	0.141330
C57	C	0.438608	-0.520984	-0.358648
C58	C	0.938608	-0.020984	0.141352
C59	C	0.471262	-0.512449	-0.302187
C60	C	0.971262	-0.012449	0.197813
C61	C	0.236743	-0.580546	-0.342278
C62	C	0.736743	-0.080546	0.157722
C63	C	0.171307	-0.580513	-0.342307
C64	C	0.671307	-0.080513	0.157693
C65	C	0.171280	-0.444168	-0.262298
C66	C	0.671280	0.055832	0.237702
C67	C	0.236715	-0.444196	-0.262275
C68	C	0.736715	0.055804	0.237725
C69	C	0.269443	-0.512391	-0.302264
C70	C	0.769443	-0.012391	0.197736
C71	C	0.905471	-0.788955	-0.302205
C72	C	1.405471	-0.288955	0.197795
C73	C	0.905511	-0.907261	-0.302223
C74	C	1.405511	-0.407261	0.197777
C75	C	0.863661	-0.976561	-0.344034
C76	C	1.363661	-0.476561	0.155966
C77	C	0.848392	-1.047409	-0.286856
C78	C	1.348392	-0.547409	0.213144
C79	C	0.920837	-1.047212	-0.359410
C80	C	1.420837	-0.547212	0.140590
C81	C	0.890211	-0.976550	-0.245015
C82	C	1.390211	-0.476550	0.254985
C83	C	0.962683	-0.976347	-0.317608
C84	C	1.462683	-0.476347	0.182392
C85	C	0.947436	-1.047163	-0.260391
C86	C	1.447436	-0.547163	0.239609
C87	C	1.068935	-0.512359	-0.302284
C88	C	1.568935	-0.012359	0.197716
C89	C	1.138577	-0.512335	-0.302315
C90	C	1.638577	-0.012335	0.197685
C91	C	0.905564	-0.512393	-0.465634
C92	C	1.405564	-0.012393	0.034366
C93	C	0.905586	-0.512384	-0.535275
C94	C	1.405586	-0.012384	-0.035275
C95	C	0.905570	-0.234793	-0.302231
C96	C	1.405570	0.265207	0.197769
C97	C	0.905595	-0.116488	-0.302239
C98	C	1.405595	0.383512	0.197761
C99	C	0.945672	-0.444291	-0.568012
C100	C	1.445672	0.055709	-0.068012
C101	C	0.945671	-0.444245	-0.633448
C102	C	1.445671	0.055755	-0.133448
C103	C	0.905591	-0.512311	-0.666144
C104	C	1.405591	-0.012311	-0.166144
C105	C	0.865497	-0.580408	-0.633399
C106	C	1.365497	-0.080408	-0.133399
C107	C	0.865495	-0.580445	-0.567965
C108	C	1.365495	-0.080445	-0.067965
C109	C	0.900630	-0.608151	-0.769815
C110	C	1.400630	-0.108151	-0.269815
C111	C	0.900636	-0.608116	-0.835248
C112	C	1.400636	-0.108116	-0.335248
C113	C	0.905595	-0.512199	-0.867965
C114	C	1.405595	-0.012199	-0.367965
C115	C	0.910560	-0.416312	-0.835241
C116	C	1.410560	0.083688	-0.335241
C117	C	0.910557	-0.416349	-0.769806
C118	C	1.410557	0.083651	-0.269806
C119	C	0.905589	-0.512279	-0.737096
C120	C	1.405589	-0.012279	-0.237096
C121	C	0.945682	-0.444051	-0.971654
C122	C	1.445682	0.055949	-0.471654
C123	C	0.945677	-0.444003	-1.037091
C124	C	1.445677	0.055997	-0.537091
C125	C	0.865506	-0.580176	-1.037041
C126	C	1.365506	-0.080176	-0.537041
C127	C	0.865508	-0.580214	-0.971605
C128	C	1.365508	-0.080214	-0.471605
C129	C	0.905599	-0.512153	-0.938916
C130	C	1.405599	-0.012153	-0.438916
C131	C	0.905496	-0.512359	-0.139423
C132	C	1.405496	-0.012359	0.360577
C133	C	0.905596	-0.512068	-0.069782
C134	C	1.405596	-0.012068	0.430218
H135	H	0.465077	-0.496964	-0.199786
H136	H	0.965077	0.003036	0.300214
N137	N	1.026660	-0.934968	-0.334864
N138	N	1.526660	-0.434968	0.165136
H139	H	1.026248	-0.854784	-0.334326
H140	H	1.526248	-0.354784	0.165674
H141	H	1.058392	-0.961845	-0.303733
H142	H	1.558392	-0.461845	0.196267
H143	H	0.263392	-0.636069	-0.374843
H144	H	0.763392	-0.136069	0.125157
N145	N	0.994359	-1.087977	-0.213511
N146	N	1.494359	-0.587977	0.286489
H147	H	0.994394	-1.168166	-0.214029
H148	H	1.494394	-0.668166	0.285971
H149	H	1.037362	-1.060907	-0.224765
H150	H	1.537362	-0.560907	0.275235
H151	H	0.263338	-0.388697	-0.229692
H152	H	0.763338	0.111303	0.270308
N153	N	0.822279	-0.653595	-1.072298
N154	N	1.322279	-0.153595	-0.572298
H155	H	0.796886	-0.696742	-1.041627
H156	H	1.296886	-0.196742	-0.541627
H157	H	0.793293	-0.610263	-1.099422
H158	H	1.293293	-0.110263	-0.599422
N159	N	0.937965	-1.088339	-0.423459
N160	N	1.437965	-0.588339	0.076541
H161	H	0.906290	-1.062658	-0.454998
H162	H	1.406290	-0.562658	0.045002
H163	H	0.980821	-1.061373	-0.435344
H164	H	1.480821	-0.561373	0.064656
H165	H	0.144628	-0.388653	-0.229739
H166	H	0.644628	0.111347	0.270261
N167	N	0.784399	-1.088767	-0.269626
N168	N	1.284399	-0.588767	0.230374
H169	H	0.787431	-1.132908	-0.230330
H170	H	1.287431	-0.632908	0.269670
H171	H	0.755236	-1.026998	-0.262229
H172	H	1.255236	-0.526998	0.237771
H173	H	0.978323	-0.388625	-0.945037
H174	H	1.478323	0.111375	-0.445037
N175	N	0.873010	-0.935610	-0.180945
N176	N	1.373010	-0.435610	0.319055
H177	H	0.829999	-0.962091	-0.169237
H178	H	1.329999	-0.462091	0.330763
H179	H	0.904478	-0.961902	-0.149376
H180	H	1.404478	-0.461902	0.350624
H181	H	0.548321	-0.636159	-0.374740
H182	H	1.048321	-0.136159	0.125260
H183	H	0.978319	-0.388548	-1.063744
H184	H	1.478319	0.111452	-0.563744
H185	H	0.978317	-0.388869	-0.541401
H186	H	1.478317	0.111131	-0.041401
N187	N	0.895289	-0.711615	-0.734532
N188	N	1.395289	-0.211615	-0.234532
H189	H	0.856680	-0.710224	-0.707354
H190	H	1.356680	-0.210224	-0.207354
H191	H	0.892179	-0.772290	-0.765232
H192	H	1.392179	-0.272290	-0.265232
H193	H	0.978313	-0.388790	-0.660108
H194	H	1.478313	0.111210	-0.160108
H195	H	0.832870	-0.635669	-0.944951
H196	H	1.332870	-0.135669	-0.444951
H197	H	0.914598	-0.338275	-0.743165
H198	H	1.414598	0.161725	-0.243165
N199	N	0.915914	-0.312849	-0.870517
N200	N	1.415914	0.187151	-0.370517
H201	H	0.915161	-0.327370	-0.916935
H202	H	1.415161	0.172630	-0.416935
H203	H	0.879693	-0.265279	-0.859047
H204	H	1.379693	0.234721	-0.359047
H205	H	0.548264	-0.388794	-0.229595
H206	H	1.048264	0.111206	0.270405
H207	H	0.666978	-0.388818	-0.229553
H208	H	1.166978	0.111182	0.270447
H209	H	0.896598	-0.686193	-0.861887
H210	H	1.396598	-0.186193	-0.361887
N211	N	0.822257	-0.653806	-0.668659
N212	N	1.322257	-0.153806	-0.168659
H213	H	0.828340	-0.643449	-0.715080
H214	H	1.328340	-0.143449	-0.215080
H215	H	0.831983	-0.729831	-0.657237
H216	H	1.331983	-0.229831	-0.157237
H217	H	0.832849	-0.635892	-0.541311
H218	H	1.332849	-0.135892	-0.041311
N219	N	0.816708	-0.935478	-0.390804
N220	N	1.316708	-0.435478	0.109196
H221	H	0.795152	-0.997315	-0.411748
H222	H	1.295152	-0.497315	0.088252
H223	H	0.784671	-0.890301	-0.368566
H224	H	1.284671	-0.390301	0.131434
N225	N	0.675678	-0.654231	-0.385264
N226	N	1.175678	-0.154231	0.114736
H227	H	0.664344	-0.637809	-0.430051
H228	H	1.164344	-0.137809	0.069949
H229	H	0.722082	-0.643876	-0.379130
H230	H	1.222082	-0.143876	0.120870
N231	N	0.473964	-0.530207	-0.419510
N232	N	0.973964	-0.030207	0.080490
H233	H	0.443348	-0.535602	-0.455279
H234	H	0.943348	-0.035602	0.044721
H235	H	0.501147	-0.465378	-0.425380
H236	H	1.001147	0.034622	0.074620
H237	H	0.144685	-0.636015	-0.374891
H238	H	0.644685	-0.136015	0.125109
H239	H	0.346582	-0.527898	-0.404640
H240	H	0.846582	-0.027898	0.095360
H241	H	0.346372	-0.496933	-0.199830
H242	H	0.846372	0.003067	0.300170
