data_functionalizedCrystal
_audit_creation_method	'MofGen! by Chris Wilmer'
_symmetry_space_group_name_H-M	'P1'
_symmetry_Int_Tables_number	1
_symmetry_cell_setting	triclinic
loop_
_symmetry_equiv_pos_as_xyz
  x,y,z
_cell_length_a	6.817900
_cell_length_b	14.125469
_cell_length_c	16.305656
_cell_angle_alpha	95.878552
_cell_angle_beta	103.457069
_cell_angle_gamma	100.398878
loop_
_atom_site_label
_atom_site_type_symbol
_atom_site_fract_x
_atom_site_fract_y
_atom_site_fract_z
V1	V	-4.010579	-0.133896	-0.262700
O2	O	-4.014504	0.005628	-0.258035
O3	O	-3.946719	-0.264718	-0.260581
O4	O	-3.962187	-0.132190	-0.377420
O5	O	-3.998929	-0.127817	-0.140387
V6	V	-4.496209	-0.117166	-0.248110
O7	O	-4.267215	-0.170596	-0.294705
O8	O	-4.689771	-0.080466	-0.216104
O9	O	-4.336863	0.013657	-0.250229
O10	O	-4.609682	-0.256690	-0.252775
O11	O	-4.625256	-0.123244	-0.370423
O12	O	-4.321395	-0.118872	-0.133390
C13	C	-3.787959	-0.296599	-0.256353
C14	C	-3.817033	-0.403550	-0.255385
C15	C	-3.807688	-0.127545	-0.405392
C16	C	-3.849304	-0.127015	-0.499174
C17	C	-3.870331	-0.599370	-0.253626
C18	C	-4.055825	-0.651703	-0.257187
C19	C	-4.085483	-0.760664	-0.256208
C20	C	-3.840665	-0.490399	-0.254605
C21	C	-3.925549	-0.126020	-0.670876
C22	C	-3.722032	-0.119998	-0.701421
C23	C	-3.765116	-0.119065	-0.798914
C24	C	-4.000615	-0.125040	-0.839928
C25	C	-4.063287	-0.035995	-0.794714
C26	C	-4.018502	-0.036444	-0.697094
C27	C	-4.083904	-0.220417	-0.721768
C28	C	-4.123542	-0.220956	-0.819416
C29	C	-4.043049	-0.124484	-0.935469
C30	C	-3.883118	-0.126570	-0.575334
C31	C	-4.158965	0.045532	-0.254454
C32	C	-4.109129	0.152483	-0.255427
C33	C	-4.139236	-0.123520	-0.105413
C34	C	-4.076860	-0.124044	-0.011631
H35	H	-3.733809	-0.636397	-0.249841
H36	H	-3.603591	-0.051893	-0.666035
N37	N	-3.698696	-0.198896	-0.837540
N38	N	-3.620117	-0.255691	-0.792512
H39	H	-3.573198	-0.312075	-0.819787
N40	N	-3.642641	-0.032694	-0.814502
N41	N	-3.653216	-0.016993	-0.889308
H42	H	-3.566717	0.044011	-0.900318
N43	N	-3.628415	-0.200184	-0.680566
N44	N	-3.710583	-0.262705	-0.642943
H45	H	-3.644466	-0.319341	-0.628209
H46	H	-3.908049	0.034615	-0.663239
H47	H	-4.025910	-0.288555	-0.704883
N48	N	-4.205622	-0.037027	-0.671556
N49	N	-4.368841	-0.037095	-0.725822
H50	H	-4.500991	-0.037496	-0.707789
N51	N	-4.277335	-0.037231	-0.828035
N52	N	-4.386339	-0.103913	-0.885618
H53	H	-4.537513	-0.104790	-0.909153
H54	H	-4.192357	-0.614674	-0.260969
N55	N	-3.953365	0.053038	-0.811559
N56	N	-3.828808	0.051148	-0.856822
H57	H	-3.751164	0.114026	-0.868719
N58	N	-4.065137	-0.303654	-0.857593
N59	N	-3.933493	-0.292071	-0.899764
H60	H	-3.892248	-0.350475	-0.926735
N61	N	-4.274150	-0.227107	-0.697721
N62	N	-4.421254	-0.297349	-0.731067
H63	H	-4.555607	-0.302069	-0.714079
N64	N	-4.340422	-0.233434	-0.855697
N65	N	-4.409022	-0.239754	-0.934577
H66	H	-4.562200	-0.248557	-0.960198
