data_functionalizedCrystal
_audit_creation_method	'MofGen! by Chris Wilmer'
_symmetry_space_group_name_H-M	'P1'
_symmetry_Int_Tables_number	1
_symmetry_cell_setting	triclinic
loop_
_symmetry_equiv_pos_as_xyz
  x,y,z
_cell_length_a	14.519709
_cell_length_b	14.519709
_cell_length_c	8.140239
_cell_angle_alpha	90.004096
_cell_angle_beta	89.995855
_cell_angle_gamma	83.680145
loop_
_atom_site_label
_atom_site_type_symbol
_atom_site_fract_x
_atom_site_fract_y
_atom_site_fract_z
O1	O	1.223864	0.120889	0.136403
O2	O	1.723864	0.620889	0.636403
O3	O	0.955387	0.135126	0.136454
O4	O	1.455387	0.635126	0.636454
O5	O	1.096743	-0.006231	0.136412
O6	O	1.596743	0.493769	0.636412
O7	O	1.082507	0.262246	0.136445
O8	O	1.582507	0.762246	0.636445
O9	O	1.096739	-0.006232	-0.136815
O10	O	1.596739	0.493768	0.363185
O11	O	0.955382	0.135125	-0.136773
O12	O	1.455382	0.635125	0.363227
O13	O	1.223859	0.120889	-0.136824
O14	O	1.723859	0.620889	0.363176
Zn15	Zn	1.089620	0.128007	-0.180179
Zn16	Zn	1.589620	0.628007	0.319821
Zn17	Zn	1.089626	0.128008	0.179809
Zn18	Zn	1.589626	0.628008	0.679809
O19	O	1.082502	0.262245	-0.136783
O20	O	1.582502	0.762245	0.363217
C21	C	0.921025	0.134462	-0.000153
C22	C	1.421025	0.634462	0.499847
C23	C	0.818643	0.132474	-0.000135
C24	C	1.318643	0.632474	0.499865
C25	C	0.443748	0.125154	-0.000210
C26	C	0.943748	0.625154	0.499790
C27	C	0.548056	0.127187	-0.000189
C28	C	1.048056	0.627187	0.499811
C29	C	0.631192	0.128814	-0.000171
C30	C	1.131192	0.628814	0.499829
C31	C	0.735507	0.130847	-0.000152
C32	C	1.235507	0.630847	0.499848
C33	C	1.096078	-0.040591	-0.000201
C34	C	1.596078	0.459409	0.499799
C35	C	1.094090	-0.142972	-0.000202
C36	C	1.594090	0.357028	0.499798
C37	C	1.086770	-0.517868	-0.000158
C38	C	1.586770	-0.017868	0.499842
C39	C	1.088803	-0.413560	-0.000171
C40	C	1.588803	0.086440	0.499829
C41	C	1.090430	-0.330423	-0.000181
C42	C	1.590430	0.169577	0.499819
C43	C	1.092463	-0.226109	-0.000191
C44	C	1.592463	0.273891	0.499809
C45	C	1.258221	0.121553	-0.000213
C46	C	1.758221	0.621553	0.499787
C47	C	1.360602	0.123541	-0.000221
C48	C	1.860602	0.623541	0.499779
C49	C	1.083168	0.296606	-0.000165
C50	C	1.583168	0.796606	0.499835
C51	C	1.085156	0.398987	-0.000154
C52	C	1.585156	0.898987	0.499846
N53	N	1.089623	0.128005	-0.425862
N54	N	1.589623	0.628005	0.074138
N55	N	1.089631	0.128002	0.425492
N56	N	1.589631	0.628002	0.925492
