data_functionalizedCrystal
_audit_creation_method	'MofGen! by Chris Wilmer'
_symmetry_space_group_name_H-M	'P1'
_symmetry_Int_Tables_number	1
_symmetry_cell_setting	triclinic
loop_
_symmetry_equiv_pos_as_xyz
  x,y,z
_cell_length_a	15.625950
_cell_length_b	15.712078
_cell_length_c	14.750779
_cell_angle_alpha	73.497420
_cell_angle_beta	120.090508
_cell_angle_gamma	101.032433
loop_
_atom_site_label
_atom_site_type_symbol
_atom_site_fract_x
_atom_site_fract_y
_atom_site_fract_z
O1	O	1.295544	0.025892	0.370995
O2	O	1.021534	0.061705	0.275644
O3	O	1.122087	-0.079097	0.310640
O4	O	1.194990	0.166693	0.336000
O5	O	1.150514	-0.118896	0.480184
O6	O	1.049960	0.021906	0.445188
O7	O	1.323970	-0.013907	0.540539
Zn8	Zn	1.191479	-0.002320	0.519782
Zn9	Zn	1.154025	0.050117	0.296401
O10	O	1.223417	0.126894	0.505543
C11	C	0.999868	0.044125	0.347931
C12	C	0.892954	0.051025	0.310727
C13	C	0.618708	-0.034678	0.650339
C14	C	0.518242	-0.028166	0.615335
C15	C	0.487303	0.015218	0.430522
C16	C	0.587769	0.008714	0.465512
C17	C	0.653464	-0.016235	0.575421
C18	C	0.622525	0.027157	0.390594
C19	C	0.722981	0.020649	0.425581
C20	C	0.788681	-0.004302	0.535485
C21	C	0.753920	-0.022743	0.610408
C22	C	0.556826	0.052100	0.280684
C23	C	0.591582	0.070543	0.205766
C24	C	0.692041	0.064041	0.240753
C25	C	0.757742	0.039090	0.350658
C26	C	0.726803	0.082482	0.165830
C27	C	0.827259	0.075974	0.200817
C28	C	0.858198	0.032582	0.385645
C29	C	1.124390	-0.130240	0.391267
C30	C	1.088889	-0.223338	0.378911
C31	C	1.390293	-0.614692	0.483784
C32	C	1.356913	-0.702167	0.472169
C33	C	1.189655	-0.668088	0.413965
C34	C	1.223021	-0.580609	0.425581
C35	C	1.323341	-0.553919	0.460490
C36	C	1.156070	-0.519836	0.402286
C37	C	1.189433	-0.432364	0.413895
C38	C	1.289749	-0.405665	0.448800
C39	C	1.356705	-0.466446	0.472099
C40	C	1.055749	-0.546527	0.367370
C41	C	0.988798	-0.485754	0.344075
C42	C	1.022162	-0.398282	0.355692
C43	C	1.122477	-0.371583	0.390596
C44	C	0.955206	-0.337500	0.332393
C45	C	0.988569	-0.250028	0.344002
C46	C	1.155841	-0.284111	0.402205
C47	C	1.345636	0.003673	0.468250
C48	C	1.452548	-0.003225	0.505448
C49	C	1.221114	0.178039	0.424915
C50	C	1.256613	0.271137	0.437264
N51	N	1.217046	-0.038107	0.672236
N52	N	1.128463	0.085898	0.143949
C53	C	1.057043	0.185811	0.968368
C54	C	1.074968	0.160738	1.075106
C55	C	1.164050	0.036098	1.106072
C56	C	1.146128	0.061158	0.999333
C57	C	1.092625	0.136016	0.930489
C58	C	1.181710	0.011363	0.961455
C59	C	1.163794	0.036424	0.854727
C60	C	1.110295	0.111280	0.785878
C61	C	1.074709	0.161076	0.823762
C62	C	1.235219	-0.063491	1.030302
C63	C	1.270801	-0.113286	0.992423
C64	C	1.252879	-0.088229	0.885692
C65	C	1.199380	-0.013373	0.816843
C66	C	1.288465	-0.138026	0.847808
C67	C	1.270549	-0.112965	0.741080
C68	C	1.181464	0.011688	0.710115
H69	H	0.673297	0.102787	0.076341
H70	H	1.438397	-0.444717	0.500535
F71	F	0.688634	-0.061222	0.767319
H72	H	1.237533	-0.262381	0.430642
H73	H	1.207616	-0.024850	1.162137
F74	F	0.481255	-0.047809	0.695081
H75	H	1.137888	0.072639	0.654055
H76	H	0.870479	-0.009601	0.563970
H77	H	0.911695	0.012279	0.475145
H78	H	0.433800	0.035528	0.341033
F79	F	0.449906	0.059004	0.243449
F80	F	1.037093	0.213747	1.115410
F81	F	1.345417	-0.217686	0.921090
F82	F	1.254289	-0.090156	1.143894
H83	H	1.471985	-0.592962	0.512221
H84	H	1.013466	0.246762	0.912309
F85	F	0.848439	-0.365915	0.295224
H86	H	1.028587	-0.617752	0.357913
F87	F	1.308423	-0.165962	0.700768
F88	F	0.521651	0.097071	0.088794
H89	H	0.934051	-0.200545	0.325034
H90	H	1.095713	0.131686	0.698975
F91	F	0.864251	0.095601	0.121081
H92	H	1.316912	-0.334439	0.458251
F93	F	1.428180	-0.766844	0.496960
H94	H	0.907116	-0.507497	0.315649
F95	F	1.082889	-0.696502	0.376806
H96	H	1.031132	0.222028	0.767702
H97	H	0.807417	-0.043046	0.699908
F98	F	1.327744	-0.192951	1.065701
