data_functionalizedCrystal
_audit_creation_method	'MofGen! by Chris Wilmer'
_symmetry_space_group_name_H-M	'P1'
_symmetry_Int_Tables_number	1
_symmetry_cell_setting	triclinic
loop_
_symmetry_equiv_pos_as_xyz
  x,y,z
_cell_length_a	29.839134
_cell_length_b	29.839134
_cell_length_c	14.908308
_cell_angle_alpha	86.731408
_cell_angle_beta	93.267297
_cell_angle_gamma	90.011325
loop_
_atom_site_label
_atom_site_type_symbol
_atom_site_fract_x
_atom_site_fract_y
_atom_site_fract_z
Zn1	Zn	0.193570	0.672236	0.510315
Zn2	Zn	0.693570	1.172236	1.010315
Zn3	Zn	0.264369	0.676556	0.359459
Zn4	Zn	0.764369	1.176556	0.859459
Zn5	Zn	0.189247	0.601445	0.359450
Zn6	Zn	0.689247	1.101445	0.859450
Zn7	Zn	0.268665	0.597132	0.510240
Zn8	Zn	0.768665	1.097132	1.010240
O9	O	0.228963	0.636842	0.434866
O10	O	0.728963	1.136842	0.934866
O11	O	0.202973	0.735676	0.490339
O12	O	0.702973	1.235676	0.990339
O13	O	0.250796	0.670206	0.233218
O14	O	0.750796	1.170206	0.733218
O15	O	0.126954	0.610833	0.379490
O16	O	0.626954	1.110833	0.879490
O17	O	0.254989	0.738849	0.379506
O18	O	0.754989	1.238849	0.879506
O19	O	0.130131	0.662843	0.490330
O20	O	0.630131	1.162843	0.990330
O21	O	0.195604	0.615022	0.233211
O22	O	0.695604	1.115022	0.733211
O23	O	0.199770	0.538007	0.379417
O24	O	0.699770	1.038007	0.879417
O25	O	0.262311	0.603481	0.636490
O26	O	0.762311	1.103481	1.136490
O27	O	0.258119	0.534838	0.490202
O28	O	0.758119	1.034838	0.990202
O29	O	0.207140	0.658661	0.636545
O30	O	0.707140	1.158661	1.136545
O31	O	0.327805	0.666023	0.379433
O32	O	0.827805	1.166023	0.879433
O33	O	0.330962	0.607670	0.490211
O34	O	0.830962	1.107670	0.990211
C35	C	0.228942	0.520122	0.434801
C36	C	0.728942	1.020122	0.934801
C37	C	0.228944	0.470187	0.434795
C38	C	0.728944	0.970187	0.934795
C39	C	0.111786	0.636837	0.434917
C40	C	0.611786	1.136837	0.934917
C41	C	0.061852	0.636835	0.434939
C42	C	0.561852	1.136835	0.934939
C43	C	-0.293096	0.606483	0.492564
C44	C	0.206904	1.106483	0.992564
C45	C	-0.105422	0.606466	0.492589
C46	C	0.394578	1.106466	0.992589
O47	O	-0.079763	0.580615	0.541616
O48	O	0.420237	1.080615	1.041616
N49	N	-0.083594	0.636846	0.434917
N50	N	0.416406	1.136846	0.934917
C51	C	-0.108687	0.667229	0.377229
C52	C	0.391313	1.167229	0.877229
O53	O	-0.085814	0.693065	0.328169
O54	O	0.414186	1.193065	0.828169
C55	C	-0.296360	0.667244	0.377200
C56	C	0.203640	1.167244	0.877200
C57	C	-0.318186	0.636866	0.434883
C58	C	0.181814	1.136866	0.934883
C59	C	-0.314922	0.576107	0.550241
C60	C	0.185078	1.076107	1.050241
C61	C	-0.361838	0.576114	0.550238
C62	C	0.138162	1.076114	1.050238
C63	C	-0.386927	0.606496	0.492557
C64	C	0.113073	1.106496	0.992557
C65	C	-0.365101	0.636872	0.434880
C66	C	0.134899	1.136872	0.934880
C67	C	-0.321452	0.697625	0.319509
C68	C	0.178548	1.197625	0.819509
C69	C	-0.368373	0.697625	0.319506
C70	C	0.131627	1.197625	0.819506
C71	C	-0.390199	0.667247	0.377189
C72	C	0.109801	1.167247	0.877189
C73	C	-0.437106	0.667260	0.377196
C74	C	0.062894	1.167260	0.877196
N75	N	-0.458935	0.636881	0.434868
N76	N	0.041065	1.136881	0.934868
C77	C	-0.433845	0.606499	0.492549
C78	C	0.066155	1.106499	0.992549
C79	C	-0.010156	0.667220	0.377250
C80	C	0.489844	1.167220	0.877250
C81	C	0.036762	0.667217	0.377258
C82	C	0.536762	1.167217	0.877258
C83	C	0.040024	0.606454	0.492617
C84	C	0.540024	1.106454	0.992617
C85	C	-0.006895	0.606459	0.492613
C86	C	0.493105	1.106459	0.992613
C87	C	-0.031984	0.636841	0.434923
C88	C	0.468016	1.136841	0.934923
C89	C	-0.532371	0.606514	0.492538
C90	C	-0.032371	1.106514	0.992538
C91	C	-0.579291	0.606524	0.492532
C92	C	-0.079291	1.106524	0.992532
C93	C	-0.582548	0.667286	0.377171
C94	C	-0.082548	1.167286	0.877171
C95	C	-0.535633	0.667278	0.377179
C96	C	-0.035633	1.167278	0.877179
C97	C	-0.510545	0.636888	0.434866
C98	C	-0.010545	1.136888	0.934866
O99	O	-0.462794	0.693094	0.328187
O100	O	0.037206	1.193094	0.828187
O101	O	-0.456726	0.580660	0.541588
O102	O	0.043274	1.080660	1.041588
C103	C	-0.246180	0.606477	0.492567
C104	C	0.253820	1.106477	0.992567
C105	C	-0.224354	0.636853	0.434890
C106	C	0.275646	1.136853	0.934890
C107	C	-0.249444	0.667235	0.377209
C108	C	0.250556	1.167235	0.877209
C109	C	-0.177436	0.636850	0.434898
C110	C	0.322564	1.136850	0.934898
C111	C	-0.152347	0.606468	0.492579
C112	C	0.347653	1.106468	0.992579
C113	C	-0.174175	0.576089	0.550252
C114	C	0.325825	1.076089	1.050252
C115	C	-0.221091	0.576095	0.550248
C116	C	0.278909	1.076095	1.050248
C117	C	-0.227616	0.697614	0.319537
C118	C	0.272384	1.197614	0.819537
C119	C	-0.180700	0.697606	0.319545
C120	C	0.319300	1.197606	0.819545
C121	C	-0.155610	0.667224	0.377226
C122	C	0.344390	1.167224	0.877226
C123	C	0.259385	0.158903	0.492481
C124	C	0.759385	0.658903	0.992481
C125	C	0.259399	-0.028771	0.492521
C126	C	0.759399	0.471229	0.992521
O127	O	0.285259	-0.054429	0.541530
O128	O	0.785259	0.445571	1.041530
N129	N	0.228981	-0.050602	0.434934
N130	N	0.728981	0.449398	0.934934
C131	C	0.198556	-0.025511	0.377337
C132	C	0.698556	0.474489	0.877337
O133	O	0.172681	-0.048386	0.328363
O134	O	0.672681	0.451614	0.828363
C135	C	0.198540	0.162162	0.377302
C136	C	0.698540	0.662162	0.877302
C137	C	0.228963	0.183991	0.434886
C138	C	0.728963	0.683991	0.934886
C139	C	0.289805	0.180732	0.550062
C140	C	0.789805	0.680732	1.050062
C141	C	0.289803	0.227648	0.550048
C142	C	0.789803	0.727648	1.050048
C143	C	0.259381	0.252735	0.492453
C144	C	0.759381	0.752735	0.992453
C145	C	0.228961	0.230906	0.434872
C146	C	0.728961	0.730906	0.934872
C147	C	0.168113	0.187252	0.319710
C148	C	0.668113	0.687252	0.819710
C149	C	0.168111	0.234173	0.319708
C150	C	0.668111	0.734173	0.819708
C151	C	0.198534	0.256001	0.377292
C152	C	0.698534	0.756001	0.877292
C153	C	0.198536	0.302909	0.377264
C154	C	0.698536	0.802909	0.877264
N155	N	0.228954	0.324740	0.434851
N156	N	0.728954	0.824740	0.934851
C157	C	0.259377	0.299653	0.492445
C158	C	0.759377	0.799653	0.992445
C159	C	0.198567	-0.124042	0.377358
C160	C	0.698567	0.375958	0.877358
C161	C	0.198571	-0.170960	0.377365
C162	C	0.698571	0.329040	0.877365
C163	C	0.259414	-0.174217	0.492551
C164	C	0.759414	0.325783	0.992551
C165	C	0.259411	-0.127298	0.492539
C166	C	0.759411	0.372702	0.992539
C167	C	0.228985	-0.102212	0.434945
C168	C	0.728985	0.397788	0.934945
C169	C	0.259370	0.398180	0.492411
C170	C	0.759370	0.898180	0.992411
C171	C	0.259367	0.445100	0.492389
C172	C	0.759367	0.945100	0.992389
C173	C	0.198522	0.448352	0.377207
C174	C	0.698522	0.948352	0.877207
C175	C	0.198527	0.401436	0.377225
C176	C	0.698527	0.901436	0.877225
C177	C	0.228953	0.376351	0.434834
C178	C	0.728953	0.876351	0.934834
O179	O	0.172687	0.328596	0.328288
O180	O	0.672687	0.828596	0.828288
O181	O	0.285241	0.322536	0.541426
O182	O	0.785241	0.822536	1.041426
C183	C	0.259387	0.111987	0.492495
C184	C	0.759387	0.611987	0.992495
C185	C	0.228967	0.090159	0.434915
C186	C	0.728967	0.590159	0.934915
C187	C	0.198545	0.115246	0.377320
C188	C	0.698545	0.615246	0.877320
C189	C	0.228972	0.043241	0.434922
C190	C	0.728972	0.543241	0.934922
C191	C	0.259394	0.018154	0.492517
C192	C	0.759394	0.518154	0.992517
C193	C	0.289812	0.039984	0.550104
C194	C	0.789812	0.539984	1.050104
C195	C	0.289810	0.086900	0.550090
C196	C	0.789810	0.586900	1.050090
C197	C	0.168127	0.093415	0.319733
C198	C	0.668127	0.593415	0.819733
C199	C	0.168132	0.046499	0.319751
C200	C	0.668132	0.546499	0.819751
C201	C	0.198554	0.021412	0.377345
C202	C	0.698554	0.521412	0.877345
C203	C	0.345684	0.636859	0.434835
C204	C	0.845684	1.136859	0.934835
C205	C	0.395619	0.636906	0.434852
C206	C	0.895619	1.136906	0.934852
C207	C	0.235687	0.630108	0.670165
C208	C	0.735687	1.130108	1.170165
C209	C	0.238553	0.627238	0.770436
C210	C	0.738553	1.127238	1.270436
C211	C	0.228984	0.754019	0.434932
C212	C	0.728984	1.254019	0.934932
C213	C	0.228993	0.803952	0.434960
C214	C	0.728993	1.303952	0.934960
C215	C	0.222232	0.643576	0.200482
C216	C	0.722232	1.143576	0.700482
C217	C	0.219240	0.646533	0.100212
C218	C	0.719240	1.146533	0.600212
C219	C	0.186476	0.679302	0.958914
C220	C	0.686476	1.179302	1.458914
C221	C	0.189167	0.676607	1.053127
C222	C	0.689167	1.176607	1.553127
C223	C	0.246623	0.619151	1.053077
C224	C	0.746623	1.119151	1.553077
C225	C	0.243932	0.621846	0.958864
C226	C	0.743932	1.121846	1.458864
C227	C	0.213858	0.651923	0.911786
C228	C	0.713858	1.151923	1.411786
C229	C	0.211170	0.654620	0.817571
C230	C	0.711170	1.154620	1.317571
C231	C	0.268623	0.597162	0.817522
C232	C	0.768623	1.097162	1.317522
C233	C	0.271314	0.594467	0.911736
C234	C	0.771314	1.094467	1.411736
H235	H	-0.597060	0.581787	0.539508
H236	H	-0.097060	1.081787	1.039508
Cl237	Cl	0.148676	0.717117	0.899727
Cl238	Cl	0.648676	1.217117	1.399727
H239	H	0.290920	0.574869	0.779141
H240	H	0.790920	1.074869	1.279141
H241	H	-0.162933	0.722348	0.272575
H242	H	0.337067	1.222348	0.772575
H243	H	0.173802	-0.188729	0.330465
H244	H	0.673802	0.311271	0.830465
Cl245	Cl	0.309118	0.556658	0.970928
Cl246	Cl	0.809118	1.056658	1.470928
H247	H	0.166869	0.698901	1.091496
H248	H	0.666869	1.198901	1.591496
Cl249	Cl	0.284423	0.581340	1.112276
Cl250	Cl	0.784423	1.081340	1.612276
H251	H	-0.248040	0.722355	0.272565
H252	H	0.251960	1.222355	0.772565
Cl253	Cl	-0.041690	0.705422	0.304726
Cl254	Cl	0.458310	1.205422	0.804726
Cl255	Cl	0.173365	0.692432	0.758388
Cl256	Cl	0.673365	1.192432	1.258388
H257	H	-0.511950	0.581770	0.539516
H258	H	-0.011950	1.081770	1.039516
H259	H	0.284145	0.377761	0.539324
H260	H	0.784145	0.877761	1.039324
H261	H	-0.294499	0.551365	0.597213
H262	H	0.205501	1.051365	1.097213
Cl263	Cl	-0.389269	0.537920	0.622753
Cl264	Cl	0.110731	1.037920	1.122753
H265	H	0.314579	0.160311	0.596967
H266	H	0.814579	0.660311	1.096967
Cl267	Cl	0.160312	-0.092512	0.304947
Cl268	Cl	0.660312	0.407488	0.804947
H269	H	0.143358	0.028731	0.272850
H270	H	0.643358	0.528731	0.772850
H271	H	-0.153739	0.551352	0.597221
H272	H	0.346261	1.051352	1.097221
Cl273	Cl	0.297616	0.472539	0.564785
Cl274	Cl	0.797616	0.972539	1.064785
Cl275	Cl	0.129861	0.159821	0.247320
Cl276	Cl	0.629861	0.659821	0.747320
Cl277	Cl	-0.034328	0.568267	0.565128
Cl278	Cl	0.465672	1.068267	1.065128
H279	H	0.284184	-0.109528	0.539430
H280	H	0.784184	0.390472	1.039430
H281	H	0.314576	0.245416	0.596941
H282	H	0.814576	0.745416	1.096941
H283	H	0.284185	-0.194651	0.539447
H284	H	0.784185	0.305349	1.039447
H285	H	0.173755	0.383663	0.330333
H286	H	0.673755	0.883663	0.830333
Cl287	Cl	0.071574	0.568258	0.565128
Cl288	Cl	0.571574	1.068258	1.065128
H289	H	0.054529	0.691959	0.330297
H290	H	0.554529	1.191959	0.830297
H291	H	-0.303690	0.722361	0.272537
H292	H	0.196310	1.222361	0.772537
H293	H	-0.388799	0.722365	0.272525
H294	H	0.111201	1.222365	0.772525
H295	H	-0.517861	0.692019	0.330221
H296	H	-0.017861	1.192019	0.830221
H297	H	-0.238858	0.551358	0.597219
H298	H	0.261142	1.051358	1.097219
Cl299	Cl	0.129857	0.265707	0.247301
Cl300	Cl	0.629857	0.765707	0.747301
Cl301	Cl	-0.614098	0.705479	0.304663
Cl302	Cl	-0.114098	1.205479	0.804663
H303	H	0.314583	0.104669	0.596982
H304	H	0.814583	0.604669	1.096982
Cl305	Cl	0.160279	0.479899	0.304807
Cl306	Cl	0.660279	0.979899	0.804807
H307	H	0.314584	0.019550	0.596997
H308	H	0.814584	0.519550	1.096997
Cl309	Cl	0.129877	0.124946	0.247322
Cl310	Cl	0.629877	0.624946	0.747322
