data_functionalizedCrystal
_audit_creation_method	'MofGen! by Chris Wilmer'
_symmetry_space_group_name_H-M	'P1'
_symmetry_Int_Tables_number	1
_symmetry_cell_setting	triclinic
loop_
_symmetry_equiv_pos_as_xyz
  x,y,z
_cell_length_a	11.026607
_cell_length_b	14.519709
_cell_length_c	9.482900
_cell_angle_alpha	99.350820
_cell_angle_beta	78.636152
_cell_angle_gamma	96.133081
loop_
_atom_site_label
_atom_site_type_symbol
_atom_site_fract_x
_atom_site_fract_y
_atom_site_fract_z
O1	O	1.629894	0.375017	-0.120915
O2	O	1.276492	0.331026	-0.120914
O3	O	1.462561	0.220328	-0.120901
O4	O	1.443825	0.485715	-0.120927
O5	O	1.424766	0.242929	0.120889
O6	O	1.238698	0.353627	0.120876
O7	O	1.592099	0.397617	0.120875
Cu8	Cu	1.411948	0.377686	0.142953
Cu9	Cu	1.456644	0.350958	-0.142992
O10	O	1.406031	0.508316	0.120862
C11	C	1.212367	0.334211	-0.000019
C12	C	1.077600	0.310019	-0.000019
C13	C	1.003940	0.376817	-0.000026
C14	C	0.864652	0.351815	-0.000026
C15	C	1.442790	0.197125	-0.000006
C16	C	1.440173	0.094312	-0.000005
C17	C	1.430544	-0.282175	-0.000043
C18	C	1.433218	-0.177425	-0.000032
C19	C	1.435358	-0.093934	-0.000023
C20	C	1.438033	0.010822	-0.000015
C21	C	1.656226	0.394432	-0.000023
C22	C	1.790994	0.418624	-0.000033
C23	C	1.425802	0.531518	-0.000036
C24	C	1.428421	0.634330	-0.000046
N25	N	1.380519	0.396486	0.344071
N26	N	1.488082	0.332152	-0.344110
C27	C	1.447366	0.356497	0.416275
C28	C	1.421226	0.372147	0.583690
H29	H	1.043996	0.452517	-0.000025
H30	H	0.831042	0.494329	-0.000031
H31	H	1.523943	0.310669	0.354152
C32	C	1.318919	0.433104	0.666432
C33	C	1.205237	0.395086	0.629569
C34	C	1.110964	0.451204	0.705778
H35	H	1.336151	0.494567	0.641617
H36	H	1.314837	0.435484	0.767960
H37	H	1.209320	0.392716	0.528064
H38	H	1.187965	0.333629	0.654388
H39	H	1.106883	0.453584	0.807306
H40	H	1.128209	0.512665	0.680957
H41	H	1.033819	0.425412	0.680787
C42	C	0.811037	0.250918	-0.000092
C43	C	0.683551	0.246173	-0.000130
C44	C	0.634123	0.153243	-0.000212
H45	H	0.824294	0.228852	0.084203
H46	H	0.850721	0.213165	-0.084443
H47	H	0.643880	0.283913	0.084212
H48	H	0.670260	0.268221	-0.084419
H49	H	0.673806	0.115490	-0.084563
H50	H	0.647388	0.131185	0.084085
H51	H	0.547621	0.150010	-0.000251
H52	H	1.037549	0.234316	-0.000048
C53	C	1.589927	0.270874	0.572814
C54	C	1.595465	0.267398	0.423280
C55	C	1.689158	0.210860	0.346706
H56	H	1.572324	0.209445	0.597703
H57	H	1.667341	0.296323	0.597403
H58	H	1.518069	0.241946	0.398701
H59	H	1.613085	0.328812	0.398348
H60	H	1.766572	0.236309	0.371295
H61	H	1.671546	0.149435	0.371606
H62	H	1.692936	0.208502	0.245239
C63	C	1.278217	0.457440	0.426818
C64	C	1.164536	0.419421	0.389955
C65	C	1.070263	0.475540	0.466164
H66	H	1.295450	0.518903	0.402003
H67	H	1.274136	0.459820	0.528346
H68	H	1.168619	0.417052	0.288450
H69	H	1.147264	0.357965	0.414774
H70	H	1.066182	0.477920	0.567692
H71	H	1.087508	0.537000	0.441343
H72	H	0.993118	0.449748	0.441174
