data_functionalizedCrystal
_audit_creation_method	'MofGen! by Chris Wilmer'
_symmetry_space_group_name_H-M	'P1'
_symmetry_Int_Tables_number	1
_symmetry_cell_setting	triclinic
loop_
_symmetry_equiv_pos_as_xyz
  x,y,z
_cell_length_a	13.635800
_cell_length_b	19.492437
_cell_length_c	19.453103
_cell_angle_alpha	83.809257
_cell_angle_beta	78.290822
_cell_angle_gamma	102.254873
loop_
_atom_site_label
_atom_site_type_symbol
_atom_site_fract_x
_atom_site_fract_y
_atom_site_fract_z
V1	V	2.002049	0.219329	-0.097917
O2	O	2.000536	0.214818	0.003949
O3	O	1.973542	0.218152	-0.193426
O4	O	1.974887	0.314838	-0.096743
O5	O	1.999182	0.117462	-0.093403
V6	V	2.244804	0.207105	-0.085694
O7	O	2.130497	0.246142	-0.124731
O8	O	2.341455	0.180293	-0.058880
O9	O	2.161708	0.208282	0.009815
O10	O	2.305015	0.211617	-0.187560
O11	O	2.306370	0.308972	-0.090208
O12	O	2.160363	0.111596	-0.086868
V13	V	2.502049	0.219329	-0.097917
O14	O	2.500536	0.214818	0.003949
O15	O	2.473542	0.218152	-0.193426
O16	O	2.474887	0.314838	-0.096743
O17	O	2.499182	0.117462	-0.093403
V18	V	2.744804	0.207105	-0.085694
O19	O	2.630497	0.246142	-0.124731
O20	O	2.841455	0.180293	-0.058880
O21	O	2.661708	0.208282	0.009815
O22	O	2.805015	0.211617	-0.187560
O23	O	2.806370	0.308972	-0.090208
O24	O	2.660363	0.111596	-0.086868
C25	C	1.895091	0.214775	-0.216699
C26	C	1.912407	0.214450	-0.294781
C27	C	2.011320	0.217809	-0.335047
C28	C	2.027592	0.217510	-0.408415
C29	C	1.944942	0.213837	-0.441510
C30	C	1.846016	0.210482	-0.401235
C31	C	1.829748	0.210788	-0.327870
N32	N	1.891900	0.170552	-0.547630
N33	N	1.907360	0.170260	-0.617323
C34	C	1.993951	0.212917	-0.662554
N35	N	2.064511	0.255869	-0.635458
N36	N	2.049052	0.256158	-0.565758
C37	C	1.962572	0.213506	-0.521062
C38	C	2.110515	0.215953	-0.782375
C39	C	2.126785	0.215659	-0.855744
C40	C	1.945204	0.208623	-0.848562
C41	C	1.928938	0.208925	-0.775195
C42	C	2.011597	0.212587	-0.742105
C43	C	1.896806	0.338107	-0.093369
C44	C	1.915212	0.416189	-0.093041
C45	C	2.071830	0.211657	0.033084
C46	C	2.044133	0.211987	0.111165
C47	C	2.137335	0.977151	-0.094208
C48	C	2.120051	0.903786	-0.094522
C49	C	2.020620	0.863508	-0.091158
C50	C	1.938473	0.896604	-0.087498
C51	C	1.955761	0.969969	-0.087192
N52	N	1.915359	0.739247	-0.048835
N53	N	1.898942	0.669554	-0.049125
C54	C	1.968526	0.642464	-0.092082
N55	N	2.055161	0.687701	-0.134730
N56	N	2.071582	0.757400	-0.134437
C57	C	2.001864	0.783956	-0.091490
C58	C	2.031929	0.529827	-0.096086
C59	C	2.014642	0.456462	-0.096404
C60	C	1.833060	0.449280	-0.089373
C61	C	1.850351	0.522645	-0.089062
C62	C	1.949787	0.562914	-0.092416
C63	C	2.073599	1.088322	-0.090238
C64	C	2.055197	1.010238	-0.090545
C65	C	2.395091	0.214775	-0.216699
C66	C	2.412407	0.214450	-0.294781
C67	C	2.396806	0.338107	-0.093369
C68	C	2.415212	0.416189	-0.093041
C69	C	2.571830	0.211657	0.033084
C70	C	2.544133	0.211987	0.111165
C71	C	2.570115	0.088323	-0.090244
C72	C	2.541328	0.010241	-0.090569
C73	C	2.511332	0.217818	-0.335042
C74	C	2.527619	0.217523	-0.408411
C75	C	2.444979	0.213854	-0.441515
C76	C	2.346046	0.210487	-0.401249
C77	C	2.329761	0.210788	-0.327883
C78	C	2.514648	0.456449	-0.096401
C79	C	2.531954	0.529814	-0.096083
C80	C	2.449824	0.562918	-0.092411
C81	C	2.350379	0.522653	-0.089048
C82	C	2.333073	0.449288	-0.089361
C83	C	2.617702	0.208621	0.151426
C84	C	2.591686	0.208919	0.224794
C85	C	2.492103	0.212590	0.257899
C86	C	2.418529	0.215955	0.217633
C87	C	2.444543	0.215651	0.144267
C88	C	2.441228	-0.022845	-0.094234
C89	C	2.414163	-0.096213	-0.094530
C90	C	2.487202	-0.136492	-0.091167
C91	C	2.587310	-0.103401	-0.087500
C92	C	2.614372	-0.030036	-0.087199
H93	H	2.078630	0.220796	-0.308112
F94	F	2.132875	0.221087	-0.451278
H95	H	2.651607	0.206180	0.257569
F96	F	2.102073	0.421250	-0.100309
H97	H	2.646771	-0.136208	-0.084760
F98	F	2.462326	0.213534	-0.519600
F99	F	1.758055	0.206576	-0.436459
H100	H	2.463929	0.622657	-0.092157
H101	H	2.283514	0.549618	-0.086059
F102	F	2.232068	0.219239	-0.898600
F103	F	2.207476	0.868565	-0.098420
H104	H	2.581535	0.429506	-0.099393
F105	F	2.243165	1.020006	-0.097787
H106	H	1.749200	0.208053	-0.295085
H107	H	1.857515	0.863805	-0.084761
H108	H	2.278765	0.207500	-0.428214
F109	F	2.198488	0.219863	-0.747158
F110	F	1.857241	0.204722	-0.883780
F111	F	2.723693	0.204714	0.116207
H112	H	2.578633	0.220801	-0.308098
F113	F	2.224467	0.207197	-0.285040
H114	H	2.470934	0.212836	0.317639
H115	H	2.252101	0.416514	-0.086626
F116	F	2.637798	0.572656	-0.099666
F117	F	1.868334	1.005183	-0.083293
H118	H	2.465157	-0.196229	-0.091422
F119	F	2.312546	0.219857	0.252877
H120	H	2.384631	0.218398	0.111491
F121	F	2.363477	0.020010	-0.097813
F122	F	1.823659	0.205344	-0.732337
H123	H	2.332646	-0.123145	-0.097516
F124	F	2.720918	0.005171	-0.083307
H125	H	2.112897	0.562617	-0.098823
H126	H	1.752103	0.416487	-0.086638
H127	H	1.783464	0.549584	-0.086076
H128	H	2.608181	0.220263	-0.441185
