data_functionalizedCrystal
_audit_creation_method	'MofGen! by Chris Wilmer'
_symmetry_space_group_name_H-M	'P1'
_symmetry_Int_Tables_number	1
_symmetry_cell_setting	triclinic
loop_
_symmetry_equiv_pos_as_xyz
  x,y,z
_cell_length_a	16.120530
_cell_length_b	16.120484
_cell_length_c	18.215399
_cell_angle_alpha	87.130211
_cell_angle_beta	92.916648
_cell_angle_gamma	90.167327
loop_
_atom_site_label
_atom_site_type_symbol
_atom_site_fract_x
_atom_site_fract_y
_atom_site_fract_z
Zn1	Zn	1.254472	-0.395614	0.489889
Zn2	Zn	1.587805	-0.062280	0.823222
Zn3	Zn	1.921139	0.271053	1.156556
Zn4	Zn	1.247316	-0.534672	0.372722
Zn5	Zn	1.580649	-0.201339	0.706055
Zn6	Zn	1.913982	0.131995	1.039388
Zn7	Zn	1.115412	-0.388579	0.360305
Zn8	Zn	1.448745	-0.055246	0.693638
Zn9	Zn	1.782079	0.278088	1.026972
Zn10	Zn	1.108324	-0.527567	0.489215
Zn11	Zn	1.441658	-0.194234	0.822549
Zn12	Zn	1.774991	0.139100	1.155882
O13	O	1.181381	-0.461608	0.428033
O14	O	1.514714	-0.128275	0.761366
O15	O	1.848048	0.205059	1.094699
O16	O	1.369888	-0.419978	0.479825
O17	O	1.703222	-0.086644	0.813158
O18	O	2.036555	0.246689	1.146491
O19	O	1.229790	-0.515322	0.268090
O20	O	1.563123	-0.181988	0.601424
O21	O	1.896456	0.151345	0.934757
O22	O	1.139820	-0.273149	0.372580
O23	O	1.473153	0.060184	0.705913
O24	O	1.806487	0.393518	1.039247
O25	O	1.364630	-0.522143	0.393742
O26	O	1.697964	-0.188810	0.727076
O27	O	2.031297	0.144524	1.060409
O28	O	1.241987	-0.278317	0.467785
O29	O	1.575320	0.055016	0.801118
O30	O	1.908653	0.388349	1.134451
O31	O	1.132881	-0.407988	0.258968
O32	O	1.466214	-0.074655	0.592301
O33	O	1.799547	0.258679	0.925635
O34	O	0.998106	-0.401099	0.371927
O35	O	1.331440	-0.067765	0.705260
O36	O	1.664773	0.265568	1.038594
O37	O	1.127740	-0.510034	0.592289
O38	O	1.461073	-0.176700	0.925622
O39	O	1.794407	0.156633	1.258956
O40	O	0.992899	-0.503212	0.466637
O41	O	1.326232	-0.169879	0.799970
O42	O	1.659566	0.163454	1.133304
O43	O	1.235114	-0.413088	0.592784
O44	O	1.568447	-0.079755	0.926117
O45	O	1.901781	0.253578	1.259450
O46	O	1.222917	-0.650093	0.393090
O47	O	1.556250	-0.316759	0.726423
O48	O	1.889584	0.016574	1.059756
O49	O	1.120801	-0.644873	0.478677
O50	O	1.454134	-0.311539	0.812010
O51	O	1.787467	0.021794	1.145344
C52	C	0.965330	-0.450622	0.417862
C53	C	1.298664	-0.117288	0.751195
C54	C	1.631997	0.216045	1.084529
C55	C	0.872902	-0.445942	0.413529
C56	C	1.206235	-0.112608	0.746863
C57	C	1.539569	0.220725	1.080196
C58	C	0.703675	-0.437378	0.405624
C59	C	1.037008	-0.104045	0.738958
C60	C	1.370342	0.229289	1.072291
C61	C	0.659925	-0.485899	0.450498
C62	C	0.993258	-0.152566	0.783831
C63	C	1.326591	0.180768	1.117164
C64	C	0.565761	-0.481134	0.446099
C65	C	0.899094	-0.147801	0.779433
C66	C	1.232428	0.185532	1.112766
C67	C	0.797847	-0.442142	0.410022
C68	C	1.131181	-0.108809	0.743355
C69	C	1.464514	0.224525	1.076688
C70	C	1.170336	-0.677655	0.437175
C71	C	1.503669	-0.344322	0.770508
C72	C	1.837002	-0.010989	1.103841
C73	C	1.165686	-0.770085	0.441114
C74	C	1.499020	-0.436752	0.774447
C75	C	1.832353	-0.103419	1.107780
C76	C	1.157203	-0.939316	0.448321
C77	C	1.490536	-0.605983	0.781654
C78	C	1.823870	-0.272650	1.114988
C79	C	1.205708	-0.983066	0.407764
C80	C	1.539041	-0.649733	0.741097
C81	C	1.872375	-0.316400	1.074430
C82	C	1.200988	-1.077232	0.411774
C83	C	1.534321	-0.743899	0.745107
C84	C	1.867655	-0.410566	1.078440
C85	C	1.161922	-0.845142	0.444312
C86	C	1.495255	-0.511809	0.777645
C87	C	1.828589	-0.178475	1.110978
C88	C	1.398275	-0.472638	0.438244
C89	C	1.731609	-0.139304	0.771577
C90	C	2.064942	0.194029	1.104910
C91	C	1.490703	-0.477338	0.442595
C92	C	1.824036	-0.144005	0.775928
C93	C	2.157369	0.189329	1.109262
C94	C	1.181435	-0.461553	0.619986
C95	C	1.514768	-0.128220	0.953319
C96	C	1.848101	0.205113	1.286652
C97	C	1.181457	-0.461530	0.701785
C98	C	1.514791	-0.128197	1.035118
C99	C	1.848124	0.205137	1.368451
C100	C	1.192492	-0.244718	0.418872
C101	C	1.525826	0.088615	0.752206
C102	C	1.859159	0.421949	1.085539
C103	C	1.197227	-0.152292	0.414969
C104	C	1.530561	0.181041	0.748302
C105	C	1.863894	0.514374	1.081635
C106	C	1.181379	-0.461605	0.236826
C107	C	1.514712	-0.128272	0.570160
C108	C	1.848045	0.205062	0.903493
C109	C	1.181529	-0.461402	0.155025
C110	C	1.514862	-0.128069	0.488359
C111	C	1.848195	0.205265	0.821692
C112	C	1.237389	-0.411002	0.890236
C113	C	1.570722	-0.077668	1.223570
C114	C	1.904056	0.255665	1.556903
C115	C	1.237400	-0.410978	0.967094
C116	C	1.570733	-0.077645	1.300428
C117	C	1.904067	0.255689	1.633761
C118	C	1.125591	-0.511932	0.966568
C119	C	1.458925	-0.178599	1.299902
C120	C	1.792258	0.154734	1.633235
C121	C	1.125577	-0.511951	0.889711
C122	C	1.458910	-0.178618	1.223044
C123	C	1.792244	0.154715	1.556378
C124	C	1.181480	-0.461487	0.851547
C125	C	1.514814	-0.128154	1.184881
C126	C	1.848147	0.205179	1.518214
C127	C	1.181506	-0.461445	1.005263
C128	C	1.514839	-0.128111	1.338596
C129	C	1.848173	0.205222	1.671929
C130	C	1.181518	-0.461419	1.088596
C131	C	1.514851	-0.128086	1.421929
C132	C	1.848184	0.205247	1.755263
C133	C	1.181468	-0.461511	0.768209
C134	C	1.514801	-0.128178	1.101542
C135	C	1.848134	0.205155	1.434876
H136	H	1.250779	-0.949801	0.370029
H137	H	1.584112	-0.616467	0.703363
H138	H	1.917446	-0.283134	1.036696
H139	H	1.080079	-0.553020	0.997651
H140	H	1.413412	-0.219687	1.330984
H141	H	1.746745	0.113646	1.664317
C142	C	0.704851	-0.546857	0.506856
C143	C	1.038184	-0.213524	0.840190
C144	C	1.371517	0.119810	1.173523
H145	H	0.665016	-0.576671	0.534435
H146	H	0.998350	-0.243338	0.867768
H147	H	1.331683	0.089995	1.201101
H148	H	0.736869	-0.584724	0.481731
H149	H	1.070203	-0.251391	0.815065
H150	H	1.403536	0.081942	1.148398
H151	H	0.740377	-0.516775	0.539181
H152	H	1.073710	-0.183442	0.872514
H153	H	1.407044	0.149892	1.205848
H154	H	0.670413	-0.392264	0.363906
H155	H	1.003747	-0.058930	0.697240
H156	H	1.337080	0.274403	1.030573
H157	H	1.112135	-0.972580	0.486051
H158	H	1.445468	-0.639246	0.819385
H159	H	1.778801	-0.305913	1.152718
H160	H	1.282907	-0.369908	0.859165
H161	H	1.616240	-0.036575	1.192499
H162	H	1.949573	0.296758	1.525832
C163	C	1.064080	-0.567494	0.847151
C164	C	1.397413	-0.234160	1.180484
C165	C	1.730746	0.099173	1.513817
H166	H	1.030797	-0.597556	0.880887
H167	H	1.364130	-0.264222	1.214220
H168	H	1.697464	0.069111	1.547554
H169	H	1.029471	-0.533854	0.814116
H170	H	1.362804	-0.200521	1.147449
H171	H	1.696137	0.132813	1.480783
H172	H	1.094039	-0.605350	0.820201
H173	H	1.427373	-0.272016	1.153534
H174	H	1.760706	0.061317	1.486867
C175	C	1.298903	-0.355448	1.009650
C176	C	1.632236	-0.022114	1.342983
C177	C	1.965570	0.311219	1.676316
H178	H	1.332197	-0.325403	0.975911
H179	H	1.665530	0.007930	1.309244
H180	H	1.998863	0.341264	1.642578
H181	H	1.268958	-0.317590	1.036603
H182	H	1.602291	0.015743	1.369936
H183	H	1.935624	0.349077	1.703269
H184	H	1.333513	-0.389098	1.042682
H185	H	1.666847	-0.055764	1.376015
H186	H	2.000180	0.277569	1.709349
