data_functionalizedCrystal
_audit_creation_method	'MofGen! by Chris Wilmer'
_symmetry_space_group_name_H-M	'P1'
_symmetry_Int_Tables_number	1
_symmetry_cell_setting	triclinic
loop_
_symmetry_equiv_pos_as_xyz
  x,y,z
_cell_length_a	18.215407
_cell_length_b	15.298670
_cell_length_c	18.215399
_cell_angle_alpha	99.702305
_cell_angle_beta	89.985640
_cell_angle_gamma	99.662669
loop_
_atom_site_label
_atom_site_type_symbol
_atom_site_fract_x
_atom_site_fract_y
_atom_site_fract_z
Zn1	Zn	1.175788	0.359196	-0.365394
Zn2	Zn	1.197013	0.510066	-0.221043
Zn3	Zn	1.052731	0.359224	-0.242342
Zn4	Zn	1.073988	0.510002	-0.344082
O5	O	1.124880	0.434622	-0.293215
O6	O	1.281590	0.379225	-0.346250
O7	O	1.177861	0.490096	-0.120879
O8	O	1.051275	0.232980	-0.276498
O9	O	1.297184	0.490069	-0.240197
O10	O	1.141685	0.232960	-0.366903
O11	O	1.071857	0.379273	-0.136527
O12	O	0.952564	0.379210	-0.255833
O13	O	1.087505	0.489959	-0.449899
O14	O	0.968182	0.489986	-0.330581
O15	O	1.162297	0.379162	-0.465556
O16	O	1.198473	0.636298	-0.219532
O17	O	1.108087	0.636251	-0.309928
C18	C	0.933670	0.434595	-0.293206
C19	C	0.851872	0.434604	-0.293217
C20	C	0.655574	0.377007	-0.348497
C21	C	0.578716	0.377015	-0.348498
C22	C	0.594941	0.492263	-0.237943
C23	C	0.671797	0.492250	-0.237940
C24	C	0.702111	0.434623	-0.293220
C25	C	0.548398	0.434644	-0.293225
C26	C	0.465066	0.434653	-0.293226
C27	C	0.785449	0.434613	-0.293219
C28	C	1.157910	0.669008	-0.260123
C29	C	1.172108	0.769279	-0.245990
C30	C	1.023759	1.051953	-0.394244
C31	C	1.010422	0.957743	-0.407527
C32	C	1.050842	0.910622	-0.367144
C33	C	1.104602	0.957721	-0.313475
C34	C	1.117945	1.051939	-0.300194
C35	C	1.145028	0.910609	-0.273095
C36	C	1.198788	0.957707	-0.219426
C37	C	1.212128	1.051916	-0.206147
C38	C	1.171708	1.099037	-0.246530
C39	C	1.131685	0.816390	-0.286375
C40	C	1.225871	0.816377	-0.192326
C41	C	1.239208	0.910586	-0.179042
C42	C	1.316837	0.434651	-0.293225
C43	C	1.398637	0.434663	-0.293229
C44	C	1.124905	0.434550	-0.485179
C45	C	1.124915	0.434520	-0.566982
C46	C	1.091717	1.199322	-0.326444
C47	C	1.077522	1.099051	-0.340580
C48	C	1.069753	0.376775	-0.763330
C49	C	1.069763	0.376757	-0.840192
C50	C	1.180150	0.492156	-0.823886
C51	C	1.180136	0.492178	-0.747026
C52	C	1.124938	0.434483	-0.716751
C53	C	1.124962	0.434442	-0.870472
C54	C	1.124973	0.434423	-0.953809
C55	C	1.124925	0.434503	-0.633409
C56	C	1.124889	0.434629	-0.102008
C57	C	1.124985	0.434406	-0.020241
H58	H	0.709690	0.539169	-0.192923
C59	C	1.240858	0.555648	-0.695787
N60	N	1.286595	0.603447	-0.657195
H61	H	1.024807	0.329796	-0.738683
H62	H	0.570250	0.539181	-0.192937
C63	C	1.072552	0.764593	-0.345413
N64	N	1.028011	0.725581	-0.389885
H65	H	1.225090	0.539130	-0.848546
H66	H	0.540828	0.330096	-0.393509
H67	H	0.680253	0.330081	-0.393508
H68	H	1.039979	0.833913	-0.377963
C69	C	0.979303	1.103792	-0.438658
N70	N	0.945815	1.142838	-0.472113
H71	H	0.966651	0.919400	-0.451225
C72	C	1.186373	1.202674	-0.231917
N73	N	1.197415	1.280735	-0.220910
H74	H	1.255909	1.090261	-0.162452
H75	H	1.024826	0.329766	-0.878114
H76	H	1.282981	0.948947	-0.135345
H77	H	1.258786	0.778011	-0.159444
