data_functionalizedCrystal
_audit_creation_method	'MofGen! by Chris Wilmer'
_symmetry_space_group_name_H-M	'P1'
_symmetry_Int_Tables_number	1
_symmetry_cell_setting	triclinic
loop_
_symmetry_equiv_pos_as_xyz
  x,y,z
_cell_length_a	14.044191
_cell_length_b	15.995350
_cell_length_c	13.101039
_cell_angle_alpha	93.364563
_cell_angle_beta	86.337551
_cell_angle_gamma	88.342076
loop_
_atom_site_label
_atom_site_type_symbol
_atom_site_fract_x
_atom_site_fract_y
_atom_site_fract_z
O1	O	1.262919	0.197662	-0.085155
O2	O	1.762919	0.697662	0.414845
O3	O	0.986951	0.190371	-0.085169
O4	O	1.486951	0.690371	0.414831
O5	O	1.132479	0.072693	-0.085161
O6	O	1.632479	0.572693	0.414839
O7	O	1.117391	0.315341	-0.085163
O8	O	1.617391	0.815341	0.414837
O9	O	1.122037	0.081151	0.085269
O10	O	1.622037	0.581151	0.585269
O11	O	0.976509	0.198830	0.085261
O12	O	1.476509	0.698830	0.585261
O13	O	1.252478	0.206121	0.085274
O14	O	1.752478	0.706121	0.585274
Zn15	Zn	1.112836	0.203818	0.112327
Zn16	Zn	1.612836	0.703818	0.612327
Zn17	Zn	1.126593	0.192674	-0.112221
Zn18	Zn	1.626593	0.692674	0.387779
O19	O	1.106950	0.323799	0.085266
O20	O	1.606950	0.823799	0.585266
C21	C	0.946415	0.191411	0.000044
C22	C	1.446415	0.691411	0.500044
C23	C	0.841190	0.181897	0.000039
C24	C	1.341190	0.681897	0.500039
C25	C	0.590903	0.231976	0.000049
C26	C	1.090903	0.731976	0.500049
C27	C	0.648532	0.164519	0.000048
C28	C	1.148532	0.664519	0.500048
C29	C	0.755736	0.174191	0.000043
C30	C	1.255736	0.674191	0.500043
C31	C	0.483688	0.222306	0.000054
C32	C	0.983688	0.722306	0.500054
C33	C	1.126634	0.045681	0.000052
C34	C	1.626634	0.545681	0.500052
C35	C	1.124765	-0.047410	0.000046
C36	C	1.624765	0.452590	0.500046
C37	C	1.118049	-0.385659	0.000049
C38	C	1.618049	0.114341	0.500049
C39	C	1.014430	-0.345987	-0.000338
C40	C	1.514430	0.154013	0.499662
C41	C	1.016277	-0.249138	0.000046
C42	C	1.516277	0.250862	0.500046
C43	C	1.121380	-0.217850	0.000047
C44	C	1.621380	0.282150	0.500047
C45	C	1.166538	-0.250277	0.097371
C46	C	1.666538	0.249723	0.597371
C47	C	1.163929	-0.347104	0.097453
C48	C	1.663929	0.152896	0.597453
C49	C	1.177944	-0.356921	-0.096357
C50	C	1.677944	0.143079	0.403643
C51	C	1.177998	-0.260041	-0.097643
C52	C	1.677998	0.239959	0.402357
C53	C	1.123268	-0.123011	0.000049
C54	C	1.623268	0.376989	0.500049
C55	C	1.116164	-0.480497	0.000054
C56	C	1.616164	0.019503	0.500054
C57	C	1.293013	0.205081	0.000059
C58	C	1.793013	0.705081	0.500059
C59	C	1.398239	0.214594	0.000057
C60	C	1.898239	0.714594	0.500057
C61	C	1.112794	0.350811	0.000051
C62	C	1.612794	0.850811	0.500051
C63	C	1.114664	0.443901	0.000050
C64	C	1.614664	0.943901	0.500050
N65	N	1.103454	0.211424	0.265575
N66	N	1.603454	0.711424	0.765575
N67	N	1.135982	0.185062	-0.265469
N68	N	1.635982	0.685062	0.234531
C69	C	1.090689	0.221780	0.474617
C70	C	1.590689	0.721780	0.974617
C71	C	1.148744	0.174709	0.525495
C72	C	1.648744	0.674709	1.025495
C73	C	1.141641	0.180471	0.641814
C74	C	1.641641	0.680471	1.141814
C75	C	1.097790	0.216019	0.358288
C76	C	1.597790	0.716019	0.858288
H77	H	0.980367	-0.227181	-0.069720
H78	H	1.480367	0.272819	0.430280
H79	H	1.035658	0.266404	0.518411
H80	H	1.535658	0.766404	1.018411
H81	H	0.617361	0.099499	-0.000024
H82	H	1.117361	0.599499	0.499976
O83	O	0.965219	-0.379233	-0.092782
O84	O	1.465219	0.120767	0.407218
H85	H	0.945854	-0.326424	-0.139570
H86	H	1.445854	0.173576	0.360430
O87	O	1.221646	0.115595	0.467484
O88	O	1.721646	0.615595	0.967484
H89	H	1.294336	0.132709	0.488005
H90	H	1.794336	0.632709	0.988005
O91	O	0.632187	0.318095	0.000035
O92	O	1.132187	0.818095	0.500035
H93	H	0.711133	0.312271	0.000021
H94	H	1.211133	0.812271	0.500021
H95	H	0.971541	-0.220828	0.069927
H96	H	1.471541	0.279172	0.569927
O97	O	0.954163	-0.371442	0.091596
O98	O	1.454163	0.128558	0.591596
H99	H	0.997689	-0.412224	0.137565
H100	H	1.497689	0.087776	0.637565
H101	H	1.239752	-0.373448	0.101869
H102	H	1.739752	0.126552	0.601869
O103	O	1.108639	-0.370264	0.193809
O104	O	1.608639	0.129736	0.693809
H105	H	1.084009	-0.312337	0.239907
H106	H	1.584009	0.187663	0.739907
H107	H	1.243533	-0.230203	0.100991
H108	H	1.743533	0.269797	0.600991
H109	H	1.126595	-0.220954	0.169796
H110	H	1.626595	0.279046	0.669796
H111	H	1.148578	-0.383653	-0.170123
H112	H	1.648578	0.116347	0.329877
H113	H	1.145034	-0.239158	-0.169641
H114	H	1.645034	0.260842	0.330359
H115	H	1.255004	-0.239244	-0.103519
H116	H	1.755004	0.260756	0.396481
H117	H	1.254399	-0.383005	-0.097011
H118	H	1.754399	0.116995	0.402989
