data_functionalizedCrystal
_audit_creation_method	'MofGen! by Chris Wilmer'
_symmetry_space_group_name_H-M	'P1'
_symmetry_Int_Tables_number	1
_symmetry_cell_setting	triclinic
loop_
_symmetry_equiv_pos_as_xyz
  x,y,z
_cell_length_a	12.594517
_cell_length_b	13.897447
_cell_length_c	13.897441
_cell_angle_alpha	90.029327
_cell_angle_beta	89.973307
_cell_angle_gamma	89.985532
loop_
_atom_site_label
_atom_site_type_symbol
_atom_site_fract_x
_atom_site_fract_y
_atom_site_fract_z
Zn1	Zn	-1.627250	-0.384114	0.545543
Zn2	Zn	-1.127250	0.115886	1.045543
Zn3	Zn	-1.627128	-0.545436	0.384248
Zn4	Zn	-1.127128	-0.045436	0.884248
Zn5	Zn	-1.449252	-0.384142	0.384245
Zn6	Zn	-0.949252	0.115858	0.884245
Zn7	Zn	-1.449226	-0.545355	0.545484
Zn8	Zn	-0.949226	-0.045355	1.045484
O9	O	-1.538214	-0.464762	0.464880
O10	O	-1.038214	0.035238	0.964880
O11	O	-1.776180	-0.405536	0.524173
O12	O	-1.276180	0.094464	1.024173
O13	O	-1.603492	-0.524086	0.249266
O14	O	-1.103492	-0.024086	0.749266
O15	O	-1.472926	-0.249157	0.405665
O16	O	-0.972926	0.250843	0.905665
O17	O	-1.776090	-0.524059	0.405670
O18	O	-1.276090	-0.024059	0.905670
O19	O	-1.603701	-0.249136	0.524170
O20	O	-1.103701	0.250864	1.024170
O21	O	-1.472807	-0.405584	0.249263
O22	O	-0.972807	0.094416	0.749263
O23	O	-1.300302	-0.405505	0.405607
O24	O	-0.800302	0.094495	0.905607
O25	O	-1.472882	-0.523920	0.680473
O26	O	-0.972882	-0.023920	1.180473
O27	O	-1.300283	-0.523947	0.524069
O28	O	-0.800283	-0.023947	1.024069
O29	O	-1.603676	-0.405458	0.680517
O30	O	-1.103676	0.094542	1.180517
O31	O	-1.603467	-0.680407	0.405613
O32	O	-1.103467	-0.180407	0.905613
O33	O	-1.472763	-0.680347	0.524072
O34	O	-0.972763	-0.180347	1.024072
C35	C	-1.261673	-0.464721	0.464832
C36	C	-0.761673	0.035279	0.964832
C37	C	-1.143367	-0.464727	0.464834
C38	C	-0.643367	0.035273	0.964834
C39	C	-1.538127	-0.715376	0.464858
C40	C	-1.038127	-0.215376	0.964858
C41	C	-1.538188	-0.822590	0.464880
C42	C	-1.038188	-0.322590	0.964880
C43	C	-1.074094	-0.400213	0.400521
C44	C	-0.574094	0.099787	0.900521
C45	C	-1.003277	-0.488194	0.376789
C46	C	-0.503277	0.011806	0.876789
C47	C	-1.003386	-0.376773	0.488568
C48	C	-0.503386	0.123227	0.988568
C49	C	-1.074108	-0.552754	0.441056
C50	C	-0.574108	-0.052754	0.941056
C51	C	-1.074224	-0.441274	0.552876
C52	C	-0.574224	0.058726	1.052876
C53	C	-1.003439	-0.529316	0.529177
C54	C	-0.503439	-0.029316	1.029177
C55	C	-0.815835	-0.464784	0.464911
C56	C	-0.315835	0.035216	0.964911
C57	C	-0.934140	-0.464744	0.464878
C58	C	-0.434140	0.035256	0.964878
C59	C	-1.538239	-0.909660	0.464902
C60	C	-1.038239	-0.409660	0.964902
C61	C	-1.538314	-1.018892	0.464927
C62	C	-1.038314	-0.518892	0.964927
C63	C	-1.538289	-0.464677	0.716473
C64	C	-1.038289	0.035323	1.216473
C65	C	-1.538322	-0.464640	0.823687
C66	C	-1.038322	0.035360	1.323687
C67	C	-1.538330	-0.213169	0.464923
C68	C	-1.038330	0.286831	0.964923
C69	C	-1.538379	-0.105955	0.464942
C70	C	-1.038379	0.394045	0.964942
C71	C	-1.538200	-0.464777	0.214266
C72	C	-1.038200	0.035223	0.714266
C73	C	-1.538374	-0.464542	0.107052
C74	C	-1.038374	0.035458	0.607052
C75	C	-1.538351	-0.464575	1.019982
C76	C	-1.038351	0.035425	1.519982
C77	C	-1.538331	-0.464614	0.910750
C78	C	-1.038331	0.035386	1.410750
H79	H	-1.105117	-0.345716	0.346072
H80	H	-0.605117	0.154284	0.846072
N81	N	-0.961996	-0.514498	0.278195
N82	N	-0.461996	-0.014498	0.778195
H83	H	-0.987185	-0.465417	0.229732
H84	H	-0.487185	0.034583	0.729732
H85	H	-0.881823	-0.515479	0.279329
H86	H	-0.381823	-0.015479	0.779329
N87	N	-1.115074	-0.651322	0.414377
N88	N	-0.615074	-0.151322	0.914377
H89	H	-1.195264	-0.650700	0.414496
H90	H	-0.695264	-0.150700	0.914496
H91	H	-1.088561	-0.669130	0.348122
H92	H	-0.588561	-0.169130	0.848122
N93	N	-0.962594	-0.601667	0.601248
N94	N	-0.462594	-0.101667	1.101248
H95	H	-0.988460	-0.668052	0.583215
H96	H	-0.488460	-0.168052	1.083215
H97	H	-0.882410	-0.600801	0.601240
H98	H	-0.382410	-0.100801	1.101240
H99	H	-1.105411	-0.421396	0.627290
H100	H	-0.605411	0.078604	1.127290
H101	H	-0.972264	-0.302394	0.508590
H102	H	-0.472264	0.197606	1.008590
