data_functionalizedCrystal
_audit_creation_method	'MofGen! by Chris Wilmer'
_symmetry_space_group_name_H-M	'P1'
_symmetry_Int_Tables_number	1
_symmetry_cell_setting	triclinic
loop_
_symmetry_equiv_pos_as_xyz
  x,y,z
_cell_length_a	11.026607
_cell_length_b	10.654550
_cell_length_c	9.482900
_cell_angle_alpha	99.426343
_cell_angle_beta	78.636152
_cell_angle_gamma	96.535460
loop_
_atom_site_label
_atom_site_type_symbol
_atom_site_fract_x
_atom_site_fract_y
_atom_site_fract_z
O1	O	1.633381	0.511463	-0.120893
O2	O	1.279571	0.451467	-0.120895
O3	O	1.464610	0.300492	-0.120889
O4	O	1.448342	0.662438	-0.120899
O5	O	1.427025	0.331316	0.120903
O6	O	1.241986	0.482291	0.120896
O7	O	1.595797	0.542287	0.120898
Cu8	Cu	1.415460	0.515103	0.142975
Cu9	Cu	1.459908	0.478650	-0.142971
O10	O	1.410758	0.693262	0.120892
C11	C	1.215474	0.455811	0.000000
C12	C	1.080483	0.422816	-0.000001
C13	C	1.007444	0.513919	-0.000004
C14	C	0.867923	0.479820	-0.000005
C15	C	1.444623	0.268847	0.000005
C16	C	1.441050	0.128627	0.000000
C17	C	1.549998	0.072791	0.000005
C18	C	1.546634	-0.058961	-0.000005
C19	C	1.325364	-0.079031	-0.000019
C20	C	1.328730	0.052718	-0.000019
C21	C	1.662318	0.148701	0.000025
C22	C	1.771274	0.092866	0.000031
C23	C	1.767910	-0.038887	0.000021
C24	C	1.655590	-0.114805	0.000004
C25	C	1.659894	0.537943	-0.000000
C26	C	1.794887	0.570936	-0.000009
C27	C	1.430745	0.724907	-0.000005
C28	C	1.434319	0.865125	-0.000010
N29	N	1.384206	0.540743	0.344094
N30	N	1.491171	0.453003	-0.344091
C31	C	1.450681	0.486205	0.416295
C32	C	1.424686	0.507549	0.583712
H33	H	1.039728	0.319570	-0.000035
O34	O	1.055948	0.637109	-0.000200
C35	C	1.091431	0.820947	-0.125515
C36	C	1.036426	0.681445	-0.125457
H37	H	1.075690	0.856826	-0.226789
H38	H	1.044135	0.882781	-0.024397
H39	H	1.195279	0.826477	-0.125441
H40	H	0.932584	0.675793	-0.125582
H41	H	1.083816	0.619674	-0.226566
O42	O	1.581796	0.378243	0.581588
C43	C	1.689927	0.288304	0.346961
C44	C	1.587428	0.373203	0.430947
H45	H	1.694497	0.284179	0.225154
H46	H	1.783115	0.329936	0.376454
H47	H	1.667991	0.187859	0.377116
H48	H	1.609247	0.473665	0.400838
H49	H	1.494271	0.331467	0.401447
O50	O	1.293432	0.615308	0.418424
C51	C	1.184673	0.704460	0.653055
C52	C	1.287533	0.620009	0.569064
H53	H	1.179852	0.708267	0.774863
H54	H	1.206229	0.805070	0.623320
H55	H	1.091720	0.662485	0.623148
H56	H	1.380527	0.661870	0.598926
H57	H	1.265869	0.519409	0.598806
O58	O	1.880447	0.166520	-0.000219
C59	C	2.090091	0.207976	-0.125436
C60	C	1.966512	0.124489	-0.125347
H61	H	2.159717	0.174009	-0.226576
H62	H	2.073870	0.311743	-0.125523
H63	H	2.128201	0.199930	-0.024202
H64	H	1.928337	0.132426	-0.226563
H65	H	1.982809	0.020758	-0.125184
H66	H	0.827174	0.376567	-0.000039
H67	H	1.526832	0.423704	0.354170
O68	O	1.873633	-0.093251	0.000211
C69	C	1.978802	-0.214326	0.125517
C70	C	1.858985	-0.152848	0.125460
H71	H	1.967009	-0.262503	0.226785
H72	H	1.998496	-0.288473	0.024392
H73	H	2.059645	-0.137426	0.125458
H74	H	1.778067	-0.229658	0.125570
H75	H	1.839399	-0.078674	0.226575
H76	H	1.665069	0.255982	0.000038
H77	H	1.233917	-0.140853	-0.000031
H78	H	1.348521	0.570043	0.645833
H79	H	1.652862	-0.222088	-0.000019
H80	H	0.835639	0.674185	-0.000002
H81	H	1.240015	0.098180	-0.000022
