data_functionalizedCrystal
_audit_creation_method	'MofGen! by Chris Wilmer'
_symmetry_space_group_name_H-M	'P1'
_symmetry_Int_Tables_number	1
_symmetry_cell_setting	triclinic
loop_
_symmetry_equiv_pos_as_xyz
  x,y,z
_cell_length_a	15.944545
_cell_length_b	12.837942
_cell_length_c	11.295483
_cell_angle_alpha	85.469583
_cell_angle_beta	94.102760
_cell_angle_gamma	89.162556
loop_
_atom_site_label
_atom_site_type_symbol
_atom_site_fract_x
_atom_site_fract_y
_atom_site_fract_z
O1	O	-1.130315	-0.126689	-0.098946
O2	O	-0.630315	0.373311	0.401054
O3	O	-0.887085	-0.143178	-0.098965
O4	O	-0.387085	0.356822	0.401035
O5	O	-1.003306	0.015969	-0.098949
O6	O	-0.503306	0.515969	0.401051
O7	O	-1.014094	-0.285836	-0.098963
O8	O	-0.514094	0.214164	0.401037
O9	O	-0.993096	0.002012	0.099100
O10	O	-0.493096	0.502012	0.599100
O11	O	-0.876875	-0.157135	0.099084
O12	O	-0.376875	0.342865	0.599084
O13	O	-1.120105	-0.140646	0.099103
O14	O	-0.620105	0.359354	0.599103
Cu15	Cu	-0.997558	-0.150165	0.117177
Cu16	Cu	-0.497558	0.349835	0.617177
Cu17	Cu	-1.009632	-0.133659	-0.117039
Cu18	Cu	-0.509632	0.366341	0.382961
O19	O	-1.003884	-0.299793	0.099087
O20	O	-0.503884	0.200207	0.599087
C21	C	-0.850631	-0.149473	0.000057
C22	C	-0.350631	0.350527	0.500057
C23	C	-0.757221	-0.147423	0.000050
C24	C	-0.257221	0.352577	0.500050
C25	C	-0.994557	0.047611	0.000075
C26	C	-0.494557	0.547611	0.500075
C27	C	-0.983690	0.162689	0.000072
C28	C	-0.483690	0.662689	0.500072
C29	C	-1.156559	-0.134351	0.000078
C30	C	-0.656559	0.365649	0.500078
C31	C	-1.249969	-0.136400	0.000078
C32	C	-0.749969	0.363600	0.500078
C33	C	-0.478207	-0.042655	0.000067
C34	C	0.021793	0.457345	0.500067
C35	C	-0.527795	-0.100048	0.097716
C36	C	-0.027795	0.399952	0.597716
C37	C	-0.420992	-0.140118	0.000070
C38	C	0.079008	0.359882	0.500070
C39	C	-0.537844	-0.086314	-0.097545
C40	C	-0.037844	0.413686	0.402455
C41	C	-0.586193	-0.143702	0.000058
C42	C	-0.086193	0.356298	0.500058
C43	C	-0.469346	-0.197491	0.097800
C44	C	0.030654	0.302509	0.597800
C45	C	-0.479395	-0.183736	-0.097549
C46	C	0.020605	0.316264	0.402451
C47	C	-0.528955	-0.241202	0.000125
C48	C	-0.028955	0.258798	0.500125
C49	C	-0.325824	-0.138051	0.000078
C50	C	0.174176	0.361949	0.500078
C51	C	-0.681358	-0.145778	0.000059
C52	C	-0.181358	0.354222	0.500059
C53	C	-1.012633	-0.331435	0.000060
C54	C	-0.512633	0.168565	0.500060
C55	C	-1.023501	-0.446512	0.000055
C56	C	-0.523501	0.053488	0.500055
N57	N	-0.989072	-0.161773	0.281912
N58	N	-0.489072	0.338227	0.781912
C59	C	-1.114343	0.403643	0.000057
C60	C	-0.614343	0.903643	0.500057
C61	C	-1.104136	0.511769	0.000055
C62	C	-0.604136	1.011769	0.500055
C63	C	-0.953069	0.487071	0.000055
C64	C	-0.453069	0.987071	0.500055
C65	C	-0.963276	0.378945	0.000058
C66	C	-0.463276	0.878945	0.500058
C67	C	-1.043916	0.337235	0.000061
C68	C	-0.543916	0.837235	0.500061
C69	C	-1.054122	0.229106	0.000072
C70	C	-0.554122	0.729106	0.500072
C71	C	-0.903056	0.204410	0.000064
C72	C	-0.403056	0.704410	0.500064
C73	C	-0.892849	0.312536	0.000061
C74	C	-0.392849	0.812536	0.500061
N75	N	-1.018124	-0.122043	-0.281774
N76	N	-0.518124	0.377957	0.218226
C77	C	-1.079208	-0.038421	0.531214
C78	C	-0.579208	0.461579	1.031214
C79	C	-1.072802	-0.047201	0.655877
C80	C	-0.572802	0.452799	1.155877
C81	C	-0.969848	-0.188107	0.655903
C82	C	-0.469848	0.311893	1.155903
C83	C	-0.976255	-0.179327	0.531240
C84	C	-0.476255	0.320673	1.031240
C85	C	-1.030937	-0.104483	0.468900
C86	C	-0.530937	0.395517	0.968900
C87	C	-1.037348	-0.095709	0.344235
C88	C	-0.537348	0.404291	0.844235
C89	C	-0.934390	-0.236609	0.344263
C90	C	-0.434390	0.263391	0.844263
C91	C	-0.927984	-0.245389	0.468926
C92	C	-0.427984	0.254611	0.968926
H93	H	-0.549177	-0.064705	0.180275
H94	H	-0.049177	0.435295	0.680275
O95	O	-0.805877	0.357531	0.000076
O96	O	-0.305877	0.857531	0.500076
H97	H	-0.801767	0.411894	-0.080640
H98	H	-0.301767	0.911894	0.419360
H99	H	-1.180002	0.369682	0.000071
H100	H	-0.680002	0.869682	0.500071
O101	O	-1.138184	0.042297	0.463963
O102	O	-0.638184	0.542297	0.963963
H103	H	-1.170672	0.086763	0.528240
H104	H	-0.670672	0.586763	1.028240
O105	O	-0.429911	-0.259668	0.207290
O106	O	0.070089	0.240332	0.707290
H107	H	-0.360385	-0.257624	0.206464
H108	H	0.139615	0.242376	0.706464
H109	H	-1.081876	-0.034770	0.293479
H110	H	-0.581876	0.465230	0.793479
H111	H	-0.925320	-0.249037	0.706676
H112	H	-0.425320	0.250963	1.206676
O113	O	-0.448540	0.068503	0.000216
O114	O	0.051460	0.568503	0.500216
H115	H	-0.414772	0.088349	-0.080898
H116	H	0.085228	0.588349	0.419102
H117	H	-0.845709	0.150327	0.000076
H118	H	-0.345709	0.650327	0.500076
O119	O	-0.577440	-0.024091	-0.206897
O120	O	-0.077440	0.475909	0.293103
H121	H	-0.527283	0.009045	-0.260943
H122	H	-0.027283	0.509045	0.239057
H123	H	-1.112108	0.006594	0.706610
H124	H	-0.612108	0.506594	1.206610
O125	O	-0.558389	-0.352468	0.000188
O126	O	-0.058389	0.147532	0.500188
H127	H	-0.530656	-0.398387	0.081322
H128	H	-0.030656	0.101613	0.581322
H129	H	-0.457994	-0.219043	-0.180110
H130	H	0.042006	0.280957	0.319890
O131	O	-0.869012	-0.326118	0.536164
O132	O	-0.369012	0.173882	1.036164
H133	H	-0.872670	-0.321132	0.633319
H134	H	-0.372670	0.178868	1.133319
H135	H	-1.119782	0.195147	0.000079
H136	H	-0.619782	0.695147	0.500079
H137	H	-0.895088	-0.290404	0.293512
H138	H	-0.395088	0.209596	0.793512
O139	O	-1.180096	0.583395	0.000068
O140	O	-0.680096	1.083395	0.500068
H141	H	-1.222439	0.574244	-0.080645
H142	H	-0.722439	1.074244	0.419355
O143	O	-0.866098	0.532065	0.000060
O144	O	-0.366098	1.032065	0.500060
H145	H	-0.870836	0.618408	0.000066
H146	H	-0.370836	1.118408	0.500066
