data_functionalizedCrystal
_audit_creation_method	'MofGen! by Chris Wilmer'
_symmetry_space_group_name_H-M	'P1'
_symmetry_Int_Tables_number	1
_symmetry_cell_setting	triclinic
loop_
_symmetry_equiv_pos_as_xyz
  x,y,z
_cell_length_a	29.839135
_cell_length_b	29.839131
_cell_length_c	21.395355
_cell_angle_alpha	90.020172
_cell_angle_beta	90.027781
_cell_angle_gamma	90.043950
loop_
_atom_site_label
_atom_site_type_symbol
_atom_site_fract_x
_atom_site_fract_y
_atom_site_fract_z
Zn1	Zn	0.686774	-0.178875	0.354308
Zn2	Zn	1.020107	0.154458	0.687641
Zn3	Zn	1.353441	0.487792	1.020975
Zn4	Zn	0.686690	-0.253990	0.249528
Zn5	Zn	1.020024	0.079343	0.582861
Zn6	Zn	1.353357	0.412676	0.916194
Zn7	Zn	0.611641	-0.178878	0.249539
Zn8	Zn	0.944974	0.154455	0.582872
Zn9	Zn	1.278307	0.487788	0.916206
Zn10	Zn	0.611605	-0.253982	0.354262
Zn11	Zn	0.944938	0.079351	0.687595
Zn12	Zn	1.278271	0.412685	1.020929
O13	O	0.649177	-0.216431	0.301909
O14	O	0.982511	0.116902	0.635243
O15	O	1.315844	0.450235	0.968576
O16	O	0.749630	-0.188841	0.340423
O17	O	1.082963	0.144492	0.673757
O18	O	1.416297	0.477825	1.007090
O19	O	0.676715	-0.244031	0.161851
O20	O	1.010048	0.089302	0.495185
O21	O	1.343381	0.422635	0.828518
O22	O	0.621658	-0.116011	0.263461
O23	O	0.954991	0.217322	0.596794
O24	O	1.288324	0.550656	0.930128
O25	O	0.749568	-0.244028	0.263442
O26	O	1.082902	0.089305	0.596775
O27	O	1.416235	0.422639	0.930108
O28	O	0.676858	-0.116008	0.340434
O29	O	1.010191	0.217325	0.673768
O30	O	1.343524	0.550658	1.007101
O31	O	0.621576	-0.188847	0.161860
O32	O	0.954910	0.144486	0.495193
O33	O	1.288243	0.477820	0.828526
O34	O	0.548769	-0.188839	0.263416
O35	O	0.882102	0.144494	0.596749
O36	O	1.215436	0.477828	0.930083
O37	O	0.621596	-0.244014	0.441946
O38	O	0.954929	0.089319	0.775279
O39	O	1.288263	0.422653	1.108613
O40	O	0.548742	-0.244017	0.340356
O41	O	0.882076	0.089316	0.673689
O42	O	1.215409	0.422649	1.007022
O43	O	0.676823	-0.188833	0.441980
O44	O	1.010156	0.144500	0.775313
O45	O	1.343489	0.477833	1.108647
O46	O	0.676680	-0.316856	0.263397
O47	O	1.010013	0.016477	0.596730
O48	O	1.343346	0.349810	0.930063
O49	O	0.621515	-0.316850	0.340345
O50	O	0.954848	0.016483	0.673678
O51	O	1.288181	0.349816	1.007011
C52	C	0.649096	-0.333154	0.301878
C53	C	0.982430	0.000179	0.635211
C54	C	1.315763	0.333513	0.968545
C55	C	0.649103	-0.383088	0.301886
C56	C	0.982436	-0.049755	0.635219
C57	C	1.315769	0.283578	0.968552
C58	C	0.532455	-0.216428	0.301882
C59	C	0.865788	0.116905	0.635216
C60	C	1.199122	0.450239	0.968549
C61	C	0.482520	-0.216437	0.301886
C62	C	0.815854	0.116896	0.635219
C63	C	1.149187	0.450229	0.968552
C64	C	0.677954	-0.692722	0.261901
C65	C	1.011287	-0.359389	0.595234
C66	C	1.344621	-0.026056	0.928568
C67	C	0.678010	-0.880395	0.261925
C68	C	1.011343	-0.547062	0.595259
C69	C	1.344676	-0.213729	0.928592
O70	O	0.702476	-0.904652	0.227905
O71	O	1.035809	-0.571319	0.561238
O72	O	1.369142	-0.237985	0.894572
N73	N	0.649271	-0.903873	0.301956
N74	N	0.982604	-0.570540	0.635290
N75	N	1.315937	-0.237207	0.968623
C76	C	0.620518	-0.880430	0.341987
C77	C	0.953851	-0.547097	0.675321
C78	C	1.287184	-0.213764	1.008654
O79	O	0.596078	-0.904706	0.376041
O80	O	0.929411	-0.571373	0.709375
O81	O	1.262745	-0.238040	1.042708
C82	C	0.620465	-0.692758	0.341966
C83	C	0.953798	-0.359425	0.675299
C84	C	1.287132	-0.026092	1.008632
C85	C	0.649203	-0.669283	0.301927
C86	C	0.982536	-0.335949	0.635261
C87	C	1.315869	-0.002616	0.968594
C88	C	0.706690	-0.669247	0.221867
C89	C	1.040023	-0.335913	0.555200
C90	C	1.373356	-0.002580	0.888533
C91	C	0.706674	-0.622331	0.221858
C92	C	1.040007	-0.288998	0.555192
C93	C	1.373341	0.044335	0.888525
C94	C	0.677922	-0.598891	0.261885
C95	C	1.011256	-0.265558	0.595218
C96	C	1.344589	0.067775	0.928551
C97	C	0.649187	-0.622367	0.301919
C98	C	0.982520	-0.289034	0.635253
C99	C	1.315853	0.044299	0.968586
C100	C	0.591715	-0.669316	0.381999
C101	C	0.925048	-0.335983	0.715332
C102	C	1.258381	-0.002649	1.048666
C103	C	0.591705	-0.622395	0.381991
C104	C	0.925038	-0.289062	0.715325
C105	C	1.258372	0.044272	1.048658
C106	C	0.620443	-0.598919	0.341953
C107	C	0.953776	-0.265586	0.675286
C108	C	1.287109	0.067747	1.008620
C109	C	0.620419	-0.552012	0.341938
C110	C	0.953753	-0.218679	0.675271
C111	C	1.287086	0.114655	1.008604
N112	N	0.649158	-0.528534	0.301906
N113	N	0.982492	-0.195201	0.635240
N114	N	1.315825	0.138133	0.968573
C115	C	0.677910	-0.551974	0.261880
C116	C	1.011243	-0.218640	0.595213
C117	C	1.344576	0.114693	0.928547
C118	C	0.620547	-0.978961	0.341995
C119	C	0.953880	-0.645628	0.675328
C120	C	1.287214	-0.312294	1.008662
C121	C	0.620560	-1.025879	0.342000
C122	C	0.953893	-0.692546	0.675333
C123	C	1.287226	-0.359212	1.008666
C124	C	0.678052	-1.025841	0.261938
C125	C	1.011385	-0.692507	0.595272
C126	C	1.344719	-0.359174	0.928605
C127	C	0.678037	-0.978922	0.261931
C128	C	1.011370	-0.645589	0.595264
C129	C	1.344703	-0.312255	0.928598
C130	C	0.649286	-0.955483	0.301964
C131	C	0.982619	-0.622150	0.635297
C132	C	1.315953	-0.288816	0.968630
C133	C	0.677874	-0.453448	0.261866
C134	C	1.011207	-0.120114	0.595199
C135	C	1.344541	0.213219	0.928532
C136	C	0.677854	-0.406528	0.261859
C137	C	1.011188	-0.073195	0.595193
C138	C	1.344521	0.260138	0.928526
C139	C	0.620364	-0.406571	0.341923
C140	C	0.953697	-0.073237	0.675256
C141	C	1.287030	0.260096	1.008589
C142	C	0.620382	-0.453486	0.341927
C143	C	0.953715	-0.120153	0.675260
C144	C	1.287048	0.213181	1.008594
C145	C	0.649140	-0.476924	0.301896
C146	C	0.982474	-0.143590	0.635230
C147	C	1.315807	0.189743	0.968563
O148	O	0.595970	-0.527726	0.375945
O149	O	0.929303	-0.194393	0.709278
O150	O	1.262636	0.138940	1.042612
O151	O	0.702353	-0.527690	0.227841
O152	O	1.035686	-0.194356	0.561174
O153	O	1.369020	0.138977	0.894508
C154	C	0.677970	-0.739638	0.261909
C155	C	1.011303	-0.406304	0.595242
C156	C	1.344637	-0.072971	0.928576
C157	C	0.649234	-0.763114	0.301944
C158	C	0.982568	-0.429780	0.635277
C159	C	1.315901	-0.096447	0.968610
C160	C	0.620483	-0.739674	0.341970
C161	C	0.953816	-0.406340	0.675303
C162	C	1.287149	-0.073007	1.008637
C163	C	0.649247	-0.810031	0.301948
C164	C	0.982580	-0.476698	0.635282
C165	C	1.315914	-0.143365	0.968615
C166	C	0.677998	-0.833471	0.261922
C167	C	1.011332	-0.500138	0.595255
C168	C	1.344665	-0.166804	0.928589
C169	C	0.706737	-0.809993	0.221891
C170	C	1.040071	-0.476660	0.555224
C171	C	1.373404	-0.143326	0.888557
C172	C	0.706721	-0.763078	0.221883
C173	C	1.040055	-0.429744	0.555216
C174	C	1.373388	-0.096411	0.888549
C175	C	0.591744	-0.763152	0.382001
C176	C	0.925077	-0.429819	0.715334
C177	C	1.258411	-0.096485	1.048668
C178	C	0.591762	-0.810067	0.382005
C179	C	0.925095	-0.476734	0.715339
C180	C	1.258428	-0.143401	1.048672
C181	C	0.620513	-0.833507	0.341979
C182	C	0.953847	-0.500174	0.675312
C183	C	1.287180	-0.166840	1.008646
C184	C	0.172906	-0.187739	0.342053
C185	C	0.506240	0.145594	0.675386
C186	C	0.839573	0.478927	1.008719
C187	C	-0.014767	-0.187742	0.342070
C188	C	0.318566	0.145591	0.675404
C189	C	0.651900	0.478924	1.008737
O190	O	-0.039007	-0.163332	0.376192
O191	O	0.294326	0.170001	0.709525
O192	O	0.627660	0.503335	1.042859
N193	N	-0.038265	-0.216432	0.301932
N194	N	0.295069	0.116901	0.635265
N195	N	0.628402	0.450235	0.968599
C196	C	-0.014841	-0.245121	0.261784
C197	C	0.318492	0.088213	0.595117
C198	C	0.651825	0.421546	0.928450
O199	O	-0.039134	-0.269520	0.227639
O200	O	0.294199	0.063813	0.560973
O201	O	0.627533	0.397147	0.894306
C202	C	0.172831	-0.245115	0.261763
C203	C	0.506164	0.088218	0.595096
C204	C	0.839498	0.421552	0.928430
C205	C	0.196326	-0.216427	0.301909
C206	C	0.529660	0.116907	0.635242
C207	C	0.862993	0.450240	0.968575
C208	C	0.196402	-0.159053	0.382194
C209	C	0.529735	0.174280	0.715528
C210	C	0.863068	0.507614	1.048861
C211	C	0.243317	-0.159054	0.382192
C212	C	0.576650	0.174279	0.715525
C213	C	0.909984	0.507613	1.048858
C214	C	0.266737	-0.187742	0.342048
C215	C	0.600070	0.145592	0.675381
C216	C	0.933404	0.478925	1.008714
C217	C	0.243242	-0.216428	0.301906
C218	C	0.576575	0.116905	0.635239
C219	C	0.909908	0.450239	0.968573
C220	C	0.196253	-0.273801	0.221612
C221	C	0.529587	0.059532	0.554945
C222	C	0.862920	0.392865	0.888279
C223	C	0.243174	-0.273797	0.221609
C224	C	0.576508	0.059537	0.554943
C225	C	0.909841	0.392870	0.888276
C226	C	0.266670	-0.245108	0.261755
C227	C	0.600003	0.088225	0.595088
C228	C	0.933336	0.421558	0.928421
C229	C	0.313577	-0.245117	0.261760
C230	C	0.646911	0.088217	0.595093
C231	C	0.980244	0.421550	0.928426
N232	N	0.337075	-0.216427	0.301898
N233	N	0.670408	0.116906	0.635231
N234	N	1.003742	0.450239	0.968564
C235	C	0.313655	-0.187740	0.342042
C236	C	0.646988	0.145594	0.675375
C237	C	0.980322	0.478927	1.008709
C238	C	-0.113372	-0.245122	0.261798
C239	C	0.219961	0.088211	0.595131
C240	C	0.553295	0.421544	0.928465
C241	C	-0.160290	-0.245124	0.261804
C242	C	0.173044	0.088209	0.595137
C243	C	0.506377	0.421542	0.928471
C244	C	-0.160212	-0.187745	0.342090
C245	C	0.173121	0.145588	0.675423
C246	C	0.506455	0.478921	1.008757
C247	C	-0.113293	-0.187746	0.342087
C248	C	0.220040	0.145588	0.675420
C249	C	0.553373	0.478921	1.008754
C250	C	-0.089874	-0.216433	0.301936
C251	C	0.243459	0.116901	0.635270
C252	C	0.576793	0.450234	0.968603
C253	C	0.412181	-0.187745	0.342034
C254	C	0.745514	0.145589	0.675367
C255	C	1.078847	0.478922	1.008701
C256	C	0.459100	-0.187750	0.342030
C257	C	0.792434	0.145584	0.675363
C258	C	1.125767	0.478917	1.008697
C259	C	0.459019	-0.245127	0.261742
C260	C	0.792352	0.088206	0.595075
C261	C	1.125685	0.421540	0.928408
C262	C	0.412103	-0.245124	0.261748
C263	C	0.745436	0.088209	0.595081
C264	C	1.078770	0.421543	0.928415
C265	C	0.388685	-0.216429	0.301896
C266	C	0.722019	0.116904	0.635230
C267	C	1.055352	0.450238	0.968563
O268	O	0.337846	-0.269511	0.227651
O269	O	0.671180	0.063822	0.560984
O270	O	1.004513	0.397156	0.894318
O271	O	0.337956	-0.163337	0.376171
O272	O	0.671289	0.169996	0.709505
O273	O	1.004622	0.503330	1.042838
C274	C	0.125991	-0.187738	0.342055
C275	C	0.459324	0.145595	0.675388
C276	C	0.792657	0.478929	1.008722
C277	C	0.102495	-0.216424	0.301913
C278	C	0.435829	0.116909	0.635247
C279	C	0.769162	0.450242	0.968580
C280	C	0.125915	-0.245112	0.261769
C281	C	0.459249	0.088221	0.595103
C282	C	0.792582	0.421555	0.928436
C283	C	0.055578	-0.216426	0.301919
C284	C	0.388911	0.116907	0.635253
C285	C	0.722244	0.450240	0.968586
C286	C	0.032157	-0.187739	0.342063
C287	C	0.365491	0.145595	0.675397
C288	C	0.698824	0.478928	1.008730
C289	C	0.055655	-0.159049	0.382202
C290	C	0.388989	0.174284	0.715535
C291	C	0.722322	0.507618	1.048868
C292	C	0.102571	-0.159050	0.382199
C293	C	0.435904	0.174283	0.715532
C294	C	0.769237	0.507616	1.048866
C295	C	0.102418	-0.273801	0.221631
C296	C	0.435751	0.059532	0.554964
C297	C	0.769084	0.392865	0.888298
C298	C	0.055502	-0.273798	0.221637
C299	C	0.388835	0.059535	0.554971
C300	C	0.722169	0.392868	0.888304
C301	C	0.032082	-0.245111	0.261781
C302	C	0.365415	0.088223	0.595115
C303	C	0.698749	0.421556	0.928448
C304	C	0.766356	-0.216435	0.301936
C305	C	1.099689	0.116898	0.635270
C306	C	1.433022	0.450231	0.968603
C307	C	0.816290	-0.216437	0.301948
C308	C	1.149624	0.116896	0.635281
C309	C	1.482957	0.450230	0.968615
C310	C	0.649215	-0.216422	0.465333
C311	C	0.982548	0.116911	0.798666
C312	C	1.315881	0.450244	1.131999
C313	C	0.649231	-0.216418	0.534974
C314	C	0.982564	0.116915	0.868307
C315	C	1.315897	0.450248	1.201640
C316	C	0.649271	-0.099253	0.301954
C317	C	0.982604	0.234080	0.635287
C318	C	1.315938	0.567414	0.968621
C319	C	0.649311	-0.049319	0.301973
C320	C	0.982644	0.284015	0.635307
C321	C	1.315978	0.617348	0.968640
C322	C	0.649166	-0.216408	0.139122
C323	C	0.982499	0.116925	0.472455
C324	C	1.315833	0.450259	0.805788
C325	C	0.649237	-0.216285	0.069481
C326	C	0.982571	0.117048	0.402814
C327	C	1.315904	0.450381	0.736147
C328	C	0.677986	-0.187685	0.567706
C329	C	1.011319	0.145649	0.901039
C330	C	1.344653	0.478982	1.234372
C331	C	0.677985	-0.187665	0.633141
C332	C	1.011319	0.145668	0.966474
C333	C	1.344652	0.479001	1.299808
C334	C	0.649234	-0.216388	0.665842
C335	C	0.982567	0.116945	0.999176
C336	C	1.315901	0.450279	1.332509
C337	C	0.620473	-0.245124	0.633102
C338	C	0.953807	0.088210	0.966436
C339	C	1.287140	0.421543	1.299769
C340	C	0.620472	-0.245139	0.567668
C341	C	0.953805	0.088194	0.901002
C342	C	1.287138	0.421528	1.234335
C343	C	0.645659	-0.256839	0.769506
C344	C	0.978992	0.076494	1.102839
C345	C	1.312325	0.409828	1.436172
C346	C	0.645664	-0.256825	0.834939
C347	C	0.978997	0.076509	1.168272
C348	C	1.312330	0.409842	1.501605
C349	C	0.649237	-0.216340	0.867663
C350	C	0.982570	0.116993	1.200996
C351	C	1.315904	0.450326	1.534330
C352	C	0.652815	-0.175870	0.834946
C353	C	0.986148	0.157464	1.168280
C354	C	1.319481	0.490797	1.501613
C355	C	0.652813	-0.175885	0.769512
C356	C	0.986146	0.157449	1.102845
C357	C	1.319480	0.490782	1.436179
C358	C	0.649233	-0.216374	0.736795
C359	C	0.982566	0.116959	1.070128
C360	C	1.315899	0.450292	1.403461
C361	C	0.677993	-0.187583	0.971347
C362	C	1.011326	0.145750	1.304681
C363	C	1.344660	0.479083	1.638014
C364	C	0.677989	-0.187563	1.036784
C365	C	1.011323	0.145770	1.370117
C366	C	1.344656	0.479104	1.703451
C367	C	0.620480	-0.245026	1.036744
C368	C	0.953813	0.088308	1.370078
C369	C	1.287146	0.421641	1.703411
C370	C	0.620481	-0.245042	0.971309
C371	C	0.953814	0.088292	1.304642
C372	C	1.287148	0.421625	1.637976
C373	C	0.649240	-0.216321	0.938614
C374	C	0.982574	0.117012	1.271948
C375	C	1.315907	0.450346	1.605281
H376	H	0.701256	-0.387416	0.229253
H377	H	1.034589	-0.054082	0.562587
H378	H	1.367922	0.279251	0.895920
F379	F	0.589865	-0.275723	0.532832
F380	F	0.923198	0.057610	0.866165
F381	F	1.256531	0.390944	1.199498
F382	F	0.589877	-0.275626	0.936472
F383	F	0.923210	0.057707	1.269805
F384	F	1.256544	0.391041	1.603139
F385	F	0.641860	-0.299897	0.869752
F386	F	0.975193	0.033436	1.203086
F387	F	1.308526	0.366770	1.536419
F388	F	0.268317	-0.128519	0.424919
F389	F	0.601650	0.204815	0.758252
F390	F	0.934983	0.538148	1.091585
H391	H	0.642629	-0.289798	0.742867
H392	H	0.975962	0.043535	1.076201
H393	H	1.309295	0.376869	1.409534
H394	H	0.478228	-0.164388	0.374723
H395	H	0.811562	0.168945	0.708057
H396	H	1.144895	0.502279	1.041390
H397	H	0.393120	-0.164377	0.374725
H398	H	0.726453	0.168956	0.708058
H399	H	1.059786	0.502289	1.041391
H400	H	-0.179416	-0.268490	0.229120
H401	H	0.153918	0.064843	0.562454
H402	H	0.487251	0.398176	0.895787
H403	H	0.568311	-0.688422	0.414600
H404	H	0.901645	-0.355089	0.747933
H405	H	1.234978	-0.021755	1.081266
F406	F	-0.088453	-0.275654	0.219057
F407	F	0.244880	0.057680	0.552390
F408	F	0.578214	0.391013	0.885724
H409	H	-0.094167	-0.164384	0.374776
H410	H	0.239167	0.168949	0.708109
H411	H	0.572500	0.502282	1.041442
F412	F	0.708592	-0.157116	0.532913
F413	F	1.041926	0.176218	0.866247
F414	F	1.375259	0.509551	1.199580
H415	H	0.730076	-0.603220	0.189258
H416	H	1.063409	-0.269887	0.522591
H417	H	1.396742	0.063447	0.855924
H418	H	0.655725	-0.142932	0.742877
H419	H	0.989058	0.190401	1.076210
H420	H	1.322392	0.523735	1.409543
H421	H	0.392972	-0.268489	0.229066
H422	H	0.726306	0.064844	0.562399
H423	H	1.059639	0.398177	0.895732
H424	H	0.596982	-0.472601	0.374531
H425	H	0.930316	-0.139268	0.707865
H426	H	1.263649	0.194066	1.041198
H427	H	0.730105	-0.688326	0.189272
H428	H	1.063438	-0.354993	0.522605
H429	H	1.396772	-0.021660	0.855939
H430	H	0.701438	-0.959811	0.229329
H431	H	1.034771	-0.626477	0.562662
H432	H	1.368104	-0.293144	0.895995
F433	F	0.737310	-0.738099	0.179270
F434	F	1.070643	-0.404765	0.512603
F435	F	1.403976	-0.071432	0.845937
H436	H	0.568293	-0.603313	0.414593
H437	H	0.901626	-0.269980	0.747926
H438	H	1.234960	0.063353	1.081259
H439	H	0.701463	-1.044933	0.229347
H440	H	1.034796	-0.711600	0.562681
H441	H	1.368129	-0.378266	0.896014
H442	H	0.568331	-0.744071	0.414596
H443	H	0.901665	-0.410738	0.747930
H444	H	1.234998	-0.077404	1.081263
H445	H	0.177338	-0.135690	0.414885
H446	H	0.510671	0.197644	0.748218
H447	H	0.844005	0.530977	1.081551
H448	H	0.701400	-0.164264	0.659797
H449	H	1.034734	0.169069	0.993130
H450	H	1.368067	0.502402	1.326463
H451	H	0.730147	-0.829086	0.189298
H452	H	1.063480	-0.495752	0.522631
H453	H	1.396813	-0.162419	0.855965
H454	H	0.701408	-0.164195	0.944726
H455	H	1.034741	0.169139	1.278060
H456	H	1.368075	0.502472	1.611393
H457	H	0.568356	-0.829177	0.414609
H458	H	0.901690	-0.495844	0.747942
H459	H	1.235023	-0.162511	1.081275
F460	F	0.030722	-0.128519	0.424928
F461	F	0.364055	0.204814	0.758262
F462	F	0.697388	0.538147	1.091595
F463	F	-0.185145	-0.157213	0.384814
F464	F	0.148188	0.176120	0.718147
F465	F	0.481521	0.509454	1.051481
F466	F	0.171258	-0.304329	0.178873
F467	F	0.504591	0.029004	0.512207
F468	F	0.837925	0.362338	0.845540
H469	H	0.596953	-0.387479	0.374510
H470	H	0.930286	-0.054145	0.707843
H471	H	1.263620	0.279188	1.041177
H472	H	0.701405	-0.164162	1.063433
H473	H	1.034738	0.169171	1.396767
H474	H	1.368071	0.502505	1.730100
H475	H	0.597062	-0.268508	0.659732
H476	H	0.930396	0.064825	0.993065
H477	H	1.263729	0.398158	1.326399
H478	H	0.597065	-0.268407	1.063369
H479	H	0.930399	0.064926	1.396702
H480	H	1.263732	0.398259	1.730036
H481	H	0.262240	-0.297157	0.188912
H482	H	0.595573	0.036177	0.522245
H483	H	0.928907	0.369510	0.855579
H484	H	0.478096	-0.268485	0.229059
H485	H	0.811429	0.064849	0.562392
H486	H	1.144762	0.398182	0.895725
H487	H	0.655725	-0.142903	0.861589
H488	H	0.989059	0.190430	1.194922
H489	H	1.322392	0.523763	1.528256
H490	H	0.701293	-0.472525	0.229270
H491	H	1.034626	-0.139192	0.562604
H492	H	1.367960	0.194142	0.895937
H493	H	0.597154	-1.044989	0.374597
H494	H	0.930488	-0.711656	0.707930
H495	H	1.263821	-0.378322	1.041264
H496	H	0.121696	-0.135689	0.414889
H497	H	0.455030	0.197644	0.748223
H498	H	0.788363	0.530978	1.081556
H499	H	0.597133	-0.959880	0.374595
H500	H	0.930467	-0.626547	0.707929
H501	H	1.263800	-0.293214	1.041262
F502	F	0.127337	-0.304332	0.178896
F503	F	0.460670	0.029001	0.512230
F504	F	0.794003	0.362334	0.845563
F505	F	0.030502	-0.304335	0.178906
F506	F	0.363835	0.028999	0.512239
F507	F	0.697168	0.362332	0.845573
