data_functionalizedCrystal
_audit_creation_method	'MofGen! by Chris Wilmer'
_symmetry_space_group_name_H-M	'P1'
_symmetry_Int_Tables_number	1
_symmetry_cell_setting	triclinic
loop_
_symmetry_equiv_pos_as_xyz
  x,y,z
_cell_length_a	12.759401
_cell_length_b	12.594516
_cell_length_c	12.759393
_cell_angle_alpha	89.971950
_cell_angle_beta	89.979062
_cell_angle_gamma	90.017577
loop_
_atom_site_label
_atom_site_type_symbol
_atom_site_fract_x
_atom_site_fract_y
_atom_site_fract_z
Zn1	Zn	1.606257	-0.423647	-0.594038
Zn2	Zn	1.606143	-0.601663	-0.418366
Zn3	Zn	1.430555	-0.423704	-0.418373
Zn4	Zn	1.430543	-0.601589	-0.594003
O5	O	1.518375	-0.512651	-0.506195
O6	O	1.753263	-0.447269	-0.570746
O7	O	1.582809	-0.578111	-0.271345
O8	O	1.453915	-0.274751	-0.441693
O9	O	1.753179	-0.578056	-0.441680
O10	O	1.583002	-0.274709	-0.570754
O11	O	1.453805	-0.447365	-0.271351
O12	O	1.283533	-0.447293	-0.441659
O13	O	1.453894	-0.577930	-0.741029
O14	O	1.283524	-0.577985	-0.570694
O15	O	1.582990	-0.447197	-0.741054
O16	O	1.582797	-0.750599	-0.441646
O17	O	1.453784	-0.750545	-0.570686
C18	C	1.245407	-0.512638	-0.506174
C19	C	1.128631	-0.512658	-0.506190
C20	C	1.073791	-0.580812	-0.573272
C21	C	0.964067	-0.580817	-0.573293
C22	C	0.964031	-0.444509	-0.439140
C23	C	1.073753	-0.444500	-0.439125
C24	C	0.814170	-0.619008	-0.697155
C25	C	0.759328	-0.687180	-0.764229
C26	C	0.794923	-0.791053	-0.780181
C27	C	0.885359	-0.826776	-0.729045
C28	C	0.940197	-0.758611	-0.661964
C29	C	0.904603	-0.654723	-0.646031
C30	C	1.223652	-0.406319	-0.315262
C31	C	1.278491	-0.338158	-0.248175
C32	C	1.242898	-0.234283	-0.232212
C33	C	1.152458	-0.198564	-0.283330
C34	C	1.097619	-0.266725	-0.350417
C35	C	1.133220	-0.370598	-0.366381
C36	C	1.518306	-0.789192	-0.506185
C37	C	1.518372	-0.907497	-0.506215
C38	C	1.448195	-0.976759	-0.576351
C39	C	1.422594	-1.047629	-0.480484
C40	C	1.544069	-1.047427	-0.602099
C41	C	1.492721	-0.976808	-0.410297
C42	C	1.614240	-0.976600	-0.531977
C43	C	1.588675	-1.047438	-0.436044
C44	C	1.792408	-0.512665	-0.506216
C45	C	1.909184	-0.512671	-0.506226
C46	C	1.518453	-0.512549	-0.780228
C47	C	1.518487	-0.512505	-0.897005
C48	C	1.518472	-0.235030	-0.506228
C49	C	1.518514	-0.116725	-0.506242
C50	C	1.585712	-0.444422	-0.951882
C51	C	1.585730	-0.444376	-1.061606
C52	C	1.451294	-0.580506	-1.061567
C53	C	1.451272	-0.580546	-0.951844
C54	C	1.623345	-0.318796	-1.211579
C55	C	1.690586	-0.250722	-1.266460
C56	C	1.793100	-0.234401	-1.230868
C57	C	1.828392	-0.286169	-1.140397
C58	C	1.761156	-0.354251	-1.085522
C59	C	1.658628	-0.370552	-1.121112
C60	C	1.413668	-0.706127	-0.801870
C61	C	1.346436	-0.774215	-0.746992
C62	C	1.243921	-0.790547	-0.782582
C63	C	1.208632	-0.738798	-0.873057
C64	C	1.275864	-0.670709	-0.927934
C65	C	1.378378	-0.654375	-0.892337
C66	C	1.518357	-0.512676	-0.233228
C67	C	1.518527	-0.512420	-0.116451
H68	H	1.023983	-0.237630	-0.392047
H69	H	1.247123	-0.628573	-1.001604
Br70	Br	1.360082	-0.672846	-1.135998
H71	H	1.341587	-1.078851	-0.458716
Br72	Br	1.676929	-0.352079	-0.877460
H73	H	0.750262	-0.846558	-0.834795
Br74	Br	1.484207	-0.340925	-1.259878
H75	H	1.375181	-0.816362	-0.673330
Br76	Br	1.349111	-0.925030	-0.675067
H77	H	0.685695	-0.658084	-0.805865
Br78	Br	1.148265	-0.673309	-0.664290
H79	H	1.497142	-0.692826	-0.772878
H80	H	0.785187	-0.534423	-0.684184
H81	H	1.352132	-0.367250	-0.206551
Br82	Br	1.062921	-0.807082	-0.592563
H83	H	1.470950	-0.945916	-0.329198
Br84	Br	0.933650	-0.967763	-0.750679
Br85	Br	1.809042	-0.424508	-0.962749
Br86	Br	1.967533	-0.264034	-1.092111
H87	H	1.125158	-0.752100	-0.902038
H88	H	0.919337	-0.389018	-0.384537
Br89	Br	1.152688	-0.882980	-0.708122
H90	H	1.648082	-1.078276	-0.376676
H91	H	1.123465	-0.113987	-0.270316
Br92	Br	1.749230	-0.924562	-0.568333
H93	H	1.565747	-1.078448	-0.683176
H94	H	1.847848	-0.178972	-1.275560
Br95	Br	1.642693	-0.180471	-1.389240
H96	H	1.287553	-0.178791	-0.177575
Br97	Br	1.271858	-0.547359	-0.336778
