data_functionalizedCrystal
_audit_creation_method	'MofGen! by Chris Wilmer'
_symmetry_space_group_name_H-M	'P1'
_symmetry_Int_Tables_number	1
_symmetry_cell_setting	triclinic
loop_
_symmetry_equiv_pos_as_xyz
  x,y,z
_cell_length_a	12.759401
_cell_length_b	12.645330
_cell_length_c	12.759393
_cell_angle_alpha	90.028974
_cell_angle_beta	90.020938
_cell_angle_gamma	90.019217
loop_
_atom_site_label
_atom_site_type_symbol
_atom_site_fract_x
_atom_site_fract_y
_atom_site_fract_z
Zn1	Zn	1.606245	-0.421945	0.594031
Zn2	Zn	1.606126	-0.599246	0.418356
Zn3	Zn	1.430543	-0.422001	0.418366
Zn4	Zn	1.430526	-0.599172	0.593993
O5	O	1.518360	-0.510591	0.506187
O6	O	1.753250	-0.445472	0.570739
O7	O	1.582793	-0.575788	0.271336
O8	O	1.453907	-0.273647	0.441689
O9	O	1.753163	-0.575734	0.441671
O10	O	1.582994	-0.273605	0.570749
O11	O	1.453793	-0.445568	0.271344
O12	O	1.283520	-0.445496	0.441652
O13	O	1.453878	-0.575607	0.741019
O14	O	1.283507	-0.575662	0.570684
O15	O	1.582977	-0.445400	0.741047
O16	O	1.582776	-0.747583	0.441634
O17	O	1.453763	-0.747529	0.570674
C18	C	1.245393	-0.510578	0.506166
C19	C	1.128616	-0.510598	0.506182
C20	C	1.073775	-0.578479	0.573263
C21	C	0.964051	-0.578483	0.573284
C22	C	0.964019	-0.442722	0.439133
C23	C	1.073741	-0.442714	0.439118
C24	C	1.518283	-0.786021	0.506172
C25	C	1.518347	-0.903851	0.506201
C26	C	1.437519	-1.071424	0.587630
C27	C	1.437106	-0.948865	0.587368
C28	C	1.488371	-0.948453	0.395479
C29	C	1.487878	-1.071052	0.395973
C30	C	1.629644	-1.070935	0.534596
C31	C	1.628962	-0.948328	0.537017
C32	C	1.792393	-0.510605	0.506208
C33	C	1.909170	-0.510610	0.506217
C34	C	1.518439	-0.510489	0.780220
C35	C	1.518472	-0.510446	0.896997
C36	C	1.518466	-0.234086	0.506224
C37	C	1.518511	-0.116255	0.506241
C38	C	1.518342	-0.510616	0.233219
C39	C	1.518512	-0.510360	0.116443
C40	C	1.585699	-0.442636	0.951875
C41	C	1.585717	-0.442590	1.061599
C42	C	1.451278	-0.578173	1.061557
C43	C	1.451255	-0.578213	0.951835
H44	H	0.919326	-0.387455	0.384531
H45	H	1.692482	-0.917680	0.482054
H46	H	1.396503	-0.633431	0.907152
C47	C	1.659675	-0.367996	1.121960
N48	N	1.715383	-0.311809	1.167424
C49	C	1.134069	-0.368036	0.365319
N50	N	1.179509	-0.311790	0.309738
C51	C	1.377341	-0.652711	1.121890
N52	N	1.321650	-0.708855	1.167331
C53	C	1.462615	-1.111158	0.698909
N54	N	1.481516	-1.141095	0.782727
C55	C	1.462439	-0.908117	0.698283
N56	N	1.481515	-0.877431	0.781830
H57	H	1.355645	-1.102329	0.569085
C58	C	1.134134	-0.653145	0.647043
N59	N	1.179593	-0.709383	0.702619
C60	C	1.711163	-1.110106	0.454517
N61	N	1.772555	-1.139617	0.394200
H62	H	1.354717	-0.919634	0.568583
C63	C	1.379759	-0.907116	0.362443
N64	N	1.297949	-0.875984	0.337568
C65	C	0.903731	-0.653167	0.647069
N66	N	0.858298	-0.709425	0.702645
H67	H	1.406639	-1.099747	0.371952
C68	C	1.659630	-0.368081	0.891557
N69	N	1.715314	-0.311920	0.846128
C70	C	1.564100	-1.111124	0.311246
N71	N	1.621504	-1.141302	0.247425
H72	H	1.545491	-0.919298	0.333180
H73	H	1.656988	-1.101772	0.613962
H74	H	1.651567	-0.919171	0.618502
