data_functionalizedCrystal
_audit_creation_method	'MofGen! by Chris Wilmer'
_symmetry_space_group_name_H-M	'P1'
_symmetry_Int_Tables_number	1
_symmetry_cell_setting	triclinic
loop_
_symmetry_equiv_pos_as_xyz
  x,y,z
_cell_length_a	19.077105
_cell_length_b	25.639239
_cell_length_c	19.076919
_cell_angle_alpha	92.268407
_cell_angle_beta	90.076224
_cell_angle_gamma	87.734929
loop_
_atom_site_label
_atom_site_type_symbol
_atom_site_fract_x
_atom_site_fract_y
_atom_site_fract_z
Zn1	Zn	1.058187	-0.252939	-0.440398
Zn2	Zn	1.062799	-0.337004	-0.322884
Zn3	Zn	0.945407	-0.245935	-0.318192
Zn4	Zn	0.940620	-0.336689	-0.435637
O5	O	1.001753	-0.293142	-0.379278
O6	O	1.157129	-0.267153	-0.428766
O7	O	1.051160	-0.322124	-0.223931
O8	O	0.960440	-0.173702	-0.334431
O9	O	1.160518	-0.328916	-0.342429
O10	O	1.043299	-0.178848	-0.424215
O11	O	0.964912	-0.255216	-0.220483
O12	O	0.846441	-0.254910	-0.329815
O13	O	0.952283	-0.328378	-0.534600
O14	O	0.842925	-0.321587	-0.416101
O15	O	1.038658	-0.266848	-0.538097
O16	O	1.046519	-0.410124	-0.337813
O17	O	0.956755	-0.409893	-0.420652
C18	C	0.819187	-0.287455	-0.371933
C19	C	0.741083	-0.285035	-0.368807
C20	C	0.702581	-0.318661	-0.412193
C21	C	0.629194	-0.316381	-0.409259
C22	C	0.594312	-0.280476	-0.362936
C23	C	0.632820	-0.246846	-0.319549
C24	C	0.706205	-0.249125	-0.322486
C25	C	0.375028	-0.269932	-0.349344
C26	C	0.301638	-0.267658	-0.346409
C27	C	0.298017	-0.337192	-0.436121
C28	C	0.371404	-0.339469	-0.439051
C29	C	0.409905	-0.305837	-0.395666
N30	N	0.519299	-0.278146	-0.359935
N31	N	0.484917	-0.308166	-0.398671
C32	C	1.001636	-0.428980	-0.379241
C33	C	1.001650	-0.487094	-0.379251
C34	C	1.048607	-0.847575	-0.336225
C35	C	1.048634	-0.902180	-0.336235
O36	O	1.088438	-0.930513	-0.299613
N37	N	1.001875	-0.929386	-0.379329
C38	C	0.955090	-0.901983	-0.422421
O39	O	0.915321	-0.930137	-0.459077
C40	C	0.955067	-0.847379	-0.422413
C41	C	1.001825	-0.820176	-0.379311
C42	C	1.095362	-0.820372	-0.293127
C43	C	1.095334	-0.765771	-0.293116
C44	C	1.048551	-0.738372	-0.336202
C45	C	1.001797	-0.765574	-0.379300
C46	C	0.908287	-0.819977	-0.465508
C47	C	0.908268	-0.765369	-0.465497
C48	C	0.955026	-0.738167	-0.422395
C49	C	0.954987	-0.683574	-0.422375
N50	N	1.001746	-0.656368	-0.379282
C51	C	1.048528	-0.683767	-0.336195
C52	C	0.955143	-1.016656	-0.422434
C53	C	0.955162	-1.071259	-0.422438
C54	C	1.048707	-1.071452	-0.336253
C55	C	1.048684	-1.016848	-0.336246
C56	C	1.001902	-0.989450	-0.379340
C57	C	1.048466	-0.569100	-0.336174
C58	C	1.048432	-0.514493	-0.336164
C59	C	0.954890	-0.514304	-0.422351
C60	C	0.954921	-0.568906	-0.422359
C61	C	1.001715	-0.596303	-0.379268
O62	O	0.915205	-0.655207	-0.458982
O63	O	1.088298	-0.655607	-0.299552
C64	C	1.185032	-0.298851	-0.386652
C65	C	1.263135	-0.301284	-0.389794
C66	C	0.994422	-0.298359	-0.562557
C67	C	0.991298	-0.300582	-0.640660
C68	C	1.001889	-0.156774	-0.379331
C69	C	1.001947	-0.098662	-0.379354
C70	C	1.034799	-0.269593	-0.679175
C71	C	1.031855	-0.271680	-0.752561
C72	C	0.985413	-0.304759	-0.787430
C73	C	0.941907	-0.335750	-0.748910
C74	C	0.944848	-0.333660	-0.675526
C75	C	0.971792	-0.314442	-1.006711
C76	C	0.968856	-0.316531	-1.080100
C77	C	1.058803	-0.252460	-1.083746
C78	C	1.061742	-0.250375	-1.010361
C79	C	1.018234	-0.281364	-0.971846
N80	N	0.982404	-0.306894	-0.862442
N81	N	1.021240	-0.279226	-0.896836
C82	C	1.009096	-0.287908	-0.196713
C83	C	1.012356	-0.285541	-0.118616
H84	H	1.086571	-0.591400	-0.301087
O85	O	0.405397	-0.374326	-0.483996
C86	C	0.478425	-0.369116	-0.477299
H87	H	0.490618	-0.350703	-0.423511
H88	H	0.497608	-0.343151	-0.519877
C89	C	0.500835	-0.445985	-0.551190
C90	C	0.515811	-0.423374	-0.485124
H91	H	0.523898	-0.479453	-0.556019
H92	H	0.451635	-0.449495	-0.555704
H93	H	0.516821	-0.424343	-0.586664
H94	H	0.499817	-0.445013	-0.449652
H95	H	0.565010	-0.419869	-0.480604
O96	O	0.260509	-0.369803	-0.478239
C97	C	0.188258	-0.360104	-0.465704
H98	H	0.179178	-0.318766	-0.442387
H99	H	0.168898	-0.389360	-0.427376
C100	C	0.158902	-0.416603	-0.563922
C101	C	0.147750	-0.365829	-0.535289
H102	H	0.133914	-0.420136	-0.606844
H103	H	0.207579	-0.423139	-0.572366
H104	H	0.142770	-0.440977	-0.531975
H105	H	0.163890	-0.341456	-0.567232
H106	H	0.099075	-0.359289	-0.526852
O107	O	0.267714	-0.232841	-0.301350
C108	C	0.227025	-0.259932	-0.254200
H109	H	0.249290	-0.301660	-0.250612
H110	H	0.170549	-0.260662	-0.273713
C111	C	0.201449	-0.180916	-0.185589
C112	C	0.228799	-0.232167	-0.181178
H113	H	0.202540	-0.163788	-0.140547
H114	H	0.228859	-0.162664	-0.217356
H115	H	0.154388	-0.181532	-0.201853
H116	H	0.275861	-0.231550	-0.164924
H117	H	0.201396	-0.250418	-0.149407
O118	O	0.412497	-0.237340	-0.307164
C119	C	0.456719	-0.267074	-0.263390
H120	H	0.466707	-0.307767	-0.288516
H121	H	0.430500	-0.270401	-0.210173
C122	C	0.514681	-0.190109	-0.222660
C123	C	0.526953	-0.240088	-0.253523
H124	H	0.558003	-0.173463	-0.216570
H125	H	0.484886	-0.170076	-0.252149
H126	H	0.492830	-0.192889	-0.178315
H127	H	0.548795	-0.237308	-0.297870
H128	H	0.556753	-0.260120	-0.224040
O129	O	1.074185	-0.241561	-0.789868
C130	C	1.115798	-0.211910	-0.743355
H131	H	1.120303	-0.231912	-0.691135
H132	H	1.090423	-0.171177	-0.734528
C133	C	1.183911	-0.182957	-0.839152
C134	C	1.189449	-0.207526	-0.775015
H135	H	1.229341	-0.180251	-0.858681
H136	H	1.155874	-0.202932	-0.870489
H137	H	1.162762	-0.149016	-0.831787
H138	H	1.210589	-0.241469	-0.782382
H139	H	1.217491	-0.187557	-0.743679
O140	O	1.140731	-0.739405	-0.251154
C141	C	1.128233	-0.750302	-0.180493
H142	H	1.101289	-0.789083	-0.177936
H143	H	1.093072	-0.717803	-0.155330
C144	C	1.231570	-0.706089	-0.143892
C145	C	1.198482	-0.753722	-0.140752
H146	H	1.274901	-0.708196	-0.119377
H147	H	1.239989	-0.698745	-0.191497
H148	H	1.202261	-0.679011	-0.122924
H149	H	1.227786	-0.780798	-0.161727
H150	H	1.190069	-0.761071	-0.093149
O151	O	0.862758	-0.738836	-0.507382
C152	C	0.821513	-0.774560	-0.545437
H153	H	0.820271	-0.812598	-0.516560
H154	H	0.845076	-0.782654	-0.599856
C155	C	0.747831	-0.704549	-0.587971
C156	C	0.746301	-0.751266	-0.552500
H157	H	0.701437	-0.690180	-0.592331
H158	H	0.775619	-0.680480	-0.562335
H159	H	0.767470	-0.711300	-0.633316
H160	H	0.726670	-0.744514	-0.507153
H161	H	0.718507	-0.775334	-0.578129
H162	H	0.931035	-0.343470	-1.108489
O163	O	0.909711	-1.097600	-0.464367
C164	C	0.868405	-1.061700	-0.502376
H165	H	0.897071	-1.023719	-0.505978
H166	H	0.816088	-1.053548	-0.474452
C167	C	0.820024	-1.131452	-0.572327
C168	C	0.855235	-1.084805	-0.576756
H169	H	0.811897	-1.145704	-0.618206
H170	H	0.847850	-1.155639	-0.546717
H171	H	0.776430	-1.124652	-0.549053
H172	H	0.898831	-1.091606	-0.600020
H173	H	0.827415	-1.060619	-0.602370
O174	O	0.902519	-0.363690	-0.638080
C175	C	0.858874	-0.331305	-0.593801
H176	H	0.853688	-0.290621	-0.615754
H177	H	0.882827	-0.328599	-0.539059
C178	C	0.792216	-0.404510	-0.562762
C179	C	0.785842	-0.354542	-0.589729
H180	H	0.747167	-0.418844	-0.560248
H181	H	0.821622	-0.426329	-0.592592
H182	H	0.812179	-0.402248	-0.517147
H183	H	0.765887	-0.356805	-0.635347
H184	H	0.756431	-0.332724	-0.559907
O185	O	0.743583	-0.216515	-0.280236
C186	C	0.728417	-0.225300	-0.209456
H187	H	0.708353	-0.266333	-0.204999
H188	H	0.686574	-0.195404	-0.189451
C189	C	0.820124	-0.169456	-0.170661
C190	C	0.795485	-0.219855	-0.165185
H191	H	0.861493	-0.166095	-0.143351
H192	H	0.830340	-0.163536	-0.218347
H193	H	0.785248	-0.144549	-0.153991
H194	H	0.830357	-0.244762	-0.181864
H195	H	0.785277	-0.225780	-0.117501
O196	O	1.093923	-0.488151	-0.294274
C197	C	1.135208	-0.524048	-0.256238
H198	H	1.136483	-0.563854	-0.285129
H199	H	1.111657	-0.527574	-0.201818
C200	C	1.208829	-0.455831	-0.213690
C201	C	1.210400	-0.504722	-0.249178
H202	H	1.255210	-0.443910	-0.209331
H203	H	1.181013	-0.431647	-0.239313
H204	H	1.189200	-0.458776	-0.168343
H205	H	1.230020	-0.501775	-0.294526
H206	H	1.238221	-0.528906	-0.223561
H207	H	0.597848	-0.343764	-0.444588
O208	O	1.140919	-0.846996	-0.251395
C209	C	1.184677	-0.881075	-0.293290
H210	H	1.186689	-0.866318	-0.348813
H211	H	1.162920	-0.921882	-0.294794
C212	C	1.256678	-0.901239	-0.193822
C213	C	1.259154	-0.883110	-0.262016
H214	H	1.302618	-0.902496	-0.174530
H215	H	1.227196	-0.878280	-0.165596
H216	H	1.238544	-0.935243	-0.195085
H217	H	1.277280	-0.849105	-0.260750
H218	H	1.288641	-0.906063	-0.290241
O219	O	0.909658	-0.989982	-0.464192
C220	C	0.865879	-0.955901	-0.422320
H221	H	0.892832	-0.946967	-0.370089
H222	H	0.814136	-0.975151	-0.412460
C223	C	0.818441	-0.915714	-0.524608
C224	C	0.851548	-0.904737	-0.460459
H225	H	0.809597	-0.884153	-0.548135
H226	H	0.847933	-0.938675	-0.552818
H227	H	0.775325	-0.931756	-0.516382
H228	H	0.894666	-0.888701	-0.468687
H229	H	0.822062	-0.881771	-0.432251
H230	H	0.730976	-0.347900	-0.449912
H231	H	0.604413	-0.217610	-0.281834
O232	O	0.929494	-0.344589	-0.969412
C233	C	0.887858	-0.374219	-1.015927
H234	H	0.914552	-0.378427	-1.069391
H235	H	0.834207	-0.353622	-1.021603
C236	C	0.846007	-0.423558	-0.921183
C237	C	0.878796	-0.428730	-0.986847
H238	H	0.840413	-0.457182	-0.903244
H239	H	0.874055	-0.403594	-0.889844
H240	H	0.801301	-0.406391	-0.925921
H241	H	0.923504	-0.445890	-0.982106
H242	H	0.850754	-0.448698	-1.018185
H243	H	0.916849	-0.591056	-0.457458
O244	O	1.079817	-0.237426	-0.645227
C245	C	1.041543	-0.201195	-0.601194
H246	H	0.988716	-0.217664	-0.588044
H247	H	1.032723	-0.163017	-0.629184
C248	C	1.147891	-0.170714	-0.549203
C249	C	1.083010	-0.190944	-0.533046
H250	H	1.173470	-0.164389	-0.507167
H251	H	1.173678	-0.195122	-0.578870
H252	H	1.140532	-0.138901	-0.572529
H253	H	1.090370	-0.222759	-0.509728
H254	H	1.057226	-0.166541	-0.503373
O255	O	1.106872	-0.218194	-0.976600
C256	C	1.144650	-0.191298	-1.026332
H257	H	1.113775	-0.190079	-1.077484
H258	H	1.197685	-0.212329	-1.036280
C259	C	1.193903	-0.136652	-0.935295
C260	C	1.155979	-0.135151	-0.998119
H261	H	1.200895	-0.102018	-0.917892
H262	H	1.168454	-0.154773	-0.901789
H263	H	1.238095	-0.154180	-0.943594
H264	H	1.111786	-0.117629	-0.989818
H265	H	1.181421	-0.117025	-1.031624
H266	H	1.086758	-0.994703	-0.301149
H267	H	1.086802	-1.093771	-0.301172
O268	O	0.896732	-0.367896	-0.782669
C269	C	0.858979	-0.394810	-0.732936
H270	H	0.858662	-0.371828	-0.680536
H271	H	0.884985	-0.435096	-0.726149
C272	C	0.783429	-0.429059	-0.822918
C273	C	0.783034	-0.400830	-0.758561
H274	H	0.736584	-0.432775	-0.838725
H275	H	0.808865	-0.410928	-0.856424
H276	H	0.805104	-0.462628	-0.817254
H277	H	0.761368	-0.367260	-0.764228
H278	H	0.757593	-0.418955	-0.725056
H279	H	0.916798	-0.491988	-0.457430
H280	H	0.870208	-0.842116	-0.500603
H281	H	1.094224	-0.227230	-1.115112
