data_functionalizedCrystal
_audit_creation_method	'MofGen! by Chris Wilmer'
_symmetry_space_group_name_H-M	'P1'
_symmetry_Int_Tables_number	1
_symmetry_cell_setting	triclinic
loop_
_symmetry_equiv_pos_as_xyz
  x,y,z
_cell_length_a	14.044220
_cell_length_b	14.044190
_cell_length_c	13.101039
_cell_angle_alpha	93.663707
_cell_angle_beta	86.340132
_cell_angle_gamma	93.190328
loop_
_atom_site_label
_atom_site_type_symbol
_atom_site_fract_x
_atom_site_fract_y
_atom_site_fract_z
O1	O	1.281975	0.225348	-0.085126
O2	O	1.005305	0.217041	-0.085151
O3	O	1.139483	0.082859	-0.085118
O4	O	1.147797	0.359530	-0.085158
O5	O	1.129857	0.092504	0.085309
O6	O	0.995679	0.226686	0.085277
O7	O	1.272349	0.234993	0.085302
Zn8	Zn	1.132486	0.232371	0.112348
Zn9	Zn	1.145168	0.219663	-0.112197
O10	O	1.138172	0.369174	0.085270
C11	C	0.964870	0.218228	0.000060
C12	C	0.858728	0.207382	0.000051
C13	C	1.131033	0.052060	0.000098
C14	C	1.120185	-0.054083	0.000106
C15	C	0.664388	0.187557	0.000075
C16	C	0.613261	0.264472	0.000068
C17	C	0.505123	0.253441	0.000081
C18	C	0.772535	0.198587	0.000062
C19	C	1.177288	-0.299543	0.000071
C20	C	1.100371	-0.248418	0.000071
C21	C	1.111398	-0.140280	0.000091
C22	C	1.166262	-0.407691	0.000052
C23	C	1.312784	0.233806	0.000089
C24	C	1.418927	0.244651	0.000091
C25	C	1.146621	0.399974	0.000051
C26	C	1.157470	0.506116	0.000036
N27	N	1.123838	0.241043	0.265595
N28	N	1.153824	0.210984	-0.265444
C29	C	1.112072	0.252851	0.474635
C30	C	1.165586	0.199179	0.525523
C31	C	1.159040	0.205749	0.641840
C32	C	1.118618	0.246282	0.358307
H33	H	0.626948	0.113431	0.000091
H34	H	1.216319	0.148295	0.481733
C35	C	0.663838	0.364621	0.000038
C36	C	0.651901	0.429194	-0.088475
C37	C	0.702485	0.529338	-0.088509
C38	C	0.765007	0.564909	-0.000029
C39	C	0.776947	0.500336	0.088492
C40	C	0.726363	0.400191	0.088525
H41	H	0.605616	0.402863	-0.153980
H42	H	0.693646	0.577140	-0.154038
H43	H	0.802453	0.639042	-0.000054
H44	H	0.823232	0.526667	0.153996
H45	H	0.735202	0.352390	0.154054
H46	H	1.061345	0.303733	0.518419
H47	H	1.026240	-0.285862	0.000059
C48	C	1.277430	-0.248966	0.000100
C49	C	1.288457	-0.139256	0.000127
C50	C	1.388598	-0.088665	0.000160
C51	C	1.477712	-0.147784	0.000167
C52	C	1.466688	-0.257501	0.000141
C53	C	1.366547	-0.308091	0.000107
H54	H	1.222487	-0.095487	0.000122
H55	H	1.396758	-0.007446	0.000180
H56	H	1.551842	-0.110334	0.000192
H57	H	1.532658	-0.301270	0.000146
H58	H	1.358387	-0.389311	0.000087
