data_functionalizedCrystal
_audit_creation_method	'MofGen! by Chris Wilmer'
_symmetry_space_group_name_H-M	'P1'
_symmetry_Int_Tables_number	1
_symmetry_cell_setting	triclinic
loop_
_symmetry_equiv_pos_as_xyz
  x,y,z
_cell_length_a	6.817900
_cell_length_b	16.255661
_cell_length_c	16.255699
_cell_angle_alpha	95.343798
_cell_angle_beta	103.489404
_cell_angle_gamma	103.488922
loop_
_atom_site_label
_atom_site_type_symbol
_atom_site_fract_x
_atom_site_fract_y
_atom_site_fract_z
V1	V	-4.026708	-0.264153	-0.117774
O2	O	-4.014191	-0.258836	0.004956
O3	O	-3.978255	-0.262625	-0.232849
O4	O	-3.978270	-0.379233	-0.116271
O5	O	-4.014176	-0.141420	-0.112429
V6	V	-4.510347	-0.249440	-0.103057
O7	O	-4.287710	-0.296429	-0.150055
O8	O	-4.699542	-0.217164	-0.070776
O9	O	-4.335593	-0.250969	0.012018
O10	O	-4.640261	-0.254757	-0.225787
O11	O	-4.640276	-0.372173	-0.108402
O12	O	-4.335579	-0.134360	-0.104560
C13	C	-3.823245	-0.258529	-0.260892
C14	C	-3.864916	-0.258046	-0.354970
C15	C	-3.775496	-0.252513	-0.577782
C16	C	-3.859152	-0.184316	-0.625224
C17	C	-3.941316	-0.257203	-0.527222
C18	C	-3.931935	-0.324549	-0.647410
C19	C	-4.015103	-0.256392	-0.693609
C20	C	-4.024394	-0.188954	-0.573415
C21	C	-4.097180	-0.329250	-0.595606
C22	C	-4.180955	-0.261038	-0.643023
C23	C	-3.898803	-0.257670	-0.431370
C24	C	-4.057627	-0.255920	-0.789458
C25	C	-3.823262	-0.407274	-0.112184
C26	C	-3.864942	-0.501354	-0.111717
C27	C	-3.775498	-0.724159	-0.106134
C28	C	-3.931912	-0.793808	-0.178190
C29	C	-3.941326	-0.673600	-0.110841
C30	C	-3.859203	-0.771587	-0.037959
C31	C	-4.015094	-0.839982	-0.109990
C32	C	-4.097222	-0.742019	-0.182961
C33	C	-4.024451	-0.719783	-0.042667
C34	C	-4.181001	-0.789412	-0.114744
C35	C	-3.898825	-0.577752	-0.111331
C36	C	-4.057612	-0.935829	-0.109506
C37	C	-4.153946	-0.255062	0.040057
C38	C	-4.091513	-0.255550	0.134133
C39	C	-4.153929	-0.106315	-0.108650
C40	C	-4.091487	-0.012234	-0.109113
H41	H	-3.758964	-0.123033	-0.638672
H42	H	-4.063030	-0.131590	-0.541300
H43	H	-3.758971	-0.785050	0.023305
N44	N	-3.883379	-0.834224	-0.250068
N45	N	-3.701452	-0.813910	-0.258462
H46	H	-3.667161	-0.842448	-0.309224
H47	H	-4.197293	-0.390532	-0.582137
H48	H	-4.352873	-0.817768	-0.118403
N49	N	-4.396525	-0.265545	-0.678574
N50	N	-4.517371	-0.268533	-0.631077
H51	H	-4.669616	-0.271712	-0.656184
H52	H	-3.893208	-0.381837	-0.679625
N53	N	-4.222936	-0.725334	-0.259933
N54	N	-4.344798	-0.786175	-0.314384
H55	H	-4.433576	-0.774391	-0.368747
H56	H	-4.063048	-0.687537	0.014633
N57	N	-3.559939	-0.247887	-0.542023
N58	N	-3.421177	-0.184803	-0.547817
H59	H	-3.268939	-0.181533	-0.522564
N60	N	-3.560039	-0.688425	-0.101690
N61	N	-3.483849	-0.713313	-0.159224
H62	H	-3.331685	-0.688077	-0.156090
