data_functionalizedCrystal
_audit_creation_method	'MofGen! by Chris Wilmer'
_symmetry_space_group_name_H-M	'P1'
_symmetry_Int_Tables_number	1
_symmetry_cell_setting	triclinic
loop_
_symmetry_equiv_pos_as_xyz
  x,y,z
_cell_length_a	11.792241
_cell_length_b	14.971486
_cell_length_c	14.048226
_cell_angle_alpha	90.006640
_cell_angle_beta	90.002244
_cell_angle_gamma	83.903772
loop_
_atom_site_label
_atom_site_type_symbol
_atom_site_fract_x
_atom_site_fract_y
_atom_site_fract_z
O1	O	-1.506121	-0.122599	-0.079069
O2	O	-1.175698	-0.135234	-0.079091
O3	O	-1.349766	0.001248	-0.079072
O4	O	-1.332053	-0.259081	-0.079087
O5	O	-1.349745	0.001256	0.079249
O6	O	-1.175677	-0.135226	0.079230
O7	O	-1.506100	-0.122591	0.079253
Zn8	Zn	-1.340885	-0.128907	0.104378
Zn9	Zn	-1.340913	-0.128918	-0.104217
O10	O	-1.332032	-0.259073	0.079234
C11	C	-1.348963	0.034580	0.000088
C12	C	-1.346589	0.133887	0.000087
C13	C	-1.133402	-0.134436	0.000067
C14	C	-1.007404	-0.132061	0.000059
C15	C	-1.548396	-0.123389	0.000093
C16	C	-1.674395	-0.125764	0.000095
C17	C	-0.776720	-0.127692	0.000086
C18	C	-0.905089	-0.130120	0.000071
C19	C	-1.332835	-0.292405	0.000072
C20	C	-1.335209	-0.391711	0.000066
N21	N	-1.340875	-0.128899	0.246739
C22	C	-1.448849	0.190702	0.000094
C23	C	-1.446612	0.284011	0.000085
C24	C	-1.342114	0.320502	0.000074
C25	C	-1.239846	0.263679	0.000064
C26	C	-1.242084	0.170372	0.000067
C27	C	-1.235188	0.458160	0.000060
C28	C	-1.232949	0.551473	0.000059
C29	C	-1.439715	0.571798	0.000078
C30	C	-1.441954	0.478492	0.000081
C31	C	-1.339685	0.421675	0.000072
N32	N	-1.340932	-0.128919	-0.246577
C33	C	-1.417976	-0.068490	0.296565
C34	C	-1.417984	-0.068490	0.396223
C35	C	-1.340895	-0.128903	0.446053
C36	C	-1.263785	-0.189315	0.396219
C37	C	-1.263773	-0.189311	0.296564
C38	C	-1.263818	-0.189322	0.603934
C39	C	-1.263831	-0.189328	0.703596
C40	C	-1.418029	-0.068501	0.703593
C41	C	-1.418016	-0.068496	0.603937
C42	C	-1.340908	-0.128910	0.554111
H43	H	-1.533944	0.160999	0.000109
Br44	Br	-1.098025	0.313201	0.000034
Br45	Br	-1.522618	0.013498	0.463848
H46	H	-1.480793	-0.019307	0.563366
H47	H	-1.480812	-0.019310	0.744167
H48	H	-1.201056	-0.238522	0.744163
Br49	Br	-1.103298	0.093263	0.000049
Br50	Br	-1.159163	-0.271309	0.536315
H51	H	-1.201012	-0.238502	0.436796
H52	H	-1.151910	0.411902	0.000051
Br53	Br	-1.159123	-0.271292	0.228942
H54	H	-1.522986	0.618063	0.000082
Br55	Br	-1.585400	0.361115	0.000095
H56	H	-1.527045	0.448784	0.000096
Br57	Br	-1.522612	0.013498	0.228950
H58	H	-1.147857	0.581181	0.000066
