data_functionalizedCrystal
_audit_creation_method	'MofGen! by Chris Wilmer'
_symmetry_space_group_name_H-M	'P1'
_symmetry_Int_Tables_number	1
_symmetry_cell_setting	triclinic
loop_
_symmetry_equiv_pos_as_xyz
  x,y,z
_cell_length_a	19.077114
_cell_length_b	19.077300
_cell_length_c	19.076919
_cell_angle_alpha	85.332737
_cell_angle_beta	85.527261
_cell_angle_gamma	89.941502
loop_
_atom_site_label
_atom_site_type_symbol
_atom_site_fract_x
_atom_site_fract_y
_atom_site_fract_z
Zn1	Zn	0.337088	-1.047514	-0.369401
Zn2	Zn	0.450238	-1.047425	-0.256253
Zn3	Zn	0.328023	-0.934752	-0.255886
Zn4	Zn	0.450207	-0.924857	-0.378831
O5	O	0.391389	-0.988637	-0.315093
O6	O	0.355905	-1.145989	-0.350599
O7	O	0.430245	-1.036582	-0.157399
O8	O	0.230737	-0.953889	-0.266844
O9	O	0.439035	-1.145923	-0.267470
O10	O	0.237397	-1.036735	-0.350243
O11	O	0.340454	-0.953802	-0.157129
O12	O	0.340424	-0.834954	-0.275988
O13	O	0.438983	-0.937025	-0.476386
O14	O	0.430192	-0.827684	-0.366315
O15	O	0.355874	-1.027140	-0.469458
O16	O	0.548722	-1.026987	-0.276614
O17	O	0.548700	-0.936938	-0.366671
C18	C	0.384322	-0.805782	-0.322135
C19	C	0.381316	-0.727555	-0.325166
C20	C	0.359703	-0.287221	-0.346908
C21	C	0.362540	-0.360724	-0.344057
C22	C	0.407164	-0.397438	-0.299275
C23	C	0.448958	-0.360645	-0.257345
C24	C	0.446124	-0.287144	-0.260200
C25	C	0.420276	-0.617260	-0.286091
C26	C	0.423105	-0.690767	-0.283238
C27	C	0.336688	-0.690841	-0.369951
C28	C	0.333855	-0.617338	-0.372799
C29	C	0.375652	-0.580551	-0.330872
N30	N	0.410063	-0.472570	-0.296358
N31	N	0.372756	-0.505421	-0.333793
C32	C	0.574249	-0.980897	-0.322720
C33	C	0.652481	-0.977650	-0.326004
C34	C	0.689226	-1.023041	-0.280695
C35	C	0.762733	-1.019990	-0.283788
C36	C	0.799494	-0.971544	-0.332187
C37	C	0.762744	-0.926151	-0.377501
C38	C	0.689238	-0.929205	-0.374411
C39	C	1.019334	-0.957381	-0.346455
C40	C	1.092844	-0.954328	-0.349540
C41	C	1.092828	-1.048169	-0.255828
C42	C	1.019321	-1.051217	-0.252739
C43	C	0.982578	-1.005826	-0.298056
N44	N	0.874630	-0.968423	-0.335348
N45	N	0.907443	-1.008950	-0.294898
C46	C	1.207816	-0.996419	-0.307460
C47	C	1.129589	-0.999720	-0.304231
C48	C	0.398436	-0.980989	-0.499257
C49	C	0.401439	-0.977730	-0.577737
C50	C	0.398481	-0.172206	-0.308016
C51	C	0.401492	-0.250434	-0.304980
C52	C	0.359582	-1.023114	-0.611001
C53	C	0.362401	-1.020043	-0.684742
C54	C	0.407081	-0.971591	-0.725217
C55	C	0.448940	-0.926201	-0.691948
C56	C	0.446117	-0.929269	-0.618209
C57	C	0.420160	-0.957381	-0.946140
C58	C	0.422981	-0.954318	-1.019884
C59	C	0.336441	-1.048159	-1.012673
C60	C	0.333625	-1.051226	-0.938933
C61	C	0.375481	-1.005834	-0.905670
N62	N	0.409965	-0.968452	-0.800591
N63	N	0.372593	-1.008970	-0.830297
C64	C	0.384320	-0.996298	-0.131641
C65	C	0.381124	-0.999702	-0.053148
H66	H	0.485294	-0.390544	-0.220885
O67	O	0.466357	-0.726468	-0.239655
C68	C	0.475230	-0.813017	-0.141504
C69	C	0.426172	-0.772624	-0.190800
H70	H	0.442762	-0.850354	-0.102002
H71	H	0.504603	-0.774131	-0.111977
H72	H	0.514658	-0.844505	-0.174076
H73	H	0.386704	-0.741135	-0.158280
H74	H	0.396849	-0.811546	-0.220329
O75	O	0.460878	-0.913251	-0.913947
C76	C	0.546954	-0.819796	-0.928888
C77	C	0.500896	-0.869753	-0.965440
H78	H	0.579309	-0.784606	-0.970503
H79	H	0.583735	-0.851927	-0.894667
H80	H	0.511871	-0.785839	-0.894425
H81	H	0.535924	-0.903721	-0.999939
H82	H	0.464110	-0.837581	-0.999618
H83	H	0.454308	-0.587318	-0.251949
H84	H	0.485316	-0.886747	-0.724908
O85	O	0.486887	-0.885261	-0.585922
C86	C	0.604423	-0.846945	-0.569679
C87	C	0.558334	-0.896833	-0.606277
H88	H	0.662195	-0.856273	-0.586134
H89	H	0.594789	-0.857466	-0.510019
H90	H	0.590395	-0.790120	-0.585828
H91	H	0.572333	-0.953676	-0.590185
H92	H	0.567974	-0.886252	-0.665931
H93	H	0.792681	-0.886708	-0.416911
H94	H	0.659322	-0.892244	-0.411307
O95	O	0.316118	-1.070203	-0.571793
C96	C	0.230608	-1.162982	-0.572432
C97	C	0.279791	-1.109677	-0.616918
H98	H	0.201235	-1.194921	-0.608897
H99	H	0.191192	-1.133703	-0.537636
H100	H	0.263030	-1.199818	-0.537822
H101	H	0.247427	-1.072827	-0.651569
H102	H	0.319210	-1.139002	-0.651668
H103	H	0.297244	-1.090683	-0.905983
O104	O	0.316371	-0.251453	-0.390349
C105	C	0.273738	-0.138254	-0.433214
C106	C	0.322829	-0.178672	-0.383970
H107	H	0.278953	-0.079402	-0.428085
H108	H	0.217036	-0.155565	-0.417985
H109	H	0.288921	-0.149877	-0.490074
H110	H	0.307710	-0.167068	-0.327096
H111	H	0.379519	-0.161355	-0.399260
O112	O	0.321657	-1.064030	-0.717081
C113	C	0.230199	-1.074060	-0.796030
C114	C	0.276293	-1.024166	-0.759442
H115	H	0.193521	-1.041850	-0.830299
H116	H	0.197733	-1.109202	-0.754460
H117	H	0.265260	-1.108070	-0.830457
H118	H	0.241285	-0.990111	-0.725018
H119	H	0.308764	-0.989071	-0.801049
H120	H	0.302363	-1.085114	-1.039764
H121	H	0.480155	-0.257192	-0.226059
O122	O	0.296027	-0.726468	-0.410707
C123	C	0.210057	-0.718780	-0.497058
C124	C	0.256054	-0.678347	-0.450922
H125	H	0.177738	-0.679890	-0.529595
H126	H	0.173243	-0.756068	-0.461870
H127	H	0.245182	-0.750319	-0.533904
H128	H	0.220984	-0.646767	-0.414070
H129	H	0.292873	-0.641100	-0.486153
O130	O	0.321871	-0.396353	-0.384805
C131	C	0.235877	-0.388668	-0.471132
C132	C	0.281888	-0.348232	-0.425011
H133	H	0.203551	-0.349779	-0.503662
H134	H	0.199070	-0.425954	-0.435933
H135	H	0.270992	-0.420210	-0.507984
H136	H	0.246829	-0.316650	-0.388153
H137	H	0.318701	-0.310989	-0.460253
H138	H	0.459367	-0.914859	-1.052837
O139	O	0.983503	-1.098215	-0.205745
C140	C	0.870259	-1.144533	-0.159480
C141	C	0.910734	-1.091266	-0.212726
H142	H	0.811419	-1.138942	-0.165116
H143	H	0.882040	-1.133982	-0.103602
H144	H	0.887364	-1.200149	-0.170336
H145	H	0.893653	-1.035629	-0.201935
H146	H	0.898951	-1.101878	-0.268586
O147	O	1.128632	-1.092238	-0.211891
C148	C	1.241863	-1.129109	-0.175099
C149	C	1.201404	-1.079165	-0.224907
H150	H	1.300705	-1.118548	-0.185595
H151	H	1.230072	-1.185945	-0.184761
H152	H	1.224752	-1.119778	-0.118027
H153	H	1.218491	-1.088433	-0.281997
H154	H	1.213197	-1.022346	-0.215184
O155	O	0.653629	-1.070163	-0.233657
C156	C	0.661378	-1.162889	-0.141005
C157	C	0.701776	-1.109566	-0.194253
H158	H	0.700286	-1.194750	-0.109123
H159	H	0.629599	-1.199796	-0.170550
H160	H	0.624331	-1.133557	-0.103888
H161	H	0.738859	-1.138840	-0.231384
H162	H	0.733508	-1.072661	-0.164663
H163	H	0.297520	-0.587450	-0.409268
H164	H	0.792647	-1.056953	-0.246892
H165	H	1.122774	-0.914885	-0.388964
H166	H	0.989423	-0.920420	-0.383352
