data_functionalizedCrystal
_audit_creation_method	'MofGen! by Chris Wilmer'
_symmetry_space_group_name_H-M	'P1'
_symmetry_Int_Tables_number	1
_symmetry_cell_setting	triclinic
loop_
_symmetry_equiv_pos_as_xyz
  x,y,z
_cell_length_a	16.956995
_cell_length_b	14.853567
_cell_length_c	15.455313
_cell_angle_alpha	92.672621
_cell_angle_beta	87.515363
_cell_angle_gamma	79.844701
loop_
_atom_site_label
_atom_site_type_symbol
_atom_site_fract_x
_atom_site_fract_y
_atom_site_fract_z
O1	O	1.061572	0.033154	-0.072188
O2	O	1.561572	0.533154	0.427812
O3	O	0.829449	0.064802	-0.072175
O4	O	1.329449	0.564802	0.427825
O5	O	0.951711	-0.082722	-0.072185
O6	O	1.451711	0.417278	0.427815
O7	O	0.939310	0.180679	-0.072179
O8	O	1.439310	0.680679	0.427821
O9	O	0.944719	-0.074319	0.072078
O10	O	1.444719	0.425681	0.572078
O11	O	0.822457	0.073206	0.072088
O12	O	1.322457	0.573206	0.572088
O13	O	1.054580	0.041558	0.072074
O14	O	1.554580	0.541558	0.572074
Cu15	Cu	0.937880	0.058149	0.085253
Cu16	Cu	1.437880	0.558149	0.585253
Cu17	Cu	0.946149	0.048211	-0.085354
Cu18	Cu	1.446149	0.548211	0.414646
O19	O	0.932318	0.189083	0.072084
O20	O	1.432318	0.689083	0.572084
C21	C	0.796247	0.070625	-0.000042
C22	C	1.296247	0.570625	0.499958
C23	C	0.707731	0.075442	-0.000037
C24	C	1.207731	0.575442	0.499963
C25	C	0.947653	-0.112067	-0.000056
C26	C	1.447653	0.387933	0.499944
C27	C	0.945970	-0.212023	-0.000063
C28	C	1.445970	0.287977	0.499937
C29	C	0.208473	0.111480	-0.000069
C30	C	0.708473	0.611480	0.499931
C31	C	0.291643	0.106946	-0.000068
C32	C	0.791643	0.606946	0.499932
C33	C	0.342636	0.021850	-0.000064
C34	C	0.842636	0.521850	0.499936
C35	C	0.310457	-0.058718	-0.000068
C36	C	0.810457	0.441282	0.499932
C37	C	0.227288	-0.054184	-0.000075
C38	C	0.727288	0.445816	0.499925
C39	C	0.592383	-0.000592	-0.000049
C40	C	1.092383	0.499408	0.499951
C41	C	0.675557	-0.005120	-0.000040
C42	C	1.175557	0.494880	0.499960
C43	C	0.656737	0.160545	-0.000041
C44	C	1.156737	0.660545	0.499959
C45	C	0.573567	0.165072	-0.000043
C46	C	1.073567	0.665072	0.499957
C47	C	0.541395	0.084503	-0.000052
C48	C	1.041395	0.584503	0.499948
N49	N	0.427650	0.017214	-0.000060
N50	N	0.927650	0.517214	0.499940
N51	N	0.456384	0.089140	-0.000062
N52	N	0.956384	0.589140	0.499938
C53	C	0.866225	-0.618501	-0.000042
C54	C	1.366225	-0.118501	0.499958
C55	C	1.011475	-0.650811	-0.000051
C56	C	1.511475	-0.150811	0.499949
C57	C	1.013058	-0.556898	-0.000056
C58	C	1.513058	-0.056898	0.499944
C59	C	0.941224	-0.493781	-0.000053
C60	C	1.441224	0.006219	0.499947
C61	C	0.867806	-0.524578	-0.000045
C62	C	1.367806	-0.024578	0.499955
C63	C	1.086474	-0.526094	-0.000055
C64	C	1.586474	-0.026094	0.499945
C65	C	1.088061	-0.432175	-0.000059
C66	C	1.588061	0.067825	0.499941
C67	C	1.016226	-0.369057	-0.000063
C68	C	1.516226	0.130943	0.499937
C69	C	0.942805	-0.399859	-0.000056
C70	C	1.442805	0.100141	0.499944
C71	C	0.870971	-0.336742	-0.000053
C72	C	1.370971	0.163258	0.499947
C73	C	0.797550	-0.367542	-0.000052
C74	C	1.297550	0.132458	0.499948
C75	C	0.795971	-0.461460	-0.000048
C76	C	1.295971	0.038540	0.499952
C77	C	1.017804	-0.275140	-0.000066
C78	C	1.517804	0.224860	0.499934
C79	C	0.872552	-0.242820	-0.000055
C80	C	1.372552	0.257180	0.499945
C81	C	1.087782	0.035736	-0.000061
C82	C	1.587782	0.535736	0.499939
C83	C	1.176298	0.030918	-0.000071
C84	C	1.676298	0.530918	0.499929
C85	C	0.936376	0.218427	-0.000047
C86	C	1.436376	0.718427	0.499953
C87	C	0.938059	0.318383	-0.000045
C88	C	1.438059	0.818383	0.499955
N89	N	0.932071	0.065138	0.205249
N90	N	1.432071	0.565138	0.705249
N91	N	0.951965	0.041215	-0.205350
N92	N	1.451965	0.541215	0.294650
C93	C	0.984030	0.002485	0.250639
C94	C	1.484030	0.502485	0.750639
C95	C	0.979644	0.007778	0.341447
C96	C	1.479644	0.507778	0.841447
C97	C	0.923301	0.075729	0.386864
C98	C	1.423301	0.575729	0.886864
C99	C	0.871337	0.138386	0.341468
C100	C	1.371337	0.638386	0.841468
C101	C	0.875720	0.133088	0.250661
C102	C	1.375720	0.633088	0.750661
C103	C	0.904383	0.098573	0.658447
C104	C	1.404383	0.598573	1.158447
C105	C	0.900005	0.103868	0.749260
C106	C	1.400005	0.603868	1.249260
C107	C	1.008312	-0.026742	0.749233
C108	C	1.508312	0.473258	1.249233
C109	C	1.012693	-0.032030	0.658425
C110	C	1.512693	0.467970	1.158425
C111	C	0.960725	0.030623	0.613037
C112	C	1.460725	0.530623	1.113037
N113	N	0.918818	0.081143	0.479685
N114	N	1.418818	0.581143	0.979685
N115	N	0.965205	0.025205	0.520218
N116	N	1.465205	0.525205	1.020218
H117	H	0.166958	0.180775	-0.000066
H118	H	0.666958	0.680775	0.499934
C119	C	0.818568	0.202010	0.200732
C120	C	1.318568	0.702010	0.700732
H121	H	0.784390	0.243244	0.240784
H122	H	1.284390	0.743244	0.740784
H123	H	0.787054	0.169967	0.165321
H124	H	1.287054	0.669967	0.665321
H125	H	0.849004	0.235353	0.165297
H126	H	1.349004	0.735353	0.665297
H127	H	1.077582	-0.250066	-0.000061
H128	H	1.577582	0.249934	0.499939
C129	C	0.327031	0.195565	-0.000055
C130	C	0.827031	0.695565	0.499945
H131	H	0.284749	0.246895	-0.000046
H132	H	0.784749	0.746895	0.499954
H133	H	0.361528	0.194316	-0.050358
H134	H	0.861528	0.694316	0.449642
H135	H	0.356638	0.200166	0.050263
H136	H	0.856638	0.700166	0.550263
C137	C	0.838026	0.178614	0.799221
C138	C	1.338026	0.678614	1.299221
H139	H	0.842868	0.172801	0.859802
H140	H	1.342868	0.672801	1.359802
H141	H	0.785521	0.171886	0.784363
H142	H	1.285521	0.671886	1.284363
H143	H	0.847469	0.237275	0.784329
H144	H	1.347469	0.737275	1.284329
H145	H	0.717075	-0.074419	-0.000040
H146	H	1.217075	0.425581	0.499960
C147	C	0.785466	-0.652372	-0.000046
C148	C	1.285466	-0.152372	0.499954
H149	H	0.742914	-0.601329	-0.000051
H150	H	1.242914	-0.101329	0.499949
H151	H	0.779386	-0.685409	0.050258
H152	H	1.279386	-0.185409	0.550258
H153	H	0.784272	-0.691264	-0.050363
H154	H	1.284272	-0.191264	0.449637
H155	H	1.050620	-0.077752	0.786197
H156	H	1.550620	0.422248	1.286197
C157	C	0.718535	-0.298113	-0.000047
C158	C	1.218535	0.201887	0.499953
H159	H	0.674580	-0.329901	-0.000041
H160	H	1.174580	0.170099	0.499959
H161	H	0.718575	-0.263732	-0.050352
H162	H	1.218575	0.236268	0.449648
H163	H	0.713698	-0.257877	0.050269
H164	H	1.213698	0.242123	0.550269
H165	H	1.144957	-0.577489	-0.000050
H166	H	1.644957	-0.077489	0.499950
C167	C	1.046006	-0.072264	0.200689
C168	C	1.546006	0.427736	0.700689
H169	H	1.076317	-0.108824	0.240731
H170	H	1.576317	0.391176	0.740731
H171	H	1.080941	-0.044357	0.165250
H172	H	1.580941	0.455643	0.665250
H173	H	1.018988	-0.109740	0.165280
H174	H	1.518988	0.390260	0.665280
H175	H	1.147845	-0.407107	-0.000061
H176	H	1.647845	0.092893	0.499939
C177	C	0.715216	-0.495338	-0.000046
C178	C	1.215216	0.004662	0.499954
H179	H	0.672659	-0.444300	-0.000055
H180	H	1.172659	0.055700	0.499945
H181	H	0.709140	-0.528371	0.050262
H182	H	1.209140	-0.028371	0.550262
H183	H	0.714024	-0.534237	-0.050359
H184	H	1.214024	-0.034237	0.449641
H185	H	0.825458	0.193711	0.378451
H186	H	1.325458	0.693711	0.878451
H187	H	0.201094	-0.119786	-0.000079
H188	H	0.701094	0.380214	0.499921
H189	H	1.021952	-0.043240	0.378404
H190	H	1.521952	0.456760	0.878404
C191	C	0.793532	-0.173398	-0.000051
C192	C	1.293532	0.326602	0.499949
H193	H	0.749583	-0.205195	-0.000044
H194	H	1.249583	0.294805	0.499956
H195	H	0.793568	-0.139017	-0.050357
H196	H	1.293568	0.360983	0.449643
H197	H	0.788691	-0.133161	0.050265
H198	H	1.288691	0.366839	0.550265
H199	H	1.069959	-0.702205	-0.000046
H200	H	1.569959	-0.202205	0.499954
H201	H	1.058571	-0.087361	0.621449
H202	H	1.558571	0.412639	1.121449
C203	C	0.692129	0.249161	-0.000043
C204	C	1.192129	0.749161	0.499957
H205	H	0.748965	0.234276	-0.000046
H206	H	1.248965	0.734276	0.499954
H207	H	0.672190	0.286876	0.050260
H208	H	1.172190	0.786876	0.550260
H209	H	0.677077	0.280996	-0.050362
H210	H	1.177077	0.780996	0.449638
H211	H	0.862070	0.149589	0.621499
H212	H	1.362070	0.649589	1.121499
H213	H	0.566199	-0.066196	-0.000054
H214	H	1.066199	0.433804	0.499946
C215	C	0.517480	0.258677	-0.000049
C216	C	1.017480	0.758677	0.499951
H217	H	0.548555	0.306009	-0.000054
H218	H	1.048555	0.806009	0.499946
H219	H	0.482201	0.266821	0.050256
H220	H	0.982201	0.766821	0.550256
H221	H	0.487090	0.260955	-0.050366
H222	H	0.987090	0.760955	0.449634
H223	H	0.351983	-0.128005	-0.000070
H224	H	0.851983	0.371995	0.499930
