data_functionalizedCrystal
_audit_creation_method	'MofGen! by Chris Wilmer'
_symmetry_space_group_name_H-M	'P1'
_symmetry_Int_Tables_number	1
_symmetry_cell_setting	triclinic
loop_
_symmetry_equiv_pos_as_xyz
  x,y,z
_cell_length_a	20.919309
_cell_length_b	23.196402
_cell_length_c	23.196401
_cell_angle_alpha	60.008822
_cell_angle_beta	90.012197
_cell_angle_gamma	57.441790
loop_
_atom_site_label
_atom_site_type_symbol
_atom_site_fract_x
_atom_site_fract_y
_atom_site_fract_z
Zr1	Zr	0.641768	0.585956	-0.053117
O2	O	0.535374	0.713690	-0.148896
O3	O	0.674381	0.463402	-0.023760
O4	O	0.674351	0.583671	-0.144026
O5	O	0.535430	0.593418	0.066243
O6	O	0.783982	0.575976	-0.140181
O7	O	0.535404	0.593421	-0.028629
O8	O	0.784035	0.360837	0.074953
O9	O	0.535377	0.808557	-0.148891
O10	O	0.770109	0.506150	-0.008365
O11	O	0.688313	0.511889	0.059567
O12	O	0.688278	0.653491	-0.082031
O13	O	0.606482	0.659231	-0.014098
Zr14	Zr	0.816658	0.573679	0.104326
Zr15	Zr	0.816616	0.573685	-0.046985
Zr16	Zr	0.641810	0.585951	0.098193
Zr17	Zr	0.641773	0.737258	-0.053111
Zr18	Zr	0.816653	0.422377	0.104319
O19	O	0.784045	0.696234	0.074968
O20	O	0.783986	0.696241	-0.140176
O21	O	0.535434	0.713683	0.066248
O22	O	0.923052	0.445945	0.200104
O23	O	0.922992	0.445953	-0.015040
O24	O	0.674440	0.463394	0.191384
O25	O	0.922996	0.566218	-0.015035
O26	O	0.784075	0.575965	0.195235
O27	O	0.674444	0.583659	0.191389
O28	O	0.923022	0.566215	0.079838
O29	O	0.674358	0.798803	-0.144017
O30	O	0.784068	0.360833	0.195225
O31	O	0.923049	0.351078	0.200100
O32	O	0.923015	0.351082	0.079828
O33	O	0.535411	0.808553	-0.028620
O34	O	0.674392	0.798799	-0.023745
O35	O	0.770148	0.506145	0.133239
O36	O	0.851945	0.500405	0.065307
O37	O	0.770113	0.647746	-0.008359
O38	O	0.688317	0.653486	0.059574
C39	C	0.729207	0.390562	0.025596
C40	C	0.729205	0.326330	0.025593
C41	C	0.771896	0.293164	-0.009870
C42	C	0.771904	0.232803	-0.009864
C43	C	0.729205	0.205622	0.025595
C44	C	0.686512	0.238792	0.061066
C45	C	0.686512	0.299146	0.061065
C46	C	0.657668	0.148614	0.017811
C47	C	0.657666	0.088264	0.017807
C48	C	0.729206	0.019467	0.025602
C49	C	0.800748	0.011034	0.033387
C50	C	0.800748	0.071388	0.033386
C51	C	0.729200	0.140178	0.025600
C52	C	0.771910	-0.079151	-0.009856
C53	C	0.771920	-0.139517	-0.009845
C54	C	0.686519	-0.133520	0.061080
C55	C	0.686517	-0.073161	0.061074
C56	C	0.729210	-0.045977	0.025602
C57	C	0.510505	0.595168	0.017933
C58	C	0.436277	0.600378	0.015329
C59	C	0.444118	0.525916	0.052555
C60	C	0.374370	0.530817	0.050107
C61	C	0.296783	0.610179	0.010429
C62	C	0.288944	0.684645	-0.026798
C63	C	0.358691	0.679744	-0.024345
C64	C	0.084056	0.628824	0.001104
C65	C	0.014308	0.633719	-0.001347
C66	C	0.099739	0.479890	0.075560
C67	C	0.169483	0.474996	0.078005
C68	C	0.161639	0.549463	0.040781
C69	C	0.225489	0.615189	0.007924
C70	C	0.232932	0.544451	0.043291
C71	C	0.947921	0.564468	0.033275
C72	C	1.022149	0.559258	0.035879
C73	C	0.729161	0.579824	-0.163662
C74	C	0.729143	0.579827	-0.227897
C75	C	0.729219	0.769074	0.025612
C76	C	0.729221	0.833305	0.025615
C77	C	0.686432	0.656735	-0.296523
C78	C	0.686453	0.656734	-0.356877
C79	C	0.729173	0.579822	-0.348603
C80	C	0.771894	0.502904	-0.279965
C81	C	0.771878	0.502906	-0.219612
C82	C	0.723105	0.523620	-0.416135
C83	C	0.723114	0.523622	-0.476488
C84	C	0.729225	0.579813	-0.534748
C85	C	0.735310	0.636017	-0.532655
C86	C	0.735295	0.636019	-0.472303
C87	C	0.729195	0.579812	-0.414040
C88	C	0.686534	0.656726	-0.668820
C89	C	0.686561	0.656722	-0.729174
C90	C	0.771996	0.502890	-0.652259
C91	C	0.771975	0.502895	-0.591907
C92	C	0.729240	0.579816	-0.600192
C93	C	0.729265	0.579811	0.214870
C94	C	0.729283	0.579809	0.279106
C95	C	0.947915	0.375212	0.033267
C96	C	1.022141	0.305771	0.035868
C97	C	0.729259	0.390555	0.214862
C98	C	0.729275	0.326321	0.279094
C99	C	0.947967	0.375205	0.222533
C100	C	1.022211	0.305762	0.289369
C101	C	0.510459	0.784430	-0.171325
C102	C	0.436215	0.853874	-0.238161
C103	C	0.510511	0.784424	0.017941
C104	C	0.436285	0.853865	0.015341
C105	C	0.729167	0.769080	-0.163654
C106	C	0.729151	0.833314	-0.227886
C107	C	1.014280	0.276159	-0.001373
C108	C	1.084016	0.210920	0.001056
C109	C	1.161612	0.175290	0.040731
C110	C	1.169471	0.204908	0.077973
C111	C	1.099735	0.270150	0.075539
C112	C	0.772000	0.293158	0.347721
C113	C	0.772011	0.232812	0.408080
C114	C	0.729303	0.205626	0.399811
C115	C	0.686573	0.238796	0.331177
C116	C	0.686557	0.299145	0.270820
C117	C	1.099780	0.270154	0.285296
C118	C	1.169546	0.204912	0.348090
C119	C	1.161741	0.175275	0.414956
C120	C	1.084163	0.210890	0.419027
C121	C	1.014399	0.276135	0.356234
C122	C	0.358646	0.889489	-0.234088
C123	C	0.288880	0.954750	-0.296882
C124	C	0.296685	0.984390	-0.363748
C125	C	0.374263	0.948771	-0.367819
C126	C	0.444027	0.883516	-0.305026
C127	C	0.444146	0.883483	0.052575
C128	C	0.374410	0.948739	0.050129
C129	C	0.296814	0.984371	0.010453
C130	C	0.288955	0.954750	-0.026787
C131	C	0.358691	0.889500	-0.024344
C132	C	0.771868	0.860480	-0.219594
C133	C	0.771869	0.920826	-0.279941
C134	C	0.729148	0.954009	-0.348579
C135	C	0.686430	0.926837	-0.356870
C136	C	0.686434	0.866488	-0.296524
H137	H	0.859006	-0.044988	0.039743
Cl138	Cl	0.330469	0.444685	0.093177
H139	H	0.239872	1.037525	-0.414873
H140	H	0.352279	0.865387	-0.054664
H141	H	0.806657	0.833472	-0.163711
Cl142	Cl	0.825586	0.191092	-0.054442
Cl143	Cl	0.825571	0.954977	-0.269502
Cl144	Cl	0.632690	0.753436	-0.306942
Cl145	Cl	1.074365	0.173622	0.503094
H146	H	0.806810	0.205811	0.463959
Cl147	Cl	1.249272	0.093270	0.043785
Cl148	Cl	1.074118	0.173697	-0.045763
Cl149	Cl	0.916886	0.320887	0.361367
H150	H	0.240038	1.037501	0.008470
Cl151	Cl	0.632718	0.832352	-0.306961
Cl152	Cl	0.191400	0.999550	-0.076660
Cl153	Cl	0.541686	0.838706	0.102457
Cl154	Cl	0.729148	1.029879	-0.424437
H155	H	0.162310	0.679806	-0.024382
H156	H	0.077658	0.689460	-0.029219
H157	H	0.106117	0.419263	0.105866
H158	H	0.352302	0.740379	-0.054650
Cl159	Cl	0.632718	0.968569	-0.443164
Cl160	Cl	0.729333	0.129755	0.475697
H161	H	0.380608	0.972912	-0.422269
Cl162	Cl	0.632755	0.753426	-0.443161
H163	H	0.859000	0.064517	0.039727
Cl164	Cl	1.267026	0.160103	0.127850
H165	H	0.951105	0.305168	-0.033689
Cl166	Cl	0.742992	0.706662	-0.605892
Cl167	Cl	0.825587	-0.044981	-0.054442
Cl168	Cl	1.109631	0.307362	0.122367
H169	H	0.225766	0.749264	-0.059101
Cl170	Cl	0.825655	0.406206	-0.505630
Cl171	Cl	0.348812	0.852242	-0.150036
H172	H	0.806779	0.315285	0.354467
H173	H	0.806662	0.315293	-0.038751
Cl174	Cl	0.825603	0.406214	-0.269561
H175	H	0.651800	0.216653	0.324455
Cl176	Cl	0.825590	-0.181209	-0.054434
H177	H	0.740251	0.681781	-0.470601
H178	H	0.651784	0.719352	-0.785054
Cl179	Cl	0.632839	-0.167683	0.105657
Cl180	Cl	0.632842	-0.031462	0.105656
Cl181	Cl	0.632845	0.340825	0.184548
H182	H	0.380824	0.972844	0.080457
Cl183	Cl	0.567727	0.098874	0.008017
H184	H	1.106151	0.294274	0.230856
H185	H	1.218554	0.122148	0.466081
Cl186	Cl	0.567722	0.235101	0.008010
Cl187	Cl	1.267063	0.160149	0.342955
H188	H	0.651746	0.216657	0.089937
H189	H	0.225719	0.983740	-0.293553
H190	H	0.507186	0.854518	-0.308351
H191	H	0.651745	0.326151	0.089943
H192	H	0.507290	0.461291	0.084869
H193	H	0.380762	0.470182	0.080422
H194	H	-0.048869	0.698349	-0.033661
Cl195	Cl	0.267019	0.375222	0.127888
H196	H	0.806660	0.440276	-0.163732
H197	H	0.651737	0.719359	-0.675567
Cl198	Cl	0.825714	0.406198	-0.641849
H199	H	0.718155	0.477860	-0.478188
H200	H	0.718123	0.477864	-0.368701
