data_functionalizedCrystal
_audit_creation_method	'MofGen! by Chris Wilmer'
_symmetry_space_group_name_H-M	'P1'
_symmetry_Int_Tables_number	1
_symmetry_cell_setting	triclinic
loop_
_symmetry_equiv_pos_as_xyz
  x,y,z
_cell_length_a	16.974800
_cell_length_b	16.974813
_cell_length_c	14.048226
_cell_angle_alpha	86.339005
_cell_angle_beta	93.650353
_cell_angle_gamma	83.627081
loop_
_atom_site_label
_atom_site_type_symbol
_atom_site_fract_x
_atom_site_fract_y
_atom_site_fract_z
O1	O	1.049039	0.100721	-0.006072
O2	O	0.818819	0.113571	-0.024806
O3	O	0.940347	-0.007965	-0.006072
O4	O	0.927511	0.222257	-0.024805
O5	O	0.940332	-0.007972	0.152249
O6	O	0.818804	0.113563	0.133515
O7	O	1.049025	0.100714	0.152249
Zn8	Zn	0.933912	0.107138	0.168019
Zn9	Zn	0.933931	0.107147	-0.040575
O10	O	0.927497	0.222250	0.133515
C11	C	0.789354	0.113080	0.052122
C12	C	0.701579	0.111621	0.045469
C13	C	0.660339	0.110929	0.128647
C14	C	0.577866	0.109545	0.122399
C15	C	0.536635	0.108859	0.032973
C16	C	0.577881	0.109548	-0.050210
C17	C	0.660353	0.110926	-0.043962
C18	C	0.289983	0.104731	0.005031
C19	C	0.207505	0.103355	-0.001211
C20	C	0.207496	0.103352	0.171399
C21	C	0.289969	0.104735	0.177640
C22	C	0.331208	0.105420	0.094457
N23	N	0.452335	0.107446	0.026585
N24	N	0.415508	0.106826	0.100846
C25	C	0.939851	-0.037427	0.075319
C26	C	0.938386	-0.125202	0.081966
C27	C	0.937708	-0.166431	-0.001212
C28	C	0.936327	-0.248904	0.005036
C29	C	0.935629	-0.290148	0.094462
C30	C	0.936305	-0.248914	0.177645
C31	C	0.937681	-0.166441	0.171396
C32	C	0.931509	-0.536806	0.122404
C33	C	0.930136	-0.619285	0.128647
C34	C	0.930155	-0.619269	-0.043963
C35	C	0.931536	-0.536796	-0.050204
C36	C	0.932208	-0.495567	0.032979
N37	N	0.934220	-0.374450	0.100850
N38	N	0.933611	-0.411267	0.026589
C39	C	1.078490	0.101205	0.075320
C40	C	1.166265	0.102664	0.081966
C41	C	0.927993	0.251711	0.052122
C42	C	0.929457	0.339487	0.045470
N43	N	0.933905	0.107131	0.310380
N44	N	0.933945	0.107148	-0.182935
C45	C	0.987734	0.053337	0.368493
C46	C	0.987740	0.053337	0.468151
C47	C	0.933919	0.107134	0.509694
C48	C	0.880084	0.160931	0.451573
C49	C	0.880075	0.160927	0.351917
C50	C	0.880106	0.160936	0.659289
C51	C	0.880116	0.160942	0.758952
C52	C	0.987771	0.053346	0.775522
C53	C	0.987762	0.053342	0.675866
C54	C	0.933928	0.107140	0.617753
H55	H	0.173936	0.102799	-0.074037
H56	H	0.938280	-0.132856	-0.074032
H57	H	0.544304	0.108983	-0.123023
O58	O	0.329978	0.105541	-0.075812
C59	C	0.300779	0.173643	-0.135824
H60	H	0.271798	0.221105	-0.091216
H61	H	0.351983	0.197521	-0.172877
H62	H	0.254947	0.157371	-0.191905
H63	H	0.693929	0.111491	-0.111694
O64	O	0.700489	0.111491	0.215472
C65	C	0.757214	0.043831	0.230232
H66	H	0.772588	0.021223	0.158226
H67	H	0.813173	0.060192	0.269811
H68	H	0.731752	-0.004632	0.274592
H69	H	0.932072	-0.503250	0.190139
H70	H	1.031565	0.009532	0.334676
O71	O	0.935740	-0.288840	-0.075851
C72	C	0.936653	-0.234753	-0.156120
H73	H	0.962623	-0.179257	-0.133074
H74	H	0.974667	-0.263635	-0.211298
H75	H	0.873409	-0.217631	-0.188896
H76	H	0.323534	0.105290	0.250460
O77	O	0.938200	-0.126331	0.252152
C78	C	0.870557	-0.069582	0.247709
H79	H	0.822310	-0.088127	0.196443
H80	H	0.847586	-0.065614	0.321962
H81	H	0.887074	-0.009119	0.221131
H82	H	0.544294	0.108969	0.190133
O83	O	1.040115	0.001060	0.524462
C84	C	1.087610	-0.046429	0.466425
H85	H	1.088449	-0.014014	0.392947
H86	H	1.150771	-0.058510	0.500998
H87	H	1.062018	-0.105163	0.458401
O88	O	0.167420	0.102537	0.252184
C89	C	0.128734	0.033302	0.259692
H90	H	0.159905	-0.014119	0.216771
H91	H	0.130828	0.010305	0.337956
H92	H	0.064189	0.047733	0.230424
O93	O	0.827722	0.213217	0.491770
C94	C	0.780219	0.260707	0.419104
H95	H	0.779360	0.228286	0.350503
H96	H	0.717065	0.272801	0.442113
H97	H	0.805819	0.319435	0.405937
O98	O	1.039987	0.001113	0.832108
C99	C	1.028466	0.012659	0.928976
H100	H	0.965572	0.042244	0.935472
H101	H	1.037337	-0.047227	0.972152
H102	H	1.073173	0.052295	0.957632
O103	O	0.827895	0.213217	0.295364
C104	C	0.870176	0.261986	0.237216
H105	H	0.932081	0.230460	0.229475
H106	H	0.837154	0.274508	0.163635
H107	H	0.875483	0.320425	0.271515
H108	H	0.935733	-0.282500	0.250458
O109	O	0.932025	-0.496806	-0.137150
C110	C	0.863234	-0.508024	-0.194011
H111	H	0.815050	-0.524352	-0.145892
H112	H	0.841122	-0.450800	-0.239343
H113	H	0.877902	-0.557989	-0.242776
O114	O	0.929349	-0.659342	-0.124742
C115	C	0.860114	-0.698027	-0.132234
H116	H	0.812690	-0.666855	-0.089313
H117	H	0.837122	-0.695933	-0.210495
H118	H	0.874542	-0.762573	-0.102953
H119	H	1.031591	0.009540	0.642043
H120	H	0.929564	-0.652863	0.201472
H121	H	0.836288	0.204748	0.792771
O122	O	0.827784	0.213273	0.602975
C123	C	0.780271	0.260747	0.661009
H124	H	0.812691	0.261622	0.734471
H125	H	0.768138	0.323900	0.626408
H126	H	0.721564	0.235109	0.669077
