data_functionalizedCrystal
_audit_creation_method	'MofGen! by Chris Wilmer'
_symmetry_space_group_name_H-M	'P1'
_symmetry_Int_Tables_number	1
_symmetry_cell_setting	triclinic
loop_
_symmetry_equiv_pos_as_xyz
  x,y,z
_cell_length_a	15.944480
_cell_length_b	26.809956
_cell_length_c	15.944493
_cell_angle_alpha	89.989783
_cell_angle_beta	96.527554
_cell_angle_gamma	89.992092
loop_
_atom_site_label
_atom_site_type_symbol
_atom_site_fract_x
_atom_site_fract_y
_atom_site_fract_z
O1	O	-1.114545	0.041462	0.108040
O2	O	-0.869985	0.041465	0.121459
O3	O	-0.998969	0.041468	-0.007530
O4	O	-0.985561	0.041459	0.237030
O5	O	-0.998944	-0.041492	-0.007511
O6	O	-0.869960	-0.041494	0.121479
O7	O	-1.114521	-0.041497	0.108060
Zn8	Zn	-0.992237	-0.054667	0.114772
Zn9	Zn	-0.992269	0.054635	0.114747
O10	O	-0.985537	-0.041500	0.237049
C11	C	-0.838678	-0.000014	0.120922
C12	C	-0.745429	-0.000013	0.119284
N13	N	-0.992221	-0.129263	0.114790
C14	C	-0.509652	-0.000014	0.195217
C15	C	-0.459090	-0.040918	0.154287
C16	C	-0.574707	-0.000013	0.116247
C17	C	-0.459118	0.040873	0.154249
C18	C	-0.409797	-0.000011	0.113320
C19	C	-0.525374	-0.040951	0.075339
C20	C	-0.525405	0.040877	0.075312
C21	C	-0.474876	-0.000037	0.034324
C22	C	-0.669708	-0.000015	0.117936
C23	C	-0.314800	-0.000013	0.111625
C24	C	-1.049376	-0.473888	0.057644
C25	C	-1.049396	-0.682766	0.057631
O26	O	-1.097956	-0.709768	0.009049
N27	N	-0.992273	-0.708890	0.114728
C28	C	-0.935138	-0.682792	0.171828
O29	O	-0.886547	-0.709806	0.220386
C30	C	-0.935115	-0.473916	0.171836
C31	C	-0.992247	-0.447794	0.114742
C32	C	-1.106502	-0.447766	0.000554
C33	C	-1.106500	-0.395550	0.000561
C34	C	-1.049371	-0.369455	0.057658
C35	C	-0.992244	-0.395577	0.114749
C36	C	-0.877977	-0.447818	0.228932
C37	C	-0.877975	-0.395596	0.228927
C38	C	-0.935106	-0.369474	0.171833
C39	C	-0.935113	-0.317267	0.171853
N40	N	-0.992235	-0.291142	0.114756
C41	C	-1.049364	-0.317236	0.057659
C42	C	-0.935156	-0.792456	0.171821
C43	C	-0.935162	-0.844675	0.171820
C44	C	-1.049419	-0.844644	0.057622
C45	C	-1.049415	-0.792424	0.057628
C46	C	-0.992278	-0.766331	0.114724
C47	C	-1.049355	-0.207578	0.057678
C48	C	-1.049350	-0.155358	0.057692
C49	C	-0.935091	-0.155392	0.171887
C50	C	-0.935099	-0.207609	0.171876
C51	C	-0.992234	-0.233700	0.114764
O52	O	-0.886571	-0.290232	0.220403
O53	O	-1.097936	-0.290214	0.009096
C54	C	-1.049378	-0.526104	0.057637
C55	C	-0.992252	-0.552226	0.114728
C56	C	-0.935123	-0.526132	0.171825
C57	C	-0.992258	-0.604445	0.114727
C58	C	-1.049387	-0.630540	0.057630
C59	C	-1.106509	-0.604415	0.000533
C60	C	-1.106507	-0.552199	0.000540
C61	C	-0.878001	-0.552256	0.228922
C62	C	-0.878009	-0.604473	0.228911
C63	C	-0.935137	-0.630567	0.171814
C64	C	-0.145826	-0.000016	0.108608
C65	C	-0.239071	-0.000011	0.110281
C66	C	-0.998409	-0.000010	-0.038815
C67	C	-0.996766	-0.000003	-0.132063
N68	N	-0.992291	0.129231	0.114723
C69	C	-1.072689	-0.000014	-0.367842
C70	C	-1.031758	0.040890	-0.418410
C71	C	-0.993722	-0.000010	-0.302783
C72	C	-1.031716	-0.040902	-0.418366
C73	C	-0.990787	-0.000018	-0.467692
C74	C	-0.952812	0.040928	-0.352123
C75	C	-0.952782	-0.040900	-0.352076
C76	C	-0.911793	0.000013	-0.402610
C77	C	-0.995414	-0.000004	-0.207784
C78	C	-0.989088	-0.000019	-0.562689
C79	C	-0.986097	-0.000021	0.268334
C80	C	-0.987740	-0.000024	0.361582
H81	H	-0.430135	-0.075501	0.187645
H82	H	-0.554198	-0.075566	0.042017
H83	H	-0.459424	-0.000058	-0.033748
H84	H	-0.525261	-0.000055	0.263238
H85	H	-0.554369	0.075462	0.041979
H86	H	-0.430183	0.075450	0.187607
H87	H	-1.095876	-0.134091	0.011199
H88	H	-1.095879	-0.228817	0.011172
O89	O	-1.168115	-0.524026	-0.061052
H90	H	-1.233594	-0.534045	-0.050334
O91	O	-0.821626	0.000034	-0.423082
H92	H	-0.788681	-0.033607	-0.395334
O93	O	-1.075893	-0.086710	-0.456672
H94	H	-1.043724	-0.120625	-0.429065
H95	H	-1.153019	-0.374284	-0.045933
H96	H	-0.831444	-0.374353	0.275422
H97	H	-1.153029	-0.625670	-0.045955
H98	H	-1.153023	-0.469008	-0.045946
O99	O	-1.111018	-0.764247	-0.003963
H100	H	-1.176500	-0.774261	0.006753
O101	O	-1.111033	-0.872793	-0.003970
H102	H	-1.101428	-0.913491	0.005622
H103	H	-0.919493	0.075545	-0.323303
H104	H	-0.831487	-0.625738	0.275412
O105	O	-0.873570	-0.872848	0.233427
H106	H	-0.833849	-0.845924	0.273130
H107	H	-0.888626	-0.771214	0.218318
H108	H	-0.831455	-0.469080	0.275423
O109	O	-0.873483	-0.235788	0.233456
H110	H	-0.833755	-0.208868	0.273157
O111	O	-0.908633	-0.086705	-0.313677
H112	H	-0.941547	-0.120612	-0.340337
H113	H	-0.888580	-0.134138	0.218377
O114	O	-0.816386	-0.524115	0.290514
H115	H	-0.776676	-0.551058	0.330216
H116	H	-1.140709	0.000027	-0.352231
H117	H	-1.065117	0.075470	-0.447372
