data_functionalizedCrystal
_audit_creation_method	'MofGen! by Chris Wilmer'
_symmetry_space_group_name_H-M	'P1'
_symmetry_Int_Tables_number	1
_symmetry_cell_setting	triclinic
loop_
_symmetry_equiv_pos_as_xyz
  x,y,z
_cell_length_a	10.489741
_cell_length_b	10.489711
_cell_length_c	16.053802
_cell_angle_alpha	87.391283
_cell_angle_beta	87.404587
_cell_angle_gamma	95.466909
loop_
_atom_site_label
_atom_site_type_symbol
_atom_site_fract_x
_atom_site_fract_y
_atom_site_fract_z
O1	O	-0.174464	1.699410	-0.069453
O2	O	0.325536	2.199410	0.430547
O3	O	-0.191397	1.328209	-0.069447
O4	O	0.308603	1.828209	0.430553
O5	O	0.002669	1.522256	-0.069452
O6	O	0.502669	2.022256	0.430548
O7	O	-0.368529	1.505363	-0.069448
O8	O	0.131471	2.005363	0.430552
O9	O	-0.007969	1.511575	0.069407
O10	O	0.492031	2.011575	0.569407
O11	O	-0.202034	1.317527	0.069412
O12	O	0.297966	1.817527	0.569412
O13	O	-0.185101	1.688728	0.069407
O14	O	0.314899	2.188728	0.569407
Zn15	Zn	-0.195257	1.501432	0.091456
Zn16	Zn	0.304743	2.001432	0.591456
Zn17	Zn	-0.181241	1.515505	-0.091497
Zn18	Zn	0.318759	2.015505	0.408503
O19	O	-0.379166	1.494681	0.069412
O20	O	0.120834	1.994681	0.569412
C21	C	-0.195444	1.275336	-0.000017
C22	C	0.304556	1.775336	0.499983
C23	C	-0.191643	1.133704	-0.000015
C24	C	0.308357	1.633704	0.499985
C25	C	-0.308347	0.951318	-0.000023
C26	C	0.191653	1.451318	0.499977
C27	C	-0.244806	1.048730	-0.068487
C28	C	0.255194	1.548730	0.431513
C29	C	-0.255263	1.038172	0.068417
C30	C	0.244737	1.538172	0.568417
C31	C	-0.121258	0.978784	-0.068554
C32	C	0.378742	1.478784	0.431446
C33	C	-0.131737	0.968212	0.068412
C34	C	0.368263	1.468212	0.568412
C35	C	-0.068105	1.065598	-0.000069
C36	C	0.431895	1.565598	0.499931
C37	C	-0.421379	1.501298	-0.000018
C38	C	0.078621	2.001298	0.499982
C39	C	-0.563008	1.505115	-0.000016
C40	C	-0.063008	2.005115	0.499984
C41	C	-0.631135	1.628582	-0.000025
C42	C	-0.131135	2.128582	0.499975
C43	C	-0.728507	1.564991	0.068440
C44	C	-0.228507	2.064991	0.568440
C45	C	-0.717997	1.575493	-0.068464
C46	C	-0.217997	2.075493	0.431536
C47	C	-0.658519	1.441469	0.068505
C48	C	-0.158519	1.941469	0.568505
C49	C	-0.647995	1.451993	-0.068461
C50	C	-0.147995	1.951993	0.431539
C51	C	-0.745341	1.388311	0.000021
C52	C	-0.245341	1.888311	0.500021
C53	C	0.044882	1.515639	-0.000024
C54	C	0.544882	2.015639	0.499976
C55	C	0.186511	1.511823	-0.000031
C56	C	0.686511	2.011823	0.499969
C57	C	-0.181053	1.741601	-0.000025
C58	C	0.318947	2.241601	0.499975
C59	C	-0.184855	1.883233	-0.000033
C60	C	0.315145	2.383233	0.499967
N61	N	-0.204821	1.491837	0.216317
N62	N	0.295179	1.991837	0.716317
N63	N	-0.171667	1.525110	-0.216357
N64	N	0.328333	2.025110	0.283643
C65	C	-0.122276	1.574435	0.260009
C66	C	0.377724	2.074435	0.760009
C67	C	-0.128978	1.567735	0.347416
C68	C	0.371022	2.067735	0.847416
C69	C	-0.218233	1.478442	0.391129
C70	C	0.281767	1.978442	0.891129
C71	C	-0.300782	1.395835	0.347431
C72	C	0.199218	1.895835	0.847431
C73	C	-0.294072	1.402530	0.260026
C74	C	0.205928	1.902530	0.760026
C75	C	-0.247506	1.449198	0.652540
C76	C	0.252494	1.949198	1.152540
C77	C	-0.254212	1.442512	0.739951
C78	C	0.245788	1.942512	1.239951
C79	C	-0.082406	1.614411	0.739929
C80	C	0.417594	2.114411	1.239929
C81	C	-0.075709	1.621103	0.652522
C82	C	0.424291	2.121103	1.152522
C83	C	-0.158253	1.538492	0.608832
C84	C	0.341747	2.038492	1.108832
N85	N	-0.225089	1.471594	0.480473
N86	N	0.274911	1.971594	0.980473
N87	N	-0.151390	1.545334	0.519490
N88	N	0.348610	2.045334	1.019490
H89	H	-0.083962	0.932737	0.126296
H90	H	0.416038	1.432737	0.626296
N91	N	-0.810848	1.253730	0.000074
N92	N	-0.310848	1.753730	0.500074
H93	H	-0.861578	1.244051	-0.051639
H94	H	-0.361578	1.744051	0.448361
H95	H	-0.744163	1.190352	0.000622
H96	H	-0.244163	1.690352	0.500622
H97	H	-0.361288	1.335268	0.224453
H98	H	0.138712	1.835268	0.724453
N99	N	-0.753139	1.650617	-0.145137
N100	N	-0.253139	2.150617	0.354863
H101	H	-0.722467	1.608873	-0.196845
H102	H	-0.222467	2.108873	0.303155
H103	H	-0.849307	1.651935	-0.144789
H104	H	-0.349307	2.151935	0.355211
H105	H	-0.311970	1.064676	0.126299
H106	H	0.188030	1.564676	0.626299
H107	H	-0.612524	1.404247	-0.126345
H108	H	-0.112524	1.904247	0.373655
N109	N	-0.046231	0.943899	-0.145318
N110	N	0.453769	1.443899	0.354682
H111	H	0.044261	0.986587	-0.145555
H112	H	0.544261	1.486587	0.354445
H113	H	-0.044215	0.847800	-0.144821
H114	H	0.455785	1.347800	0.355179
H115	H	-0.581481	1.730091	0.000042
H116	H	-0.081481	2.230091	0.500042
N117	N	-0.442777	0.885482	-0.000114
N118	N	0.057223	1.385482	0.499886
H119	H	-0.460309	0.826822	0.051612
H120	H	0.039691	1.326822	0.551612
H121	H	-0.506260	0.952070	-0.000712
H122	H	-0.006260	1.452070	0.499288
N123	N	-0.775469	1.628286	0.145106
N124	N	-0.275469	2.128286	0.645106
H125	H	-0.733528	1.719049	0.145054
H126	H	-0.233528	2.219049	0.645054
H127	H	-0.871596	1.629550	0.144756
H128	H	-0.371596	2.129550	0.644756
H129	H	-0.049600	1.647152	0.224423
H130	H	0.450400	2.147152	0.724423
H131	H	-0.061763	1.634992	0.382989
H132	H	0.438237	2.134992	0.882989
H133	H	-0.003031	1.693812	0.616933
H134	H	0.496969	2.193812	1.116933
N135	N	-0.308126	1.095661	-0.145168
N136	N	0.191874	1.595661	0.354832
H137	H	-0.398873	1.053680	-0.145122
H138	H	0.101127	1.553680	0.354878
H139	H	-0.309433	1.191785	-0.144843
H140	H	0.190567	1.691785	0.355157
H141	H	-0.632131	1.384812	0.126451
H142	H	-0.132131	1.884812	0.626451
H143	H	-0.015201	1.681668	0.775510
H144	H	0.484799	2.181668	1.275510
H145	H	-0.326899	1.369796	0.775539
H146	H	0.173101	1.869796	1.275539
N147	N	0.066466	1.131127	-0.000129
N148	N	0.566466	1.631127	0.499871
H149	H	0.063102	1.226997	0.000363
H150	H	0.563102	1.726997	0.500363
H151	H	0.109506	1.100510	0.051080
H152	H	0.609506	1.600510	0.551080
H153	H	-0.314719	1.381935	0.616974
H154	H	0.185281	1.881935	1.116974
H155	H	-0.373451	1.323125	0.383028
H156	H	0.126549	1.823125	0.883028
