data_functionalizedCrystal
_audit_creation_method	'MofGen! by Chris Wilmer'
_symmetry_space_group_name_H-M	'P1'
_symmetry_Int_Tables_number	1
_symmetry_cell_setting	triclinic
loop_
_symmetry_equiv_pos_as_xyz
  x,y,z
_cell_length_a	19.288864
_cell_length_b	10.540539
_cell_length_c	17.766277
_cell_angle_alpha	89.995823
_cell_angle_beta	89.976791
_cell_angle_gamma	83.830869
loop_
_atom_site_label
_atom_site_type_symbol
_atom_site_fract_x
_atom_site_fract_y
_atom_site_fract_z
O1	O	0.922410	0.158345	-0.062832
O2	O	0.720292	0.179706	-0.062781
O3	O	0.825962	-0.015784	-0.062807
O4	O	0.816739	0.353835	-0.062806
O5	O	0.825943	-0.015794	0.062382
O6	O	0.720273	0.179696	0.062408
O7	O	0.922391	0.158335	0.062356
Cu8	Cu	0.821330	0.169015	0.073813
Cu9	Cu	0.821352	0.169026	-0.074237
O10	O	0.816721	0.353825	0.062382
C11	C	0.694401	0.179013	-0.000180
C12	C	0.617284	0.176950	-0.000160
C13	C	0.573353	0.291654	-0.000172
C14	C	0.500893	0.289716	-0.000180
C15	C	0.472367	0.173067	-0.000192
C16	C	0.516308	0.058347	-0.000176
C17	C	0.588766	0.060289	-0.000160
C18	C	0.363500	0.081371	-0.044076
C19	C	0.291042	0.079434	-0.044097
C20	C	0.248881	0.167074	-0.000237
C21	C	0.279185	0.256671	0.043633
C22	C	0.351644	0.258613	0.043649
C23	C	0.393799	0.170949	-0.000208
C24	C	0.126381	0.279684	-0.000257
C25	C	0.053919	0.277741	-0.000261
C26	C	0.069336	0.046369	-0.000264
C27	C	0.141795	0.048315	-0.000253
C28	C	0.170313	0.164976	-0.000253
C29	C	0.825261	-0.063076	-0.000214
C30	C	0.823192	-0.203978	-0.000217
C31	C	0.743903	-0.385638	-0.000478
C32	C	0.746000	-0.239067	-0.000197
C33	C	0.860329	-0.266470	0.071262
C34	C	0.857694	-0.412955	0.071323
C35	C	0.859286	-0.413497	-0.071040
C36	C	0.859997	-0.266531	-0.071986
C37	C	0.948281	0.159027	-0.000246
C38	C	1.025399	0.161091	-0.000271
C39	C	0.817422	0.401117	-0.000212
C40	C	0.819491	0.542019	-0.000214
N41	N	0.821320	0.169006	0.177943
N42	N	0.821368	0.169025	-0.178368
C43	C	0.868126	0.082485	0.217318
C44	C	0.868130	0.082479	0.296120
C45	C	0.821334	0.169016	0.335544
C46	C	0.774519	0.255543	0.296159
C47	C	0.774512	0.255538	0.217359
C48	C	0.812807	0.284670	0.460383
C49	C	0.812819	0.284676	0.539182
C50	C	0.821353	0.169031	0.578590
C51	C	0.829889	0.053373	0.539189
C52	C	0.829882	0.053368	0.460389
C53	C	0.821337	0.169030	0.420989
C54	C	0.868166	0.082497	0.703411
C55	C	0.868165	0.082489	0.782214
C56	C	0.774558	0.255564	0.782252
C57	C	0.774555	0.255560	0.703450
C58	C	0.821363	0.169028	0.664034
H59	H	0.624535	-0.033120	-0.000151
H60	H	0.906238	0.012023	0.185229
C61	C	0.936908	-0.237991	0.074840
H62	H	0.958374	-0.276664	0.118477
H63	H	0.938684	-0.148349	0.076981
H64	H	0.960916	-0.271419	0.031269
H65	H	0.906278	0.012027	0.814274
H66	H	0.805846	0.378849	0.428304
C67	C	0.825454	-0.208173	0.143141
H68	H	0.788267	-0.145767	0.129743
H69	H	0.858812	-0.169346	0.172059
H70	H	0.807749	-0.273451	0.171959
C71	C	0.723031	0.350709	0.339518
H72	H	0.695145	0.402226	0.304778
H73	H	0.748264	0.403447	0.370247
H74	H	0.693902	0.305149	0.370269
H75	H	0.906246	0.012021	0.328185
H76	H	0.716778	-0.195808	-0.051435
C77	C	0.702867	-0.425518	0.068403
H78	H	0.731600	-0.486061	0.097323
H79	H	0.662703	-0.462497	0.051978
H80	H	0.688993	-0.352592	0.098414
C81	C	0.723028	0.350723	0.174044
H82	H	0.695159	0.402267	0.208806
H83	H	0.693890	0.305198	0.143319
H84	H	0.748277	0.403450	0.143291
H85	H	0.834311	-0.444489	-0.125218
C86	C	0.037969	-0.081946	-0.000273
H87	H	0.074515	-0.149985	-0.000261
H88	H	0.010045	-0.087514	-0.043933
H89	H	0.010003	-0.087512	0.043385
C90	C	0.839281	-0.073847	0.582524
H91	H	0.844369	-0.142723	0.547773
H92	H	0.799566	-0.080714	0.613286
H93	H	0.879717	-0.076594	0.613240
C94	C	0.005595	0.403923	-0.000274
H95	H	0.032960	0.473674	-0.000278
H96	H	-0.023015	0.407980	0.043377
H97	H	-0.022967	0.407968	-0.043941
H98	H	0.830232	-0.440547	0.124769
C99	C	0.706229	-0.181762	0.069156
H100	H	0.707370	-0.091881	0.069561
H101	H	0.727582	-0.217485	0.113621
H102	H	0.659190	-0.200551	0.067065
C103	C	0.919641	-0.012696	0.660048
H104	H	0.912939	-0.000298	0.607477
H105	H	0.911678	-0.097374	0.672971
H106	H	0.966066	0.000875	0.672936
H107	H	0.177565	-0.045090	-0.000247
H108	H	0.913209	-0.462161	0.074552
H109	H	0.736444	0.326019	0.671388
C110	C	0.232821	0.353081	0.091884
H111	H	0.261246	0.406720	0.118008
H112	H	0.207462	0.308437	0.127146
H113	H	0.201157	0.403581	0.060255
C114	C	0.803435	0.411892	0.582516
H115	H	0.798340	0.480765	0.547762
H116	H	0.843158	0.418758	0.613231
H117	H	0.763006	0.414646	0.613279
H118	H	0.736453	0.326019	0.814350
C119	C	0.823344	-0.210405	-0.143424
H120	H	0.785770	-0.149100	-0.129578
H121	H	0.805959	-0.276857	-0.171490
H122	H	0.855693	-0.170602	-0.173270
H123	H	0.376314	0.331562	0.079372
H124	H	0.596567	0.386649	-0.000173
H125	H	0.149601	0.374676	-0.000246
C126	C	0.936032	-0.235548	-0.077831
H127	H	0.956962	-0.274531	-0.121670
H128	H	0.961186	-0.267261	-0.034603
H129	H	0.936860	-0.145736	-0.080834
C130	C	0.452560	0.415895	-0.000204
H131	H	0.479922	0.485651	-0.000208
H132	H	0.423943	0.419958	0.043441
H133	H	0.424005	0.419929	-0.043876
H134	H	0.266374	0.006484	-0.079822
H135	H	0.915041	-0.461966	-0.071535
C136	C	0.839260	-0.073841	0.417049
H137	H	0.844438	-0.142717	0.451797
H138	H	0.879627	-0.076523	0.386201
H139	H	0.799485	-0.080769	0.386417
C140	C	0.409873	-0.015038	-0.092322
H141	H	0.457367	-0.001060	-0.086024
H142	H	0.397285	-0.004199	-0.143791
H143	H	0.403584	-0.099341	-0.076899
C144	C	0.484932	-0.069963	-0.000193
H145	H	0.435486	-0.054692	-0.000213
H146	H	0.499947	-0.117184	0.043464
H147	H	0.500000	-0.117168	-0.043853
C148	C	0.702712	-0.423361	-0.069715
H149	H	0.731241	-0.483574	-0.099081
H150	H	0.689115	-0.349640	-0.099151
H151	H	0.662372	-0.460176	-0.053623
