data_functionalizedCrystal
_audit_creation_method	'MofGen! by Chris Wilmer'
_symmetry_space_group_name_H-M	'P1'
_symmetry_Int_Tables_number	1
_symmetry_cell_setting	triclinic
loop_
_symmetry_equiv_pos_as_xyz
  x,y,z
_cell_length_a	13.032831
_cell_length_b	25.639239
_cell_length_c	13.032268
_cell_angle_alpha	97.141717
_cell_angle_beta	90.886977
_cell_angle_gamma	82.842759
loop_
_atom_site_label
_atom_site_type_symbol
_atom_site_fract_x
_atom_site_fract_y
_atom_site_fract_z
Zn1	Zn	1.498234	-0.353075	-0.780741
Zn2	Zn	1.519922	-0.430970	-0.608740
Zn3	Zn	1.348108	-0.331235	-0.586988
Zn4	Zn	1.326172	-0.428143	-0.758866
O5	O	1.423109	-0.385856	-0.683834
O6	O	1.645024	-0.373731	-0.776183
O7	O	1.515387	-0.409782	-0.461940
O8	O	1.368126	-0.260977	-0.612741
O9	O	1.660959	-0.430960	-0.649815
O10	O	1.478423	-0.277023	-0.755090
O11	O	1.389156	-0.336508	-0.445959
O12	O	1.201284	-0.333767	-0.591530
O13	O	1.330740	-0.426142	-0.905683
O14	O	1.185169	-0.404965	-0.717808
O15	O	1.457153	-0.370990	-0.921754
O16	O	1.494117	-0.503750	-0.628604
O17	O	1.351770	-0.501673	-0.738901
C18	C	1.155911	-0.366689	-0.649935
C19	C	1.041600	-0.358504	-0.635458
C20	C	0.982702	-0.390128	-0.691390
C21	C	0.864555	-0.381668	-0.676428
C22	C	1.422942	-0.521683	-0.683765
C23	C	1.422960	-0.579799	-0.683782
C24	C	1.497387	-0.941263	-0.626536
C25	C	1.497425	-0.995870	-0.626555
O26	O	1.560532	-1.025027	-0.577808
N27	N	1.423281	-1.022111	-0.683925
C28	C	1.349101	-0.993742	-0.741288
O29	O	1.286040	-1.021077	-0.790088
C30	C	1.349068	-0.939136	-0.741275
C31	C	1.423210	-0.912897	-0.683893
C32	C	1.571523	-0.915024	-0.569160
C33	C	1.571484	-0.860419	-0.569140
C34	C	1.497307	-0.832054	-0.626496
C35	C	1.423171	-0.858293	-0.683872
C36	C	1.274894	-0.910769	-0.798643
C37	C	1.274868	-0.856159	-0.798625
C38	C	1.349010	-0.829920	-0.741243
C39	C	1.348955	-0.775323	-0.741209
N40	N	1.423098	-0.749082	-0.683839
C41	C	1.497275	-0.777448	-0.626482
C42	C	1.349176	-1.108419	-0.741314
C43	C	1.349204	-1.163024	-0.741322
C44	C	1.497529	-1.165149	-0.626590
C45	C	1.497496	-1.110542	-0.626577
C46	C	1.423320	-1.082179	-0.683944
C47	C	1.497185	-0.662774	-0.626444
C48	C	1.497137	-0.608165	-0.626425
C49	C	1.348815	-0.606046	-0.741161
C50	C	1.348860	-0.660650	-0.741176
C51	C	1.423054	-0.689013	-0.683815
O52	O	1.285883	-0.746133	-0.789934
O53	O	1.560333	-0.750108	-0.577701
C54	C	1.691350	-0.405097	-0.717865
C55	C	1.805658	-0.413297	-0.732368
C56	C	1.389080	-0.400687	-0.952077
C57	C	1.374579	-0.407007	-1.066386
C58	C	1.423302	-0.249501	-0.683929
C59	C	1.423384	-0.191395	-0.683970
C60	C	1.430661	-0.382537	-1.125301
C61	C	1.415675	-0.389069	-1.243446
C62	C	1.457064	-0.371048	-0.416642
C63	C	1.471765	-0.364595	-0.302358
H64	H	1.557603	-0.685862	-0.579737
H65	H	1.631859	-0.839059	-0.522418
C66	C	1.550729	-0.330257	-1.253145
C67	C	1.649188	-0.350356	-1.292110
C68	C	1.721947	-0.318734	-1.246803
H69	H	1.550459	-0.330414	-1.180302
H70	H	1.533573	-0.295013	-1.268843
H71	H	1.666339	-0.385592	-1.276404
H72	H	1.649491	-0.350198	-1.364948
H73	H	1.704791	-0.283490	-1.262502
H74	H	1.721667	-0.318894	-1.173961
H75	H	1.788758	-0.332364	-1.273241
H76	H	1.489766	-0.356749	-1.088273
H77	H	1.288491	-0.682015	-0.787904
C78	C	1.194289	-0.825286	-0.860737
C79	C	1.135800	-0.786029	-0.794098
C80	C	1.061571	-0.757576	-0.851278
H81	H	1.150044	-0.848672	-0.894920
H82	H	1.227864	-0.809219	-0.910539
H83	H	1.102227	-0.802096	-0.744315
H84	H	1.180016	-0.762631	-0.759914
H85	H	1.095145	-0.741508	-0.901080
H86	H	1.017333	-0.780966	-0.885459
H87	H	1.021883	-0.730933	-0.806074
C88	C	0.854833	-0.457766	-0.811084
C89	C	0.777594	-0.485292	-0.859800
C90	C	0.822853	-0.526255	-0.932327
H91	H	0.901701	-0.481365	-0.777043
H92	H	0.891048	-0.443277	-0.861292
H93	H	0.741396	-0.499782	-0.809600
H94	H	0.730721	-0.461708	-0.893862
H95	H	0.859069	-0.511766	-0.982535
H96	H	0.869720	-0.549851	-0.898277
H97	H	0.770453	-0.544934	-0.965396
C98	C	0.815369	-0.337167	-0.597785
C99	C	0.892601	-0.309624	-0.549101
C100	C	0.847328	-0.268623	-0.476661
H101	H	0.779129	-0.351606	-0.547541
H102	H	0.768517	-0.313592	-0.631923
H103	H	0.939434	-0.333195	-0.514964
H104	H	0.928846	-0.295173	-0.599318
H105	H	0.800476	-0.245048	-0.510799
H106	H	0.811088	-0.283066	-0.426425
H107	H	0.899721	-0.249926	-0.443627
H108	H	1.315465	-0.432789	-1.103413
H109	H	1.356556	-0.414852	-1.280468
H110	H	1.019744	-0.423463	-0.750355
C111	C	1.268645	-1.191416	-0.803722
C112	C	1.203697	-1.154883	-0.853963
C113	C	1.129485	-1.181018	-0.911473
H114	H	1.228768	-1.207365	-0.758779
H115	H	1.302242	-1.217975	-0.853614
H116	H	1.170103	-1.128333	-0.804077
H117	H	1.243544	-1.138932	-0.898924
H118	H	1.163082	-1.207577	-0.961365
H119	H	1.089616	-1.196966	-0.866522
H120	H	1.085416	-1.156235	-0.945575
C121	C	1.577757	-0.579778	-0.564099
C122	C	1.642742	-0.616314	-0.513899
C123	C	1.717028	-0.590187	-0.456490
H124	H	1.544256	-0.553210	-0.514185
H125	H	1.617584	-0.563845	-0.609132
H126	H	1.602920	-0.632239	-0.468870
H127	H	1.676267	-0.642883	-0.563790
H128	H	1.756855	-0.574255	-0.501523
H129	H	1.683518	-0.563620	-0.406581
H130	H	1.761135	-0.614974	-0.422430
H131	H	1.004556	-0.325165	-0.576500
C132	C	1.578090	-1.196061	-0.564522
C133	C	1.562293	-1.249505	-0.576889
C134	C	1.636520	-1.278004	-0.519783
H135	H	1.572017	-1.182332	-0.493452
H136	H	1.645236	-1.192875	-0.588483
H137	H	1.495163	-1.252687	-0.552922
H138	H	1.568374	-1.263249	-0.647946
H139	H	1.703666	-1.274818	-0.543744
H140	H	1.630441	-1.264270	-0.448716
H141	H	1.625817	-1.314269	-0.528173
C142	C	1.652116	-0.945716	-0.506769
C143	C	1.717008	-0.911037	-0.456506
C144	C	1.791252	-0.939285	-0.399000
H145	H	1.692027	-0.972379	-0.551716
H146	H	1.618544	-0.961734	-0.456889
H147	H	1.750578	-0.895028	-0.506380
H148	H	1.677126	-0.884373	-0.411541
H149	H	1.757680	-0.955302	-0.349120
H150	H	1.831156	-0.965947	-0.443955
H151	H	1.835285	-0.915759	-0.364883
C152	C	1.268178	-0.575332	-0.803471
C153	C	1.203240	-0.609993	-0.853716
C154	C	1.128945	-0.581718	-0.911125
H155	H	1.301673	-0.559297	-0.853360
H156	H	1.228319	-0.548679	-0.758433
H157	H	1.243093	-0.636637	-0.898750
H158	H	1.169719	-0.626029	-0.803851
H159	H	1.089086	-0.555065	-0.866087
H160	H	1.162450	-0.565684	-0.961009
H161	H	1.084870	-0.605230	-0.945216
C162	C	1.578115	-1.082158	-0.564256
C163	C	1.643089	-1.118695	-0.514050
C164	C	1.717379	-1.092571	-0.456640
H165	H	1.544616	-1.055587	-0.514345
H166	H	1.617948	-1.066229	-0.609290
H167	H	1.603261	-1.134615	-0.469019
H168	H	1.676612	-1.145267	-0.563936
H169	H	1.757212	-1.076642	-0.501674
H170	H	1.683871	-1.066001	-0.406735
H171	H	1.761478	-1.117358	-0.422576
C172	C	1.268781	-1.077617	-0.803739
C173	C	1.318557	-1.054054	-0.877101
C174	C	1.244532	-1.025684	-0.934635
H175	H	1.228947	-1.050920	-0.758794
H176	H	1.224643	-1.101057	-0.837966
H177	H	1.362677	-1.030616	-0.842876
H178	H	1.358385	-1.080739	-0.922069
H179	H	1.200394	-1.049124	-0.968862
H180	H	1.204703	-0.998990	-0.889681
H181	H	1.278294	-1.009697	-0.984423
C182	C	1.194344	-0.939157	-0.861058
C183	C	1.129409	-0.902621	-0.911304
C184	C	1.055200	-0.928753	-0.968827
H185	H	1.154459	-0.955105	-0.816123
H186	H	1.227945	-0.965716	-0.910948
H187	H	1.095811	-0.876071	-0.861421
H188	H	1.169265	-0.886670	-0.956258
H189	H	1.088801	-0.955311	-1.018717
H190	H	1.015322	-0.944700	-0.923884
H191	H	1.011139	-0.903968	-1.002933
