data_functionalizedCrystal
_audit_creation_method	'MofGen! by Chris Wilmer'
_symmetry_space_group_name_H-M	'P1'
_symmetry_Int_Tables_number	1
_symmetry_cell_setting	triclinic
loop_
_symmetry_equiv_pos_as_xyz
  x,y,z
_cell_length_a	29.839125
_cell_length_b	12.594517
_cell_length_c	12.594516
_cell_angle_alpha	90.015853
_cell_angle_beta	90.008939
_cell_angle_gamma	90.012565
loop_
_atom_site_label
_atom_site_type_symbol
_atom_site_fract_x
_atom_site_fract_y
_atom_site_fract_z
Zn1	Zn	-0.254040	-1.627175	0.423897
Zn2	Zn	-0.178921	-1.627093	0.601854
Zn3	Zn	-0.178922	-1.449206	0.423889
Zn4	Zn	-0.254022	-1.449161	0.601833
O5	O	-0.216476	-1.538159	0.512868
O6	O	-0.244082	-1.776110	0.447515
O7	O	-0.116054	-1.603480	0.578251
O8	O	-0.188894	-1.472867	0.274944
O9	O	-0.188893	-1.776050	0.578259
O10	O	-0.244083	-1.603620	0.274950
O11	O	-0.116054	-1.472788	0.447501
O12	O	-0.188876	-1.300254	0.447482
O13	O	-0.316891	-1.472790	0.578225
O14	O	-0.244052	-1.300221	0.578217
O15	O	-0.316904	-1.603576	0.447496
O16	O	-0.188876	-1.603437	0.750797
O17	O	-0.244052	-1.472711	0.750782
C18	C	-0.216463	-1.261618	0.512847
C19	C	-0.216468	-1.143312	0.512863
C20	C	-0.333654	-1.538187	0.512859
C21	C	-0.383589	-1.538200	0.512855
C22	C	-0.216472	-1.538089	0.789409
C23	C	-0.216485	-1.538156	0.907715
C24	C	-0.693242	-1.606372	0.444606
C25	C	-0.880915	-1.606424	0.444515
O26	O	-0.905188	-1.664307	0.386588
N27	N	-0.904374	-1.538341	0.512570
C28	C	-0.880912	-1.470234	0.580647
O29	O	-0.905171	-1.412318	0.638521
C30	C	-0.693240	-1.470177	0.580731
C31	C	-0.669783	-1.538273	0.512680
C32	C	-0.669786	-1.674461	0.376559
C33	C	-0.622870	-1.674451	0.376587
C34	C	-0.599411	-1.606352	0.444661
C35	C	-0.622868	-1.538263	0.512707
C36	C	-0.669778	-1.402066	0.648802
C37	C	-0.622857	-1.402056	0.648815
C38	C	-0.599401	-1.470151	0.580764
C39	C	-0.552493	-1.470154	0.580809
N40	N	-0.529034	-1.538238	0.512754
C41	C	-0.552493	-1.606337	0.444680
C42	C	-0.979442	-1.470271	0.580599
C43	C	-1.026360	-1.470286	0.580579
C44	C	-1.026361	-1.606475	0.444446
C45	C	-0.979442	-1.606464	0.444472
C46	C	-0.955984	-1.538354	0.512544
C47	C	-0.453967	-1.606312	0.444744
C48	C	-0.407048	-1.606299	0.444780
C49	C	-0.407052	-1.470106	0.580909
C50	C	-0.453967	-1.470122	0.580877
C51	C	-0.477424	-1.538229	0.512786
O52	O	-0.528191	-1.412293	0.638697
O53	O	-0.528226	-1.664227	0.386798
C54	C	-0.740158	-1.606381	0.444578
C55	C	-0.763614	-1.538292	0.512625
C56	C	-0.740155	-1.470193	0.580699
C57	C	-0.810532	-1.538308	0.512605
C58	C	-0.833991	-1.606407	0.444531
C59	C	-0.810532	-1.674490	0.376477
C60	C	-0.763617	-1.674481	0.376504
C61	C	-0.763614	-1.402109	0.648754
C62	C	-0.810529	-1.402126	0.648721
C63	C	-0.833988	-1.470225	0.580647
C64	C	-0.099753	-1.538191	0.512801
C65	C	-0.049819	-1.538385	0.512505
C66	C	-0.216490	-1.815779	0.512890
C67	C	-0.216495	-1.934085	0.512900
C68	C	-0.186515	-1.074046	0.441660
C69	C	-0.175466	-1.003239	0.538741
C70	C	-0.227524	-1.003320	0.415830
C71	C	-0.205398	-1.074064	0.609995
C72	C	-0.257475	-1.074151	0.487019
C73	C	-0.246442	-1.003376	0.584167
C74	C	-0.216490	-1.538258	0.235247
C75	C	-0.216496	-1.538300	0.116942
C76	C	-0.246474	-1.467048	0.976998
C77	C	-0.205480	-1.441129	1.047834
C78	C	-0.257486	-1.564172	1.047678
C79	C	-0.175469	-1.512187	0.976992
C80	C	-0.227502	-1.635274	0.976829
C81	C	-0.186480	-1.609393	1.047634
H82	H	-0.473060	-1.661767	0.389294
O83	O	-0.238708	-1.733120	0.939636
C84	C	-0.281971	-1.760179	0.975608
H85	H	-0.301324	-1.684735	0.995550
H86	H	-0.300412	-1.805809	0.910758
H87	H	-0.279160	-1.811872	1.049602
H88	H	-0.292155	-1.586118	1.078726
O89	O	-0.194427	-1.343235	1.085175
C90	C	-0.229712	-1.303786	1.148309
H91	H	-0.250651	-1.372875	1.179265
H92	H	-0.215274	-1.257480	1.218181
H93	H	-0.251742	-1.249105	1.098534
H94	H	-0.387952	-1.661754	0.389364
O95	O	-0.134125	-1.485710	0.940064
C96	C	-0.137246	-1.392957	0.877843
H97	H	-0.168530	-1.346666	0.901397
H98	H	-0.106322	-1.341558	0.891465
H99	H	-0.139409	-1.415645	0.790356
H100	H	-0.603776	-1.729900	0.321170
O101	O	-0.276742	-1.395253	0.940115
C102	C	-0.319825	-1.421777	0.977655
H103	H	-0.316649	-1.471884	1.052645
H104	H	-0.339175	-1.346037	0.996466
H105	H	-0.338490	-1.468857	0.914212
H106	H	-0.271784	-0.972541	0.644467
H107	H	-0.161095	-1.669589	1.078453
H108	H	-0.161153	-1.105076	0.381504
O109	O	-0.194279	-1.110918	0.708006
C110	C	-0.225711	-1.074046	0.783013
H111	H	-0.258461	-1.053802	0.741034
H112	H	-0.232061	-1.138470	0.844773
H113	H	-0.212026	-1.000052	0.823887
H114	H	-0.688881	-1.729916	0.321119
H115	H	-0.292131	-1.105323	0.465108
H116	H	-0.960347	-1.661912	0.389056
H117	H	-1.045469	-1.661925	0.389018
O118	O	-0.238618	-0.966373	0.317837
C119	C	-0.206927	-1.002359	0.243013
H120	H	-0.189782	-1.076863	0.274474
H121	H	-0.224592	-1.021464	0.165047
H122	H	-0.180781	-0.937850	0.229010
H123	H	-0.960347	-1.414808	0.636039
O124	O	-1.049074	-1.404046	0.646727
C125	C	-1.018301	-1.343960	0.706827
H126	H	-0.984857	-1.340288	0.663239
H127	H	-1.031851	-1.260096	0.718170
H128	H	-1.013313	-1.382906	0.787670
O129	O	-0.740851	-1.336067	0.715039
C130	C	-0.752334	-1.359283	0.821111
H131	H	-0.765232	-1.444319	0.826477
H132	H	-0.721485	-1.350080	0.873724
H133	H	-0.779571	-1.302223	0.848904
H134	H	-0.688868	-1.346615	0.704217
H135	H	-0.473066	-1.414683	0.636300
O136	O	-0.600088	-1.336018	0.715104
C137	C	-0.611569	-1.359235	0.821178
H138	H	-0.624474	-1.444265	0.826541
H139	H	-0.580716	-1.350052	0.873783
H140	H	-0.638799	-1.302164	0.848983
O141	O	-0.384205	-1.404112	0.647084
C142	C	-0.357079	-1.464692	0.715855
H143	H	-0.350064	-1.545371	0.678326
H144	H	-0.324079	-1.421341	0.730114
H145	H	-0.375157	-1.476349	0.794734
H146	H	-0.744523	-1.729931	0.321089
H147	H	-0.829641	-1.729943	0.321052
H148	H	-0.140799	-0.972093	0.560623
O149	O	-0.833330	-1.336129	0.714954
C150	C	-0.860484	-1.396696	0.783681
H151	H	-0.846355	-1.480526	0.790267
H152	H	-0.861010	-1.358169	0.865589
H153	H	-0.896043	-1.400370	0.750762
