data_functionalizedCrystal
_audit_creation_method	'MofGen! by Chris Wilmer'
_symmetry_space_group_name_H-M	'P1'
_symmetry_Int_Tables_number	1
_symmetry_cell_setting	triclinic
loop_
_symmetry_equiv_pos_as_xyz
  x,y,z
_cell_length_a	27.440280
_cell_length_b	14.809374
_cell_length_c	14.809374
_cell_angle_alpha	60.797835
_cell_angle_beta	89.996739
_cell_angle_gamma	67.421244
loop_
_atom_site_label
_atom_site_type_symbol
_atom_site_fract_x
_atom_site_fract_y
_atom_site_fract_z
Zr1	Zr	0.538310	0.955121	-0.203691
O2	O	0.478610	1.113051	-0.350848
O3	O	0.548159	0.777353	-0.145614
O4	O	0.568094	0.926497	-0.332155
O5	O	0.452564	0.993403	-0.031909
O6	O	0.648295	0.926486	-0.332158
O7	O	0.458675	0.963906	-0.164308
O8	O	0.612634	0.659693	0.001529
O9	O	0.488225	1.260195	-0.365596
O10	O	0.622423	0.857810	-0.136511
O11	O	0.558010	0.879832	-0.037702
O12	O	0.581481	1.055431	-0.257330
O13	O	0.517068	1.077452	-0.158520
Zr14	Zr	0.656474	1.002146	0.007465
Zr15	Zr	0.666220	0.955102	-0.203695
Zr16	Zr	0.528563	1.002165	0.007469
Zr17	Zr	0.553643	1.189799	-0.227213
Zr18	Zr	0.641140	0.767467	0.030986
O19	O	0.646625	1.179914	-0.050612
O20	O	0.660483	1.113024	-0.350854
O21	O	0.464752	1.179941	-0.050606
O22	O	0.716173	0.844216	0.154622
O23	O	0.730031	0.777326	-0.145620
O24	O	0.534301	0.844243	0.154628
O25	O	0.742219	0.963864	-0.164317
O26	O	0.626690	1.030769	0.135929
O27	O	0.546489	1.030781	0.135931
O28	O	0.736108	0.993360	-0.031919
O29	O	0.589897	1.260180	-0.365600
O30	O	0.604887	0.697087	0.169373
O31	O	0.706559	0.697071	0.169370
O32	O	0.714306	0.659678	0.001526
O33	O	0.480478	1.297589	-0.197752
O34	O	0.582149	1.297574	-0.197756
O35	O	0.613302	0.901836	0.061103
O36	O	0.677716	0.879814	-0.037706
O37	O	0.636773	1.077435	-0.158524
O38	O	0.572360	1.099457	-0.059715
C39	C	0.578212	0.685086	-0.068691
C40	C	0.571702	0.585459	-0.058706
C41	C	0.600753	0.530118	-0.103270
C42	C	0.594026	0.427148	-0.092950
C43	C	0.437395	0.978657	-0.098108
C44	C	0.383094	0.978665	-0.098106
C45	C	0.145037	0.994871	-0.025151
C46	C	0.196056	0.994874	-0.025150
O47	O	0.219590	1.008656	0.036906
N48	N	0.224937	0.978633	-0.098095
C49	C	0.202798	0.962375	-0.171039
O50	O	0.232048	0.948560	-0.233084
C51	C	0.151781	0.962364	-0.171035
C52	C	0.122900	0.978618	-0.098092
C53	C	0.116157	1.011122	0.047786
C54	C	0.065140	1.011121	0.047783
C55	C	0.043004	0.994868	-0.025158
C56	C	0.071884	0.978616	-0.098095
C57	C	0.129644	0.946098	-0.243974
C58	C	0.078623	0.946087	-0.243963
C59	C	0.049743	0.962341	-0.171020
C60	C	-0.001269	0.962362	-0.171040
N61	N	-0.030150	0.978603	-0.098095
C62	C	-0.008014	0.994856	-0.025154
C63	C	0.309937	0.962399	-0.171041
C64	C	0.360952	0.962418	-0.171051
C65	C	0.354207	0.994915	-0.025160
C66	C	0.303190	0.994904	-0.025156
C67	C	0.281056	0.978640	-0.098096
C68	C	-0.115152	0.994853	-0.025167
C69	C	-0.166174	0.994854	-0.025179
C70	C	-0.159423	0.962351	-0.171066
C71	C	-0.108407	0.962356	-0.171058
C72	C	-0.086272	0.978604	-0.098099
O73	O	-0.024836	0.948582	-0.233060
O74	O	-0.037266	1.008654	0.036890
C75	C	0.757388	0.978609	-0.098118
C76	C	0.811690	0.978601	-0.098120
C77	C	0.609583	0.919789	-0.362242
C78	C	0.613721	0.899817	-0.451885
C79	C	0.616572	1.272180	-0.127535
C80	C	0.623081	1.371807	-0.137521
C81	C	0.595255	0.988947	-0.551785
C82	C	0.599531	0.968308	-0.644437
C83	C	0.585201	1.037478	0.166016
C84	C	0.581063	1.057449	0.255659
C85	C	0.738208	0.685062	-0.068696
C86	C	0.786000	0.585427	-0.058713
C87	C	0.566021	0.743931	0.195438
C88	C	0.555373	0.664275	0.295066
C89	C	0.726017	0.743907	0.195433
C90	C	0.769672	0.664243	0.295059
C91	C	0.468766	1.213360	-0.391659
C92	C	0.425112	1.293024	-0.491285
C93	C	0.456575	1.272204	-0.127530
C94	C	0.408783	1.371839	-0.137514
C95	C	0.628763	1.213336	-0.391664
C96	C	0.639410	1.292992	-0.491292
C97	C	0.779582	0.527150	-0.105608
C98	C	0.824485	0.433540	-0.096249
C99	C	0.875804	0.398205	-0.039986
C100	C	0.882221	0.456493	0.006910
C101	C	0.837320	0.550105	-0.002456
C102	C	0.579235	0.638356	0.393437
C103	C	0.569229	0.563525	0.487055
C104	C	0.535365	0.514609	0.482301
C105	C	0.511500	0.540536	0.383920
C106	C	0.521503	0.615371	0.290303
C107	C	0.823801	0.615337	0.290268
C108	C	0.864825	0.540495	0.383868
C109	C	0.851718	0.514555	0.482260
C110	C	0.797584	0.563470	0.487049
C111	C	0.756561	0.638317	0.393449
C112	C	0.370984	1.341941	-0.486495
C113	C	0.329962	1.416812	-0.580098
C114	C	0.343069	1.442757	-0.678491
C115	C	0.397202	1.393836	-0.683279
C116	C	0.438224	1.318973	-0.589677
C117	C	0.415202	1.430125	-0.090628
C118	C	0.370303	1.523755	-0.100013
C119	C	0.318984	1.559092	-0.156279
C120	C	0.312566	1.500802	-0.203171
C121	C	0.357466	1.407179	-0.193791
C122	C	0.673277	1.341885	-0.486504
C123	C	0.683292	1.416720	-0.580106
C124	C	0.659436	1.442666	-0.678496
C125	C	0.625567	1.393763	-0.683282
C126	C	0.615556	1.318924	-0.589681
H127	H	0.541851	0.556605	-0.012910
H128	H	0.564173	0.398298	-0.047152
H129	H	0.285887	1.456632	-0.576179
H130	H	0.885126	0.453608	0.558467
H131	H	0.692706	1.320774	-0.406398
H132	H	0.576283	1.080533	-0.568719
O133	O	0.470551	1.392044	-0.029955
H134	H	0.469298	1.367078	0.053587
O135	O	0.298818	1.523502	-0.779439
H136	H	0.317022	1.533338	-0.848670
O137	O	0.579027	1.266189	-0.594850
H138	H	0.544010	1.292157	-0.560745
O139	O	-0.077262	0.944838	-0.249743
H140	H	-0.069841	1.021196	-0.300394
O141	O	-0.183304	0.944822	-0.249736
H142	H	-0.187884	1.014166	-0.331871
O143	O	0.924229	0.297236	-0.029894
H144	H	0.960997	0.282454	0.017100
H145	H	-0.189688	1.008094	0.034220
H146	H	0.562089	1.149043	-0.761285
O147	O	0.837950	0.643310	0.184155
H148	H	0.816921	0.616237	0.145111
H149	H	0.375538	1.571202	-0.061822
O150	O	0.670232	1.523401	-0.779446
H151	H	0.689494	1.477573	-0.820328
O152	O	0.662626	0.410009	-0.198192
H153	H	0.661702	0.484897	-0.196787
O154	O	0.594977	0.535568	0.593155
H155	H	0.582330	0.475325	0.657461
H156	H	0.786920	0.542338	0.567172
O157	O	0.495767	0.643310	0.184208
H158	H	0.508405	0.703570	0.119899
H159	H	0.630608	0.558964	-0.149058
H160	H	-0.097135	1.008081	0.034244
O161	O	0.624666	0.846976	-0.621979
H162	H	0.624076	0.849805	-0.698274
H163	H	0.407868	1.414970	-0.763401
O164	O	0.599831	1.421764	-0.789407
H165	H	0.612480	1.482032	-0.853682
O166	O	0.698177	0.691038	0.398624
H167	H	0.695960	0.660405	0.482771
O168	O	0.034001	1.028612	0.126481
H169	H	0.057977	1.039891	0.177208
O170	O	0.140029	1.028654	0.126464
H171	H	0.111367	1.039956	0.177171
H172	H	0.482297	1.279142	-0.593590
O173	O	0.270553	1.660044	-0.166357
H174	H	0.283642	1.694615	-0.124277
H175	H	0.270776	1.529588	-0.248982
O176	O	0.272042	1.012428	0.053521
H177	H	0.264621	0.936069	0.104165
H178	H	0.372240	1.008147	0.034234
H179	H	0.360301	1.320821	-0.406387
O180	O	0.392097	0.944901	-0.249733
H181	H	0.368129	0.933593	-0.300445
H182	H	0.352231	1.359724	-0.231969
H183	H	0.527224	0.453675	0.558538
H184	H	0.842553	0.597545	0.035739
O185	O	0.474992	0.487738	0.378801
H186	H	0.472060	0.431327	0.460432
O187	O	0.286059	0.944884	-0.249733
H188	H	0.314714	0.933606	-0.300459
O189	O	0.638861	0.778488	-0.429421
H190	H	0.608606	0.765059	-0.464810
O191	O	0.160788	0.928561	-0.322645
H192	H	0.136819	0.917244	-0.373347
O193	O	0.054747	0.928557	-0.322642
H194	H	0.083402	0.917268	-0.373365
O195	O	0.923208	0.487730	0.378693
H196	H	0.925424	0.518328	0.294550
H197	H	0.710869	1.456530	-0.576189
O198	O	0.724235	0.565262	-0.166310
H199	H	0.712534	0.493325	-0.128649
O200	O	0.817557	0.370675	-0.146823
H201	H	0.774325	0.410965	-0.187498
H202	H	0.924011	0.427709	0.052718
O203	O	0.615759	0.691114	0.398577
H204	H	0.630661	0.660518	0.482715
