data_functionalizedCrystal
_audit_creation_method	'MofGen! by Chris Wilmer'
_symmetry_space_group_name_H-M	'P1'
_symmetry_Int_Tables_number	1
_symmetry_cell_setting	triclinic
loop_
_symmetry_equiv_pos_as_xyz
  x,y,z
_cell_length_a	10.967926
_cell_length_b	11.026607
_cell_length_c	9.482900
_cell_angle_alpha	101.401054
_cell_angle_beta	92.549900
_cell_angle_gamma	96.380568
loop_
_atom_site_label
_atom_site_type_symbol
_atom_site_fract_x
_atom_site_fract_y
_atom_site_fract_z
O1	O	1.656940	0.216441	0.294232
O2	O	1.308307	0.219130	0.206885
O3	O	1.453729	0.039755	0.243321
O4	O	1.511518	0.395816	0.257796
O5	O	1.424224	0.076343	0.477721
O6	O	1.278802	0.255718	0.441285
O7	O	1.627435	0.253030	0.528632
Cu8	Cu	1.450424	0.257715	0.506361
Cu9	Cu	1.485318	0.214445	0.229156
O10	O	1.482013	0.432405	0.492195
C11	C	1.248228	0.234464	0.312729
C12	C	1.113167	0.225628	0.278890
C13	C	1.037668	0.240643	0.385230
C14	C	0.898075	0.231512	0.350259
C15	C	1.428316	0.012329	0.357848
C16	C	1.396536	-0.123902	0.349878
C17	C	1.687514	0.237695	0.422785
C18	C	1.822577	0.246529	0.456614
N19	N	1.425891	0.288148	0.701334
C20	C	1.507427	0.459830	0.377666
C21	C	1.539208	0.596059	0.385627
C22	C	1.451456	0.665680	0.363640
C23	C	1.484301	0.806480	0.371867
N24	N	1.509859	0.184002	0.034185
C25	C	1.478072	0.223414	0.786607
C26	C	1.457670	0.248745	0.948913
H27	H	1.352013	0.621044	0.338718
H28	H	1.569635	0.109817	0.987037
H29	H	1.397883	0.322921	0.996058
H30	H	0.861276	0.266141	0.573554
C31	C	1.345132	0.388357	0.765019
C32	C	1.380202	0.524922	0.753018
C33	C	1.299441	0.625134	0.816698
C34	C	1.183611	0.588780	0.892379
C35	C	1.148535	0.452208	0.904384
C36	C	1.229296	0.351997	0.840703
H37	H	1.465952	0.551839	0.696992
H38	H	1.325407	0.726233	0.807812
H39	H	1.123827	0.662962	0.939519
H40	H	1.062786	0.425291	0.960410
H41	H	1.203330	0.250898	0.849590
C42	C	0.845804	0.205011	0.192278
C43	C	0.867193	0.083939	0.088872
C44	C	0.814921	0.057439	-0.069105
C45	C	0.741261	0.152012	-0.123676
C46	C	0.719869	0.273093	-0.020269
C47	C	0.772140	0.299593	0.137708
H48	H	0.921724	0.013923	0.129268
H49	H	0.830758	-0.032194	-0.145654
H50	H	0.702566	0.132395	-0.240620
H51	H	0.665338	0.343109	-0.060664
H52	H	0.756304	0.389225	0.214257
C53	C	1.060891	0.199129	0.120917
C54	C	1.082280	0.078056	0.017512
C55	C	1.030008	0.051556	-0.140466
C56	C	0.956348	0.146130	-0.195037
C57	C	0.934955	0.267210	-0.091629
C58	C	0.987227	0.293710	0.066348
H59	H	1.136811	0.008040	0.057907
H60	H	1.045844	-0.038076	-0.217014
H61	H	0.917653	0.126513	-0.311981
H62	H	0.880424	0.337226	-0.132025
H63	H	0.971391	0.383343	0.142896
C64	C	1.618655	0.866758	0.405528
C65	C	1.653259	0.971232	0.539752
C66	C	1.787609	1.031512	0.573411
C67	C	1.887356	0.987317	0.472846
C68	C	1.852754	0.882837	0.338613
C69	C	1.718404	0.822558	0.304954
H70	H	1.579418	1.003953	0.614204
H71	H	1.813223	1.108855	0.672780
H72	H	1.986810	1.031939	0.497763
H73	H	1.926595	0.850116	0.264161
H74	H	1.692790	0.745215	0.205585
C75	C	1.262178	0.815830	0.316227
C76	C	1.196933	0.749363	0.425445
C77	C	1.062577	0.689098	0.391799
C78	C	0.993466	0.695298	0.248935
C79	C	1.058712	0.761767	0.139708
C80	C	1.193068	0.822033	0.173354
H81	H	1.248093	0.744771	0.531210
H82	H	1.014279	0.639893	0.472657
H83	H	0.894008	0.650686	0.224029
H84	H	1.007552	0.766360	0.033943
H85	H	1.241366	0.871238	0.092495
H86	H	1.638658	0.640685	0.410490
H87	H	1.537845	0.149234	0.739456
H88	H	1.076374	0.260251	0.502161
