data_functionalizedCrystal
_audit_creation_method	'MofGen! by Chris Wilmer'
_symmetry_space_group_name_H-M	'P1'
_symmetry_Int_Tables_number	1
_symmetry_cell_setting	triclinic
loop_
_symmetry_equiv_pos_as_xyz
  x,y,z
_cell_length_a	18.050589
_cell_length_b	15.297475
_cell_length_c	18.050591
_cell_angle_alpha	99.663737
_cell_angle_beta	90.002114
_cell_angle_gamma	80.331321
loop_
_atom_site_label
_atom_site_type_symbol
_atom_site_fract_x
_atom_site_fract_y
_atom_site_fract_z
Zn1	Zn	-0.492648	1.378944	0.616052
Zn2	Zn	-0.616785	1.378868	0.491861
Zn3	Zn	-0.471098	1.228133	0.470428
Zn4	Zn	-0.595261	1.228036	0.594558
O5	O	-0.543948	1.303495	0.543225
O6	O	-0.527141	1.505172	0.617544
O7	O	-0.597449	1.358882	0.385095
O8	O	-0.370043	1.248210	0.489771
O9	O	-0.618345	1.505117	0.526301
O10	O	-0.385875	1.359010	0.596761
O11	O	-0.490414	1.248137	0.369348
O12	O	-0.469542	1.101881	0.468928
O13	O	-0.581659	1.248046	0.701333
O14	O	-0.560764	1.101811	0.560126
O15	O	-0.506270	1.358917	0.717124
O16	O	-0.717844	1.358788	0.505459
O17	O	-0.702030	1.247973	0.580909
C18	C	-0.510479	1.069114	0.509870
C19	C	-0.496179	0.968844	0.495618
C20	C	-0.646158	0.686154	0.645087
C21	C	-0.659600	0.780362	0.658476
C22	C	-0.618746	0.827487	0.617763
C23	C	-0.564448	0.780395	0.563658
C24	C	-0.551010	0.686177	0.550265
C25	C	-0.523597	0.827511	0.522940
C26	C	-0.469300	0.780419	0.468836
C27	C	-0.455863	0.686210	0.455445
C28	C	-0.496717	0.639085	0.496158
C29	C	-0.537035	0.921728	0.536334
C30	C	-0.441887	0.921752	0.441511
C31	C	-0.428446	0.827544	0.428122
C32	C	-0.736885	1.303386	0.543197
C33	C	-0.819435	1.303422	0.543222
C34	C	-1.010322	1.243220	0.584243
C35	C	-1.056601	1.221254	0.513352
C36	C	-0.970578	1.303511	0.543244
C37	C	-1.071387	1.325521	0.614149
C38	C	-1.116575	1.303595	0.543271
C39	C	-1.015765	1.281502	0.472311
C40	C	-1.030551	1.385807	0.573160
C41	C	-1.076813	1.363872	0.502226
C42	C	-0.886473	1.303460	0.543229
C43	C	-1.200679	1.303646	0.543279
C44	C	-0.350261	1.303629	0.543273
C45	C	-0.267724	1.303686	0.543293
C46	C	-0.543967	1.303479	0.736928
C47	C	-0.543975	1.303472	0.819473
C48	C	-0.577548	1.538792	0.576711
C49	C	-0.591866	1.639062	0.590981
C50	C	-0.584962	1.243166	1.059709
C51	C	-0.514067	1.221145	1.007184
C52	C	-0.543952	1.303464	1.116592
C53	C	-0.614848	1.325446	1.022030
C54	C	-0.543967	1.303465	0.970607
C55	C	-0.473015	1.281400	1.065148
C56	C	-0.573848	1.385740	1.080004
C57	C	-0.502910	1.363750	1.027506
C58	C	-0.543944	1.303460	1.200690
C59	C	-0.543967	1.303469	0.886511
C60	C	-0.543946	1.303492	1.350272
C61	C	-0.543943	1.303460	1.267722
H62	H	-0.679420	0.647776	0.678226
H63	H	-0.991518	1.262839	0.412330
H64	H	-1.018703	1.455347	0.598471
O65	O	-0.456919	1.431296	1.008586
H66	H	-0.493227	1.482780	0.982072
O67	O	-0.607366	1.477859	1.121915
H68	H	-0.666245	1.495949	1.104757
H69	H	-0.619578	1.192134	1.074121
O70	O	-1.114944	1.431462	0.456260
H71	H	-1.092443	1.413015	0.397463
H72	H	-0.703810	0.818698	0.702526
O73	O	-1.072275	1.129119	0.479839
H74	H	-1.045417	1.079155	0.513954
H75	H	-0.485775	0.562373	0.485261
O76	O	-1.103607	1.350144	0.693564
H77	H	-1.076709	1.299954	0.727457
O78	O	-0.595583	0.972521	0.594695
H79	H	-0.651267	0.954412	0.579294
O80	O	-0.480586	1.128991	0.965301
H81	H	-0.514721	1.079057	0.977952
O82	O	-0.694258	1.350086	0.996799
H83	H	-0.728172	1.299933	1.009441
H84	H	-0.413037	1.262728	1.084094
H85	H	-0.981398	1.192159	0.618844
H86	H	-0.629692	0.904196	0.628667
H87	H	-0.408621	0.960121	0.408357
H88	H	-0.411659	0.647870	0.411382
H89	H	-0.384236	0.789188	0.384070
