data_functionalizedCrystal
_audit_creation_method	'MofGen! by Chris Wilmer'
_symmetry_space_group_name_H-M	'P1'
_symmetry_Int_Tables_number	1
_symmetry_cell_setting	triclinic
loop_
_symmetry_equiv_pos_as_xyz
  x,y,z
_cell_length_a	19.077236
_cell_length_b	12.645330
_cell_length_c	19.076919
_cell_angle_alpha	87.723750
_cell_angle_beta	90.112677
_cell_angle_gamma	92.310660
loop_
_atom_site_label
_atom_site_type_symbol
_atom_site_fract_x
_atom_site_fract_y
_atom_site_fract_z
Zn1	Zn	1.058321	-0.384817	0.440563
Zn2	Zn	1.062974	-0.554705	0.323065
Zn3	Zn	0.945536	-0.384261	0.318343
Zn4	Zn	0.940794	-0.568848	0.435804
O5	O	1.001906	-0.473158	0.379444
O6	O	1.157271	-0.401667	0.428944
O7	O	1.051327	-0.525944	0.224108
O8	O	0.960535	-0.235987	0.334570
O9	O	1.160690	-0.526483	0.342619
O10	O	1.043397	-0.236395	0.424365
O11	O	0.965046	-0.400720	0.220638
O12	O	0.846574	-0.414433	0.329956
O13	O	0.952452	-0.550587	0.534766
O14	O	0.843090	-0.550048	0.416255
O15	O	1.038799	-0.415381	0.538263
O16	O	1.046729	-0.704930	0.338005
O17	O	0.956964	-0.715320	0.420834
C18	C	0.819335	-0.483716	0.372077
C19	C	0.741230	-0.488259	0.368942
C20	C	0.702754	-0.425521	0.412483
C21	C	0.629366	-0.429784	0.409531
C22	C	0.594455	-0.496793	0.363042
C23	C	0.632936	-0.559534	0.319497
C24	C	0.706323	-0.555264	0.322445
C25	C	0.375163	-0.516514	0.349394
C26	C	0.301771	-0.520781	0.346450
C27	C	0.298205	-0.391030	0.436484
C28	C	0.371594	-0.386771	0.439432
C29	C	0.410069	-0.449508	0.395884
N30	N	0.519440	-0.501155	0.360026
N31	N	0.485082	-0.445139	0.398897
C32	C	1.001855	-0.748590	0.379432
C33	C	1.001897	-0.866419	0.379453
C34	C	0.945643	-1.040561	0.431737
C35	C	0.945373	-0.918007	0.431551
C36	C	0.984830	-0.907508	0.304593
C37	C	0.984487	-1.030146	0.304910
C38	C	1.075572	-1.030391	0.401442
C39	C	1.075051	-0.907913	0.403042
C40	C	1.185190	-0.462559	0.386839
C41	C	1.263295	-0.458043	0.389991
C42	C	0.994577	-0.484624	0.562724
C43	C	0.991454	-0.489510	0.640826
C44	C	1.001976	-0.196650	0.379472
C45	C	1.002005	-0.078819	0.379484
C46	C	1.009247	-0.461658	0.196878
C47	C	1.012506	-0.456465	0.118781
C48	C	1.034941	-0.421414	0.679341
C49	C	1.031998	-0.426001	0.752726
C50	C	0.985571	-0.498690	0.787597
C51	C	0.942080	-0.566789	0.749077
C52	C	0.945020	-0.562196	0.675693
C53	C	0.971955	-0.519971	1.006877
C54	C	0.969020	-0.524562	1.080267
C55	C	1.058937	-0.383771	1.083911
C56	C	1.061875	-0.379189	1.010525
C57	C	1.018382	-0.447284	0.972012
N58	N	0.982564	-0.503383	0.862609
N59	N	1.021386	-0.442585	0.897001
H60	H	0.273349	-0.575353	0.308593
H61	H	1.117527	-1.054542	0.363420
H62	H	0.737649	-0.606351	0.286989
C63	C	0.911957	-1.071801	0.280256
C64	C	0.884798	-1.038881	0.206842
C65	C	0.812264	-1.080529	0.182190
C66	C	0.766891	-1.155097	0.230951
C67	C	0.794049	-1.188021	0.304369
C68	C	0.866582	-1.146373	0.329022
H69	H	0.918387	-0.983677	0.170742
H70	H	0.792160	-1.056156	0.127840
H71	H	0.713197	-1.185927	0.212702
H72	H	0.760460	-1.243224	0.340470
H73	H	0.886686	-1.170746	0.383371
H74	H	1.072748	-0.362225	0.650955
H75	H	1.067411	-0.370552	0.784082
H76	H	0.891382	-1.073853	0.417128
C77	C	0.959286	-0.880958	0.506419
C78	C	0.970723	-0.962942	0.566795
C79	C	0.984612	-0.925901	0.641671
C80	C	0.987065	-0.806876	0.656172
C81	C	0.975627	-0.724885	0.595794
C82	C	0.961738	-0.761926	0.520918
H83	H	0.968908	-1.051057	0.556063
H84	H	0.993079	-0.986597	0.686367
H85	H	0.997347	-0.779457	0.711600
H86	H	0.977442	-0.636769	0.606527
H87	H	0.953271	-0.701230	0.476222
H88	H	0.731173	-0.370958	0.450341
C89	C	0.891016	-0.646765	0.787426
C90	C	0.811538	-0.642119	0.774111
C91	C	0.760477	-0.722106	0.812456
C92	C	0.788895	-0.806739	0.864116
C93	C	0.868377	-0.811388	0.877434
C94	C	0.919438	-0.731401	0.839089
H95	H	0.790498	-0.579466	0.735867
H96	H	0.701639	-0.718664	0.802597
H97	H	0.751097	-0.865950	0.892501
H98	H	0.889417	-0.874041	0.915678
H99	H	0.978276	-0.734843	0.848948
C100	C	1.134442	-0.860136	0.355654
C101	C	1.117478	-0.782254	0.294435
C102	C	1.176864	-0.734515	0.247020
C103	C	1.253213	-0.764658	0.260824
C104	C	1.270180	-0.842544	0.322045
C105	C	1.210794	-0.890283	0.369460
H106	H	1.060957	-0.759937	0.284215
H107	H	1.164303	-0.676858	0.201700
H108	H	1.297173	-0.729318	0.225724
H109	H	1.326701	-0.864861	0.332265
H110	H	1.223355	-0.947939	0.414780
C111	C	0.917945	-0.604521	1.118626
C112	C	0.914717	-0.609576	1.199346
C113	C	0.863647	-0.689532	1.237706
C114	C	0.815803	-0.764433	1.195345
C115	C	0.819029	-0.759381	1.114620
C116	C	0.870100	-0.679425	1.076261
H117	H	0.950135	-0.554127	1.230709
H118	H	0.861259	-0.693271	1.297464
H119	H	0.777998	-0.823621	1.223741
H120	H	0.783611	-0.814829	1.083258
H121	H	0.872487	-0.675685	1.016502
C122	C	0.959434	-1.084001	0.506840
C123	C	1.022040	-1.154749	0.521645
C124	C	1.035835	-1.198192	0.596751
C125	C	0.987023	-1.170887	0.657053
C126	C	0.924412	-1.100136	0.642250
C127	C	0.910617	-1.056693	0.567143
H128	H	1.058178	-1.174965	0.477005
H129	H	1.082184	-1.250567	0.607709
H130	H	0.997234	-1.203047	0.712651
H131	H	0.888274	-1.079920	0.686890
H132	H	0.864268	-1.004318	0.556185
C133	C	0.417476	-0.585533	0.301496
C134	C	0.470121	-0.533093	0.248398
C135	C	0.512436	-0.602117	0.200497
C136	C	0.502105	-0.723581	0.205694
C137	C	0.449458	-0.776027	0.258794
C138	C	0.407143	-0.707003	0.306695
H139	H	0.477771	-0.443172	0.244549
H140	H	0.551409	-0.563292	0.161189
H141	H	0.533429	-0.774677	0.170235
H142	H	0.441808	-0.865948	0.262642
H143	H	0.368169	-0.745828	0.346003
H144	H	1.023919	-1.054973	0.264489
H145	H	0.936549	-0.575434	0.975529
H146	H	1.099683	-0.320000	0.982139
C147	C	0.871617	-0.881744	0.411570
C148	C	0.856696	-0.762883	0.407425
C149	C	0.782938	-0.726621	0.387439
C150	C	0.724101	-0.809221	0.371599
C151	C	0.739020	-0.928090	0.375745
C152	C	0.812779	-0.964352	0.395730
H153	H	0.900252	-0.701731	0.419151
H154	H	0.771894	-0.638626	0.384371
H155	H	0.669500	-0.782378	0.356805
H156	H	0.695464	-0.989242	0.364019
H157	H	0.823823	-1.052347	0.398799
H158	H	0.909602	-0.617637	0.644335
C159	C	1.106771	-0.308862	1.126276
C160	C	1.103540	-0.313903	1.206996
C161	C	1.151375	-0.238986	1.249361
C162	C	1.202441	-0.159028	1.211005
C163	C	1.205674	-0.153983	1.130281
C164	C	1.157839	-0.228900	1.087916
H165	H	1.065736	-0.373096	1.235394
H166	H	1.148981	-0.242721	1.309119
H167	H	1.237851	-0.103569	1.242366
H168	H	1.243478	-0.094790	1.101884
H169	H	1.160233	-0.225165	1.028158
H170	H	0.598041	-0.378698	0.444988
C171	C	1.038702	-0.861577	0.250377
C172	C	1.014251	-0.793411	0.186965
C173	C	1.068124	-0.747477	0.132751
C174	C	1.146448	-0.769710	0.141949
C175	C	1.170903	-0.837880	0.205364
C176	C	1.117030	-0.883813	0.259578
H177	H	0.956268	-0.776949	0.180153
H178	H	1.050020	-0.697013	0.085806
H179	H	1.186327	-0.735707	0.101817
H180	H	1.228886	-0.854341	0.212176
H181	H	1.135134	-0.934277	0.306523
H182	H	0.604506	-0.614088	0.281641
H183	H	0.400013	-0.332210	0.477290
H184	H	0.266871	-0.339952	0.471938
H185	H	0.931719	-0.878981	0.286071
H186	H	1.091723	-1.063521	0.455259
H187	H	1.087975	-0.881321	0.458150
