data_functionalizedCrystal
_audit_creation_method	'MofGen! by Chris Wilmer'
_symmetry_space_group_name_H-M	'P1'
_symmetry_Int_Tables_number	1
_symmetry_cell_setting	triclinic
loop_
_symmetry_equiv_pos_as_xyz
  x,y,z
_cell_length_a	13.032721
_cell_length_b	13.032831
_cell_length_c	11.169409
_cell_angle_alpha	82.804574
_cell_angle_beta	97.146003
_cell_angle_gamma	90.902885
loop_
_atom_site_label
_atom_site_type_symbol
_atom_site_fract_x
_atom_site_fract_y
_atom_site_fract_z
Zn1	Zn	-0.609291	1.520321	-0.988812
Zn2	Zn	-0.109291	2.020321	-0.488812
Zn3	Zn	-0.781285	1.498349	-0.809996
Zn4	Zn	-0.281285	1.998349	-0.309996
Zn5	Zn	-0.587479	1.348321	-0.759912
Zn6	Zn	-0.087479	1.848321	-0.259912
Zn7	Zn	-0.759339	1.326469	-0.982404
Zn8	Zn	-0.259339	1.826469	-0.482404
O9	O	-0.684348	1.423365	-0.885281
O10	O	-0.184348	1.923365	-0.385281
O11	O	-0.650420	1.661321	-0.988734
O12	O	-0.150420	2.161321	-0.488734
O13	O	-0.755632	1.478397	-0.635403
O14	O	-0.255632	1.978397	-0.135403
O15	O	-0.446468	1.389478	-0.771997
O16	O	0.053532	1.889478	-0.271997
O17	O	-0.776783	1.645178	-0.857358
O18	O	-0.276783	2.145178	-0.357358
O19	O	-0.462494	1.515845	-0.940169
O20	O	0.037506	2.015845	-0.440169
O21	O	-0.613243	1.368172	-0.598607
O22	O	-0.113243	1.868172	-0.098607
O23	O	-0.591963	1.201507	-0.765784
O24	O	-0.091963	1.701507	-0.265784
O25	O	-0.739379	1.352234	-1.151203
O26	O	-0.239379	1.852234	-0.651203
O27	O	-0.718228	1.185452	-0.929248
O28	O	-0.218228	1.685452	-0.429248
O29	O	-0.629139	1.494656	-1.155911
O30	O	-0.129139	1.994656	-0.655911
O31	O	-0.922277	1.457208	-0.851145
O32	O	-0.422277	1.957208	-0.351145
O33	O	-0.906154	1.330928	-0.977813
O34	O	-0.406154	1.830928	-0.477813
C35	C	-0.650348	1.156164	-0.841387
C36	C	-0.150348	1.656164	-0.341387
C37	C	-0.635827	1.041851	-0.822640
C38	C	-0.135827	1.541851	-0.322640
C39	C	-0.691927	0.982958	-0.895065
C40	C	-0.191927	1.482958	-0.395065
C41	C	-0.676920	0.864810	-0.875691
C42	C	-0.176920	1.364810	-0.375691
C43	C	-0.951532	1.389340	-0.919249
C44	C	-0.451532	1.889340	-0.419249
C45	C	-1.065846	1.374879	-0.933836
C46	C	-0.565846	1.874879	-0.433836
C47	C	-1.124761	1.430967	-0.877731
C48	C	-0.624761	1.930967	-0.377731
C49	C	-1.242911	1.416022	-0.892806
C50	C	-0.742911	1.916022	-0.392806
C51	C	-0.416125	1.457550	-0.851211
C52	C	0.083875	1.957550	-0.351211
C53	C	-0.301824	1.472118	-0.836693
C54	C	0.198176	1.972118	-0.336693
C55	C	-0.684244	1.423458	-1.198322
C56	C	-0.184244	1.923458	-0.698322
C57	C	-0.684200	1.423498	-1.331722
C58	C	-0.184200	1.923498	-0.831722
C59	C	-0.718482	1.691609	-0.929348
C60	C	-0.218482	2.191609	-0.429348
C61	C	-0.733028	1.805918	-0.948126
C62	C	-0.233028	2.305918	-0.448126
C63	C	-0.684385	1.423340	-0.573458
C64	C	-0.184385	1.923340	-0.073458
C65	C	-0.684165	1.423536	-0.440055
C66	C	-0.184165	1.923536	0.059945
H67	H	-0.792165	0.842961	-1.024486
H68	H	-0.292165	1.342961	-0.524486
H69	H	-0.751062	1.020007	-0.971417
H70	H	-0.251062	1.520007	-0.471417
C71	C	-1.252267	1.550817	-0.757756
C72	C	-0.752267	2.050817	-0.257756
C73	C	-1.144930	1.549972	-0.758459
C74	C	-0.644930	2.049972	-0.258459
C75	C	-1.099243	1.622444	-0.685745
C76	C	-0.599243	2.122444	-0.185745
H77	H	-1.278420	1.617772	-0.788862
H78	H	-0.778420	2.117772	-0.288862
H79	H	-1.267921	1.533582	-0.676834
H80	H	-0.767921	2.033582	-0.176834
H81	H	-1.129283	1.567214	-0.839365
H82	H	-0.629283	2.067214	-0.339365
H83	H	-1.118748	1.483035	-0.727343
H84	H	-0.618748	1.983035	-0.227343
H85	H	-1.114897	1.605208	-0.604822
H86	H	-0.614897	2.105208	-0.104822
H87	H	-1.125403	1.689393	-0.716857
H88	H	-0.625403	2.189393	-0.216857
H89	H	-1.026409	1.621873	-0.686203
H90	H	-0.526409	2.121873	-0.186203
H91	H	-1.102877	1.315799	-0.993037
H92	H	-0.602877	1.815799	-0.493037
C93	C	-1.292461	1.337249	-0.971644
C94	C	-0.792461	1.837249	-0.471644
C95	C	-1.399794	1.338062	-0.970892
C96	C	-0.899794	1.838062	-0.470892
C97	C	-1.445473	1.265504	-1.043489
C98	C	-0.945473	1.765504	-0.543489
H99	H	-1.276861	1.354396	-1.052585
H100	H	-0.776861	1.854396	-0.552585
H101	H	-1.266249	1.270322	-0.940441
H102	H	-0.766249	1.770322	-0.440441
H103	H	-1.425997	1.404974	-1.002100
H104	H	-0.925997	1.904974	-0.502100
H105	H	-1.415424	1.320903	-0.889970
H106	H	-0.915424	1.820903	-0.389970
H107	H	-1.419261	1.198576	-1.012286
H108	H	-0.919261	1.698576	-0.512286
H109	H	-1.429866	1.282657	-1.124425
H110	H	-0.929866	1.782657	-0.624425
H111	H	-1.518302	1.266038	-1.042979
H112	H	-1.018302	1.766038	-0.542979
H113	H	-0.617773	0.827767	-0.799342
H114	H	-0.117773	1.327767	-0.299342
C115	C	-0.557070	0.992262	-0.720850
C116	C	-0.057070	1.492262	-0.220850
C117	C	-0.557876	0.884930	-0.721837
C118	C	-0.057876	1.384930	-0.221837
C119	C	-0.485353	0.839216	-0.628068
C120	C	0.014647	1.339216	-0.128068
H121	H	-0.490143	1.018489	-0.732502
H122	H	0.009857	1.518489	-0.232502
H123	H	-0.574269	1.007820	-0.644911
H124	H	-0.074269	1.507820	-0.144911
H125	H	-0.540671	0.869380	-0.797758
H126	H	-0.040671	1.369380	-0.297758
H127	H	-0.624786	0.858675	-0.710170
H128	H	-0.124786	1.358675	-0.210170
H129	H	-0.502552	0.854774	-0.552129
H130	H	-0.002552	1.354774	-0.052129
H131	H	-0.418431	0.865451	-0.639728
H132	H	0.081569	1.365451	-0.139728
H133	H	-0.485897	0.766387	-0.628718
H134	H	0.014103	1.266387	-0.128718
H135	H	-1.087734	1.490056	-0.818541
H136	H	-0.587734	1.990056	-0.318541
