data_functionalizedCrystal
_audit_creation_method	'MofGen! by Chris Wilmer'
_symmetry_space_group_name_H-M	'P1'
_symmetry_Int_Tables_number	1
_symmetry_cell_setting	triclinic
loop_
_symmetry_equiv_pos_as_xyz
  x,y,z
_cell_length_a	20.875625
_cell_length_b	14.560438
_cell_length_c	20.875641
_cell_angle_alpha	57.589171
_cell_angle_beta	92.966338
_cell_angle_gamma	61.744481
loop_
_atom_site_label
_atom_site_type_symbol
_atom_site_fract_x
_atom_site_fract_y
_atom_site_fract_z
Zr1	Zr	-0.060758	0.938215	0.638203
O2	O	-0.167289	1.141594	0.526138
O3	O	-0.028102	0.743003	0.672556
O4	O	-0.162186	0.935367	0.665331
O5	O	0.072565	0.948628	0.539065
O6	O	-0.158159	0.923829	0.775128
O7	O	-0.033205	0.949230	0.533364
O8	O	0.081692	0.579726	0.788054
O9	O	-0.167287	1.292732	0.526139
O10	O	-0.011168	0.811661	0.769149
O11	O	0.064762	0.819822	0.691462
O12	O	-0.093105	1.046305	0.682955
O13	O	-0.017175	1.054467	0.605268
Zr14	Zr	0.114355	0.918854	0.822409
Zr15	Zr	-0.054335	0.919813	0.813317
Zr16	Zr	0.107932	0.937255	0.647294
Zr17	Zr	-0.060755	1.179262	0.638203
Zr18	Zr	0.114352	0.677806	0.822408
O19	O	0.081699	1.114065	0.788055
O20	O	-0.158156	1.115430	0.775128
O21	O	0.072567	1.140229	0.539065
O22	O	0.220885	0.715475	0.934473
O23	O	-0.018970	0.716839	0.921546
O24	O	0.211753	0.741639	0.685483
O25	O	-0.018968	0.908440	0.921547
O26	O	0.215783	0.921702	0.795281
O27	O	0.211756	0.933239	0.685484
O28	O	0.086802	0.907838	0.927247
O29	O	-0.162182	1.278105	0.665331
O30	O	0.215778	0.578963	0.795280
O31	O	0.220883	0.564337	0.934473
O32	O	0.086797	0.565100	0.927246
O33	O	-0.033200	1.291969	0.533365
O34	O	-0.028095	1.277342	0.672558
O35	O	0.146701	0.810763	0.777657
O36	O	0.070772	0.802602	0.855343
O37	O	-0.011165	1.037246	0.769149
O38	O	0.064765	1.045407	0.691463
C39	C	0.026794	0.627020	0.730305
C40	C	0.026793	0.524689	0.730305
C41	C	-0.012841	0.472353	0.770855
C42	C	-0.012834	0.376194	0.770858
C43	C	0.066443	0.384719	0.689756
C44	C	0.066440	0.480870	0.689758
C45	C	-0.184207	0.929735	0.718934
C46	C	-0.255821	0.930142	0.715074
C47	C	-0.287246	0.923979	0.773749
C48	C	-0.354531	0.924350	0.770125
C49	C	-0.390391	0.930894	0.707822
C50	C	-0.358960	0.937054	0.649144
C51	C	-0.291673	0.936673	0.652773
C52	C	-0.591865	0.932705	0.690488
C53	C	-0.659157	0.933090	0.686862
C54	C	-0.654722	0.920383	0.807844
C55	C	-0.587437	0.920011	0.811464
C56	C	-0.556009	0.926164	0.752789
N57	N	-0.459168	0.931278	0.704115
N58	N	-0.487230	0.925770	0.756501
C59	C	0.237804	0.927334	0.741678
C60	C	0.309417	0.926926	0.745537
C61	C	0.018765	0.951551	0.511265
C62	C	0.016038	0.959363	0.436924
C63	C	0.026802	1.230048	0.730306
C64	C	0.026804	1.332379	0.730307
C65	C	0.057523	0.840554	0.446989
C66	C	0.054960	0.847902	0.377135
C67	C	0.010906	0.974060	0.297217
C68	C	-0.030581	1.092878	0.287154
C69	C	-0.028012	1.085528	0.357007
C70	C	-0.001359	1.009174	0.083478
C71	C	-0.003926	1.016514	0.013623
C72	C	0.081615	0.771538	0.103609
C73	C	0.084176	0.764200	0.173459
C74	C	0.042693	0.883017	0.163391
N75	N	0.008282	0.981574	0.225814
N76	N	0.045322	0.875502	0.234793
C77	C	0.034832	0.905517	0.949347
C78	C	0.037559	0.897706	1.023688
C79	C	0.034828	0.604004	0.949346
C80	C	0.037553	0.493861	1.023687
C81	C	0.237800	0.625820	0.741677
C82	C	0.309412	0.523082	0.745536
C83	C	0.245834	0.602803	0.960718
C84	C	0.320172	0.492253	1.038918
C85	C	-0.192237	1.254265	0.499893
C86	C	-0.266576	1.364815	0.421693
C87	C	0.018769	1.253065	0.511265
C88	C	0.016043	1.363208	0.436925
C89	C	-0.184203	1.231248	0.718935
C90	C	-0.255815	1.333987	0.715075
C91	C	-0.003946	0.446866	1.013605
C92	C	-0.001401	0.343389	1.083448
C93	C	0.042648	0.286903	1.163372
C94	C	0.084148	0.333908	1.173453
C95	C	0.081598	0.437389	1.103610
C96	C	0.385821	0.470106	0.792342
C97	C	0.453114	0.373586	0.795965
C98	C	0.443998	0.330037	0.752787
C99	C	0.367581	0.383023	0.705976
C100	C	0.300289	0.479548	0.702348
C101	C	0.315449	0.436077	1.116200
C102	C	0.385291	0.332216	1.189684
C103	C	0.459857	0.284527	1.185883
C104	C	0.464579	0.340713	1.108592
C105	C	0.394737	0.444579	1.035111
C106	C	-0.261852	1.421003	0.344411
C107	C	-0.331695	1.524894	0.270928
C108	C	-0.406260	1.572588	0.274728
C109	C	-0.410982	1.516395	0.352019
C110	C	-0.341140	1.412513	0.425501
C111	C	0.057535	1.410213	0.447006
C112	C	0.054972	1.513716	0.377162
C113	C	0.010921	1.570206	0.297238
C114	C	-0.030576	1.523196	0.287157
C115	C	-0.028017	1.419701	0.357000
C116	C	-0.246673	1.377504	0.758263
C117	C	-0.313953	1.474024	0.754653
C118	C	-0.390375	1.527030	0.707850
C119	C	-0.399516	1.483503	0.664662
C120	C	-0.332236	1.386979	0.668277
H121	H	0.098719	0.523481	0.656737
O122	O	-0.688612	0.913731	0.871134
H123	H	-0.741421	0.915082	0.858152
H124	H	-0.258055	0.918658	0.824480
O125	O	0.535185	0.172481	1.265142
H126	H	0.536487	0.205506	1.302027
H127	H	-0.061803	1.381434	0.348780
H128	H	0.008844	1.654477	0.240374
H129	H	-0.035196	0.305131	1.075224
H130	H	-0.039804	1.119253	-0.051452
H131	H	-0.066441	1.569206	0.222073
O132	O	-0.481589	1.684632	0.195470
H133	H	-0.517110	1.772445	0.193599
O134	O	-0.481944	1.540693	0.614173
H135	H	-0.527185	1.615136	0.618911
H136	H	-0.045107	0.333582	0.803879
O137	O	-0.164253	1.320343	0.808752
H138	H	-0.118996	1.245915	0.804014
H139	H	0.044718	0.202641	1.220236
H140	H	-0.306495	1.509453	0.789822
H141	H	0.120011	0.287902	1.238537
O142	O	0.545006	0.289266	1.104498
H143	H	0.550607	0.248982	1.070953
O144	O	-0.388441	0.917739	0.833396
H145	H	-0.352210	0.913154	0.877317
O146	O	0.399836	0.505140	0.951756
H147	H	0.463422	0.454506	0.961467
H148	H	0.254740	0.474889	1.119311
O149	O	-0.181431	1.369580	0.340302
H150	H	-0.189893	1.426130	0.274211
H151	H	-0.471702	1.555241	0.355104
H152	H	0.498798	0.251439	0.755748
H153	H	0.381433	0.286479	1.252610
O154	O	-0.055598	0.519603	0.814594
H155	H	-0.102730	0.630461	0.768956
H156	H	-0.327834	1.570630	0.208002
H157	H	0.088743	0.751155	0.385337
H158	H	-0.566282	0.937719	0.642711
O159	O	0.126362	0.643388	0.114470
H160	H	0.117182	0.669686	0.052473
O161	O	0.109193	0.337475	0.646011
H162	H	0.102529	0.261835	0.652813
O163	O	-0.462940	1.631157	0.703942
H164	H	-0.443736	1.652518	0.741830
O165	O	-0.346239	1.351895	0.508856
H166	H	-0.409825	1.402509	0.499145
O167	O	0.105037	1.349314	0.533207
H168	H	0.133443	1.399419	0.528469
H169	H	0.088768	1.551973	0.385386
H170	H	-0.339691	1.351558	0.633104
O171	O	0.217881	0.536489	0.651995
H172	H	0.222857	0.489906	0.622636
O173	O	-0.548752	0.912936	0.878668
H174	H	-0.581904	0.908698	0.918866
O175	O	-0.078096	1.228954	0.200959
H176	H	-0.141680	1.286526	0.190455
O177	O	-0.697839	0.940136	0.619667
H178	H	-0.654011	0.851513	0.625011
O179	O	-0.397639	0.944128	0.581938
H180	H	-0.396432	0.853034	0.611025
O181	O	-0.257777	0.943330	0.589485
H182	H	-0.294021	0.947959	0.545547
H183	H	0.093400	0.737822	0.512058
H184	H	0.120034	0.661468	0.238528
H185	H	-0.039825	0.492855	0.948532
H186	H	-0.035151	1.105924	0.075268
H187	H	-0.061784	1.182275	0.348807
H188	H	0.393259	0.505552	0.827503
O189	O	0.126374	0.488055	1.114489
H190	H	0.157437	0.431371	1.181802
H191	H	0.360170	0.347550	0.670822
O192	O	0.535530	0.316424	0.846470
H193	H	0.530558	0.362905	0.875898
