data_functionalizedCrystal
_audit_creation_method	'MofGen! by Chris Wilmer'
_symmetry_space_group_name_H-M	'P1'
_symmetry_Int_Tables_number	1
_symmetry_cell_setting	triclinic
loop_
_symmetry_equiv_pos_as_xyz
  x,y,z
_cell_length_a	11.792241
_cell_length_b	10.654545
_cell_length_c	9.730223
_cell_angle_alpha	90.003032
_cell_angle_beta	90.003123
_cell_angle_gamma	84.338247
loop_
_atom_site_label
_atom_site_type_symbol
_atom_site_fract_x
_atom_site_fract_y
_atom_site_fract_z
O1	O	0.159393	1.667392	0.114277
O2	O	0.174587	1.301870	0.114283
O3	O	0.001840	1.493501	0.114270
O4	O	0.332140	1.475761	0.114290
O5	O	0.001840	1.493488	-0.114310
O6	O	0.174587	1.301856	-0.114297
O7	O	0.159393	1.667378	-0.114303
Zn8	Zn	0.166990	1.484615	-0.150592
Zn9	Zn	0.166990	1.484633	0.150572
O10	O	0.332140	1.475747	-0.114290
C11	C	0.173472	1.255068	-0.000007
C12	C	0.170138	1.115634	-0.000005
C13	C	0.168568	1.050127	-0.124604
C14	C	0.165416	0.919116	-0.124605
C15	C	0.165408	0.919131	0.124606
C16	C	0.168552	1.050141	0.124604
C17	C	-0.040454	1.492380	-0.000020
C18	C	-0.166475	1.489045	-0.000018
C19	C	-0.397202	1.482911	0.000005
C20	C	-0.268809	1.486319	-0.000008
C21	C	0.374433	1.476868	0.000002
C22	C	0.500455	1.480204	0.000010
C23	C	0.160507	1.714180	-0.000011
C24	C	0.163842	1.853614	-0.000004
N25	N	0.166989	1.484612	-0.356129
C26	C	0.236470	1.561247	-0.428046
C27	C	0.236464	1.561268	-0.571929
C28	C	0.097493	1.408008	-0.571964
C29	C	0.097494	1.407995	-0.428084
N30	N	0.166981	1.484646	0.356108
H31	H	0.169827	1.103479	0.226075
Br32	Br	0.163222	0.830245	0.293710
H33	H	0.040914	1.345627	-0.630567
H34	H	0.293057	1.623634	-0.369465
Br35	Br	0.003191	1.303983	-0.330471
Br36	Br	0.170716	1.139008	-0.293716
Br37	Br	0.163284	0.830217	-0.293712
Br38	Br	0.330758	1.665283	-0.669528
