data_functionalizedCrystal
_audit_creation_method	'MofGen! by Chris Wilmer'
_symmetry_space_group_name_H-M	'P1'
_symmetry_Int_Tables_number	1
_symmetry_cell_setting	triclinic
loop_
_symmetry_equiv_pos_as_xyz
  x,y,z
_cell_length_a	6.817900
_cell_length_b	11.102244
_cell_length_c	12.200875
_cell_angle_alpha	92.492141
_cell_angle_beta	107.143593
_cell_angle_gamma	108.604870
loop_
_atom_site_label
_atom_site_type_symbol
_atom_site_fract_x
_atom_site_fract_y
_atom_site_fract_z
V1	V	-4.094463	-0.176127	-0.357658
O2	O	-4.053827	0.008167	-0.350853
O3	O	-4.071351	-0.348945	-0.355209
O4	O	-4.063804	-0.173548	-0.513646
O5	O	-4.061427	-0.168444	-0.191318
V6	V	-4.572516	-0.154068	-0.337763
O7	O	-4.367722	-0.224515	-0.401300
O8	O	-4.749455	-0.105680	-0.294121
O9	O	-4.372422	0.018750	-0.340212
O10	O	-4.730549	-0.338362	-0.344568
O11	O	-4.722949	-0.161751	-0.504102
O12	O	-4.379969	-0.156647	-0.181774
C13	C	-3.921929	-0.391070	-0.349566
C14	C	-3.984437	-0.532351	-0.348603
C15	C	-3.958643	-0.580501	-0.243107
C16	C	-4.017390	-0.713253	-0.242216
C17	C	-4.127717	-0.749694	-0.452326
C18	C	-4.068985	-0.616946	-0.453217
C19	C	-3.894938	-0.559462	-0.121801
C20	C	-3.953685	-0.692214	-0.120910
C21	C	-3.912301	-0.167333	-0.551667
C22	C	-3.968684	-0.166368	-0.679188
C23	C	-4.071873	-0.164602	-0.912663
C24	C	-4.014443	-0.165584	-0.782741
C25	C	-4.185186	0.060868	-0.345852
C26	C	-4.101917	0.202148	-0.346822
C27	C	-4.194814	-0.162867	-0.143748
C28	C	-4.117668	-0.163825	-0.016225
H29	H	-4.196561	-0.818587	-0.537499
H30	H	-3.711418	-0.506627	-0.079906
C31	C	-4.148190	-0.745954	-0.075796
H32	H	-4.194150	-0.678024	-0.056316
H33	H	-4.265811	-0.808819	-0.134352
H34	H	-4.104583	-0.784157	-0.008871
H35	H	-3.804107	-0.715191	-0.069707
C36	C	-4.097194	-0.563973	-0.569254
H37	H	-4.050069	-0.472795	-0.554803
H38	H	-4.011880	-0.589100	-0.608552
H39	H	-4.247009	-0.597327	-0.615989
H40	H	-3.995598	-0.520333	-0.079856
