data_functionalizedCrystal
_audit_creation_method	'MofGen! by Chris Wilmer'
_symmetry_space_group_name_H-M	'P1'
_symmetry_Int_Tables_number	1
_symmetry_cell_setting	triclinic
loop_
_symmetry_equiv_pos_as_xyz
  x,y,z
_cell_length_a	10.654550
_cell_length_b	10.654550
_cell_length_c	9.130313
_cell_angle_alpha	89.996647
_cell_angle_beta	89.999724
_cell_angle_gamma	84.484917
loop_
_atom_site_label
_atom_site_type_symbol
_atom_site_fract_x
_atom_site_fract_y
_atom_site_fract_z
O1	O	1.667839	0.176399	-0.121686
O2	O	1.302361	0.193205	-0.121712
O3	O	1.493503	0.002063	-0.121693
O4	O	1.476697	0.367541	-0.121705
O5	O	1.493490	0.002057	0.121906
O6	O	1.302348	0.193199	0.121886
O7	O	1.667826	0.176393	0.121913
Cu8	Cu	1.485086	0.184796	0.144142
Cu9	Cu	1.485101	0.184802	-0.143942
O10	O	1.476684	0.367535	0.121894
C11	C	1.255556	0.191968	0.000084
C12	C	1.116113	0.188276	0.000073
C13	C	1.036627	0.300818	0.000074
C14	C	0.905607	0.297341	0.000100
C15	C	0.933570	0.068772	0.000118
C16	C	1.064588	0.072250	0.000103
C17	C	1.492263	-0.044738	0.000104
C18	C	1.488571	-0.184181	0.000099
C19	C	1.601112	-0.263667	0.000112
C20	C	1.597636	-0.394688	0.000101
C21	C	1.369066	-0.366725	0.000072
C22	C	1.372544	-0.235706	0.000072
C23	C	1.733075	-0.279813	0.000135
C24	C	1.729599	-0.410834	0.000125
C25	C	1.714631	0.177630	0.000114
C26	C	1.854074	0.181322	0.000114
C27	C	1.477924	0.414336	0.000093
C28	C	1.481616	0.553779	0.000089
N29	N	1.485084	0.184790	0.346765
N30	N	1.485113	0.184798	-0.346564
C31	C	1.569751	0.100188	0.423425
C32	C	1.569763	0.100189	0.576762
C33	C	1.400437	0.269404	0.576765
C34	C	1.400420	0.269396	0.423431
H35	H	0.840894	0.388984	0.000103
H36	H	1.638687	0.031295	0.361008
C37	C	1.241444	-0.423401	0.000042
H38	H	1.174917	-0.357293	0.000023
H39	H	1.235323	-0.473940	0.084983
H40	H	1.235350	-0.473918	-0.084924
H41	H	1.129309	-0.019401	0.000107
C42	C	1.662901	0.007132	0.661082
H43	H	1.713323	-0.043248	0.593458
H44	H	1.617285	-0.045573	0.720912
H45	H	1.715577	0.052811	0.720882
C46	C	1.307285	0.362466	0.339098
H47	H	1.256878	0.412868	0.406716
H48	H	1.254614	0.316796	0.279296
H49	H	1.352917	0.415168	0.279270
H50	H	0.891602	-0.025693	0.000151
H51	H	1.331508	0.338290	0.639201
C52	C	1.802797	-0.240138	-0.137569
H53	H	1.829101	-0.312729	-0.194211
H54	H	1.874457	-0.199357	-0.109249
H55	H	1.747828	-0.183862	-0.194217
H56	H	1.078574	0.395294	0.000061
C57	C	1.248749	-0.148276	0.000048
H58	H	1.179154	-0.197730	0.000046
H59	H	1.245365	-0.096579	-0.084899
H60	H	1.245344	-0.096591	0.085008
C61	C	1.789843	-0.231678	0.142218
H62	H	1.812722	-0.300907	0.205487
H63	H	1.729309	-0.174071	0.189420
H64	H	1.862540	-0.190376	0.119397
C65	C	1.784106	-0.472576	-0.141618
H66	H	1.810705	-0.409399	-0.204777
H67	H	1.721305	-0.515284	-0.189239
H68	H	1.854139	-0.531148	-0.118181
C69	C	1.796740	-0.467258	0.137849
H70	H	1.826700	-0.401553	0.194505
H71	H	1.865785	-0.525251	0.109550
H72	H	1.739135	-0.509765	0.194476
