data_functionalizedCrystal
_audit_creation_method	'MofGen! by Chris Wilmer'
_symmetry_space_group_name_H-M	'P1'
_symmetry_Int_Tables_number	1
_symmetry_cell_setting	triclinic
loop_
_symmetry_equiv_pos_as_xyz
  x,y,z
_cell_length_a	14.853566
_cell_length_b	14.853559
_cell_length_c	16.176319
_cell_angle_alpha	89.995393
_cell_angle_beta	89.995436
_cell_angle_gamma	83.632934
loop_
_atom_site_label
_atom_site_type_symbol
_atom_site_fract_x
_atom_site_fract_y
_atom_site_fract_z
O1	O	1.196365	0.117702	-0.068688
O2	O	0.933905	0.131724	-0.068701
O3	O	1.072150	-0.006517	-0.068693
O4	O	1.058121	0.255943	-0.068696
O5	O	1.072131	-0.006526	0.068800
O6	O	0.933886	0.131715	0.068792
O7	O	1.196346	0.117693	0.068805
Cu8	Cu	1.065115	0.124703	0.081353
Cu9	Cu	1.065137	0.124714	-0.081249
O10	O	1.058102	0.255934	0.068798
C11	C	0.900307	0.131085	0.000044
C12	C	0.800223	0.129181	0.000039
C13	C	0.377049	0.121135	-0.074894
C14	C	0.377050	0.121126	0.075006
C15	C	0.471084	0.122914	0.075004
C16	C	0.518105	0.123813	0.000051
C17	C	0.471092	0.122926	-0.074899
C18	C	0.518103	0.123811	0.149952
C19	C	0.612142	0.125599	0.149953
C20	C	0.659166	0.126492	0.074999
C21	C	0.612147	0.125604	0.000046
C22	C	0.659168	0.126503	-0.074906
C23	C	0.612152	0.125608	-0.149860
C24	C	0.518115	0.123819	-0.149853
C25	C	0.753203	0.128281	0.074991
C26	C	0.753210	0.128293	-0.074911
C27	C	1.071506	-0.040111	0.000052
C28	C	1.069605	-0.140195	0.000047
C29	C	1.061552	-0.563365	-0.074901
C30	C	1.061531	-0.563369	0.074999
C31	C	1.063325	-0.469336	0.075000
C32	C	1.064230	-0.422313	0.000049
C33	C	1.063343	-0.469323	-0.074902
C34	C	1.064203	-0.422318	0.149951
C35	C	1.065996	-0.328279	0.149954
C36	C	1.066908	-0.281255	0.075003
C37	C	1.066021	-0.328270	0.000048
C38	C	1.066927	-0.281247	-0.074903
C39	C	1.066047	-0.328262	-0.149859
C40	C	1.064255	-0.422299	-0.149854
C41	C	1.068700	-0.187218	0.074998
C42	C	1.068718	-0.187205	-0.074905
C43	C	1.229945	0.118332	0.000059
C44	C	1.330028	0.120236	0.000058
C45	C	1.058745	0.289528	0.000051
C46	C	1.060646	0.389612	0.000050
N47	N	1.065105	0.124695	0.195718
N48	N	1.065154	0.124714	-0.195614
C49	C	1.126339	0.063507	0.238986
C50	C	1.126343	0.063506	0.325533
C51	C	1.065118	0.124698	0.368811
C52	C	1.003878	0.185890	0.325537
C53	C	1.003870	0.185885	0.238992
C54	C	1.003909	0.185907	0.674565
C55	C	1.003924	0.185908	0.761117
C56	C	1.126382	0.063527	0.761107
C57	C	1.126374	0.063523	0.674561
C58	C	1.065131	0.124711	0.631295
C59	C	1.065126	0.124710	0.537451
C60	C	1.065127	0.124704	0.462653
H61	H	0.650415	0.126326	0.210985
H62	H	0.954007	0.235710	0.203764
O63	O	1.192371	-0.002497	0.192308
H64	H	1.234944	-0.045052	0.236939
H65	H	1.176203	0.013681	0.360761
O66	O	0.803927	0.129252	-0.155754
H67	H	0.838816	0.191462	-0.159346
H68	H	0.650448	0.126347	-0.210887
H69	H	1.060788	-0.601661	0.136021
H70	H	1.176247	0.013702	0.796343
O71	O	0.803915	0.129254	0.155823
H72	H	0.755420	0.128329	0.207942
O73	O	0.937899	0.251924	0.807801
H74	H	0.895312	0.294473	0.763176
O75	O	1.067013	-0.277538	-0.230697
H76	H	1.128070	-0.303539	-0.266641
H77	H	0.954045	0.235729	0.639345
H78	H	0.338765	0.120403	-0.135920
H79	H	0.479811	0.123084	0.210975
H80	H	0.954023	0.235711	0.360779
H81	H	1.063461	-0.460611	0.210972
H82	H	1.069460	-0.148926	-0.135940
H83	H	0.479826	0.123089	-0.210876
H84	H	1.063538	-0.460586	-0.210879
H85	H	1.060839	-0.601649	-0.135928
H86	H	1.066716	-0.290008	0.210988
O87	O	1.069654	-0.136506	0.155831
H88	H	1.068727	-0.185003	0.207949
O89	O	1.192402	-0.002489	0.627887
H90	H	1.182110	0.007790	0.560438
O91	O	0.326258	0.120811	0.155844
H92	H	0.252940	0.119653	0.143254
