data_functionalizedCrystal
_audit_creation_method	'MofGen! by Chris Wilmer'
_symmetry_space_group_name_H-M	'P1'
_symmetry_Int_Tables_number	1
_symmetry_cell_setting	triclinic
loop_
_symmetry_equiv_pos_as_xyz
  x,y,z
_cell_length_a	23.096457
_cell_length_b	12.477989
_cell_length_c	12.477989
_cell_angle_alpha	89.511470
_cell_angle_beta	64.369910
_cell_angle_gamma	64.370861
loop_
_atom_site_label
_atom_site_type_symbol
_atom_site_fract_x
_atom_site_fract_y
_atom_site_fract_z
Zr1	Zr	0.689592	-0.193111	0.984956
O2	O	0.788942	-0.345034	0.833030
O3	O	0.575377	-0.146544	1.031527
O4	O	0.682159	-0.358058	1.044548
O5	O	0.693206	0.033333	0.809741
O6	O	0.693206	-0.368325	1.211400
O7	O	0.682159	-0.133520	0.820009
O8	O	0.502191	0.010036	1.188108
O9	O	0.884221	-0.345028	0.833034
O10	O	0.636105	-0.134339	1.175912
O11	O	0.636105	-0.002156	1.043730
O12	O	0.761827	-0.251187	1.059061
O13	O	0.761827	-0.119005	0.926878
Zr14	Zr	0.724828	0.056626	1.234691
Zr15	Zr	0.707210	-0.209485	1.251067
Zr16	Zr	0.707210	0.073000	0.968581
Zr17	Zr	0.841550	-0.193100	0.984962
Zr18	Zr	0.572870	0.056615	1.234685
O19	O	0.839044	0.010059	1.188121
O20	O	0.813993	-0.368316	1.211405
O21	O	0.813993	0.033341	0.809746
O22	O	0.625478	0.208550	1.386618
O23	O	0.600427	-0.169826	1.409902
O24	O	0.600427	0.231832	1.008243
O25	O	0.721214	-0.169817	1.409906
O26	O	0.732261	0.221574	1.175100
O27	O	0.721214	0.231840	1.008247
O28	O	0.732261	-0.002964	1.399639
O29	O	0.898225	-0.358043	1.044556
O30	O	0.516195	0.221558	1.175091
O31	O	0.530200	0.208543	1.386614
O32	O	0.516195	-0.002980	1.399630
O33	O	0.898225	-0.133505	0.820018
O34	O	0.912229	-0.146520	1.031540
O35	O	0.652593	0.114702	1.160587
O36	O	0.652593	-0.017480	1.292770
O37	O	0.778316	-0.134328	1.175918
O38	O	0.778315	-0.002146	1.043735
C39	C	0.517133	-0.068256	1.109816
C40	C	0.452623	-0.068260	1.109814
C41	C	0.685172	-0.047761	0.776960
C42	C	0.677693	-0.040809	0.663989
C43	C	0.729248	0.264622	1.089341
C44	C	0.736727	0.377593	1.082389
C45	C	0.422321	-0.137262	1.178804
C46	C	0.361700	-0.137253	1.178815
C47	C	0.331392	-0.068257	1.109814
C48	C	0.361699	0.000759	1.040820
C49	C	0.422314	0.000758	1.040820
N50	N	0.261397	-0.070761	1.004590
N51	N	0.203816	-0.070766	1.004593
C52	C	0.148761	-0.068245	1.109812
N53	N	0.153468	-0.065743	1.215028
N54	N	0.211056	-0.065744	1.215023
C55	C	0.265665	-0.068247	1.109807
C56	C	0.052726	-0.137240	1.178820
C57	C	-0.007898	-0.137222	1.178835
C58	C	-0.007894	0.000782	1.040828
C59	C	0.052725	0.000772	1.040825
C60	C	0.083034	-0.068246	1.109819
C61	C	0.897287	-0.068229	1.109831
C62	C	0.961797	-0.068224	1.109834
C63	C	0.685172	-0.401107	1.130307
C64	C	0.677693	-0.514078	1.137259
C65	C	0.729248	-0.088724	1.442688
C66	C	0.736727	-0.095675	1.555659
C67	C	0.539171	-0.088737	1.442680
C68	C	0.482140	-0.095693	1.555649
C69	C	0.539171	0.264609	1.089333
C70	C	0.482140	0.377575	1.082379
C71	C	0.561209	0.244127	1.422197
C72	C	0.511657	0.350143	1.528213
C73	C	0.853212	-0.380612	0.797451
C74	C	0.902763	-0.486627	0.691435
C75	C	0.875249	-0.047747	0.776968
C76	C	0.932280	-0.040791	0.663999
C77	C	0.875249	-0.401093	1.130315
C78	C	0.932280	-0.514060	1.137269
C79	C	0.446750	-0.159970	1.547702
C80	C	0.393170	-0.166530	1.653839
C81	C	0.374976	-0.108805	1.767921
C82	C	0.410372	-0.044526	1.775865
C83	C	0.463955	-0.037974	1.669730
C84	C	0.463965	0.491636	1.140110
C85	C	0.410387	0.597790	1.133571
C86	C	0.374981	0.589881	1.069306
C87	C	0.393161	0.475809	1.011566
C88	C	0.446742	0.369657	1.018100
C89	C	0.488388	0.330930	1.647009
C90	C	0.441837	0.430532	1.746634
C91	C	0.418553	0.549345	1.727460
C92	C	0.441827	0.568556	1.608652
C93	C	0.488381	0.468955	1.509030
C94	C	0.926040	-0.467414	0.572639
C95	C	0.972609	-0.567016	0.473014
C96	C	0.995897	-0.685830	0.492188
C97	C	0.972619	-0.705041	0.610996
C98	C	0.926054	-0.605440	0.710618
C99	C	0.967676	0.023474	0.671947
C100	C	1.021271	0.030005	0.565811
C101	C	1.039466	-0.027724	0.451729
C102	C	1.004068	-0.091997	0.443785
C103	C	0.950477	-0.098534	0.549920
C104	C	0.967670	-0.506112	1.201545
C105	C	1.021251	-0.612247	1.208103
C106	C	1.039445	-0.726329	1.150377
C107	C	1.004049	-0.734274	1.086100
C108	C	0.950465	-0.628141	1.079550
H109	H	0.446995	-0.193457	1.234986
H110	H	0.792991	-0.147974	0.549339
H111	H	0.921656	-0.634629	1.027205
H112	H	0.461531	0.276788	0.971091
H113	H	0.621425	0.011479	0.670308
H114	H	0.492787	0.498099	1.192442
H115	H	0.446986	0.056948	0.984637
H116	H	0.792995	0.371276	1.030097
H117	H	0.492764	0.014374	1.676217
H118	H	0.461561	-0.206993	1.454821
H119	H	0.337018	0.056937	0.984640
H120	H	0.422862	0.665307	1.593058
H121	H	0.422892	0.414868	1.843364
H122	H	0.331354	0.676326	1.063995
H123	H	0.395551	0.002470	1.868765
H124	H	0.921659	-0.150863	0.543432
H125	H	0.507320	0.484616	1.412304
H126	H	0.952867	-0.413231	1.248552
H127	H	1.083105	-0.022391	0.365317
H128	H	1.018891	-0.138997	0.350885
H129	H	0.364356	-0.218872	1.647347
H130	H	0.331343	-0.114148	1.854334
H131	H	0.395593	0.690662	1.180594
H132	H	0.364326	0.469388	0.959242
H133	H	0.507339	0.234194	1.662644
H134	H	0.907080	-0.370679	0.557004
H135	H	0.380645	0.630436	1.808589
H136	H	0.991554	-0.551351	0.376285
H137	H	1.033812	-0.766920	0.411059
H138	H	0.991586	-0.801790	0.626594
H139	H	0.621429	0.492241	1.189555
H140	H	0.907102	-0.621098	0.807345
H141	H	0.952866	0.070493	0.764828
H142	H	1.050084	0.082348	0.572303
H143	H	1.050066	-0.605754	1.260441
H144	H	1.083077	-0.812740	1.155720
H145	H	1.018871	-0.827174	1.039103
H146	H	0.337024	-0.193444	1.234997
H147	H	-0.032573	-0.193407	1.235022
H148	H	0.077403	-0.193435	1.235003
H149	H	0.077400	0.056956	0.984641
H150	H	-0.032570	0.056960	0.984646
