data_functionalizedCrystal
_audit_creation_method	'MofGen! by Chris Wilmer'
_symmetry_space_group_name_H-M	'P1'
_symmetry_Int_Tables_number	1
_symmetry_cell_setting	triclinic
loop_
_symmetry_equiv_pos_as_xyz
  x,y,z
_cell_length_a	23.532409
_cell_length_b	11.792241
_cell_length_c	10.868271
_cell_angle_alpha	90.000107
_cell_angle_beta	89.997933
_cell_angle_gamma	96.478512
loop_
_atom_site_label
_atom_site_type_symbol
_atom_site_fract_x
_atom_site_fract_y
_atom_site_fract_z
O1	O	0.078055	-1.505072	-0.102194
O2	O	0.086099	-1.174542	-0.102222
O3	O	-0.000796	-1.349773	-0.102208
O4	O	0.164950	-1.329841	-0.102207
O5	O	-0.000799	-1.349759	0.102436
O6	O	0.086096	-1.174528	0.102423
O7	O	0.078051	-1.505058	0.102451
Zn8	Zn	0.082073	-1.339791	0.134929
Zn9	Zn	0.082078	-1.339809	-0.134699
O10	O	0.164946	-1.329827	0.102438
C11	C	0.085592	-1.132256	0.000097
C12	C	0.084080	-1.006278	0.000086
C13	C	-0.022016	-1.349258	0.000111
C14	C	-0.085242	-1.347731	0.000102
C15	C	0.078558	-1.547344	0.000129
C16	C	0.080071	-1.673322	0.000132
C17	C	-0.358524	-1.341244	-0.111456
C18	C	-0.299115	-1.342662	-0.111456
O19	O	-0.268384	-1.343442	-0.206323
N20	N	-0.269411	-1.343356	0.000098
C21	C	-0.299119	-1.342644	0.111659
O22	O	-0.268398	-1.343366	0.206544
C23	C	-0.358527	-1.341234	0.111658
C24	C	-0.388228	-1.340528	0.000097
C25	C	-0.388225	-1.340540	-0.223008
C26	C	-0.447629	-1.339119	-0.223007
C27	C	-0.477333	-1.338404	-0.111455
C28	C	-0.447632	-1.339108	0.000097
C29	C	-0.388234	-1.340530	0.223217
C30	C	-0.447647	-1.339120	0.223207
C31	C	-0.477347	-1.338415	0.111646
C32	C	-0.536740	-1.336972	0.111650
N33	N	-0.566444	-1.336278	0.000097
C34	C	-0.536741	-1.336994	-0.111456
C35	C	-0.174358	-1.345607	0.111653
C36	C	-0.114951	-1.347009	0.111655
C37	C	-0.114951	-1.347029	-0.111460
C38	C	-0.174359	-1.345619	-0.111461
C39	C	-0.204063	-1.344913	0.000099
C40	C	-0.661494	-1.334010	-0.111446
C41	C	-0.720904	-1.332585	-0.111436
C42	C	-0.720898	-1.332571	0.111679
C43	C	-0.661494	-1.333990	0.111669
C44	C	-0.631793	-1.334713	0.000097
O45	O	-0.567509	-1.336196	0.206469
O46	O	-0.567470	-1.336287	-0.206325
C47	C	0.186167	-1.330342	0.000116
C48	C	0.249393	-1.331869	0.000117
N49	N	0.082070	-1.339786	0.318943
C50	C	0.081299	-0.775631	0.000121
C51	C	0.082844	-0.903980	0.000102
N52	N	0.082076	-1.339823	-0.318714
C53	C	0.082076	-1.339803	0.569949
C54	C	0.082074	-1.339790	0.430271
H55	H	-0.745083	-1.332006	-0.202286
H56	H	-0.637319	-1.334600	-0.202299
H57	H	-0.637307	-1.334519	0.202511
H58	H	-0.090756	-1.347608	-0.202293
H59	H	-0.471828	-1.338546	0.314055
C60	C	-0.753583	-1.331779	0.234381
N61	N	-0.778204	-1.331189	0.326801
H62	H	-0.471807	-1.338553	-0.313852
C63	C	-0.082286	-1.347769	0.234381
N64	N	-0.057685	-1.348349	0.326823
C65	C	-0.207025	-1.344808	0.234386
N66	N	-0.231627	-1.344205	0.326829
H67	H	-0.198538	-1.345042	-0.202304
C68	C	-0.355560	-1.341322	-0.345736
N69	N	-0.330960	-1.341902	-0.438182
C70	C	-0.355577	-1.341311	0.345946
N71	N	-0.330981	-1.341902	0.438392
