data_functionalizedCrystal
_audit_creation_method	'MofGen! by Chris Wilmer'
_symmetry_space_group_name_H-M	'P1'
_symmetry_Int_Tables_number	1
_symmetry_cell_setting	triclinic
loop_
_symmetry_equiv_pos_as_xyz
  x,y,z
_cell_length_a	10.723023
_cell_length_b	10.723024
_cell_length_c	9.198806
_cell_angle_alpha	90.002277
_cell_angle_beta	90.003500
_cell_angle_gamma	84.467709
loop_
_atom_site_label
_atom_site_type_symbol
_atom_site_fract_x
_atom_site_fract_y
_atom_site_fract_z
O1	O	1.657188	0.175020	0.120874
O2	O	1.294036	0.191775	0.120879
O3	O	1.483989	0.001821	0.120871
O4	O	1.467235	0.364974	0.120882
O5	O	1.483974	0.001820	-0.120914
O6	O	1.294021	0.191773	-0.120906
O7	O	1.657173	0.175019	-0.120911
Cu8	Cu	1.475596	0.183396	-0.142985
Cu9	Cu	1.475613	0.183398	0.142953
O10	O	1.467220	0.364972	-0.120903
C11	C	1.247529	0.190555	-0.000012
C12	C	1.108974	0.186908	-0.000010
C13	C	1.047194	0.185281	-0.125261
C14	C	0.903991	0.181511	-0.125262
C15	C	1.482762	-0.044679	-0.000020
C16	C	1.479114	-0.183233	-0.000015
C17	C	1.585402	-0.258216	-0.000014
C18	C	1.581634	-0.401420	-0.000009
C19	C	1.703680	0.176239	-0.000016
C20	C	1.842235	0.179886	-0.000009
C21	C	1.468447	0.411473	-0.000009
C22	C	1.472095	0.550027	-0.000005
N23	N	1.475592	0.183394	-0.344099
C24	C	1.548357	0.255755	-0.416296
C25	C	1.548376	0.255753	-0.583709
N26	N	1.475627	0.183390	0.344067
H27	H	1.100321	0.186672	-0.232492
C28	C	1.631326	0.338574	-0.333653
C29	C	1.598367	0.464096	-0.370598
C30	C	1.674783	0.540425	-0.294514
H31	H	1.620346	0.327760	-0.232120
H32	H	1.716508	0.316029	-0.358539
H33	H	1.513205	0.486633	-0.345702
H34	H	1.609352	0.474948	-0.472118
H35	H	1.759965	0.517880	-0.319400
H36	H	1.663798	0.529600	-0.192984
H37	H	1.652439	0.625598	-0.319580
H38	H	1.610666	0.317711	-0.645796
C39	C	0.833129	0.179382	-0.268210
C40	C	0.771529	0.070224	-0.275816
C41	C	0.706251	0.068210	-0.407491
H42	H	0.773353	0.250601	-0.273758
H43	H	0.890422	0.180820	-0.346832
H44	H	0.714241	0.068798	-0.197216
H45	H	0.831276	-0.001013	-0.270293
H46	H	0.763544	0.069648	-0.486113
H47	H	0.646482	0.139434	-0.413028
H48	H	0.664457	-0.005857	-0.412675
H49	H	1.672625	-0.465852	-0.000015
H50	H	1.413321	0.121442	-0.593854
H51	H	1.413313	0.121439	-0.406229
C52	C	0.913193	0.181952	0.142880
C53	C	0.974844	0.291079	0.150455
C54	C	1.040246	0.293018	0.282053
H55	H	0.856007	0.180511	0.221584
H56	H	0.972947	0.110685	0.148292
H57	H	0.915097	0.362328	0.145057
H58	H	1.032050	0.292544	0.071782
H59	H	1.100000	0.221751	0.287465
H60	H	0.983051	0.291574	0.360746
H61	H	1.082093	0.367054	0.287204
C62	C	1.710338	-0.202225	-0.000093
C63	C	1.689236	-0.071320	-0.000132
C64	C	1.804301	-0.019703	-0.000225
H65	H	1.756569	-0.229073	0.084198
H66	H	1.756470	-0.229149	-0.084444
H67	H	1.643124	-0.044408	0.084210
H68	H	1.643025	-0.044437	-0.084417
H69	H	1.850433	-0.046626	-0.084576
H70	H	1.850523	-0.046560	0.084068
H71	H	1.789999	0.069121	-0.000265
C72	C	1.350795	-0.364016	0.000297
C73	C	1.346218	-0.288484	0.124705
C74	C	1.234490	-0.209288	0.125043
H75	H	1.347349	-0.312543	-0.083922
H76	H	1.281548	-0.413012	0.000380
H77	H	1.415447	-0.239493	0.124608
H78	H	1.349643	-0.339923	0.208944
H79	H	1.165242	-0.258283	0.125126
H80	H	1.231054	-0.157823	0.040818
H81	H	1.231364	-0.158038	0.209458
H82	H	1.055849	0.185506	0.107221
H83	H	1.385328	-0.225055	-0.000004
