data_functionalizedCrystal
_audit_creation_method	'MofGen! by Chris Wilmer'
_symmetry_space_group_name_H-M	'P1'
_symmetry_Int_Tables_number	1
_symmetry_cell_setting	triclinic
loop_
_symmetry_equiv_pos_as_xyz
  x,y,z
_cell_length_a	23.204063
_cell_length_b	23.204065
_cell_length_c	23.204116
_cell_angle_alpha	59.997987
_cell_angle_beta	89.998953
_cell_angle_gamma	60.000253
loop_
_atom_site_label
_atom_site_type_symbol
_atom_site_fract_x
_atom_site_fract_y
_atom_site_fract_z
O1	O	-0.491197	-0.412484	0.017135
O2	O	-0.407392	-0.294473	-0.017070
O3	O	-0.407389	-0.412483	0.100940
O4	O	-0.491200	-0.294474	-0.100875
O5	O	-0.311538	-0.508333	0.100940
O6	O	-0.311541	-0.390323	-0.017071
O7	O	-0.395346	-0.508335	0.017135
Cu8	Cu	-0.344692	-0.458081	0.000032
Cu9	Cu	-0.458046	-0.344727	0.000033
O10	O	-0.395349	-0.390324	-0.100876
C11	C	-0.310652	-0.181456	-0.024838
C12	C	-0.346214	-0.110333	-0.019942
C13	C	-0.241294	-0.215971	-0.025323
C14	C	-0.310655	-0.285810	-0.024846
C15	C	-0.346219	-0.326263	-0.019957
C16	C	-0.241297	-0.320167	-0.025331
C17	C	-0.206293	-0.285815	-0.024838
C18	C	-0.130274	-0.326273	-0.019941
C19	C	-0.345497	-0.215967	-0.025331
C20	C	-0.658540	-0.590043	0.035860
C21	C	-0.734559	-0.549588	0.030967
C22	C	-0.623539	-0.659889	0.036349
C23	C	-0.554183	-0.590040	0.035855
C24	C	-0.518621	-0.549582	0.030958
C25	C	-0.519339	-0.659886	0.036344
C26	C	-0.554182	-0.694402	0.035859
C27	C	-0.518619	-0.765527	0.030967
C28	C	-0.623539	-0.555686	0.036345
C29	C	-0.489889	-0.822989	0.027012
C30	C	-0.795974	-0.516903	0.027013
C31	C	-0.489891	-0.516895	0.027000
C32	C	-0.453845	-0.895077	0.022052
C33	C	-0.873022	-0.475899	0.022054
C34	C	-0.453848	-0.475888	0.022036
C35	C	-0.554187	-0.212776	-0.445775
C36	C	-0.518624	-0.253233	-0.481336
C37	C	-0.623545	-0.142931	-0.480619
C38	C	-0.554188	-0.212775	-0.341416
C39	C	-0.518626	-0.253231	-0.265397
C40	C	-0.623546	-0.142930	-0.376419
C41	C	-0.658547	-0.108416	-0.445777
C42	C	-0.734566	-0.037291	-0.481340
C43	C	-0.519344	-0.247131	-0.376417
C44	C	-0.795982	0.020169	-0.510072
C45	C	-0.489893	-0.285920	-0.510065
C46	C	-0.489896	-0.285917	-0.203980
C47	C	-0.873032	0.092257	-0.546117
C48	C	-0.453848	-0.326925	-0.546108
C49	C	-0.453852	-0.326922	-0.126930
O50	O	0.100922	-0.508345	0.017151
O51	O	-0.100892	-0.390333	-0.017055
O52	O	0.017109	-0.508348	0.100956
O53	O	-0.017080	-0.390330	-0.100860
O54	O	0.017112	-0.412502	0.100963
O55	O	-0.100890	-0.294486	-0.017048
O56	O	0.100924	-0.412499	0.017158
Cu57	Cu	0.000018	-0.344741	0.000056
Cu58	Cu	0.000014	-0.458090	0.000048
O59	O	-0.017077	-0.294483	-0.100853
O60	O	-0.395342	0.083766	0.017156
O61	O	-0.311534	-0.083842	-0.017048
O62	O	-0.311538	-0.083852	0.100962
O63	O	-0.395338	0.083777	-0.100854
O64	O	-0.407391	-0.083849	0.100954
O65	O	-0.407387	-0.083839	-0.017056
O66	O	-0.491195	0.083770	0.017149
Cu67	Cu	-0.458043	-0.000034	0.000046
Cu68	Cu	-0.344686	-0.000038	0.000055
O69	O	-0.491191	0.083780	-0.100861
O70	O	-1.100901	0.281028	-0.592582
O71	O	-0.899087	0.113413	-0.508770
O72	O	-1.017091	0.113409	-0.508767
O73	O	-0.982897	0.281032	-0.592584
O74	O	-1.017088	0.113407	-0.604617
O75	O	-0.899085	0.113411	-0.604619
O76	O	-1.100898	0.281026	-0.688432
Cu77	Cu	-0.999991	0.197218	-0.655277
Cu78	Cu	-0.999994	0.197221	-0.541924
O79	O	-0.982895	0.281030	-0.688434
O80	O	-0.407389	-0.412483	-0.688416
O81	O	-0.491197	-0.294477	-0.604610
O82	O	-0.491195	-0.412486	-0.604605
O83	O	-0.407390	-0.294474	-0.688421
O84	O	-0.395343	-0.508338	-0.508754
O85	O	-0.395345	-0.390329	-0.508759
O86	O	-0.311537	-0.508334	-0.592565
Cu87	Cu	-0.344689	-0.458084	-0.541910
Cu88	Cu	-0.458045	-0.344728	-0.655265
O89	O	-0.311539	-0.390326	-0.592570
C90	C	-0.206294	-0.621360	0.310702
C91	C	-0.130275	-0.692485	0.346265
C92	C	-0.241296	-0.586846	0.345545
C93	C	-0.310654	-0.517001	0.206342
C94	C	-0.346216	-0.476544	0.130323
C95	C	-0.345497	-0.482645	0.241343
C96	C	-0.310653	-0.517001	0.310701
C97	C	-0.346216	-0.476544	0.346263
C98	C	-0.241296	-0.586846	0.241345
C99	C	0.024887	-0.517030	0.310724
C100	C	0.019993	-0.476577	0.346290
C101	C	0.025371	-0.586874	0.345565
C102	C	0.024889	-0.517022	0.206362
C103	C	0.019998	-0.476562	0.130342
C104	C	0.025374	-0.586867	0.241361
C105	C	0.024884	-0.621384	0.310718
C106	C	0.019987	-0.692509	0.346278
C107	C	0.025377	-0.482671	0.241366
C108	C	-0.310656	-0.285855	0.310709
C109	C	-0.346220	-0.326314	0.346266
C110	C	-0.241298	-0.320218	0.345555
C111	C	-0.310655	-0.181484	0.206357
C112	C	-0.346217	-0.110348	0.130340
C113	C	-0.241296	-0.216005	0.241362
C114	C	-0.206295	-0.285860	0.310717
C115	C	-0.130275	-0.326323	0.346282
C116	C	-0.345499	-0.216001	0.241354
C117	C	-0.035774	-0.108410	-0.445754
C118	C	-0.030877	-0.037285	-0.481314
C119	C	-0.036262	-0.142920	-0.480600
C120	C	-0.035780	-0.212771	-0.341397
C121	C	-0.030889	-0.253231	-0.265377
C122	C	-0.036268	-0.247124	-0.376401
C123	C	-0.035777	-0.212765	-0.445759
C124	C	-0.030883	-0.253218	-0.481324
C125	C	-0.036265	-0.142927	-0.376396
C126	C	-0.026928	-0.285901	-0.510056
C127	C	-0.026920	0.020175	-0.510042
C128	C	-0.026936	-0.285920	-0.203961
C129	C	-0.021967	-0.326903	-0.546103
C130	C	-0.021955	0.092262	-0.546083
C131	C	-0.021978	-0.326928	-0.126911
O132	O	-0.017120	-0.390358	0.491266
O133	O	0.017098	-0.508368	0.407461
O134	O	-0.100916	-0.390357	0.407446
O135	O	0.100893	-0.508369	0.491281
O136	O	-0.100904	-0.294507	0.311599
O137	O	0.017110	-0.412518	0.311614
O138	O	-0.017109	-0.294509	0.395420
Cu139	Cu	0.000001	-0.344761	0.344766
Cu140	Cu	-0.000012	-0.458115	0.458115
O141	O	0.100905	-0.412519	0.395435
C142	C	-0.658539	0.410016	-0.445751
C143	C	-0.734559	0.450479	-0.481316
C144	C	-0.623536	0.444375	-0.480590
C145	C	-0.554179	0.305641	-0.341392
C146	C	-0.518616	0.234505	-0.265374
C147	C	-0.519335	0.340158	-0.376388
C148	C	-0.554178	0.410013	-0.445743
C149	C	-0.518614	0.450471	-0.481300
C150	C	-0.623537	0.340162	-0.376396
C151	C	-0.489883	0.483159	-0.510025
C152	C	-0.795975	0.483170	-0.510049
C153	C	-0.489886	0.177036	-0.203959
C154	C	-0.453838	0.524167	-0.546063
C155	C	-0.873025	0.524182	-0.546095
C156	C	-0.453842	0.104937	-0.126912
H157	H	-0.402486	-0.187075	-0.026121
C158	C	-0.419075	-0.653825	0.037741
C159	C	-0.442404	-0.698895	0.037421
H160	H	-0.371578	-0.677916	0.038415
H161	H	-0.448034	-0.599478	-0.003419
H162	H	-0.421782	-0.653529	0.078451
H163	H	-0.439702	-0.699186	-0.003292
H164	H	-0.413437	-0.753257	0.078585
H165	H	-0.402481	-0.426435	0.213235
H166	H	-0.213192	-0.615736	0.402533
C167	C	-0.721910	-0.103557	-0.334937
C168	C	-0.661481	-0.103958	-0.338469
H169	H	-0.745325	-0.079509	-0.311501
H170	H	-0.752695	-0.072971	-0.381340
H171	H	-0.708688	-0.157924	-0.309564
H172	H	-0.674704	-0.049591	-0.363847
H173	H	-0.630690	-0.134543	-0.292059
C174	C	-0.624048	0.221042	-0.319017
C175	C	-0.661472	0.301163	-0.338465
H176	H	-0.647465	0.196968	-0.295597
H177	H	-0.621656	0.221349	-0.360024
H178	H	-0.577643	0.190470	-0.288229
H179	H	-0.707875	0.331738	-0.369257
H180	H	-0.663872	0.300861	-0.297452
C181	C	-0.142924	-0.460063	0.426430
C182	C	-0.203361	-0.396098	0.422483
H183	H	-0.119504	-0.506904	0.473921
H184	H	-0.156134	-0.472233	0.397455
H185	H	-0.112142	-0.444436	0.410600
H186	H	-0.234146	-0.411724	0.438308
H187	H	-0.190153	-0.383928	0.451468
C188	C	-0.438451	0.357644	-0.334917
C189	C	-0.442404	0.301162	-0.338456
H190	H	-0.390960	0.333569	-0.311498
H191	H	-0.454283	0.404259	-0.381317
H192	H	-0.467423	0.373399	-0.309524
H193	H	-0.413436	0.285412	-0.363853
H194	H	-0.426564	0.254533	-0.292047
C195	C	-0.199811	-0.460017	0.033632
C196	C	-0.203357	-0.396037	-0.026391
H197	H	-0.176391	-0.506851	0.032975
H198	H	-0.174425	-0.472190	0.074776
H199	H	-0.246215	-0.444402	0.033846
H200	H	-0.156952	-0.411649	-0.026602
H201	H	-0.228742	-0.383863	-0.067545
C202	C	-0.465131	-0.153767	0.240838
C203	C	-0.422430	-0.176989	0.203406
H204	H	-0.512622	-0.129677	0.217405
H205	H	-0.449307	-0.200393	0.287228
H206	H	-0.462429	-0.115469	0.243257
H207	H	-0.425127	-0.215292	0.200992
H208	H	-0.438258	-0.130356	0.157004
C209	C	-0.664966	0.584206	-0.561435
C210	C	-0.661456	0.520261	-0.557515
H211	H	-0.688367	0.631052	-0.608923
H212	H	-0.690356	0.596377	-0.532466
H213	H	-0.618553	0.568557	-0.545584
H214	H	-0.707869	0.535907	-0.573361
H215	H	-0.636067	0.508089	-0.586494
H216	H	-0.651638	-0.114039	-0.537611
H217	H	-0.213184	-0.615720	0.213239
C218	C	-0.037542	-0.035271	-0.580826
C219	C	-0.037259	-0.103965	-0.557511
H220	H	-0.038135	-0.011239	-0.628298
H221	H	-0.078272	0.003071	-0.578186
H222	H	0.003598	-0.051060	-0.551810
H223	H	-0.078401	-0.088175	-0.586523
H224	H	0.003475	-0.142314	-0.560156
C225	C	0.087093	-0.705997	0.465196
C226	C	0.026428	-0.625870	0.422495
H227	H	0.087745	-0.730066	0.512687
H228	H	0.086874	-0.736563	0.449366
H229	H	0.127803	-0.705699	0.462501
H230	H	-0.014283	-0.626168	0.425185
H231	H	0.026640	-0.595296	0.438329
C232	C	-0.037685	-0.345983	-0.270083
C233	C	-0.037357	-0.322975	-0.338481
H234	H	-0.038369	-0.392801	-0.246680
H235	H	0.003475	-0.358193	-0.244689
H236	H	-0.078392	-0.302561	-0.272497
H237	H	0.003353	-0.366395	-0.336067
H238	H	-0.078522	-0.310769	-0.363881
C239	C	-0.664995	-0.415847	-0.022620
C240	C	-0.661468	-0.479813	0.037400
H241	H	-0.688412	-0.369008	-0.021970
H242	H	-0.618593	-0.431473	-0.022827
H243	H	-0.690385	-0.403671	-0.063770
H244	H	-0.636074	-0.491993	0.078550
H245	H	-0.707879	-0.464185	0.037614
H246	H	-0.213196	-0.187082	-0.026109
C247	C	0.087092	-0.649101	0.183963
C248	C	0.026432	-0.625867	0.203432
H249	H	0.087745	-0.673183	0.160556
H250	H	0.086865	-0.602480	0.153167
H251	H	0.127806	-0.687408	0.224967
H252	H	-0.014282	-0.587556	0.162428
H253	H	0.026653	-0.672494	0.234230
C254	C	-0.438488	-0.386979	-0.278049
C255	C	-0.442422	-0.323018	-0.338481
H256	H	-0.391004	-0.433831	-0.254633
H257	H	-0.454304	-0.371362	-0.247263
H258	H	-0.467482	-0.399130	-0.291268
H259	H	-0.413432	-0.310862	-0.325260
H260	H	-0.426597	-0.338637	-0.369272
C261	C	-0.033589	-0.342821	0.199879
C262	C	0.026436	-0.406799	0.203428
H263	H	-0.032933	-0.295985	0.176459
H264	H	-0.074729	-0.330650	0.174490
H265	H	-0.033806	-0.358437	0.246283
H266	H	0.026651	-0.391185	0.157023
H267	H	0.067587	-0.418970	0.228816
C268	C	-0.680913	-0.722139	0.098099
C269	C	-0.661455	-0.698909	0.037430
H270	H	-0.704318	-0.746229	0.098768
H271	H	-0.639912	-0.760429	0.138803
H272	H	-0.711715	-0.675507	0.097862
H273	H	-0.630649	-0.745542	0.037669
H274	H	-0.702462	-0.660616	-0.003285
C275	C	-0.240784	-0.096888	0.183986
C276	C	-0.203354	-0.177012	0.203443
H277	H	-0.217355	-0.072820	0.160584
H278	H	-0.287175	-0.066317	0.153188
H279	H	-0.243194	-0.097189	0.224995
H280	H	-0.200948	-0.176710	0.162433
H281	H	-0.156950	-0.207590	0.234242
C282	C	-0.037650	-0.035214	-0.383846
C283	C	-0.037335	-0.103932	-0.338459
H284	H	-0.038318	-0.011140	-0.360426
H285	H	0.003507	-0.050986	-0.397037
H286	H	-0.078361	0.003092	-0.424853
H287	H	0.003380	-0.142241	-0.297455
H288	H	-0.078496	-0.088162	-0.325258
