data_functionalizedCrystal
_audit_creation_method	'MofGen! by Chris Wilmer'
_symmetry_space_group_name_H-M	'P1'
_symmetry_Int_Tables_number	1
_symmetry_cell_setting	triclinic
loop_
_symmetry_equiv_pos_as_xyz
  x,y,z
_cell_length_a	16.120530
_cell_length_b	19.120786
_cell_length_c	16.120297
_cell_angle_alpha	89.693695
_cell_angle_beta	89.871860
_cell_angle_gamma	89.436752
loop_
_atom_site_label
_atom_site_type_symbol
_atom_site_fract_x
_atom_site_fract_y
_atom_site_fract_z
Zn1	Zn	1.230439	-0.354318	0.515736
Zn2	Zn	1.730439	0.145682	1.015736
Zn3	Zn	1.232048	-0.465652	0.370762
Zn4	Zn	1.732048	0.034348	0.870762
Zn5	Zn	1.098996	-0.342500	0.370282
Zn6	Zn	1.598996	0.157500	0.870282
Zn7	Zn	1.086035	-0.465008	0.502765
Zn8	Zn	1.586035	0.034992	1.002765
O9	O	1.161880	-0.406870	0.439886
O10	O	1.661880	0.093130	0.939886
O11	O	1.346768	-0.374302	0.502134
O12	O	1.846768	0.125698	1.002134
O13	O	1.220496	-0.444639	0.254581
O14	O	1.720496	0.055361	0.754581
O15	O	1.121184	-0.246204	0.394804
O16	O	1.621184	0.253796	0.894804
O17	O	1.347950	-0.456099	0.395622
O18	O	1.847950	0.043901	0.895622
O19	O	1.217754	-0.254887	0.501668
O20	O	1.717754	0.245113	1.001668
O21	O	1.122744	-0.354160	0.254229
O22	O	1.622744	0.145840	0.754229
O23	O	0.981161	-0.353536	0.382227
O24	O	1.481161	0.146464	0.882227
O25	O	1.099093	-0.455001	0.620603
O26	O	1.599093	0.044999	1.120603
O27	O	0.971638	-0.443542	0.479562
O28	O	1.471638	0.056458	0.979562
O29	O	1.205186	-0.373678	0.630132
O30	O	1.705186	0.126322	1.130132
O31	O	1.207928	-0.563430	0.383045
O32	O	1.707928	-0.063430	0.883045
O33	O	1.100653	-0.562957	0.480027
O34	O	1.600653	-0.062957	0.980027
C35	C	0.946292	-0.397187	0.429435
C36	C	1.446292	0.102813	0.929435
C37	C	0.854061	-0.393062	0.424983
C38	C	1.354061	0.106938	0.924983
C39	C	0.685193	-0.385516	0.416863
C40	C	1.185193	0.114484	0.916863
C41	C	0.639400	-0.428278	0.462967
C42	C	1.139400	0.071722	0.962967
C43	C	0.545437	-0.424079	0.458449
C44	C	1.045437	0.075921	0.958449
C45	C	0.779166	-0.389714	0.421380
C46	C	1.279166	0.110286	0.921380
C47	C	1.153080	-0.588570	0.430200
C48	C	1.653080	-0.088570	0.930200
C49	C	1.149390	-0.666307	0.426087
C50	C	1.649390	-0.166307	0.926087
C51	C	1.197893	-0.707288	0.479835
C52	C	1.697893	-0.207288	0.979835
C53	C	1.194422	-0.780330	0.475973
C54	C	1.694422	-0.280330	0.975973
C55	C	1.142452	-0.812390	0.418357
C56	C	1.642452	-0.312390	0.918357
C57	C	1.093943	-0.771403	0.364607
C58	C	1.593943	-0.271403	0.864607
C59	C	1.097410	-0.698363	0.368475
C60	C	1.597410	-0.198363	0.868475
C61	C	1.129467	-1.032702	0.403899
C62	C	1.629467	-0.532702	0.903899
C63	C	1.126006	-1.105748	0.400034
C64	C	1.626006	-0.605748	0.900034
C65	C	1.226484	-1.114670	0.511400
C66	C	1.726484	-0.614670	1.011400
C67	C	1.229950	-1.041628	0.515259
C68	C	1.729950	-0.541628	1.015259
C69	C	1.181438	-1.000648	0.461512
C70	C	1.681438	-0.500648	0.961512
C71	C	1.138905	-0.887050	0.414406
C72	C	1.638905	-0.387050	0.914406
C73	C	1.184981	-0.925989	0.465468
C74	C	1.684981	-0.425989	0.965468
C75	C	1.378309	-0.416591	0.450378
C76	C	1.878309	0.083409	0.950378
C77	C	1.470538	-0.420733	0.454849
C78	C	1.970538	0.079267	0.954849
C79	C	1.150514	-0.415586	0.656317
C80	C	1.650514	0.084414	1.156317
C81	C	1.145671	-0.419300	0.748547
C82	C	1.645671	0.080700	1.248547
C83	C	1.170735	-0.224461	0.449629
C84	C	1.670735	0.275539	0.949629
C85	C	1.174509	-0.146729	0.453781
C86	C	1.674509	0.353271	0.953781
C87	C	1.173251	-0.398139	0.224302
C88	C	1.673251	0.101861	0.724302
C89	C	1.178264	-0.394235	0.132091
C90	C	1.678264	0.105765	0.632091
C91	C	1.136799	-0.426065	0.917412
C92	C	1.636799	0.073935	1.417412
C93	C	1.187134	-0.387472	0.963231
C94	C	1.687134	0.112528	1.463231
C95	C	1.182197	-0.391236	1.057193
C96	C	1.682197	0.108764	1.557193
C97	C	1.141734	-0.422302	0.823441
C98	C	1.641734	0.077698	1.323441
H99	H	0.653831	-0.345756	0.374001
H100	H	1.153831	0.154244	0.874001
F101	F	1.038624	-0.805525	0.303296
F102	F	1.538624	-0.305525	0.803296
H103	H	1.240217	-0.681191	0.526748
H104	H	1.740217	-0.181191	1.026748
H105	H	0.670765	-0.468040	0.505833
H106	H	1.170765	0.031960	1.005833
F107	F	1.075632	-0.472944	0.958375
F108	F	1.575632	0.027056	1.458375
F109	F	1.285263	-1.007513	0.576582
F110	F	1.785263	-0.507513	1.076582
F111	F	1.246037	-0.823943	0.533187
F112	F	1.746037	-0.323943	1.033187
F113	F	1.278108	-1.158289	0.568600
F114	F	1.778108	-0.658289	1.068600
F115	F	1.070692	-1.139866	0.338707
F116	F	1.570692	-0.639866	0.838707
F117	F	1.248321	-0.340604	0.922268
F118	F	1.748321	0.159396	1.422268
H119	H	1.057912	-0.664996	0.324709
H120	H	1.557912	-0.164996	0.824709
F121	F	1.240285	-0.891867	0.526789
F122	F	1.740285	-0.391867	1.026789
F123	F	1.077829	-0.989097	0.346701
F124	F	1.577829	-0.489097	0.846701
H125	H	1.096593	-0.913161	0.367493
H126	H	1.596593	-0.413161	0.867493
