data_functionalizedCrystal
_audit_creation_method	'MofGen! by Chris Wilmer'
_symmetry_space_group_name_H-M	'P1'
_symmetry_Int_Tables_number	1
_symmetry_cell_setting	triclinic
loop_
_symmetry_equiv_pos_as_xyz
  x,y,z
_cell_length_a	29.839134
_cell_length_b	29.839131
_cell_length_c	18.101389
_cell_angle_alpha	89.978713
_cell_angle_beta	89.971270
_cell_angle_gamma	90.036281
loop_
_atom_site_label
_atom_site_type_symbol
_atom_site_fract_x
_atom_site_fract_y
_atom_site_fract_z
Zn1	Zn	0.686750	-0.178962	-0.418911
Zn2	Zn	1.020083	0.154371	-0.085578
Zn3	Zn	1.353416	0.487705	0.247756
Zn4	Zn	0.686673	-0.254079	-0.295063
Zn5	Zn	1.020006	0.079255	0.038270
Zn6	Zn	1.353340	0.412588	0.371604
Zn7	Zn	0.611623	-0.178957	-0.295063
Zn8	Zn	0.944957	0.154377	0.038271
Zn9	Zn	1.278290	0.487710	0.371604
Zn10	Zn	0.611580	-0.254059	-0.418842
Zn11	Zn	0.944913	0.079274	-0.085509
Zn12	Zn	1.278247	0.412608	0.247824
O13	O	0.649156	-0.216514	-0.356970
O14	O	0.982490	0.116819	-0.023636
O15	O	1.315823	0.450153	0.309697
O16	O	0.749606	-0.188937	-0.402511
O17	O	1.082940	0.144396	-0.069178
O18	O	1.416273	0.477730	0.264155
O19	O	0.676703	-0.244120	-0.191430
O20	O	1.010037	0.089214	0.141903
O21	O	1.343370	0.422547	0.475237
O22	O	0.621639	-0.116090	-0.311520
O23	O	0.954973	0.217243	0.021814
O24	O	1.288306	0.550576	0.355147
O25	O	0.749550	-0.244125	-0.311521
O26	O	1.082883	0.089209	0.021812
O27	O	1.416217	0.422542	0.355146
O28	O	0.676834	-0.116094	-0.402511
O29	O	1.010167	0.217239	-0.069177
O30	O	1.343501	0.550572	0.264156
O31	O	0.621565	-0.188928	-0.191430
O32	O	0.954898	0.144405	0.141904
O33	O	1.288232	0.477739	0.475237
O34	O	0.548751	-0.188909	-0.311453
O35	O	0.882084	0.144424	0.021880
O36	O	1.215417	0.477758	0.355213
O37	O	0.621565	-0.244091	-0.522484
O38	O	0.954899	0.089242	-0.189151
O39	O	1.288232	0.422576	0.144182
O40	O	0.548719	-0.244086	-0.402394
O41	O	0.882052	0.089247	-0.069060
O42	O	1.215385	0.422581	0.264273
O43	O	0.676792	-0.188918	-0.522535
O44	O	1.010125	0.144416	-0.189201
O45	O	1.343459	0.477749	0.144132
O46	O	0.676661	-0.316943	-0.311454
O47	O	1.009995	0.016390	0.021879
O48	O	1.343328	0.349723	0.355212
O49	O	0.621491	-0.316929	-0.402394
O50	O	0.954824	0.016405	-0.069061
O51	O	1.288158	0.349738	0.264272
C52	C	0.532434	-0.216495	-0.356916
C53	C	0.865767	0.116838	-0.023583
C54	C	1.199101	0.450172	0.309750
C55	C	0.482500	-0.216498	-0.356911
C56	C	0.815833	0.116836	-0.023578
C57	C	1.149166	0.450169	0.309756
C58	C	0.172849	-0.245287	-0.404264
C59	C	0.506182	0.088046	-0.070931
C60	C	0.839516	0.421379	0.262402
C61	C	-0.014824	-0.245300	-0.404297
C62	C	0.318509	0.088033	-0.070964
C63	C	0.651843	0.421367	0.262369
O64	O	-0.039095	-0.269757	-0.444527
O65	O	0.294238	0.063576	-0.111194
O66	O	0.627572	0.396910	0.222140
N67	N	-0.038286	-0.216531	-0.357025
N68	N	0.295048	0.116803	-0.023692
N69	N	0.628381	0.450136	0.309641
C70	C	-0.014826	-0.187754	-0.309746
C71	C	0.318507	0.145579	0.023588
C72	C	0.651841	0.478913	0.356921
O73	O	-0.039088	-0.163281	-0.269544
O74	O	0.294246	0.170053	0.063789
O75	O	0.627579	0.503386	0.397123
C76	C	0.172846	-0.187739	-0.309717
C77	C	0.506180	0.145594	0.023616
C78	C	0.839513	0.478927	0.356950
C79	C	0.196305	-0.216514	-0.356986
C80	C	0.529639	0.116820	-0.023653
C81	C	0.862972	0.450153	0.309680
C82	C	0.196308	-0.274059	-0.451531
C83	C	0.529641	0.059274	-0.118197
C84	C	0.862975	0.392607	0.215136
C85	C	0.243224	-0.274058	-0.451519
C86	C	0.576557	0.059276	-0.118186
C87	C	0.909890	0.392609	0.215148
C88	C	0.266680	-0.245284	-0.404241
C89	C	0.600013	0.088049	-0.070908
C90	C	0.933347	0.421383	0.262425
C91	C	0.243221	-0.216512	-0.356975
C92	C	0.576554	0.116821	-0.023642
C93	C	0.909887	0.450155	0.309692
C94	C	0.196305	-0.158961	-0.262441
C95	C	0.529638	0.174373	0.070892
C96	C	0.862972	0.507706	0.404225
C97	C	0.243226	-0.158959	-0.262440
C98	C	0.576559	0.174375	0.070894
C99	C	0.909893	0.507708	0.404227
C100	C	0.266685	-0.187733	-0.309709
C101	C	0.600018	0.145600	0.023624
C102	C	0.933352	0.478933	0.356958
C103	C	0.313593	-0.187737	-0.309685
C104	C	0.646926	0.145597	0.023648
C105	C	0.980259	0.478930	0.356981
N106	N	0.337054	-0.216506	-0.356957
N107	N	0.670387	0.116827	-0.023624
N108	N	1.003721	0.450160	0.309709
C109	C	0.313598	-0.245280	-0.404235
C110	C	0.646931	0.088054	-0.070902
C111	C	0.980264	0.421387	0.262432
C112	C	-0.113357	-0.187764	-0.309763
C113	C	0.219977	0.145569	0.023570
C114	C	0.553310	0.478902	0.356904
C115	C	-0.160274	-0.187768	-0.309769
C116	C	0.173059	0.145565	0.023564
C117	C	0.506392	0.478898	0.356898
C118	C	-0.160269	-0.245314	-0.404322
C119	C	0.173064	0.088019	-0.070989
C120	C	0.506397	0.421353	0.262345
C121	C	-0.113351	-0.245312	-0.404311
C122	C	0.219983	0.088021	-0.070978
C123	C	0.553316	0.421355	0.262355
C124	C	-0.089895	-0.216534	-0.357035
C125	C	0.243438	0.116800	-0.023701
C126	C	0.576772	0.450133	0.309632
C127	C	0.412124	-0.245274	-0.404207
C128	C	0.745457	0.088059	-0.070873
C129	C	1.078790	0.421392	0.262460
C130	C	0.459043	-0.245271	-0.404189
C131	C	0.792376	0.088062	-0.070856
C132	C	1.125710	0.421395	0.262478
C133	C	0.459034	-0.187724	-0.309639
C134	C	0.792367	0.145609	0.023694
C135	C	1.125701	0.478943	0.357028
C136	C	0.412118	-0.187729	-0.309654
C137	C	0.745452	0.145605	0.023679
C138	C	1.078785	0.478938	0.357013
C139	C	0.388664	-0.216505	-0.356944
C140	C	0.721998	0.116828	-0.023610
C141	C	1.055331	0.450162	0.309723
O142	O	0.337892	-0.163289	-0.269483
O143	O	0.671226	0.170044	0.063851
O144	O	1.004559	0.503377	0.397184
O145	O	0.337868	-0.269742	-0.444442
O146	O	0.671201	0.063591	-0.111109
O147	O	1.004534	0.396924	0.222225
C148	C	0.125934	-0.245289	-0.404276
C149	C	0.459267	0.088044	-0.070943
C150	C	0.792600	0.421378	0.262391
C151	C	0.102474	-0.216517	-0.357010
C152	C	0.435808	0.116816	-0.023676
C153	C	0.769141	0.450149	0.309657
C154	C	0.125931	-0.187744	-0.309732
C155	C	0.459264	0.145590	0.023602
C156	C	0.792597	0.478923	0.356935
C157	C	0.055557	-0.216521	-0.357016
C158	C	0.388890	0.116812	-0.023682
C159	C	0.722223	0.450145	0.309651
C160	C	0.032100	-0.245295	-0.404294
C161	C	0.365434	0.088038	-0.070960
C162	C	0.698767	0.421372	0.262373
C163	C	0.055562	-0.274064	-0.451565
C164	C	0.388895	0.059269	-0.118232
C165	C	0.722228	0.392602	0.215101
C166	C	0.102477	-0.274063	-0.451554
C167	C	0.435810	0.059271	-0.118220
C168	C	0.769144	0.392604	0.215113
C169	C	0.102469	-0.158974	-0.262460
C170	C	0.435803	0.174359	0.070873
C171	C	0.769136	0.507692	0.404207
C172	C	0.055554	-0.158979	-0.262475
C173	C	0.388887	0.174355	0.070859
C174	C	0.722220	0.507688	0.404192
C175	C	0.032097	-0.187752	-0.309753
C176	C	0.365431	0.145581	0.023581
C177	C	0.698764	0.478914	0.356914
C178	C	0.649075	-0.333237	-0.356933
C179	C	0.982409	0.000097	-0.023600
C180	C	1.315742	0.333430	0.309734
C181	C	0.649082	-0.383171	-0.356942
C182	C	0.982415	-0.049838	-0.023609
C183	C	1.315748	0.283496	0.309725
C184	C	0.677936	-0.692809	-0.309687
C185	C	1.011269	-0.359476	0.023647
C186	C	1.344603	-0.026143	0.356980
C187	C	0.677991	-0.880482	-0.309715
C188	C	1.011325	-0.547149	0.023618
C189	C	1.344658	-0.213816	0.356951
O190	O	0.702460	-0.904743	-0.269509
O191	O	1.035793	-0.571410	0.063825
O192	O	1.369127	-0.238076	0.397158
N193	N	0.649250	-0.903956	-0.357026
N194	N	0.982583	-0.570623	-0.023692
N195	N	1.315916	-0.237290	0.309641
C196	C	0.620494	-0.880509	-0.404336
C197	C	0.953827	-0.547175	-0.071002
C198	C	1.287161	-0.213842	0.262331
O199	O	0.596052	-0.904781	-0.444582
O200	O	0.929385	-0.571447	-0.111249
O201	O	1.262719	-0.238114	0.222085
C202	C	0.620441	-0.692837	-0.404310
C203	C	0.953775	-0.359503	-0.070977
C204	C	1.287108	-0.026170	0.262357
C205	C	0.649182	-0.669365	-0.356991
C206	C	0.982515	-0.336032	-0.023658
C207	C	1.315848	-0.002699	0.309675
C208	C	0.706674	-0.669338	-0.262372
C209	C	1.040008	-0.336005	0.070961
C210	C	1.373341	-0.002671	0.404294
C211	C	0.706658	-0.622423	-0.262363
C212	C	1.039992	-0.289089	0.070971
C213	C	1.373325	0.044244	0.404304
C214	C	0.677904	-0.598979	-0.309667
C215	C	1.011237	-0.265645	0.023666
C216	C	1.344571	0.067688	0.356999
C217	C	0.649166	-0.622450	-0.356982
C218	C	0.982499	-0.289117	-0.023648
C219	C	1.315832	0.044217	0.309685
C220	C	0.591688	-0.669390	-0.451623
C221	C	0.925022	-0.336057	-0.118290
C222	C	1.258355	-0.002723	0.215044
C223	C	0.591678	-0.622469	-0.451614
C224	C	0.925012	-0.289136	-0.118280
C225	C	1.258345	0.044198	0.215053
C226	C	0.620419	-0.598998	-0.404295
C227	C	0.953752	-0.265664	-0.070962
C228	C	1.287085	0.067669	0.262372
C229	C	0.620396	-0.552090	-0.404277
C230	C	0.953729	-0.218757	-0.070943
C231	C	1.287062	0.114576	0.262390
N232	N	0.649137	-0.528617	-0.356967
N233	N	0.982471	-0.195283	-0.023633
N234	N	1.315804	0.138050	0.309700
C235	C	0.677892	-0.552061	-0.309662
C236	C	1.011225	-0.218727	0.023672
C237	C	1.344558	0.114606	0.357005
C238	C	0.620523	-0.979039	-0.404345
C239	C	0.953857	-0.645706	-0.071011
C240	C	1.287190	-0.312373	0.262322
C241	C	0.620536	-1.025957	-0.404350
C242	C	0.953869	-0.692624	-0.071017
C243	C	1.287202	-0.359291	0.262316
C244	C	0.678034	-1.025928	-0.309731
C245	C	1.011367	-0.692594	0.023603
C246	C	1.344700	-0.359261	0.356936
C247	C	0.678019	-0.979009	-0.309722
C248	C	1.011352	-0.645676	0.023611
C249	C	1.344685	-0.312342	0.356945
C250	C	0.649265	-0.955566	-0.357034
C251	C	0.982598	-0.622232	-0.023701
C252	C	1.315932	-0.288899	0.309632
C253	C	0.677856	-0.453535	-0.309645
C254	C	1.011189	-0.120202	0.023689
C255	C	1.344522	0.213132	0.357022
C256	C	0.677836	-0.406615	-0.309637
C257	C	1.011169	-0.073282	0.023696
C258	C	1.344503	0.260051	0.357029
C259	C	0.620340	-0.406649	-0.404259
C260	C	0.953673	-0.073316	-0.070926
C261	C	1.287007	0.260018	0.262407
C262	C	0.620358	-0.453564	-0.404264
C263	C	0.953691	-0.120231	-0.070931
C264	C	1.287024	0.213102	0.262402
C265	C	0.649119	-0.477006	-0.356955
C266	C	0.982453	-0.143673	-0.023621
C267	C	1.315786	0.189660	0.309712
O268	O	0.595943	-0.527801	-0.444468
O269	O	0.929277	-0.194468	-0.111135
O270	O	1.262610	0.138866	0.222198
O271	O	0.702337	-0.527781	-0.269433
O272	O	1.035670	-0.194447	0.063900
O273	O	1.369004	0.138886	0.397234
C274	C	0.677952	-0.739725	-0.309696
C275	C	1.011285	-0.406392	0.023637
C276	C	1.344618	-0.073058	0.356971
C277	C	0.649213	-0.763196	-0.357010
C278	C	0.982547	-0.429863	-0.023677
C279	C	1.315880	-0.096530	0.309656
C280	C	0.620459	-0.739752	-0.404315
C281	C	0.953792	-0.406419	-0.070982
C282	C	1.287126	-0.073085	0.262352
C283	C	0.649226	-0.810114	-0.357016
C284	C	0.982559	-0.476781	-0.023683
C285	C	1.315893	-0.143447	0.309651
C286	C	0.677980	-0.833558	-0.309711
C287	C	1.011314	-0.500225	0.023622
C288	C	1.344647	-0.166891	0.356955
C289	C	0.706722	-0.810084	-0.262401
C290	C	1.040055	-0.476751	0.070932
C291	C	1.373389	-0.143418	0.404266
C292	C	0.706706	-0.763169	-0.262391
C293	C	1.040039	-0.429836	0.070942
C294	C	1.373373	-0.096502	0.404275
C295	C	0.591717	-0.763226	-0.451625
C296	C	0.925051	-0.429892	-0.118292
C297	C	1.258384	-0.096559	0.215041
C298	C	0.591735	-0.810141	-0.451631
C299	C	0.925069	-0.476808	-0.118297
C300	C	1.258402	-0.143475	0.215036
C301	C	0.620490	-0.833585	-0.404326
C302	C	0.953823	-0.500252	-0.070992
C303	C	1.287156	-0.166919	0.262341
C304	C	0.766335	-0.216534	-0.357024
C305	C	1.099668	0.116800	-0.023690
C306	C	1.433001	0.450133	0.309643
C307	C	0.816269	-0.216542	-0.357047
C308	C	1.149603	0.116791	-0.023713
C309	C	1.482936	0.450125	0.309620
C310	C	0.649182	-0.216503	-0.550132
C311	C	0.982516	0.116831	-0.216798
C312	C	1.315849	0.450164	0.116535
C313	C	0.649194	-0.216498	-0.632446
C314	C	0.982527	0.116835	-0.299113
C315	C	1.315860	0.450169	0.034221
C316	C	0.649250	-0.099336	-0.357023
C317	C	0.982583	0.233998	-0.023689
C318	C	1.315917	0.567331	0.309644
C319	C	0.649290	-0.049401	-0.357045
C320	C	0.982623	0.283932	-0.023712
C321	C	1.315957	0.617265	0.309621
C322	C	0.649220	-0.216414	-0.931537
C323	C	0.982553	0.116920	-0.598204
C324	C	1.315886	0.450253	-0.264870
C325	C	0.614353	-0.251017	-0.900180
C326	C	0.947686	0.082316	-0.566847
C327	C	1.281020	0.415650	-0.233513
C328	C	0.614447	-0.251177	-0.814562
C329	C	0.947780	0.082156	-0.481228
C330	C	1.281114	0.415489	-0.147895
C331	C	0.649206	-0.216456	-0.783154
C332	C	0.982540	0.116878	-0.449821
C333	C	1.315873	0.450211	-0.116488
C334	C	0.696537	-0.229311	-0.814265
C335	C	1.029870	0.104023	-0.480932
C336	C	1.363203	0.437356	-0.147598
C337	C	0.696342	-0.229538	-0.899910
C338	C	1.029676	0.103795	-0.566577
C339	C	1.363009	0.437129	-0.233243
C340	C	0.637168	-0.168878	-0.899964
C341	C	0.970501	0.164455	-0.566630
C342	C	1.303834	0.497788	-0.233297
C343	C	0.636114	-0.169153	-0.814313
C344	C	0.969448	0.164180	-0.480979
C345	C	1.302781	0.497514	-0.147646
C346	C	0.649202	-0.216478	-0.699295
C347	C	0.982535	0.116855	-0.365962
C348	C	1.315868	0.450188	-0.032628
C349	C	0.649228	-0.216392	-1.015397
C350	C	0.982561	0.116941	-0.682063
C351	C	1.315894	0.450275	-0.348730
C352	C	0.649156	-0.216493	-0.164559
C353	C	0.982490	0.116840	0.168774
C354	C	1.315823	0.450174	0.502107
C355	C	0.649233	-0.216371	-0.082246
C356	C	0.982566	0.116962	0.251088
C357	C	1.315899	0.450295	0.584421
H358	H	0.036457	-0.135548	-0.223975
H359	H	0.369791	0.197786	0.109358
H360	H	0.703124	0.531119	0.442691
F361	F	0.670361	-0.135180	-0.926471
F362	F	1.003694	0.198153	-0.593138
F363	F	1.337028	0.531486	-0.259805
H364	H	0.622403	-0.286412	-0.794077
H365	H	0.955737	0.046921	-0.460744
H366	H	1.289070	0.380255	-0.127411
F367	F	0.568572	-0.240660	-0.787063
F368	F	0.901906	0.092673	-0.453730
F369	F	1.235239	0.426007	-0.120397
F370	F	0.127438	-0.304689	-0.501865
F371	F	0.460772	0.028645	-0.168532
F372	F	0.794105	0.361978	0.164801
H373	H	-0.094263	-0.164329	-0.271261
H374	H	0.239070	0.169004	0.062073
H375	H	0.572403	0.502338	0.395406
H376	H	0.568303	-0.744141	-0.490148
H377	H	0.901636	-0.410808	-0.156814
H378	H	1.234969	-0.077475	0.176519
F379	F	0.737253	-0.597449	-0.212008
F380	F	1.070587	-0.264115	0.121326
F381	F	1.403920	0.069218	0.454659
F382	F	0.484007	-0.275899	-0.454500
F383	F	0.817341	0.057434	-0.121167
F384	F	1.150674	0.390767	0.212166
F385	F	0.568338	-0.240608	-0.927075
F386	F	0.901671	0.092726	-0.593742
F387	F	1.235004	0.426059	-0.260408
H388	H	0.622230	-0.286037	-0.921704
H389	H	0.955563	0.047297	-0.588370
H390	H	1.288897	0.380630	-0.255037
H391	H	-0.094253	-0.268742	-0.442804
H392	H	0.239080	0.064591	-0.109470
H393	H	0.572413	0.397925	0.223863
H394	H	-0.179375	-0.268743	-0.442817
H395	H	0.153958	0.064591	-0.109484
H396	H	0.487291	0.397924	0.223849
H397	H	0.478141	-0.164299	-0.271144
H398	H	0.811474	0.169035	0.062189
H399	H	1.144807	0.502368	0.395522
H400	H	0.121563	-0.135543	-0.223960
H401	H	0.454896	0.197791	0.109374
H402	H	0.788229	0.531124	0.442707
F403	F	0.708427	-0.381638	-0.259272
F404	F	1.041760	-0.048305	0.074062
F405	F	1.375093	0.285029	0.407395
H406	H	0.036455	-0.297494	-0.490059
H407	H	0.369789	0.035839	-0.156725
H408	H	0.703122	0.369172	0.176608
F409	F	0.708635	-1.050887	-0.259383
F410	F	1.041969	-0.717553	0.073950
F411	F	1.375302	-0.384220	0.407283
F412	F	0.709698	-0.274957	-0.926030
F413	F	1.043031	0.058376	-0.592696
F414	F	1.376364	0.391710	-0.259363
H415	H	0.568264	-0.603384	-0.490144
H416	H	0.901598	-0.270050	-0.156810
H417	H	1.234931	0.063283	0.176523
F418	F	0.708467	-0.478477	-0.259292
F419	F	1.041800	-0.145144	0.074041
F420	F	1.375134	0.188190	0.407374
F421	F	0.737282	-0.694282	-0.212021
F422	F	1.070615	-0.360949	0.121313
F423	F	1.403949	-0.027615	0.454646
F424	F	0.589761	-0.478545	-0.454612
F425	F	0.923094	-0.145212	-0.121279
F426	F	1.256428	0.188122	0.212055
F427	F	0.589941	-1.050932	-0.454705
F428	F	0.923275	-0.717599	-0.121371
F429	F	1.256608	-0.384265	0.211962
H430	H	0.723201	-0.205429	-0.920656
H431	H	1.056534	0.127905	-0.587322
H432	H	1.389868	0.461238	-0.253989
F433	F	0.708608	-0.954033	-0.259360
F434	F	1.041941	-0.620700	0.073973
F435	F	1.375275	-0.287367	0.407307
F436	F	0.589917	-0.954095	-0.454703
F437	F	0.923250	-0.620762	-0.121370
F438	F	1.256584	-0.287428	0.211963
H439	H	0.723212	-0.204899	-0.793924
H440	H	1.056546	0.128434	-0.460591
H441	H	1.389879	0.461767	-0.127258
F442	F	0.387169	-0.275902	-0.454538
F443	F	0.720502	0.057432	-0.121205
F444	F	1.053835	0.390765	0.212129
F445	F	0.592840	-0.153571	-0.928171
F446	F	0.926173	0.179762	-0.594838
F447	F	1.259507	0.513096	-0.261504
H448	H	0.601283	-0.159459	-0.793977
H449	H	0.934617	0.173875	-0.460644
H450	H	1.267950	0.507208	-0.127310
H451	H	0.706932	-0.263690	-0.792821
H452	H	1.040265	0.069643	-0.459488
H453	H	1.373598	0.402976	-0.126155
H454	H	0.393017	-0.164299	-0.271162
H455	H	0.726350	0.169034	0.062172
H456	H	1.059684	0.502368	0.395505
H457	H	-0.179371	-0.164342	-0.271270
H458	H	0.153962	0.168992	0.062063
H459	H	0.487296	0.502325	0.395397
H460	H	0.262320	-0.297488	-0.490012
H461	H	0.595653	0.035846	-0.156679
H462	H	0.928986	0.369179	0.176654
F463	F	0.171351	-0.304686	-0.501855
F464	F	0.504684	0.028647	-0.168522
F465	F	0.838018	0.361980	0.164811
H466	H	0.262321	-0.135521	-0.223945
H467	H	0.595654	0.197813	0.109389
H468	H	0.928988	0.531146	0.442722
F469	F	0.171348	-0.128332	-0.212133
F470	F	0.504682	0.205001	0.121200
F471	F	0.838015	0.538335	0.454533
H472	H	0.659657	-0.142003	-0.792934
H473	H	0.992991	0.191331	-0.459600
H474	H	1.326324	0.524664	-0.126267
H475	H	0.568283	-0.688492	-0.490152
H476	H	0.901616	-0.355159	-0.156818
H477	H	1.234949	-0.021826	0.176515
H478	H	0.596927	-0.387553	-0.442772
H479	H	0.930260	-0.054220	-0.109439
H480	H	1.263594	0.279113	0.223895
H481	H	0.568327	-0.829248	-0.490162
H482	H	0.901661	-0.495914	-0.156829
H483	H	1.234994	-0.162581	0.176504
F484	F	0.737297	-0.738195	-0.212030
F485	F	1.070630	-0.404862	0.121303
F486	F	1.403964	-0.071528	0.454637
H487	H	0.730133	-0.829181	-0.223882
H488	H	1.063467	-0.495848	0.109452
H489	H	1.396800	-0.162514	0.442785
