data_functionalizedCrystal
_audit_creation_method	'MofGen! by Chris Wilmer'
_symmetry_space_group_name_H-M	'P1'
_symmetry_Int_Tables_number	1
_symmetry_cell_setting	triclinic
loop_
_symmetry_equiv_pos_as_xyz
  x,y,z
_cell_length_a	6.817900
_cell_length_b	16.256275
_cell_length_c	16.255661
_cell_angle_alpha	95.350152
_cell_angle_beta	103.488922
_cell_angle_gamma	103.500333
loop_
_atom_site_label
_atom_site_type_symbol
_atom_site_fract_x
_atom_site_fract_y
_atom_site_fract_z
V1	V	-4.026776	-0.117778	-0.264174
O2	O	-4.014188	0.004956	-0.258835
O3	O	-3.978390	-0.232858	-0.262665
O4	O	-3.978337	-0.116275	-0.379253
O5	O	-4.014241	-0.112433	-0.141440
V6	V	-4.510407	-0.103061	-0.249458
O7	O	-4.287797	-0.150061	-0.296455
O8	O	-4.699583	-0.070779	-0.217177
O9	O	-4.335586	0.012018	-0.250967
O10	O	-4.640392	-0.225796	-0.254796
O11	O	-4.640339	-0.108406	-0.372192
O12	O	-4.335639	-0.104564	-0.134378
C13	C	-3.823396	-0.260902	-0.258575
C14	C	-3.865121	-0.354983	-0.258108
C15	C	-4.156068	-0.586814	-0.261383
C16	C	-4.122322	-0.651960	-0.329022
C17	C	-3.941423	-0.527229	-0.257239
C18	C	-4.049504	-0.629721	-0.188785
C19	C	-4.015138	-0.693610	-0.256397
C20	C	-3.907157	-0.591145	-0.324943
C21	C	-3.834331	-0.568892	-0.184644
C22	C	-3.800444	-0.634012	-0.252297
C23	C	-3.898963	-0.431381	-0.257726
C24	C	-4.057586	-0.789457	-0.255916
C25	C	-3.823327	-0.112188	-0.407293
C26	C	-3.865007	-0.111721	-0.501373
C27	C	-3.775560	-0.106138	-0.724178
C28	C	-3.932015	-0.178197	-0.793839
C29	C	-3.941391	-0.110845	-0.673620
C30	C	-3.859225	-0.037961	-0.771594
C31	C	-4.015158	-0.109994	-0.840001
C32	C	-4.097328	-0.182968	-0.742051
C33	C	-4.024476	-0.042668	-0.719790
C34	C	-4.181067	-0.114748	-0.789432
C35	C	-3.898890	-0.111335	-0.577772
C36	C	-4.057676	-0.109510	-0.935848
C37	C	-4.153923	0.040058	-0.255055
C38	C	-4.091435	0.134138	-0.255527
C39	C	-4.153992	-0.108654	-0.106334
C40	C	-4.091551	-0.109117	-0.012253
H41	H	-3.712256	-0.532828	-0.123605
H42	H	-3.650355	-0.654729	-0.248471
H43	H	-4.352942	-0.118407	-0.817788
O44	O	-4.267833	-0.694879	-0.401923
C45	C	-4.194253	-0.674340	-0.473604
H46	H	-4.071675	-0.609970	-0.455520
H47	H	-4.121368	-0.726045	-0.495331
C48	C	-4.528470	-0.748075	-0.569194
C49	C	-4.377930	-0.669010	-0.546985
H50	H	-4.641770	-0.744791	-0.614460
H51	H	-4.578041	-0.761915	-0.520902
H52	H	-4.467707	-0.791154	-0.587295
H53	H	-4.438688	-0.625935	-0.528874
H54	H	-4.328374	-0.655163	-0.595276
H55	H	-3.893373	-0.235496	-0.826072
H56	H	-3.846693	-0.574019	-0.382552
O57	O	-3.739707	0.035091	-0.787756
C58	C	-3.782430	0.034906	-0.876929
H59	H	-3.849131	-0.033817	-0.911707
H60	H	-3.900896	0.073348	-0.896938
C61	C	-3.497041	0.160015	-0.857616
C62	C	-3.578949	0.075608	-0.900330
H63	H	-3.371529	0.185125	-0.872052
H64	H	-3.468262	0.160142	-0.797538
H65	H	-3.595783	0.192039	-0.874294
H66	H	-3.480218	0.043583	-0.883644
H67	H	-3.607707	0.075476	-0.960407
O68	O	-4.070163	0.025784	-0.681320
C69	C	-3.943726	0.102073	-0.695879
H70	H	-3.797139	0.089124	-0.710517
H71	H	-4.034606	0.126142	-0.752546
C72	C	-4.060903	0.186287	-0.597485
C73	C	-3.880854	0.170385	-0.615455
H74	H	-4.022127	0.228428	-0.547878
H75	H	-4.146093	0.134890	-0.587678
H76	H	-4.136619	0.206341	-0.644713
H77	H	-3.805155	0.150322	-0.568232
H78	H	-3.795649	0.221781	-0.625252
H79	H	-4.110140	-0.646963	-0.131245
H80	H	-3.603804	-0.102591	-0.695688
O81	O	-4.216709	-0.256132	-0.726033
C82	C	-4.175615	-0.255712	-0.636852
H83	H	-4.014401	-0.211257	-0.603900
H84	H	-4.299112	-0.232170	-0.611957
C85	C	-4.379681	-0.401705	-0.658050
C86	C	-4.181667	-0.347111	-0.617578
H87	H	-4.383423	-0.458084	-0.646160
H88	H	-4.407374	-0.401988	-0.718132
H89	H	-4.482574	-0.382077	-0.637300
H90	H	-4.078782	-0.366733	-0.638336
H91	H	-4.153957	-0.346834	-0.557498
H92	H	-4.306013	-0.565956	-0.265315
