data_functionalizedCrystal
_audit_creation_method	'MofGen! by Chris Wilmer'
_symmetry_space_group_name_H-M	'P1'
_symmetry_Int_Tables_number	1
_symmetry_cell_setting	triclinic
loop_
_symmetry_equiv_pos_as_xyz
  x,y,z
_cell_length_a	15.538191
_cell_length_b	16.992695
_cell_length_c	15.455301
_cell_angle_alpha	87.173129
_cell_angle_beta	86.314925
_cell_angle_gamma	68.970158
loop_
_atom_site_label
_atom_site_type_symbol
_atom_site_fract_x
_atom_site_fract_y
_atom_site_fract_z
O1	O	-1.234972	0.247350	0.072138
O2	O	-0.734972	0.747350	0.572138
O3	O	-0.967386	0.158712	0.072139
O4	O	-0.467386	0.658712	0.572139
O5	O	-1.100106	0.316869	0.072132
O6	O	-0.600106	0.816869	0.572132
O7	O	-1.102252	0.089193	0.072145
O8	O	-0.602252	0.589193	0.572145
O9	O	-1.092435	0.320815	-0.072131
O10	O	-0.592435	0.820815	0.427869
O11	O	-0.959715	0.162659	-0.072124
O12	O	-0.459715	0.662659	0.427876
O13	O	-1.227301	0.251296	-0.072125
O14	O	-0.727301	0.751296	0.427875
Cu15	Cu	-1.092808	0.207338	-0.085297
Cu16	Cu	-0.592808	0.707338	0.414703
Cu17	Cu	-1.101880	0.202671	0.085311
Cu18	Cu	-0.601880	0.702671	0.585311
O19	O	-1.094581	0.093140	-0.072118
O20	O	-0.594581	0.593140	0.427882
C21	C	-0.929153	0.151412	0.000007
C22	C	-0.429153	0.651412	0.500007
C23	C	-0.826659	0.123788	0.000007
C24	C	-0.326659	0.623788	0.500007
C25	C	-1.093511	0.347269	0.000000
C26	C	-0.593511	0.847269	0.500000
C27	C	-1.085276	0.431969	0.000000
C28	C	-0.585276	0.931969	0.500000
C29	C	-1.265534	0.258597	0.000009
C30	C	-0.765534	0.758597	0.500009
C31	C	-1.368029	0.286220	0.000014
C32	C	-0.868029	0.786220	0.500014
C33	C	-0.518209	0.398222	0.000004
C34	C	-0.018209	0.898222	0.500004
C35	C	-0.421899	0.372246	0.000007
C36	C	0.078101	0.872246	0.500007
C37	C	-0.410455	0.226137	0.000015
C38	C	0.089545	0.726137	0.500015
C39	C	-0.506766	0.252101	0.000009
C40	C	-0.006766	0.752101	0.500009
C41	C	-0.560636	0.338144	0.000004
C42	C	-0.060636	0.838144	0.500004
C43	C	-0.549193	0.192023	0.000009
C44	C	-0.049193	0.692023	0.500009
C45	C	-0.645496	0.217985	0.000007
C46	C	-0.145496	0.717985	0.500007
C47	C	-0.699372	0.304025	0.000005
C48	C	-0.199372	0.804025	0.500005
C49	C	-0.656938	0.364106	0.000002
C50	C	-0.156938	0.864106	0.500002
C51	C	-0.495322	0.105980	0.000019
C52	C	0.004678	0.605980	0.500019
C53	C	-0.537749	0.045902	0.000019
C54	C	-0.037749	0.545902	0.500019
C55	C	-0.634053	0.071864	0.000011
C56	C	-0.134053	0.571864	0.500011
C57	C	-0.687929	0.157904	0.000009
C58	C	-0.187929	0.657904	0.500009
C59	C	-0.676487	0.011782	0.000014
C60	C	-0.176487	0.511782	0.500014
C61	C	-0.772790	0.037744	0.000012
C62	C	-0.272790	0.537744	0.500012
C63	C	-0.784232	0.183866	0.000007
C64	C	-0.284232	0.683866	0.500007
C65	C	-1.101177	0.062740	0.000016
C66	C	-0.601177	0.562740	0.500016
C67	C	-1.109412	-0.021961	0.000021
C68	C	-0.609412	0.478039	0.500021
N69	N	-1.086433	0.210623	-0.205293
N70	N	-0.586433	0.710623	0.294707
C71	C	-1.164729	0.504823	-0.000001
C72	C	-0.664729	1.004823	0.499999
C73	C	-1.156987	0.584406	0.000008
C74	C	-0.656987	1.084406	0.500008
C75	C	-1.069790	0.591133	0.000011
C76	C	-0.569790	1.091133	0.500011
C77	C	-0.990331	0.518272	0.000014
C78	C	-0.490331	1.018272	0.500014
C79	C	-0.998075	0.438690	0.000012
C80	C	-0.498075	0.938690	0.500012
C81	C	-1.037696	0.825596	0.000023
C82	C	-0.537696	1.325596	0.500023
C83	C	-1.029958	0.905186	0.000022
C84	C	-0.529958	1.405186	0.500022
C85	C	-1.196615	0.971314	0.000017
C86	C	-0.696615	1.471314	0.500017
C87	C	-1.204351	0.891729	0.000010
C88	C	-0.704351	1.391729	0.500010
C89	C	-1.124892	0.818874	0.000018
C90	C	-0.624892	1.318874	0.500018
N91	N	-1.061874	0.672479	0.000016
N92	N	-0.561874	1.172479	0.500016
N93	N	-1.132809	0.737530	0.000019
N94	N	-0.632809	1.237530	0.500019
C95	C	-1.143461	0.181196	-0.250681
C96	C	-0.643461	0.681196	0.249319
C97	C	-1.138652	0.183689	-0.341489
C98	C	-0.638652	0.683689	0.158511
C99	C	-1.076811	0.215604	-0.386908
C100	C	-0.576811	0.715604	0.113092
C101	C	-1.019781	0.245035	-0.341514
C102	C	-0.519781	0.745035	0.158486
C103	C	-1.024595	0.242548	-0.250707
C104	C	-0.524595	0.742548	0.249293
C105	C	-1.056045	0.226337	-0.658492
C106	C	-0.556045	0.726337	-0.158492
C107	C	-1.051233	0.228820	-0.749305
C108	C	-0.551233	0.728820	-0.249305
C109	C	-1.170106	0.167476	-0.749274
C110	C	-0.670106	0.667476	-0.249274
C111	C	-1.174911	0.164986	-0.658465
C112	C	-0.674911	0.664986	-0.158465
C113	C	-1.117884	0.194422	-0.613079
C114	C	-0.617884	0.694422	-0.113079
N115	N	-1.071892	0.218150	-0.479729
N116	N	-0.571892	0.718150	0.020271
N117	N	-1.122808	0.191881	-0.520260
N118	N	-0.622808	0.691881	-0.020260
N119	N	-1.108261	0.199394	0.205307
N120	N	-0.608261	0.699394	0.705307
H121	H	-0.828096	0.253931	-0.000001
H122	H	-0.328096	0.753931	0.499999
H123	H	-0.807334	-0.011177	0.000004
H124	H	-0.307334	0.488823	0.500004
F125	F	-0.937147	0.912340	0.000021
F126	F	-0.437147	1.412340	0.500021
F127	F	-0.995325	0.257634	-0.610200
F128	F	-0.495325	0.757634	-0.110200
F129	F	-0.913509	0.361153	0.000016
F130	F	-0.413509	0.861153	0.500016
H131	H	-0.700802	0.434172	-0.000006
H132	H	-0.200802	0.934172	0.499994
H133	H	-1.221686	0.643723	0.000005
H134	H	-0.721686	1.143723	0.500005
H135	H	-1.193814	0.155202	-0.213707
H136	H	-0.693814	0.655202	0.286293
F137	F	-1.199348	0.152367	-0.389790
F138	F	-0.699348	0.652367	0.110210
H139	H	-0.969433	0.271026	-0.378502
H140	H	-0.469433	0.771026	0.121498
H141	H	-0.972995	0.766286	0.000029
H142	H	-0.472995	1.266286	0.500029
F143	F	-1.240702	0.130984	-0.610134
F144	F	-0.740702	0.630984	-0.110134
H145	H	-0.562072	0.468287	-0.000004
H146	H	-0.062072	0.968287	0.499996
F147	F	-1.230795	0.136152	-0.797584
F148	F	-0.730795	0.636152	-0.297584
F149	F	-0.480408	-0.045669	0.000029
F150	F	0.019592	0.454331	0.500029
H151	H	-1.235734	0.499355	-0.000009
H152	H	-0.735734	0.999355	0.499991
F153	F	-1.281175	1.048855	0.000009
F154	F	-0.781175	1.548855	0.500009
F155	F	-0.392827	0.078350	0.000022
F156	F	0.107173	0.578350	0.500022
H157	H	-1.000870	0.254808	-0.786283
H158	H	-0.500870	0.754808	-0.286283
F159	F	-0.897530	0.525433	0.000028
F160	F	-0.397530	1.025433	0.500028
F161	F	-0.963905	0.273876	-0.202403
F162	F	-0.463905	0.773876	0.297597
H163	H	-0.366582	0.156080	0.000022
H164	H	0.133418	0.656080	0.500022
F165	F	-0.619144	-0.079788	0.000031
F166	F	-0.119144	0.420212	0.500031
F167	F	-0.376748	0.436196	-0.000004
F168	F	0.123252	0.936196	0.499996
F169	F	-0.801867	0.331656	0.000008
F170	F	-0.301867	0.831656	0.500008
H171	H	-1.275356	0.886260	0.000007
H172	H	-0.775356	1.386260	0.500007
