data_functionalizedCrystal
_audit_creation_method	'MofGen! by Chris Wilmer'
_symmetry_space_group_name_H-M	'P1'
_symmetry_Int_Tables_number	1
_symmetry_cell_setting	triclinic
loop_
_symmetry_equiv_pos_as_xyz
  x,y,z
_cell_length_a	21.395362
_cell_length_b	16.625546
_cell_length_c	21.395356
_cell_angle_alpha	89.972354
_cell_angle_beta	89.957023
_cell_angle_gamma	90.038346
loop_
_atom_site_label
_atom_site_type_symbol
_atom_site_fract_x
_atom_site_fract_y
_atom_site_fract_z
Zn1	Zn	0.957889	-0.320680	-0.354586
Zn2	Zn	0.957809	-0.455517	-0.249808
Zn3	Zn	0.853106	-0.320739	-0.249787
Zn4	Zn	0.853089	-0.455512	-0.354513
O5	O	0.905473	-0.388112	-0.302174
O6	O	1.045557	-0.338544	-0.340726
O7	O	0.943893	-0.437665	-0.162128
O8	O	0.867047	-0.207899	-0.263710
O9	O	1.045497	-0.437608	-0.263747
O10	O	0.944031	-0.207856	-0.340706
O11	O	0.866969	-0.338645	-0.162112
O12	O	0.765426	-0.338640	-0.263640
O13	O	0.867017	-0.437599	-0.442201
O14	O	0.765413	-0.437657	-0.340582
O15	O	0.944014	-0.338539	-0.442254
O16	O	0.943876	-0.568349	-0.263676
O17	O	0.866939	-0.568345	-0.340602
C18	C	0.742686	-0.388155	-0.302101
C19	C	0.673044	-0.388192	-0.302085
C20	C	0.640341	-0.439819	-0.342088
C21	C	0.574905	-0.439799	-0.342116
C22	C	0.542176	-0.388161	-0.302129
C23	C	0.574887	-0.336525	-0.262123
C24	C	0.640321	-0.336540	-0.262101
C25	C	0.438451	-0.381677	-0.245724
C26	C	0.373019	-0.381668	-0.245745
C27	C	0.340355	-0.388109	-0.302198
C28	C	0.373133	-0.394577	-0.358632
C29	C	0.438567	-0.394592	-0.358610
C30	C	0.471224	-0.388138	-0.302149
C31	C	0.236699	-0.439716	-0.342236
C32	C	0.171263	-0.439691	-0.342265
C33	C	0.171246	-0.336421	-0.262266
C34	C	0.236681	-0.336442	-0.262242
C35	C	0.269404	-0.388094	-0.302227
C36	C	0.905414	-0.597603	-0.302147
C37	C	0.905446	-0.687224	-0.302157
C38	C	0.905555	-1.015400	-0.302222
C39	C	0.905523	-0.924091	-0.302206
C40	C	0.905500	-0.851315	-0.302189
C41	C	0.905469	-0.760001	-0.302174
C42	C	1.068897	-0.388070	-0.302247
C43	C	1.138538	-0.388052	-0.302278
C44	C	0.905522	-0.388062	-0.465597
C45	C	0.905544	-0.388041	-0.535238
C46	C	0.905550	-0.177803	-0.302214
C47	C	0.905582	-0.088182	-0.302231
C48	C	0.865500	-0.336475	-0.567933
C49	C	0.865497	-0.336460	-0.633369
C50	C	0.905550	-0.388002	-0.666107
C51	C	0.945597	-0.439578	-0.633404
C52	C	0.945594	-0.439597	-0.567969
C53	C	0.962003	-0.394322	-0.769812
C54	C	0.962008	-0.394297	-0.835245
C55	C	0.905561	-0.387948	-0.867927
C56	C	0.849108	-0.381607	-0.835169
C57	C	0.849104	-0.381626	-0.769735
C58	C	0.905558	-0.387988	-0.737059
C59	C	0.865511	-0.336363	-0.971575
C60	C	0.865508	-0.336354	-1.037012
C61	C	0.945613	-0.439468	-1.037045
C62	C	0.945611	-0.439481	-0.971610
C63	C	0.905561	-0.387925	-0.938879
C64	C	0.905460	-0.388104	-0.139386
C65	C	0.905561	-0.387898	-0.069745
H66	H	0.666948	-0.294498	-0.229525
F67	F	0.988238	-0.494328	-1.071883
F68	F	0.136458	-0.494638	-0.384848
F69	F	1.022089	-0.401051	-0.870103
H70	H	0.832885	-0.294497	-0.541288
H71	H	0.346540	-0.399820	-0.404602
F72	F	0.136417	-0.281460	-0.219712
H73	H	0.263344	-0.481770	-0.374796
H74	H	0.465252	-0.399856	-0.404560
F75	F	0.988235	-0.494361	-0.936812
H76	H	0.263309	-0.294407	-0.229664
F77	F	0.675163	-0.494789	-0.384645
F78	F	0.338140	-0.374784	-0.185685
F79	F	0.473208	-0.374823	-0.185635
H80	H	0.548235	-0.294480	-0.229567
H81	H	0.978208	-0.481545	-0.660063
F82	F	0.822886	-0.281561	-0.668172
F83	F	0.540093	-0.494749	-0.384695
H84	H	0.803143	-0.376432	-0.861777
F85	F	0.789024	-0.374882	-0.734873
F86	F	0.822884	-0.281497	-0.936738
F87	F	0.822871	-0.281486	-1.071808
H88	H	1.007973	-0.399485	-0.743207
H89	H	0.978205	-0.481588	-0.541349
