data_functionalizedCrystal
_audit_creation_method	'MofGen! by Chris Wilmer'
_symmetry_space_group_name_H-M	'P1'
_symmetry_Int_Tables_number	1
_symmetry_cell_setting	triclinic
loop_
_symmetry_equiv_pos_as_xyz
  x,y,z
_cell_length_a	10.723023
_cell_length_b	10.723024
_cell_length_c	9.798715
_cell_angle_alpha	90.002215
_cell_angle_beta	90.003620
_cell_angle_gamma	84.467709
loop_
_atom_site_label
_atom_site_type_symbol
_atom_site_fract_x
_atom_site_fract_y
_atom_site_fract_z
O1	O	-1.657187	-0.175020	-0.113493
O2	O	-1.294035	-0.191775	-0.113494
O3	O	-1.483988	-0.001821	-0.113489
O4	O	-1.467235	-0.364974	-0.113499
O5	O	-1.483975	-0.001820	0.113494
O6	O	-1.294022	-0.191773	0.113488
O7	O	-1.657174	-0.175019	0.113489
Zn8	Zn	-1.475596	-0.183396	0.149527
Zn9	Zn	-1.475613	-0.183398	-0.149532
O10	O	-1.467221	-0.364972	0.113483
C11	C	-1.247529	-0.190555	-0.000003
C12	C	-1.108974	-0.186908	-0.000004
C13	C	-1.482762	0.044679	0.000001
C14	C	-1.479114	0.183233	-0.000004
C15	C	-1.047195	-0.185281	0.117580
C16	C	-0.903992	-0.181511	0.117582
N17	N	-1.475593	-0.183394	0.353627
C18	C	-0.703680	-0.176239	-0.000002
C19	C	-0.842235	-0.179886	-0.000001
C20	C	-1.468447	-0.411473	-0.000009
C21	C	-1.472095	-0.550027	-0.000013
C22	C	-1.585402	0.258216	-0.000006
C23	C	-1.581634	0.401420	-0.000011
N24	N	-1.475626	-0.183390	-0.353632
C25	C	-1.555546	-0.103465	0.578561
C26	C	-1.555529	-0.103466	0.421398
H27	H	-1.100322	-0.186672	0.218245
N28	N	-1.389788	-0.269257	0.573248
N29	N	-1.430129	-0.347001	0.493483
H30	H	-1.369505	-0.407650	0.441844
N31	N	-1.361443	0.235664	0.000012
N32	N	-1.261514	0.165241	0.000023
H33	H	-1.178403	0.202266	0.000038
H34	H	-1.623988	-0.035040	0.636857
H35	H	-1.623948	-0.035034	0.363086
H36	H	-1.672625	0.465852	-0.000006
H37	H	-1.381099	0.385548	-0.000003
N38	N	-0.837333	-0.179774	0.243864
N39	N	-0.721098	-0.176723	0.243687
H40	H	-0.674015	-0.175500	0.332877
N41	N	-1.389730	-0.269241	0.426737
N42	N	-1.274356	-0.266523	0.410902
H43	H	-1.213712	-0.327153	0.462544
N44	N	-0.908884	-0.181622	-0.126290
N45	N	-0.992310	-0.095720	-0.153785
H46	H	-1.039390	-0.096942	-0.242977
N47	N	-1.042359	-0.185167	-0.126308
N48	N	-1.100367	-0.186699	-0.236855
H49	H	-1.053324	-0.185470	-0.326063
N50	N	-1.703052	0.205744	-0.000020
N51	N	-1.705946	0.089490	-0.000024
H52	H	-1.789039	0.052432	-0.000036
