data_functionalizedCrystal
_audit_creation_method	'MofGen! by Chris Wilmer'
_symmetry_space_group_name_H-M	'P1'
_symmetry_Int_Tables_number	1
_symmetry_cell_setting	triclinic
loop_
_symmetry_equiv_pos_as_xyz
  x,y,z
_cell_length_a	10.489741
_cell_length_b	15.186229
_cell_length_c	16.109301
_cell_angle_alpha	89.994833
_cell_angle_beta	84.000327
_cell_angle_gamma	89.999333
loop_
_atom_site_label
_atom_site_type_symbol
_atom_site_fract_x
_atom_site_fract_y
_atom_site_fract_z
O1	O	1.692350	-0.073177	0.117298
O2	O	1.320995	-0.073191	0.128308
O3	O	1.516874	-0.073175	0.001835
O4	O	1.496471	-0.073194	0.243771
O5	O	1.516861	0.073282	0.001833
O6	O	1.320981	0.073266	0.128306
O7	O	1.692337	0.073280	0.117296
Zn8	Zn	1.506657	0.096526	0.122801
Zn9	Zn	1.506674	-0.096438	0.122803
O10	O	1.496458	0.073264	0.243769
C11	C	1.273468	0.000036	0.127475
C12	C	1.131875	0.000031	0.124987
C13	C	1.516041	0.000054	-0.029146
C14	C	1.513563	0.000055	-0.121457
N15	N	1.506655	0.228219	0.122798
C16	C	1.064902	0.000045	0.044516
C17	C	0.972231	-0.072167	0.082531
C18	C	0.972251	0.072228	0.082548
C19	C	1.041068	-0.072241	0.163035
C20	C	1.041099	0.072219	0.163041
C21	C	0.948453	-0.000011	0.201115
C22	C	1.739863	0.000051	0.118128
C23	C	1.881456	0.000050	0.120616
N24	N	1.506687	-0.228130	0.122799
C25	C	1.593419	0.453949	0.066815
C26	C	1.593423	0.546139	0.066813
C27	C	1.419913	0.546133	0.178784
C28	C	1.419904	0.453945	0.178782
C29	C	1.506664	0.407856	0.122798
C30	C	1.506677	0.592233	0.122799
C31	C	1.506681	0.692189	0.122797
C32	C	1.506659	0.307893	0.122799
C33	C	1.624032	0.000045	-0.343048
C34	C	1.621694	0.000038	-0.429783
C35	C	1.389290	0.000033	-0.411341
C36	C	1.391630	0.000034	-0.324608
C37	C	1.509004	0.000045	-0.290464
C38	C	1.504327	0.000036	-0.463932
C39	C	1.501791	0.000028	-0.557974
C40	C	1.511541	0.000051	-0.196417
C41	C	1.497291	0.000033	0.274750
C42	C	1.499769	0.000026	0.367060
H43	H	1.115552	-0.000040	-0.021636
H44	H	0.941716	-0.133213	0.048483
H45	H	1.664066	0.583665	0.021226
C46	C	1.082040	-0.154797	0.209015
H47	H	1.172379	-0.154312	0.210297
H48	H	1.041108	-0.154988	0.264474
H49	H	1.057929	-0.206024	0.180630
H50	H	1.297954	0.000031	-0.281792
H51	H	1.071646	0.133268	0.197062
C52	C	1.753135	0.000050	-0.305488
H53	H	1.738058	0.000060	-0.246301
H54	H	1.800499	-0.051022	-0.323486
H55	H	1.800491	0.051131	-0.323497
C56	C	1.748221	0.000036	-0.487626
H57	H	1.730023	0.000022	-0.544172
H58	H	1.796352	0.051109	-0.477209
H59	H	1.796344	-0.051044	-0.477189
C60	C	0.880375	-0.000069	0.290570
H61	H	0.903918	-0.051414	0.319016
H62	H	0.904996	0.050737	0.319370
H63	H	0.790199	0.000414	0.288507
H64	H	1.664063	0.416425	0.021229
C65	C	0.931066	0.154704	0.036536
H66	H	0.971358	0.154612	-0.019094
H67	H	0.840648	0.154402	0.035724
H68	H	0.955812	0.205981	0.064584
H69	H	1.293728	0.000026	-0.439152
H70	H	1.349251	0.416413	0.224370
H71	H	1.349276	0.583669	0.224366
