data_functionalizedCrystal
_audit_creation_method	'MofGen! by Chris Wilmer'
_symmetry_space_group_name_H-M	'P1'
_symmetry_Int_Tables_number	1
_symmetry_cell_setting	triclinic
loop_
_symmetry_equiv_pos_as_xyz
  x,y,z
_cell_length_a	10.654550
_cell_length_b	14.519709
_cell_length_c	9.130313
_cell_angle_alpha	89.997798
_cell_angle_beta	89.996220
_cell_angle_gamma	84.082524
loop_
_atom_site_label
_atom_site_type_symbol
_atom_site_fract_x
_atom_site_fract_y
_atom_site_fract_z
O1	O	1.666589	0.129528	-0.121923
O2	O	2.166589	0.629528	0.378077
O3	O	1.300991	0.141869	-0.121900
O4	O	1.800991	0.641869	0.378100
O5	O	1.493483	0.001510	-0.121899
O6	O	1.993483	0.501510	0.378101
O7	O	1.474097	0.269887	-0.121924
O8	O	1.974097	0.769887	0.378076
O9	O	1.493481	0.001514	0.121700
O10	O	1.993481	0.501514	0.621700
O11	O	1.300989	0.141873	0.121699
O12	O	1.800989	0.641873	0.621699
O13	O	1.666586	0.129532	0.121676
O14	O	2.166586	0.629532	0.621676
Cu15	Cu	1.483787	0.135703	0.143930
Cu16	Cu	1.983787	0.635703	0.643930
Cu17	Cu	1.483790	0.135698	-0.144154
Cu18	Cu	1.983790	0.635698	0.355846
O19	O	1.474094	0.269891	0.121675
O20	O	1.974094	0.769891	0.621675
C21	C	1.254201	0.140965	-0.000098
C22	C	1.754201	0.640965	0.499902
C23	C	1.114784	0.138254	-0.000088
C24	C	1.614784	0.638254	0.499912
C25	C	1.034504	0.220895	-0.000117
C26	C	1.534504	0.720895	0.499883
C27	C	0.903507	0.218342	-0.000143
C28	C	1.403507	0.718342	0.499857
C29	C	0.933085	0.050500	-0.000116
C30	C	1.433085	0.550500	0.499884
C31	C	1.064078	0.053054	-0.000080
C32	C	1.564078	0.553054	0.499920
C33	C	1.017426	0.317797	-0.000139
C34	C	1.517426	0.817797	0.499861
C35	C	0.886430	0.315244	-0.000164
C36	C	1.386430	0.815244	0.499836
C37	C	1.492579	-0.032852	-0.000099
C38	C	1.992579	0.467148	0.499901
C39	C	1.489871	-0.135247	-0.000098
C40	C	1.989871	0.364753	0.499902
C41	C	1.479904	-0.510195	-0.000136
C42	C	1.979904	-0.010195	0.499864
C43	C	1.482672	-0.405873	-0.000125
C44	C	1.982672	0.094127	0.499875
C45	C	1.484887	-0.322725	-0.000116
C46	C	1.984887	0.177275	0.499884
C47	C	1.487656	-0.218396	-0.000108
C48	C	1.987656	0.281604	0.499892
C49	C	1.713377	0.130436	-0.000130
C50	C	2.213377	0.630436	0.499870
C51	C	1.852794	0.133147	-0.000149
C52	C	2.352794	0.633147	0.499851
C53	C	1.474999	0.304253	-0.000128
C54	C	1.974999	0.804253	0.499872
C55	C	1.477707	0.406648	-0.000139
C56	C	1.977707	0.906648	0.499861
N57	N	1.483795	0.135705	0.346552
N58	N	1.983795	0.635705	0.846552
N59	N	1.483793	0.135688	-0.346777
N60	N	1.983793	0.635688	0.153223
C61	C	1.569052	0.073576	0.423205
C62	C	2.069052	0.573576	0.923205
C63	C	1.569048	0.073565	0.576542
C64	C	2.069048	0.573565	1.076542
C65	C	1.398527	0.197821	0.576560
C66	C	1.898527	0.697821	1.076560
C67	C	1.398525	0.197827	0.423226
C68	C	1.898525	0.697827	0.923226
C69	C	1.667505	0.001840	0.423195
C70	C	2.167505	0.501840	0.923195
C71	C	1.667502	0.001829	0.576532
C72	C	2.167502	0.501829	1.076532
H73	H	0.891784	-0.018867	-0.000131
H74	H	1.391784	0.481133	0.499869
C75	C	1.304832	0.266245	0.338914
C76	C	1.804832	0.766245	0.838914
N77	N	1.234297	0.317809	0.275410
N78	N	1.734297	0.817809	0.775410
C79	C	0.824338	0.354828	0.141892
C80	C	1.324338	0.854828	0.641892
N81	N	0.777568	0.384648	0.248882
N82	N	1.277568	0.884648	0.748882
C83	C	1.797645	0.023246	0.632750
C84	C	2.297645	0.523246	1.132750
N85	N	1.895653	0.039404	0.675093
N86	N	2.395653	0.539404	1.175093
H87	H	1.329102	0.248398	0.639004
H88	H	1.829102	0.748398	1.139004
H89	H	1.046392	0.355697	0.101809
H90	H	1.546392	0.855697	0.601809
H91	H	1.052786	0.348651	-0.105314
H92	H	1.552786	0.848651	0.394686
H93	H	1.646744	-0.069045	0.381583
H94	H	2.146744	0.430955	0.881583
H95	H	1.758473	0.024302	0.375629
H96	H	2.258473	0.524302	0.875629
H97	H	1.637633	-0.065157	0.624088
H98	H	2.137633	0.434843	1.124088
H99	H	1.129439	-0.014241	-0.000035
H100	H	1.629439	0.485759	0.499965
H101	H	0.844347	0.351754	-0.102121
H102	H	1.344347	0.851754	0.397879
