data_functionalizedCrystal
_audit_creation_method	'MofGen! by Chris Wilmer'
_symmetry_space_group_name_H-M	'P1'
_symmetry_Int_Tables_number	1
_symmetry_cell_setting	triclinic
loop_
_symmetry_equiv_pos_as_xyz
  x,y,z
_cell_length_a	10.489741
_cell_length_b	10.489741
_cell_length_c	9.565339
_cell_angle_alpha	89.999484
_cell_angle_beta	90.000900
_cell_angle_gamma	84.539174
loop_
_atom_site_label
_atom_site_type_symbol
_atom_site_fract_x
_atom_site_fract_y
_atom_site_fract_z
O1	O	-1.694053	-0.179959	-0.116173
O2	O	-1.322857	-0.196852	-0.116194
O3	O	-1.516901	-0.002807	-0.116175
O4	O	-1.500009	-0.374003	-0.116192
O5	O	-1.516886	-0.002819	0.116345
O6	O	-1.322842	-0.196864	0.116326
O7	O	-1.694038	-0.179971	0.116347
Zn8	Zn	-1.508437	-0.188419	0.153254
Zn9	Zn	-1.508458	-0.188403	-0.153101
O10	O	-1.499993	-0.374015	0.116328
C11	C	-1.275318	-0.195582	0.000063
C12	C	-1.133688	-0.191765	0.000055
C13	C	-1.741577	-0.181241	0.000087
C14	C	-1.883206	-0.185058	0.000086
C15	C	-1.065548	-0.068300	0.000074
C16	C	-0.973429	-0.126617	-0.114571
C17	C	-0.973448	-0.126659	0.114676
C18	C	-1.043435	-0.250133	-0.114684
C19	C	-1.043463	-0.250157	0.114665
C20	C	-0.951371	-0.308564	-0.000007
C21	C	-1.515618	0.044718	0.000084
C22	C	-1.511801	0.186348	0.000082
C23	C	-1.501277	-0.421541	0.000066
C24	C	-1.505094	-0.563170	0.000059
N25	N	-1.508433	-0.188429	0.362334
C26	C	-1.388336	0.254488	0.000064
C27	C	-1.446652	0.346604	0.114712
C28	C	-1.446696	0.346591	-0.114534
C29	C	-1.570168	0.276599	0.114824
C30	C	-1.570195	0.276576	-0.114525
C31	C	-1.628600	0.368665	0.000150
N32	N	-1.508472	-0.188383	-0.362180
C33	C	-1.418666	-0.278138	0.453528
C34	C	-1.534163	-0.303949	0.546712
C35	C	-1.392986	-0.162629	0.546704
C36	C	-1.623988	-0.214298	0.453466
C37	C	-1.482735	-0.072928	0.453451
C38	C	-1.598314	-0.098690	0.546593
H39	H	-0.942421	-0.074372	-0.211491
H40	H	-1.721659	-0.236217	0.412683
H41	H	-1.555926	-0.401606	0.587676
H42	H	-1.622356	0.245762	0.211859
H43	H	-0.901947	-0.410168	-0.000074
H44	H	-1.074503	-0.302360	0.211590
H45	H	-1.286824	0.204837	0.000174
C46	C	-1.639584	0.235217	-0.243929
C47	C	-1.574519	0.270273	-0.363654
C48	C	-1.638382	0.232174	-0.482896
H49	H	-1.724460	0.275862	-0.244944
H50	H	-1.642145	0.144935	-0.242596
H51	H	-1.571973	0.360538	-0.364986
H52	H	-1.489648	0.229631	-0.362684
H53	H	-1.640943	0.141892	-0.481564
H54	H	-1.723255	0.272822	-0.483898
H55	H	-1.594239	0.255943	-0.564143
H56	H	-1.115238	0.033196	-0.000065
H57	H	-1.074269	-0.302328	-0.211717
C58	C	-1.453409	0.057189	0.398848
C59	C	-1.332344	0.083678	0.445978
C60	C	-1.305264	0.203520	0.395687
H61	H	-1.516233	0.121231	0.432065
H62	H	-1.454317	0.056462	0.299534
H63	H	-1.331446	0.084415	0.545271
H64	H	-1.269494	0.019667	0.412764
H65	H	-1.306171	0.202793	0.296373
H66	H	-1.368095	0.267552	0.428908
H67	H	-1.223115	0.221503	0.427647
C68	C	-0.932330	-0.056787	0.243867
C69	C	-0.990692	0.068934	0.243327
C70	C	-0.952861	0.133343	0.362315
H71	H	-0.841919	-0.055400	0.243507
H72	H	-0.957513	-0.099758	0.325316
H73	H	-0.965501	0.111895	0.161899
H74	H	-1.081102	0.067585	0.243708
H75	H	-0.978045	0.090371	0.443764
H76	H	-0.862450	0.134720	0.361945
H77	H	-0.992464	0.218647	0.361971
H78	H	-1.394405	0.377611	0.211633
H79	H	-1.730204	0.418089	0.000220
C80	C	-1.262664	-0.133724	0.601116
C81	C	-1.169046	-0.227951	0.553928
C82	C	-1.048975	-0.201368	0.604001
H83	H	-1.263661	-0.133170	0.700414
H84	H	-1.243711	-0.052328	0.567768
H85	H	-1.187994	-0.309327	0.587284
H86	H	-1.168008	-0.228521	0.454637
H87	H	-1.030022	-0.119971	0.570653
H88	H	-1.049986	-0.200813	0.703298
H89	H	-0.985439	-0.265289	0.571982
H90	H	-1.394447	0.377560	-0.211470
H91	H	-1.674328	-0.022802	0.587199
H92	H	-1.342823	-0.354073	0.412665
