data_functionalizedCrystal
_audit_creation_method	'MofGen! by Chris Wilmer'
_symmetry_space_group_name_H-M	'P1'
_symmetry_Int_Tables_number	1
_symmetry_cell_setting	triclinic
loop_
_symmetry_equiv_pos_as_xyz
  x,y,z
_cell_length_a	15.944551
_cell_length_b	14.853567
_cell_length_c	13.330367
_cell_angle_alpha	90.004582
_cell_angle_beta	89.994404
_cell_angle_gamma	96.433166
loop_
_atom_site_label
_atom_site_type_symbol
_atom_site_fract_x
_atom_site_fract_y
_atom_site_fract_z
O1	O	0.109665	-1.196228	-0.083357
O2	O	0.122728	-0.933752	-0.083374
O3	O	-0.006070	-1.072158	-0.083356
O4	O	0.238463	-1.057822	-0.083375
O5	O	-0.006073	-1.072137	0.083491
O6	O	0.122725	-0.933732	0.083473
O7	O	0.109662	-1.196208	0.083491
Cu8	Cu	0.116193	-1.064968	0.098716
Cu9	Cu	0.116197	-1.064992	-0.098600
O10	O	0.238460	-1.057802	0.083472
C11	C	0.122135	-0.900154	0.000047
C12	C	0.120361	-0.800072	0.000041
C13	C	-0.037367	-1.071552	0.000068
C14	C	-0.130615	-1.069768	0.000068
C15	C	0.110255	-1.229806	0.000067
C16	C	0.112029	-1.329887	0.000067
C17	C	-0.345572	-0.979713	0.000049
C18	C	-0.406544	-1.021522	0.082317
C19	C	-0.301344	-1.066541	0.000060
C20	C	-0.406524	-1.021562	-0.082181
C21	C	-0.466260	-1.063416	0.000048
C22	C	-0.361088	-1.108373	0.082397
C23	C	-0.361062	-1.108401	-0.082175
C24	C	-0.422017	-1.150273	0.000113
C25	C	-0.206340	-1.068338	0.000068
C26	C	-0.561263	-1.061626	0.000048
C27	C	0.269756	-1.058407	0.000046
C28	C	0.363004	-1.060191	0.000039
N29	N	0.116190	-1.064958	0.237498
C30	C	0.036354	-0.387646	0.000070
C31	C	0.189369	-0.366169	0.000057
C32	C	0.191037	-0.460201	0.000054
C33	C	0.115362	-0.517960	0.000057
C34	C	0.038019	-0.481687	0.000064
C35	C	0.268379	-0.496480	0.000037
C36	C	0.270050	-0.590517	0.000033
C37	C	0.194374	-0.648278	0.000043
C38	C	0.117028	-0.612000	0.000051
C39	C	0.041353	-0.669759	0.000054
C40	C	-0.035994	-0.633483	0.000069
C41	C	-0.037657	-0.539448	0.000074
C42	C	0.196036	-0.742313	0.000038
C43	C	0.043018	-0.763800	0.000048
N44	N	0.116193	-1.065009	-0.237381
C45	C	0.173206	-1.003703	0.710113
C46	C	0.059180	-1.126305	0.710097
C47	C	0.059178	-1.126295	0.605078
C48	C	0.116191	-1.064989	0.552572
C49	C	0.173207	-1.003693	0.605085
C50	C	0.002169	-1.187595	0.552558
C51	C	0.002164	-1.187588	0.447534
C52	C	0.059174	-1.126277	0.395026
C53	C	0.116192	-1.064978	0.447544
C54	C	0.173205	-1.003672	0.395038
C55	C	0.230220	-0.942368	0.447555
C56	C	0.230217	-0.942382	0.552577
C57	C	0.059177	-1.126264	0.290004
C58	C	0.173206	-1.003662	0.290010
H59	H	-0.312344	-0.907643	0.000126
O60	O	-0.030473	-0.819941	0.000227
C61	C	-0.117377	-0.938617	0.086628
C62	C	-0.034128	-0.875076	0.086562
H63	H	-0.120351	-0.983223	0.156412
H64	H	-0.172971	-0.896579	0.086704
H65	H	-0.120412	-0.983134	0.016765
H66	H	-0.031010	-0.830545	0.156414
H67	H	0.021428	-0.917168	0.086434
H68	H	-0.426694	-0.984789	0.151864
H69	H	-0.097609	-0.680523	0.000065
H70	H	0.329989	-0.449447	0.000024
O71	O	-0.112712	-0.504059	0.000038
C72	C	-0.183087	-0.368708	0.000103
C73	C	-0.098030	-0.408669	0.000125
H74	H	-0.171246	-0.291580	0.000195
H75	H	-0.220500	-0.392430	-0.069736
H76	H	-0.220490	-0.392540	0.069915
H77	H	-0.060559	-0.384854	-0.069639
H78	H	-0.060682	-0.384951	0.070010
O79	O	0.345253	-0.625602	0.000071
C80	C	0.496850	-0.594367	0.000005
C81	C	0.411742	-0.554512	-0.000020
H82	H	0.550629	-0.536910	-0.000090
H83	H	0.501511	-0.637816	0.069847
H84	H	0.501414	-0.637892	-0.069804
H85	H	0.407121	-0.510946	0.069741
H86	H	0.407118	-0.511114	-0.069909
H87	H	0.219624	-0.953788	0.752874
O88	O	0.271234	-0.777403	0.000065
C89	C	0.422831	-0.746171	-0.000025
C90	C	0.337724	-0.706314	-0.000033
H91	H	0.476610	-0.688715	-0.000126
H92	H	0.427498	-0.789623	0.069815
H93	H	0.427385	-0.789695	-0.069836
H94	H	0.333112	-0.662750	0.069730
H95	H	0.333093	-0.662915	-0.069919
O96	O	-0.038705	-0.352264	0.000039
C97	C	-0.109095	-0.216923	0.000126
C98	C	-0.024033	-0.256873	0.000137
H99	H	-0.097262	-0.139794	0.000227
H100	H	-0.146508	-0.240642	-0.069714
H101	H	-0.146493	-0.240767	0.069937
H102	H	0.013434	-0.233047	-0.069626
H103	H	0.013316	-0.233158	0.070024
O104	O	0.228672	-0.944074	0.239165
C105	C	0.341734	-0.822429	0.250264
C106	C	0.278979	-0.889876	0.307970
H107	H	0.382411	-0.778580	0.305869
H108	H	0.383825	-0.861298	0.201114
H109	H	0.305376	-0.777433	0.201078
H110	H	0.315268	-0.934890	0.357212
H111	H	0.236888	-0.850951	0.357057
H112	H	-0.455095	-1.222407	0.000165
O113	O	-0.337012	-1.152055	-0.165247
C114	C	-0.332664	-1.155679	-0.345881
C115	C	-0.359932	-1.106152	-0.251876
H116	H	-0.351201	-1.118598	-0.415944
H117	H	-0.261338	-1.157160	-0.344750
H118	H	-0.365322	-1.227994	-0.346536
H119	H	-0.327335	-1.033815	-0.251160
H120	H	-0.431266	-1.104744	-0.253044
H121	H	-0.341058	-1.145058	0.152025
H122	H	0.276637	-0.892471	0.595342
O123	O	0.003762	-1.185933	0.760941
C124	C	-0.109396	-1.307476	0.749850
C125	C	-0.046657	-1.240014	0.692140
H126	H	-0.150188	-1.351206	0.694249
H127	H	-0.073109	-1.352585	0.798983
H128	H	-0.151378	-1.268527	0.799055
H129	H	-0.004659	-1.278889	0.642880
H130	H	-0.082996	-1.194905	0.643071
H131	H	-0.426641	-0.984835	-0.151738
O132	O	0.262819	-0.309973	-0.000081
C133	C	0.349765	-0.191375	-0.086551
C134	C	0.266540	-0.254956	-0.086511
H135	H	0.352808	-0.146891	-0.156433
H136	H	0.352816	-0.146747	-0.016773
H137	H	0.405317	-0.233472	-0.086506
H138	H	0.210941	-0.212931	-0.086591
H139	H	0.263563	-0.299587	-0.156283
H140	H	0.276644	-0.892456	0.404792
O141	O	-0.053330	-1.247094	0.603459
C142	C	-0.199302	-1.299849	0.635665
C143	C	-0.136535	-1.232438	0.577928
H144	H	-0.266586	-1.288010	0.615061
H145	H	-0.188316	-1.372080	0.615003
H146	H	-0.189463	-1.289320	0.719739
H147	H	-0.146336	-1.242884	0.493841
H148	H	-0.147536	-1.160231	0.598674
O149	O	-0.053185	-1.247053	0.396374
C150	C	-0.071153	-1.369837	0.277390
C151	C	-0.008323	-1.302672	0.335352
H152	H	-0.034907	-1.414810	0.228024
H153	H	-0.112006	-1.413735	0.332792
H154	H	-0.113068	-1.330640	0.228390
H155	H	0.033647	-1.341797	0.384354
H156	H	0.032471	-1.258775	0.279896
H157	H	0.012761	-1.176181	0.247250
