data_functionalizedCrystal
_audit_creation_method	'MofGen! by Chris Wilmer'
_symmetry_space_group_name_H-M	'P1'
_symmetry_Int_Tables_number	1
_symmetry_cell_setting	triclinic
loop_
_symmetry_equiv_pos_as_xyz
  x,y,z
_cell_length_a	12.759395
_cell_length_b	16.120484
_cell_length_c	12.759387
_cell_angle_alpha	87.136424
_cell_angle_beta	90.020509
_cell_angle_gamma	92.926975
loop_
_atom_site_label
_atom_site_type_symbol
_atom_site_fract_x
_atom_site_fract_y
_atom_site_fract_z
Zn1	Zn	1.584987	-0.331828	0.615167
Zn2	Zn	1.575935	-0.471265	0.448379
Zn3	Zn	1.409282	-0.331874	0.439506
Zn4	Zn	1.400339	-0.471205	0.624015
O5	O	1.492636	-0.401543	0.531767
O6	O	1.730807	-0.350331	0.593052
O7	O	1.553783	-0.452818	0.300184
O8	O	1.440121	-0.215202	0.455392
O9	O	1.724157	-0.452774	0.470514
O10	O	1.569211	-0.215169	0.584449
O11	O	1.431344	-0.350408	0.293665
O12	O	1.261075	-0.350350	0.463971
O13	O	1.424878	-0.452673	0.769859
O14	O	1.254504	-0.452717	0.599529
O15	O	1.560539	-0.350273	0.763359
O16	O	1.545111	-0.587922	0.479094
O17	O	1.416101	-0.587879	0.608132
C18	C	1.219669	-0.401533	0.531748
C19	C	1.102891	-0.401549	0.531766
C20	C	1.096077	-0.508315	0.672716
C21	C	1.037808	-0.561705	0.743194
C22	C	0.928086	-0.561715	0.743207
C23	C	0.876630	-0.508328	0.672737
C24	C	0.934899	-0.454938	0.602259
C25	C	1.044623	-0.454935	0.602251
C26	C	0.941713	-0.348169	0.461316
C27	C	1.051436	-0.348161	0.461296
C28	C	0.890258	-0.294781	0.390846
C29	C	0.948526	-0.241394	0.320361
C30	C	1.058255	-0.241387	0.320350
C31	C	1.109704	-0.294771	0.390818
C32	C	1.478681	-0.618150	0.545559
C33	C	1.472808	-0.710816	0.551495
C34	C	1.462090	-0.880477	0.562353
C35	C	1.523370	-0.921768	0.501198
C36	C	1.517406	-1.016173	0.507239
C37	C	1.468052	-0.786063	0.556313
C38	C	1.766669	-0.401554	0.531786
C39	C	1.883445	-0.401558	0.531794
C40	C	1.492720	-0.401461	0.805795
C41	C	1.492756	-0.401426	0.922570
C42	C	1.506673	-0.184090	0.517944
C43	C	1.512655	-0.091424	0.512053
C44	C	1.492616	-0.401564	0.258801
C45	C	1.492798	-0.401364	0.142012
C46	C	1.634028	-0.294805	0.915821
C47	C	1.704680	-0.241481	0.967306
C48	C	1.704707	-0.241451	1.077026
C49	C	1.634074	-0.294748	1.135263
C50	C	1.563422	-0.348071	1.083777
C51	C	1.563404	-0.348098	0.974055
C52	C	1.422147	-0.454688	1.090526
C53	C	1.422123	-0.454723	0.980807
C54	C	1.351514	-0.507985	1.148763
C55	C	1.280866	-0.561313	1.097278
C56	C	1.280842	-0.561342	0.987551
C57	C	1.351472	-0.508047	0.929321
H58	H	1.105691	-0.197905	0.262965
C59	C	1.782377	-0.182857	0.903248
C60	C	1.901374	-0.189671	0.918792
C61	C	1.979070	-0.131046	0.854739
C62	C	1.937767	-0.065605	0.775142
C63	C	1.818764	-0.058788	0.759595
C64	C	1.741069	-0.117414	0.823648
H65	H	1.931954	-0.238117	0.977717
H66	H	2.067164	-0.136092	0.866248
H67	H	1.995282	-0.022207	0.727727
H68	H	1.788184	-0.010343	0.700670
H69	H	1.652974	-0.112367	0.812138
C70	C	1.782424	-0.182797	1.133667
C71	C	1.860116	-0.124172	1.069620
C72	C	1.937833	-0.065520	1.126261
C73	C	1.937857	-0.065493	1.246950
C74	C	1.860162	-0.124120	1.311004
C75	C	1.782445	-0.182772	1.254362
H76	H	1.860101	-0.124191	0.980273
H77	H	1.995348	-0.022120	1.078844
H78	H	1.995387	-0.022075	1.288879
H79	H	1.860177	-0.124101	1.400351
H80	H	1.724930	-0.226172	1.301780
H81	H	1.634094	-0.294711	1.224602
C82	C	1.094410	-0.620429	0.820709
C83	C	1.215100	-0.620425	0.820701
C84	C	1.271697	-0.679146	0.898219
C85	C	1.207604	-0.737871	0.975745
C86	C	1.086907	-0.737876	0.975756
C87	C	1.030310	-0.679155	0.898238
H88	H	1.262552	-0.576952	0.763309
H89	H	1.361046	-0.679142	0.898210
H90	H	1.249501	-0.781340	1.033128
H91	H	1.039456	-0.781350	1.033148
H92	H	0.940962	-0.679160	0.898247
C93	C	1.385165	-0.928496	0.639206
C94	C	1.379237	-1.024266	0.645208
C95	C	1.302310	-1.072297	0.722057
C96	C	1.231313	-1.024556	0.792905
C97	C	1.237238	-0.928780	0.786906
C98	C	1.314164	-0.880750	0.710056
H99	H	1.431796	-1.059612	0.592760
H100	H	1.297924	-1.143197	0.726498
H101	H	1.174367	-1.060111	0.849794
H102	H	1.184679	-0.893435	0.839354
H103	H	1.318551	-0.809850	0.705615
H104	H	1.351537	-0.507953	1.238102
H105	H	0.880644	-0.605185	0.800602
H106	H	1.223356	-0.604699	1.144702
C107	C	1.600284	-0.873749	0.424323
C108	C	1.606208	-0.777979	0.418301
C109	C	1.683114	-0.729956	0.341424
C110	C	1.754095	-0.777704	0.270569
C111	C	1.748174	-0.873480	0.276588
C112	C	1.671268	-0.921503	0.353465
H113	H	1.553661	-0.742628	0.470755
H114	H	1.687497	-0.659056	0.336969
H115	H	1.811025	-0.742155	0.213660
H116	H	1.800721	-0.908831	0.224134
H117	H	1.666885	-0.992403	0.357920
H118	H	1.634022	-0.294832	0.826481
H119	H	1.185418	-0.508318	0.672704
H120	H	1.223298	-0.604756	0.945638
H121	H	0.787289	-0.508334	0.672763
H122	H	0.800916	-0.294790	0.390866
H123	H	1.199045	-0.294773	0.390812
H124	H	0.906622	-0.197927	0.262995
H125	H	1.351463	-0.508069	0.839981
