data_functionalizedCrystal
_audit_creation_method	'MofGen! by Chris Wilmer'
_symmetry_space_group_name_H-M	'P1'
_symmetry_Int_Tables_number	1
_symmetry_cell_setting	triclinic
loop_
_symmetry_equiv_pos_as_xyz
  x,y,z
_cell_length_a	16.120444
_cell_length_b	16.120530
_cell_length_c	16.120297
_cell_angle_alpha	90.128140
_cell_angle_beta	84.384883
_cell_angle_gamma	89.831599
loop_
_atom_site_label
_atom_site_type_symbol
_atom_site_fract_x
_atom_site_fract_y
_atom_site_fract_z
Zn1	Zn	-0.422266	-1.224979	0.554818
Zn2	Zn	-0.172266	-0.974979	0.804818
Zn3	Zn	0.077734	-0.724979	1.054818
Zn4	Zn	0.327734	-0.474979	1.304818
Zn5	Zn	-0.554951	-1.224872	0.422125
Zn6	Zn	-0.304951	-0.974872	0.672125
Zn7	Zn	-0.054951	-0.724872	0.922125
Zn8	Zn	0.195049	-0.474872	1.172125
Zn9	Zn	-0.408182	-1.093719	0.408061
Zn10	Zn	-0.158182	-0.843719	0.658061
Zn11	Zn	0.091818	-0.593719	0.908061
Zn12	Zn	0.341818	-0.343719	1.158061
Zn13	Zn	-0.554183	-1.078869	0.554057
Zn14	Zn	-0.304183	-0.828869	0.804057
Zn15	Zn	-0.054183	-0.578869	1.054057
Zn16	Zn	0.195817	-0.328869	1.304057
O17	O	-0.484895	-1.155610	0.484765
O18	O	-0.234895	-0.905610	0.734765
O19	O	0.015105	-0.655610	0.984765
O20	O	0.265105	-0.405610	1.234765
O21	O	-0.446082	-1.341001	0.543421
O22	O	-0.196082	-1.091001	0.793421
O23	O	0.053918	-0.841001	1.043421
O24	O	0.303918	-0.591001	1.293421
O25	O	-0.529908	-1.213644	0.303627
O26	O	-0.279908	-0.963644	0.553627
O27	O	-0.029908	-0.713644	0.803627
O28	O	0.220092	-0.463644	1.053627
O29	O	-0.293419	-1.117390	0.421961
O30	O	-0.043419	-0.867390	0.671961
O31	O	0.206581	-0.617390	0.921961
O32	O	0.456581	-0.367390	1.171961
O33	O	-0.543565	-1.340922	0.445931
O34	O	-0.293565	-1.090922	0.695931
O35	O	-0.043565	-0.840922	0.945931
O36	O	0.206435	-0.590922	1.195931
O37	O	-0.303767	-1.213826	0.529783
O38	O	-0.053767	-0.963826	0.779783
O39	O	0.196233	-0.713826	1.029783
O40	O	0.446233	-0.463826	1.279783
O41	O	-0.422078	-1.117286	0.293294
O42	O	-0.172078	-0.867286	0.543294
O43	O	0.077922	-0.617286	0.793294
O44	O	0.327922	-0.367286	1.043294
O45	O	-0.421333	-0.975713	0.421223
O46	O	-0.171333	-0.725713	0.671223
O47	O	0.078667	-0.475713	0.921223
O48	O	0.328667	-0.225713	1.171223
O49	O	-0.542257	-1.092082	0.670791
O50	O	-0.292257	-0.842082	0.920791
O51	O	-0.042257	-0.592082	1.170791
O52	O	0.207743	-0.342082	1.420791
O53	O	-0.528600	-0.964804	0.528486
O54	O	-0.278600	-0.714804	0.778486
O55	O	-0.028600	-0.464804	1.028486
O56	O	0.221400	-0.214804	1.278486
O57	O	-0.445338	-1.199428	0.671350
O58	O	-0.195338	-0.949428	0.921350
O59	O	0.054662	-0.699428	1.171350
O60	O	0.304662	-0.449428	1.421350
O61	O	-0.671480	-1.199245	0.445193
O62	O	-0.421480	-0.949245	0.695193
O63	O	-0.171480	-0.699245	0.945193
O64	O	0.078520	-0.449245	1.195193
O65	O	-0.670916	-1.091978	0.542124
O66	O	-0.420916	-0.841978	0.792124
O67	O	-0.170916	-0.591978	1.042124
O68	O	0.079084	-0.341978	1.292124
C69	C	-0.701441	-1.144010	0.495121
C70	C	-0.451441	-0.894010	0.745121
C71	C	-0.201441	-0.644010	0.995121
C72	C	0.048559	-0.394010	1.245121
C73	C	-0.794086	-1.139122	0.499584
C74	C	-0.544086	-0.889122	0.749584
C75	C	-0.294086	-0.639122	0.999584
C76	C	-0.044086	-0.389122	1.249584
C77	C	-0.473356	-0.940172	0.473247
C78	C	-0.223356	-0.690172	0.723247
C79	C	0.026644	-0.440172	0.973247
C80	C	0.276644	-0.190172	1.223247
C81	C	-0.468440	-0.848004	0.468340
C82	C	-0.218440	-0.598004	0.718340
C83	C	0.031560	-0.348004	0.968340
C84	C	0.281560	-0.098004	1.218340
C85	C	-0.495283	-1.144110	0.702158
C86	C	-0.245283	-0.894110	0.952158
C87	C	0.004717	-0.644110	1.202158
C88	C	0.254717	-0.394110	1.452158
C89	C	-0.499710	-1.139210	0.794797
C90	C	-0.249710	-0.889210	1.044797
C91	C	0.000290	-0.639210	1.294797
C92	C	0.250290	-0.389210	1.544797
C93	C	-1.005244	-1.181160	0.461807
C94	C	-0.755244	-0.931160	0.711807
C95	C	-0.505244	-0.681160	0.961807
C96	C	-0.255244	-0.431160	1.211807
C97	C	-0.963704	-1.130213	0.507740
C98	C	-0.713704	-0.880213	0.757740
C99	C	-0.463704	-0.630213	1.007740
C100	C	-0.213704	-0.380213	1.257740
C101	C	-0.869320	-1.135171	0.503201
C102	C	-0.619320	-0.885171	0.753201
C103	C	-0.369320	-0.635171	1.003201
C104	C	-0.119320	-0.385171	1.253201
C105	C	-1.099637	-1.176203	0.466346
C106	C	-0.849637	-0.926203	0.716346
C107	C	-0.599637	-0.676203	0.966346
C108	C	-0.349637	-0.426203	1.216346
C109	C	-0.267506	-1.167277	0.474388
C110	C	-0.017506	-0.917277	0.724388
C111	C	0.232494	-0.667277	0.974388
C112	C	0.482494	-0.417277	1.224388
C113	C	-0.174868	-1.172248	0.469966
C114	C	0.075132	-0.922248	0.719966
C115	C	0.325132	-0.672248	0.969966
C116	C	0.575132	-0.422248	1.219966
C117	C	-0.496481	-1.371889	0.496330
C118	C	-0.246481	-1.121889	0.746330
C119	C	0.003519	-0.871889	0.996330
C120	C	0.253519	-0.621889	1.246330
C121	C	-0.501417	-1.464055	0.501258
C122	C	-0.251417	-1.214055	0.751258
C123	C	-0.001417	-0.964055	1.001258
C124	C	0.248583	-0.714055	1.251258
C125	C	-0.459446	-0.679253	0.459387
C126	C	-0.209446	-0.429253	0.709387
C127	C	0.040554	-0.179253	0.959387
C128	C	0.290554	0.070747	1.209387
C129	C	-0.510409	-0.632801	0.510208
C130	C	-0.260409	-0.382801	0.760208
C131	C	-0.010409	-0.132801	1.010208
C132	C	0.239591	0.117199	1.260208
C133	C	-0.505404	-0.538902	0.505226
C134	C	-0.255404	-0.288902	0.755226
C135	C	-0.005404	-0.038902	1.005226
C136	C	0.244596	0.211098	1.255226
C137	C	-0.464449	-0.773160	0.464367
C138	C	-0.214449	-0.523160	0.714367
C139	C	0.035551	-0.273160	0.964367
C140	C	0.285551	-0.023160	1.214367
C141	C	-0.474490	-1.167116	0.268218
C142	C	-0.224490	-0.917116	0.518218
C143	C	0.025510	-0.667116	0.768218
C144	C	0.275510	-0.417116	1.018218
C145	C	-0.469838	-1.172189	0.175577
C146	C	-0.219838	-0.922189	0.425577
C147	C	0.030162	-0.672189	0.675577
C148	C	0.280162	-0.422189	0.925577
C149	C	-0.507771	-1.130233	0.964409
C150	C	-0.257771	-0.880233	1.214409
C151	C	-0.007771	-0.630233	1.464409
C152	C	0.242229	-0.380233	1.714409
C153	C	-0.461778	-1.181163	1.005971
C154	C	-0.211778	-0.931163	1.255971
C155	C	0.038222	-0.681163	1.505971
C156	C	0.288222	-0.431163	1.755971
C157	C	-0.466264	-1.176169	1.100348
C158	C	-0.216264	-0.926169	1.350348
C159	C	0.033736	-0.676169	1.600348
C160	C	0.283736	-0.426169	1.850348
C161	C	-0.503287	-1.135227	0.870023
C162	C	-0.253287	-0.885227	1.120023
C163	C	-0.003287	-0.635227	1.370023
C164	C	0.246713	-0.385227	1.620023
H165	H	-0.999026	-1.082871	0.550474
H166	H	-0.749026	-0.832871	0.800474
H167	H	-0.499026	-0.582871	1.050474
H168	H	-0.249026	-0.332871	1.300474
H169	H	-0.969926	-1.228498	0.419075
H170	H	-0.719926	-0.978498	0.669075
H171	H	-0.469926	-0.728498	0.919075
H172	H	-0.219926	-0.478498	1.169075
H173	H	-0.419032	-1.228516	0.970673
H174	H	-0.169032	-0.978516	1.220673
H175	H	0.080968	-0.728516	1.470673
H176	H	0.330968	-0.478516	1.720673
H177	H	-0.557796	-0.663552	0.557459
H178	H	-0.307796	-0.413552	0.807459
H179	H	-0.057796	-0.163552	1.057459
H180	H	0.192204	0.086448	1.307459
H181	H	-0.550514	-1.082884	0.999704
H182	H	-0.300514	-0.832884	1.249704
H183	H	-0.050514	-0.582884	1.499704
H184	H	0.199486	-0.332884	1.749704
Cl185	Cl	-0.386288	-0.631777	0.386438
Cl186	Cl	-0.136288	-0.381777	0.636438
Cl187	Cl	0.113712	-0.131777	0.886438
Cl188	Cl	0.363712	0.118223	1.136438
