data_functionalizedCrystal
_audit_creation_method	'MofGen! by Chris Wilmer'
_symmetry_space_group_name_H-M	'P1'
_symmetry_Int_Tables_number	1
_symmetry_cell_setting	triclinic
loop_
_symmetry_equiv_pos_as_xyz
  x,y,z
_cell_length_a	16.992694
_cell_length_b	13.448316
_cell_length_c	14.971486
_cell_angle_alpha	90.002892
_cell_angle_beta	92.858824
_cell_angle_gamma	90.000642
loop_
_atom_site_label
_atom_site_type_symbol
_atom_site_fract_x
_atom_site_fract_y
_atom_site_fract_z
O1	O	1.040570	-0.082568	-0.189671
O2	O	1.540570	0.417432	0.310329
O3	O	0.812283	-0.082598	-0.187591
O4	O	1.312283	0.417402	0.312409
O5	O	0.932545	-0.082575	-0.058861
O6	O	1.432545	0.417425	0.441139
O7	O	0.920308	-0.082591	-0.318401
O8	O	1.420308	0.417409	0.181599
O9	O	0.932533	0.082809	-0.058861
O10	O	1.432533	0.582809	0.441139
O11	O	0.812271	0.082786	-0.187591
O12	O	1.312271	0.582786	0.312409
O13	O	1.040558	0.082816	-0.189672
O14	O	1.540558	0.582816	0.310328
Cu15	Cu	0.926413	0.097902	-0.188631
Cu16	Cu	1.426413	0.597902	0.311369
Cu17	Cu	0.926427	-0.097684	-0.188631
Cu18	Cu	1.426427	0.402316	0.311369
O19	O	0.920296	0.082793	-0.318402
O20	O	1.420296	0.582793	0.181598
C21	C	0.783062	0.000091	-0.184914
C22	C	1.283062	0.500091	0.315086
C23	C	0.696010	0.000080	-0.176927
C24	C	1.196010	0.500080	0.323073
C25	C	0.931992	0.000116	-0.025498
C26	C	1.431992	0.500116	0.474502
C27	C	0.930352	0.000115	0.073914
C28	C	1.430352	0.500115	0.573914
N29	N	0.926409	0.235466	-0.188632
N30	N	1.426409	0.735466	0.311368
C31	C	0.645842	0.000076	-0.253991
C32	C	1.145842	0.500076	0.246009
C33	C	0.564048	0.000090	-0.246481
C34	C	1.064048	0.500090	0.253519
C35	C	0.532424	0.000101	-0.161906
C36	C	1.032424	0.500101	0.338094
C37	C	0.582599	0.000108	-0.084836
C38	C	1.082599	0.500108	0.415164
C39	C	0.664391	0.000101	-0.092347
C40	C	1.164391	0.500101	0.407653
C41	C	0.288797	0.000129	-0.130776
C42	C	0.788797	0.500129	0.369224
C43	C	0.206999	0.000133	-0.123271
C44	C	0.706999	0.500133	0.376729
C45	C	0.188454	0.000117	-0.284917
C46	C	0.688454	0.500117	0.215083
C47	C	0.270248	0.000104	-0.292421
C48	C	0.770248	0.500104	0.207579
C49	C	0.320416	0.000117	-0.215351
C50	C	0.820416	0.500117	0.284649
N51	N	0.448818	0.000112	-0.154227
N52	N	0.948818	0.500112	0.345773
N53	N	0.404020	0.000112	-0.223030
N54	N	0.904020	0.500112	0.276970
C55	C	1.069779	0.000125	-0.192349
C56	C	1.569779	0.500125	0.307651
C57	C	1.156831	0.000130	-0.200336
C58	C	1.656831	0.500130	0.299664
N59	N	0.926438	-0.235248	-0.188624
N60	N	1.426438	0.264752	0.311376
C61	C	0.878832	0.712711	-0.130939
C62	C	1.378832	1.212711	0.369061
C63	C	0.878829	0.608607	-0.130936
C64	C	1.378829	1.108607	0.369064
C65	C	0.926429	0.556547	-0.188623
C66	C	1.426429	1.056547	0.311377
C67	C	0.974040	0.608596	-0.246311
C68	C	1.474040	1.108596	0.253689
C69	C	0.974046	0.712697	-0.246309
C70	C	1.474046	1.212697	0.253691
C71	C	0.974022	0.391616	-0.246313
C72	C	1.474022	0.891616	0.253687
C73	C	0.974015	0.287507	-0.246317
C74	C	1.474015	0.787507	0.253683
C75	C	0.878805	0.287526	-0.130940
C76	C	1.378805	0.787526	0.369060
C77	C	0.878812	0.391627	-0.130938
C78	C	1.378812	0.891627	0.369062
C79	C	0.926422	0.443669	-0.188627
C80	C	1.426422	0.943669	0.311373
C81	C	0.920849	0.000099	-0.351765
C82	C	1.420849	0.500099	0.148235
C83	C	0.922489	0.000094	-0.451177
C84	C	1.422489	0.500094	0.048823
C85	C	1.001003	0.000125	0.126176
C86	C	1.501003	0.500125	0.626176
C87	C	0.999457	0.000115	0.219584
C88	C	1.499457	0.500115	0.719584
C89	C	0.927260	0.000102	0.260729
C90	C	1.427260	0.500102	0.760729
C91	C	0.856603	0.000089	0.208460
C92	C	1.356603	0.500089	0.708460
C93	C	0.858150	0.000092	0.115054
C94	C	1.358150	0.500092	0.615054
C95	C	0.853385	0.000085	0.403149
C96	C	1.353385	0.500085	0.903149
C97	C	0.851838	0.000084	0.496562
C98	C	1.351838	0.500084	0.996562
C99	C	0.994692	0.000108	0.507679
C100	C	1.494692	0.500108	1.007679
C101	C	0.996239	0.000111	0.414272
C102	C	1.496239	0.500111	0.914272
C103	C	0.925582	0.000100	0.362011
C104	C	1.425582	0.500100	0.862011
H105	H	0.671583	0.000066	-0.322861
H106	H	1.171583	0.500066	0.177139
O107	O	0.827472	0.552477	-0.068729
O108	O	1.327472	1.052477	0.431271
H109	H	0.865011	0.505051	-0.023357
H110	H	1.365011	1.005051	0.476643
O111	O	1.025401	0.768827	-0.308522
O112	O	1.525401	1.268827	0.191478
H113	H	1.017418	0.849961	-0.298820
H114	H	1.517418	1.349961	0.201180
O115	O	0.827501	0.447785	-0.068691
O116	O	1.327501	0.947785	0.431309
H117	H	0.794410	0.394110	-0.028560
H118	H	1.294410	0.894110	0.471440
H119	H	0.523204	0.000086	-0.309235
H120	H	1.023204	0.500086	0.190765
O121	O	1.025380	0.552445	-0.308530
O122	O	1.525380	1.052445	0.191470
H123	H	1.058490	0.606125	-0.348636
H124	H	1.558490	1.106125	0.151364
H125	H	1.052223	0.000114	0.550235
H126	H	1.552223	0.500114	1.050235
O127	O	0.827461	0.231405	-0.068705
O128	O	1.327461	0.731405	0.431295
H129	H	0.835462	0.150271	-0.078385
H130	H	1.335462	0.650271	0.421615
H131	H	1.012772	0.245123	-0.293294
H132	H	1.512772	0.745123	0.206706
O133	O	1.075658	0.000124	0.275955
O134	O	1.575658	0.500124	0.775955
H135	H	1.078358	0.067524	0.318790
H136	H	1.578358	0.567524	0.818790
H137	H	0.295990	0.000084	-0.361291
H138	H	0.795990	0.500084	0.138709
H139	H	0.797819	0.000073	0.241968
H140	H	1.297819	0.500073	0.741968
H141	H	0.840067	0.755090	-0.083967
H142	H	1.340067	1.255090	0.416033
O143	O	1.078876	0.000128	0.081804
O144	O	1.578876	0.500128	0.581804
H145	H	1.112831	0.067532	0.102409
H146	H	1.612831	0.567532	0.602409
O147	O	1.025368	0.447752	-0.308538
O148	O	1.525368	0.947752	0.191462
H149	H	1.058458	0.394065	-0.348660
H150	H	1.558458	0.894065	0.151340
O151	O	1.074106	0.000113	0.369888
O152	O	1.574106	0.500113	0.869888
H153	H	1.122978	0.000105	0.421920
H154	H	1.622978	0.500105	0.921920
O155	O	0.777177	0.000076	0.346780
O156	O	1.277177	0.500076	0.846780
H157	H	0.774467	0.067483	0.303960
H158	H	1.274467	0.567483	0.803960
O159	O	0.773971	0.000053	0.540946
O160	O	1.273971	0.500053	1.040946
H161	H	0.725098	0.000027	0.488915
H162	H	1.225098	0.500027	0.988915
O163	O	0.781947	0.000095	0.058683
O164	O	1.281947	0.500095	0.558683
H165	H	0.747400	-0.067312	0.073945
H166	H	1.247400	0.432688	0.573945
O167	O	0.134342	0.000126	-0.368037
O168	O	0.634342	0.500126	0.131963
H169	H	0.096622	-0.067271	-0.368484
H170	H	0.596622	0.432729	0.131516
O171	O	0.172885	0.000155	-0.032047
O172	O	0.672885	0.500155	0.467953
H173	H	0.221511	0.000172	0.020284
H174	H	0.721511	0.500172	0.520284
O175	O	0.548492	0.000129	0.006386
O176	O	1.048492	0.500129	0.506386
H177	H	0.568640	-0.067270	0.043707
H178	H	1.068640	0.432730	0.543707
H179	H	0.329634	0.000140	-0.068020
H180	H	0.829634	0.500140	0.431980
H181	H	0.705238	0.000103	-0.029592
H182	H	1.205238	0.500103	0.470408
