data_functionalizedCrystal
_audit_creation_method	'MofGen! by Chris Wilmer'
_symmetry_space_group_name_H-M	'P1'
_symmetry_Int_Tables_number	1
_symmetry_cell_setting	triclinic
loop_
_symmetry_equiv_pos_as_xyz
  x,y,z
_cell_length_a	27.732048
_cell_length_b	26.809956
_cell_length_c	27.732048
_cell_angle_alpha	89.999364
_cell_angle_beta	97.357345
_cell_angle_gamma	90.003258
loop_
_atom_site_label
_atom_site_type_symbol
_atom_site_fract_x
_atom_site_fract_y
_atom_site_fract_z
O1	O	0.640931	0.041421	-0.057510
O2	O	1.140931	0.541421	0.442490
O3	O	0.500138	0.041436	-0.066256
O4	O	1.000138	0.541436	0.433744
O5	O	0.574907	0.041419	0.008514
O6	O	1.074907	0.541419	0.508514
O7	O	0.566162	0.041439	-0.132280
O8	O	1.066162	0.541439	0.367720
O9	O	0.574893	-0.041541	0.008502
O10	O	1.074893	0.458459	0.508502
O11	O	0.500123	-0.041523	-0.066267
O12	O	1.000123	0.458477	0.433733
O13	O	0.640917	-0.041539	-0.057522
O14	O	1.140917	0.458461	0.442478
Zn15	Zn	0.570518	-0.054702	-0.061896
Zn16	Zn	1.070518	0.445298	0.438104
Zn17	Zn	0.570536	0.054600	-0.061881
Zn18	Zn	1.070536	0.554600	0.438119
O19	O	0.566147	-0.041521	-0.132291
O20	O	1.066147	0.458479	0.367709
C21	C	0.482124	-0.000041	-0.066078
C22	C	0.982124	0.499959	0.433922
C23	C	0.428469	-0.000036	-0.065525
C24	C	0.928469	0.499964	0.434475
N25	N	0.570509	-0.129298	-0.061906
N26	N	1.070509	0.370702	0.438094
C27	C	0.089654	-0.000051	-0.106229
C28	C	0.589654	0.499949	0.393771
C29	C	-0.112006	-0.000056	-0.104178
C30	C	0.387994	0.499944	0.395822
O31	O	-0.143262	-0.000073	-0.141398
O32	O	0.356738	0.499927	0.358602
N33	N	-0.131130	-0.000062	-0.059843
N34	N	0.368870	0.499938	0.440157
C35	C	-0.099835	-0.000069	-0.016017
C36	C	0.400165	0.499931	0.483983
O37	O	-0.120728	-0.000079	0.021740
O38	O	0.379272	0.499921	0.521740
C39	C	0.101824	-0.000068	-0.018068
C40	C	0.601824	0.499932	0.481932
C41	C	0.120944	-0.000057	-0.062407
C42	C	0.620944	0.499943	0.437593
C43	C	0.108775	-0.000042	-0.150563
C44	C	0.608775	0.499958	0.349437
C45	C	0.159187	-0.000038	-0.151076
C46	C	0.659187	0.499962	0.348924
C47	C	0.190477	-0.000044	-0.107253
C48	C	0.690477	0.499956	0.392747
C49	C	0.171356	-0.000054	-0.062919
C50	C	0.671356	0.499946	0.437081
C51	C	0.133117	-0.000079	0.025757
C52	C	0.633117	0.499921	0.525757
C53	C	0.183535	-0.000080	0.025240
C54	C	0.683535	0.499920	0.525240
C55	C	0.202655	-0.000069	-0.019098
C56	C	0.702655	0.499931	0.480902
C57	C	0.253059	-0.000056	-0.019609
C58	C	0.753059	0.499944	0.480391
N59	N	0.272183	-0.000050	-0.063944
N60	N	0.772183	0.499950	0.436056
C61	C	0.240892	-0.000044	-0.107766
C62	C	0.740892	0.499956	0.392234
C63	C	-0.205709	-0.000069	-0.014943
C64	C	0.294291	0.499931	0.485057
C65	C	-0.256124	-0.000068	-0.014430
C66	C	0.243876	0.499932	0.485570
C67	C	-0.268291	-0.000056	-0.102591
C68	C	0.231709	0.499944	0.397409
C69	C	-0.217876	-0.000053	-0.103104
C70	C	0.282124	0.499947	0.396896
C71	C	-0.186585	-0.000063	-0.059278
C72	C	0.313415	0.499937	0.440722
C73	C	0.346761	-0.000036	-0.108839
C74	C	0.846761	0.499964	0.391161
C75	C	0.397178	-0.000030	-0.109347
C76	C	0.897178	0.499970	0.390653
C77	C	0.409341	-0.000044	-0.021186
C78	C	0.909341	0.499956	0.478814
C79	C	0.358929	-0.000048	-0.020678
C80	C	0.858929	0.499952	0.479322
C81	C	0.327639	-0.000045	-0.064508
C82	C	0.827639	0.499955	0.435492
O83	O	0.284343	-0.000045	0.017592
O84	O	0.784343	0.499955	0.517592
O85	O	0.261794	-0.000045	-0.145518
O86	O	0.761794	0.499955	0.354482
C87	C	0.039242	-0.000055	-0.105716
C88	C	0.539242	0.499945	0.394284
C89	C	0.020120	-0.000065	-0.061382
C90	C	0.520120	0.499935	0.438618
C91	C	0.051411	-0.000071	-0.017560
C92	C	0.551411	0.499929	0.482440
C93	C	-0.030294	-0.000065	-0.060869
C94	C	0.469706	0.499935	0.439131
C95	C	-0.061585	-0.000059	-0.104691
C96	C	0.438415	0.499941	0.395309
C97	C	-0.042461	-0.000053	-0.149026
C98	C	0.457539	0.499947	0.350974
C99	C	0.007951	-0.000049	-0.149539
C100	C	0.507951	0.499951	0.350461
C101	C	0.032287	-0.000077	0.026775
C102	C	0.532287	0.499923	0.526775
C103	C	-0.018125	-0.000080	0.027284
C104	C	0.481875	0.499920	0.527284
C105	C	-0.049416	-0.000074	-0.016538
C106	C	0.450584	0.499926	0.483462
C107	C	0.603640	-0.473932	-0.028781
C108	C	1.103640	0.026068	0.471219
C109	C	0.603652	-0.682810	-0.028774
C110	C	1.103652	-0.182810	0.471226
O111	O	0.631801	-0.709820	-0.000613
O112	O	1.131801	-0.209820	0.499387
N113	N	0.570539	-0.708925	-0.061870
N114	N	1.070539	-0.208925	0.438130
C115	C	0.537419	-0.682818	-0.094969
C116	C	1.037419	-0.182818	0.405031
O117	O	0.509252	-0.709824	-0.123116
O118	O	1.009252	-0.209824	0.376884
C119	C	0.537406	-0.473941	-0.094974
C120	C	1.037406	0.026059	0.405026
C121	C	0.570524	-0.447829	-0.061878
C122	C	1.070524	0.052171	0.438122
C123	C	0.636755	-0.447819	0.004312
C124	C	1.136755	0.052181	0.504312
C125	C	0.636754	-0.395603	0.004308
C126	C	1.136754	0.104397	0.504308
C127	C	0.603637	-0.369500	-0.028789
C128	C	1.103637	0.130500	0.471211
C129	C	0.570522	-0.395612	-0.061882
C130	C	1.070522	0.104388	0.438118
C131	C	0.504284	-0.447835	-0.128070
C132	C	1.004284	0.052165	0.371930
C133	C	0.504283	-0.395613	-0.128067
C134	C	1.004283	0.104387	0.371933
C135	C	0.537401	-0.369500	-0.094972
C136	C	1.037401	0.130500	0.405028
C137	C	0.537405	-0.317293	-0.094983
C138	C	1.037405	0.182707	0.405017
N139	N	0.570517	-0.291177	-0.061887
N140	N	1.070517	0.208823	0.438113
C141	C	0.603633	-0.317281	-0.028790
C142	C	1.103633	0.182719	0.471210
C143	C	0.537429	-0.792481	-0.094965
C144	C	1.037429	-0.292481	0.405035
C145	C	0.537433	-0.844700	-0.094964
C146	C	1.037433	-0.344700	0.405036
C147	C	0.603665	-0.844689	-0.028768
C148	C	1.103665	-0.344689	0.471232
C149	C	0.603663	-0.792469	-0.028772
C150	C	1.103663	-0.292469	0.471228
C151	C	0.570542	-0.766366	-0.061868
C152	C	1.070542	-0.266366	0.438132
C153	C	0.603628	-0.207623	-0.028801
C154	C	1.103628	0.292377	0.471199
C155	C	0.603625	-0.155402	-0.028809
C156	C	1.103625	0.344598	0.471191
C157	C	0.537392	-0.155418	-0.095003
C158	C	1.037392	0.344582	0.404997
C159	C	0.537396	-0.207635	-0.094997
C160	C	1.037396	0.292365	0.405003
C161	C	0.570516	-0.233735	-0.061892
C162	C	1.070516	0.266265	0.438108
O163	O	0.509266	-0.290250	-0.123126
O164	O	1.009266	0.209750	0.376874
O165	O	0.631789	-0.290266	-0.000640
O166	O	1.131789	0.209734	0.499360
C167	C	0.603642	-0.526149	-0.028777
C168	C	1.103642	-0.026149	0.471223
C169	C	0.570527	-0.552261	-0.061870
C170	C	1.070527	-0.052261	0.438130
C171	C	0.537410	-0.526158	-0.094968
C172	C	1.037410	-0.026158	0.405032
C173	C	0.570531	-0.604480	-0.061870
C174	C	1.070531	-0.104480	0.438130
C175	C	0.603647	-0.630584	-0.028773
C176	C	1.103647	-0.130584	0.471227
C177	C	0.636759	-0.604468	0.004324
C178	C	1.136759	-0.104468	0.504324
C179	C	0.636758	-0.552252	0.004320
C180	C	1.136758	-0.052252	0.504320
C181	C	0.504298	-0.552273	-0.128064
C182	C	1.004298	-0.052273	0.371936
C183	C	0.504303	-0.604489	-0.128058
C184	C	1.004303	-0.104489	0.371942
C185	C	0.537419	-0.630593	-0.094961
C186	C	1.037419	-0.130593	0.405039
C187	C	0.658931	-0.000060	-0.057699
C188	C	1.158931	0.499940	0.442301
C189	C	0.712586	-0.000062	-0.058252
C190	C	1.212586	0.499938	0.441748
C191	C	0.574716	-0.000062	0.026515
C192	C	1.074716	0.499938	0.526515
C193	C	0.574164	-0.000066	0.080170
C194	C	1.074164	0.499934	0.580170
N195	N	0.570549	0.129196	-0.061867
N196	N	1.070549	0.629196	0.438133
C197	C	0.566338	-0.000039	-0.150292
C198	C	1.066338	0.499961	0.349708
C199	C	0.566891	-0.000031	-0.203947
C200	C	1.066891	0.499969	0.296053
C201	C	0.614867	-0.000045	0.418985
C202	C	1.114867	0.499955	0.918985
C203	C	0.612816	-0.000038	0.620645
C204	C	1.112816	0.499962	1.120645
O205	O	0.650037	-0.000021	0.651900
O206	O	1.150037	0.499979	1.151900
N207	N	0.568481	-0.000034	0.639768
N208	N	1.068481	0.499966	1.139768
C209	C	0.524656	-0.000028	0.608474
C210	C	1.024656	0.499972	1.108474
O211	O	0.486899	-0.000019	0.629367
O212	O	0.986899	0.499981	1.129367
C213	C	0.526707	-0.000031	0.406815
C214	C	1.026707	0.499969	0.906815
C215	C	0.571045	-0.000041	0.387694
C216	C	1.071045	0.499959	0.887694
C217	C	0.659202	-0.000054	0.399864
C218	C	1.159202	0.499946	0.899864
C219	C	0.659714	-0.000059	0.349452
C220	C	1.159714	0.499941	0.849452
C221	C	0.615892	-0.000054	0.318161
C222	C	1.115892	0.499946	0.818161
C223	C	0.571557	-0.000045	0.337282
C224	C	1.071557	0.499955	0.837282
C225	C	0.482882	-0.000022	0.375521
C226	C	0.982882	0.499978	0.875521
C227	C	0.483399	-0.000021	0.325104
C228	C	0.983399	0.499979	0.825104
C229	C	0.527737	-0.000031	0.305983
C230	C	1.027737	0.499969	0.805983
C231	C	0.528247	-0.000045	0.255580
C232	C	1.028247	0.499955	0.755580
N233	N	0.572583	-0.000050	0.236456
N234	N	1.072583	0.499950	0.736456
C235	C	0.616405	-0.000054	0.267747
C236	C	1.116405	0.499946	0.767747
C237	C	0.523582	-0.000027	0.714348
C238	C	1.023582	0.499973	1.214348
C239	C	0.523069	-0.000027	0.764762
C240	C	1.023069	0.499973	1.264762
C241	C	0.611230	-0.000036	0.776930
C242	C	1.111230	0.499964	1.276930
C243	C	0.611742	-0.000040	0.726514
C244	C	1.111742	0.499960	1.226514
C245	C	0.567917	-0.000031	0.695224
C246	C	1.067917	0.499969	1.195224
C247	C	0.617477	-0.000064	0.161878
C248	C	1.117477	0.499936	0.661878
C249	C	0.617986	-0.000071	0.111461
C250	C	1.117986	0.499929	0.611461
C251	C	0.529825	-0.000059	0.099298
C252	C	1.029825	0.499941	0.599298
C253	C	0.529316	-0.000055	0.149710
C254	C	1.029316	0.499945	0.649710
C255	C	0.573147	-0.000056	0.180999
C256	C	1.073147	0.499944	0.680999
O257	O	0.491047	-0.000057	0.224296
O258	O	0.991047	0.499943	0.724296
O259	O	0.654156	-0.000053	0.246844
O260	O	1.154156	0.499947	0.746844
C261	C	0.614355	-0.000041	0.469397
C262	C	1.114355	0.499959	0.969397
C263	C	0.570021	-0.000032	0.488518
C264	C	1.070021	0.499968	0.988518
C265	C	0.526198	-0.000027	0.457228
C266	C	1.026198	0.499973	0.957228
C267	C	0.569508	-0.000032	0.538933
C268	C	1.069508	0.499968	1.038933
C269	C	0.613330	-0.000036	0.570223
C270	C	1.113330	0.499964	1.070223
C271	C	0.657665	-0.000041	0.551100
C272	C	1.157665	0.499959	1.051100
C273	C	0.658177	-0.000045	0.500688
C274	C	1.158177	0.499955	1.000688
C275	C	0.481863	-0.000023	0.476351
C276	C	0.981863	0.499977	0.976351
C277	C	0.481355	-0.000019	0.526764
C278	C	0.981355	0.499981	1.026764
C279	C	0.525177	-0.000023	0.558054
C280	C	1.025177	0.499977	1.058054
H281	H	0.412743	-0.000021	-0.145454
H282	H	0.912743	0.499979	0.354546
H283	H	0.083302	-0.000038	-0.186251
H284	H	0.583302	0.499962	0.313749
H285	H	0.487892	-0.000020	0.688875
H286	H	0.987892	0.499980	1.188875
H287	H	-0.033688	-0.000085	0.063392
H288	H	0.466312	0.499915	0.563392
Cl289	Cl	0.426766	-0.000016	0.437021
Cl290	Cl	0.926766	0.499984	0.937021
H291	H	0.174750	-0.000029	-0.187180
H292	H	0.674750	0.499971	0.312820
H293	H	0.694889	-0.000056	0.425336
H294	H	1.194889	0.499944	0.925336
Cl295	Cl	-0.307637	-0.000051	-0.157681
Cl296	Cl	0.192363	0.499949	0.342319
H297	H	0.630630	-0.865951	-0.001820
H298	H	1.130630	-0.365951	0.498180
Cl299	Cl	0.071617	-0.000084	0.081872
Cl300	Cl	0.571617	0.499916	0.581872
H301	H	0.510430	-0.134157	-0.121952
H302	H	1.010430	0.365843	0.378048
Cl303	Cl	0.645266	-0.240427	0.012817
Cl304	Cl	1.145266	0.259573	0.512817
H305	H	-0.271687	-0.000069	0.021674
H306	H	0.228313	0.499931	0.521674
Cl307	Cl	-0.166379	-0.000080	0.040158
Cl308	Cl	0.333621	0.499920	0.540158
H309	H	0.510471	-0.865958	-0.121919
H310	H	1.010471	-0.365958	0.378081
Cl311	Cl	0.031981	-0.000037	-0.205281
Cl312	Cl	0.531981	0.499963	0.294719
Cl313	Cl	0.678393	-0.519432	0.045928
Cl314	Cl	1.178393	-0.019432	0.545928
Cl315	Cl	0.427139	-0.000006	0.399546
Cl316	Cl	0.927139	0.499994	0.899546
H317	H	0.209009	-0.000089	0.060929
H318	H	0.709009	0.499911	0.560929
Cl319	Cl	0.109093	-0.000084	0.081500
Cl320	Cl	0.609093	0.499916	0.581500
Cl321	Cl	0.428300	-0.000010	0.285770
Cl322	Cl	0.928300	0.499990	0.785770
Cl323	Cl	0.713920	-0.000053	0.476658
Cl324	Cl	1.213920	0.499947	0.976658
H325	H	0.343360	-0.000049	0.015426
H326	H	0.843360	0.499951	0.515426
H327	H	0.663726	-0.625730	0.031271
H328	H	1.163726	-0.125730	0.531271
H329	H	0.693347	-0.000047	0.576585
H330	H	1.193347	0.499953	1.076585
Cl331	Cl	0.467327	-0.000024	0.788793
Cl332	Cl	0.967327	0.499976	1.288793
Cl333	Cl	0.495766	-0.240460	-0.136609
Cl334	Cl	0.995766	0.259540	0.363391
H335	H	0.653168	-0.000063	0.187348
H336	H	1.153168	0.499937	0.687348
Cl337	Cl	0.667483	-0.000051	0.702482
Cl338	Cl	1.167483	0.499949	1.202482
Cl339	Cl	0.448687	-0.000054	0.033901
Cl340	Cl	0.948687	0.499946	0.533901
H341	H	0.477317	-0.469089	-0.155019
H342	H	0.977317	0.030911	0.344981
H343	H	0.663720	-0.374345	0.031258
H344	H	1.163720	0.125655	0.531258
Cl345	Cl	0.425609	-0.000009	0.550794
Cl346	Cl	0.925609	0.499991	1.050794
Cl347	Cl	0.645263	-0.122577	0.012799
Cl348	Cl	1.145263	0.377423	0.512799
Cl349	Cl	0.307434	-0.000032	-0.163940
Cl350	Cl	0.807434	0.499968	0.336060
H351	H	-0.202311	-0.000047	-0.139207
H352	H	0.297689	0.499953	0.360793
Cl353	Cl	0.473577	-0.000052	0.173748
Cl354	Cl	0.973577	0.499948	0.673748
Cl355	Cl	0.462663	-0.519464	-0.169676
Cl356	Cl	0.962663	-0.019464	0.330324
H357	H	0.494146	-0.000057	0.073812
H358	H	0.994146	0.499943	0.573812
Cl359	Cl	-0.081807	-0.000044	-0.204117
Cl360	Cl	0.418193	0.499956	0.295883
Cl361	Cl	0.678393	-0.480627	0.045925
Cl362	Cl	1.178393	0.019373	0.545925
H363	H	0.510457	-0.771232	-0.121917
H364	H	1.010457	-0.271232	0.378083
Cl365	Cl	0.645297	-0.759647	0.012837
Cl366	Cl	1.145297	-0.259647	0.512837
Cl367	Cl	0.462641	-0.362802	-0.169677
Cl368	Cl	0.962641	0.137198	0.330323
Cl369	Cl	0.462666	-0.637311	-0.169670
Cl370	Cl	0.962666	-0.137311	0.330330
Cl371	Cl	0.673729	-0.000082	0.087427
Cl372	Cl	1.173729	0.499918	0.587427
H373	H	0.695819	-0.000065	0.333889
H374	H	1.195819	0.499935	0.833889
H375	H	0.646911	-0.000040	0.802415
H376	H	1.146911	0.499960	1.302415
