data_functionalizedCrystal
_audit_creation_method	'MofGen! by Chris Wilmer'
_symmetry_space_group_name_H-M	'P1'
_symmetry_Int_Tables_number	1
_symmetry_cell_setting	triclinic
loop_
_symmetry_equiv_pos_as_xyz
  x,y,z
_cell_length_a	14.809374
_cell_length_b	31.640172
_cell_length_c	14.809374
_cell_angle_alpha	90.004769
_cell_angle_beta	60.797835
_cell_angle_gamma	67.424801
loop_
_atom_site_label
_atom_site_type_symbol
_atom_site_fract_x
_atom_site_fract_y
_atom_site_fract_z
Zr1	Zr	0.955103	0.466858	-0.203542
O2	O	1.113035	0.415083	-0.350716
O3	O	0.777335	0.475400	-0.145463
O4	O	0.926479	0.492689	-0.331998
O5	O	0.993388	0.392494	-0.031784
O6	O	0.926464	0.562244	-0.331979
O7	O	0.963891	0.397794	-0.164181
O8	O	0.659673	0.531317	0.001699
O9	O	1.260179	0.423421	-0.365462
O10	O	0.857789	0.539807	-0.136340
O11	O	0.879813	0.483944	-0.037548
O12	O	1.055411	0.504299	-0.257169
O13	O	1.077435	0.448436	-0.158378
Zr14	Zr	1.002124	0.569338	0.007646
Zr15	Zr	0.955080	0.577791	-0.203511
Zr16	Zr	1.002147	0.458405	0.007615
Zr17	Zr	1.189781	0.480156	-0.227060
Zr18	Zr	0.767446	0.556040	0.031163
O19	O	1.179892	0.560796	-0.050433
O20	O	1.113002	0.572815	-0.350672
O21	O	1.179925	0.403064	-0.050478
O22	O	0.844192	0.621113	0.154820
O23	O	0.777301	0.633132	-0.145419
O24	O	0.844225	0.463381	0.154775
O25	O	0.963839	0.643702	-0.164112
O26	O	1.030748	0.543507	0.136102
O27	O	1.030763	0.473952	0.136082
O28	O	0.993336	0.638402	-0.031715
O29	O	1.260160	0.511598	-0.365437
O30	O	0.697066	0.524598	0.169540
O31	O	0.697048	0.612775	0.169565
O32	O	0.659654	0.619494	0.001723
O33	O	1.297573	0.416702	-0.197620
O34	O	1.297554	0.504879	-0.197595
O35	O	0.901816	0.531897	0.061273
O36	O	0.879792	0.587760	-0.037519
O37	O	1.077413	0.552252	-0.158348
O38	O	1.099437	0.496389	-0.059557
C39	C	0.685067	0.501464	-0.068532
C40	C	0.585440	0.495818	-0.058548
C41	C	0.530098	0.521013	-0.103104
C42	C	0.427128	0.515179	-0.092786
C43	C	0.978643	0.379338	-0.097987
C44	C	0.978652	0.332244	-0.098000
C45	C	0.875449	0.058767	-0.034855
C46	C	0.875432	-0.118220	-0.034834
O47	O	0.787708	-0.125344	0.018842
N48	N	0.978587	-0.158885	-0.097907
C49	C	1.081756	-0.155301	-0.160984
O50	O	1.169497	-0.193950	-0.214623
C51	C	1.081773	0.021685	-0.160999
C52	C	0.978609	0.062349	-0.097931
C53	C	0.772294	0.099429	0.028209
C54	C	0.772298	0.143673	0.028199
C55	C	0.875458	0.147255	-0.034876
C56	C	0.978614	0.106593	-0.097941
C57	C	1.184942	0.025268	-0.224071
C58	C	1.184937	0.069519	-0.224067
C59	C	1.081773	0.110183	-0.160998
C60	C	1.081778	0.154419	-0.161027
N61	N	0.978623	0.195083	-0.097954
C62	C	0.875463	0.191502	-0.034878
C63	C	1.081739	-0.248220	-0.160973
C64	C	1.081734	-0.292466	-0.160971
C65	C	0.875410	-0.255382	-0.034819
C66	C	0.875415	-0.211135	-0.034828
C67	C	0.978583	-0.207556	-0.097900
C68	C	0.875480	0.284416	-0.034906
C69	C	0.875493	0.328662	-0.034925
C70	C	1.081817	0.291575	-0.161073
C71	C	1.081804	0.247332	-0.161058
C72	C	0.978626	0.243755	-0.097966
O73	O	1.169458	0.161578	-0.214666
O74	O	0.787738	0.230155	0.018770
C75	C	0.875445	0.014523	-0.034845
C76	C	0.978600	-0.026139	-0.097910
C77	C	1.081760	-0.022557	-0.160985
C78	C	0.978596	-0.070386	-0.097907
C79	C	0.875436	-0.073968	-0.034832
C80	C	0.772281	-0.033303	0.028241
C81	C	0.772285	0.010941	0.028230
C82	C	1.184916	-0.063222	-0.224058
C83	C	1.184902	-0.107464	-0.224043
C84	C	1.081743	-0.111046	-0.160968
C85	C	1.272160	0.534732	-0.127365
C86	C	1.371787	0.540378	-0.137349
C87	C	0.919768	0.528671	-0.362074
C88	C	0.899797	0.532259	-0.451716
C89	C	0.978584	0.656858	-0.097909
C90	C	0.978574	0.703952	-0.097896
C91	C	0.988927	0.516245	-0.551620
C92	C	0.968288	0.519953	-0.644271
C93	C	1.037458	0.507525	0.166177
C94	C	1.057430	0.503937	0.255819
C95	C	0.685038	0.640224	-0.068493
C96	C	0.585401	0.681672	-0.058496
C97	C	0.743912	0.490891	0.195594
C98	C	0.664256	0.481657	0.295220
C99	C	0.743883	0.629651	0.195633
C100	C	0.664217	0.667511	0.295272
C101	C	1.213344	0.406545	-0.391529
C102	C	1.293009	0.368686	-0.491168
C103	C	1.272189	0.395972	-0.127404
C104	C	1.371826	0.354524	-0.137401
C105	C	1.213315	0.545305	-0.391490
C106	C	1.292970	0.554539	-0.491116
C107	C	0.527124	0.676106	-0.105393
C108	C	0.433513	0.715048	-0.096021
C109	C	0.398176	0.759556	-0.039745
C110	C	0.456463	0.765121	0.007154
C111	C	0.550077	0.726180	-0.002225
C112	C	0.638336	0.502351	0.393597
C113	C	0.563506	0.493674	0.487212
C114	C	0.514591	0.464304	0.482449
C115	C	0.540519	0.443607	0.384061
C116	C	0.615354	0.452282	0.290447
C117	C	0.615309	0.714455	0.290495
C118	C	0.540466	0.750034	0.384107
C119	C	0.514527	0.738667	0.482495
C120	C	0.563444	0.691718	0.487269
C121	C	0.638291	0.656140	0.393657
C122	C	1.341929	0.321742	-0.486393
C123	C	1.416801	0.286165	-0.580007
C124	C	1.442745	0.297532	-0.678396
C125	C	1.393823	0.344481	-0.683169
C126	C	1.318958	0.380057	-0.589556
C127	C	1.430111	0.360091	-0.090513
C128	C	1.523743	0.321151	-0.099911
C129	C	1.559082	0.276644	-0.156191
C130	C	1.500791	0.271078	-0.203085
C131	C	1.407167	0.310018	-0.193693
C132	C	1.341863	0.583911	-0.486318
C133	C	1.416697	0.592596	-0.579917
C134	C	1.442644	0.571907	-0.678314
C135	C	1.393742	0.542533	-0.683110
C136	C	1.318903	0.533851	-0.589511
H137	H	0.791481	0.361772	0.016437
H138	H	0.808210	0.548717	-0.434776
H139	H	1.165806	0.294500	-0.212431
Br140	Br	0.650515	0.424195	0.156939
Br141	Br	1.544216	0.583694	-0.805333
Br142	Br	0.704654	0.592430	0.400160
H143	H	1.456507	0.616513	-0.575993
Br144	Br	1.252569	0.443766	-0.596056
Br145	Br	1.686148	0.223801	-0.168927
H146	H	0.876694	0.536412	-0.627324
H147	H	1.401348	0.396327	-0.044678
Br148	Br	0.575060	0.615708	-0.181778
H149	H	0.500681	0.419694	0.380198
H150	H	1.149024	0.487481	-0.761130
Br151	Br	1.306733	0.306302	-0.352877
H152	H	0.500644	0.788259	0.380201
Br153	Br	0.413031	0.452535	0.609508
Br154	Br	0.379047	0.472028	-0.016458
Br155	Br	1.548764	0.210672	-0.279458
H156	H	1.414880	0.525690	-0.763237
Br157	Br	0.354426	0.707484	-0.159673
H158	H	0.400629	0.566271	-0.183132
H159	H	0.321947	0.791260	-0.032115
Br160	Br	0.629153	0.733742	0.061436
H161	H	0.542407	0.510531	0.567315
H162	H	0.427678	0.801364	0.052973
Br163	Br	1.483179	0.222454	-0.573504
Br164	Br	1.429042	0.359900	-0.816706
H165	H	0.636416	0.723719	0.210391
Br166	Br	0.704700	0.542215	0.400092
Br167	Br	1.328070	0.302454	-0.257329
H168	H	0.453579	0.767641	0.558711
H169	H	0.556587	0.469930	-0.012761
H170	H	1.268949	-0.007835	-0.275427
Br171	Br	0.735453	0.279569	0.050718
Br172	Br	0.632273	0.094580	0.113828
H173	H	1.279103	0.509932	-0.593432
H174	H	1.503706	0.268559	-0.754613
H175	H	0.688279	0.044047	0.079590
H176	H	1.165805	0.214222	-0.212427
H177	H	0.558943	0.546905	-0.148884
H178	H	1.320751	0.600761	-0.406207
H179	H	0.542312	0.682469	0.567389
H180	H	1.571189	0.325692	-0.061719
H181	H	0.688291	0.176780	0.079552
H182	H	0.791411	-0.178028	0.016538
H183	H	1.165738	-0.325572	-0.212341
Br184	Br	0.735408	-0.260252	0.050781
H185	H	1.165755	-0.245312	-0.212342
H186	H	0.688283	-0.036226	0.079593
Br187	Br	1.324961	0.074373	-0.309666
Br188	Br	1.324924	-0.162648	-0.309650
H189	H	1.080514	0.499791	-0.568560
Br190	Br	1.324933	-0.058370	-0.309667
