data_functionalizedCrystal
_audit_creation_method	'MofGen! by Chris Wilmer'
_symmetry_space_group_name_H-M	'P1'
_symmetry_Int_Tables_number	1
_symmetry_cell_setting	triclinic
loop_
_symmetry_equiv_pos_as_xyz
  x,y,z
_cell_length_a	15.298206
_cell_length_b	18.101396
_cell_length_c	15.296720
_cell_angle_alpha	80.356683
_cell_angle_beta	110.778255
_cell_angle_gamma	99.624972
loop_
_atom_site_label
_atom_site_type_symbol
_atom_site_fract_x
_atom_site_fract_y
_atom_site_fract_z
Zn1	Zn	1.330459	0.523311	-0.279403
Zn2	Zn	1.357243	0.628875	-0.123912
Zn3	Zn	1.201885	0.486834	-0.150859
Zn4	Zn	1.174886	0.628864	-0.306332
O5	O	1.266118	0.566971	-0.215127
O6	O	1.464137	0.552585	-0.236230
O7	O	1.359144	0.594772	0.002653
O8	O	1.219031	0.388054	-0.167919
O9	O	1.483816	0.630143	-0.121991
O10	O	1.313493	0.414853	-0.262359
O11	O	1.245003	0.490415	-0.017146
O12	O	1.068178	0.490404	-0.194031
O13	O	1.173014	0.630123	-0.432899
O14	O	1.048342	0.594753	-0.308255
O15	O	1.287313	0.552574	-0.413115
O16	O	1.332963	0.732493	-0.148102
O17	O	1.198986	0.732485	-0.282125
C18	C	1.024520	0.538619	-0.256990
C19	C	0.921159	0.526511	-0.274921
C20	C	0.862344	0.480527	-0.342920
C21	C	0.765231	0.469143	-0.359770
C22	C	0.726923	0.503748	-0.308627
C23	C	0.785737	0.549737	-0.240631
C24	C	0.882860	0.561117	-0.223775
C25	C	0.747439	0.584337	-0.189481
C26	C	0.806253	0.630327	-0.121485
C27	C	0.903367	0.641705	-0.104633
C28	C	0.941675	0.607101	-0.155775
C29	C	0.650316	0.572958	-0.206338
C30	C	0.670832	0.653547	-0.087192
C31	C	0.767945	0.664931	-0.070343
C32	C	1.265973	0.759361	-0.215128
C33	C	1.265991	0.841680	-0.215145
C34	C	1.266147	1.140797	-0.215170
C35	C	1.181992	1.109538	-0.299642
C36	C	1.181701	1.023855	-0.299473
C37	C	1.266069	0.992402	-0.215158
C38	C	1.256508	1.008928	-0.121743
C39	C	1.255960	1.094569	-0.122258
C40	C	1.360173	1.123627	-0.223222
C41	C	1.359234	1.038162	-0.225469
C42	C	1.266028	0.908535	-0.215145
C43	C	1.266187	1.224663	-0.215177
C44	C	1.508660	0.595434	-0.173100
C45	C	1.612017	0.607563	-0.155191
C46	C	1.224164	0.595416	-0.457694
C47	C	1.206285	0.607538	-0.561062
C48	C	1.266252	1.373832	-0.215150
C49	C	1.266225	1.291518	-0.215184
C50	C	1.393933	0.480210	-0.811234
C51	C	1.410737	0.468823	-0.714114
C52	C	1.359625	0.503501	-0.675846
C53	C	1.291707	0.549568	-0.734708
C54	C	1.274907	0.560960	-0.831837
C55	C	1.240599	0.584251	-0.696449
C56	C	1.172682	0.630318	-0.755311
C57	C	1.155884	0.641708	-0.852430
C58	C	1.206996	0.607030	-0.890698
C59	C	1.257399	0.572858	-0.599320
C60	C	1.138374	0.653608	-0.619922
C61	C	1.121570	0.664995	-0.717043
C62	C	1.307963	0.538589	0.026506
C63	C	1.326022	0.526280	0.129905
H64	H	0.815845	0.702376	-0.014980
H65	H	1.366752	1.028618	-0.294134
F66	F	1.483017	0.419798	-0.651476
H67	H	1.422664	1.143976	-0.161490
F68	F	0.587732	0.524014	-0.278702
F69	F	0.623565	0.491632	-0.326563
H70	H	1.185796	1.140577	-0.369707
H71	H	1.187732	1.103680	-0.113457
F72	F	1.448329	0.443317	-0.851967
F73	F	0.630067	0.690376	-0.032755
F74	F	1.083977	0.690521	-0.579200
F75	F	1.189119	0.619150	-0.994064
H76	H	0.951253	0.679145	-0.049258
F77	F	1.083613	0.690748	-0.915070
F78	F	0.702644	0.420202	-0.432135
H79	H	1.373311	0.494227	-0.596766
H80	H	1.316628	0.988012	-0.057833
F81	F	1.168416	0.966751	-0.109566
H82	H	1.372193	1.156264	-0.289284
H83	H	1.185717	1.013275	-0.369272
F84	F	1.443753	1.011322	-0.149142
H85	H	0.893545	0.452353	-0.384549
F86	F	1.045034	0.619218	-0.137851
F87	F	1.329680	0.523832	-0.536686
F88	F	1.090979	1.124137	-0.294617
F89	F	1.333796	1.120782	-0.038382
H90	H	1.066270	0.702503	-0.764981
H91	H	1.111669	0.992927	-0.295482
