data_functionalizedCrystal
_audit_creation_method	'MofGen! by Chris Wilmer'
_symmetry_space_group_name_H-M	'P1'
_symmetry_Int_Tables_number	1
_symmetry_cell_setting	triclinic
loop_
_symmetry_equiv_pos_as_xyz
  x,y,z
_cell_length_a	10.654550
_cell_length_b	16.098538
_cell_length_c	17.019448
_cell_angle_alpha	83.411091
_cell_angle_beta	83.942874
_cell_angle_gamma	92.768616
loop_
_atom_site_label
_atom_site_type_symbol
_atom_site_fract_x
_atom_site_fract_y
_atom_site_fract_z
O1	O	1.671126	0.061612	0.107682
O2	O	2.171126	0.561612	0.607682
O3	O	1.305421	0.060840	0.118277
O4	O	1.805421	0.560840	0.618277
O5	O	1.499131	0.069471	-0.002210
O6	O	1.999131	0.569471	0.497790
O7	O	1.477415	0.052980	0.228169
O8	O	1.977415	0.552980	0.728169
O9	O	1.487816	-0.069544	0.004800
O10	O	1.987816	0.430456	0.504800
O11	O	1.294105	-0.078175	0.125287
O12	O	1.794105	0.421825	0.625287
O13	O	1.659811	-0.077403	0.114693
O14	O	2.159811	0.422597	0.614693
Zn15	Zn	1.475161	-0.099861	0.121103
Zn16	Zn	1.975161	0.400139	0.621103
Zn17	Zn	1.490070	0.083298	0.111866
Zn18	Zn	1.990070	0.583298	0.611866
O19	O	1.466100	-0.086035	0.235179
O20	O	1.966100	0.413965	0.735179
C21	C	1.252981	-0.008614	0.121004
C22	C	1.752981	0.491386	0.621004
C23	C	1.113587	-0.008452	0.118677
C24	C	1.613587	0.491548	0.618677
N25	N	1.464996	-0.224862	0.127406
N26	N	1.964996	0.275138	0.627406
C27	C	1.032591	-0.013518	0.189617
C28	C	1.532591	0.486482	0.689617
C29	C	0.901618	-0.013347	0.187425
C30	C	1.401618	0.486653	0.687425
C31	C	0.932651	-0.003040	0.043347
C32	C	1.432651	0.496960	0.543347
C33	C	1.063621	-0.003217	0.045540
C34	C	1.563621	0.496783	0.545540
C35	C	1.082557	-0.018753	0.262754
C36	C	1.582557	0.481247	0.762754
C37	C	1.001559	-0.023819	0.333700
C38	C	1.501559	0.476181	0.833700
C39	C	0.870586	-0.023647	0.331507
C40	C	1.370586	0.476353	0.831507
C41	C	0.820611	-0.018411	0.258370
C42	C	1.320611	0.481589	0.758370
C43	C	1.547244	-0.264784	0.076285
C44	C	2.047244	0.235216	0.576285
C45	C	1.540145	-0.352290	0.080702
C46	C	2.040145	0.147710	0.580702
C47	C	1.450802	-0.399871	0.136244
C48	C	1.950802	0.100129	0.636244
C49	C	1.368544	-0.359942	0.187368
C50	C	1.868544	0.140058	0.687368
C51	C	1.375639	-0.272438	0.182946
C52	C	1.875639	0.227562	0.682946
C53	C	1.425083	-0.664268	0.152259
C54	C	1.925083	-0.164268	0.652259
C55	C	1.417997	-0.751778	0.156678
C56	C	1.917997	-0.251778	0.656678
C57	C	1.589596	-0.744120	0.050011
C58	C	2.089596	-0.244120	0.550011
C59	C	1.596688	-0.656614	0.045598
C60	C	2.096688	-0.156614	0.545598
C61	C	1.514427	-0.616693	0.096718
C62	C	2.014427	-0.116693	0.596718
C63	C	1.443545	-0.489316	0.140762
C64	C	1.943545	0.010684	0.640762
C65	C	1.521678	-0.527250	0.092196
C66	C	2.021678	-0.027250	0.592196
C67	C	1.712250	-0.007948	0.111965
C68	C	2.212250	0.492052	0.611965
C69	C	1.851645	-0.008104	0.114292
C70	C	2.351645	0.491896	0.614292
C71	C	1.492869	0.002077	-0.028204
C72	C	1.992869	0.502077	0.471796
C73	C	1.491050	0.008374	-0.116102
C74	C	1.991050	0.508374	0.383898
N75	N	1.500246	0.208299	0.105557
N76	N	2.000246	0.708299	0.605557
C77	C	1.481198	0.047880	-0.613440
C78	C	1.981198	0.547880	-0.113440
C79	C	1.482893	0.041946	-0.530849
C80	C	1.982893	0.541946	-0.030849
C81	C	1.477562	-0.036798	-0.485747
C82	C	1.977562	0.463202	0.014253
C83	C	1.470549	-0.109613	-0.523242
C84	C	1.970549	0.390387	-0.023242
C85	C	1.468863	-0.103679	-0.605833
C86	C	1.968863	0.396321	-0.105833
C87	C	1.482351	-0.058507	-0.236187
C88	C	1.982351	0.441493	0.263813
C89	C	1.484034	-0.064436	-0.153591
C90	C	1.984034	0.435564	0.346409
C91	C	1.496380	0.087124	-0.161203
C92	C	1.996380	0.587124	0.338797
C93	C	1.494686	0.093052	-0.243795
C94	C	1.994686	0.593052	0.256205
C95	C	1.487680	0.020237	-0.281283
C96	C	1.987680	0.520237	0.218717
C97	C	1.479290	-0.042865	-0.401325
C98	C	1.979290	0.457135	0.098675
C99	C	1.485961	0.026304	-0.365704
C100	C	1.985961	0.526304	0.134296
C101	C	1.472363	-0.018639	0.261173
C102	C	1.972363	0.481361	0.761173
C103	C	1.474181	-0.024930	0.349071
C104	C	1.974181	0.475070	0.849071
H105	H	1.189200	-0.018890	0.264547
H106	H	1.689200	0.481110	0.764547
H107	H	0.713962	-0.018285	0.256591
H108	H	1.213962	0.481715	0.756591
H109	H	1.479655	-0.128562	-0.116868
H110	H	1.979655	0.371438	0.383132
Br111	Br	1.463327	-0.216482	-0.462035
Br112	Br	1.963327	0.283518	0.037965
Br113	Br	1.501919	0.199923	-0.304998
Br114	Br	2.001919	0.699923	0.195002
Br115	Br	1.717944	-0.592039	-0.029778
Br116	Br	2.217944	-0.092039	0.470222
Br117	Br	1.505914	0.185939	-0.110324
Br118	Br	2.005914	0.685939	0.389676
H119	H	1.042257	-0.028089	0.393246
H120	H	1.542257	0.471911	0.893246
Br121	Br	1.488419	0.154752	-0.674640
Br122	Br	1.988419	0.654752	-0.174640
Br123	Br	1.247281	-0.424514	0.262742
Br124	Br	1.747281	0.075486	0.762742
Br125	Br	0.760662	-0.030533	0.427789
Br126	Br	1.260662	0.469467	0.927789
H127	H	1.476648	-0.117798	-0.266700
H128	H	1.976648	0.382202	0.233300
H129	H	0.891952	0.001237	-0.016199
H130	H	1.391952	0.501237	0.483801
Br131	Br	1.459354	-0.202496	-0.656713
Br132	Br	1.959354	0.297504	-0.156713
H133	H	1.594417	-0.488506	0.046970
H134	H	2.094417	0.011494	0.546970
Br135	Br	1.472054	-0.149729	-0.340110
Br136	Br	1.972054	0.350271	0.159890
Br137	Br	1.173554	0.003653	-0.050736
Br138	Br	1.673554	0.503653	0.449264
Br139	Br	1.668511	-0.200219	0.000908
Br140	Br	2.168511	0.299781	0.500908
H141	H	1.607117	-0.384794	0.039075
H142	H	2.107117	0.115206	0.539075
H143	H	1.308662	-0.239934	0.224573
H144	H	1.808662	0.260066	0.724573
H145	H	1.488609	0.101236	-0.500329
H146	H	1.988609	0.601236	-0.000329
H147	H	1.656568	-0.776632	0.008390
H148	H	2.156568	-0.276632	0.508390
Br149	Br	1.296740	-0.816349	0.232067
Br150	Br	1.796740	-0.316349	0.732067
Br151	Br	1.313448	-0.610094	0.221635
Br152	Br	1.813448	-0.110094	0.721635
H153	H	1.370802	-0.528064	0.185987
H154	H	1.870802	-0.028064	0.685987
Br155	Br	1.493208	0.133168	-0.426915
Br156	Br	1.993208	0.633168	0.073085
