data_functionalizedCrystal
_audit_creation_method	'MofGen! by Chris Wilmer'
_symmetry_space_group_name_H-M	'P1'
_symmetry_Int_Tables_number	1
_symmetry_cell_setting	triclinic
loop_
_symmetry_equiv_pos_as_xyz
  x,y,z
_cell_length_a	21.295418
_cell_length_b	25.639239
_cell_length_c	21.295411
_cell_angle_alpha	89.980474
_cell_angle_beta	89.956262
_cell_angle_gamma	90.054499
loop_
_atom_site_label
_atom_site_type_symbol
_atom_site_fract_x
_atom_site_fract_y
_atom_site_fract_z
Zn1	Zn	0.962320	-0.207990	-0.356243
Zn2	Zn	1.462320	0.292010	0.143757
Zn3	Zn	0.962207	-0.295410	-0.250972
Zn4	Zn	1.462207	0.204590	0.249028
Zn5	Zn	0.857043	-0.208014	-0.250953
Zn6	Zn	1.357043	0.291986	0.249047
Zn7	Zn	0.856998	-0.295420	-0.356169
Zn8	Zn	1.356998	0.204580	0.143831
O9	O	0.909642	-0.251708	-0.303584
O10	O	1.409642	0.248292	0.196416
O11	O	1.050395	-0.219572	-0.342318
O12	O	1.550395	0.280428	0.157682
O13	O	0.948229	-0.283822	-0.162880
O14	O	1.448229	0.216178	0.337120
O15	O	0.871075	-0.134846	-0.264943
O16	O	1.371075	0.365154	0.235057
O17	O	1.050312	-0.283799	-0.264976
O18	O	1.550312	0.216201	0.235024
O19	O	0.948421	-0.134828	-0.342299
O20	O	1.448421	0.365172	0.157701
O21	O	0.870965	-0.219613	-0.162866
O22	O	1.370965	0.280387	0.337134
O23	O	0.768948	-0.219623	-0.264871
O24	O	1.268948	0.280377	0.235129
O25	O	0.870997	-0.283816	-0.444268
O26	O	1.370997	0.216184	0.055732
O27	O	0.768914	-0.283840	-0.342172
O28	O	1.268914	0.216160	0.157828
O29	O	0.948377	-0.219582	-0.444322
O30	O	1.448377	0.280418	0.055678
O31	O	0.948185	-0.368576	-0.264904
O32	O	1.448185	0.131424	0.235096
O33	O	0.870888	-0.368584	-0.342191
O34	O	1.370888	0.131416	0.157809
C35	C	0.746090	-0.251736	-0.303512
C36	C	1.246090	0.248264	0.196488
C37	C	0.676122	-0.251760	-0.303496
C38	C	1.176122	0.248240	0.196504
C39	C	0.643255	-0.285242	-0.343686
C40	C	1.143255	0.214758	0.156314
C41	C	0.577512	-0.285229	-0.343715
C42	C	1.077512	0.214771	0.156285
C43	C	0.544640	-0.251740	-0.303541
C44	C	1.044640	0.248260	0.196459
C45	C	0.577515	-0.218252	-0.263347
C46	C	1.077515	0.281748	0.236653
C47	C	0.643257	-0.218262	-0.263325
C48	C	1.143257	0.281738	0.236675
N49	N	0.441365	-0.247648	-0.248483
N50	N	0.941365	0.252352	0.251517
N51	N	0.378913	-0.247641	-0.248506
N52	N	0.878913	0.252359	0.251494
C53	C	0.346565	-0.251707	-0.303608
C54	C	0.846565	0.248293	0.196392
N55	N	0.379028	-0.255789	-0.358686
N56	N	0.879028	0.244211	0.141314
N57	N	0.441485	-0.255799	-0.358662
N58	N	0.941485	0.244201	0.141338
C59	C	0.473354	-0.251725	-0.303561
C60	C	0.973354	0.248275	0.196439
C61	C	0.242412	-0.285176	-0.343832
C62	C	0.742412	0.214824	0.156168
C63	C	0.176668	-0.285160	-0.343862
C64	C	0.676668	0.214840	0.156138
C65	C	0.176673	-0.218185	-0.263489
C66	C	0.676673	0.281815	0.236511
C67	C	0.242415	-0.218199	-0.263465
C68	C	0.742415	0.281801	0.236535
C69	C	0.275281	-0.251697	-0.303636
C70	C	0.775281	0.248303	0.196364
C71	C	0.909536	-0.387551	-0.303555
C72	C	1.409536	0.112449	0.196445
C73	C	0.909548	-0.445665	-0.303564
C74	C	1.409548	0.054335	0.196436
C75	C	0.949996	-0.806011	-0.263409
C76	C	1.449996	-0.306011	0.236591
C77	C	0.950020	-0.860616	-0.263418
C78	C	1.450020	-0.360616	0.236582
O79	O	0.984300	-0.888838	-0.229245
O80	O	1.484300	-0.388838	0.270755
N81	N	0.909753	-0.887947	-0.303626
N82	N	1.409753	-0.387947	0.196374
C83	C	0.869463	-0.860672	-0.343833
C84	C	1.369463	-0.360672	0.156167
O85	O	0.835215	-0.888934	-0.378034
O86	O	1.335215	-0.388934	0.121966
C87	C	0.869442	-0.806069	-0.343827
C88	C	1.369442	-0.306069	0.156173
C89	C	0.909708	-0.778740	-0.303612
C90	C	1.409708	-0.278740	0.196388
C91	C	0.990259	-0.778683	-0.223198
C92	C	1.490259	-0.278683	0.276802
C93	C	0.990233	-0.724082	-0.223188
C94	C	1.490233	-0.224082	0.276812
C95	C	0.949945	-0.696810	-0.263391
C96	C	1.449945	-0.196810	0.236609
C97	C	0.909682	-0.724139	-0.303603
C98	C	1.409682	-0.224139	0.196397
C99	C	0.829156	-0.778794	-0.384037
C100	C	1.329156	-0.278794	0.115963
C101	C	0.829139	-0.724187	-0.384028
C102	C	1.329139	-0.224187	0.115972
C103	C	0.869404	-0.696858	-0.343812
C104	C	1.369404	-0.196858	0.156188
C105	C	0.869369	-0.642267	-0.343796
C106	C	1.369369	-0.142267	0.156204
N107	N	0.909636	-0.614935	-0.303588
N108	N	1.409636	-0.114935	0.196412
C109	C	0.949924	-0.642207	-0.263385
C110	C	1.449924	-0.142207	0.236615
C111	C	0.869510	-0.975343	-0.343842
C112	C	1.369510	-0.475343	0.156158
C113	C	0.869527	-1.029945	-0.343845
C114	C	1.369527	-0.529945	0.156155
C115	C	0.950086	-1.029885	-0.263431
C116	C	1.450086	-0.529885	0.236569
C117	C	0.950065	-0.975282	-0.263425
C118	C	1.450065	-0.475282	0.236575
C119	C	0.909778	-0.948011	-0.303634
C120	C	1.409778	-0.448011	0.196366
C121	C	0.949868	-0.527542	-0.263369
C122	C	1.449868	-0.027542	0.236631
C123	C	0.949837	-0.472937	-0.263361
C124	C	1.449837	0.027063	0.236639
C125	C	0.869281	-0.473001	-0.343778
C126	C	1.369281	0.026999	0.156222
C127	C	0.869309	-0.527602	-0.343783
C128	C	1.369309	-0.027602	0.156217
C129	C	0.909607	-0.554871	-0.303577
C130	C	1.409607	-0.054871	0.196423
O131	O	0.835108	-0.614010	-0.377953
O132	O	1.335108	-0.114010	0.122047
O133	O	0.984172	-0.613939	-0.229195
O134	O	1.484172	-0.113939	0.270805
C135	C	1.073832	-0.251681	-0.303657
C136	C	1.573832	0.248319	0.196343
C137	C	1.143801	-0.251670	-0.303688
C138	C	1.643801	0.248330	0.196312
C139	C	0.909694	-0.251697	-0.467774
C140	C	1.409694	0.248303	0.032226
C141	C	0.909717	-0.251693	-0.537743
C142	C	1.409717	0.248307	-0.037743
C143	C	0.909766	-0.115335	-0.303627
C144	C	1.409766	0.384665	0.196373
C145	C	0.909818	-0.057221	-0.303645
C146	C	1.409818	0.442779	0.196355
C147	C	0.950007	-0.218244	-0.570639
C148	C	1.450007	0.281756	-0.070639
C149	C	0.950006	-0.218221	-0.636381
C150	C	1.450006	0.281779	-0.136381
C151	C	0.909721	-0.251657	-0.669225
C152	C	1.409721	0.248343	-0.169225
C153	C	0.869424	-0.285108	-0.636321
C154	C	1.369424	0.214892	-0.136321
C155	C	0.869421	-0.285126	-0.570580
C156	C	1.369421	0.214874	-0.070580
N157	N	0.904857	-0.297396	-0.772441
N158	N	1.404857	0.202604	-0.272441
N159	N	0.904863	-0.297377	-0.834892
N160	N	1.404863	0.202623	-0.334892
C161	C	0.909725	-0.251604	-0.867300
C162	C	1.409725	0.248396	-0.367300
N163	N	0.914594	-0.205848	-0.834897
N164	N	1.414594	0.294152	-0.334897
N165	N	0.914591	-0.205867	-0.772440
N166	N	1.414591	0.294133	-0.272440
C167	C	0.909719	-0.251641	-0.740511
C168	C	1.409719	0.248359	-0.240511
C169	C	0.950017	-0.218128	-0.971482
C170	C	1.450017	0.281872	-0.471482
C171	C	0.950011	-0.218104	-1.037225
C172	C	1.450011	0.281896	-0.537225
C173	C	0.869433	-0.284995	-1.037164
C174	C	1.369433	0.215005	-0.537164
C175	C	0.869435	-0.285014	-0.971422
C176	C	1.369435	0.214986	-0.471422
C177	C	0.909730	-0.251581	-0.938584
C178	C	1.409730	0.248419	-0.438584
C179	C	0.909626	-0.251682	-0.140032
C180	C	1.409626	0.248318	0.359968
C181	C	0.909726	-0.251539	-0.070065
C182	C	1.409726	0.248461	0.429935
H183	H	0.269173	-0.312450	-0.376545
H184	H	0.769173	0.187550	0.123455
N185	N	1.033717	-0.808092	-0.179833
N186	N	1.533717	-0.308092	0.320167
H187	H	1.059216	-0.782486	-0.154363
H188	H	1.559216	-0.282486	0.345637
H189	H	1.008116	-0.830782	-0.150669
H190	H	1.508116	-0.330782	0.349331
N191	N	0.542063	-0.182136	-0.220012
N192	N	1.042063	0.317864	0.279988
H193	H	0.572863	-0.160926	-0.194546
H194	H	1.072863	0.339074	0.305454
H195	H	0.514845	-0.157967	-0.245697
H196	H	1.014845	0.342033	0.254303
H197	H	0.269176	-0.190937	-0.230734
H198	H	0.769176	0.309063	0.269266
H199	H	0.796364	-0.801036	-0.416781
H200	H	1.296364	-0.301036	0.083219
H201	H	0.550746	-0.312494	-0.376445
H202	H	1.050746	0.187506	0.123555
N203	N	0.678716	-0.182154	-0.219971
N204	N	1.178716	0.317846	0.280029
H205	H	0.706056	-0.157962	-0.245598
H206	H	1.206056	0.342038	0.254402
H207	H	0.647883	-0.160967	-0.194532
H208	H	1.147883	0.339033	0.305468
H209	H	0.149909	-0.312424	-0.376594
H210	H	0.649909	0.187576	0.123406
N211	N	0.141227	-0.182059	-0.220162
N212	N	0.641227	0.317941	0.279838
H213	H	0.094593	-0.187132	-0.226275
H214	H	0.594593	0.312868	0.273725
H215	H	0.152656	-0.190143	-0.175182
H216	H	0.652656	0.309857	0.324818
N217	N	0.993327	-0.556943	-0.219994
N218	N	1.493327	-0.056943	0.280006
H219	H	0.967768	-0.579635	-0.190793
H220	H	1.467768	-0.079635	0.309207
H221	H	1.022496	-0.579527	-0.245650
H222	H	1.522496	-0.079527	0.254350
N223	N	0.825955	-0.321202	-0.535103
N224	N	1.325955	0.178798	-0.035103
H225	H	0.835691	-0.358555	-0.546552
H226	H	1.335691	0.141445	-0.046552
H227	H	0.832080	-0.316099	-0.488484
H228	H	1.332080	0.183901	0.011516
H229	H	0.796333	-0.701986	-0.416773
H230	H	1.296333	-0.201986	0.083227
H231	H	0.982853	-0.953034	-0.230679
H232	H	1.482853	-0.453034	0.269321
N233	N	0.993458	-0.182016	-1.072710
N234	N	1.493458	0.317984	-0.572710
H235	H	1.018981	-0.160840	-1.041929
H236	H	1.518981	0.339160	-0.541929
H237	H	1.022570	-0.203281	-1.100014
H238	H	1.522570	0.296719	-0.600014
H239	H	0.982824	-0.190902	-0.944744
H240	H	1.482824	0.309098	-0.444744
H241	H	0.982893	-1.052099	-0.230698
H242	H	1.482893	-0.552099	0.269302
H243	H	0.836630	-0.312254	-0.944637
H244	H	1.336630	0.187746	-0.444637
N245	N	0.678696	-0.321371	-0.387017
N246	N	1.178696	0.178629	0.112983
H247	H	0.667313	-0.313304	-0.432014
H248	H	1.167313	0.186696	0.067986
H249	H	0.725320	-0.316285	-0.380854
H250	H	1.225320	0.183715	0.119146
N251	N	0.826091	-1.059412	-0.387218
N252	N	1.326091	-0.559412	0.112782
H253	H	0.851665	-1.082028	-0.416429
H254	H	1.351665	-0.582028	0.083571
H255	H	0.796947	-1.082079	-0.361562
H256	H	1.296947	-0.582079	0.138438
N257	N	0.993450	-0.182171	-0.535224
N258	N	1.493450	0.317829	-0.035224
H259	H	0.987333	-0.187254	-0.488584
H260	H	1.487333	0.312746	0.011416
H261	H	1.038404	-0.190291	-0.546742
H262	H	1.538404	0.309709	-0.046742
N263	N	0.993269	-0.443461	-0.219986
N264	N	1.493269	0.056539	0.280014
H265	H	1.018797	-0.469026	-0.194523
H266	H	1.518797	0.030974	0.305477
H267	H	1.022377	-0.420764	-0.245645
H268	H	1.522377	0.079236	0.254355
N269	N	0.825980	-0.321053	-1.072584
N270	N	1.325980	0.178947	-0.572584
H271	H	0.851539	-0.345271	-1.099879
H272	H	1.351539	0.154729	-0.599879
H273	H	0.800464	-0.342213	-1.041727
H274	H	1.300464	0.157787	-0.541727
N275	N	1.033672	-0.694610	-0.179823
N276	N	1.533672	-0.194610	0.320177
H277	H	1.059198	-0.720179	-0.154363
H278	H	1.559198	-0.220179	0.345637
H279	H	1.062781	-0.671918	-0.205487
H280	H	1.562781	-0.171918	0.294513
N281	N	0.826050	-0.945931	-0.387208
N282	N	1.326050	-0.445931	0.112792
H283	H	0.800545	-0.971535	-0.412677
H284	H	1.300545	-0.471535	0.087323
H285	H	0.796921	-0.923317	-0.361545
H286	H	1.296921	-0.423317	0.138455
N287	N	0.825875	-0.557082	-0.387150
N288	N	1.325875	-0.057082	0.112850
H289	H	0.800347	-0.531518	-0.412614
H290	H	1.300347	-0.031518	0.087386
H291	H	0.851496	-0.579695	-0.416319
H292	H	1.351496	-0.079695	0.083681
N293	N	0.825825	-0.443582	-0.387134
N294	N	1.325825	0.056418	0.112866
H295	H	0.831924	-0.404845	-0.381023
H296	H	1.331924	0.095155	0.118977
H297	H	0.835605	-0.453095	-0.432106
H298	H	1.335605	0.046905	0.067894
N299	N	0.993462	-0.182143	-0.671873
N300	N	1.493462	0.317857	-0.171873
H301	H	1.018988	-0.160966	-0.641095
H302	H	1.518988	0.339034	-0.141095
H303	H	1.022572	-0.203418	-0.699169
H304	H	1.522572	0.296582	-0.199169
N305	N	0.825973	-0.321174	-0.671735
N306	N	1.325973	0.178826	-0.171735
H307	H	0.781004	-0.313061	-0.660260
H308	H	1.281004	0.186939	-0.160260
H309	H	0.832138	-0.316076	-0.718364
H310	H	1.332138	0.183924	-0.218364
