data_functionalizedCrystal
_audit_creation_method	'MofGen! by Chris Wilmer'
_symmetry_space_group_name_H-M	'P1'
_symmetry_Int_Tables_number	1
_symmetry_cell_setting	triclinic
loop_
_symmetry_equiv_pos_as_xyz
  x,y,z
_cell_length_a	18.215407
_cell_length_b	12.594516
_cell_length_c	18.215399
_cell_angle_alpha	89.977475
_cell_angle_beta	89.980650
_cell_angle_gamma	90.016501
loop_
_atom_site_label
_atom_site_type_symbol
_atom_site_fract_x
_atom_site_fract_y
_atom_site_fract_z
Zn1	Zn	1.125114	-0.423736	-0.416146
Zn2	Zn	1.625114	0.076264	0.083854
Zn3	Zn	1.125042	-0.601735	-0.293092
Zn4	Zn	1.625042	-0.101735	0.206908
Zn5	Zn	1.002047	-0.423772	-0.293093
Zn6	Zn	1.502047	0.076228	0.206907
Zn7	Zn	1.002031	-0.601674	-0.416117
Zn8	Zn	1.502031	-0.101674	0.083883
O9	O	1.063558	-0.512729	-0.354612
O10	O	1.563558	-0.012729	0.145388
O11	O	1.228088	-0.447358	-0.399834
O12	O	1.728088	0.052642	0.100166
O13	O	1.108703	-0.578168	-0.190108
O14	O	1.608703	-0.078168	0.309892
O15	O	1.018409	-0.274821	-0.309429
O16	O	1.518409	0.225179	0.190571
O17	O	1.228036	-0.578133	-0.309427
O18	O	1.728036	-0.078133	0.190573
O19	O	1.108825	-0.274795	-0.399835
O20	O	1.608825	0.225205	0.100165
O21	O	1.018340	-0.447420	-0.190109
O22	O	1.518340	0.052580	0.309891
O23	O	0.899061	-0.447361	-0.309401
O24	O	1.399061	0.052639	0.190599
O25	O	1.018381	-0.578030	-0.519105
O26	O	1.518381	-0.078030	-0.019105
O27	O	0.899049	-0.578065	-0.399786
O28	O	1.399049	-0.078065	0.100214
O29	O	1.108810	-0.447299	-0.519126
O30	O	1.608810	0.052701	-0.019126
O31	O	1.108688	-0.750672	-0.309399
O32	O	1.608688	-0.250672	0.190601
O33	O	1.018312	-0.750628	-0.399785
O34	O	1.518312	-0.250628	0.100215
C35	C	0.872352	-0.512711	-0.354591
C36	C	1.372352	-0.012711	0.145409
C37	C	0.790553	-0.512729	-0.354599
C38	C	1.290553	-0.012729	0.145401
C39	C	0.602372	-0.580893	-0.401604
C40	C	1.102372	-0.080893	0.098396
C41	C	0.525514	-0.580897	-0.401613
C42	C	1.025514	-0.080897	0.098387
C43	C	0.525496	-0.444584	-0.307636
C44	C	1.025496	0.055416	0.192364
C45	C	0.602354	-0.444576	-0.307631
C46	C	1.102354	0.055424	0.192369
C47	C	0.640790	-0.512737	-0.354614
C48	C	1.140790	-0.012737	0.145386
C49	C	0.487074	-0.512748	-0.354628
C50	C	0.987074	-0.012748	0.145372
C51	C	0.403740	-0.512751	-0.354638
C52	C	0.903740	-0.012751	0.145362
C53	C	0.724129	-0.512733	-0.354606
C54	C	1.224129	-0.012733	0.145394
C55	C	1.063510	-0.789270	-0.354605
C56	C	1.563510	-0.289270	0.145395
C57	C	1.063557	-0.907576	-0.354626
C58	C	1.563557	-0.407576	0.145374
C59	C	1.014397	-0.976843	-0.403753
C60	C	1.514397	-0.476843	0.096247
C61	C	0.996468	-1.047703	-0.336600
C62	C	1.496468	-0.547703	0.163400
C63	C	1.081553	-1.047515	-0.421791
C64	C	1.581553	-0.547515	0.078209
C65	C	1.045593	-0.976877	-0.287438
C66	C	1.545593	-0.476877	0.212562
C67	C	1.130709	-0.976683	-0.372674
C68	C	1.630709	-0.476683	0.127326
C69	C	1.112805	-1.047511	-0.305475
C70	C	1.612805	-0.547511	0.194525
C71	C	1.255511	-0.512748	-0.354634
C72	C	1.755511	-0.012748	0.145366
C73	C	1.337310	-0.512756	-0.354643
C74	C	1.837310	-0.012756	0.145357
C75	C	1.063602	-0.512654	-0.546565
C76	C	1.563602	-0.012654	-0.046565
C77	C	1.063620	-0.512622	-0.628364
C78	C	1.563620	-0.012622	-0.128364
C79	C	1.063627	-0.235108	-0.354635
C80	C	1.563627	0.264892	0.145365
C81	C	1.063656	-0.116803	-0.354645
C82	C	1.563656	0.383197	0.145355
C83	C	1.110733	-0.444458	-0.893434
C84	C	1.610733	0.055542	-0.393434
C85	C	1.110725	-0.444487	-0.816575
C86	C	1.610725	0.055513	-0.316575
C87	C	1.016567	-0.580631	-0.816543
C88	C	1.516567	-0.080631	-0.316543
C89	C	1.016580	-0.580606	-0.893400
C90	C	1.516580	-0.080606	-0.393400
C91	C	1.063662	-0.512514	-0.931844
C92	C	1.563662	-0.012514	-0.431844
C93	C	1.063640	-0.512567	-0.778127
C94	C	1.563640	-0.012567	-0.278127
C95	C	1.063630	-0.512599	-0.694794
C96	C	1.563630	-0.012599	-0.194794
C97	C	1.063673	-0.512484	-1.015183
C98	C	1.563673	-0.012484	-0.515183
C99	C	1.063558	-0.512728	-0.163406
C100	C	1.563558	-0.012728	0.336594
C101	C	1.063682	-0.512460	-0.081607
C102	C	1.563682	-0.012460	0.418393
H103	H	0.972749	-0.945813	-0.445237
H104	H	1.472749	-0.445813	0.054763
N105	N	1.025392	-0.935960	-0.212188
N106	N	1.525392	-0.435960	0.287812
H107	H	1.062313	-0.962269	-0.175045
H108	H	1.562313	-0.462269	0.324955
H109	H	1.025447	-0.855773	-0.212717
H110	H	1.525447	-0.355773	0.287283
N111	N	0.484076	-0.654415	-0.452289
N112	N	0.984076	-0.154415	0.047711
H113	H	0.497477	-0.637987	-0.504889
H114	H	0.997477	-0.137987	-0.004889
H115	H	0.497452	-0.730410	-0.440702
H116	H	0.997452	-0.230410	0.059298
N117	N	1.101664	-1.088628	-0.497014
N118	N	1.601664	-0.588628	0.002986
H119	H	1.064455	-1.062923	-0.534072
H120	H	1.564455	-0.562923	-0.034072
H121	H	1.152000	-1.061678	-0.510957
H122	H	1.652000	-0.561678	-0.010957
H123	H	0.494193	-0.389092	-0.269384
H124	H	0.994193	0.110908	0.230616
H125	H	1.149056	-0.389070	-0.785305
H126	H	1.649056	0.110930	-0.285305
H127	H	0.633634	-0.389069	-0.269367
H128	H	1.133634	0.110931	0.230633
N129	N	1.167934	-1.088358	-0.250399
N130	N	1.667934	-0.588358	0.249601
H131	H	1.154285	-1.062523	-0.199717
H132	H	1.654285	-0.562523	0.300283
H133	H	1.167954	-1.168542	-0.251070
H134	H	1.667954	-0.668542	0.248930
N135	N	1.161523	-0.371033	-0.934897
N136	N	1.661523	0.128967	-0.434897
H137	H	1.154390	-0.381341	-0.989415
H138	H	1.654390	0.118659	-0.489415
H139	H	1.150085	-0.295020	-0.921469
H140	H	1.650085	0.204980	-0.421469
N141	N	0.921304	-1.089014	-0.316373
N142	N	1.421304	-0.589014	0.183627
H143	H	0.884165	-1.063313	-0.353501
H144	H	1.384165	-0.563313	0.146499
H145	H	0.922082	-1.169195	-0.316047
H146	H	1.422082	-0.669195	0.183953
H147	H	1.187438	-0.945468	-0.387956
H148	H	1.687438	-0.445468	0.112044
N149	N	0.965786	-0.654068	-0.775078
N150	N	1.465786	-0.154068	-0.275078
H151	H	0.972918	-0.643755	-0.720561
H152	H	1.472918	-0.143755	-0.220561
H153	H	0.913232	-0.637497	-0.788507
H154	H	1.413232	-0.137497	-0.288507
N155	N	0.965811	-0.654018	-0.934835
N156	N	1.465811	-0.154018	-0.434835
H157	H	0.935979	-0.697153	-0.898820
H158	H	1.435979	-0.197153	-0.398820
H159	H	0.931769	-0.610683	-0.966725
H160	H	1.431769	-0.110683	-0.466725
H161	H	0.633665	-0.636391	-0.439862
H162	H	1.133665	-0.136391	0.060138
