data_functionalizedCrystal
_audit_creation_method	'MofGen! by Chris Wilmer'
_symmetry_space_group_name_H-M	'P1'
_symmetry_Int_Tables_number	1
_symmetry_cell_setting	triclinic
loop_
_symmetry_equiv_pos_as_xyz
  x,y,z
_cell_length_a	15.538191
_cell_length_b	15.995350
_cell_length_c	14.185569
_cell_angle_alpha	76.847063
_cell_angle_beta	97.875798
_cell_angle_gamma	65.382234
loop_
_atom_site_label
_atom_site_type_symbol
_atom_site_fract_x
_atom_site_fract_y
_atom_site_fract_z
O1	O	1.228538	-0.246460	-0.083440
O2	O	0.954280	-0.149782	-0.083436
O3	O	1.098906	-0.322287	-0.083437
O4	O	1.083912	-0.073955	-0.083439
O5	O	1.141630	-0.373243	0.083397
O6	O	0.997004	-0.200737	0.083399
O7	O	1.271262	-0.297416	0.083394
Cu8	Cu	1.138034	-0.253729	0.098629
Cu9	Cu	1.087508	-0.193468	-0.098671
O10	O	1.126635	-0.124910	0.083395
C11	C	0.940547	-0.165144	-0.000018
C12	C	0.835973	-0.135015	-0.000016
C13	C	0.548179	-0.434345	-0.000030
C14	C	0.449913	-0.406012	-0.000031
C15	C	0.427470	-0.246646	-0.000032
C16	C	0.525737	-0.274967	-0.000026
C17	C	0.586085	-0.368817	-0.000026
C18	C	0.563643	-0.209439	-0.000022
C19	C	0.661900	-0.237757	-0.000021
C20	C	0.722252	-0.331602	-0.000025
C21	C	0.684342	-0.397135	-0.000026
C22	C	0.503292	-0.115587	-0.000029
C23	C	0.541197	-0.050060	-0.000025
C24	C	0.639458	-0.078379	-0.000017
C25	C	0.699811	-0.172225	-0.000021
C26	C	0.677369	-0.012847	-0.000016
C27	C	0.775626	-0.041165	-0.000016
C28	C	0.798068	-0.200542	-0.000020
C29	C	1.119648	-0.378771	-0.000022
C30	C	1.117788	-0.471155	-0.000028
C31	C	1.111115	-0.806875	-0.000024
C32	C	1.008019	-0.728023	-0.000397
C33	C	1.009974	-0.632013	-0.000021
C34	C	1.114425	-0.640320	-0.000026
C35	C	1.189625	-0.725935	0.095241
C36	C	1.187058	-0.821808	0.095321
C37	C	1.140601	-0.764867	-0.094401
C38	C	1.140254	-0.667530	-0.095660
C39	C	1.116302	-0.546193	-0.000024
C40	C	1.109243	-0.901005	-0.000019
C41	C	1.284995	-0.282052	-0.000026
C42	C	1.389566	-0.312180	-0.000034
C43	C	1.105893	-0.068426	-0.000022
C44	C	1.107752	0.023960	-0.000023
N45	N	1.173578	-0.296116	0.237400
N46	N	1.051971	-0.151090	-0.237442
C47	C	0.947543	-0.026594	0.605052
C48	C	0.974474	-0.058698	0.710074
C49	C	1.102566	-0.211417	0.710033
C50	C	1.075643	-0.179328	0.605010
C51	C	0.998131	-0.086915	0.552528
C52	C	1.126231	-0.239649	0.552485
C53	C	1.099314	-0.207560	0.447471
C54	C	1.021807	-0.115150	0.394981
C55	C	0.971214	-0.054826	0.447514
C56	C	1.203747	-0.332059	0.604969
C57	C	1.254336	-0.392380	0.552445
C58	C	1.227413	-0.360294	0.447428
C59	C	1.149907	-0.267884	0.394939
C60	C	1.278007	-0.420618	0.394896
C61	C	1.251089	-0.388529	0.289882
C62	C	1.122989	-0.235795	0.289925
H63	H	0.806491	0.012192	-0.000004
H64	H	0.423285	-0.092533	-0.000032
Cl65	Cl	0.601489	0.105137	-0.000034
Cl66	Cl	1.257591	-0.849233	-0.095399
Cl67	Cl	0.921316	-0.537186	-0.105456
H68	H	0.419056	-0.459379	-0.000036
Cl69	Cl	0.917441	-0.705097	-0.105876
H70	H	1.088433	-0.753118	-0.166608
H71	H	0.999895	-0.089023	0.309472
H72	H	1.168250	-0.850603	0.166539
H73	H	0.884419	0.048654	0.562320
H74	H	0.984432	-0.755912	0.067543
Cl75	Cl	0.974947	-0.602378	0.105597
Cl76	Cl	0.910866	0.017150	0.776097
H77	H	0.597319	-0.510769	-0.000024
H78	H	0.733482	-0.473559	-0.000020
H79	H	0.378322	-0.170231	-0.000036
H80	H	0.492049	0.026355	-0.000029
Cl81	Cl	1.351778	-0.508551	0.618429
Cl82	Cl	1.305518	-0.909124	0.102003
Cl83	Cl	0.873758	0.061347	0.381532
Cl84	Cl	1.309504	-0.741806	0.100711
Cl85	Cl	1.163180	-0.698998	0.204707
Cl86	Cl	1.055508	-0.574446	-0.204488
H87	H	1.214950	-0.673559	-0.101416
H88	H	1.059865	-0.160547	0.247192
H89	H	1.165679	-0.286660	0.752776
Cl90	Cl	0.845777	-0.367203	-0.000030
H91	H	1.225663	-0.358180	0.690479
Cl92	Cl	1.375456	-0.536784	0.460884
H93	H	0.847208	-0.276967	-0.000014
Cl94	Cl	1.314691	-0.464362	0.223849
