data_functionalizedCrystal
_audit_creation_method	'MofGen! by Chris Wilmer'
_symmetry_space_group_name_H-M	'P1'
_symmetry_Int_Tables_number	1
_symmetry_cell_setting	triclinic
loop_
_symmetry_equiv_pos_as_xyz
  x,y,z
_cell_length_a	18.050590
_cell_length_b	16.120530
_cell_length_c	16.120297
_cell_angle_alpha	89.871860
_cell_angle_beta	92.884174
_cell_angle_gamma	92.907328
loop_
_atom_site_label
_atom_site_type_symbol
_atom_site_fract_x
_atom_site_fract_y
_atom_site_fract_z
Zn1	Zn	0.376261	1.247635	0.534650
Zn2	Zn	0.876261	1.747635	1.034650
Zn3	Zn	0.494490	1.254646	0.395619
Zn4	Zn	0.994490	1.754646	0.895619
Zn5	Zn	0.363711	1.115618	0.388565
Zn6	Zn	0.863711	1.615618	0.888565
Zn7	Zn	0.493806	1.108602	0.527588
Zn8	Zn	0.993806	1.608602	1.027588
O9	O	0.432067	1.181625	0.461606
O10	O	0.932067	1.681625	0.961606
O11	O	0.397483	1.364934	0.522115
O12	O	0.897483	1.864934	1.022115
O13	O	0.472176	1.242075	0.278317
O14	O	0.972176	1.742075	0.778317
O15	O	0.261452	1.133132	0.407947
O16	O	0.761452	1.633132	0.907947
O17	O	0.484345	1.370085	0.419969
O18	O	0.984345	1.870085	0.919969
O19	O	0.270672	1.230124	0.515275
O20	O	0.770672	1.730124	1.015275
O21	O	0.376093	1.139931	0.273134
O22	O	0.876093	1.639931	0.773134
O23	O	0.375430	0.998319	0.401099
O24	O	0.875430	1.498319	0.901099
O25	O	0.483179	1.121175	0.644892
O26	O	0.983179	1.621175	1.144892
O27	O	0.471010	0.993164	0.503239
O28	O	0.971010	1.493164	1.003239
O29	O	0.396820	1.223321	0.650080
O30	O	0.896820	1.723321	1.150080
O31	O	0.598324	1.235271	0.413122
O32	O	1.098324	1.735271	0.913122
O33	O	0.597821	1.127974	0.510079
O34	O	1.097821	1.627974	1.010079
C35	C	0.421785	0.965568	0.450638
C36	C	0.921785	1.465568	0.950638
C37	C	0.417405	0.873137	0.445966
C38	C	0.917405	1.373137	0.945966
C39	C	0.409391	0.703903	0.437442
C40	C	0.909391	1.203903	0.937442
C41	C	0.454801	0.660185	0.485829
C42	C	0.954801	1.160185	0.985829
C43	C	0.450342	0.566018	0.481087
C44	C	0.950342	1.066018	0.981087
C45	C	0.413849	0.798079	0.442184
C46	C	0.913849	1.298079	0.942184
C47	C	0.238362	1.181629	0.461612
C48	C	0.738362	1.681629	0.961612
C49	C	0.155816	1.181630	0.461614
C50	C	0.655816	1.681630	0.961614
C51	C	-0.098021	1.128929	0.403265
C52	C	0.401979	1.628929	0.903265
C53	C	-0.045878	1.205812	0.386768
C54	C	0.454122	1.705812	0.886768
C55	C	-0.141300	1.181696	0.461642
C56	C	0.358700	1.681696	0.961642
C57	C	-0.046365	1.104787	0.478086
C58	C	0.453635	1.604787	0.978086
C59	C	0.004683	1.181660	0.461626
C60	C	0.504683	1.681660	0.961626
C61	C	-0.090244	1.258621	0.445108
C62	C	0.409756	1.758621	0.945108
C63	C	-0.090736	1.157542	0.536458
C64	C	0.409264	1.657542	1.036458
C65	C	-0.038612	1.234476	0.519993
C66	C	0.461388	1.734476	1.019993
C67	C	-0.225397	1.181715	0.461649
C68	C	0.274603	1.681715	0.961649
C69	C	0.088779	1.181648	0.461620
C70	C	0.588779	1.681648	0.961620
C71	C	0.625021	1.181644	0.461619
C72	C	1.125021	1.681644	0.961619
C73	C	0.707572	1.181726	0.461656
C74	C	1.207572	1.681726	0.961656
C75	C	0.441323	1.170683	0.678502
C76	C	0.941323	1.670683	1.178502
C77	C	0.445267	1.166020	0.770930
C78	C	0.945267	1.666020	1.270930
C79	C	0.442390	1.398526	0.472617
C80	C	0.942390	1.898526	0.972617
C81	C	0.446789	1.490957	0.477309
C82	C	0.946789	1.990957	0.977309
C83	C	0.422796	1.192573	0.245556
C84	C	0.922796	1.692573	0.745556
C85	C	0.418650	1.197397	0.153136
C86	C	0.918650	1.697397	0.653136
C87	C	0.452451	1.157476	0.940156
C88	C	0.952451	1.657476	1.440156
C89	C	0.411468	1.205939	0.983915
C90	C	0.911468	1.705939	1.483915
C91	C	0.415465	1.201185	1.078078
C92	C	0.915465	1.701185	1.578078
C93	C	0.448455	1.162229	0.845984
C94	C	0.948455	1.662229	1.345984
H95	H	-0.123941	1.084383	0.353871
H96	H	0.376059	1.584383	0.853871
H97	H	0.373380	1.250998	0.950659
H98	H	0.873380	1.750998	1.450659
O99	O	0.353462	0.659819	0.377844
O100	O	0.853462	1.159819	0.877844
H101	H	0.364101	0.679722	0.313382
H102	H	0.864101	1.179722	0.813382
O103	O	-0.115773	1.344784	0.426575
O104	O	0.384227	1.844784	0.926575
H105	H	-0.066742	1.387582	0.417392
H106	H	0.433258	1.887582	0.917392
O107	O	-0.004448	1.293631	0.585380
O108	O	0.495552	1.793631	1.085380
H109	H	-0.023222	1.274097	0.647295
H110	H	0.476778	1.774097	1.147295
H111	H	0.497026	0.693479	0.530818
H112	H	0.997026	1.193479	1.030818
O113	O	-0.020832	1.018656	0.496784
O114	O	0.479168	1.518656	0.996784
H115	H	0.040711	1.019407	0.497313
H116	H	0.540711	1.519407	0.997313
H117	H	-0.110534	1.137102	0.599716
H118	H	0.389466	1.637102	1.099716
H119	H	-0.026098	1.226231	0.323491
H120	H	0.473902	1.726231	0.823491
O121	O	0.502903	1.097791	0.984197
O122	O	1.002903	1.597791	1.484197
H123	H	0.498165	1.103384	1.052317
H124	H	0.998165	1.603384	1.552317
