data_functionalizedCrystal
_audit_creation_method	'MofGen! by Chris Wilmer'
_symmetry_space_group_name_H-M	'P1'
_symmetry_Int_Tables_number	1
_symmetry_cell_setting	triclinic
loop_
_symmetry_equiv_pos_as_xyz
  x,y,z
_cell_length_a	19.188933
_cell_length_b	19.188930
_cell_length_c	15.455313
_cell_angle_alpha	92.650876
_cell_angle_beta	87.329187
_cell_angle_gamma	83.145175
loop_
_atom_site_label
_atom_site_type_symbol
_atom_site_fract_x
_atom_site_fract_y
_atom_site_fract_z
O1	O	0.929213	0.084112	-0.072111
O2	O	1.262546	0.417445	0.261222
O3	O	1.595879	0.750778	0.594555
O4	O	0.725902	0.095844	-0.072121
O5	O	1.059235	0.429177	0.261213
O6	O	1.392569	0.762511	0.594546
O7	O	0.833424	-0.011677	-0.072099
O8	O	1.166757	0.321656	0.261235
O9	O	1.500090	0.654990	0.594568
O10	O	0.821691	0.191633	-0.072133
O11	O	1.155024	0.524966	0.261200
O12	O	1.488358	0.858299	0.594534
O13	O	0.827275	-0.005554	0.072162
O14	O	1.160609	0.327780	0.405496
O15	O	1.493942	0.661113	0.738829
O16	O	0.719754	0.101967	0.072140
O17	O	1.053087	0.435301	0.405474
O18	O	1.386420	0.768634	0.738807
O19	O	0.923064	0.090235	0.072150
O20	O	1.256398	0.423568	0.405483
O21	O	1.589731	0.756902	0.738816
Cu22	Cu	0.820847	0.096660	0.085317
Cu23	Cu	1.154181	0.429994	0.418650
Cu24	Cu	1.487514	0.763327	0.751984
Cu25	Cu	0.828119	0.089419	-0.085288
Cu26	Cu	1.161452	0.422752	0.248045
Cu27	Cu	1.494785	0.756085	0.581379
O28	O	0.815542	0.197756	0.072128
O29	O	1.148876	0.531089	0.405461
O30	O	1.482209	0.864423	0.738794
C31	C	0.696817	0.098525	0.000009
C32	C	1.030150	0.431859	0.333342
C33	C	1.363483	0.765192	0.666676
C34	C	0.619312	0.097384	0.000006
C35	C	0.952646	0.430717	0.333339
C36	C	1.285979	0.764051	0.666673
C37	C	0.069408	0.085901	-0.078620
C38	C	0.402742	0.419235	0.254714
C39	C	0.736075	0.752568	0.588047
C40	C	0.142233	0.086969	-0.078623
C41	C	0.475566	0.420303	0.254710
C42	C	0.808899	0.753636	0.588043
C43	C	0.175298	0.090845	0.000013
C44	C	0.508631	0.424178	0.333346
C45	C	0.841965	0.757511	0.666680
C46	C	0.135535	0.093634	0.078659
C47	C	0.468869	0.426967	0.411992
C48	C	0.802202	0.760301	0.745325
C49	C	0.062713	0.092559	0.078660
C50	C	0.396047	0.425892	0.411993
C51	C	0.729380	0.759226	0.745326
N52	N	0.281824	0.134747	0.058538
N53	N	0.615157	0.468081	0.391872
N54	N	0.948490	0.801414	0.725205
N55	N	0.351002	0.135770	0.058532
N56	N	0.684335	0.469103	0.391865
N57	N	1.017668	0.802436	0.725199
C58	C	0.394707	0.094082	0.000014
C59	C	0.728040	0.427416	0.333347
C60	C	1.061373	0.760749	0.666680
N61	N	0.366620	0.051342	-0.058511
N62	N	0.699953	0.384676	0.274823
N63	N	1.033287	0.718009	0.608156
N64	N	0.297435	0.050323	-0.058507
N65	N	0.630769	0.383656	0.274827
N66	N	0.964102	0.716989	0.608160
C67	C	0.254261	0.092010	0.000020
C68	C	0.587594	0.425344	0.333354
C69	C	0.920928	0.758677	0.666687
C70	C	0.513426	0.092446	-0.078631
C71	C	0.846759	0.425780	0.254703
C72	C	1.180092	0.759113	0.588036
C73	C	0.586252	0.093510	-0.078631
C74	C	0.919585	0.426843	0.254702
C75	C	1.252919	0.760177	0.588036
C76	C	0.579552	0.100182	0.078653
C77	C	0.912885	0.433515	0.411987
C78	C	1.246219	0.766848	0.745320
C79	C	0.506728	0.099111	0.078651
C80	C	0.840062	0.432444	0.411985
C81	C	1.173395	0.765777	0.745318
C82	C	0.473669	0.095246	0.000007
C83	C	0.807003	0.428580	0.333340
C84	C	1.140336	0.761913	0.666673
C85	C	0.829969	-0.034626	0.000034
C86	C	1.163303	0.298707	0.333368
C87	C	1.496636	0.632040	0.666701
C88	C	0.828828	-0.112131	0.000042
C89	C	1.162162	0.221203	0.333375
C90	C	1.495495	0.554536	0.666708
C91	C	0.891919	-0.157054	0.000049
C92	C	1.225252	0.176280	0.333382
C93	C	1.558586	0.509613	0.666715
C94	C	0.890848	-0.229878	0.000035
C95	C	1.224181	0.103455	0.333368
C96	C	1.557514	0.436789	0.666701
C97	C	0.826682	-0.257775	0.000031
C98	C	1.160015	0.075558	0.333365
C99	C	1.493349	0.408891	0.666698
C100	C	0.763583	-0.212842	0.000019
C101	C	1.096917	0.120491	0.333353
C102	C	1.430250	0.453824	0.666686
C103	C	0.764657	-0.140020	0.000024
C104	C	1.097990	0.193313	0.333358
C105	C	1.431323	0.526647	0.666691
N106	N	0.775542	-0.363697	0.049124
N107	N	1.108876	-0.030364	0.382457
N108	N	1.442209	0.302970	0.715790
N109	N	0.774527	-0.432876	0.049121
N110	N	1.107860	-0.099542	0.382454
N111	N	1.441194	0.233791	0.715787
C112	C	0.823445	-0.477185	0.000013
C113	C	1.156778	-0.143851	0.333347
C114	C	1.490111	0.189482	0.666680
N115	N	0.873426	-0.449703	-0.049079
N116	N	1.206759	-0.116369	0.284254
N117	N	1.540093	0.216964	0.617587
N118	N	0.874443	-0.380518	-0.049072
N119	N	1.207777	-0.047184	0.284261
N120	N	1.541110	0.286149	0.617594
C121	C	0.825511	-0.336738	0.000025
C122	C	1.158844	-0.003405	0.333358
C123	C	1.492178	0.329929	0.666692
C124	C	0.885378	-0.601073	0.000004
C125	C	1.218711	-0.267740	0.333338
C126	C	1.552045	0.065594	0.666671
C127	C	0.884305	-0.673899	-0.000015
C128	C	1.217638	-0.340565	0.333318
C129	C	1.550971	-0.007232	0.666652
C130	C	0.757038	-0.656861	-0.000022
C131	C	1.090371	-0.323528	0.333311
C132	C	1.423705	0.009806	0.666645
C133	C	0.758114	-0.584037	-0.000011
C134	C	1.091447	-0.250704	0.333322
C135	C	1.424780	0.082629	0.666655
C136	C	0.822285	-0.556148	0.000006
C137	C	1.155619	-0.222815	0.333339
C138	C	1.488952	0.110519	0.666673
C139	C	0.952149	0.087553	0.000018
C140	C	1.285483	0.420887	0.333352
C141	C	1.618816	0.754220	0.666685
C142	C	1.029654	0.088694	0.000015
C143	C	1.362987	0.422028	0.333349
C144	C	1.696321	0.755361	0.666682
C145	C	0.818997	0.220705	-0.000007
C146	C	1.152330	0.554038	0.333326
C147	C	1.485664	0.887372	0.666660
C148	C	0.820138	0.298209	-0.000020
C149	C	1.153471	0.631542	0.333313
C150	C	1.486805	0.964876	0.666647
N151	N	0.815738	0.101753	0.205312
N152	N	1.149072	0.435086	0.538645
N153	N	1.482405	0.768420	0.871978
N154	N	0.833233	0.084320	-0.205283
N155	N	1.166567	0.417654	0.128051
N156	N	1.499900	0.750987	0.461384
C157	C	0.861433	0.056091	0.250715
C158	C	1.194766	0.389424	0.584048
C159	C	1.528100	0.722758	0.917382
C160	C	0.857576	0.059949	0.341522
C161	C	1.190909	0.393282	0.674856
C162	C	1.524242	0.726616	1.008189
C163	C	0.808026	0.109473	0.386924
C164	C	1.141360	0.442806	0.720258
C165	C	1.474693	0.776139	1.053591
C166	C	0.762327	0.155137	0.341514
C167	C	1.095660	0.488470	0.674848
C168	C	1.428993	0.821803	1.008181
C169	C	0.766181	0.151275	0.250709
C170	C	1.099515	0.484608	0.584042
C171	C	1.432848	0.817942	0.917376
C172	C	0.791388	0.126123	0.658502
C173	C	1.124722	0.459456	0.991836
C174	C	1.458055	0.792789	1.325169
C175	C	0.787539	0.129982	0.749314
C176	C	1.120872	0.463316	1.082647
C177	C	1.454205	0.796649	1.415981
C178	C	0.882787	0.034793	0.749316
C179	C	1.216121	0.368126	1.082649
C180	C	1.549454	0.701460	1.415982
C181	C	0.886640	0.030939	0.658508
C182	C	1.219974	0.364272	0.991842
C183	C	1.553307	0.697605	1.325175
C184	C	0.840938	0.076600	0.613107
C185	C	1.174272	0.409933	0.946440
C186	C	1.507605	0.743267	1.279773
N187	N	0.804084	0.113419	0.479744
N188	N	1.137417	0.446752	0.813077
N189	N	1.470750	0.780085	1.146410
N190	N	0.844878	0.072650	0.520289
N191	N	1.178211	0.405984	0.853622
N192	N	1.511545	0.739317	1.186955
H193	H	0.606474	0.103334	0.142680
H194	H	0.939807	0.436668	0.476014
H195	H	1.273140	0.770001	0.809347
H196	H	0.486508	0.089297	-0.142668
H197	H	0.819841	0.422631	0.190666
H198	H	1.153175	0.755964	0.523999
H199	H	0.919995	-0.002383	0.786290
H200	H	1.253328	0.330950	1.119623
H201	H	1.586662	0.664284	1.452957
H202	H	0.901784	0.015766	0.213755
H203	H	1.235118	0.349100	0.547088
H204	H	1.568451	0.682433	0.880421
H205	H	0.747188	0.170313	0.786276
H206	H	1.080521	0.503647	1.119610
H207	H	1.413854	0.836980	1.452943
F208	F	0.020402	0.095534	0.162358
F209	F	0.353735	0.428867	0.495691
F210	F	0.687069	0.762200	0.829025
H211	H	0.711339	-0.235561	0.000014
H212	H	1.044672	0.097772	0.333348
H213	H	1.378006	0.431106	0.666681
F214	F	0.170727	0.097756	0.162349
F215	F	0.504060	0.431089	0.495682
F216	F	0.837394	0.764422	0.829015
H217	H	0.944173	-0.134351	0.000060
H218	H	1.277506	0.198982	0.333393
H219	H	1.610839	0.532315	0.666726
H220	H	0.754177	0.163303	0.621543
H221	H	1.087511	0.496637	0.954877
H222	H	1.420844	0.829970	1.288210
F223	F	0.717544	0.199873	0.202389
F224	F	1.050877	0.533207	0.535722
F225	F	1.384211	0.866540	0.869055
F226	F	0.628562	0.090531	-0.162330
F227	F	0.961896	0.423864	0.171003
F228	F	1.295229	0.757197	0.504337
H229	H	0.721979	0.195458	0.378486
H230	H	1.055312	0.528791	0.711819
H231	H	1.388646	0.862125	1.045153
H232	H	0.942225	-0.266462	0.000037
H233	H	1.275559	0.066872	0.333370
H234	H	1.608892	0.400205	0.666704
H235	H	0.174606	0.084699	-0.142660
H236	H	0.507940	0.418032	0.190674
H237	H	0.841273	0.751366	0.524007
F238	F	0.939377	-0.021769	0.610189
F239	F	1.272710	0.311564	0.943523
F240	F	1.606043	0.644898	1.276856
F241	F	0.951458	-0.721710	-0.000013
F242	F	1.284792	-0.388377	0.333320
F243	F	1.618125	-0.055044	0.666653
H244	H	0.042497	0.082752	-0.142658
H245	H	0.375830	0.416085	0.190675
H246	H	0.709163	0.749419	0.524008
F247	F	0.464416	0.102093	0.162347
F248	F	0.797749	0.435426	0.495680
F249	F	1.131083	0.768759	0.829013
H250	H	0.713279	-0.103443	0.000019
H251	H	1.046612	0.229891	0.333352
H252	H	1.379946	0.563224	0.666686
H253	H	0.894783	0.022767	0.378489
H254	H	1.228117	0.356100	0.711823
H255	H	1.561450	0.689434	1.045156
H256	H	0.937631	-0.578365	0.000014
H257	H	1.270964	-0.245031	0.333348
H258	H	1.604297	0.088302	0.666681
F259	F	0.688747	-0.686547	-0.000030
F260	F	1.022081	-0.353213	0.333303
F261	F	1.355414	-0.019880	0.666637
H262	H	0.706738	-0.547459	-0.000012
H263	H	1.040071	-0.214126	0.333321
H264	H	1.373405	0.119207	0.666654
