data_functionalizedCrystal
_audit_creation_method	'MofGen! by Chris Wilmer'
_symmetry_space_group_name_H-M	'P1'
_symmetry_Int_Tables_number	1
_symmetry_cell_setting	triclinic
loop_
_symmetry_equiv_pos_as_xyz
  x,y,z
_cell_length_a	10.654550
_cell_length_b	19.188930
_cell_length_c	9.130313
_cell_angle_alpha	89.990369
_cell_angle_beta	89.999724
_cell_angle_gamma	83.814856
loop_
_atom_site_label
_atom_site_type_symbol
_atom_site_fract_x
_atom_site_fract_y
_atom_site_fract_z
O1	O	1.665764	0.098062	-0.121709
O2	O	1.300088	0.107405	-0.121737
O3	O	1.493479	0.001147	-0.121693
O4	O	1.472374	0.204320	-0.121752
O5	O	1.493466	0.001143	0.121905
O6	O	1.300075	0.107401	0.121862
O7	O	1.665751	0.098059	0.121890
Cu8	Cu	1.482912	0.102730	0.144118
Cu9	Cu	1.482928	0.102734	-0.143965
O10	O	1.472361	0.204317	0.121847
C11	C	1.253298	0.106717	0.000059
C12	C	1.113898	0.104665	0.000049
C13	C	1.033089	0.167228	0.000035
C14	C	0.902109	0.165295	0.000061
C15	C	0.932761	0.038231	0.000109
C16	C	1.063738	0.040164	0.000094
C17	C	1.492789	-0.024870	0.000110
C18	C	1.490737	-0.102388	0.000123
C19	C	1.604213	-0.146570	0.000138
C20	C	1.602285	-0.219407	0.000115
C21	C	1.486876	-0.248058	0.000105
C22	C	1.373386	-0.203866	0.000081
C23	C	1.375316	-0.131032	0.000090
N24	N	1.398655	-0.356641	0.082999
N25	N	1.396828	-0.425831	0.082994
C26	C	1.481052	-0.467505	0.000075
N27	N	1.567190	-0.437375	-0.082821
N28	N	1.569020	-0.368178	-0.082809
C29	C	1.484770	-0.327034	0.000094
C30	C	1.592445	-0.590665	0.000063
C31	C	1.590513	-0.663502	0.000030
C32	C	1.361610	-0.647960	0.000011
C33	C	1.363545	-0.575124	0.000029
C34	C	1.478966	-0.546481	0.000062
C35	C	1.712541	0.098746	0.000091
C36	C	1.851941	0.100799	0.000091
C37	C	1.473051	0.230334	0.000040
C38	C	1.475102	0.307852	0.000018
N39	N	1.482910	0.102727	0.346741
N40	N	1.482939	0.102731	-0.346588
C41	C	1.568572	0.055696	0.423412
C42	C	1.568584	0.055696	0.576749
C43	C	1.397268	0.149764	0.576730
C44	C	1.397251	0.149760	0.423396
H45	H	0.836318	0.216240	0.000053
H46	H	1.682922	-0.699475	0.000035
O47	O	1.142194	-0.020632	-0.000155
C48	C	1.119486	-0.059764	-0.126281
H49	H	1.074505	-0.023125	-0.214472
H50	H	1.212573	-0.087308	-0.168626
H51	H	1.053021	-0.100502	-0.097735
H52	H	1.698197	-0.123254	0.000160
H53	H	1.638319	0.017397	0.361004
H54	H	1.073924	0.219748	0.000010
H55	H	1.638336	0.017398	0.639171
O56	O	0.883970	-0.024404	-0.000121
C57	C	0.809092	-0.029315	-0.126257
H58	H	0.839863	0.007320	-0.214452
H59	H	0.821156	-0.085526	-0.168587
H60	H	0.705711	-0.013711	-0.097731
H61	H	1.686428	-0.567342	0.000083
H62	H	1.694693	-0.255386	0.000122
H63	H	1.327528	0.188059	0.639158
H64	H	1.279418	-0.227199	0.000069
O65	O	1.313988	0.195517	0.349135
C66	C	1.238373	0.237023	0.449669
H67	H	1.289860	0.238085	0.558963
H68	H	1.218895	0.292679	0.405333
H69	H	1.145220	0.213869	0.466003
O70	O	1.265197	-0.088009	0.000017
C71	C	1.291650	-0.017581	0.000074
H72	H	1.390276	-0.014306	-0.046030
H73	H	1.219299	0.015072	-0.070652
H74	H	1.286765	0.003441	0.116945
O75	O	1.249610	-0.675899	0.000059
C76	C	1.272235	-0.749659	0.000007
H77	H	1.370324	-0.766291	0.046139
H78	H	1.198402	-0.772387	0.070711
H79	H	1.266275	-0.769945	-0.116866
H80	H	1.271141	-0.539150	0.000024
