data_functionalizedCrystal
_audit_creation_method	'MofGen! by Chris Wilmer'
_symmetry_space_group_name_H-M	'P1'
_symmetry_Int_Tables_number	1
_symmetry_cell_setting	triclinic
loop_
_symmetry_equiv_pos_as_xyz
  x,y,z
_cell_length_a	19.188930
_cell_length_b	19.188925
_cell_length_c	10.868271
_cell_angle_alpha	89.995220
_cell_angle_beta	89.981803
_cell_angle_gamma	83.143665
loop_
_atom_site_label
_atom_site_type_symbol
_atom_site_fract_x
_atom_site_fract_y
_atom_site_fract_z
O1	O	0.926143	0.087168	-0.102717
O2	O	1.176143	0.337168	0.147283
O3	O	1.426143	0.587168	0.397283
O4	O	1.676143	0.837168	0.647283
O5	O	0.722831	0.098903	-0.102632
O6	O	0.972831	0.348903	0.147368
O7	O	1.222831	0.598903	0.397368
O8	O	1.472831	0.848903	0.647368
O9	O	0.830356	-0.008621	-0.102670
O10	O	1.080356	0.241379	0.147330
O11	O	1.330356	0.491379	0.397330
O12	O	1.580356	0.741379	0.647330
O13	O	0.818618	0.194691	-0.102679
O14	O	1.068618	0.444691	0.147321
O15	O	1.318618	0.694691	0.397321
O16	O	1.568618	0.944691	0.647321
O17	O	0.830347	-0.008625	0.101975
O18	O	1.080347	0.241375	0.351975
O19	O	1.330347	0.491375	0.601975
O20	O	1.580347	0.741375	0.851975
O21	O	0.722823	0.098898	0.102012
O22	O	0.972823	0.348898	0.352012
O23	O	1.222823	0.598898	0.602012
O24	O	1.472823	0.848898	0.852012
O25	O	0.926134	0.087164	0.101928
O26	O	1.176134	0.337164	0.351928
O27	O	1.426134	0.587164	0.601928
O28	O	1.676134	0.837164	0.851928
Zn29	Zn	0.824477	0.093031	0.134462
Zn30	Zn	1.074477	0.343031	0.384462
Zn31	Zn	1.324477	0.593031	0.634462
Zn32	Zn	1.574477	0.843031	0.884462
Zn33	Zn	0.824489	0.093036	-0.135166
Zn34	Zn	1.074489	0.343036	0.114834
Zn35	Zn	1.324489	0.593036	0.364834
Zn36	Zn	1.574489	0.843036	0.614834
O37	O	0.818609	0.194687	0.101966
O38	O	1.068609	0.444687	0.351966
O39	O	1.318609	0.694687	0.601966
O40	O	1.568609	0.944687	0.851966
C41	C	0.829972	-0.034634	-0.000348
C42	C	1.079972	0.215366	0.249652
C43	C	1.329972	0.465366	0.499652
C44	C	1.579972	0.715366	0.749652
C45	C	0.828833	-0.112138	-0.000350
C46	C	1.078833	0.137862	0.249650
C47	C	1.328833	0.387862	0.499650
C48	C	1.578833	0.637862	0.749650
C49	C	0.696816	0.098520	-0.000299
C50	C	0.946816	0.348520	0.249701
C51	C	1.196816	0.598520	0.499701
C52	C	1.446816	0.848520	0.749701
C53	C	0.619311	0.097380	-0.000267
C54	C	0.869311	0.347380	0.249733
C55	C	1.119311	0.597380	0.499733
C56	C	1.369311	0.847380	0.749733
C57	C	0.884297	-0.673909	-0.000405
C58	C	1.134297	-0.423909	0.249595
C59	C	1.384297	-0.173909	0.499595
C60	C	1.634297	0.076091	0.749595
C61	C	0.885374	-0.601085	-0.000394
C62	C	1.135374	-0.351085	0.249606
C63	C	1.385374	-0.101085	0.499606
C64	C	1.635374	0.148915	0.749606
C65	C	0.822282	-0.556151	-0.000368
C66	C	1.072282	-0.306151	0.249632
C67	C	1.322282	-0.056151	0.499632
C68	C	1.572282	0.193849	0.749632
C69	C	0.758108	-0.584045	-0.000321
C70	C	1.008108	-0.334045	0.249679
C71	C	1.258108	-0.084045	0.499679
C72	C	1.508108	0.165955	0.749679
C73	C	0.757033	-0.656867	-0.000320
C74	C	1.007033	-0.406867	0.249680
C75	C	1.257033	-0.156867	0.499680
C76	C	1.507033	0.093133	0.749680
N77	N	0.776608	-0.435469	-0.070005
N78	N	1.026608	-0.185469	0.179995
N79	N	1.276608	0.064531	0.429995
N80	N	1.526608	0.314531	0.679995
N81	N	0.777634	-0.366292	-0.070009
N82	N	1.027634	-0.116292	0.179991
N83	N	1.277634	0.133708	0.429991
N84	N	1.527634	0.383708	0.679991
C85	C	0.825516	-0.336742	-0.000370
C86	C	1.075516	-0.086742	0.249630
C87	C	1.325516	0.163258	0.499630
C88	C	1.575516	0.413258	0.749630
N89	N	0.872344	-0.378984	0.069257
N90	N	1.122344	-0.128984	0.319257
N91	N	1.372344	0.121016	0.569257
N92	N	1.622344	0.371016	0.819257
N93	N	0.871321	-0.448168	0.069256
N94	N	1.121321	-0.198168	0.319256
N95	N	1.371321	0.051832	0.569256
N96	N	1.621321	0.301832	0.819256
C97	C	0.823440	-0.477187	-0.000369
C98	C	1.073440	-0.227187	0.249631
C99	C	1.323440	0.022813	0.499631
C100	C	1.573440	0.272813	0.749631
C101	C	0.890852	-0.229893	-0.000397
C102	C	1.140852	0.020107	0.249603
C103	C	1.390852	0.270107	0.499603
C104	C	1.640852	0.520107	0.749603
C105	C	0.891926	-0.157068	-0.000378
C106	C	1.141926	0.092932	0.249622
C107	C	1.391926	0.342932	0.499622
C108	C	1.641926	0.592932	0.749622
C109	C	0.764659	-0.140029	-0.000318
C110	C	1.014659	0.109971	0.249682
C111	C	1.264659	0.359971	0.499682
C112	C	1.514659	0.609971	0.749682
C113	C	0.763587	-0.212852	-0.000324
C114	C	1.013587	0.037148	0.249676
C115	C	1.263587	0.287148	0.499676
C116	C	1.513587	0.537148	0.749676
C117	C	0.826685	-0.257780	-0.000369
C118	C	1.076685	-0.007780	0.249631
C119	C	1.326685	0.242220	0.499631
C120	C	1.576685	0.492220	0.749631
C121	C	0.574386	0.160471	-0.000289
C122	C	0.824386	0.410471	0.249711
C123	C	1.074386	0.660471	0.499711
C124	C	1.324386	0.910471	0.749711
C125	C	0.501563	0.159399	-0.000302
C126	C	0.751563	0.409399	0.249698
C127	C	1.001563	0.659399	0.499698
C128	C	1.251563	0.909399	0.749698
C129	C	0.473667	0.095233	-0.000318
C130	C	0.723667	0.345233	0.249682
C131	C	0.973667	0.595233	0.499682
C132	C	1.223667	0.845233	0.749682
C133	C	0.518602	0.032134	-0.000289
C134	C	0.768602	0.282134	0.249711
C135	C	1.018602	0.532134	0.499711
C136	C	1.268602	0.782134	0.749711
C137	C	0.591424	0.033207	-0.000264
C138	C	0.841424	0.283207	0.249736
C139	C	1.091424	0.533207	0.499736
C140	C	1.341424	0.783207	0.749736
N141	N	0.365691	0.046187	-0.070015
N142	N	0.615691	0.296187	0.179985
N143	N	0.865691	0.546187	0.429985
N144	N	1.115691	0.796187	0.679985
N145	N	0.296512	0.045172	-0.070042
N146	N	0.546512	0.295172	0.179958
N147	N	0.796512	0.545172	0.429958
N148	N	1.046512	0.795172	0.679958
C149	C	0.254259	0.091995	-0.000394
C150	C	0.504259	0.341995	0.249606
C151	C	0.754259	0.591995	0.499606
C152	C	1.004259	0.841995	0.749606
N153	N	0.283795	0.139882	0.069268
N154	N	0.533795	0.389882	0.319268
N155	N	0.783795	0.639882	0.569268
N156	N	1.033795	0.889882	0.819268
N157	N	0.352980	0.140900	0.069290
N158	N	0.602980	0.390900	0.319290
N159	N	0.852980	0.640900	0.569290
N160	N	1.102980	0.890900	0.819290
C161	C	0.394705	0.094062	-0.000346
C162	C	0.644705	0.344062	0.249654
C163	C	0.894705	0.594062	0.499654
C164	C	1.144705	0.844062	0.749654
C165	C	0.130369	0.153928	-0.000429
C166	C	0.380369	0.403928	0.249571
C167	C	0.630369	0.653928	0.499571
C168	C	0.880369	0.903928	0.749571
C169	C	0.057544	0.152854	-0.000434
C170	C	0.307544	0.402854	0.249566
C171	C	0.557544	0.652854	0.499566
C172	C	0.807544	0.902854	0.749566
C173	C	0.074586	0.025586	-0.000434
C174	C	0.324586	0.275586	0.249566
C175	C	0.574586	0.525586	0.499566
C176	C	0.824586	0.775586	0.749566
C177	C	0.147409	0.026663	-0.000416
C178	C	0.397409	0.276663	0.249584
C179	C	0.647409	0.526663	0.499584
C180	C	0.897409	0.776663	0.749584
C181	C	0.175296	0.090835	-0.000419
C182	C	0.425296	0.340835	0.249581
C183	C	0.675296	0.590835	0.499581
C184	C	0.925296	0.840835	0.749581
C185	C	0.952149	0.087546	-0.000408
C186	C	1.202149	0.337546	0.249592
C187	C	1.452149	0.587546	0.499592
C188	C	1.702149	0.837546	0.749592
C189	C	1.029654	0.088687	-0.000448
C190	C	1.279654	0.338687	0.249552
C191	C	1.529654	0.588687	0.499552
C192	C	1.779654	0.838687	0.749552
C193	C	0.818993	0.220700	-0.000359
C194	C	1.068993	0.470700	0.249641
C195	C	1.318993	0.720700	0.499641
C196	C	1.568993	0.970700	0.749641
C197	C	0.820132	0.298205	-0.000365
C198	C	1.070132	0.548205	0.249635
C199	C	1.320132	0.798205	0.499635
C200	C	1.570132	1.048205	0.749635
N201	N	0.824474	0.093026	0.318476
N202	N	1.074474	0.343026	0.568476
N203	N	1.324474	0.593026	0.818476
N204	N	1.574474	0.843026	1.068476
N205	N	0.824497	0.093035	-0.319180
N206	N	1.074497	0.343035	-0.069180
N207	N	1.324497	0.593035	0.180820
N208	N	1.574497	0.843035	0.430820
C209	C	0.824485	0.093035	0.569482
C210	C	1.074485	0.343035	0.819482
C211	C	1.324485	0.593035	1.069482
C212	C	1.574485	0.843035	1.319482
C213	C	0.824477	0.093032	0.429804
C214	C	1.074477	0.343032	0.679804
C215	C	1.324477	0.593032	0.929804
C216	C	1.574477	0.843032	1.179804
H217	H	0.935677	-0.710485	-0.000435
H218	H	1.185677	-0.460485	0.249565
H219	H	1.435677	-0.210485	0.499565
H220	H	1.685677	0.039515	0.749565
H221	H	0.183988	-0.024713	-0.000404
H222	H	0.433988	0.225287	0.249596
H223	H	0.683988	0.475287	0.499596
H224	H	0.933988	0.725287	0.749596
H225	H	0.628003	-0.018171	-0.000246
H226	H	0.878003	0.231829	0.249754
H227	H	1.128003	0.481829	0.499754
H228	H	1.378003	0.731829	0.749754
O229	O	0.954582	-0.570994	-0.000455
O230	O	1.204582	-0.320994	0.249545
O231	O	1.454582	-0.070994	0.499545
O232	O	1.704582	0.179006	0.749545
H233	H	0.998277	-0.614470	-0.000496
H234	H	1.248277	-0.364470	0.249504
H235	H	1.498277	-0.114470	0.499504
H236	H	1.748277	0.135530	0.749504
O237	O	0.604461	0.229685	-0.000283
O238	O	0.854461	0.479685	0.249717
O239	O	1.104461	0.729685	0.499717
O240	O	1.354461	0.979685	0.749717
H241	H	0.662647	0.219835	-0.000271
H242	H	0.912647	0.469835	0.249729
H243	H	1.162647	0.719835	0.499729
H244	H	1.412647	0.969835	0.749729
O245	O	0.690056	-0.535586	-0.000295
O246	O	0.940056	-0.285586	0.249705
O247	O	1.190056	-0.035586	0.499705
O248	O	1.440056	0.214414	0.749705
H249	H	0.701583	-0.480263	-0.000315
H250	H	0.951583	-0.230263	0.249685
H251	H	1.201583	0.019737	0.499685
H252	H	1.451583	0.269737	0.749685
H253	H	0.711337	-0.235557	-0.000301
H254	H	0.961337	0.014443	0.249699
H255	H	1.211337	0.264443	0.499699
H256	H	1.461337	0.514443	0.749699
O257	O	0.687823	-0.686948	-0.000274
O258	O	0.937823	-0.436948	0.249726
O259	O	1.187823	-0.186948	0.499726
O260	O	1.437823	0.063052	0.749726
H261	H	0.684291	-0.719719	-0.083677
H262	H	0.934291	-0.469719	0.166323
H263	H	1.184291	-0.219719	0.416323
H264	H	1.434291	0.030281	0.666323
O265	O	0.958903	-0.278359	-0.000422
O266	O	1.208903	-0.028359	0.249578
O267	O	1.458903	0.221641	0.499578
O268	O	1.708903	0.471641	0.749578
H269	H	1.003704	-0.246730	-0.000424
H270	H	1.253704	0.003270	0.249576
H271	H	1.503704	0.253270	0.499576
H272	H	1.753704	0.503270	0.749576
H273	H	0.495885	-0.020111	-0.000319
H274	H	0.745885	0.229889	0.249681
H275	H	0.995885	0.479889	0.499681
H276	H	1.245885	0.729889	0.749681
O277	O	0.044503	-0.043621	-0.000445
O278	O	0.294503	0.206379	0.249555
O279	O	0.544503	0.456379	0.499555
O280	O	0.794503	0.706379	0.749555
H281	H	0.062537	-0.073923	0.082978
H282	H	0.312537	0.176077	0.332978
H283	H	0.562537	0.426077	0.582978
H284	H	0.812537	0.676077	0.832978
H285	H	0.944179	-0.134365	-0.000403
H286	H	1.194179	0.115635	0.249597
H287	H	1.444179	0.365635	0.499597
H288	H	1.694179	0.615635	0.749597
H289	H	0.464977	0.210777	-0.000317
H290	H	0.714977	0.460777	0.249683
H291	H	0.964977	0.710777	0.499683
H292	H	1.214977	0.960777	0.749683
H293	H	0.713288	-0.103444	-0.000286
H294	H	0.963288	0.146556	0.249714
H295	H	1.213288	0.396556	0.499714
H296	H	1.463288	0.646556	0.749714
H297	H	0.153076	0.206181	-0.000413
H298	H	0.403076	0.456181	0.249587
H299	H	0.653076	0.706181	0.499587
H300	H	0.903076	0.956181	0.749587
H301	H	0.020966	0.204232	-0.000445
H302	H	0.270966	0.454232	0.249555
H303	H	0.520966	0.704232	0.499555
H304	H	0.770966	0.954232	0.749555
