data_functionalizedCrystal
_audit_creation_method	'MofGen! by Chris Wilmer'
_symmetry_space_group_name_H-M	'P1'
_symmetry_Int_Tables_number	1
_symmetry_cell_setting	triclinic
loop_
_symmetry_equiv_pos_as_xyz
  x,y,z
_cell_length_a	14.519731
_cell_length_b	14.519709
_cell_length_c	14.048226
_cell_angle_alpha	89.992623
_cell_angle_beta	89.993451
_cell_angle_gamma	83.684499
loop_
_atom_site_label
_atom_site_type_symbol
_atom_site_fract_x
_atom_site_fract_y
_atom_site_fract_z
O1	O	1.223858	0.120987	-0.079165
O2	O	1.557191	0.454320	0.254169
O3	O	1.890524	0.787653	0.587502
O4	O	0.955384	0.135203	-0.079166
O5	O	1.288717	0.468536	0.254167
O6	O	1.622050	0.801869	0.587500
O7	O	1.096739	-0.006143	-0.079157
O8	O	1.430072	0.327190	0.254176
O9	O	1.763406	0.660524	0.587510
O10	O	1.082502	0.262333	-0.079174
O11	O	1.415836	0.595666	0.254159
O12	O	1.749169	0.928999	0.587492
O13	O	1.096722	-0.006151	0.079164
O14	O	1.430055	0.327182	0.412498
O15	O	1.763389	0.660515	0.745831
O16	O	0.955367	0.135194	0.079155
O17	O	1.288700	0.468528	0.412488
O18	O	1.622033	0.801861	0.745822
O19	O	1.223841	0.120978	0.079157
O20	O	1.557174	0.454312	0.412490
O21	O	1.890507	0.787645	0.745823
Zn22	Zn	1.089601	0.128085	0.104293
Zn23	Zn	1.422934	0.461418	0.437626
Zn24	Zn	1.756268	0.794752	0.770959
Zn25	Zn	1.089623	0.128096	-0.104303
Zn26	Zn	1.422957	0.461429	0.229031
Zn27	Zn	1.756290	0.794763	0.562364
O28	O	1.082485	0.262324	0.079147
O29	O	1.415819	0.595658	0.412480
O30	O	1.749152	0.928991	0.745814
C31	C	0.921016	0.134532	-0.000006
C32	C	1.254349	0.467866	0.333327
C33	C	1.587682	0.801199	0.666661
C34	C	0.818635	0.132536	-0.000006
C35	C	1.151969	0.465870	0.333327
C36	C	1.485302	0.799203	0.666660
C37	C	0.735491	0.130915	-0.000010
C38	C	1.068825	0.464248	0.333323
C39	C	1.402158	0.797581	0.666657
C40	C	0.631182	0.128888	-0.000010
C41	C	0.964516	0.462221	0.333323
C42	C	1.297849	0.795555	0.666656
C43	C	0.548043	0.127280	-0.000010
C44	C	0.881377	0.460613	0.333323
C45	C	1.214710	0.793946	0.666657
C46	C	0.443728	0.125253	-0.000012
C47	C	0.777061	0.458586	0.333321
C48	C	1.110395	0.791920	0.666655
C49	C	1.096067	-0.040507	0.000004
C50	C	1.429400	0.292826	0.333337
C51	C	1.762734	0.626160	0.666671
C52	C	1.094079	-0.142889	0.000004
C53	C	1.427412	0.190445	0.333338
C54	C	1.760745	0.523778	0.666671
C55	C	1.086759	-0.517785	-0.000020
C56	C	1.420093	-0.184452	0.333313
C57	C	1.753426	0.148882	0.666646
C58	C	1.088792	-0.413477	-0.000013
C59	C	1.422125	-0.080143	0.333320
C60	C	1.755459	0.253190	0.666653
C61	C	1.090419	-0.330340	-0.000007
C62	C	1.423752	0.002993	0.333326
C63	C	1.757085	0.336327	0.666660
C64	C	1.092452	-0.226025	-0.000002
C65	C	1.425785	0.107308	0.333332
C66	C	1.759118	0.440641	0.666665
C67	C	1.258209	0.121649	-0.000006
C68	C	1.591542	0.454982	0.333327
C69	C	1.924875	0.788315	0.666661
C70	C	1.360589	0.123645	-0.000012
C71	C	1.693922	0.456978	0.333321
C72	C	2.027256	0.790311	0.666655
C73	C	1.083157	0.296688	-0.000016
C74	C	1.416491	0.630022	0.333318
C75	C	1.749824	0.963355	0.666651
C76	C	1.085146	0.399070	-0.000023
C77	C	1.418479	0.732403	0.333311
C78	C	1.751812	1.065736	0.666644
N79	N	1.089592	0.128077	0.246653
N80	N	1.422926	0.461410	0.579987
N81	N	1.756259	0.794744	0.913320
N82	N	1.089639	0.128097	-0.246663
N83	N	1.422973	0.461430	0.086670
N84	N	1.756306	0.794764	0.420003
C85	C	1.152204	0.065515	0.296476
C86	C	1.485538	0.398848	0.629809
C87	C	1.818871	0.732182	0.963142
C88	C	1.152210	0.065514	0.396133
C89	C	1.485544	0.398848	0.729467
C90	C	1.818877	0.732181	1.062800
C91	C	1.089609	0.128081	0.445967
C92	C	1.422942	0.461414	0.779300
C93	C	1.756275	0.794748	1.112633
C94	C	1.026990	0.190646	0.396138
C95	C	1.360323	0.523979	0.729471
C96	C	1.693657	0.857313	1.062804
C97	C	1.026980	0.190642	0.296482
C98	C	1.360313	0.523975	0.629815
C99	C	1.693647	0.857308	0.963148
C100	C	1.027017	0.190653	0.603852
C101	C	1.360350	0.523986	0.937185
C102	C	1.693683	0.857320	1.270519
C103	C	1.027027	0.190659	0.703515
C104	C	1.360361	0.523992	1.036848
C105	C	1.693694	0.857326	1.370181
C106	C	1.152247	0.065526	0.703503
C107	C	1.485580	0.398859	1.036837
C108	C	1.818914	0.732192	1.370170
C109	C	1.152237	0.065521	0.603847
C110	C	1.485570	0.398854	0.937181
C111	C	1.818904	0.732188	1.270514
C112	C	1.089619	0.128088	0.554025
C113	C	1.422953	0.461421	0.887358
C114	C	1.756286	0.794754	1.220692
H115	H	1.203186	0.014570	0.255908
H116	H	1.536519	0.347903	0.589241
H117	H	1.869852	0.681236	0.922574
C118	C	0.903205	0.314323	0.386131
C119	C	1.236538	0.647656	0.719465
C120	C	1.569871	0.980989	1.052798
C121	C	0.958169	0.259416	0.450911
C122	C	1.291502	0.592749	0.784245
C123	C	1.624836	0.926083	1.117578
H124	H	0.860713	0.356774	0.419947
H125	H	1.194047	0.690108	0.753280
H126	H	1.527380	1.023441	1.086614
H127	H	0.941636	0.347587	0.347251
H128	H	1.274969	0.680921	0.680584
H129	H	1.608303	1.014254	1.013917
H130	H	0.869976	0.275841	0.347274
H131	H	1.203310	0.609175	0.680607
H132	H	1.536643	0.942508	1.013940
H133	H	0.991403	0.297897	0.489765
H134	H	1.324736	0.631230	0.823098
H135	H	1.658069	0.964564	1.156431
H136	H	0.919732	0.226149	0.489808
H137	H	1.253066	0.559482	0.823142
H138	H	1.586399	0.892816	1.156475
C139	C	1.007156	0.316099	0.184383
C140	C	1.340489	0.649432	0.517717
C141	C	1.673822	0.982765	0.851050
C142	C	0.958158	0.259412	0.241710
C143	C	1.291492	0.592746	0.575043
C144	C	1.624825	0.926079	0.908377
H145	H	0.964663	0.358549	0.150567
H146	H	1.297996	0.691883	0.483900
H147	H	1.631330	1.025216	0.817233
H148	H	1.045588	0.349364	0.223244
H149	H	1.378921	0.682698	0.556578
H150	H	1.712254	1.016031	0.889911
H151	H	1.044434	0.278824	0.140449
H152	H	1.377768	0.612157	0.473782
H153	H	1.711101	0.945491	0.807115
H154	H	0.920884	0.296687	0.285650
H155	H	1.254218	0.630020	0.618983
H156	H	1.587551	0.963354	0.952316
H157	H	0.919710	0.226144	0.202846
H158	H	1.253044	0.559478	0.536179
H159	H	1.586377	0.892811	0.869512
H160	H	1.203193	0.014571	0.436698
H161	H	1.536526	0.347904	0.770031
H162	H	1.869860	0.681238	1.103365
H163	H	1.203232	0.014582	0.744074
H164	H	1.536565	0.347915	1.077408
H165	H	1.869899	0.681249	1.410741
C166	C	1.276009	-0.058173	0.613841
C167	C	1.609342	0.275161	0.947174
C168	C	1.942675	0.608494	1.280507
C169	C	1.221049	-0.003253	0.549068
C170	C	1.554382	0.330080	0.882401
C171	C	1.887715	0.663413	1.215735
H172	H	1.318484	-0.100636	0.580020
H173	H	1.651818	0.232698	0.913353
H174	H	1.985151	0.566031	1.246687
H175	H	1.309247	-0.019708	0.652692
H176	H	1.642580	0.313626	0.986025
H177	H	1.975913	0.646959	1.319359
H178	H	1.237566	-0.091433	0.652729
H179	H	1.570899	0.241900	0.986062
H180	H	1.904233	0.575234	1.319395
H181	H	1.259491	0.030012	0.510184
H182	H	1.592824	0.363346	0.843518
H183	H	1.926157	0.696679	1.176851
H184	H	1.187808	-0.041723	0.510200
H185	H	1.521142	0.291610	0.843534
H186	H	1.854475	0.624943	1.176867
C187	C	0.903221	0.314318	0.693521
C188	C	1.236554	0.647651	1.026855
C189	C	1.569887	0.980985	1.360188
C190	C	0.958198	0.259415	0.758294
C191	C	1.291531	0.592748	1.091628
C192	C	1.624864	0.926082	1.424961
H193	H	0.860722	0.356757	0.727342
H194	H	1.194055	0.690091	1.060676
H195	H	1.527388	1.023424	1.394009
H196	H	0.941643	0.347596	0.654644
H197	H	1.274976	0.680930	0.987977
H198	H	1.608309	1.014263	1.321311
H199	H	0.870001	0.275832	0.654660
H200	H	1.203334	0.609165	0.987993
H201	H	1.536668	0.942499	1.321326
H202	H	0.991423	0.297901	0.797151
H203	H	1.324756	0.631234	1.130485
H204	H	1.658090	0.964567	1.463818
H205	H	0.919771	0.226134	0.797188
H206	H	1.253104	0.559468	1.130521
H207	H	1.586437	0.892801	1.463855
H208	H	0.976023	0.241598	0.563290
H209	H	1.309357	0.574932	0.896623
H210	H	1.642690	0.908265	1.229956
