data_functionalizedCrystal
_audit_creation_method	'MofGen! by Chris Wilmer'
_symmetry_space_group_name_H-M	'P1'
_symmetry_Int_Tables_number	1
_symmetry_cell_setting	triclinic
loop_
_symmetry_equiv_pos_as_xyz
  x,y,z
_cell_length_a	27.731993
_cell_length_b	26.210047
_cell_length_c	14.853567
_cell_angle_alpha	89.999214
_cell_angle_beta	96.872339
_cell_angle_gamma	90.004884
loop_
_atom_site_label
_atom_site_type_symbol
_atom_site_fract_x
_atom_site_fract_y
_atom_site_fract_z
O1	O	0.641453	0.042288	-0.107034
O2	O	1.141453	0.542288	0.392966
O3	O	0.500733	0.042318	-0.123395
O4	O	1.000733	0.542318	0.376605
O5	O	0.574852	0.042304	0.016078
O6	O	1.074852	0.542304	0.516078
O7	O	0.567334	0.042302	-0.246507
O8	O	1.067334	0.542302	0.253493
O9	O	0.574829	-0.042554	0.016078
O10	O	1.074829	0.457446	0.516078
O11	O	0.500709	-0.042540	-0.123395
O12	O	1.000709	0.457460	0.376605
O13	O	0.641430	-0.042570	-0.107034
O14	O	1.141430	0.457430	0.392966
Cu15	Cu	0.571068	-0.050303	-0.115214
Cu16	Cu	1.071068	0.449697	0.384786
Cu17	Cu	0.571095	0.050051	-0.115214
Cu18	Cu	1.071095	0.550051	0.384786
O19	O	0.567311	-0.042556	-0.246507
O20	O	1.067311	0.457444	0.253493
C21	C	0.482712	-0.000107	-0.123060
C22	C	0.982712	0.499893	0.376940
C23	C	0.429051	-0.000095	-0.122048
C24	C	0.929051	0.499905	0.377952
C25	C	0.045869	0.046137	-0.114718
C26	C	0.545869	0.546137	0.385282
C27	C	0.247545	0.046150	-0.118573
C28	C	0.747545	0.546150	0.381427
O29	O	0.273631	0.085490	-0.119035
O30	O	0.773631	0.585490	0.380965
N31	N	0.272755	-0.000105	-0.119055
N32	N	0.772755	0.499895	0.380945
C33	C	0.247543	-0.046367	-0.118568
C34	C	0.747543	0.453633	0.381432
O35	O	0.273613	-0.085709	-0.119057
O36	O	0.773613	0.414291	0.380943
C37	C	0.045869	-0.046380	-0.114706
C38	C	0.545869	0.453620	0.385294
C39	C	0.020661	-0.000122	-0.114233
C40	C	0.520661	0.499878	0.385767
C41	C	0.020662	0.092391	-0.114243
C42	C	0.520662	0.592391	0.385757
C43	C	-0.029755	0.092387	-0.113285
C44	C	0.470245	0.592387	0.386715
C45	C	-0.054963	0.046129	-0.112800
C46	C	0.445037	0.546129	0.387200
C47	C	-0.029755	-0.000126	-0.113274
C48	C	0.470245	0.499874	0.386726
C49	C	0.020658	-0.092641	-0.114212
C50	C	0.520658	0.407359	0.385788
C51	C	-0.029763	-0.092640	-0.113244
C52	C	0.470237	0.407360	0.386756
C53	C	-0.054971	-0.046382	-0.112771
C54	C	0.445029	0.453618	0.387229
C55	C	-0.105380	-0.046388	-0.111831
C56	C	0.394620	0.453612	0.388169
N57	N	-0.130590	-0.000133	-0.111348
N58	N	0.369410	0.499867	0.388652
C59	C	-0.105381	0.046126	-0.111833
C60	C	0.394619	0.546126	0.388167
C61	C	0.353424	-0.046356	-0.120597
C62	C	0.853424	0.453644	0.379403
C63	C	0.403843	-0.046353	-0.121564
C64	C	0.903843	0.453647	0.378436
C65	C	0.403841	0.046164	-0.121567
C66	C	0.903841	0.546164	0.378433
C67	C	0.353422	0.046160	-0.120606
C68	C	0.853422	0.546160	0.379394
C69	C	0.328215	-0.000101	-0.120114
C70	C	0.828215	0.499899	0.379886
C71	C	-0.211259	0.046114	-0.109820
C72	C	0.288741	0.546114	0.390180
C73	C	-0.261680	0.046106	-0.108865
C74	C	0.238320	0.546106	0.391135
C75	C	-0.261674	-0.046411	-0.108857
C76	C	0.238326	0.453589	0.391143
C77	C	-0.211257	-0.046403	-0.109817
C78	C	0.288743	0.453597	0.390183
C79	C	-0.186051	-0.000137	-0.110296
C80	C	0.313949	0.499863	0.389704
O81	O	-0.131496	-0.085707	-0.111358
O82	O	0.368504	0.414293	0.388642
O83	O	-0.131459	0.085462	-0.111323
O84	O	0.368541	0.585462	0.388677
C85	C	0.096286	0.046140	-0.115676
C86	C	0.596286	0.546140	0.384324
C87	C	0.121493	-0.000114	-0.116150
C88	C	0.621493	0.499886	0.383850
C89	C	0.096285	-0.046372	-0.115666
C90	C	0.596285	0.453628	0.384334
C91	C	0.171911	-0.000111	-0.117117
C92	C	0.671911	0.499889	0.382883
C93	C	0.197120	0.046148	-0.117602
C94	C	0.697120	0.546148	0.382398
C95	C	0.171910	0.092403	-0.117120
C96	C	0.671910	0.592403	0.382880
C97	C	0.121494	0.092399	-0.116161
C98	C	0.621494	0.592399	0.383839
C99	C	0.121495	-0.092627	-0.116148
C100	C	0.621495	0.407373	0.383852
C101	C	0.171911	-0.092620	-0.117108
C102	C	0.671911	0.407380	0.382892
C103	C	0.197119	-0.046361	-0.117593
C104	C	0.697119	0.453639	0.382407
N105	N	0.571052	-0.120887	-0.115214
N106	N	1.071052	0.379113	0.384786
C107	C	0.600442	-0.473408	-0.169496
C108	C	1.100442	0.026592	0.330504
C109	C	0.600456	-0.687067	-0.169495
C110	C	1.100456	-0.187067	0.330505
O111	O	0.625434	-0.714695	-0.215637
O112	O	1.125434	-0.214695	0.284363
N113	N	0.571107	-0.713781	-0.115205
N114	N	1.071107	-0.213781	0.384795
C115	C	0.541754	-0.687077	-0.060907
C116	C	1.041754	-0.187077	0.439093
O117	O	0.516795	-0.714702	-0.014724
O118	O	1.016795	-0.214702	0.485276
C119	C	0.541743	-0.473420	-0.060904
C120	C	1.041743	0.026580	0.439096
C121	C	0.571090	-0.446708	-0.115204
C122	C	1.071090	0.053292	0.384796
C123	C	0.629788	-0.446697	-0.223791
C124	C	1.129788	0.053303	0.276209
C125	C	0.629782	-0.393285	-0.223794
C126	C	1.129782	0.106715	0.276206
C127	C	0.600430	-0.366585	-0.169502
C128	C	1.100430	0.133415	0.330498
C129	C	0.571084	-0.393297	-0.115207
C130	C	1.071084	0.106703	0.384793
C131	C	0.512393	-0.446717	-0.006602
C132	C	1.012393	0.053283	0.493398
C133	C	0.512393	-0.393299	-0.006604
C134	C	1.012393	0.106701	0.493396
C135	C	0.541741	-0.366588	-0.060904
C136	C	1.041741	0.133412	0.439096
C137	C	0.541727	-0.313185	-0.060919
C138	C	1.041727	0.186815	0.439081
N139	N	0.571076	-0.286471	-0.115209
N140	N	1.071076	0.213529	0.384791
C141	C	0.600428	-0.313171	-0.169501
C142	C	1.100428	0.186829	0.330499
C143	C	0.541761	-0.799251	-0.060914
C144	C	1.041761	-0.299251	0.439086
C145	C	0.541763	-0.852665	-0.060916
C146	C	1.041763	-0.352665	0.439084
C147	C	0.600466	-0.852651	-0.169503
C148	C	1.100466	-0.352651	0.330497
C149	C	0.600461	-0.799236	-0.169505
C150	C	1.100461	-0.299236	0.330495
C151	C	0.571111	-0.772536	-0.115204
C152	C	1.071111	-0.272536	0.384796
C153	C	0.600413	-0.201003	-0.169504
C154	C	1.100413	0.298997	0.330496
C155	C	0.600403	-0.147587	-0.169506
C156	C	1.100403	0.352413	0.330494
C157	C	0.541702	-0.147606	-0.060916
C158	C	1.041702	0.352394	0.439084
C159	C	0.541710	-0.201017	-0.060918
C160	C	1.041710	0.298983	0.439082
C161	C	0.571069	-0.227715	-0.115214
C162	C	1.071069	0.272285	0.384786
O163	O	0.516767	-0.285524	-0.014793
O164	O	1.016767	0.214476	0.485207
O165	O	0.625392	-0.285537	-0.215662
O166	O	1.125392	0.214463	0.284338
C167	C	0.600448	-0.526820	-0.169492
C168	C	1.100448	-0.026820	0.330508
C169	C	0.571102	-0.553531	-0.115197
C170	C	1.071102	-0.053531	0.384803
C171	C	0.541750	-0.526831	-0.060906
C172	C	1.041750	-0.026831	0.439094
C173	C	0.571104	-0.606945	-0.115199
C174	C	1.071104	-0.106945	0.384801
C175	C	0.600456	-0.633645	-0.169491
C176	C	1.100456	-0.133645	0.330509
C177	C	0.629805	-0.606931	-0.223781
C178	C	1.129805	-0.106931	0.276219
C179	C	0.629799	-0.553520	-0.223784
C180	C	1.129799	-0.053520	0.276216
C181	C	0.512401	-0.553545	-0.006616
C182	C	1.012401	-0.053545	0.493384
C183	C	0.512409	-0.606957	-0.006618
C184	C	1.012409	-0.106957	0.493382
C185	C	0.541760	-0.633657	-0.060909
C186	C	1.041760	-0.133657	0.439091
C187	C	0.659451	-0.000144	-0.107369
C188	C	1.159451	0.499856	0.392631
C189	C	0.713112	-0.000153	-0.108381
C190	C	1.213112	0.499847	0.391619
C191	C	0.574500	-0.000124	0.049661
C192	C	1.074500	0.499876	0.549661
C193	C	0.573479	-0.000119	0.149728
C194	C	1.073479	0.499881	0.649728
N195	N	0.571115	0.120635	-0.115208
N196	N	1.071115	0.620635	0.384792
C197	C	0.567663	-0.000127	-0.280090
C198	C	1.067663	0.499873	0.219910
C199	C	0.568684	-0.000128	-0.380156
C200	C	1.068684	0.499872	0.119844
C201	C	0.525136	-0.000118	0.561457
C202	C	1.025136	0.499882	1.061457
C203	C	0.613191	-0.000137	0.584203
C204	C	1.113191	0.499863	1.084203
C205	C	0.614151	-0.000134	0.490185
C206	C	1.114151	0.499866	0.990185
C207	C	0.570602	-0.000124	0.431799
C208	C	1.070602	0.499876	0.931799
C209	C	0.526094	-0.000117	0.467431
C210	C	1.026094	0.499883	0.967431
C211	C	0.658658	-0.000147	0.454546
C212	C	1.158658	0.499853	0.954546
C213	C	0.659620	-0.000145	0.360523
C214	C	1.159620	0.499855	0.860523
C215	C	0.616071	-0.000131	0.302135
C216	C	1.116071	0.499869	0.802135
C217	C	0.571561	-0.000123	0.337772
C218	C	1.071561	0.499877	0.837772
C219	C	0.528012	-0.000113	0.279386
C220	C	1.028012	0.499887	0.779386
C221	C	0.483502	-0.000101	0.315021
C222	C	0.983502	0.499899	0.815021
C223	C	0.482545	-0.000103	0.409043
C224	C	0.982545	0.499897	0.909043
C225	C	0.617027	-0.000129	0.208114
C226	C	1.117027	0.499871	0.708114
C227	C	0.528971	-0.000112	0.185359
C228	C	1.028971	0.499888	0.685359
H229	H	0.041181	0.130062	-0.114635
H230	H	0.541181	0.630062	0.385365
H231	H	0.488495	-0.468456	0.037616
H232	H	0.988495	0.031544	0.537616
H233	H	0.695863	-0.000154	0.331518
H234	H	1.195863	0.499846	0.831518
O235	O	0.328904	0.091081	-0.120301
O236	O	0.828904	0.591081	0.379699
C237	C	0.266535	0.144761	-0.197312
C238	C	0.766535	0.644761	0.302688
C239	C	0.294267	0.093873	-0.197784
C240	C	0.794267	0.593873	0.302216
H241	H	0.238517	0.147031	-0.259941
H242	H	0.738517	0.647031	0.240059
H243	H	0.293191	0.177842	-0.197886
H244	H	0.793191	0.677842	0.302114
H245	H	0.247342	0.147070	-0.133715
H246	H	0.747342	0.647070	0.366285
H247	H	0.313461	0.091515	-0.261371
H248	H	0.813461	0.591515	0.238629
H249	H	0.267588	0.060817	-0.197163
H250	H	0.767588	0.560817	0.302837
O251	O	0.196370	0.137352	-0.117751
O252	O	0.696370	0.637352	0.382249
C253	C	0.206364	0.216437	-0.196149
C254	C	0.706364	0.716437	0.303851
C255	C	0.178630	0.165550	-0.195562
C256	C	0.678630	0.665550	0.304438
H257	H	0.192025	0.239254	-0.259043
H258	H	0.692025	0.739254	0.240957
H259	H	0.246730	0.208517	-0.196976
H260	H	0.746730	0.708517	0.303024
H261	H	0.200848	0.239228	-0.132816
H262	H	0.700848	0.739228	0.367184
H263	H	0.184107	0.142734	-0.258883
H264	H	0.684107	0.642734	0.241117
H265	H	0.138274	0.173506	-0.194689
H266	H	0.638274	0.673506	0.305311
H267	H	-0.282202	0.083776	-0.108483
H268	H	0.217798	0.583776	0.391517
H269	H	0.488896	-0.000107	0.590476
H270	H	0.988896	0.499893	1.090476
H271	H	0.517859	-0.777517	-0.016693
H272	H	1.017859	-0.277517	0.483307
H273	H	0.488492	-0.371563	0.037616
H274	H	0.988492	0.128437	0.537616
H275	H	0.653267	-0.000142	0.179104
H276	H	1.153267	0.499858	0.679104
O277	O	0.196323	-0.137604	-0.117527
O278	O	0.696323	0.362396	0.382473
C279	C	0.190986	-0.229368	-0.117458
C280	C	0.690986	0.270632	0.382542
C281	C	0.163283	-0.178463	-0.116971
C282	C	0.663283	0.321537	0.383029
H283	H	0.164285	-0.262415	-0.117028
H284	H	0.664285	0.237585	0.382972
H285	H	0.218961	-0.231712	-0.054773
H286	H	0.718961	0.268288	0.445227
H287	H	0.210223	-0.231659	-0.181004
H288	H	0.710223	0.268341	0.318996
H289	H	0.144017	-0.176137	-0.053467
H290	H	0.644017	0.323863	0.446533
H291	H	0.135336	-0.176139	-0.179698
H292	H	0.635336	0.323861	0.320302
O293	O	0.655478	-0.000058	0.640953
O294	O	1.155478	0.499942	1.140953
C295	C	0.705494	0.043873	0.760361
C296	C	1.205494	0.543873	1.260361
C297	C	0.657590	0.043852	0.696123
C298	C	1.157590	0.543852	1.196123
H299	H	0.707213	0.079366	0.804995
H300	H	1.207213	0.579366	1.304995
H301	H	0.737489	0.043901	0.718789
H302	H	1.237489	0.543901	1.218789
H303	H	0.707230	0.008341	0.804900
H304	H	1.207230	0.508341	1.304900
H305	H	0.655807	0.079378	0.651570
H306	H	1.155807	0.579378	1.151570
H307	H	0.625617	0.043797	0.737748
H308	H	1.125617	0.543797	1.237748
O309	O	0.658332	-0.632794	-0.276602
O310	O	1.158332	-0.132794	0.223398
C311	C	0.716584	-0.627160	-0.384256
C312	C	1.216584	-0.127160	0.115744
C313	C	0.684292	-0.597805	-0.324506
C314	C	1.184292	-0.097805	0.175494
H315	H	0.737588	-0.598885	-0.422987
H316	H	1.237588	-0.098885	0.077013
H317	H	0.692867	-0.652160	-0.434417
H318	H	1.192867	-0.152160	0.065583
H319	H	0.743228	-0.652176	-0.339540
H320	H	1.243228	-0.152176	0.160460
H321	H	0.657642	-0.572762	-0.369150
H322	H	1.157642	-0.072762	0.130850
H323	H	0.708038	-0.572838	-0.274339
H324	H	1.208038	-0.072838	0.225661
O325	O	-0.054177	-0.137626	-0.112810
O326	O	0.445823	0.362374	0.387190
C327	C	-0.048845	-0.229389	-0.112841
C328	C	0.451155	0.270611	0.387159
C329	C	-0.021140	-0.178481	-0.113353
C330	C	0.478860	0.321519	0.386647
H331	H	-0.022145	-0.262434	-0.113261
H332	H	0.477855	0.237566	0.386739
H333	H	-0.076822	-0.231744	-0.175521
H334	H	0.423178	0.268256	0.324479
H335	H	-0.068079	-0.231674	-0.049290
H336	H	0.431921	0.268326	0.450710
H337	H	-0.001876	-0.176162	-0.176862
H338	H	0.498124	0.323838	0.323138
H339	H	0.006810	-0.176148	-0.050631
H340	H	0.506810	0.323852	0.449369
O341	O	0.701003	-0.000178	0.511132
O342	O	1.201003	0.499822	1.011132
C343	C	0.788444	-0.000163	0.523783
C344	C	1.288444	0.499837	1.023783
C345	C	0.740523	-0.000143	0.459592
C346	C	1.240523	0.499857	0.959592
H347	H	0.820409	-0.000124	0.482138
H348	H	1.320409	0.499876	0.982138
H349	H	0.790221	-0.035683	0.568357
H350	H	1.290221	0.464317	1.068357
H351	H	0.790177	0.035343	0.568384
H352	H	1.290177	0.535343	1.068384
H353	H	0.738759	-0.035625	0.414933
H354	H	1.238759	0.464375	0.914933
H355	H	0.738767	0.035400	0.415079
H356	H	1.238767	0.535400	0.915079
O357	O	0.096966	0.137302	-0.115574
O358	O	0.596966	0.637302	0.384426
C359	C	0.045506	0.191016	-0.036329
C360	C	0.545506	0.691016	0.463671
C361	C	0.073247	0.140137	-0.036892
C362	C	0.573247	0.640137	0.463108
H363	H	0.026330	0.193329	0.027288
H364	H	0.526330	0.693329	0.527288
H365	H	0.017486	0.193338	-0.098950
H366	H	0.517486	0.693338	0.401050
H367	H	0.072196	0.224065	-0.036884
H368	H	0.572196	0.724065	0.463116
H369	H	0.046593	0.107059	-0.036306
H370	H	0.546593	0.607059	0.463694
H371	H	0.101273	0.137859	0.025723
H372	H	0.601273	0.637859	0.525723
H373	H	0.517804	-0.125857	-0.016716
H374	H	1.017804	0.374143	0.483284
O375	O	-0.186856	0.091102	-0.110332
O376	O	0.313144	0.591102	0.389668
C377	C	-0.192190	0.182865	-0.110203
C378	C	0.307810	0.682865	0.389797
C379	C	-0.219886	0.131954	-0.109633
C380	C	0.280114	0.631954	0.390367
H381	H	-0.218881	0.215906	-0.109618
H382	H	0.281119	0.715906	0.390382
H383	H	-0.172987	0.185213	-0.173785
H384	H	0.327013	0.685213	0.326215
H385	H	-0.164187	0.185161	-0.047555
H386	H	0.335813	0.685161	0.452445
H387	H	-0.247912	0.129623	-0.172237
H388	H	0.252088	0.629623	0.327763
H389	H	-0.239056	0.129627	-0.046009
H390	H	0.260944	0.629627	0.453991
H391	H	0.488500	-0.531812	0.037597
H392	H	0.988500	-0.031812	0.537597
O393	O	0.628959	-0.121719	-0.222277
O394	O	1.128959	0.378281	0.277723
C395	C	0.687162	-0.127353	-0.330020
C396	C	1.187162	0.372647	0.169980
C397	C	0.654856	-0.156708	-0.270289
C398	C	1.154856	0.343292	0.229711
H399	H	0.708101	-0.155628	-0.368868
H400	H	1.208101	0.344372	0.131132
H401	H	0.713859	-0.102354	-0.285371
H402	H	1.213859	0.397646	0.214629
H403	H	0.663414	-0.102337	-0.380093
H404	H	1.163414	0.397663	0.119907
H405	H	0.678565	-0.181752	-0.220208
H406	H	1.178565	0.318248	0.279792
H407	H	0.628156	-0.181675	-0.314995
H408	H	1.128156	0.318325	0.185005
H409	H	-0.050274	0.130055	-0.112895
H410	H	0.449726	0.630055	0.387105
H411	H	0.424374	0.083829	-0.121964
H412	H	0.924374	0.583829	0.378036
H413	H	0.041174	-0.130310	-0.114595
H414	H	0.541174	0.369690	0.385405
O415	O	0.628986	-0.226955	-0.222114
O416	O	1.128986	0.273045	0.277886
C417	C	0.694244	-0.287264	-0.226486
C418	C	1.194244	0.212736	0.273514
C419	C	0.661930	-0.257896	-0.166792
C420	C	1.161930	0.242104	0.333208
H421	H	0.720881	-0.312295	-0.181784
H422	H	1.220881	0.187705	0.318216
H423	H	0.715250	-0.259013	-0.265269
H424	H	1.215250	0.240987	0.234731
H425	H	0.670496	-0.312251	-0.276613
H426	H	1.170496	0.187749	0.223387
H427	H	0.685643	-0.232908	-0.116614
H428	H	1.185643	0.267092	0.383386
H429	H	0.640921	-0.286175	-0.128073
H430	H	1.140921	0.213825	0.371927
O431	O	0.513186	-0.226888	-0.008094
O432	O	1.013186	0.273112	0.491906
C433	C	0.454940	-0.221254	0.099569
C434	C	0.954940	0.278746	0.599569
C435	C	0.487225	-0.191899	0.039796
C436	C	0.987225	0.308101	0.539796
H437	H	0.433934	-0.192979	0.138289
H438	H	0.933934	0.307021	0.638289
H439	H	0.478662	-0.246239	0.149740
H440	H	0.978662	0.253761	0.649740
H441	H	0.428296	-0.246284	0.054871
H442	H	0.928296	0.253716	0.554871
H443	H	0.513873	-0.166841	0.084422
H444	H	1.013873	0.333159	0.584422
H445	H	0.463472	-0.166946	-0.010381
H446	H	0.963472	0.333054	0.489619
O447	O	0.439269	-0.000072	0.443508
O448	O	0.939269	0.499928	0.943508
C449	C	0.352030	-0.000082	0.411029
C450	C	0.852030	0.499918	0.911029
C451	C	0.401004	-0.000105	0.371872
C452	C	0.901004	0.499895	0.871872
H453	H	0.321080	-0.000120	0.353131
H454	H	0.821080	0.499880	0.853131
H455	H	0.349358	0.035438	0.454452
H456	H	0.849358	0.535438	0.954452
H457	H	0.349398	-0.035588	0.454506
H458	H	0.849398	0.464412	0.954506
H459	H	0.403670	0.035377	0.328355
H460	H	0.903670	0.535377	0.828355
H461	H	0.403655	-0.035649	0.328501
H462	H	0.903655	0.464351	0.828501
H463	H	0.424362	-0.084021	-0.121964
H464	H	0.924362	0.415979	0.378036
O465	O	0.658340	-0.367421	-0.276556
O466	O	1.158340	0.132579	0.223444
C467	C	0.716549	-0.373064	-0.384288
C468	C	1.216549	0.126936	0.115712
C469	C	0.684234	-0.402414	-0.324563
C470	C	1.184234	0.097586	0.175437
H471	H	0.737485	-0.401344	-0.423132
H472	H	1.237485	0.098656	0.076868
H473	H	0.743247	-0.348070	-0.339634
H474	H	1.243247	0.151930	0.160366
H475	H	0.692806	-0.348045	-0.434364
H476	H	1.192806	0.151955	0.065636
H477	H	0.707938	-0.427461	-0.274479
H478	H	1.207938	0.072539	0.225521
H479	H	0.657533	-0.427377	-0.369274
H480	H	1.157533	0.072623	0.130726
H481	H	0.653697	-0.531776	-0.268001
H482	H	1.153697	-0.031776	0.231999
H483	H	0.624359	-0.777491	-0.213722
H484	H	1.124359	-0.277491	0.286278
O485	O	0.329013	-0.091344	-0.120168
O486	O	0.829013	0.408656	0.379832
C487	C	0.334352	-0.183106	-0.120222
C488	C	0.834352	0.316894	0.379778
C489	C	0.362053	-0.132196	-0.120724
C490	C	0.862053	0.367804	0.379276
H491	H	0.361054	-0.216148	-0.120653
H492	H	0.861054	0.283852	0.379347
H493	H	0.306374	-0.185459	-0.182901
H494	H	0.806374	0.314541	0.317099
H495	H	0.315120	-0.185399	-0.056670
H496	H	0.815120	0.314601	0.443330
H497	H	0.381315	-0.129869	-0.184234
H498	H	0.881315	0.370131	0.315766
H499	H	0.390004	-0.129865	-0.058003
H500	H	0.890004	0.370135	0.441997
H501	H	-0.282208	-0.084073	-0.108466
H502	H	0.217792	0.415927	0.391534
O503	O	-0.186777	-0.091350	-0.110121
O504	O	0.313223	0.408650	0.389879
C505	C	-0.165951	-0.170432	-0.032294
C506	C	0.334049	0.329568	0.467706
C507	C	-0.193685	-0.119544	-0.031839
C508	C	0.306315	0.380456	0.468161
H509	H	-0.171534	-0.193245	0.030980
H510	H	0.328466	0.306755	0.530980
H511	H	-0.125575	-0.162513	-0.032997
H512	H	0.374425	0.337487	0.467003
H513	H	-0.180241	-0.193225	-0.095248
H514	H	0.319759	0.306775	0.404752
H515	H	-0.179436	-0.096724	0.031105
H516	H	0.320564	0.403276	0.531105
H517	H	-0.234057	-0.127498	-0.031183
H518	H	0.265943	0.372502	0.468817
O519	O	0.513238	-0.878531	-0.008094
O520	O	1.013238	-0.378531	0.491906
C521	C	0.454994	-0.872896	0.099572
C522	C	0.954994	-0.372896	0.599572
C523	C	0.487281	-0.843541	0.039803
C524	C	0.987281	-0.343541	0.539803
H525	H	0.433991	-0.844619	0.138297
H526	H	0.933991	-0.344619	0.638297
H527	H	0.478713	-0.897886	0.149738
H528	H	0.978713	-0.397886	0.649738
H529	H	0.428347	-0.897920	0.054870
H530	H	0.928347	-0.397920	0.554870
H531	H	0.513933	-0.818489	0.084433
H532	H	1.013933	-0.318489	0.584433
H533	H	0.463532	-0.818583	-0.010369
H534	H	0.963532	-0.318583	0.489631
H535	H	0.653692	-0.468430	-0.268002
H536	H	1.153692	0.031570	0.231998
O537	O	0.483885	-0.632823	0.046216
O538	O	0.983885	-0.132823	0.546216
C539	C	0.425646	-0.627188	0.153891
C540	C	0.925646	-0.127188	0.653891
C541	C	0.457927	-0.597833	0.094112
C542	C	0.957927	-0.097833	0.594112
H543	H	0.404643	-0.598912	0.192616
H544	H	0.904643	-0.098912	0.692616
H545	H	0.449369	-0.652174	0.204058
H546	H	0.949369	-0.152174	0.704058
H547	H	0.398999	-0.652217	0.109197
H548	H	0.898999	-0.152217	0.609197
H549	H	0.484578	-0.572777	0.138733
H550	H	0.984578	-0.072777	0.638733
H551	H	0.434173	-0.572880	0.043939
H552	H	0.934173	-0.072880	0.543939
H553	H	0.493508	-0.000101	0.137826
H554	H	0.993508	0.499899	0.637826
O555	O	0.441245	-0.000070	0.258173
O556	O	0.941245	0.499930	0.758173
C557	C	0.403706	-0.000096	0.103238
C558	C	0.903706	0.499904	0.603238
C559	C	0.451595	-0.000120	0.167519
C560	C	0.951595	0.499880	0.667519
H561	H	0.412057	-0.000148	0.029931
H562	H	0.912057	0.499852	0.529931
H563	H	0.381809	0.035431	0.116039
H564	H	0.881809	0.535431	0.616039
H565	H	0.381793	-0.035595	0.116166
H566	H	0.881793	0.464405	0.616166
H567	H	0.473546	0.035355	0.154629
H568	H	0.973546	0.535355	0.654629
H569	H	0.473455	-0.035670	0.154705
H570	H	0.973455	0.464330	0.654705
H571	H	0.100975	-0.130297	-0.115749
H572	H	0.600975	0.369703	0.384251
H573	H	0.624364	-0.874399	-0.213713
H574	H	1.124364	-0.374399	0.286287
