data_functionalizedCrystal
_audit_creation_method	'MofGen! by Chris Wilmer'
_symmetry_space_group_name_H-M	'P1'
_symmetry_Int_Tables_number	1
_symmetry_cell_setting	triclinic
loop_
_symmetry_equiv_pos_as_xyz
  x,y,z
_cell_length_a	12.837943
_cell_length_b	10.489741
_cell_length_c	11.295483
_cell_angle_alpha	94.137284
_cell_angle_beta	85.461227
_cell_angle_gamma	89.684057
loop_
_atom_site_label
_atom_site_type_symbol
_atom_site_fract_x
_atom_site_fract_y
_atom_site_fract_z
O1	O	1.384854	0.324137	-0.099003
O2	O	1.082927	0.307742	-0.099010
O3	O	1.240760	0.131100	-0.098999
O4	O	1.227021	0.500780	-0.099013
O5	O	1.226897	0.146588	0.099051
O6	O	1.069064	0.323231	0.099040
O7	O	1.370991	0.339626	0.099047
Cu8	Cu	1.218762	0.332842	0.117127
Cu9	Cu	1.235156	0.314526	-0.117090
O10	O	1.213158	0.516268	0.099036
C11	C	1.037334	0.309948	0.000014
C12	C	0.922133	0.293430	0.000012
C13	C	0.682657	0.492006	0.000021
C14	C	0.574415	0.476492	0.000020
C15	C	0.597406	0.246889	0.000016
C16	C	0.705648	0.262403	0.000017
C17	C	0.748269	0.384966	0.000018
C18	C	0.856513	0.400478	0.000011
C19	C	0.879501	0.170877	0.000016
C20	C	0.771260	0.155363	0.000014
C21	C	1.232791	0.091198	0.000025
C22	C	1.229686	-0.050774	0.000023
C23	C	1.129262	-0.129987	0.000012
C24	C	1.169867	-0.209242	0.097662
C25	C	1.183558	-0.224485	-0.097600
C26	C	1.270327	-0.128153	0.097754
C27	C	1.284011	-0.143394	-0.097596
C28	C	1.324687	-0.222613	0.000078
C29	C	1.416585	0.337420	0.000020
C30	C	1.531786	0.353937	0.000015
C31	C	1.221127	0.556170	0.000010
C32	C	1.224233	0.698141	0.000004
N33	N	1.207238	0.345726	0.281863
N34	N	1.246688	0.301633	-0.281825
C35	C	1.329641	0.208822	0.531161
C36	C	1.320940	0.218568	0.655824
C37	C	1.181131	0.374956	0.655854
C38	C	1.189832	0.365210	0.531191
C39	C	1.264090	0.282142	0.468849
C40	C	1.272796	0.272403	0.344183
C41	C	1.132982	0.428784	0.344216
C42	C	1.124281	0.438530	0.468879
H43	H	1.046686	-0.089431	0.000108
N44	N	0.727701	0.030185	0.000022
N45	N	0.631056	0.016347	0.000026
H46	H	0.600292	-0.072062	0.000029
N47	N	0.553853	0.121709	0.000043
N48	N	0.490178	0.093974	0.083533
H49	H	0.459416	0.005565	0.083554
H50	H	1.390112	0.141194	0.480400
H51	H	0.520997	0.563656	0.000025
N52	N	1.348582	0.187486	0.280478
N53	N	1.345227	0.070403	0.294409
H54	H	1.398728	0.010404	0.249406
H55	H	1.407326	-0.262921	0.000134
H56	H	0.891213	0.500275	0.000014
N57	N	0.946537	0.061542	0.000027
N58	N	1.003662	0.051109	0.083508
H59	H	1.051008	-0.026107	0.083514
N60	N	1.109304	-0.245919	0.201220
N61	N	1.015145	-0.213689	0.218618
H62	H	0.972366	-0.239589	0.291752
N63	N	1.344515	-0.106646	-0.201157
N64	N	1.357211	0.009078	-0.217236
H65	H	1.399937	0.035034	-0.290384
H66	H	1.306997	-0.086177	0.180402
N67	N	0.726217	0.617184	0.000028
N68	N	0.822862	0.631018	0.000033
H69	H	0.853627	0.719427	0.000038
N70	N	1.137468	-0.277329	-0.201153
N71	N	1.045741	-0.247804	-0.218524
H72	H	1.013181	-0.285122	-0.291653
N73	N	1.387890	0.143683	0.719493
N74	N	1.380109	0.152387	0.830798
H75	H	1.427390	0.099492	0.875767
H76	H	1.120664	0.442579	0.706630
N77	N	1.048432	0.523363	0.532584
N78	N	1.040668	0.532051	0.643889
H79	H	0.987100	0.591968	0.688880
H80	H	1.079610	0.488490	0.293468
