data_functionalizedCrystal
_audit_creation_method	'MofGen! by Chris Wilmer'
_symmetry_space_group_name_H-M	'P1'
_symmetry_Int_Tables_number	1
_symmetry_cell_setting	triclinic
loop_
_symmetry_equiv_pos_as_xyz
  x,y,z
_cell_length_a	15.944545
_cell_length_b	15.944551
_cell_length_c	15.072220
_cell_angle_alpha	89.997918
_cell_angle_beta	89.990287
_cell_angle_gamma	83.497455
loop_
_atom_site_label
_atom_site_type_symbol
_atom_site_fract_x
_atom_site_fract_y
_atom_site_fract_z
O1	O	1.114538	0.108301	-0.073727
O2	O	0.869987	0.121663	-0.073742
O3	O	0.998941	-0.007293	-0.073726
O4	O	0.985584	0.237257	-0.073743
O5	O	0.998909	-0.007286	0.073839
O6	O	0.869956	0.121670	0.073823
O7	O	1.114506	0.108309	0.073838
Zn8	Zn	0.992226	0.114991	0.097260
Zn9	Zn	0.992268	0.114981	-0.097163
O10	O	0.985553	0.237264	0.073822
C11	C	0.838677	0.121113	0.000039
C12	C	0.745431	0.119453	0.000034
C13	C	0.474798	0.034559	0.000049
C14	C	0.525364	0.075491	0.072806
C15	C	0.409787	0.113532	0.000049
C16	C	0.525376	0.075506	-0.072682
C17	C	0.574701	0.116437	0.000040
C18	C	0.459125	0.154443	0.072866
C19	C	0.459134	0.154446	-0.072687
C20	C	0.509667	0.195436	0.000088
C21	C	0.314785	0.111856	0.000055
C22	C	0.669700	0.118119	0.000041
C23	C	0.998370	-0.038583	0.000057
C24	C	0.996708	-0.131829	0.000057
C25	C	0.912803	-0.346684	0.000040
C26	C	0.951750	-0.407699	0.072801
C27	C	0.993701	-0.302555	0.000050
C28	C	0.951801	-0.407689	-0.072687
C29	C	0.990790	-0.467468	0.000040
C30	C	1.032670	-0.362341	0.072871
C31	C	1.032709	-0.362325	-0.072682
C32	C	1.071715	-0.423322	0.000097
C33	C	0.995375	-0.207553	0.000057
C34	C	0.989122	-0.562469	0.000039
C35	C	1.145816	0.108859	0.000055
C36	C	1.239062	0.110519	0.000055
C37	C	0.986123	0.268555	0.000038
C38	C	0.987785	0.361801	0.000032
N39	N	0.992203	0.114996	0.229949
N40	N	0.992297	0.114968	-0.229852
C41	C	0.992266	0.114978	0.589150
C42	C	0.923034	0.183748	0.551535
C43	C	0.923193	0.183999	0.448709
C44	C	0.992234	0.114987	0.410946
C45	C	1.079878	0.134132	0.448241
C46	C	1.079490	0.134621	0.551099
C47	C	0.974636	0.026858	0.551255
C48	C	0.972625	0.027446	0.448392
C49	C	0.992222	0.114991	0.310233
C50	C	0.992284	0.114976	0.689864
H51	H	0.554282	0.042142	0.134320
O52	O	1.100064	0.219747	0.582867
H53	H	1.158244	0.211409	0.623847
H54	H	0.917521	-0.427803	0.134310
H55	H	0.430302	0.187774	0.134442
H56	H	0.917587	-0.427768	-0.134205
O57	O	1.149781	0.070802	0.584064
H58	H	1.194250	0.103279	0.624843
O59	O	1.149758	0.069556	0.415843
H60	H	1.122698	0.023022	0.372709
O61	O	1.078044	-0.335659	-0.154139
H62	H	1.034637	-0.290681	-0.193445
H63	H	0.858045	0.172592	0.423495
O64	O	1.077940	-0.335875	0.154446
H65	H	1.034322	-0.291438	0.194145
O66	O	1.160732	-0.467261	0.000151
H67	H	1.194087	-0.449106	0.060606
O68	O	1.100945	0.218293	0.414114
H69	H	1.160677	0.208986	0.375708
H70	H	0.912114	0.008449	0.577243
H71	H	0.857676	0.172528	0.576293
O72	O	0.937736	0.269886	0.585742
H73	H	0.994140	0.263931	0.629416
H74	H	0.525158	0.263501	0.000125
H75	H	0.934451	0.249391	0.424092
O76	O	0.420787	0.198577	-0.154167
H77	H	0.447447	0.165648	-0.214475
H78	H	0.554307	0.042137	-0.134188
O79	O	0.454028	-0.055518	0.000150
H80	H	0.481708	-0.088576	-0.059642
O81	O	0.887219	0.008196	0.416122
H82	H	0.858851	0.060748	0.373585
H83	H	0.845655	-0.313375	0.000109
H84	H	1.019774	-0.026127	0.422690
O85	O	1.041500	-0.040939	0.583481
H86	H	1.087075	-0.012070	0.626279
