data_functionalizedCrystal
_audit_creation_method	'MofGen! by Chris Wilmer'
_symmetry_space_group_name_H-M	'P1'
_symmetry_Int_Tables_number	1
_symmetry_cell_setting	triclinic
loop_
_symmetry_equiv_pos_as_xyz
  x,y,z
_cell_length_a	12.759401
_cell_length_b	12.759393
_cell_length_c	12.759400
_cell_angle_alpha	89.974496
_cell_angle_beta	89.999471
_cell_angle_gamma	90.020566
loop_
_atom_site_label
_atom_site_type_symbol
_atom_site_fract_x
_atom_site_fract_y
_atom_site_fract_z
Zn1	Zn	-1.606357	-0.594046	-0.418266
Zn2	Zn	-1.106357	-0.094046	0.081734
Zn3	Zn	-1.606286	-0.418382	-0.593981
Zn4	Zn	-1.106286	0.081618	-0.093981
Zn5	Zn	-1.430655	-0.418382	-0.418311
Zn6	Zn	-0.930655	0.081618	0.081689
Zn7	Zn	-1.430685	-0.594020	-0.593898
Zn8	Zn	-0.930685	-0.094020	-0.093898
O9	O	-1.518496	-0.506208	-0.506114
O10	O	-1.018496	-0.006208	-0.006114
O11	O	-1.753368	-0.570754	-0.441591
O12	O	-1.253368	-0.070754	0.058409
O13	O	-1.582946	-0.271361	-0.570732
O14	O	-1.082946	0.228639	-0.070732
O15	O	-1.453980	-0.441696	-0.271284
O16	O	-0.953980	0.058304	0.228716
O17	O	-1.753316	-0.441694	-0.570688
O18	O	-1.253316	0.058306	-0.070688
O19	O	-1.583067	-0.570755	-0.271251
O20	O	-1.083067	-0.070755	0.228749
O21	O	-1.453911	-0.271361	-0.441668
O22	O	-0.953911	0.228639	0.058332
O23	O	-1.283638	-0.441671	-0.441587
O24	O	-0.783638	0.058329	0.058413
O25	O	-1.454031	-0.741045	-0.570546
O26	O	-0.954031	-0.241045	-0.070546
O27	O	-1.283660	-0.570711	-0.570590
O28	O	-0.783660	-0.070711	-0.070590
O29	O	-1.583096	-0.741064	-0.441509
O30	O	-1.083096	-0.241064	0.058491
O31	O	-1.582975	-0.441669	-0.740991
O32	O	-1.082975	0.058331	-0.240991
O33	O	-1.453962	-0.570710	-0.740930
O34	O	-0.953962	-0.070710	-0.240930
C35	C	-1.245528	-0.506188	-0.506085
C36	C	-0.745528	-0.006188	-0.006085
C37	C	-1.128752	-0.506205	-0.506098
C38	C	-0.628752	-0.006205	-0.006098
C39	C	-1.073918	-0.573510	-0.438997
C40	C	-0.573918	-0.073510	0.061003
C41	C	-0.964194	-0.573515	-0.439003
C42	C	-0.464194	-0.073515	0.060997
C43	C	-0.964148	-0.438908	-0.573222
C44	C	-0.464148	0.061092	-0.073222
C45	C	-1.073870	-0.438899	-0.573209
C46	C	-0.573870	0.061101	-0.073209
C47	C	-1.518574	-0.780241	-0.506013
C48	C	-1.018574	-0.280241	-0.006013
C49	C	-1.518608	-0.897018	-0.505970
C50	C	-1.018608	-0.397018	-0.005970
C51	C	-1.518492	-0.506209	-0.779081
C52	C	-1.018492	-0.006209	-0.279081
C53	C	-1.518587	-0.506245	-0.895858
C54	C	-1.018587	-0.006245	-0.395858
C55	C	-0.792529	-0.506223	-0.506134
C56	C	-0.292529	-0.006223	-0.006134
C57	C	-0.909306	-0.506220	-0.506117
C58	C	-0.409306	-0.006220	-0.006117
C59	C	-1.585817	-0.951891	-0.438770
C60	C	-1.085817	-0.451891	0.061230
C61	C	-1.585835	-1.061616	-0.438725
C62	C	-1.085835	-0.561616	0.061275
C63	C	-1.451431	-1.061583	-0.573088
C64	C	-0.951431	-0.561583	-0.073088
C65	C	-1.451409	-0.951860	-0.573128
C66	C	-0.951409	-0.451860	-0.073128
C67	C	-1.518478	-0.233240	-0.506139
C68	C	-1.018478	0.266760	-0.006139
C69	C	-1.518648	-0.116464	-0.505886
C70	C	-1.018648	0.383536	-0.005886
C71	C	-1.518528	-0.506229	-0.232081
C72	C	-1.018528	-0.006229	0.267919
C73	C	-1.518542	-0.506238	-0.115304
C74	C	-1.018542	-0.006238	0.384696
C75	C	-1.451407	-0.573428	0.049325
C76	C	-0.951407	-0.073428	0.549325
C77	C	-1.451381	-0.573422	-0.060399
C78	C	-0.951381	-0.073422	0.439601
C79	C	-1.585725	-0.439048	-0.060479
C80	C	-1.085725	0.060952	0.439521
C81	C	-1.585744	-0.439049	0.049243
C82	C	-1.085744	0.060951	0.549243
H83	H	-1.118517	-0.384086	-0.627853
H84	H	-0.618517	0.115914	-0.127853
H85	H	-1.640532	-0.907242	-0.384083
H86	H	-1.140532	-0.407242	0.115917
O87	O	-1.133117	-0.646086	-0.366602
O88	O	-0.633117	-0.146086	0.133398
H89	H	-1.076549	-0.692877	-0.319934
H90	H	-0.576549	-0.192877	0.180066
O91	O	-1.658159	-0.366582	-0.119699
O92	O	-1.158159	0.133418	0.380301
H93	H	-1.704869	-0.319858	-0.063145
H94	H	-1.204869	0.180142	0.436855
H95	H	-1.396723	-1.106249	-0.627768
H96	H	-0.896723	-0.606249	-0.127768
H97	H	-0.919552	-0.628319	-0.384360
H98	H	-0.419552	-0.128319	0.115640
H99	H	-1.640562	-1.106289	-0.384002
H100	H	-1.140562	-0.606289	0.115998
O101	O	-1.658218	-0.366591	0.108370
O102	O	-1.158218	0.133409	0.608370
H103	H	-1.646942	-0.377877	0.193890
H104	H	-1.146942	0.122123	0.693890
H105	H	-0.919449	-0.384111	-0.627863
H106	H	-0.419449	0.115889	-0.127863
H107	H	-1.396672	-0.907181	-0.627849
H108	H	-0.896672	-0.407181	-0.127849
O109	O	-1.378954	-0.645884	0.108535
O110	O	-0.878954	-0.145884	0.608535
H111	H	-1.396976	-0.728344	0.087501
H112	H	-0.896976	-0.228344	0.587501
H113	H	-1.396676	-0.628128	-0.105026
H114	H	-0.896676	-0.128128	0.394974
