data_functionalizedCrystal
_audit_creation_method	'MofGen! by Chris Wilmer'
_symmetry_space_group_name_H-M	'P1'
_symmetry_Int_Tables_number	1
_symmetry_cell_setting	triclinic
loop_
_symmetry_equiv_pos_as_xyz
  x,y,z
_cell_length_a	19.077399
_cell_length_b	15.299383
_cell_length_c	19.076919
_cell_angle_alpha	102.311458
_cell_angle_beta	85.520477
_cell_angle_gamma	97.753793
loop_
_atom_site_label
_atom_site_type_symbol
_atom_site_fract_x
_atom_site_fract_y
_atom_site_fract_z
Zn1	Zn	1.103515	0.322735	0.397349
Zn2	Zn	1.603515	0.822735	0.897349
Zn3	Zn	1.126905	0.467255	0.298257
Zn4	Zn	1.626905	0.967255	0.798257
Zn5	Zn	0.990373	0.322760	0.284207
Zn6	Zn	1.490373	0.822760	0.784207
Zn7	Zn	1.005963	0.479827	0.422459
Zn8	Zn	1.505963	0.979827	0.922459
O9	O	1.056689	0.398144	0.350568
O10	O	1.556689	0.898144	0.850568
O11	O	1.204582	0.336635	0.379576
O12	O	1.704582	0.836635	0.879576
O13	O	1.112058	0.442837	0.197063
O14	O	1.612058	0.942837	0.697063
O15	O	0.989068	0.196541	0.282827
O16	O	1.489068	0.696541	0.782827
O17	O	1.221767	0.442813	0.306773
O18	O	1.721767	0.942813	0.806773
O19	O	1.072193	0.196523	0.365952
O20	O	1.572193	0.696523	0.865952
O21	O	1.011748	0.336676	0.186741
O22	O	1.511748	0.836676	0.686741
O23	O	0.894476	0.348866	0.307175
O24	O	1.394476	0.848866	0.807175
O25	O	1.015639	0.464239	0.518458
O26	O	1.515639	0.964239	1.018458
O27	O	0.905930	0.464263	0.408749
O28	O	1.405930	0.964263	0.908749
O29	O	1.087310	0.348825	0.500010
O30	O	1.587310	0.848825	1.000010
O31	O	1.127175	0.595138	0.331121
O32	O	1.627175	1.095138	0.831121
O33	O	1.038319	0.604374	0.422372
O34	O	1.538319	1.104374	0.922372
C35	C	0.874802	0.407932	0.359163
C36	C	1.374802	0.907932	0.859163
C37	C	0.796992	0.412142	0.362859
C38	C	1.296992	0.912142	0.862859
C39	C	0.754439	0.353956	0.311775
C40	C	1.254439	0.853956	0.811775
C41	C	0.681329	0.357920	0.315249
C42	C	1.181329	0.857920	0.815249
C43	C	0.650774	0.420065	0.369811
C44	C	1.150774	0.920065	0.869811
C45	C	0.693333	0.478258	0.420897
C46	C	1.193333	0.978258	0.920897
C47	C	0.766441	0.474298	0.417420
C48	C	1.266441	0.974298	0.917420
C49	C	0.432766	0.438364	0.385873
C50	C	0.932766	0.938364	0.885873
C51	C	0.359651	0.442317	0.389348
C52	C	0.859651	0.942317	0.889348
C53	C	0.347653	0.321980	0.283698
C54	C	0.847653	0.821980	0.783698
C55	C	0.420763	0.318022	0.280228
C56	C	0.920763	0.818022	0.780228
C57	C	0.463316	0.376218	0.331312
C58	C	0.963316	0.876218	0.831312
N59	N	0.576044	0.424116	0.373364
N60	N	1.076044	0.924116	0.873364
N61	N	0.538045	0.372170	0.327755
N62	N	1.038045	0.872170	0.827755
C63	C	1.086995	0.632482	0.381010
C64	C	1.586995	1.132482	0.881010
C65	C	1.100024	0.732731	0.394054
C66	C	1.600024	1.232731	0.894054
C67	C	0.963816	1.015636	0.257596
C68	C	1.463816	1.515636	0.757596
C69	C	0.951571	0.921447	0.245342
C70	C	1.451571	1.421447	0.745342
C71	C	0.988683	0.874264	0.282519
C72	C	1.488683	1.374264	0.782519
C73	C	1.038042	0.921277	0.331952
C74	C	1.538042	1.421277	0.831952
C75	C	1.050284	1.015475	0.344211
C76	C	1.550284	1.515475	0.844211
C77	C	1.075152	0.874103	0.369134
C78	C	1.575152	1.374103	0.869134
C79	C	1.124510	0.921117	0.418567
C80	C	1.624510	1.421117	0.918567
C81	C	1.136750	1.015305	0.430823
C82	C	1.636750	1.515305	0.930823
C83	C	1.099638	1.062489	0.393647
C84	C	1.599638	1.562489	0.893647
C85	C	1.062910	0.779905	0.356875
C86	C	1.562910	1.279905	0.856875
C87	C	1.149378	0.779745	0.443490
C88	C	1.649378	1.279745	0.943490
C89	C	1.161623	0.873933	0.455744
C90	C	1.661623	1.373933	0.955744
C91	C	1.239286	0.388319	0.341940
C92	C	1.739286	0.888319	0.841940
C93	C	1.317098	0.384132	0.338264
C94	C	1.817098	0.884132	0.838264
C95	C	1.050604	0.407932	0.535709
C96	C	1.550604	0.907932	1.035709
C97	C	1.048012	0.412102	0.614606
C98	C	1.548012	0.912102	1.114606
C99	C	1.026243	1.162893	0.320028
C100	C	1.526243	1.662893	0.820028
C101	C	1.013170	1.062650	0.307032
C102	C	1.513170	1.562650	0.807032
C103	C	1.062781	0.388328	0.166137
C104	C	1.562781	0.888328	0.666137
C105	C	1.065476	0.383896	0.087201
C106	C	1.565476	0.883896	0.587201
C107	C	1.084107	0.353974	0.642068
C108	C	1.584107	0.853974	1.142068
C109	C	1.081662	0.357890	0.716199
C110	C	1.581662	0.857890	1.216199
C111	C	1.043125	0.419939	0.762867
C112	C	1.543125	0.919939	1.262867
C113	C	1.007026	0.478070	0.735401
C114	C	1.507026	0.978070	1.235401
C115	C	1.009467	0.474149	0.661270
C116	C	1.509467	0.974149	1.161270
C117	C	1.031818	0.438105	0.985604
C118	C	1.531818	0.938105	1.485604
C119	C	1.029381	0.442023	1.059739
C120	C	1.529381	0.942023	1.559739
C121	C	1.104017	0.321842	1.040532
C122	C	1.604017	0.821842	1.540532
C123	C	1.106458	0.317931	0.966402
C124	C	1.606458	0.817931	1.466402
C125	C	1.070356	0.376058	0.938941
C126	C	1.570356	0.876058	1.438941
N127	N	1.040627	0.423945	0.838642
N128	N	1.540627	0.923945	1.338642
N129	N	1.072850	0.372047	0.863167
N130	N	1.572850	0.872047	1.363167
H131	H	0.334775	0.492924	0.433783
H132	H	0.834775	0.992924	0.933783
H133	H	0.312999	0.274602	0.242108
H134	H	0.812999	0.774602	0.742108
H135	H	1.133408	0.274518	1.062899
H136	H	1.633408	0.774518	1.562899
O137	O	1.014883	0.734348	0.308910
O138	O	1.514883	1.234348	0.808910
C139	C	0.893229	0.710233	0.276281
C140	C	1.393229	1.210233	0.776281
C141	C	0.947552	0.761904	0.330651
C142	C	1.447552	1.261904	0.830651
H143	H	0.838777	0.732480	0.293847
H144	H	1.338777	1.232480	0.793847
H145	H	0.909801	0.725101	0.220878
H146	H	1.409801	1.225101	0.720878
H147	H	0.890889	0.634809	0.273890
H148	H	1.390889	1.134809	0.773890
H149	H	0.949919	0.837343	0.333105
H150	H	1.449919	1.337343	0.833105
H151	H	0.930959	0.746962	0.386027
H152	H	1.430959	1.246962	0.886027
H153	H	0.445637	0.267423	0.235794
H154	H	0.945637	0.767423	0.735794
O155	O	1.184744	1.060834	0.478842
O156	O	1.684744	1.560834	0.978842
C157	C	1.269197	1.050733	0.563479
C158	C	1.769197	1.550733	1.063479
C159	C	1.214873	0.999062	0.509110
C160	C	1.714873	1.499062	1.009110
H161	H	1.293560	1.000815	0.587977
H162	H	1.793560	1.500815	1.087977
H163	H	1.312664	1.091083	0.534946
H164	H	1.812664	1.591083	1.034946
H165	H	1.241540	1.098570	0.607806
H166	H	1.741540	1.598570	1.107806
H167	H	1.242467	0.951179	0.464769
H168	H	1.742467	1.451179	0.964769
H169	H	1.171410	0.958771	0.537694
H170	H	1.671410	1.458771	1.037694
O171	O	0.663717	0.538577	0.473990
O172	O	1.163717	1.038577	0.973990
C173	C	0.643070	0.590131	0.601456
C174	C	1.143070	1.090131	1.101456
C175	C	0.676658	0.521785	0.541396
C176	C	1.176658	1.021785	1.041396
H177	H	0.653508	0.576568	0.655967
H178	H	1.153508	1.076568	1.155967
H179	H	0.667272	0.661414	0.597725
H180	H	1.167272	1.161414	1.097725
H181	H	0.583514	0.582972	0.595132
H182	H	1.083514	1.082972	1.095132
H183	H	0.736214	0.528862	0.547681
H184	H	1.236214	1.028862	1.047681
H185	H	0.652400	0.450530	0.545145
H186	H	1.152400	0.950530	1.045145
O187	O	0.927745	1.061577	0.221602
O188	O	1.427745	1.561577	0.721602
C189	C	0.847359	1.172585	0.230306
C190	C	1.347359	1.672585	0.730306
C191	C	0.888186	1.120634	0.271162
C192	C	1.388186	1.620634	0.771162
H193	H	0.815354	1.220331	0.270357
H194	H	1.315354	1.720331	0.770357
H195	H	0.886447	1.213039	0.197457
H196	H	1.386447	1.713039	0.697457
H197	H	0.810011	1.122789	0.192846
H198	H	1.310011	1.622789	0.692846
H199	H	0.925535	1.170366	0.308660
H200	H	1.425535	1.670366	0.808660
H201	H	0.849058	1.080166	0.303965
H202	H	1.349058	1.580166	0.803965
H203	H	1.137841	0.267406	0.928408
H204	H	1.637841	0.767406	1.428408
H205	H	0.911383	0.883172	0.205095
H206	H	1.411383	1.383172	0.705095
H207	H	1.002433	0.485449	0.963256
H208	H	1.502433	0.985449	1.463256
H209	H	0.997998	0.492553	1.097736
H210	H	1.497998	0.992553	1.597736
O211	O	0.969648	0.538316	0.780835
O212	O	1.469648	1.038316	1.280835
C213	C	0.932774	0.597584	0.903543
C214	C	1.432774	1.097584	1.403543
C215	C	0.975144	0.529324	0.852173
C216	C	1.475144	1.029324	1.352173
H217	H	0.937191	0.590324	0.961230
H218	H	1.437191	1.090324	1.461230
H219	H	0.954947	0.668902	0.897885
H220	H	1.454947	1.168902	1.397885
H221	H	0.874768	0.584015	0.889532
H222	H	1.374768	1.084015	1.389532
H223	H	1.033156	0.542809	0.866151
H224	H	1.533156	1.042809	1.366151
H225	H	0.952913	0.458028	0.857840
H226	H	1.452913	0.958028	1.357840
H227	H	0.980066	0.521474	0.638911
H228	H	1.480066	1.021474	1.138911
H229	H	0.978712	0.797571	0.272538
H230	H	1.478712	1.297571	0.772538
O231	O	0.639895	0.301402	0.265713
O232	O	1.139895	0.801402	0.765713
C233	C	0.541875	0.183619	0.244376
C234	C	1.041875	0.683619	0.744376
C235	C	0.588742	0.247565	0.300563
C236	C	1.088742	0.747565	0.800563
H237	H	0.500516	0.140063	0.272529
H238	H	1.000516	0.640063	0.772529
H239	H	0.514182	0.224854	0.214238
H240	H	1.014182	0.724854	0.714238
H241	H	0.576270	0.138556	0.204751
H242	H	1.076270	0.638556	0.704751
H243	H	0.554397	0.292642	0.340233
H244	H	1.054397	0.792642	0.840233
H245	H	0.616440	0.206276	0.330646
H246	H	1.116440	0.706276	0.830646
O247	O	0.807839	0.530690	0.467059
O248	O	1.307839	1.030690	0.967059
C249	C	0.888822	0.543609	0.560578
C250	C	1.388822	1.043609	1.060578
C251	C	0.841981	0.479639	0.504381
C252	C	1.341981	0.979639	1.004381
H253	H	0.916427	0.502360	0.590778
H254	H	1.416427	1.002360	1.090778
H255	H	0.930254	0.587111	0.532453
H256	H	1.430254	1.087111	1.032453
H257	H	0.854417	0.588725	0.600144
H258	H	1.354417	1.088725	1.100144
H259	H	0.876329	0.434466	0.464799
H260	H	1.376329	0.934466	0.964799
H261	H	0.800546	0.436199	0.532555
H262	H	1.300546	0.936199	1.032555
O263	O	1.209508	0.919520	0.503857
O264	O	1.709508	1.419520	1.003857
C265	C	1.243120	0.952862	0.626776
C266	C	1.743120	1.452862	1.126776
C267	C	1.188850	0.901166	0.572358
C268	C	1.688850	1.401166	1.072358
H269	H	1.226430	0.938057	0.682174
H270	H	1.726430	1.438057	1.182174
H271	H	1.297585	0.930583	0.609336
H272	H	1.797585	1.430583	1.109336
H273	H	1.245498	1.028279	0.629109
H274	H	1.745498	1.528279	1.129109
H275	H	1.186409	0.825740	0.569999
H276	H	1.686409	1.325740	1.069999
H277	H	1.134413	0.923520	0.589819
H278	H	1.634413	1.423520	1.089819
H279	H	0.779310	0.303344	0.267350
H280	H	1.279310	0.803344	0.767350
H281	H	1.109607	1.139185	0.403619
H282	H	1.609607	1.639185	0.903619
O283	O	1.185545	0.734013	0.479580
O284	O	1.685545	1.234013	0.979580
C285	C	1.299694	0.700406	0.504703
C286	C	1.799694	1.200406	1.004703
C287	C	1.258831	0.752270	0.463806
C288	C	1.758831	1.252270	0.963806
H289	H	1.358952	0.715133	0.491952
H290	H	1.858952	1.215133	0.991952
H291	H	1.287938	0.722613	0.564931
H292	H	1.787938	1.222613	1.064931
H293	H	1.282432	0.625016	0.487463
H294	H	1.782432	1.125016	0.987463
H295	H	1.276069	0.827670	0.480985
H296	H	1.776069	1.327670	0.980985
H297	H	1.270589	0.729988	0.403586
H298	H	1.770589	1.229988	0.903586
H299	H	0.467404	0.485751	0.427469
H300	H	0.967404	0.985751	0.927469
H301	H	1.115490	0.303450	0.604075
H302	H	1.615490	0.803450	1.104075
H303	H	1.111056	0.310558	0.738555
H304	H	1.611056	0.810558	1.238555
