data_functionalizedCrystal
_audit_creation_method	'MofGen! by Chris Wilmer'
_symmetry_space_group_name_H-M	'P1'
_symmetry_Int_Tables_number	1
_symmetry_cell_setting	triclinic
loop_
_symmetry_equiv_pos_as_xyz
  x,y,z
_cell_length_a	18.878441
_cell_length_b	14.560438
_cell_length_c	14.560438
_cell_angle_alpha	90.000977
_cell_angle_beta	59.992421
_cell_angle_gamma	60.003719
loop_
_atom_site_label
_atom_site_type_symbol
_atom_site_fract_x
_atom_site_fract_y
_atom_site_fract_z
Zr1	Zr	0.775415	0.884754	-0.120648
O2	O	0.923203	0.738108	-0.267325
O3	O	0.627627	0.929709	-0.075666
O4	O	0.775417	0.929709	-0.267296
O5	O	0.775410	0.738108	0.075446
O6	O	0.775419	1.080847	-0.267294
O7	O	0.775412	0.738108	-0.075695
O8	O	0.511049	1.080847	0.075498
O9	O	1.039780	0.738109	-0.267346
O10	O	0.688416	1.061675	-0.056501
O11	O	0.688413	0.948882	0.056292
O12	O	0.862417	0.948882	-0.169328
O13	O	0.862414	0.836090	-0.056536
Zr14	Zr	0.775415	1.125803	0.120408
Zr15	Zr	0.775418	1.125802	-0.120644
Zr16	Zr	0.775412	0.884755	0.120404
Zr17	Zr	0.961343	0.884755	-0.120681
Zr18	Zr	0.589487	1.125802	0.120441
O19	O	0.923203	1.080848	0.075425
O20	O	0.923207	1.080848	-0.267320
O21	O	0.923198	0.738109	0.075420
O22	O	0.627627	1.272449	0.267085
O23	O	0.627631	1.272448	-0.075660
O24	O	0.627622	0.929709	0.267079
O25	O	0.775419	1.272449	-0.075686
O26	O	0.775412	1.080848	0.267056
O27	O	0.775410	0.929710	0.267053
O28	O	0.775417	1.272449	0.075454
O29	O	1.039783	0.929710	-0.267343
O30	O	0.511047	1.080847	0.267102
O31	O	0.511049	1.272448	0.267105
O32	O	0.511052	1.272448	0.075501
O33	O	1.039778	0.738109	-0.075741
O34	O	1.039780	0.929710	-0.075738
O35	O	0.688413	1.061675	0.169088
O36	O	0.688416	1.174468	0.056295
O37	O	0.862417	1.061675	-0.056532
O38	O	0.862414	0.948882	0.056261
C39	C	0.542847	1.005278	-0.000079
C40	C	0.463916	1.005278	-0.000065
C41	C	0.491080	0.922011	-0.083354
C42	C	0.416930	0.922014	-0.083380
C43	C	0.315616	1.005281	-0.000113
C44	C	0.288452	1.088556	0.083180
C45	C	0.362602	1.088556	0.083201
C46	C	0.133905	1.088547	0.083133
C47	C	0.059749	1.088546	0.083114
C48	C	0.188233	0.922006	-0.083449
C49	C	0.262383	0.922006	-0.083428
C50	C	0.235213	1.005280	-0.000133
C51	C	0.775411	0.703764	-0.000125
C52	C	0.775409	0.601433	-0.000127
C53	C	0.684584	0.612231	0.058768
C54	C	0.684589	0.516076	0.058778
C55	C	0.866252	0.398328	-0.059010
C56	C	0.866246	0.494482	-0.059013
C57	C	0.593747	0.719182	0.117654
C58	C	0.502915	0.729984	0.176552
C59	C	0.502920	0.633830	0.176562
C60	C	0.593757	0.526872	0.117674
C61	C	1.007982	1.005279	-0.000161
C62	C	1.086914	1.005279	-0.000175
C63	C	0.775419	1.005278	-0.301640
C64	C	0.775420	1.005278	-0.403973
C65	C	0.775419	1.306793	-0.000115
C66	C	0.775420	1.409124	-0.000114
C67	C	0.866245	0.946397	-0.510944
C68	C	0.866240	0.946400	-0.607092
C69	C	0.684577	1.064167	-0.489286
C70	C	0.684583	1.064170	-0.393139
C71	C	0.957082	0.887505	-0.521777
C72	C	1.047915	0.828618	-0.628753
C73	C	1.047910	0.828622	-0.724901
C74	C	0.957073	0.887512	-0.714074
C75	C	0.775411	1.005279	0.301399
C76	C	0.775409	1.005279	0.403732
C77	C	0.542851	1.306792	-0.000074
C78	C	0.463921	1.409123	-0.000059
C79	C	0.542843	1.005278	0.301440
C80	C	0.463911	1.005278	0.403787
C81	C	0.542847	1.306793	0.301445
C82	C	0.463916	1.409124	0.403794
C83	C	1.007982	0.703764	-0.301685
C84	C	1.086914	0.601433	-0.404034
C85	C	1.007978	0.703765	-0.000166
C86	C	1.086908	0.601434	-0.000182
C87	C	1.007986	1.005279	-0.301681
C88	C	1.086919	1.005279	-0.404027
C89	C	0.426855	1.398302	-0.058940
C90	C	0.352702	1.494444	-0.058948
C91	C	0.315612	1.601406	-0.000068
C92	C	0.352686	1.612224	0.058816
C93	C	0.426842	1.516084	0.058816
C94	C	0.426843	1.064155	0.510739
C95	C	0.352688	1.064150	0.606914
C96	C	0.315597	1.005275	0.596134
C97	C	0.352671	0.946391	0.489171
C98	C	0.426830	0.946390	0.392999
C99	C	0.426851	1.516066	0.392981
C100	C	0.352697	1.612226	0.489139
C101	C	0.315604	1.601442	0.596109
C102	C	0.352677	1.494488	0.606919
C103	C	0.426835	1.398330	0.510762
C104	C	1.123988	0.494491	-0.393221
C105	C	1.198165	0.398331	-0.489379
C106	C	1.235261	0.409115	-0.596349
C107	C	1.198184	0.516069	-0.607160
C108	C	1.124013	0.612227	-0.511003
C109	C	1.123982	0.612255	0.058690
C110	C	1.198156	0.516113	0.058671
C111	C	1.235248	0.409152	-0.000213
C112	C	1.198171	0.398333	-0.059092
C113	C	1.124004	0.494473	-0.059079
C114	C	1.123987	1.064166	-0.393212
C115	C	1.198142	1.064188	-0.489369
C116	C	1.235234	1.005316	-0.596339
C117	C	1.198159	0.946427	-0.607153
C118	C	1.124000	0.946413	-0.510997
H119	H	0.111774	1.156359	0.150959
Br120	Br	0.593736	0.849681	0.117633
Br121	Br	0.379642	0.875134	0.256489
H122	H	0.322476	1.699325	0.106754
H123	H	0.322526	1.485613	-0.106898
H124	H	1.093827	0.898455	-0.519819
Br125	Br	0.477123	0.866482	0.247853
Br126	Br	0.477132	1.530790	0.138742
H127	H	-0.022744	1.156348	0.150918
H128	H	0.428960	0.642630	0.224528
Br129	Br	1.248467	0.253194	-0.474681
Br130	Br	0.214969	1.731872	-0.000080
Br131	Br	0.302322	0.866495	0.474561
Br132	Br	0.302386	1.144072	0.752063
Br133	Br	0.957094	0.887490	-0.391293
H134	H	1.295655	0.330808	-0.674637
H135	H	0.940204	0.485686	-0.106948
H136	H	1.228397	0.524837	-0.694266
Br137	Br	1.073702	0.757360	-0.525698
H138	H	0.457035	1.112098	0.519537
Br139	Br	0.214960	1.731954	0.726598
Br140	Br	1.248456	0.530822	0.138587
H141	H	1.121871	0.780679	-0.637559
Br142	Br	0.477125	1.253197	0.525457
H143	H	0.255212	1.005286	0.674454
Br144	Br	0.477179	1.530734	0.247819
Br145	Br	0.628576	0.808994	-0.196360
Br146	Br	1.073657	0.479823	-0.248060
Br147	Br	1.248520	0.253161	-0.138997
Br148	Br	0.302397	1.757363	0.474441
H149	H	0.610622	1.112111	-0.480481
Br150	Br	0.325734	1.201573	0.196233
Br151	Br	0.302327	1.479870	0.752102
Br152	Br	1.073662	0.757405	0.138610
H153	H	1.295640	0.330877	-0.000214
H154	H	1.093821	0.485647	-0.107016
Br155	Br	0.561319	1.144113	-0.247957
H156	H	0.957076	0.887522	-0.792370
Br157	Br	1.073665	1.144072	-0.248049
Br158	Br	0.477178	1.253152	-0.138863
H159	H	1.295620	1.005337	-0.674626
H160	H	1.228321	1.112140	-0.480542
Br161	Br	1.248517	0.866524	-0.752337
H162	H	0.439057	0.854210	-0.151202
H163	H	0.344876	0.854202	-0.151231
H164	H	0.210353	0.854205	-0.151274
H165	H	0.205955	1.156357	0.150974
Br166	Br	0.593761	0.396376	0.117701
H167	H	1.121870	0.780682	-0.812001
Br168	Br	0.989523	0.253177	-0.138925
