data_functionalizedCrystal
_audit_creation_method	'MofGen! by Chris Wilmer'
_symmetry_space_group_name_H-M	'P1'
_symmetry_Int_Tables_number	1
_symmetry_cell_setting	triclinic
loop_
_symmetry_equiv_pos_as_xyz
  x,y,z
_cell_length_a	10.654550
_cell_length_b	11.792241
_cell_length_c	9.730223
_cell_angle_alpha	89.998500
_cell_angle_beta	89.996251
_cell_angle_gamma	84.339159
loop_
_atom_site_label
_atom_site_type_symbol
_atom_site_fract_x
_atom_site_fract_y
_atom_site_fract_z
O1	O	1.667383	0.159415	-0.114404
O2	O	1.301862	0.174603	-0.114382
O3	O	1.493493	0.001859	-0.114383
O4	O	1.475752	0.332159	-0.114402
O5	O	1.493490	0.001863	0.114196
O6	O	1.301859	0.174608	0.114198
O7	O	1.667381	0.159419	0.114176
Zn8	Zn	1.484620	0.167014	0.150479
Zn9	Zn	1.484623	0.167008	-0.150685
O10	O	1.475750	0.332163	0.114178
C11	C	1.255066	0.173490	-0.000089
C12	C	1.115632	0.170154	-0.000080
C13	C	1.035858	0.271863	-0.000106
C14	C	0.904847	0.268721	-0.000129
C15	C	0.933394	0.062152	-0.000107
C16	C	1.064404	0.065295	-0.000074
C17	C	1.019376	0.391124	-0.000124
C18	C	0.888364	0.387982	-0.000148
C19	C	1.492377	-0.040432	-0.000094
C20	C	1.489042	-0.166454	-0.000095
C21	C	1.482908	-0.397180	-0.000118
C22	C	1.486316	-0.268787	-0.000105
C23	C	1.714177	0.160532	-0.000120
C24	C	1.853611	0.163869	-0.000137
C25	C	1.476865	0.374455	-0.000114
C26	C	1.480201	0.500476	-0.000122
N27	N	1.484627	0.167017	0.356016
N28	N	1.484625	0.166996	-0.356221
C29	C	1.569503	0.090552	0.427941
C30	C	1.569500	0.090539	0.571824
C31	C	1.399740	0.243465	0.571844
C32	C	1.399739	0.243472	0.427963
C33	C	1.667516	0.002265	0.427931
C34	C	1.667513	0.002251	0.571814
H35	H	0.891668	-0.023221	-0.000123
H36	H	1.758622	0.029909	0.383297
H37	H	1.054925	0.429097	-0.098814
C38	C	1.306384	0.327587	0.348843
H39	H	1.318535	0.316641	0.252849
H40	H	1.320535	0.403451	0.372434
H41	H	1.222481	0.314549	0.372422
H42	H	1.129352	-0.017527	-0.000033
H43	H	1.646320	-0.084976	0.388883
C44	C	0.826516	0.436673	0.133154
H45	H	0.889630	0.460538	0.192531
H46	H	0.784196	0.379571	0.177450
H47	H	0.767577	0.499968	0.111714
C48	C	1.058829	0.454146	0.129092
H49	H	0.986152	0.477921	0.182221
H50	H	1.099430	0.518908	0.102515
H51	H	1.115232	0.404478	0.182270
H52	H	0.846505	0.432916	-0.095818
H53	H	1.763969	0.021698	0.610857
H54	H	1.330626	0.305712	0.630439
C55	C	1.626610	-0.109112	0.632112
H56	H	1.627992	-0.105318	0.729623
H57	H	1.682970	-0.171603	0.601962
H58	H	1.543611	-0.119104	0.601970
