data_functionalizedCrystal
_audit_creation_method	'MofGen! by Chris Wilmer'
_symmetry_space_group_name_H-M	'P1'
_symmetry_Int_Tables_number	1
_symmetry_cell_setting	triclinic
loop_
_symmetry_equiv_pos_as_xyz
  x,y,z
_cell_length_a	16.992694
_cell_length_b	23.532407
_cell_length_c	15.455313
_cell_angle_alpha	92.643560
_cell_angle_beta	87.142206
_cell_angle_gamma	86.758451
loop_
_atom_site_label
_atom_site_type_symbol
_atom_site_fract_x
_atom_site_fract_y
_atom_site_fract_z
O1	O	1.042902	0.118384	-0.072037
O2	O	1.376235	0.451718	0.261297
O3	O	1.709568	0.785051	0.594630
O4	O	0.814628	0.117059	-0.072062
O5	O	1.147961	0.450392	0.261271
O6	O	1.481294	0.783726	0.594605
O7	O	0.935648	0.035132	-0.072033
O8	O	1.268981	0.368465	0.261301
O9	O	1.602314	0.701799	0.594634
O10	O	0.921882	0.200311	-0.072066
O11	O	1.255215	0.533645	0.261267
O12	O	1.588548	0.866978	0.594601
O13	O	0.928727	0.039796	0.072228
O14	O	1.262061	0.373130	0.405561
O15	O	1.595394	0.706463	0.738894
O16	O	0.807707	0.121723	0.072198
O17	O	1.141041	0.455057	0.405532
O18	O	1.474374	0.788390	0.738865
O19	O	1.035981	0.123049	0.072224
O20	O	1.369315	0.456382	0.405557
O21	O	1.702648	0.789715	0.738890
Cu22	Cu	0.921212	0.122812	0.085383
Cu23	Cu	1.254546	0.456145	0.418717
Cu24	Cu	1.587879	0.789479	0.752050
Cu25	Cu	0.929397	0.117296	-0.085222
Cu26	Cu	1.262730	0.450629	0.248112
Cu27	Cu	1.596063	0.783962	0.581445
O28	O	0.914962	0.204976	0.072194
O29	O	1.248295	0.538309	0.405528
O30	O	1.581628	0.871642	0.738861
C31	C	0.781968	0.117688	0.000065
C32	C	1.115302	0.451021	0.333398
C33	C	1.448635	0.784354	0.666732
C34	C	0.694964	0.112604	0.000056
C35	C	1.028298	0.445937	0.333389
C36	C	1.361631	0.779271	0.666723
C37	C	0.644342	0.161650	0.000047
C38	C	0.977676	0.494983	0.333380
C39	C	1.311009	0.828317	0.666714
C40	C	0.562592	0.156871	0.000060
C41	C	0.895926	0.490204	0.333393
C42	C	1.229259	0.823537	0.666727
C43	C	0.531466	0.103045	0.000076
C44	C	0.864800	0.436378	0.333409
C45	C	1.198133	0.769712	0.666742
C46	C	0.582095	0.053995	0.000088
C47	C	0.915428	0.387329	0.333421
C48	C	1.248761	0.720662	0.666754
C49	C	0.663843	0.058775	0.000081
C50	C	0.997176	0.392108	0.333414
C51	C	1.330509	0.725442	0.666748
C52	C	0.288022	0.083234	0.000103
C53	C	0.621355	0.416567	0.333436
C54	C	0.954688	0.749901	0.666770
C55	C	0.206267	0.078457	0.000107
C56	C	0.539600	0.411791	0.333440
C57	C	0.872934	0.745124	0.666774
C58	C	0.186770	0.181334	0.000081
C59	C	0.520104	0.514667	0.333414
C60	C	0.853437	0.848000	0.666748
C61	C	0.268521	0.186109	0.000069
C62	C	0.601854	0.519442	0.333402
C63	C	0.935188	0.852775	0.666736
C64	C	0.319142	0.137059	0.000085
C65	C	0.652475	0.470393	0.333419
C66	C	0.985809	0.803726	0.666752
N67	N	0.447905	0.098158	0.000086
N68	N	0.781238	0.431492	0.333420
N69	N	1.114572	0.764825	0.666753
N70	N	0.402701	0.141946	0.000081
N71	N	0.736035	0.475280	0.333414
N72	N	1.069368	0.808613	0.666748
C73	C	0.931837	0.016231	0.000100
C74	C	1.265170	0.349564	0.333433
C75	C	1.598503	0.682898	0.666766
C76	C	0.930782	-0.047038	0.000106
C77	C	1.264116	0.286295	0.333440
C78	C	1.597449	0.619628	0.666773
C79	C	0.995791	-0.442917	0.000066
C80	C	1.329124	-0.109583	0.333399
C81	C	1.662458	0.223750	0.666733
C82	C	0.994812	-0.502366	0.000059
C83	C	1.328145	-0.169032	0.333393
C84	C	1.661479	0.164301	0.666726
O85	O	1.055075	-0.536121	0.000034
O86	O	1.388408	-0.202788	0.333367
O87	O	1.721742	0.130546	0.666701
N88	N	0.922865	-0.528562	0.000052
N89	N	1.256199	-0.195229	0.333385
N90	N	1.589532	0.138104	0.666719
C91	C	0.851893	-0.495307	0.000042
C92	C	1.185227	-0.161974	0.333376
C93	C	1.518560	0.171360	0.666709
O94	O	0.790607	-0.523048	0.000035
O95	O	1.123941	-0.189715	0.333368
O96	O	1.457274	0.143619	0.666701
C97	C	0.852873	-0.435859	0.000043
C98	C	1.186207	-0.102526	0.333376
C99	C	1.519540	0.230807	0.666709
C100	C	0.924824	-0.409666	0.000059
C101	C	1.258158	-0.076332	0.333392
C102	C	1.591491	0.257001	0.666726
C103	C	1.067736	-0.416723	0.000081
C104	C	1.401069	-0.083390	0.333414
C105	C	1.734403	0.249944	0.666748
C106	C	1.068714	-0.357278	0.000089
C107	C	1.402048	-0.023945	0.333423
C108	C	1.735381	0.309389	0.666756
C109	C	0.997748	-0.324027	0.000083
C110	C	1.331081	0.009307	0.333416
C111	C	1.664414	0.342640	0.666749
C112	C	0.925803	-0.350221	0.000067
C113	C	1.259136	-0.016887	0.333401
C114	C	1.592469	0.316446	0.666734
C115	C	0.781902	-0.402605	0.000027
C116	C	1.115236	-0.069272	0.333360
C117	C	1.448569	0.264062	0.666694
C118	C	0.782889	-0.343154	0.000027
C119	C	1.116222	-0.009820	0.333360
C120	C	1.449555	0.323513	0.666694
C121	C	0.854839	-0.316960	0.000043
C122	C	1.188173	0.016373	0.333376
C123	C	1.521506	0.349707	0.666710
C124	C	0.855814	-0.257525	0.000069
C125	C	1.189148	0.075809	0.333402
C126	C	1.522481	0.409142	0.666735
N127	N	0.927761	-0.231328	0.000076
N128	N	1.261094	0.102005	0.333409
N129	N	1.594428	0.435339	0.666743
C130	C	0.998728	-0.264579	0.000083
C131	C	1.332061	0.068754	0.333416
C132	C	1.665394	0.402088	0.666750
C133	C	0.849841	-0.620151	0.000040
C134	C	1.183174	-0.286818	0.333373
C135	C	1.516507	0.046515	0.666706
C136	C	0.848860	-0.679598	0.000046
C137	C	1.182193	-0.346264	0.333379
C138	C	1.515526	-0.012931	0.666712
C139	C	0.991779	-0.686653	0.000061
C140	C	1.325112	-0.353319	0.333394
C141	C	1.658446	-0.019986	0.666727
C142	C	0.992759	-0.627205	0.000061
C143	C	1.326092	-0.293872	0.333395
C144	C	1.659426	0.039462	0.666728
C145	C	0.921788	-0.593955	0.000047
C146	C	1.255121	-0.260622	0.333380
C147	C	1.588454	0.072712	0.666714
C148	C	1.000777	-0.139740	0.000101
C149	C	1.334110	0.193593	0.333435
C150	C	1.667444	0.526927	0.666768
C151	C	1.001749	-0.080289	0.000113
C152	C	1.335082	0.253044	0.333446
C153	C	1.668416	0.586377	0.666780
C154	C	0.858831	-0.073240	0.000093
C155	C	1.192164	0.260094	0.333427
C156	C	1.525497	0.593427	0.666760
C157	C	0.857858	-0.132685	0.000086
C158	C	1.191191	0.200648	0.333419
C159	C	1.524525	0.533982	0.666753
C160	C	0.928838	-0.165934	0.000087
C161	C	1.262171	0.167399	0.333420
C162	C	1.595504	0.500732	0.666754
O163	O	0.795583	-0.223733	0.000090
O164	O	1.128916	0.109600	0.333424
O165	O	1.462250	0.442933	0.666757
O166	O	1.060004	-0.236831	0.000079
O167	O	1.393338	0.096503	0.333413
O168	O	1.726671	0.429836	0.666746
C169	C	1.068641	0.122420	0.000095
C170	C	1.401974	0.455754	0.333428
C171	C	1.735307	0.789087	0.666761
C172	C	1.155645	0.127504	0.000098
C173	C	1.488978	0.460837	0.333431
C174	C	1.822312	0.794170	0.666765
C175	C	0.918772	0.223877	0.000060
C176	C	1.252106	0.557210	0.333393
C177	C	1.585439	0.890543	0.666727
C178	C	0.919827	0.287146	0.000048
C179	C	1.253160	0.620479	0.333381
C180	C	1.586494	0.953812	0.666714
N181	N	0.915462	0.126692	0.205377
N182	N	1.248795	0.460025	0.538711
N183	N	1.582129	0.793358	0.872044
N184	N	0.935153	0.113412	-0.205216
N185	N	1.268487	0.446745	0.128118
N186	N	1.601820	0.780079	0.461451
C187	C	0.966893	0.091901	0.250784
C188	C	1.300226	0.425234	0.584117
C189	C	1.633560	0.758567	0.917451
C190	C	0.962551	0.094840	0.341591
C191	C	1.295885	0.428174	0.674924
C192	C	1.629218	0.761507	1.008257
C193	C	0.906782	0.132574	0.386989
C194	C	1.240115	0.465907	0.720323
C195	C	1.573448	0.799241	1.053656
C196	C	0.855345	0.167366	0.341576
C197	C	1.188679	0.500700	0.674910
C198	C	1.522012	0.834033	1.008243
C199	C	0.859684	0.164424	0.250771
C200	C	1.193017	0.497757	0.584105
C201	C	1.526350	0.831090	0.917438
C202	C	0.888055	0.145261	0.658566
C203	C	1.221389	0.478595	0.991900
C204	C	1.554722	0.811928	1.325233
C205	C	0.883722	0.148203	0.749378
C206	C	1.217056	0.481536	1.082711
C207	C	1.550389	0.814870	1.416044
C208	C	0.990928	0.075676	0.749386
C209	C	1.324261	0.409009	1.082719
C210	C	1.657595	0.742342	1.416053
C211	C	0.995265	0.072738	0.658579
C212	C	1.328598	0.406072	0.991912
C213	C	1.661931	0.739405	1.325246
C214	C	0.943825	0.107529	0.613174
C215	C	1.277159	0.440862	0.946507
C216	C	1.610492	0.774195	1.279841
N217	N	0.902344	0.135581	0.479808
N218	N	1.235678	0.468914	0.813142
N219	N	1.569011	0.802248	1.146475
N220	N	0.948260	0.104518	0.520356
N221	N	1.281593	0.437852	0.853690
N222	N	1.614926	0.771185	1.187023
H223	H	0.180928	0.034624	0.000119
H224	H	0.514262	0.367957	0.333453
H225	H	0.847595	0.701290	0.666786
H226	H	0.705059	0.018836	0.000088
H227	H	1.038393	0.352170	0.333421
H228	H	1.371726	0.685503	0.666755
H229	H	0.669678	0.205481	0.000033
H230	H	1.003012	0.538814	0.333367
H231	H	1.336345	0.872148	0.666700
H232	H	1.127304	-0.335957	0.000099
H233	H	1.460638	-0.002623	0.333432
H234	H	1.793971	0.330710	0.666766
H235	H	1.012310	0.061176	0.213826
H236	H	1.345643	0.394510	0.547160
H237	H	1.678976	0.727843	0.880493
H238	H	0.809932	0.198088	0.378545
H239	H	1.143266	0.531422	0.711878
H240	H	1.476599	0.864755	1.045212
H241	H	1.004430	0.066510	0.378560
H242	H	1.337763	0.399844	0.711894
H243	H	1.671097	0.733177	1.045227
H244	H	1.049564	-0.713737	0.000063
H245	H	1.382897	-0.380403	0.333396
H246	H	1.716231	-0.047070	0.666730
H247	H	0.329228	0.043294	0.000117
H248	H	0.662561	0.376627	0.333450
H249	H	0.995895	0.709961	0.666784
H250	H	0.145546	0.221267	0.000069
H251	H	0.478880	0.554600	0.333403
H252	H	0.812213	0.887933	0.666736
H253	H	0.790269	-0.700919	0.000047
H254	H	1.123603	-0.367585	0.333381
H255	H	1.456936	-0.034252	0.666714
H256	H	0.838305	0.178933	0.786337
H257	H	1.171639	0.512266	1.119670
H258	H	1.504972	0.845599	1.453004
H259	H	0.521379	0.196809	0.000051
H260	H	0.854712	0.530143	0.333385
H261	H	1.188045	0.863476	0.666718
H262	H	0.792043	-0.593082	0.000036
H263	H	1.125377	-0.259749	0.333369
H264	H	1.458710	0.073585	0.666702
H265	H	0.293858	0.229939	0.000046
H266	H	0.627191	0.563272	0.333379
H267	H	0.960524	0.896606	0.666713
H268	H	1.060342	-0.058966	0.000129
H269	H	1.393676	0.274368	0.333462
H270	H	1.727009	0.607701	0.666795
H271	H	0.846173	0.173590	0.621605
H272	H	1.179506	0.506923	0.954938
H273	H	1.512839	0.840257	1.288271
H274	H	0.556745	0.010169	0.000113
H275	H	0.890078	0.343503	0.333446
H276	H	1.223412	0.676836	0.666780
H277	H	1.058576	-0.166805	0.000099
H278	H	1.391909	0.166529	0.333432
H279	H	1.725243	0.499862	0.666765
H280	H	1.040677	0.042013	0.621617
H281	H	1.374010	0.375346	0.954951
H282	H	1.707343	0.708679	1.288284
H283	H	1.125529	-0.443790	0.000084
H284	H	1.458862	-0.110457	0.333417
H285	H	1.792196	0.222876	0.666750
H286	H	0.817802	0.192753	0.213802
H287	H	1.151136	0.526087	0.547135
H288	H	1.484469	0.859420	0.880469
H289	H	1.051348	-0.605882	0.000074
H290	H	1.384681	-0.272549	0.333407
H291	H	1.718014	0.060784	0.666740
H292	H	0.723313	-0.423922	0.000009
H293	H	1.056646	-0.090588	0.333342
H294	H	1.389979	0.242745	0.666675
H295	H	0.725094	-0.316084	0.000014
H296	H	1.058427	0.017249	0.333348
H297	H	1.391760	0.350583	0.666681
H298	H	0.801051	-0.046156	0.000091
H299	H	1.134385	0.287177	0.333424
H300	H	1.467718	0.620511	0.666757
H301	H	0.799269	-0.154012	0.000097
H302	H	1.132602	0.179321	0.333430
H303	H	1.465935	0.512655	0.666764
H304	H	1.032806	0.047350	0.786363
H305	H	1.366140	0.380684	1.119696
H306	H	1.699473	0.714017	1.453030
