data_functionalizedCrystal
_audit_creation_method	'MofGen! by Chris Wilmer'
_symmetry_space_group_name_H-M	'P1'
_symmetry_Int_Tables_number	1
_symmetry_cell_setting	triclinic
loop_
_symmetry_equiv_pos_as_xyz
  x,y,z
_cell_length_a	18.101398
_cell_length_b	29.839131
_cell_length_c	18.101389
_cell_angle_alpha	89.978713
_cell_angle_beta	89.975673
_cell_angle_gamma	90.036686
loop_
_atom_site_label
_atom_site_type_symbol
_atom_site_fract_x
_atom_site_fract_y
_atom_site_fract_z
Zn1	Zn	1.132068	-0.178957	-0.418824
Zn2	Zn	1.131941	-0.254074	-0.294976
Zn3	Zn	1.008227	-0.178952	-0.294985
Zn4	Zn	1.008155	-0.254055	-0.418765
O5	O	1.070098	-0.216510	-0.356887
O6	O	1.235684	-0.188932	-0.402416
O7	O	1.115507	-0.244115	-0.191344
O8	O	1.024737	-0.116086	-0.311441
O9	O	1.235591	-0.244119	-0.311426
O10	O	1.115723	-0.116089	-0.402425
O11	O	1.024615	-0.188924	-0.191351
O12	O	0.904584	-0.188905	-0.311384
O13	O	1.024615	-0.244087	-0.522406
O14	O	0.904532	-0.244082	-0.402324
O15	O	1.115654	-0.188913	-0.522449
O16	O	1.115438	-0.316938	-0.311369
O17	O	1.024493	-0.316924	-0.402315
C18	C	0.877687	-0.216491	-0.356849
C19	C	0.795373	-0.216494	-0.356850
C20	C	0.496282	-0.216522	-0.356912
C21	C	0.527616	-0.181633	-0.299974
C22	C	0.613234	-0.181726	-0.299731
C23	C	0.644665	-0.216508	-0.356881
C24	C	0.613533	-0.263830	-0.335553
C25	C	0.527888	-0.263636	-0.335157
C26	C	0.527900	-0.204501	-0.435313
C27	C	0.613552	-0.203447	-0.434885
C28	C	0.728524	-0.216503	-0.356865
C29	C	0.412423	-0.216531	-0.356926
C30	C	1.069964	-0.333232	-0.356851
C31	C	1.069975	-0.383167	-0.356860
C32	C	1.117539	-0.692805	-0.309601
C33	C	1.117631	-0.880478	-0.309629
O34	O	1.157965	-0.904738	-0.269420
N35	N	1.070251	-0.903952	-0.356943
C36	C	1.022849	-0.880504	-0.404257
O37	O	0.982558	-0.904777	-0.444506
C38	C	1.022762	-0.692832	-0.404231
C39	C	1.070139	-0.669361	-0.356909
C40	C	1.164913	-0.669333	-0.262283
C41	C	1.164887	-0.622418	-0.262273
C42	C	1.117487	-0.598974	-0.309582
C43	C	1.070113	-0.622445	-0.356899
C44	C	0.975365	-0.669386	-0.451548
C45	C	0.975348	-0.622465	-0.451539
C46	C	1.022725	-0.598993	-0.404217
C47	C	1.022687	-0.552086	-0.404198
N48	N	1.070066	-0.528612	-0.356884
C49	C	1.117466	-0.552056	-0.309576
C50	C	1.022898	-0.979035	-0.404266
C51	C	1.022918	-1.025953	-0.404272
C52	C	1.117700	-1.025923	-0.309645
C53	C	1.117675	-0.979004	-0.309636
C54	C	1.070277	-0.955561	-0.356952
C55	C	1.117407	-0.453530	-0.309559
C56	C	1.117374	-0.406610	-0.309551
C57	C	1.022595	-0.406645	-0.404181
C58	C	1.022625	-0.453560	-0.404186
C59	C	1.070037	-0.477002	-0.356872
O60	O	0.982379	-0.527797	-0.444393
O61	O	1.157763	-0.527776	-0.269344
C62	C	1.117565	-0.739720	-0.309610
C63	C	1.070192	-0.763192	-0.356928
C64	C	1.022792	-0.739748	-0.404236
C65	C	1.070212	-0.810109	-0.356934
C66	C	1.117612	-0.833553	-0.309625
C67	C	1.164991	-0.810079	-0.262311
C68	C	1.164965	-0.763164	-0.262302
C69	C	0.975413	-0.763222	-0.451550
C70	C	0.975442	-0.810137	-0.451556
C71	C	1.022842	-0.833581	-0.404247
C72	C	1.263260	-0.216528	-0.356927
C73	C	1.345574	-0.216536	-0.356943
C74	C	1.070141	-0.216498	-0.550049
C75	C	1.070159	-0.216493	-0.632364
C76	C	1.070252	-0.099331	-0.356941
C77	C	1.070318	-0.049397	-0.356963
C78	C	1.070202	-0.216409	-0.931455
C79	C	1.012726	-0.251013	-0.900102
C80	C	1.012881	-0.251173	-0.814484
C81	C	1.070180	-0.216451	-0.783072
C82	C	1.148202	-0.229306	-0.814177
C83	C	1.147881	-0.229533	-0.899822
C84	C	1.050335	-0.168874	-0.899883
C85	C	1.048599	-0.169148	-0.814232
C86	C	1.070172	-0.216474	-0.699213
C87	C	1.070215	-0.216387	-1.015314
C88	C	1.070098	-0.216488	-0.164477
C89	C	1.070223	-0.216367	-0.082163
H90	H	0.506064	-0.189489	-0.242218
H91	H	0.634285	-0.146635	-0.313101
H92	H	0.984001	-0.387549	-0.442696
H93	H	0.507158	-0.290511	-0.374819
C94	C	0.934328	-0.240253	-0.927907
C95	C	0.898816	-0.194666	-0.909870
C96	C	0.820417	-0.183904	-0.937681
C97	C	0.777529	-0.218729	-0.983529
C98	C	0.813040	-0.264318	-1.001568
C99	C	0.891440	-0.275080	-0.973757
H100	H	0.930565	-0.168885	-0.875928
H101	H	0.794129	-0.150156	-0.924328
H102	H	0.719492	-0.210762	-1.004117
H103	H	0.781291	-0.290100	-1.035510
H104	H	0.917727	-0.308829	-0.987111
C105	C	0.923205	-0.596679	-0.503587
C106	C	0.955241	-0.564389	-0.561758
C107	C	0.903097	-0.538604	-0.613804
C108	C	0.818915	-0.545109	-0.607678
C109	C	0.786874	-0.577400	-0.549504
C110	C	0.839019	-0.603185	-0.497459
H111	H	1.017561	-0.559573	-0.566295
H112	H	0.926816	-0.514701	-0.656868
H113	H	0.780315	-0.526021	-0.646205
H114	H	0.724555	-0.582216	-0.544967
H115	H	0.815300	-0.627088	-0.454394
C116	C	1.217086	-0.737350	-0.210250
C117	C	1.211098	-0.743835	-0.126057
C118	C	1.263223	-0.718025	-0.074003
C119	C	1.321336	-0.685730	-0.106141
C120	C	1.327326	-0.679243	-0.190338
C121	C	1.275201	-0.705053	-0.242392
H122	H	1.168077	-0.767743	-0.102263
H123	H	1.258788	-0.722827	-0.011675
H124	H	1.359922	-0.666624	-0.067607
H125	H	1.370347	-0.655335	-0.214132
H126	H	1.279636	-0.700251	-0.304720
H127	H	0.991182	-0.159454	-0.793901
H128	H	1.192175	-0.204894	-0.793833
H129	H	0.506339	-0.170595	-0.454703
H130	H	1.087408	-0.141998	-0.792850
C131	C	0.970751	-0.953253	-0.456316
C132	C	0.886570	-0.959758	-0.450183
C133	C	0.834421	-0.933979	-0.502232
C134	C	0.866452	-0.901695	-0.560414
C135	C	0.950637	-0.895188	-0.566549
C136	C	1.002786	-0.920967	-0.514500
H137	H	0.862855	-0.983658	-0.407111
H138	H	0.772101	-0.938796	-0.497690
H139	H	0.827848	-0.882611	-0.598943
H140	H	0.974352	-0.871287	-0.609621
H141	H	1.065106	-0.916150	-0.519042
H142	H	1.156295	-1.045019	-0.271125
C143	C	0.500842	-0.277407	-0.257729
C144	C	0.557174	-0.288503	-0.196688
C145	C	0.530133	-0.302272	-0.119257
C146	C	0.446760	-0.304945	-0.102869
C147	C	0.390423	-0.293849	-0.163912
C148	C	0.417464	-0.280079	-0.241342
H149	H	0.618896	-0.286524	-0.208818
H150	H	0.571838	-0.310487	-0.074069
H151	H	0.426743	-0.315138	-0.045550
H152	H	0.328701	-0.295827	-0.151781
H153	H	0.375759	-0.271865	-0.286530
C154	C	1.169795	-0.953188	-0.257586
C155	C	1.163805	-0.959667	-0.173393
C156	C	1.215929	-0.933853	-0.121342
C157	C	1.274042	-0.901560	-0.153485
C158	C	1.280034	-0.895079	-0.237683
C159	C	1.227911	-0.920893	-0.289733
H160	H	1.120784	-0.983574	-0.149595
H161	H	1.211493	-0.938651	-0.059013
H162	H	1.312627	-0.882451	-0.114954
H163	H	1.323056	-0.871172	-0.261481
H164	H	1.232347	-0.916095	-0.352062
H165	H	1.025997	-0.286408	-0.793999
C166	C	1.030262	-0.298323	-0.929174
C167	C	1.096487	-0.305642	-0.981208
C168	C	1.114025	-0.352952	-1.010281
C169	C	1.065339	-0.392944	-0.987319
C170	C	0.999111	-0.385626	-0.935282
C171	C	0.981572	-0.338316	-0.906210
H172	H	1.132531	-0.276037	-0.998208
H173	H	1.163053	-0.358369	-1.048802
H174	H	1.078322	-0.427966	-1.008840
H175	H	0.963066	-0.415232	-0.918282
H176	H	0.932545	-0.332900	-0.867688
C177	C	0.934722	-0.240297	-0.786074
C178	C	0.921953	-0.198867	-0.737014
C179	C	0.843789	-0.187989	-0.708613
C180	C	0.778396	-0.218541	-0.729271
C181	C	0.791164	-0.259974	-0.778333
C182	C	0.869327	-0.270852	-0.806735
H183	H	0.970363	-0.176247	-0.721719
H184	H	0.834338	-0.157317	-0.672293
H185	H	0.720535	-0.210488	-0.708247
H186	H	0.742754	-0.282594	-0.793628
H187	H	0.878778	-0.301524	-0.843054
C188	C	1.170651	-0.276475	-0.926809
C189	C	1.124339	-0.317726	-0.905027
C190	C	1.147117	-0.364669	-0.932005
C191	C	1.216208	-0.370360	-0.980765
C192	C	1.262525	-0.329108	-1.002549
C193	C	1.239746	-0.282165	-0.975572
H194	H	1.073190	-0.313514	-0.868930
H195	H	1.112830	-0.395207	-0.915879
H196	H	1.233070	-0.405110	-1.000735
H197	H	1.313673	-0.333320	-1.038646
H198	H	1.274033	-0.251627	-0.991698
H199	H	0.633685	-0.189673	-0.241637
C200	C	1.106881	-0.134042	-0.927278
C201	C	1.153693	-0.107540	-0.871277
C202	C	1.210241	-0.072712	-0.898677
C203	C	1.219978	-0.064385	-0.982078
C204	C	1.173165	-0.090887	-1.038085
C205	C	1.116617	-0.125715	-1.010685
H206	H	1.146486	-0.113704	-0.809533
H207	H	1.244894	-0.053094	-0.857216
H208	H	1.261838	-0.038603	-1.002361
H209	H	1.180372	-0.084724	-1.099829
H210	H	1.081964	-0.145334	-1.052146
C211	C	1.171354	-0.275752	-0.785215
C212	C	1.119607	-0.302054	-0.733383
C213	C	1.142755	-0.348502	-0.704424
C214	C	1.217649	-0.368647	-0.727296
C215	C	1.269400	-0.342344	-0.779131
C216	C	1.246253	-0.295897	-0.808090
H217	H	1.064162	-0.287142	-0.716449
H218	H	1.104445	-0.367972	-0.666052
H219	H	1.234784	-0.403030	-0.705858
H220	H	1.324845	-0.357257	-0.796065
H221	H	1.284563	-0.276426	-0.846462
H222	H	0.984049	-0.472671	-0.442722
H223	H	0.507056	-0.146434	-0.313196
C224	C	1.207700	-0.196970	-0.927850
C225	C	1.219610	-0.190537	-1.011424
C226	C	1.279431	-0.157977	-1.039449
C227	C	1.327341	-0.131851	-0.983899
C228	C	1.315432	-0.138284	-0.900319
C229	C	1.255611	-0.170844	-0.872295
H230	H	1.184143	-0.209877	-1.052550
H231	H	1.288247	-0.153215	-1.101320
H232	H	1.371624	-0.107749	-1.004644
H233	H	1.350899	-0.118943	-0.859193
H234	H	1.246795	-0.175605	-0.810424
C235	C	0.641034	-0.299893	-0.389816
C236	C	0.692202	-0.286759	-0.454281
C237	C	0.719704	-0.322820	-0.508546
C238	C	0.696038	-0.372016	-0.498345
C239	C	0.644867	-0.385152	-0.433878
C240	C	0.617365	-0.349090	-0.379613
H241	H	0.709723	-0.250339	-0.461835
H242	H	0.757584	-0.313096	-0.556269
H243	H	0.716397	-0.398711	-0.538515
H244	H	0.627346	-0.421571	-0.426324
H245	H	0.579485	-0.358815	-0.331890
C246	C	0.970797	-1.051768	-0.456321
C247	C	0.918664	-1.025974	-0.508360
C248	C	0.866545	-1.051788	-0.560415
C249	C	0.866558	-1.103395	-0.560432
C250	C	0.918693	-1.129193	-0.508391
C251	C	0.970812	-1.103379	-0.456336
H252	H	0.918652	-0.987768	-0.508349
H253	H	0.827951	-1.032691	-0.598939
H254	H	0.827976	-1.122504	-0.598966
H255	H	0.918705	-1.167398	-0.508402
H256	H	1.009406	-1.122476	-0.417812
C257	C	0.923251	-0.695194	-0.503610
C258	C	0.839064	-0.688785	-0.497492
C259	C	0.786947	-0.714591	-0.549560
C260	C	0.819018	-0.746807	-0.607746
C261	C	0.903210	-0.753218	-0.613867
C262	C	0.955326	-0.727411	-0.561799
H263	H	0.815319	-0.664935	-0.454417
H264	H	0.724623	-0.709845	-0.545029
H265	H	0.780439	-0.765910	-0.646290
H266	H	0.926955	-0.777067	-0.656942
H267	H	1.017651	-0.732157	-0.566331
H268	H	0.994431	-0.157163	-0.921470
H269	H	0.634944	-0.274203	-0.278857
H270	H	0.936856	-0.829244	-0.490090
H271	H	0.633906	-0.168623	-0.450967
H272	H	0.634950	-0.227008	-0.479581
C273	C	1.217005	-0.596601	-0.210223
C274	C	1.275115	-0.564305	-0.242364
C275	C	1.327238	-0.538491	-0.190312
C276	C	1.321250	-0.544973	-0.106119
C277	C	1.263138	-0.577271	-0.073973
C278	C	1.211015	-0.603085	-0.126025
H279	H	1.279550	-0.559505	-0.304692
H280	H	1.370256	-0.514582	-0.214109
H281	H	1.359834	-0.525864	-0.067587
H282	H	1.258703	-0.582071	-0.011644
H283	H	1.167997	-0.626994	-0.102228
C284	C	0.500531	-0.238831	-0.492628
C285	C	0.449746	-0.277581	-0.468459
C286	C	0.422375	-0.311913	-0.525766
C287	C	0.445788	-0.307495	-0.607242
C288	C	0.496575	-0.268742	-0.631415
C289	C	0.523947	-0.234410	-0.574108
H290	H	0.432411	-0.280854	-0.408142
H291	H	0.384778	-0.340600	-0.507871
H292	H	0.425526	-0.332909	-0.649664
H293	H	0.513910	-0.265470	-0.691732
H294	H	0.561543	-0.205723	-0.592003
H295	H	1.203584	-0.829176	-0.223789
H296	H	1.155954	-0.387501	-0.271013
H297	H	1.156016	-0.472611	-0.271034
H298	H	1.203515	-0.688416	-0.223758
H299	H	0.936815	-0.744137	-0.490076
