data_functionalizedCrystal
_audit_creation_method	'MofGen! by Chris Wilmer'
_symmetry_space_group_name_H-M	'P1'
_symmetry_Int_Tables_number	1
_symmetry_cell_setting	triclinic
loop_
_symmetry_equiv_pos_as_xyz
  x,y,z
_cell_length_a	14.044220
_cell_length_b	14.044190
_cell_length_c	9.730223
_cell_angle_alpha	89.993542
_cell_angle_beta	90.004504
_cell_angle_gamma	93.190328
loop_
_atom_site_label
_atom_site_type_symbol
_atom_site_fract_x
_atom_site_fract_y
_atom_site_fract_z
O1	O	1.277168	0.230164	-0.114172
O2	O	1.777168	0.730164	0.385828
O3	O	1.000496	0.221858	-0.114205
O4	O	1.500496	0.721858	0.385795
O5	O	1.134676	0.087675	-0.114162
O6	O	1.634676	0.587675	0.385838
O7	O	1.142988	0.364347	-0.114215
O8	O	1.642988	0.864347	0.385785
O9	O	1.134674	0.087678	0.114418
O10	O	1.634674	0.587678	0.614418
O11	O	1.000495	0.221862	0.114375
O12	O	1.500495	0.721862	0.614375
O13	O	1.277167	0.230167	0.114408
O14	O	1.777167	0.730167	0.614408
Zn15	Zn	1.138831	0.226015	0.150683
Zn16	Zn	1.638831	0.726015	0.650683
Zn17	Zn	1.138832	0.226010	-0.150480
Zn18	Zn	1.638832	0.726010	0.349520
O19	O	1.142987	0.364351	0.114365
O20	O	1.642987	0.864351	0.614365
C21	C	0.964874	0.218224	0.000081
C22	C	1.464874	0.718224	0.500081
C23	C	0.858731	0.207380	0.000069
C24	C	1.358731	0.707380	0.500069
C25	C	1.131039	0.052054	0.000132
C26	C	1.631039	0.552054	0.500132
C27	C	1.120191	-0.054089	0.000142
C28	C	1.620191	0.445911	0.500142
C29	C	1.177292	-0.299547	0.000095
C30	C	1.677292	0.200453	0.500095
C31	C	1.100375	-0.248422	0.000096
C32	C	1.600375	0.251578	0.500096
C33	C	1.111404	-0.140285	0.000122
C34	C	1.611404	0.359715	0.500122
C35	C	1.166265	-0.407694	0.000069
C36	C	1.666265	0.092306	0.500069
C37	C	0.664392	0.187553	0.000100
C38	C	1.164392	0.687553	0.500100
C39	C	0.613264	0.264468	0.000091
C40	C	1.113264	0.764468	0.500091
C41	C	0.505128	0.253436	0.000108
C42	C	1.005128	0.753436	0.500108
C43	C	0.772539	0.198583	0.000083
C44	C	1.272539	0.698583	0.500083
C45	C	1.312789	0.233801	0.000119
C46	C	1.812789	0.733801	0.500119
C47	C	1.418932	0.244646	0.000122
C48	C	1.918932	0.744646	0.500122
C49	C	1.146624	0.399971	0.000068
C50	C	1.646624	0.899971	0.500068
C51	C	1.157472	0.506114	0.000049
C52	C	1.657472	1.006114	0.500049
N53	N	1.138836	0.226018	0.356220
N54	N	1.638836	0.726018	0.856220
N55	N	1.138834	0.226000	-0.356017
N56	N	1.638834	0.726000	0.143983
C57	C	1.198269	0.166625	0.428165
C58	C	1.698269	0.666625	0.928165
C59	C	1.198266	0.166613	0.572048
C60	C	1.698266	0.666613	1.072048
C61	C	1.079394	0.285396	0.572028
C62	C	1.579394	0.785396	1.072028
C63	C	1.079393	0.285402	0.428147
C64	C	1.579393	0.785402	0.928147
C65	C	1.257712	0.107241	0.356237
C66	C	1.757712	0.607241	0.856237
C67	C	1.317151	0.047844	0.428183
C68	C	1.817151	0.547844	0.928183
C69	C	1.317148	0.047832	0.572066
C70	C	1.817148	0.547832	1.072066
C71	C	1.257705	0.107218	0.644003
C72	C	1.757705	0.607218	1.144003
H73	H	1.251418	-0.262106	0.000119
H74	H	1.751418	0.237894	0.500119
O75	O	0.614802	0.089360	0.000116
O76	O	1.114802	0.589360	0.500116
H77	H	0.635810	0.050034	0.093289
H78	H	1.135810	0.550034	0.593289
O79	O	0.662847	0.362671	0.000045
O80	O	1.162847	0.862671	0.500045
H81	H	0.741233	0.356041	0.000020
H82	H	1.241233	0.856041	0.500020
H83	H	1.257723	0.107247	0.239081
H84	H	1.757723	0.607247	0.739081
H85	H	1.365541	-0.000512	0.369604
H86	H	1.865541	0.499488	0.869604
O87	O	1.381258	-0.016220	0.649672
O88	O	1.881258	0.483780	1.149672
H89	H	1.422598	-0.057501	0.575479
H90	H	1.922598	0.442499	1.075479
H91	H	1.257701	0.107196	0.761163
H92	H	1.757701	0.607196	1.261163
O93	O	1.015295	0.349456	0.649608
O94	O	1.515295	0.849456	1.149608
H95	H	1.025289	0.339482	0.761744
H96	H	1.525289	0.839482	1.261744
H97	H	1.030996	0.333765	0.369569
H98	H	1.530996	0.833765	0.869569
H99	H	1.026243	-0.285865	0.000079
H100	H	1.526243	0.214135	0.500079
