data_functionalizedCrystal
_audit_creation_method	'MofGen! by Chris Wilmer'
_symmetry_space_group_name_H-M	'P1'
_symmetry_Int_Tables_number	1
_symmetry_cell_setting	triclinic
loop_
_symmetry_equiv_pos_as_xyz
  x,y,z
_cell_length_a	19.805405
_cell_length_b	10.685972
_cell_length_c	19.805399
_cell_angle_alpha	94.391621
_cell_angle_beta	89.969291
_cell_angle_gamma	85.609248
loop_
_atom_site_label
_atom_site_type_symbol
_atom_site_fract_x
_atom_site_fract_y
_atom_site_fract_z
Zn1	Zn	-0.190219	-1.929096	-0.462150
Zn2	Zn	0.309781	-1.429096	0.037850
Zn3	Zn	-0.303416	-1.928948	-0.348952
Zn4	Zn	0.196584	-1.428948	0.151048
Zn5	Zn	-0.198909	-1.718087	-0.340285
Zn6	Zn	0.301091	-1.218087	0.159715
Zn7	Zn	-0.312043	-1.718009	-0.453412
Zn8	Zn	0.187957	-1.218009	0.046588
O9	O	-0.251147	-1.823535	-0.401200
O10	O	0.248853	-1.323535	0.098800
O11	O	-0.197988	-2.105663	-0.454417
O12	O	0.302012	-1.605663	0.045583
O13	O	-0.289580	-1.900947	-0.253084
O14	O	0.210420	-1.400947	0.246916
O15	O	-0.103036	-1.746173	-0.356480
O16	O	0.396964	-1.246173	0.143520
O17	O	-0.281153	-2.105554	-0.371251
O18	O	0.218847	-1.605554	0.128749
O19	O	-0.096651	-1.901201	-0.446014
O20	O	0.403349	-1.401201	0.053986
O21	O	-0.212799	-1.746028	-0.246717
O22	O	0.287201	-1.246028	0.253283
O23	O	-0.221164	-1.541490	-0.348008
O24	O	0.278836	-1.041490	0.151992
O25	O	-0.295857	-1.746040	-0.549289
O26	O	0.204143	-1.246040	-0.049289
O27	O	-0.304283	-1.541433	-0.431122
O28	O	0.195717	-1.041433	0.068878
O29	O	-0.206353	-1.901125	-0.555708
O30	O	0.293647	-1.401125	-0.055708
O31	O	-0.399281	-1.900871	-0.362779
O32	O	0.100719	-1.400871	0.137221
O33	O	-0.405619	-1.745896	-0.439526
O34	O	0.094381	-1.245896	0.060474
C35	C	-0.264603	-1.495674	-0.387677
C36	C	0.235397	-0.995674	0.112323
C37	C	-0.270376	-1.355414	-0.381908
C38	C	0.229624	-0.855414	0.118092
C39	C	-0.427009	-1.823393	-0.401161
C40	C	0.072991	-1.323393	0.098839
C41	C	-0.502239	-1.823448	-0.401172
C42	C	-0.002239	-1.323448	0.098828
C43	C	-0.534257	-1.904222	-0.361259
C44	C	-0.034257	-1.404222	0.138741
C45	C	-0.604943	-1.904275	-0.361276
C46	C	-0.104943	-1.404275	0.138724
C47	C	-0.643610	-1.823548	-0.401203
C48	C	-0.143610	-1.323548	0.098797
C49	C	-0.611587	-1.742770	-0.441121
C50	C	-0.111587	-1.242770	0.058879
C51	C	-0.540902	-1.742724	-0.441107
C52	C	-0.040902	-1.242724	0.058893
C53	C	-0.896653	-1.742956	-0.441179
C54	C	-0.396653	-1.242956	0.058821
C55	C	-0.967343	-1.743006	-0.441188
C56	C	-0.467343	-1.243006	0.058812
C57	C	-0.960694	-1.904508	-0.361347
C58	C	-0.460694	-1.404508	0.138653
C59	C	-0.890009	-1.904462	-0.361334
C60	C	-0.390009	-1.404462	0.138666
C61	C	-0.857992	-1.823689	-0.401254
C62	C	-0.357992	-1.323689	0.098746
C63	C	-0.781345	-1.823634	-0.401236
C64	C	-0.281345	-1.323634	0.098764
C65	C	-0.720255	-1.823596	-0.401218
C66	C	-0.220255	-1.323596	0.098782
C67	C	-0.074597	-1.823712	-0.401255
C68	C	0.425403	-1.323712	0.098745
C69	C	0.000638	-1.823787	-0.401278
C70	C	0.500638	-1.323787	0.098722
C71	C	-0.251098	-1.823590	-0.577745
C72	C	0.248902	-1.323590	-0.077745
C73	C	-0.251077	-1.823614	-0.652978
C74	C	0.248923	-1.323614	-0.152978
C75	C	-0.237634	-1.152676	-0.414773
C76	C	0.262366	-0.652676	0.085227
C77	C	-0.231864	-1.292936	-0.420548
C78	C	0.268136	-0.792936	0.079452
C79	C	-0.211092	-1.742971	-0.685007
C80	C	0.288908	-1.242971	-0.185007
C81	C	-0.211078	-1.742988	-0.755696
C82	C	0.288922	-1.242988	-0.255696
C83	C	-0.251046	-1.823656	-0.794355
C84	C	0.248954	-1.323656	-0.294355
C85	C	-0.291035	-1.904303	-0.762321
C86	C	0.208965	-1.404303	-0.262321
C87	C	-0.291052	-1.904278	-0.691633
C88	C	0.208948	-1.404278	-0.191633
C89	C	-0.290968	-1.904403	-1.047399
C90	C	0.209032	-1.404403	-0.547399
C91	C	-0.290946	-1.904424	-1.118092
C92	C	0.209054	-1.404424	-0.618092
C93	C	-0.210993	-1.743113	-1.111462
C94	C	0.289007	-1.243113	-0.611462
C95	C	-0.211011	-1.743088	-1.040774
C96	C	0.288989	-1.243088	-0.540774
C97	C	-0.251002	-1.823730	-1.008746
C98	C	0.248998	-1.323730	-0.508746
C99	C	-0.251018	-1.823708	-0.932096
C100	C	0.248982	-1.323708	-0.432096
C101	C	-0.251027	-1.823685	-0.871004
C102	C	0.248973	-1.323685	-0.371004
C103	C	-0.251144	-1.823553	-0.225344
C104	C	0.248856	-1.323553	0.274656
C105	C	-0.250964	-1.823773	-0.150122
C106	C	0.249036	-1.323773	0.349878
H107	H	-0.502778	-1.969954	-0.328742
H108	H	-0.002778	-1.469954	0.171258
Cl109	Cl	-0.341285	-2.005706	-0.810921
Cl110	Cl	0.158715	-1.505706	-0.310921
H111	H	-0.194473	-1.346749	-0.458043
H112	H	0.305527	-0.846749	0.041957
H113	H	-0.986770	-1.970282	-0.328845
H114	H	-0.486770	-1.470282	0.171155
H115	H	-0.998824	-1.677269	-0.473707
H116	H	-0.498824	-1.177269	0.026293
Cl117	Cl	-0.160843	-1.641545	-0.795956
Cl118	Cl	0.339157	-1.141545	-0.295956
H119	H	-0.514834	-1.676951	-0.473610
H120	H	-0.014834	-1.176951	0.026390
Cl121	Cl	-0.645191	-2.005829	-0.311099
Cl122	Cl	-0.145191	-1.505829	0.188901
H123	H	-0.323495	-1.970116	-1.149567
H124	H	0.176505	-1.470116	-0.649567
H125	H	-0.870590	-1.677186	-0.473682
H126	H	-0.370590	-1.177186	0.026318
H127	H	-0.178462	-1.677405	-1.009301
H128	H	0.321538	-1.177405	-0.509301
Cl129	Cl	-0.160720	-1.641728	-1.151730
Cl130	Cl	0.339280	-1.141728	-0.651730
Cl131	Cl	-0.328103	-1.272330	-0.324006
Cl132	Cl	0.171897	-0.772330	0.175994
Cl133	Cl	-0.160840	-1.641560	-0.636414
Cl134	Cl	0.339160	-1.141560	-0.136414
Cl135	Cl	-0.341324	-2.005657	-0.651368
Cl136	Cl	0.158676	-1.505657	-0.151368
H137	H	-0.643075	-1.677045	-0.473634
H138	H	-0.143075	-1.177045	0.026366
H139	H	-0.858528	-1.970193	-0.328818
H140	H	-0.358528	-1.470193	0.171182
Cl141	Cl	-0.341238	-2.005790	-1.007145
Cl142	Cl	0.158762	-1.505790	-0.507145
