data_functionalizedCrystal
_audit_creation_method	'MofGen! by Chris Wilmer'
_symmetry_space_group_name_H-M	'P1'
_symmetry_Int_Tables_number	1
_symmetry_cell_setting	triclinic
loop_
_symmetry_equiv_pos_as_xyz
  x,y,z
_cell_length_a	12.837943
_cell_length_b	12.837942
_cell_length_c	15.186229
_cell_angle_alpha	90.011056
_cell_angle_beta	90.006023
_cell_angle_gamma	94.828940
loop_
_atom_site_label
_atom_site_type_symbol
_atom_site_fract_x
_atom_site_fract_y
_atom_site_fract_z
O1	O	1.402341	0.272151	0.073212
O2	O	1.902341	0.772151	0.573212
O3	O	1.099207	0.258708	0.073217
O4	O	1.599207	0.758708	0.573217
O5	O	1.244052	0.113863	0.073209
O6	O	1.744052	0.613863	0.573209
O7	O	1.257496	0.416996	0.073220
O8	O	1.757496	0.916996	0.573220
O9	O	1.244028	0.113835	-0.073248
O10	O	1.744028	0.613835	0.426752
O11	O	1.099183	0.258680	-0.073240
O12	O	1.599183	0.758680	0.426760
O13	O	1.402316	0.272123	-0.073245
O14	O	1.902316	0.772123	0.426755
Zn15	Zn	1.250746	0.265397	-0.096496
Zn16	Zn	1.750746	0.765397	0.403504
Zn17	Zn	1.250778	0.265434	0.096468
Zn18	Zn	1.750778	0.765434	0.596468
O19	O	1.257471	0.416968	-0.073237
O20	O	1.757471	0.916968	0.426763
C21	C	1.060126	0.254153	-0.000011
C22	C	1.560126	0.754153	0.499989
C23	C	0.943711	0.240608	-0.000009
C24	C	1.443711	0.740608	0.499991
C25	C	0.718837	0.403437	-0.000016
C26	C	1.218837	0.903437	0.499984
C27	C	0.609454	0.390716	-0.000015
C28	C	1.109454	0.890716	0.499985
C29	C	0.615562	0.202445	-0.000012
C30	C	1.115562	0.702445	0.499988
C31	C	0.724944	0.215166	-0.000013
C32	C	1.224944	0.715166	0.499987
C33	C	0.776578	0.315666	-0.000014
C34	C	1.276578	0.815666	0.499986
C35	C	0.885962	0.328386	-0.000008
C36	C	1.385962	0.828386	0.499992
C37	C	0.892067	0.140116	-0.000012
C38	C	1.392067	0.640116	0.499988
C39	C	0.782685	0.127395	-0.000011
C40	C	1.282685	0.627395	0.499989
C41	C	1.239499	0.074780	-0.000019
C42	C	1.739499	0.574780	0.499981
C43	C	1.225954	-0.041635	-0.000017
C44	C	1.725954	0.458365	0.499983
C45	C	1.388784	-0.266510	-0.000001
C46	C	1.888784	0.233490	0.499999
C47	C	1.376062	-0.375892	0.000000
C48	C	1.876062	0.124108	0.500000
C49	C	1.187791	-0.369785	-0.000006
C50	C	1.687791	0.130215	0.499994
C51	C	1.200513	-0.260402	-0.000007
C52	C	1.700513	0.239598	0.499993
C53	C	1.301012	-0.208769	-0.000007
C54	C	1.801012	0.291231	0.499993
C55	C	1.313732	-0.099384	-0.000015
C56	C	1.813732	0.400616	0.499985
C57	C	1.125462	-0.093279	-0.000014
C58	C	1.625462	0.406721	0.499986
C59	C	1.112741	-0.202661	-0.000012
C60	C	1.612741	0.297339	0.499988
C61	C	1.441398	0.276679	-0.000015
C62	C	1.941398	0.776679	0.499985
C63	C	1.557813	0.290223	-0.000011
C64	C	2.057813	0.790223	0.499989
C65	C	1.262025	0.456051	-0.000007
C66	C	1.762025	0.956051	0.499993
C67	C	1.275569	0.572467	-0.000003
C68	C	1.775569	1.072467	0.499997
N69	N	1.250731	0.265372	-0.228189
N70	N	1.750731	0.765372	0.271811
C71	C	1.181008	0.195624	-0.546142
C72	C	1.681008	0.695624	-0.046142
C73	C	1.180998	0.195608	-0.453952
C74	C	1.680998	0.695608	0.046048
C75	C	1.320530	0.335203	-0.453893
C76	C	1.820530	0.835203	0.046107
C77	C	1.320545	0.335213	-0.546080
C78	C	1.820545	0.835213	-0.046080
C79	C	1.250778	0.265425	-0.592203
C80	C	1.750778	0.765425	-0.092203
C81	C	1.250753	0.265399	-0.407825
C82	C	1.750753	0.765399	0.092175
C83	C	1.250742	0.265382	-0.307869
C84	C	1.750742	0.765382	0.192131
C85	C	1.250790	0.265440	-0.692165
C86	C	1.750790	0.765440	-0.192165
N87	N	1.250800	0.265452	0.228161
N88	N	1.750800	0.765452	0.728161
H89	H	0.562446	0.462189	-0.000019
H90	H	1.062446	0.962189	0.499981
H91	H	0.740630	0.045571	-0.000020
H92	H	1.240630	0.545571	0.499980
H93	H	1.447536	-0.422901	0.000007
H94	H	1.947536	0.077099	0.500007
C95	C	0.955584	0.043563	-0.000008
C96	C	1.455584	0.543563	0.499992
H97	H	1.028124	0.065530	-0.000012
H98	H	1.528124	0.565530	0.499988
H99	H	0.938916	0.002815	0.051065
H100	H	1.438916	0.502815	0.551065
H101	H	0.938909	0.002787	-0.051087
H102	H	1.438909	0.502787	0.448913
C103	C	0.775637	0.513978	-0.000009
C104	C	1.275637	1.013978	0.499991
H105	H	0.725581	0.564432	-0.000011
H106	H	1.225581	1.064432	0.499989
H107	H	0.818189	0.522861	0.051064
H108	H	1.318189	1.022861	0.551064
H109	H	0.818171	0.522845	-0.051088
H110	H	1.318171	1.022845	0.448912
C111	C	1.424275	-0.042588	-0.000011
C112	C	1.924275	0.457412	0.499989
H113	H	1.474726	-0.092647	0.000002
H114	H	1.974726	0.407353	0.500002
H115	H	1.433152	-0.000057	-0.051083
H116	H	1.933152	0.499943	0.448917
H117	H	1.433153	-0.000033	0.051069
H118	H	1.933153	0.499967	0.551069
C119	C	1.499325	-0.209709	-0.000007
C120	C	1.999325	0.290291	0.499993
H121	H	1.549778	-0.259765	-0.000002
H122	H	2.049778	0.240235	0.499998
H123	H	1.508189	-0.167179	-0.051081
H124	H	2.008189	0.332821	0.448919
H125	H	1.508210	-0.167154	0.051071
H126	H	2.008210	0.332846	0.551071
H127	H	1.377366	0.392055	-0.583584
H128	H	1.877366	0.892055	-0.083584
H129	H	1.053992	-0.046254	-0.000025
H130	H	1.553992	0.453746	0.499975
H131	H	0.573502	0.120623	-0.000084
H132	H	1.073502	0.620623	0.499916
C133	C	1.077254	-0.426594	-0.000006
C134	C	1.577254	0.073406	0.499994
H135	H	1.082254	-0.500007	-0.000008
H136	H	1.582254	-0.000007	0.499992
H137	H	1.040662	-0.407400	0.051063
H138	H	1.540662	0.092600	0.551063
H139	H	1.040658	-0.407433	-0.051089
H140	H	1.540658	0.092567	0.448911
C141	C	1.002201	-0.259464	-0.000019
C142	C	1.502201	0.240536	0.499981
H143	H	1.007194	-0.332879	-0.000023
H144	H	1.507194	0.167121	0.499977
H145	H	0.965606	-0.240269	0.051049
H146	H	1.465606	0.259731	0.551049
H147	H	0.965611	-0.240297	-0.051104
H148	H	1.465611	0.259703	0.448896
C149	C	1.104268	0.118860	-0.596874
C150	C	1.604268	0.618860	-0.096874
H151	H	1.062719	0.077284	-0.556234
H152	H	1.562719	0.577284	-0.056234
H153	H	1.060335	0.156983	-0.632833
H154	H	1.560335	0.656983	-0.132833
H155	H	1.142413	0.074939	-0.632841
H156	H	1.642413	0.574939	-0.132841
C157	C	0.942758	0.438929	-0.000011
C158	C	1.442758	0.938929	0.499989
H159	H	0.892700	0.489379	-0.000021
H160	H	1.392700	0.989379	0.499979
H161	H	0.985310	0.447824	0.051060
H162	H	1.485310	0.947824	0.551060
H163	H	0.985292	0.447788	-0.051092
H164	H	1.485292	0.947788	0.448908
C165	C	1.104246	0.118831	-0.403289
C166	C	1.604246	0.618831	0.096711
H167	H	1.062696	0.077278	-0.443964
H168	H	1.562696	0.577278	0.056036
H169	H	1.142375	0.074904	-0.367329
H170	H	1.642375	0.574904	0.132671
H171	H	1.060299	0.156950	-0.367327
H172	H	1.560299	0.656950	0.132673
H173	H	1.377331	0.392024	-0.416329
H174	H	1.877331	0.892024	0.083671
