data_functionalizedCrystal
_audit_creation_method	'MofGen! by Chris Wilmer'
_symmetry_space_group_name_H-M	'P1'
_symmetry_Int_Tables_number	1
_symmetry_cell_setting	triclinic
loop_
_symmetry_equiv_pos_as_xyz
  x,y,z
_cell_length_a	29.839131
_cell_length_b	13.032831
_cell_length_c	13.033109
_cell_angle_alpha	103.334486
_cell_angle_beta	97.151620
_cell_angle_gamma	97.154634
loop_
_atom_site_label
_atom_site_type_symbol
_atom_site_fract_x
_atom_site_fract_y
_atom_site_fract_z
Zn1	Zn	-0.315802	-1.699796	-0.806302
Zn2	Zn	0.184198	-1.199796	-0.306302
Zn3	Zn	-0.379995	-1.677064	-0.628664
Zn4	Zn	0.120005	-1.177064	-0.128664
Zn5	Zn	-0.293953	-1.499642	-0.606203
Zn6	Zn	0.206047	-0.999642	-0.106203
Zn7	Zn	-0.379955	-1.522079	-0.783708
Zn8	Zn	0.120045	-1.022079	-0.283708
O9	O	-0.342426	-1.599645	-0.706219
O10	O	0.157574	-1.099645	-0.206219
O11	O	-0.333478	-1.845408	-0.801594
O12	O	0.166522	-1.345408	-0.301594
O13	O	-0.359454	-1.634625	-0.477056
O14	O	0.140546	-1.134625	0.022944
O15	O	-0.233994	-1.526317	-0.632802
O16	O	0.266006	-1.026317	-0.132802
O17	O	-0.380640	-1.828706	-0.671084
O18	O	0.119360	-1.328706	-0.171084
O19	O	-0.250047	-1.673369	-0.779815
O20	O	0.249953	-1.173369	-0.279815
O21	O	-0.296239	-1.504274	-0.460554
O22	O	0.203761	-1.004274	0.039446
O23	O	-0.296200	-1.353992	-0.610893
O24	O	0.203800	-0.853992	-0.110893
O25	O	-0.380573	-1.564557	-0.935334
O26	O	0.119427	-1.064557	-0.435334
O27	O	-0.359386	-1.370476	-0.741306
O28	O	0.140614	-0.870476	-0.241306
O29	O	-0.333440	-1.695125	-0.951934
O30	O	0.166560	-1.195125	-0.451934
O31	O	-0.442847	-1.656381	-0.649175
O32	O	0.057153	-1.156381	-0.149175
O33	O	-0.442818	-1.542514	-0.763085
O34	O	0.057182	-1.042514	-0.263085
C35	C	-0.459134	-1.599447	-0.706142
C36	C	0.040866	-1.099447	-0.206142
C37	C	-0.509070	-1.599464	-0.706157
C38	C	-0.009070	-1.099464	-0.206157
C39	C	-0.325418	-1.323696	-0.671211
C40	C	0.174582	-0.823696	-0.171211
C41	C	-0.318155	-1.205647	-0.656260
C42	C	0.181845	-0.705647	-0.156260
C43	C	-0.359439	-1.634879	-0.983249
C44	C	0.140561	-1.134879	-0.483249
C45	C	-0.366689	-1.649894	-1.101303
C46	C	0.133311	-1.149894	-0.601303
C47	C	-0.818743	-1.659072	-0.647021
C48	C	-0.318743	-1.159072	-0.147021
C49	C	-1.006427	-1.659208	-0.647079
C50	C	-0.506427	-1.159208	-0.147079
O51	O	-1.030705	-1.709732	-0.596740
O52	O	-0.530705	-1.209732	-0.096740
N53	N	-1.029887	-1.599876	-0.706327
N54	N	-0.529887	-1.099876	-0.206327
C55	C	-1.006424	-1.540510	-0.765571
C56	C	-0.506424	-1.040510	-0.265571
O57	O	-1.030686	-1.490056	-0.815975
O58	O	-0.530686	-0.990056	-0.315975
C59	C	-0.818742	-1.540381	-0.765518
C60	C	-0.318742	-1.040381	-0.265518
C61	C	-0.795283	-1.599709	-0.706258
C62	C	-0.295283	-1.099709	-0.206258
C63	C	-0.795284	-1.718396	-0.587766
C64	C	-0.295284	-1.218396	-0.087766
C65	C	-0.748366	-1.718357	-0.587748
C66	C	-0.248366	-1.218357	-0.087748
C67	C	-0.724906	-1.658993	-0.646984
C68	C	-0.224906	-1.158993	-0.146984
C69	C	-0.748364	-1.599669	-0.706239
C70	C	-0.248364	-1.099669	-0.206239
C71	C	-0.795280	-1.481022	-0.824767
C72	C	-0.295280	-0.981022	-0.324767
C73	C	-0.748357	-1.480997	-0.824751
C74	C	-0.248357	-0.980997	-0.324751
C75	C	-0.724898	-1.540325	-0.765490
C76	C	-0.224898	-1.040325	-0.265490
C77	C	-0.677986	-1.540267	-0.765457
C78	C	-0.177986	-1.040267	-0.265457
N79	N	-0.654526	-1.599599	-0.706209
N80	N	-0.154526	-1.099599	-0.206209
C81	C	-0.677985	-1.658963	-0.646972
C82	C	-0.177985	-1.158963	-0.146972
C83	C	-1.104960	-1.540581	-0.765593
C84	C	-0.604960	-1.040581	-0.265593
C85	C	-1.151880	-1.540612	-0.765604
C86	C	-0.651880	-1.040612	-0.265604
C87	C	-1.151879	-1.659311	-0.647114
C88	C	-0.651879	-1.159311	-0.147114
C89	C	-1.104958	-1.659274	-0.647097
C90	C	-0.604958	-1.159274	-0.147097
C91	C	-1.081499	-1.599913	-0.706344
C92	C	-0.581499	-1.099913	-0.206344
C93	C	-0.579453	-1.658875	-0.646937
C94	C	-0.079453	-1.158875	-0.146937
C95	C	-0.532530	-1.658827	-0.646921
C96	C	-0.032530	-1.158827	-0.146921
C97	C	-0.532535	-1.540132	-0.765415
C98	C	-0.032535	-1.040132	-0.265415
C99	C	-0.579453	-1.540175	-0.765428
C100	C	-0.079453	-1.040175	-0.265428
C101	C	-0.602912	-1.599555	-0.706187
C102	C	-0.102912	-1.099555	-0.206187
O103	O	-0.653680	-1.489779	-0.815780
O104	O	-0.153680	-0.989779	-0.315780
O105	O	-0.653718	-1.709428	-0.596594
O106	O	-0.153718	-1.209428	-0.096594
C107	C	-0.865661	-1.659111	-0.647040
C108	C	-0.365661	-1.159111	-0.147040
C109	C	-0.889120	-1.599787	-0.706295
C110	C	-0.389120	-1.099787	-0.206295
C111	C	-0.865660	-1.540424	-0.765531
C112	C	-0.365660	-1.040424	-0.265531
C113	C	-0.936040	-1.599818	-0.706306
C114	C	-0.436040	-1.099818	-0.206306
C115	C	-0.959500	-1.659181	-0.647070
C116	C	-0.459500	-1.159181	-0.147070
C117	C	-0.936040	-1.718514	-0.587822
C118	C	-0.436040	-1.218514	-0.087822
C119	C	-0.889121	-1.718474	-0.587803
C120	C	-0.389121	-1.218474	-0.087803
C121	C	-0.889121	-1.481091	-0.824779
C122	C	-0.389121	-0.981091	-0.324779
C123	C	-0.936039	-1.481135	-0.824792
C124	C	-0.436039	-0.981135	-0.324792
C125	C	-0.959499	-1.540498	-0.765556
C126	C	-0.459499	-1.040498	-0.265556
C127	C	-0.225266	-1.599876	-0.706323
C128	C	0.274734	-1.099876	-0.206323
C129	C	-0.175340	-1.599975	-0.706368
C130	C	0.324660	-1.099975	-0.206368
C131	C	-0.359501	-1.876672	-0.741365
C132	C	0.140499	-1.376672	-0.241365
C133	C	-0.366777	-1.994724	-0.756342
C134	C	0.133223	-1.494724	-0.256342
C135	C	-0.346217	-1.161189	-0.714022
C136	C	0.153783	-0.661189	-0.214022
C137	C	-0.338711	-1.039179	-0.698571
C138	C	0.161289	-0.539179	-0.198571
C139	C	-0.338644	-1.592093	-1.145770
C140	C	0.161356	-1.092093	-0.645770
C141	C	-0.346136	-1.607610	-1.267784
C142	C	0.153864	-1.107610	-0.767784
C143	C	-0.325451	-1.564610	-0.430275
C144	C	0.174549	-1.064610	0.069725
C145	C	-0.318087	-1.549801	-0.312248
C146	C	0.181913	-1.049801	0.187752
H147	H	-0.513431	-1.707138	-0.598660
H148	H	-0.013431	-1.207138	-0.098660
F149	F	-0.723406	-1.781516	-0.524687
F150	F	-0.223406	-1.281516	-0.024687
F151	F	-0.723394	-1.417818	-0.887815
F152	F	-0.223394	-0.917818	-0.387815
F153	F	-0.405326	-1.729587	-1.169606
F154	F	0.094674	-1.229587	-0.669606
F155	F	-1.079999	-1.477396	-0.828655
F156	F	-0.579999	-0.977396	-0.328655
F157	F	-0.820245	-1.781586	-0.524715
F158	F	-0.320245	-1.281586	-0.024715
F159	F	-0.384775	-1.687307	-1.336084
F160	F	0.115225	-1.187307	-0.836084
F161	F	-1.079995	-1.722419	-0.584025
F162	F	-0.579995	-1.222419	-0.084025
F163	F	-0.604412	-1.722073	-0.583886
F164	F	-0.104412	-1.222073	-0.083886
F165	F	-0.279458	-1.470076	-1.243947
F166	F	0.220542	-0.970076	-0.743947
H167	H	-0.396360	-1.046984	-0.817245
H168	H	0.103640	-0.546984	-0.317245
H169	H	-0.288570	-1.153384	-0.595372
H170	H	0.211430	-0.653384	-0.095372
F171	F	-0.300005	-1.512405	-1.077468
F172	F	0.199995	-1.012405	-0.577468
F173	F	-1.176855	-1.722488	-0.584067
F174	F	-0.676855	-1.222488	-0.084067
F175	F	-0.820238	-1.417887	-0.887852
F176	F	-0.320238	-0.917887	-0.387852
F177	F	-1.176840	-1.477453	-0.828664
F178	F	-0.676840	-0.977453	-0.328664
H179	H	-0.513426	-1.491795	-0.813641
H180	H	-0.013426	-0.991795	-0.313641
F181	F	-0.604419	-1.477011	-0.828477
F182	F	-0.104419	-0.977011	-0.328477
H183	H	-0.955149	-1.766846	-0.539586
H184	H	-0.455149	-1.266846	-0.039586
F185	F	-0.864161	-1.781623	-0.524733
F186	F	-0.364161	-1.281623	-0.024733
H187	H	-0.955135	-1.432813	-0.873047
H188	H	-0.455135	-0.932813	-0.373047
H189	H	-0.870023	-1.432752	-0.873018
H190	H	-0.370023	-0.932752	-0.373018
F191	F	-0.384886	-1.229496	-0.793612
F192	F	0.115114	-0.729496	-0.293612
H193	H	-0.309124	-0.986919	-0.637679
H194	H	0.190876	-0.486919	-0.137679
