data_functionalizedCrystal
_audit_creation_method	'MofGen! by Chris Wilmer'
_symmetry_space_group_name_H-M	'P1'
_symmetry_Int_Tables_number	1
_symmetry_cell_setting	triclinic
loop_
_symmetry_equiv_pos_as_xyz
  x,y,z
_cell_length_a	17.699083
_cell_length_b	17.699097
_cell_length_c	9.130313
_cell_angle_alpha	89.992882
_cell_angle_beta	89.998062
_cell_angle_gamma	96.714277
loop_
_atom_site_label
_atom_site_type_symbol
_atom_site_fract_x
_atom_site_fract_y
_atom_site_fract_z
O1	O	-0.095759	1.004068	-0.121900
O2	O	0.404241	1.504068	0.378100
O3	O	-0.108201	0.783691	-0.121874
O4	O	0.391799	1.283691	0.378126
O5	O	0.008209	0.900106	-0.121902
O6	O	0.508209	1.400106	0.378098
O7	O	-0.212169	0.887654	-0.121872
O8	O	0.287831	1.387654	0.378128
O9	O	0.008212	0.900098	0.121697
O10	O	0.508212	1.400098	0.621697
O11	O	-0.108198	0.783683	0.121725
O12	O	0.391802	1.283683	0.621725
O13	O	-0.095756	1.004061	0.121699
O14	O	0.404244	1.504061	0.621699
Cu15	Cu	-0.101976	0.893871	0.143955
Cu16	Cu	0.398024	1.393871	0.643955
Cu17	Cu	-0.101980	0.893881	-0.144129
Cu18	Cu	0.398020	1.393881	0.355871
O19	O	-0.212165	0.887646	0.121727
O20	O	0.287835	1.387646	0.621727
C21	C	-0.107752	0.755491	-0.000071
C22	C	0.392248	1.255491	0.499929
C23	C	-0.106409	0.671473	-0.000062
C24	C	0.393591	1.171473	0.499938
C25	C	-0.098181	0.155759	-0.132908
C26	C	0.401819	0.655759	0.367092
C27	C	-0.099438	0.234703	-0.132901
C28	C	0.400562	0.734703	0.367099
C29	C	-0.100065	0.274165	-0.000109
C30	C	0.399935	0.774165	0.499891
C31	C	-0.099429	0.234679	0.132684
C32	C	0.400571	0.734679	0.632684
C33	C	-0.098167	0.155737	0.132675
C34	C	0.401833	0.655737	0.632675
C35	C	-0.104516	0.553043	0.132723
C36	C	0.395484	1.053043	0.632723
C37	C	-0.105780	0.631991	0.132722
C38	C	0.394220	1.131991	0.632722
C39	C	-0.105787	0.632009	-0.132852
C40	C	0.394213	1.132009	0.367148
C41	C	-0.104525	0.553067	-0.132861
C42	C	0.395475	1.053067	0.367139
C43	C	-0.103885	0.513589	-0.000069
C44	C	0.396115	1.013589	0.499931
C45	C	-0.102521	0.427989	-0.000079
C46	C	0.397479	0.927989	0.499921
C47	C	-0.101434	0.359763	-0.000098
C48	C	0.398566	0.859763	0.499902
C49	C	-0.240364	0.888096	-0.000069
C50	C	0.259636	1.388096	0.499931
C51	C	-0.324382	0.889435	-0.000058
C52	C	0.175618	1.389435	0.499942
C53	C	-0.373000	0.821102	-0.000050
C54	C	0.127000	1.321102	0.499950
C55	C	-0.451943	0.822364	-0.000067
C56	C	0.048057	1.322364	0.499933
C57	C	-0.482267	0.891960	-0.000082
C58	C	0.017733	1.391960	0.499918
C59	C	-0.433644	0.960298	-0.000095
C60	C	0.066356	1.460298	0.499905
C61	C	-0.354702	0.959035	-0.000088
C62	C	0.145298	1.459035	0.499912
C63	C	-0.752007	0.965393	-0.000125
C64	C	-0.252007	1.465393	0.499875
C65	C	-0.830955	0.966651	-0.000127
C66	C	-0.330955	1.466651	0.499873
C67	C	-0.849248	0.828722	-0.000104
C68	C	-0.349248	1.328722	0.499896
C69	C	-0.770307	0.827459	-0.000097
C70	C	-0.270307	1.327459	0.499903
C71	C	-0.721690	0.895797	-0.000117
C72	C	-0.221690	1.395797	0.499883
C73	C	-0.636090	0.894427	-0.000101
C74	C	-0.136090	1.394427	0.499899
C75	C	-0.567865	0.893330	-0.000088
C76	C	-0.067865	1.393330	0.499912
C77	C	0.036408	0.899656	-0.000109
C78	C	0.536408	1.399656	0.499891
C79	C	0.120426	0.898317	-0.000129
C80	C	0.620426	1.398317	0.499871
C81	C	-0.096205	1.032261	-0.000107
C82	C	0.403795	1.532261	0.499893
C83	C	-0.097547	1.116279	-0.000125
C84	C	0.402453	1.616279	0.499875
N85	N	-0.101973	0.893870	0.346577
N86	N	0.398027	1.393870	0.846577
N87	N	-0.101977	0.893888	-0.346752
N88	N	0.398023	1.393888	0.153248
C89	C	-0.050448	0.945436	0.423216
C90	C	0.449552	1.445436	0.923216
C91	C	-0.050448	0.945443	0.576553
C92	C	0.449552	1.445443	1.076553
C93	C	-0.153505	0.842317	0.576598
C94	C	0.346495	1.342317	1.076598
C95	C	-0.153500	0.842306	0.423264
C96	C	0.346500	1.342306	0.923264
H97	H	-0.104018	0.520941	-0.240994
H98	H	0.395982	1.020941	0.259006
Br99	Br	-0.729157	0.733004	-0.000067
Br100	Br	-0.229157	1.233004	0.499933
H101	H	-0.097676	0.123634	-0.241043
H102	H	0.402324	0.623634	0.258957
Br103	Br	0.019483	1.015414	0.319147
Br104	Br	0.519483	1.515414	0.819147
H105	H	-0.106305	0.664162	-0.240978
H106	H	0.393695	1.164162	0.259022
H107	H	-0.008491	0.987431	0.638949
H108	H	0.491509	1.487431	1.138949
Br109	Br	-0.223426	0.772314	0.319241
Br110	Br	0.276574	1.272314	0.819241
H111	H	-0.097659	0.123593	0.240801
H112	H	0.402341	0.623593	0.740801
H113	H	-0.099949	0.266845	-0.241026
H114	H	0.400051	0.766845	0.258974
H115	H	-0.106291	0.664118	0.240864
H116	H	0.393709	1.164118	0.740864
Br117	Br	-0.517923	0.729622	-0.000077
Br118	Br	-0.017923	1.229622	0.499923
H119	H	-0.103984	0.520911	0.240851
H120	H	0.396016	1.020911	0.740851
Br121	Br	-0.474797	1.054751	-0.000133
Br122	Br	0.025203	1.554751	0.499867
Br123	Br	-0.100277	0.288234	0.312904
Br124	Br	0.399723	0.788234	0.812904
H125	H	-0.195458	0.800335	0.639052
H126	H	0.304542	1.300335	1.139052
H127	H	-0.888842	0.773078	-0.000093
H128	H	-0.388842	1.273078	0.499907
Br129	Br	-0.331854	0.726645	-0.000013
Br130	Br	0.168146	1.226645	0.499987
H131	H	-0.855641	1.023328	-0.000142
H132	H	-0.355641	1.523328	0.499858
H133	H	-0.712432	1.021038	-0.000132
H134	H	-0.212432	1.521038	0.499868
Br135	Br	-0.288719	1.051776	-0.000115
Br136	Br	0.211281	1.551776	0.499885
