data_functionalizedCrystal
_audit_creation_method	'MofGen! by Chris Wilmer'
_symmetry_space_group_name_H-M	'P1'
_symmetry_Int_Tables_number	1
_symmetry_cell_setting	triclinic
loop_
_symmetry_equiv_pos_as_xyz
  x,y,z
_cell_length_a	17.639617
_cell_length_b	25.639240
_cell_length_c	25.639234
_cell_angle_alpha	89.967912
_cell_angle_beta	78.756709
_cell_angle_gamma	101.215675
loop_
_atom_site_label
_atom_site_type_symbol
_atom_site_fract_x
_atom_site_fract_y
_atom_site_fract_z
Zn1	Zn	1.208523	-0.046829	-0.457510
Zn2	Zn	1.708523	0.453171	0.042490
Zn3	Zn	1.208404	-0.134273	-0.370048
Zn4	Zn	1.708404	0.365727	0.129952
Zn5	Zn	1.076321	-0.064488	-0.352376
Zn6	Zn	1.576321	0.435512	0.147624
Zn7	Zn	1.076268	-0.151893	-0.439748
Zn8	Zn	1.576268	0.348107	0.060252
O9	O	1.142379	-0.099370	-0.404921
O10	O	1.642379	0.400630	0.095079
O11	O	1.319133	-0.043664	-0.460738
O12	O	1.819133	0.456336	0.039262
O13	O	1.190856	-0.125032	-0.294535
O14	O	1.690856	0.374968	0.205465
O15	O	1.093930	0.011029	-0.366360
O16	O	1.593930	0.511029	0.133640
O17	O	1.319046	-0.107908	-0.396480
O18	O	1.819046	0.392092	0.103520
O19	O	1.191058	0.024004	-0.443602
O20	O	1.691058	0.524004	0.056398
O21	O	1.093815	-0.073761	-0.281551
O22	O	1.593815	0.426239	0.218449
O23	O	0.965688	-0.090847	-0.349136
O24	O	1.465688	0.409153	0.150864
O25	O	1.093840	-0.137939	-0.515273
O26	O	1.593840	0.362061	-0.015273
O27	O	0.965649	-0.155063	-0.413328
O28	O	1.465649	0.344937	0.086672
O29	O	1.191007	-0.060749	-0.528323
O30	O	1.691007	0.439251	-0.028323
O31	O	1.190804	-0.209785	-0.379256
O32	O	1.690804	0.290215	0.120744
O33	O	1.093725	-0.222730	-0.430464
O34	O	1.593725	0.277270	0.069536
C35	C	0.936984	-0.126783	-0.377387
C36	C	1.436984	0.373217	0.122613
C37	C	0.849115	-0.138523	-0.365621
C38	C	1.349115	0.361477	0.134379
C39	C	0.560324	-0.010172	-0.494438
C40	C	1.060324	0.489828	0.005562
C41	C	0.477758	-0.021216	-0.483371
C42	C	0.977758	0.478784	0.016629
C43	C	0.477689	-0.088004	-0.416363
C44	C	0.977689	0.411996	0.083637
C45	C	0.560257	-0.076966	-0.427426
C46	C	1.060257	0.423034	0.072574
C47	C	0.601568	-0.038050	-0.466464
C48	C	1.101568	0.461950	0.033536
C49	C	0.601501	-0.104844	-0.399452
C50	C	1.101501	0.395156	0.100548
C51	C	0.684061	-0.093806	-0.410512
C52	C	1.184061	0.406194	0.089488
C53	C	0.725378	-0.054890	-0.449547
C54	C	1.225378	0.445110	0.050453
C55	C	0.684128	-0.027011	-0.477524
C56	C	1.184128	0.472989	0.022476
C57	C	0.560188	-0.143758	-0.360411
C58	C	1.060188	0.356242	0.139589
C59	C	0.601432	-0.171636	-0.332437
C60	C	1.101432	0.328364	0.167563
C61	C	0.683994	-0.160600	-0.343500
C62	C	1.183994	0.339400	0.156500
C63	C	0.725311	-0.121684	-0.382535
C64	C	1.225311	0.378316	0.117465
C65	C	0.725244	-0.188479	-0.315522
C66	C	1.225244	0.311521	0.184478
C67	C	0.807804	-0.177440	-0.326583
C68	C	1.307804	0.322560	0.173417
C69	C	0.807871	-0.110646	-0.393595
C70	C	1.307871	0.389354	0.106405
C71	C	1.142267	-0.235228	-0.404865
C72	C	1.642267	0.264772	0.095135
C73	C	1.142292	-0.293339	-0.404868
C74	C	1.642292	0.206661	0.095132
C75	C	1.192979	-0.646893	-0.445204
C76	C	1.692979	-0.146893	0.054796
C77	C	1.193002	-0.701494	-0.445218
C78	C	1.693002	-0.201494	0.054782
O79	O	1.235965	-0.723959	-0.479453
O80	O	1.735965	-0.223959	0.020547
N81	N	1.142489	-0.735595	-0.404986
N82	N	1.642489	-0.235595	0.095014
C83	C	1.091943	-0.715093	-0.364740
C84	C	1.591943	-0.215093	0.135260
O85	O	1.048979	-0.749112	-0.330521
O86	O	1.548979	-0.249112	0.169479
C87	C	1.091916	-0.660493	-0.364729
C88	C	1.591916	-0.160493	0.135271
C89	C	1.142439	-0.626394	-0.404961
C90	C	1.642439	-0.126394	0.095039
C91	C	1.243496	-0.612794	-0.485433
C92	C	1.743496	-0.112794	0.014567
C93	C	1.243474	-0.558196	-0.485419
C94	C	1.743474	-0.058196	0.014581
C95	C	1.192934	-0.537698	-0.445175
C96	C	1.692934	-0.037698	0.054825
C97	C	1.142416	-0.571796	-0.404946
C98	C	1.642416	-0.071796	0.095054
C99	C	1.041367	-0.639993	-0.324486
C100	C	1.541367	-0.139993	0.175514
C101	C	1.041345	-0.585389	-0.324479
C102	C	1.541345	-0.085389	0.175521
C103	C	1.091867	-0.551290	-0.364710
C104	C	1.591867	-0.051290	0.135290
C105	C	1.091854	-0.496700	-0.364689
C106	C	1.591854	0.003300	0.135311
N107	N	1.142367	-0.462599	-0.404921
N108	N	1.642367	0.037401	0.095079
C109	C	1.192907	-0.483098	-0.445164
C110	C	1.692907	0.016902	0.054836
C111	C	1.092002	-0.829756	-0.364767
C112	C	1.592002	-0.329756	0.135233
C113	C	1.092032	-0.884354	-0.364776
C114	C	1.592032	-0.384354	0.135224
C115	C	1.193090	-0.870751	-0.445254
C116	C	1.693090	-0.370751	0.054746
C117	C	1.193064	-0.816151	-0.445243
C118	C	1.693064	-0.316151	0.054757
C119	C	1.142515	-0.795655	-0.404999
C120	C	1.642515	-0.295655	0.095001
C121	C	1.192857	-0.368439	-0.445130
C122	C	1.692857	0.131561	0.054870
C123	C	1.192832	-0.313837	-0.445111
C124	C	1.692832	0.186163	0.054889
C125	C	1.091771	-0.327445	-0.364635
C126	C	1.591771	0.172555	0.135365
C127	C	1.091798	-0.382042	-0.364652
C128	C	1.591798	0.117958	0.135348
C129	C	1.142344	-0.402538	-0.404904
C130	C	1.642344	0.097462	0.095096
O131	O	1.048910	-0.474198	-0.330472
O132	O	1.548910	0.025802	0.169528
O133	O	1.235856	-0.449074	-0.479381
O134	O	1.735856	0.050926	0.020619
C135	C	1.348576	-0.071851	-0.432562
C136	C	1.848576	0.428149	0.067438
C137	C	1.436445	-0.060124	-0.444341
C138	C	1.936445	0.439876	0.055659
C139	C	1.142430	-0.099340	-0.541300
C140	C	1.642430	0.400660	-0.041300
C141	C	1.142452	-0.099327	-0.599417
C142	C	1.642452	0.400673	-0.099417
C143	C	1.142513	0.037020	-0.404991
C144	C	1.642513	0.537020	0.095009
C145	C	1.142570	0.095142	-0.405021
C146	C	1.642570	0.595142	0.094979
C147	C	1.091945	-0.072565	-0.953028
C148	C	1.591945	0.427435	-0.453028
C149	C	1.091950	-0.072555	-1.007633
C150	C	1.591950	0.427445	-0.507633
O151	O	1.048967	-0.049864	-1.030124
O152	O	1.548967	0.450136	-0.530124
N153	N	1.142479	-0.099241	-1.041704
N154	N	1.642479	0.400759	-0.541704
C155	C	1.193001	-0.125944	-1.021166
C156	C	1.693001	0.374056	-0.521166
O157	O	1.235980	-0.148642	-1.055159
O158	O	1.735980	0.351358	-0.555159
C159	C	1.192992	-0.125957	-0.966561
C160	C	1.692992	0.374043	-0.466561
C161	C	1.142465	-0.099264	-0.932494
C162	C	1.642465	0.400736	-0.432494
C163	C	1.041422	-0.045875	-0.918962
C164	C	1.541422	0.454125	-0.418962
C165	C	1.041419	-0.045884	-0.864361
C166	C	1.541419	0.454116	-0.364361
C167	C	1.091939	-0.072583	-0.843827
C168	C	1.591939	0.427417	-0.343827
C169	C	1.142462	-0.099273	-0.877893
C170	C	1.642462	0.400727	-0.377893
C171	C	1.243510	-0.152662	-0.946024
C172	C	1.743510	0.347338	-0.446024
C173	C	1.243496	-0.152673	-0.891415
C174	C	1.743496	0.347327	-0.391415
C175	C	1.192970	-0.125980	-0.857348
C176	C	1.692970	0.374020	-0.357348
C177	C	1.192980	-0.125982	-0.802758
C178	C	1.692980	0.374018	-0.302758
N179	N	1.142451	-0.099296	-0.768688
N180	N	1.642451	0.400704	-0.268688
C181	C	1.091930	-0.072596	-0.789222
C182	C	1.591930	0.427404	-0.289222
C183	C	1.193015	-0.125915	-1.135838
C184	C	1.693015	0.374085	-0.635838
C185	C	1.193028	-0.125900	-1.190443
C186	C	1.693028	0.374100	-0.690443
C187	C	1.091975	-0.072511	-1.176906
C188	C	1.591975	0.427489	-0.676906
C189	C	1.091967	-0.072524	-1.122302
C190	C	1.591967	0.427476	-0.622302
C191	C	1.142486	-0.099229	-1.101768
C192	C	1.642486	0.400771	-0.601768
C193	C	1.091928	-0.072618	-0.674557
C194	C	1.591928	0.427382	-0.174557
C195	C	1.091932	-0.072627	-0.619952
C196	C	1.591932	0.427373	-0.119952
C197	C	1.192982	-0.126018	-0.633492
C198	C	1.692982	0.373982	-0.133492
C199	C	1.192981	-0.126006	-0.688093
C200	C	1.692981	0.373994	-0.188093
C201	C	1.142448	-0.099305	-0.708623
C202	C	1.642448	0.400695	-0.208623
O203	O	1.235938	-0.148663	-0.780230
O204	O	1.735938	0.351337	-0.280230
O205	O	1.048952	-0.049908	-0.755222
O206	O	1.548952	0.450092	-0.255222
C207	C	1.142373	-0.099357	-0.269077
C208	C	1.642373	0.400643	0.230923
C209	C	1.142505	-0.099203	-0.210981
C210	C	1.642505	0.400797	0.289019
H211	H	0.593962	0.021516	-0.526229
H212	H	1.093962	0.521516	-0.026229
H213	H	1.050824	-0.050788	-1.094567
H214	H	1.550824	0.449212	-0.594567
C215	C	1.248618	-0.155259	-1.227912
C216	C	1.748618	0.344741	-0.727912
N217	N	1.290486	-0.177376	-1.256131
N218	N	1.790486	0.322624	-0.756131
H219	H	0.444180	0.001491	-0.506152
H220	H	0.944180	0.501491	-0.006152
C221	C	1.299106	-0.635332	-0.529704
C222	C	1.799106	-0.135332	-0.029704
N223	N	1.341001	-0.652302	-0.563049
N224	N	1.841001	-0.152302	-0.063049
C225	C	1.248638	-0.778647	-0.489502
C226	C	1.748638	-0.278647	0.010498
N227	N	1.290498	-0.750401	-0.522841
N228	N	1.790498	-0.250401	-0.022841
C229	C	0.816198	-0.042748	-0.461715
C230	C	1.316198	0.457252	0.038285
N231	N	0.884603	-0.033603	-0.470880
N232	N	1.384603	0.466397	0.029120
C233	C	1.248680	-0.893311	-0.489526
C234	C	1.748680	-0.393311	0.010474
N235	N	1.290547	-0.910305	-0.522870
N236	N	1.790547	-0.410305	-0.022870
H237	H	0.717766	0.004677	-0.509315
H238	H	1.217766	0.504677	-0.009315
H239	H	1.050624	-0.310747	-0.331868
H240	H	1.550624	0.189253	0.168132
H241	H	1.234116	-0.147754	-0.616764
H242	H	1.734116	0.352246	-0.116764
H243	H	0.841509	-0.078958	-0.425386
H244	H	1.341509	0.421042	0.074614
C245	C	0.432237	-0.130811	-0.373423
C246	C	0.932237	0.369189	0.126577
N247	N	0.398004	-0.163056	-0.341081
N248	N	0.898004	0.336944	0.158919
H249	H	0.492962	-0.152733	-0.351396
H250	H	0.992962	0.347267	0.148604
C251	C	0.985828	-0.016526	-0.826893
C252	C	1.485828	0.483474	-0.326893
N253	N	0.943951	0.005586	-0.798674
N254	N	1.443951	0.505586	-0.298674
H255	H	1.234163	-0.147657	-1.119125
H256	H	1.734163	0.352343	-0.619125
C257	C	1.299089	-0.182031	-0.983486
C258	C	1.799089	0.317969	-0.483486
N259	N	1.340952	-0.204156	-1.011701
N260	N	1.840952	0.295844	-0.511701
H261	H	1.284641	-0.174416	-0.874701
H262	H	1.784641	0.325584	-0.374701
H263	H	0.567785	-0.203320	-0.300651
H264	H	1.067785	0.296680	0.199349
H265	H	1.234010	-0.385120	-0.477911
H266	H	1.734010	0.114880	0.022089
C267	C	1.036226	-0.419552	-0.320393
C268	C	1.536226	0.080448	0.179607
N269	N	0.994362	-0.447802	-0.287059
N270	N	1.494362	0.052198	0.212941
H271	H	0.691596	-0.220161	-0.283734
H272	H	1.191596	0.279839	0.216266
C273	C	0.985782	-0.677492	-0.280230
C274	C	1.485782	-0.177492	0.219770
N275	N	0.943910	-0.705735	-0.246895
N276	N	1.443910	-0.205735	0.253105
H277	H	1.050787	-0.050889	-0.592216
H278	H	1.550787	0.449111	-0.092216
C279	C	0.853175	-0.208109	-0.295811
C280	C	1.353175	0.291891	0.204189
N281	N	0.887349	-0.231209	-0.272633
N282	N	1.387349	0.268791	0.227367
C283	C	1.248415	-0.276330	-0.489370
C284	C	1.748415	0.223670	0.010630
N285	N	1.290279	-0.248082	-0.522705
N286	N	1.790279	0.251918	-0.022705
H287	H	1.284611	-0.530435	-0.518180
H288	H	1.784611	-0.030435	-0.018180
C289	C	1.036460	-0.921857	-0.320514
C290	C	1.536460	-0.421857	0.179486
N291	N	0.994597	-0.950103	-0.287177
N292	N	1.494597	-0.450103	0.212823
H293	H	1.050839	-0.050772	-1.193635
H294	H	1.550839	0.449228	-0.693635
H295	H	1.050842	-0.813071	-0.331992
H296	H	1.550842	-0.313071	0.168008
H297	H	1.000180	-0.568704	-0.291707
H298	H	1.500180	-0.068704	0.208293
C299	C	1.036345	-0.043241	-0.697132
C300	C	1.536345	0.456759	-0.197132
N301	N	0.994483	-0.021111	-0.714136
N302	N	1.494483	0.478889	-0.214136
H303	H	1.000278	-0.024133	-0.935674
H304	H	1.500278	0.475867	-0.435674
C305	C	1.248567	-0.155365	-0.725569
C306	C	1.748567	0.344635	-0.225569
N307	N	1.290430	-0.177484	-0.753791
N308	N	1.790430	0.322516	-0.253791
