data_functionalizedCrystal
_audit_creation_method	'MofGen! by Chris Wilmer'
_symmetry_space_group_name_H-M	'P1'
_symmetry_Int_Tables_number	1
_symmetry_cell_setting	triclinic
loop_
_symmetry_equiv_pos_as_xyz
  x,y,z
_cell_length_a	18.215407
_cell_length_b	18.101395
_cell_length_c	18.215399
_cell_angle_alpha	89.973154
_cell_angle_beta	89.980650
_cell_angle_gamma	90.031552
loop_
_atom_site_label
_atom_site_type_symbol
_atom_site_fract_x
_atom_site_fract_y
_atom_site_fract_z
Zn1	Zn	1.125037	-0.294825	-0.416124
Zn2	Zn	1.124933	-0.418673	-0.293061
Zn3	Zn	1.001970	-0.294850	-0.293071
Zn4	Zn	1.001922	-0.418630	-0.416086
O5	O	1.063465	-0.356745	-0.354585
O6	O	1.228007	-0.311261	-0.399811
O7	O	1.108598	-0.402275	-0.190078
O8	O	1.018359	-0.191214	-0.309415
O9	O	1.227931	-0.402251	-0.309397
O10	O	1.108775	-0.191196	-0.399821
O11	O	1.018258	-0.311304	-0.190085
O12	O	0.898980	-0.311263	-0.309378
O13	O	1.018276	-0.402179	-0.519075
O14	O	0.898944	-0.402204	-0.399756
O15	O	1.108728	-0.311220	-0.519103
O16	O	1.108551	-0.522300	-0.309360
O17	O	1.018176	-0.522269	-0.399746
C18	C	0.872259	-0.356732	-0.354564
C19	C	0.790460	-0.356744	-0.354572
C20	C	0.602267	-0.404172	-0.401573
C21	C	0.525408	-0.404174	-0.401583
C22	C	0.525416	-0.309331	-0.307613
C23	C	0.602273	-0.309326	-0.307608
C24	C	0.640697	-0.356750	-0.354587
C25	C	0.486981	-0.356758	-0.354601
C26	C	0.403647	-0.356760	-0.354611
C27	C	0.724036	-0.356747	-0.354579
C28	C	1.063367	-0.549155	-0.354564
C29	C	1.063392	-0.631469	-0.354579
C30	C	1.063554	-0.930560	-0.354619
C31	C	1.006824	-0.899246	-0.411628
C32	C	1.006554	-0.813629	-0.411450
C33	C	1.063473	-0.782178	-0.354600
C34	C	1.042476	-0.813329	-0.277038
C35	C	1.042111	-0.898974	-0.277380
C36	C	1.141405	-0.898904	-0.374487
C37	C	1.140947	-0.813252	-0.376188
C38	C	1.063429	-0.698318	-0.354584
C39	C	1.063596	-1.014420	-0.354629
C40	C	1.255418	-0.356758	-0.354607
C41	C	1.337217	-0.356764	-0.354616
C42	C	1.063509	-0.356692	-0.546538
C43	C	1.063527	-0.356670	-0.628337
C44	C	1.063584	-0.163583	-0.354623
C45	C	1.063635	-0.081269	-0.354639
C46	C	1.110653	-0.309244	-0.893411
C47	C	1.110644	-0.309264	-0.816552
C48	C	1.016461	-0.403989	-0.816512
C49	C	1.016474	-0.403972	-0.893370
C50	C	1.063569	-0.356595	-0.931817
C51	C	1.063547	-0.356632	-0.778101
C52	C	1.063537	-0.356654	-0.694767
C53	C	1.063580	-0.356574	-1.015156
C54	C	1.063465	-0.356744	-0.163379
C55	C	1.063589	-0.356557	-0.081580
H56	H	1.019691	-0.792565	-0.468960
H57	H	1.148985	-0.270706	-0.785285
H58	H	0.494122	-0.442788	-0.439845
C59	C	1.095501	-0.926963	-0.218033
N60	N	1.135710	-0.948042	-0.173329
C61	C	0.483143	-0.257171	-0.255935
N62	N	0.451303	-0.217884	-0.217008
H63	H	0.633563	-0.270705	-0.269346
H64	H	1.183671	-0.919153	-0.332965
C65	C	1.162357	-0.785712	-0.453286
N66	N	1.178487	-0.764955	-0.511352
H67	H	0.986170	-0.791944	-0.259906
C68	C	1.024389	-0.927012	-0.489575
N69	N	1.037619	-0.947931	-0.548287
H70	H	0.949469	-0.920833	-0.398633
H71	H	1.149000	-0.270666	-0.924712
H72	H	0.948849	-0.793206	-0.398289
C73	C	0.965228	-0.926053	-0.254647
N74	N	0.907316	-0.946446	-0.237527
C75	C	0.964674	-0.456064	-0.935619
N76	N	0.925661	-0.495299	-0.967441
C77	C	0.964653	-0.456093	-0.774213
N78	N	0.925627	-0.495337	-0.742354
H79	H	0.633549	-0.442786	-0.439829
H80	H	1.082496	-0.792958	-0.233404
H81	H	1.160548	-0.920452	-0.430081
C82	C	1.201070	-0.784327	-0.324180
N83	N	1.246353	-0.762543	-0.285000
