data_functionalizedCrystal
_audit_creation_method	'MofGen! by Chris Wilmer'
_symmetry_space_group_name_H-M	'P1'
_symmetry_Int_Tables_number	1
_symmetry_cell_setting	triclinic
loop_
_symmetry_equiv_pos_as_xyz
  x,y,z
_cell_length_a	11.169416
_cell_length_b	12.759401
_cell_length_c	11.169409
_cell_angle_alpha	90.020721
_cell_angle_beta	89.969184
_cell_angle_gamma	89.989499
loop_
_atom_site_label
_atom_site_type_symbol
_atom_site_fract_x
_atom_site_fract_y
_atom_site_fract_z
Zn1	Zn	-0.477705	-1.606310	-0.678560
Zn2	Zn	-0.678446	-1.606211	-0.477882
Zn3	Zn	-0.477776	-1.430605	-0.477894
Zn4	Zn	-0.678346	-1.430614	-0.678526
O5	O	-0.578068	-1.518435	-0.578216
O6	O	-0.504346	-1.753318	-0.651949
O7	O	-0.651898	-1.582872	-0.309934
O8	O	-0.309817	-1.453951	-0.504532
O9	O	-0.651830	-1.753245	-0.504512
O10	O	-0.309765	-1.583040	-0.651960
O11	O	-0.504467	-1.453855	-0.309942
O12	O	-0.504370	-1.283586	-0.504499
O13	O	-0.651659	-1.453966	-0.846481
O14	O	-0.651727	-1.283592	-0.651903
O15	O	-0.504250	-1.583049	-0.846505
O16	O	-0.846382	-1.582880	-0.504479
O17	O	-0.846309	-1.453870	-0.651891
C18	C	-0.889893	-1.518394	-0.578206
C19	C	-1.023293	-1.518472	-0.578243
C20	C	-0.578046	-1.245468	-0.578199
C21	C	-0.578066	-1.128691	-0.578221
C22	C	-0.577935	-1.518519	-0.891258
C23	C	-0.577879	-1.518555	-1.024658
C24	C	-0.265026	-1.518506	-0.578251
C25	C	-0.131626	-1.518536	-0.578266
C26	C	-0.578091	-1.792469	-0.578233
C27	C	-0.578101	-1.909245	-0.578240
C28	C	-0.654918	-1.073860	-0.654847
C29	C	-0.654933	-0.964136	-0.654860
C30	C	-0.501241	-0.964084	-0.501610
C31	C	-0.501220	-1.073806	-0.501604
C32	C	-0.743655	-1.073889	-0.743321
C33	C	-0.743670	-0.964165	-0.743334
C34	C	-0.578114	-1.518412	-0.266391
C35	C	-0.577833	-1.518579	-0.132991
H36	H	-0.438632	-1.118445	-0.439216
O37	O	-0.714290	-1.109510	-0.854292
C38	C	-0.808862	-1.170901	-0.899762
H39	H	-0.895892	-1.148223	-0.853096
H40	H	-0.817934	-1.156804	-1.000129
H41	H	-0.789237	-1.257318	-0.882830
O42	O	-0.704275	-0.923651	-0.848840
C43	C	-0.779195	-0.957927	-0.942555
H44	H	-0.870415	-0.980447	-0.904659
H45	H	-0.790605	-0.892132	-1.010626
H46	H	-0.737149	-1.028916	-0.988159
O47	O	-0.426720	-0.910604	-0.427217
C48	C	-0.443193	-0.802002	-0.443674
H49	H	-0.535859	-0.787028	-0.482833
H50	H	-0.434964	-0.760270	-0.353791
H51	H	-0.372078	-0.770890	-0.507703
O52	O	-0.848837	-1.114536	-0.703239
C53	C	-0.827318	-1.176682	-0.601139
H54	H	-0.740036	-1.151025	-0.557143
H55	H	-0.904249	-1.166778	-0.534980
H56	H	-0.820267	-1.262493	-0.628732
O57	O	-0.854617	-0.928739	-0.713585
C58	C	-0.938704	-0.965669	-0.797714
H59	H	-0.902277	-1.039082	-0.843130
H60	H	-1.026192	-0.985211	-0.750095
H61	H	-0.955638	-0.902579	-0.867946
