data_functionalizedCrystal
_audit_creation_method	'MofGen! by Chris Wilmer'
_symmetry_space_group_name_H-M	'P1'
_symmetry_Int_Tables_number	1
_symmetry_cell_setting	triclinic
loop_
_symmetry_equiv_pos_as_xyz
  x,y,z
_cell_length_a	13.339070
_cell_length_b	27.731996
_cell_length_c	12.376457
_cell_angle_alpha	101.172962
_cell_angle_beta	75.589755
_cell_angle_gamma	99.125341
loop_
_atom_site_label
_atom_site_type_symbol
_atom_site_fract_x
_atom_site_fract_y
_atom_site_fract_z
O1	O	1.357935	0.235154	-0.094104
O2	O	1.063914	0.203416	-0.094089
O3	O	1.220079	0.150149	-0.094072
O4	O	1.201771	0.288421	-0.094120
O5	O	1.181052	0.163443	0.093936
O6	O	1.024887	0.216709	0.093919
O7	O	1.318908	0.248447	0.093904
Zn8	Zn	1.165701	0.234689	0.123762
Zn9	Zn	1.217121	0.217174	-0.123947
O10	O	1.162744	0.301714	0.093888
C11	C	1.006797	0.204701	-0.000083
C12	C	0.894750	0.188721	-0.000076
C13	C	1.200188	0.138737	-0.000064
C14	C	1.199052	0.084925	-0.000053
C15	C	0.527978	0.312975	-0.000137
C16	C	0.633252	0.327991	-0.000147
C17	C	0.698632	0.293175	-0.000129
C18	C	0.658727	0.243340	-0.000102
C19	C	0.553444	0.228323	-0.000101
C20	C	0.724098	0.208522	-0.000093
C21	C	0.684193	0.158688	-0.000066
C22	C	0.578920	0.143673	-0.000064
C23	C	0.513541	0.178489	-0.000082
C24	C	0.829380	0.223540	-0.000094
C25	C	0.854846	0.138887	-0.000057
C26	C	0.749572	0.123871	-0.000048
C27	C	1.213206	-0.256023	-0.102591
C28	C	1.208906	-0.458275	-0.102611
O29	O	1.226399	-0.490591	-0.189769
N30	N	1.187099	-0.476320	-0.000128
C31	C	1.166357	-0.443798	0.102366
O32	O	1.147699	-0.463788	0.189533
C33	C	1.170650	-0.241547	0.102384
C34	C	1.192470	-0.223505	-0.000104
C35	C	1.235023	-0.237980	-0.205071
C36	C	1.236103	-0.187419	-0.205066
C37	C	1.215367	-0.154902	-0.102579
C38	C	1.193550	-0.172945	-0.000098
C39	C	1.149902	-0.209027	0.204878
C40	C	1.150975	-0.158462	0.204873
C41	C	1.172794	-0.140420	0.102384
C42	C	1.173894	-0.089866	0.102394
N43	N	1.195702	-0.071822	-0.000088
C44	C	1.216438	-0.104339	-0.102575
C45	C	1.164107	-0.549983	0.102349
C46	C	1.163036	-0.600545	0.102345
C47	C	1.205583	-0.615019	-0.102632
C48	C	1.206661	-0.564455	-0.102627
C49	C	1.185915	-0.531938	-0.000133
C50	C	1.218706	0.001842	-0.102554
C51	C	1.219789	0.052408	-0.102539
C52	C	1.177236	0.066877	0.102437
C53	C	1.176159	0.016316	0.102423
C54	C	1.196892	-0.016201	-0.000082
O55	O	1.156400	-0.057523	0.189507
O56	O	1.235071	-0.084342	-0.189729
C57	C	1.212126	-0.306583	-0.102597
C58	C	1.190309	-0.324626	-0.000116
C59	C	1.169573	-0.292108	0.102370
C60	C	1.189238	-0.375188	-0.000121
C61	C	1.209974	-0.407706	-0.102607
C62	C	1.231782	-0.389661	-0.205089
C63	C	1.232863	-0.339101	-0.205083
C64	C	1.147765	-0.310153	0.204852
C65	C	1.146688	-0.360714	0.204838
C66	C	1.167424	-0.393232	0.102352
C67	C	1.376026	0.247162	-0.000104
C68	C	1.488075	0.263141	-0.000118
C69	C	1.182635	0.313126	-0.000123
C70	C	1.183772	0.366937	-0.000142
N71	N	1.130616	0.246643	0.292816
N72	N	1.252214	0.205218	-0.293001
C73	C	1.333659	0.177459	0.647823
C74	C	1.358209	0.169092	0.529486
C75	C	1.301313	0.188479	0.470313
C76	C	1.219862	0.216235	0.529488
C77	C	1.195314	0.224606	0.647837
C78	C	1.162968	0.235626	0.470327
C79	C	1.081518	0.263382	0.529502
C80	C	1.056974	0.271751	0.647840
C81	C	1.113870	0.252365	0.707013
C82	C	1.187516	0.227254	0.351978
C83	C	1.049172	0.274401	0.351992
C84	C	1.024621	0.282768	0.470329
H85	H	0.861859	0.264116	-0.000111
Br86	Br	1.119608	-0.266030	0.343956
Br87	Br	1.410879	0.151158	0.728129
Br88	Br	1.334631	0.177123	0.309710
Br89	Br	1.468745	0.131427	0.449177
Br90	Br	0.841506	0.313554	-0.000141
Br91	Br	1.080542	0.263717	0.867621
H92	H	1.134065	-0.131990	0.288338
Br93	Br	0.946449	0.309429	0.728153
Br94	Br	1.263169	-0.282103	-0.344180
H95	H	1.253834	0.204655	0.303808
H96	H	0.427817	0.166265	-0.000074
Br97	Br	0.914082	0.320435	0.550650
H98	H	0.546436	0.103093	-0.000055
H99	H	0.908080	0.110536	-0.000047
H100	H	1.132136	-0.223708	0.288335
Br101	Br	1.236274	-0.539975	-0.241723
H102	H	1.002843	0.290189	0.303814
Br103	Br	0.687404	0.395620	-0.000193
Br104	Br	0.695403	0.056241	-0.000009
Br105	Br	1.259933	-0.433802	-0.344177
H106	H	1.237560	0.067095	-0.186002
Br107	Br	1.246844	-0.042281	-0.241669
H108	H	0.474740	0.341317	-0.000162
Br109	Br	1.265710	-0.162942	-0.344165
H110	H	1.222468	-0.641504	-0.186081
Br111	Br	1.135939	-0.505860	0.241462
Br112	Br	1.133446	-0.625023	0.241442
Br113	Br	1.149098	0.111017	0.241519
Br114	Br	1.146570	-0.008170	0.241515
H115	H	1.250630	-0.324416	-0.288540
H116	H	1.128926	-0.375398	0.288303
