data_functionalizedCrystal
_audit_creation_method	'MofGen! by Chris Wilmer'
_symmetry_space_group_name_H-M	'P1'
_symmetry_Int_Tables_number	1
_symmetry_cell_setting	triclinic
loop_
_symmetry_equiv_pos_as_xyz
  x,y,z
_cell_length_a	13.897448
_cell_length_b	18.215407
_cell_length_c	18.215399
_cell_angle_alpha	89.980167
_cell_angle_beta	90.026328
_cell_angle_gamma	89.981860
loop_
_atom_site_label
_atom_site_type_symbol
_atom_site_fract_x
_atom_site_fract_y
_atom_site_fract_z
Zn1	Zn	-0.384013	-1.125109	0.416124
Zn2	Zn	-0.545323	-1.125033	0.293061
Zn3	Zn	-0.384045	-1.002041	0.293072
Zn4	Zn	-0.545269	-1.002023	0.416086
O5	O	-0.464663	-1.063551	0.354586
O6	O	-0.405421	-1.228083	0.399811
O7	O	-0.523965	-1.108693	0.190078
O8	O	-0.249059	-1.018406	0.309415
O9	O	-0.523934	-1.228027	0.309398
O10	O	-0.249036	-1.108823	0.399821
O11	O	-0.405474	-1.018332	0.190086
O12	O	-0.405422	-0.899055	0.309378
O13	O	-0.523843	-1.018374	0.519076
O14	O	-0.523873	-0.899041	0.399757
O15	O	-0.405369	-1.108805	0.519103
O16	O	-0.680297	-1.108675	0.309361
O17	O	-0.680258	-1.018300	0.399747
C18	C	-0.715277	-1.063498	0.354565
C19	C	-0.822491	-1.063542	0.354580
C20	C	-0.464646	-0.872345	0.354565
C21	C	-0.464662	-0.790546	0.354573
C22	C	-0.464596	-1.063596	0.546539
C23	C	-0.464568	-1.063615	0.628338
C24	C	-1.018786	-1.063619	0.354626
C25	C	-0.909553	-1.063574	0.354603
C26	C	-0.213070	-1.063625	0.354623
C27	C	-0.105856	-1.063657	0.354639
C28	C	-0.464680	-1.255504	0.354607
C29	C	-0.464687	-1.337303	0.354617
C30	C	-0.526437	-0.602364	0.401574
C31	C	-0.526440	-0.525506	0.401583
C32	C	-0.402906	-0.525490	0.307614
C33	C	-0.402899	-0.602348	0.307609
C34	C	-0.464670	-0.640783	0.354588
C35	C	-0.464680	-0.487067	0.354602
C36	C	-0.464683	-0.403733	0.354612
C37	C	-0.464666	-0.724122	0.354579
C38	C	-0.464659	-1.063549	0.163380
C39	C	-0.464416	-1.063672	0.081581
C40	C	-0.402821	-1.110720	0.816547
C41	C	-0.402792	-1.110728	0.893406
C42	C	-0.526166	-1.016563	0.893366
C43	C	-0.526188	-1.016551	0.816509
C44	C	-0.464517	-1.063634	0.778101
C45	C	-0.464466	-1.063654	0.931818
C46	C	-0.464436	-1.063663	1.015151
C47	C	-0.464546	-1.063624	0.694762
H48	H	-0.576732	-0.633656	0.439829
H49	H	-0.576378	-0.978232	0.924647
F50	F	-0.337170	-0.484579	0.257617
F51	F	-0.592179	-0.484621	0.451594
F52	F	-0.337149	-0.643238	0.257601
F53	F	-0.337182	-1.160827	0.775674
F54	F	-0.337133	-1.160849	0.934320
F55	F	-0.591853	-0.966430	0.775589
