data_functionalizedCrystal
_audit_creation_method	'MofGen! by Chris Wilmer'
_symmetry_space_group_name_H-M	'P1'
_symmetry_Int_Tables_number	1
_symmetry_cell_setting	triclinic
loop_
_symmetry_equiv_pos_as_xyz
  x,y,z
_cell_length_a	9.565339
_cell_length_b	8.559649
_cell_length_c	8.559649
_cell_angle_alpha	69.778664
_cell_angle_beta	90.001910
_cell_angle_gamma	89.997257
loop_
_atom_site_label
_atom_site_type_symbol
_atom_site_fract_x
_atom_site_fract_y
_atom_site_fract_z
O1	O	0.116238	-2.126882	0.055047
O2	O	0.116243	-1.651397	-0.028735
O3	O	0.116239	-1.931030	0.250898
O4	O	0.116243	-1.847249	-0.224586
O5	O	-0.116281	-1.931009	0.250880
O6	O	-0.116277	-1.651376	-0.028753
O7	O	-0.116282	-2.126860	0.055029
Zn8	Zn	-0.153197	-1.889115	0.013135
Zn9	Zn	0.153158	-1.889143	0.013159
O10	O	-0.116277	-1.847227	-0.224604
C11	C	-0.000016	-1.591077	-0.035093
C12	C	-0.000014	-1.411378	-0.053992
C13	C	-0.000019	-1.937369	0.311198
C14	C	-0.000011	-1.956268	0.490898
N15	N	-0.362276	-1.889107	0.013121
C16	C	-0.453477	-1.759756	-0.116166
C17	C	-0.546658	-1.902491	-0.129655
C18	C	-0.546651	-1.746434	0.026606
C19	C	-0.453405	-2.031907	-0.000432
C20	C	-0.453390	-1.875762	0.155881
C21	C	-0.546529	-2.018610	0.142467
N22	N	0.362238	-1.889165	0.013187
C23	C	-0.000020	-2.187180	0.061387
C24	C	-0.000013	-2.366879	0.080286
C25	C	-0.000017	-1.840889	-0.284904
C26	C	-0.000015	-1.821990	-0.464604
H27	H	-0.412621	-1.650445	-0.225578
H28	H	-0.587624	-1.913819	-0.250353
H29	H	-0.000024	-2.085696	0.590286
C30	C	-0.600755	-2.164407	0.288485
C31	C	-0.681236	-2.104458	0.392273
C32	C	-0.731198	-2.238718	0.526805
H33	H	-0.656759	-2.234003	0.248251
H34	H	-0.524037	-2.226540	0.349597
H35	H	-0.757944	-2.042353	0.331171
H36	H	-0.625262	-2.034879	0.432549
H37	H	-0.654480	-2.300850	0.587917
H38	H	-0.787196	-2.308304	0.486555
H39	H	-0.785799	-2.198061	0.597249
C40	C	-0.398760	-2.192633	-0.016011
C41	C	-0.252396	-2.190652	-0.016038
C42	C	-0.202007	-2.338642	-0.030475
H43	H	-0.431187	-2.284707	0.075283
H44	H	-0.431422	-2.202275	-0.117108
H45	H	-0.219748	-2.181028	0.085047
H46	H	-0.219933	-2.098610	-0.107328
H47	H	-0.234668	-2.348284	-0.131572
H48	H	-0.234443	-2.430705	0.060823
H49	H	-0.102695	-2.337311	-0.030510
H50	H	-0.000018	-1.692570	0.436018
H51	H	-0.412391	-1.864383	0.276534
C52	C	-0.000225	-1.279044	-0.226677
C53	C	-0.119834	-1.297394	-0.313042
C54	C	-0.120066	-1.175534	-0.472127
H55	H	-0.000292	-1.171741	-0.217113
H56	H	0.080818	-1.291260	-0.285587
H57	H	-0.200856	-1.285164	-0.254146
H58	H	-0.119792	-1.404672	-0.322652
H59	H	-0.039023	-1.187750	-0.531037
H60	H	-0.120129	-1.068239	-0.462546
H61	H	-0.201212	-1.187978	-0.530750
C62	C	-0.601067	-1.585342	0.041549
C63	C	-0.553887	-1.450329	-0.094138
C64	C	-0.603964	-1.301900	-0.080431
H65	H	-0.700365	-1.586704	0.042422
H66	H	-0.567717	-1.574864	0.142013
H67	H	-0.587245	-1.460804	-0.194576
H68	H	-0.454595	-1.448912	-0.095037
H69	H	-0.570614	-1.291421	0.020033
H70	H	-0.703261	-1.303280	-0.079555
H71	H	-0.571949	-1.210275	-0.172482
C72	C	0.000274	-1.499308	0.252902
C73	C	0.119918	-1.481006	0.339235
C74	C	0.120240	-1.602993	0.498247
H75	H	-0.080716	-1.487232	0.311936
H76	H	0.000348	-1.606559	0.243167
H77	H	0.119831	-1.373781	0.348977
H78	H	0.200927	-1.493098	0.280252
H79	H	0.120314	-1.710244	0.488512
H80	H	0.039245	-1.590908	0.557264
H81	H	0.201423	-1.590602	0.556837
