data_functionalizedCrystal
_audit_creation_method	'MofGen! by Chris Wilmer'
_symmetry_space_group_name_H-M	'P1'
_symmetry_Int_Tables_number	1
_symmetry_cell_setting	triclinic
loop_
_symmetry_equiv_pos_as_xyz
  x,y,z
_cell_length_a	21.295417
_cell_length_b	16.625547
_cell_length_c	16.625539
_cell_angle_alpha	90.023545
_cell_angle_beta	89.968491
_cell_angle_gamma	89.970308
loop_
_atom_site_label
_atom_site_type_symbol
_atom_site_fract_x
_atom_site_fract_y
_atom_site_fract_z
Zn1	Zn	-0.250633	-1.232608	-0.456021
Zn2	Zn	0.082700	-0.899274	-0.122687
Zn3	Zn	0.416033	-0.565941	0.210646
Zn4	Zn	-0.355903	-1.232500	-0.321176
Zn5	Zn	-0.022570	-0.899167	0.012158
Zn6	Zn	0.310763	-0.565833	0.345491
Zn7	Zn	-0.250650	-1.097778	-0.321186
Zn8	Zn	0.082683	-0.764444	0.012148
Zn9	Zn	0.416016	-0.431111	0.345481
Zn10	Zn	-0.355867	-1.097721	-0.455950
Zn11	Zn	-0.022534	-0.764387	-0.122617
Zn12	Zn	0.310800	-0.431054	0.210716
O13	O	-0.303264	-1.165151	-0.388583
O14	O	0.030070	-0.831818	-0.055250
O15	O	0.363403	-0.498485	0.278084
O16	O	-0.264606	-1.345426	-0.438158
O17	O	0.068728	-1.012092	-0.104825
O18	O	0.402061	-0.678759	0.228508
O19	O	-0.341964	-1.214608	-0.208345
O20	O	-0.008630	-0.881274	0.124989
O21	O	0.324703	-0.547941	0.458322
O22	O	-0.162559	-1.115732	-0.339105
O23	O	0.170775	-0.782398	-0.005772
O24	O	0.504108	-0.449065	0.327561
O25	O	-0.341947	-1.345347	-0.339088
O26	O	-0.008614	-1.012013	-0.005755
O27	O	0.324720	-0.678680	0.327578
O28	O	-0.162546	-1.214791	-0.438168
O29	O	0.170787	-0.881457	-0.104835
O30	O	0.504121	-0.548124	0.228499
O31	O	-0.264635	-1.115628	-0.208352
O32	O	0.068699	-0.782294	0.124981
O33	O	0.402032	-0.448961	0.458315
O34	O	-0.264600	-0.984938	-0.339037
O35	O	0.068734	-0.651604	-0.005704
O36	O	0.402067	-0.318271	0.327629
O37	O	-0.341885	-1.115635	-0.568792
O38	O	-0.008552	-0.782302	-0.235459
O39	O	0.324781	-0.448968	0.097875
O40	O	-0.341902	-0.984896	-0.438048
O41	O	-0.008569	-0.651563	-0.104715
O42	O	0.324765	-0.318229	0.228618
O43	O	-0.264570	-1.214736	-0.568844
O44	O	0.068763	-0.881402	-0.235510
O45	O	0.402096	-0.548069	0.097823
O46	O	-0.443988	-1.214553	-0.339020
O47	O	-0.110655	-0.881219	-0.005687
O48	O	0.222679	-0.547886	0.327646
O49	O	-0.443961	-1.115531	-0.438039
O50	O	-0.110628	-0.782198	-0.104705
O51	O	0.222705	-0.448864	0.228628
C52	C	-0.303249	-0.955661	-0.388537
C53	C	0.030084	-0.622327	-0.055204
C54	C	0.363418	-0.288994	0.278130
C55	C	-0.303258	-0.866040	-0.388536
C56	C	0.030075	-0.532706	-0.055203
C57	C	0.363409	-0.199373	0.278130
C58	C	-0.303259	-0.793257	-0.388543
C59	C	0.030075	-0.459924	-0.055210
C60	C	0.363408	-0.126590	0.278123
C61	C	-0.303261	-0.701949	-0.388560
C62	C	0.030072	-0.368615	-0.055227
C63	C	0.363406	-0.035282	0.278107
C64	C	-0.303266	-0.629172	-0.388578
C65	C	0.030067	-0.295839	-0.055244
C66	C	0.363401	0.037494	0.278089
C67	C	-0.303269	-0.537858	-0.388593
C68	C	0.030064	-0.204525	-0.055260
C69	C	0.363397	0.128809	0.278073
C70	C	-0.466815	-1.165046	-0.388538
C71	C	-0.133482	-0.831712	-0.055205
C72	C	0.199852	-0.498379	0.278128
C73	C	-0.536783	-1.165074	-0.388546
C74	C	-0.203450	-0.831741	-0.055213
C75	C	0.129883	-0.498408	0.278120
C76	C	-0.569643	-1.216681	-0.337040
C77	C	-0.236309	-0.883347	-0.003707
C78	C	0.097024	-0.550014	0.329626
C79	C	-0.635385	-1.216719	-0.337058
C80	C	-0.302052	-0.883385	-0.003725
C81	C	0.031281	-0.550052	0.329608
C82	C	-0.668266	-1.165136	-0.388574
C83	C	-0.334932	-0.831802	-0.055241
C84	C	-0.001599	-0.498469	0.278093
C85	C	-0.635398	-1.113525	-0.440090
C86	C	-0.302065	-0.780192	-0.106757
C87	C	0.031268	-0.446859	0.226577
C88	C	-0.569657	-1.113495	-0.440076
C89	C	-0.236324	-0.780162	-0.106743
C90	C	0.097010	-0.446828	0.226590
N91	N	-0.771531	-1.094600	-0.394705
N92	N	-0.438197	-0.761267	-0.061372
N93	N	-0.104864	-0.427933	0.271961
N94	N	-0.833982	-1.094632	-0.394714
N95	N	-0.500649	-0.761298	-0.061381
N96	N	-0.167316	-0.427965	0.271953
C97	C	-0.866340	-1.165226	-0.388620
C98	C	-0.533007	-0.831893	-0.055287
C99	C	-0.199674	-0.498559	0.278046
N100	N	-0.833888	-1.235789	-0.382502
N101	N	-0.500555	-0.902456	-0.049169
N102	N	-0.167221	-0.569123	0.284164
N103	N	-0.771431	-1.235757	-0.382490
N104	N	-0.438097	-0.902424	-0.049156
N105	N	-0.104764	-0.569090	0.284177
C106	C	-0.739551	-1.165163	-0.388595
C107	C	-0.406218	-0.831830	-0.055262
C108	C	-0.072884	-0.498497	0.278071
C109	C	-0.970486	-1.216878	-0.337131
C110	C	-0.637152	-0.883544	-0.003798
C111	C	-0.303819	-0.550211	0.329535
C112	C	-1.036229	-1.216917	-0.337155
C113	C	-0.702896	-0.883583	-0.003822
C114	C	-0.369563	-0.550250	0.329512
C115	C	-1.036241	-1.113716	-0.440183
C116	C	-0.702908	-0.780383	-0.106849
C117	C	-0.369574	-0.447050	0.226484
C118	C	-0.970498	-1.113685	-0.440163
C119	C	-0.637165	-0.780351	-0.106830
C120	C	-0.303832	-0.447018	0.226504
C121	C	-0.937625	-1.165264	-0.388633
C122	C	-0.604291	-0.831931	-0.055300
C123	C	-0.270958	-0.498597	0.278034
C124	C	-0.139073	-1.165280	-0.388646
C125	C	0.194260	-0.831946	-0.055312
C126	C	0.527593	-0.498613	0.278021
C127	C	-0.069105	-1.165334	-0.388672
C128	C	0.264228	-0.832001	-0.055339
C129	C	0.597562	-0.498667	0.277994
C130	C	-0.303222	-1.165191	-0.598892
C131	C	0.030111	-0.831858	-0.265559
C132	C	0.363445	-0.498524	0.067775
C133	C	-0.303204	-1.165208	-0.688513
C134	C	0.030129	-0.831875	-0.355180
C135	C	0.363462	-0.498541	-0.021847
C136	C	-0.303276	-0.375460	-0.388620
C137	C	0.030058	-0.042127	-0.055287
C138	C	0.363391	0.291206	0.278046
C139	C	-0.303275	-0.465081	-0.388611
C140	C	0.030059	-0.131748	-0.055278
C141	C	0.363392	0.201585	0.278056
C142	C	-0.303190	-1.165221	-0.761296
C143	C	0.030143	-0.831888	-0.427962
C144	C	0.363476	-0.498554	-0.094629
C145	C	-0.303167	-1.165240	-0.852604
C146	C	0.030166	-0.831907	-0.519271
C147	C	0.363500	-0.498573	-0.185938
C148	C	-0.303145	-1.165259	-0.925381
C149	C	0.030189	-0.831926	-0.592047
C150	C	0.363522	-0.498592	-0.258714
C151	C	-0.303122	-1.165279	-1.016695
C152	C	0.030211	-0.831946	-0.683362
C153	C	0.363545	-0.498612	-0.350028
C154	C	-0.303259	-1.165159	-0.179092
C155	C	0.030074	-0.831825	0.154241
C156	C	0.363407	-0.498492	0.487574
C157	C	-0.303100	-1.165298	-0.089472
C158	C	0.030233	-0.831965	0.243862
C159	C	0.363567	-0.498631	0.577195
H160	H	-0.662145	-1.258746	-0.295116
H161	H	-0.328811	-0.925412	0.038217
H162	H	0.004522	-0.592079	0.371550
H163	H	-0.943742	-1.071658	-0.482101
H164	H	-0.610409	-0.738325	-0.148767
H165	H	-0.277076	-0.404992	0.184566
N166	N	-0.668992	-1.060833	-0.492699
N167	N	-0.335659	-0.727499	-0.159366
N168	N	-0.002325	-0.394166	0.173967
N169	N	-0.705726	-1.009488	-0.464281
N170	N	-0.372393	-0.676154	-0.130948
N171	N	-0.039060	-0.342821	0.202385
H172	H	-0.729453	-0.972273	-0.501440
H173	H	-0.396119	-0.638940	-0.168106
H174	H	-0.062786	-0.305607	0.165227
H175	H	-0.542902	-1.071470	-0.482020
H176	H	-0.209569	-0.738137	-0.148686
H177	H	0.123765	-0.404803	0.184647
N178	N	-0.936888	-1.269561	-0.284511
N179	N	-0.603555	-0.936228	0.048823
N180	N	-0.270222	-0.602894	0.382156
N181	N	-0.900251	-1.241210	-0.233094
N182	N	-0.566917	-0.907876	0.100240
N183	N	-0.233584	-0.574543	0.433573
H184	H	-0.876522	-1.278418	-0.195932
H185	H	-0.543188	-0.945085	0.137401
H186	H	-0.209855	-0.611752	0.470735
H187	H	-0.542879	-1.258682	-0.295084
H188	H	-0.209546	-0.925348	0.038250
H189	H	0.123788	-0.592015	0.371583
H190	H	-1.062982	-1.258946	-0.295214
H191	H	-0.729649	-0.925613	0.038119
H192	H	-0.396316	-0.592279	0.371452
N193	N	-1.069829	-1.061035	-0.492805
N194	N	-0.736495	-0.727701	-0.159472
N195	N	-0.403162	-0.394368	0.173861
N196	N	-1.128526	-1.061070	-0.492814
N197	N	-0.795192	-0.727737	-0.159481
N198	N	-0.461859	-0.394403	0.173853
H199	H	-1.152251	-1.023864	-0.529982
H200	H	-0.818918	-0.690531	-0.196649
H201	H	-0.485584	-0.357197	0.136685
