data_functionalizedCrystal
_audit_creation_method	'MofGen! by Chris Wilmer'
_symmetry_space_group_name_H-M	'P1'
_symmetry_Int_Tables_number	1
_symmetry_cell_setting	triclinic
loop_
_symmetry_equiv_pos_as_xyz
  x,y,z
_cell_length_a	12.759400
_cell_length_b	12.759401
_cell_length_c	12.759393
_cell_angle_alpha	90.022497
_cell_angle_beta	89.976116
_cell_angle_gamma	89.995733
loop_
_atom_site_label
_atom_site_type_symbol
_atom_site_fract_x
_atom_site_fract_y
_atom_site_fract_z
Zn1	Zn	-0.418192	-1.606349	-0.594112
Zn2	Zn	0.081808	-1.106349	-0.094112
Zn3	Zn	-0.593908	-1.606274	-0.418453
Zn4	Zn	-0.093908	-1.106274	0.081547
Zn5	Zn	-0.418246	-1.430647	-0.418442
Zn6	Zn	0.081754	-0.930647	0.081558
Zn7	Zn	-0.593832	-1.430674	-0.594085
Zn8	Zn	-0.093832	-0.930674	-0.094085
O9	O	-0.506045	-1.518486	-0.506273
O10	O	-0.006045	-1.018486	-0.006273
O11	O	-0.441511	-1.753360	-0.570826
O12	O	0.058489	-1.253360	-0.070826
O13	O	-0.570660	-1.582935	-0.271430
O14	O	-0.070660	-1.082935	0.228570
O15	O	-0.271218	-1.453975	-0.441753
O16	O	0.228782	-0.953975	0.058247
O17	O	-0.570608	-1.753305	-0.441770
O18	O	-0.070608	-1.253305	0.058230
O19	O	-0.271178	-1.583061	-0.570816
O20	O	0.228822	-1.083061	-0.070816
O21	O	-0.441602	-1.453902	-0.271423
O22	O	0.058398	-0.953902	0.228577
O23	O	-0.441529	-1.283630	-0.441726
O24	O	0.058471	-0.783630	0.058274
O25	O	-0.570479	-1.454019	-0.741110
O26	O	-0.070479	-0.954019	-0.241110
O27	O	-0.570531	-1.283649	-0.570770
O28	O	-0.070531	-0.783649	-0.070770
O29	O	-0.441437	-1.583087	-0.741130
O30	O	0.058563	-1.083087	-0.241130
O31	O	-0.740919	-1.582960	-0.441743
O32	O	-0.240919	-1.082960	0.058257
O33	O	-0.740863	-1.453947	-0.570780
O34	O	-0.240863	-0.953947	-0.070780
C35	C	-0.506028	-1.245519	-0.506245
C36	C	-0.006028	-0.745519	-0.006245
C37	C	-0.506047	-1.128742	-0.506258
C38	C	-0.006047	-0.628742	-0.006258
C39	C	-0.573320	-1.073918	-0.573343
C40	C	-0.073320	-0.573918	-0.073343
C41	C	-0.573323	-0.964194	-0.573361
C42	C	-0.073323	-0.464194	-0.073361
C43	C	-0.438776	-0.964128	-0.439198
C44	C	0.061224	-0.464128	0.060802
C45	C	-0.438769	-1.073850	-0.439187
C46	C	0.061231	-0.573850	0.060813
C47	C	-0.779012	-1.518477	-0.506283
C48	C	-0.279012	-1.018477	-0.006283
C49	C	-0.895789	-1.518569	-0.506322
C50	C	-0.395789	-1.018569	-0.006322
C51	C	-0.232011	-1.518523	-0.506286
C52	C	0.267989	-1.018523	-0.006286
C53	C	-0.115235	-1.518539	-0.506292
C54	C	0.384765	-1.018539	-0.006292
C55	C	-0.060392	-1.451342	-0.439101
C56	C	0.439608	-0.951342	0.060899
C57	C	0.049332	-1.451354	-0.439118
C58	C	0.549332	-0.951354	0.060882
C59	C	0.049361	-1.585770	-0.573520
C60	C	0.549361	-1.085770	-0.073520
C61	C	-0.060361	-1.585752	-0.573508
C62	C	0.439639	-1.085752	-0.073508
C63	C	-0.505944	-1.518565	-0.780306
C64	C	-0.005944	-1.018565	-0.280306
C65	C	-0.505901	-1.518598	-0.897083
C66	C	-0.005901	-1.018598	-0.397083
C67	C	-0.506059	-0.792519	-0.506295
C68	C	-0.006059	-0.292519	-0.006295
C69	C	-0.506057	-0.909296	-0.506287
C70	C	-0.006057	-0.409296	-0.006287
C71	C	-0.438698	-1.585808	-0.951957
C72	C	0.061302	-1.085808	-0.451957
C73	C	-0.438653	-1.585826	-1.061681
C74	C	0.061347	-1.085826	-0.561681
C75	C	-0.573022	-1.451420	-1.061648
C76	C	-0.073022	-0.951420	-0.561648
C77	C	-0.573061	-1.451398	-0.951926
C78	C	-0.073061	-0.951398	-0.451926
C79	C	-0.506069	-1.518468	-0.233306
C80	C	-0.006069	-1.018468	0.266694
C81	C	-0.505816	-1.518638	-0.116529
C82	C	-0.005816	-1.018638	0.383471
H83	H	-0.384002	-0.919421	-0.384590
H84	H	0.115998	-0.419421	0.115410
H85	H	0.093983	-1.396634	-0.384407
H86	H	0.593983	-0.896634	0.115593
Br87	Br	-0.347550	-1.677006	-0.877531
Br88	Br	0.152450	-1.177006	-0.377531
Br89	Br	-0.134860	-1.360123	-0.347883
Br90	Br	0.365140	-0.860123	0.152117
H91	H	-0.627704	-1.396710	-1.106314
H92	H	-0.127704	-0.896710	-0.606314
Br93	Br	0.123838	-1.676979	-0.664740
Br94	Br	0.623838	-1.176979	-0.164740
Br95	Br	-0.347453	-1.148262	-0.348145
Br96	Br	0.152547	-0.648262	0.151855
H97	H	-0.383928	-1.640554	-1.106355
H98	H	0.116072	-1.140554	-0.606355
H99	H	-0.627785	-1.396660	-0.907246
H100	H	-0.127785	-0.896660	-0.407246
H101	H	-0.628099	-1.118607	-0.627960
H102	H	-0.128099	-0.618607	-0.127960
Br103	Br	-0.664621	-0.889793	-0.664415
Br104	Br	-0.164621	-0.389793	-0.164415
H105	H	-0.105016	-1.640472	-0.628230
H106	H	0.394984	-1.140472	-0.128230
