data_functionalizedCrystal
_audit_creation_method	'MofGen! by Chris Wilmer'
_symmetry_space_group_name_H-M	'P1'
_symmetry_Int_Tables_number	1
_symmetry_cell_setting	triclinic
loop_
_symmetry_equiv_pos_as_xyz
  x,y,z
_cell_length_a	6.817900
_cell_length_b	10.992421
_cell_length_c	10.992410
_cell_angle_alpha	91.831025
_cell_angle_beta	108.764651
_cell_angle_gamma	108.764763
loop_
_atom_site_label
_atom_site_type_symbol
_atom_site_fract_x
_atom_site_fract_y
_atom_site_fract_z
V1	V	-4.114248	-0.177761	-0.400575
O2	O	-4.072376	0.008542	-0.392968
O3	O	-4.091827	-0.352470	-0.397818
O4	O	-4.091840	-0.175026	-0.575288
O5	O	-4.072363	-0.170129	-0.214270
V6	V	-4.591142	-0.155477	-0.378294
O7	O	-4.390048	-0.226642	-0.449452
O8	O	-4.765539	-0.106595	-0.329417
O9	O	-4.390356	0.019232	-0.381051
O10	O	-4.750411	-0.341780	-0.385901
O11	O	-4.750424	-0.163108	-0.564599
O12	O	-4.390343	-0.158211	-0.203581
C13	C	-3.942307	-0.395060	-0.391494
C14	C	-4.005435	-0.537887	-0.390404
C15	C	-3.873099	-0.733174	-0.381618
C16	C	-3.807017	-0.584530	-0.382242
C17	C	-4.076044	-0.576522	-0.270588
C18	C	-4.140279	-0.725065	-0.269320
C19	C	-4.271785	-0.763647	-0.514935
C20	C	-4.202731	-0.615133	-0.517535
C21	C	-3.942322	-0.168712	-0.617873
C22	C	-4.005457	-0.167632	-0.760702
C23	C	-3.872580	-0.157795	-0.955826
C24	C	-3.807029	-0.159451	-0.807343
C25	C	-4.203473	-0.294312	-0.837793
C26	C	-4.267786	-0.293192	-0.986360
C27	C	-4.145552	-0.047893	-0.948352
C28	C	-4.074843	-0.047293	-0.799340
C29	C	-4.203219	0.061816	-0.387371
C30	C	-4.119331	0.204641	-0.388470
C31	C	-4.203203	-0.164530	-0.160989
C32	C	-4.119306	-0.165603	-0.018159
H33	H	-4.221676	-0.546286	-0.271970
Cl34	Cl	-3.577772	-0.018841	-0.724999
H35	H	-3.847276	-0.779594	-0.466700
H36	H	-4.449788	-0.304208	-1.028990
H37	H	-3.757306	-0.753734	-0.290415
Cl38	Cl	-3.853669	0.097397	-0.718527
H39	H	-4.324536	-0.052498	-0.989193
H40	H	-4.352513	-0.584926	-0.530916
Cl41	Cl	-4.435652	-0.310624	-0.793330
Cl42	Cl	-3.834068	-0.288376	-1.029899
Cl43	Cl	-3.718767	-0.291851	-0.769010
Cl44	Cl	-3.577461	-0.503553	-0.241315
Cl45	Cl	-4.262011	-0.840102	-0.654911
H46	H	-4.451634	-0.804764	-0.521215
Cl47	Cl	-4.132832	-0.432261	-0.798251
H48	H	-3.755376	-0.066081	-0.974664
Cl49	Cl	-4.412331	-0.788192	-0.269027
Cl50	Cl	-3.718794	-0.544744	-0.514413
Cl51	Cl	-3.969217	-0.752112	-0.122444
Cl52	Cl	-3.858990	-0.492789	-0.125273
Cl53	Cl	-4.243760	-0.430796	-1.057789
Cl54	Cl	-3.986666	0.100630	-0.979801
H55	H	-4.153731	-0.591237	-0.606180
H56	H	-4.216956	-0.045805	-0.766828
