data_functionalizedCrystal
_audit_creation_method	'MofGen! by Chris Wilmer'
_symmetry_space_group_name_H-M	'P1'
_symmetry_Int_Tables_number	1
_symmetry_cell_setting	triclinic
loop_
_symmetry_equiv_pos_as_xyz
  x,y,z
_cell_length_a	21.395362
_cell_length_b	21.395362
_cell_length_c	21.395355
_cell_angle_alpha	89.956060
_cell_angle_beta	90.020549
_cell_angle_gamma	89.954332
loop_
_atom_site_label
_atom_site_type_symbol
_atom_site_fract_x
_atom_site_fract_y
_atom_site_fract_z
Zn1	Zn	0.249246	0.957863	-0.354577
Zn2	Zn	0.582579	1.291197	-0.021243
Zn3	Zn	0.915912	1.624530	0.312090
Zn4	Zn	0.354005	0.957768	-0.249796
Zn5	Zn	0.687339	1.291101	0.083538
Zn6	Zn	1.020672	1.624434	0.416871
Zn7	Zn	0.249275	0.853078	-0.249778
Zn8	Zn	0.582608	1.186412	0.083555
Zn9	Zn	0.915941	1.519745	0.416889
Zn10	Zn	0.354018	0.853049	-0.354500
Zn11	Zn	0.687352	1.186383	-0.021167
Zn12	Zn	1.020685	1.519716	0.312166
O13	O	0.301636	0.905440	-0.302163
O14	O	0.634969	1.238773	0.031171
O15	O	0.968303	1.572106	0.364504
O16	O	0.263125	1.045529	-0.340717
O17	O	0.596458	1.378862	-0.007383
O18	O	0.929791	1.712195	0.325950
O19	O	0.340119	0.943852	-0.162115
O20	O	0.673453	1.277186	0.171218
O21	O	1.006786	1.610519	0.504551
O22	O	0.161593	0.867031	-0.263704
O23	O	0.494926	1.200364	0.069629
O24	O	0.828260	1.533697	0.402962
O25	O	0.340091	1.045458	-0.263734
O26	O	0.673425	1.378792	0.069599
O27	O	1.006758	1.712125	0.402932
O28	O	0.161572	0.944016	-0.340700
O29	O	0.494905	1.277349	-0.007366
O30	O	0.828238	1.610682	0.325967
O31	O	0.263174	0.866938	-0.162102
O32	O	0.596508	1.200271	0.171231
O33	O	0.929841	1.533604	0.504564
O34	O	0.263187	0.765397	-0.263630
O35	O	0.596520	1.098730	0.069703
O36	O	0.929853	1.432063	0.403036
O37	O	0.340113	0.866981	-0.442188
O38	O	0.673446	1.200314	-0.108855
O39	O	1.006780	1.533648	0.224478
O40	O	0.340141	0.765375	-0.340569
O41	O	0.673475	1.098709	-0.007236
O42	O	1.006808	1.432042	0.326097
O43	O	0.263137	0.943988	-0.442245
O44	O	0.596470	1.277321	-0.108911
O45	O	0.929804	1.610654	0.224422
O46	O	0.441685	0.943824	-0.263660
O47	O	0.775018	1.277158	0.069673
O48	O	1.108352	1.610491	0.403006
O49	O	0.441695	0.866888	-0.340586
O50	O	0.775028	1.200221	-0.007253
O51	O	1.108361	1.533555	0.326080
C52	C	0.301669	0.742652	-0.302090
C53	C	0.635002	1.075985	0.031243
C54	C	0.968336	1.409319	0.364577
C55	C	0.301698	0.673011	-0.302074
C56	C	0.635032	1.006344	0.031260
C57	C	0.968365	1.339677	0.364593
C58	C	0.464424	0.905360	-0.302130
C59	C	0.797757	1.238693	0.031203
C60	C	1.131090	1.572026	0.364536
C61	C	0.534065	0.905383	-0.302138
C62	C	0.867398	1.238716	0.031196
C63	C	1.200732	1.572049	0.364529
C64	C	0.341822	0.640303	-0.342076
C65	C	0.675155	0.973636	-0.008743
C66	C	1.008488	1.306970	0.324591
C67	C	0.341806	0.574867	-0.342104
C68	C	0.675140	0.908201	-0.008770
C69	C	1.008473	1.241534	0.324563
C70	C	0.301674	0.542142	-0.302118
C71	C	0.635008	0.875476	0.031215
C72	C	0.968341	1.208809	0.364548
C73	C	0.261543	0.574858	-0.262113
C74	C	0.594876	0.908192	0.071220
C75	C	0.928210	1.241525	0.404553
C76	C	0.261555	0.640292	-0.262091
C77	C	0.594888	0.973626	0.071242
C78	C	0.928222	1.306959	0.404576
C79	C	0.296627	0.438418	-0.245713
C80	C	0.629960	0.771751	0.087620
C81	C	0.963293	1.105084	0.420953
C82	C	0.296619	0.372985	-0.245735
C83	C	0.629952	0.706318	0.087599
C84	C	0.963286	1.039651	0.420932
C85	C	0.301633	0.340322	-0.302188
C86	C	0.634967	0.673655	0.031146
C87	C	0.968300	1.006988	0.364479
C88	C	0.306668	0.373100	-0.358621
C89	C	0.640002	0.706433	-0.025288
C90	C	0.973335	1.039767	0.308046
C91	C	0.306681	0.438534	-0.358599
C92	C	0.640014	0.771867	-0.025265
C93	C	0.973347	1.105201	0.308068
C94	C	0.301656	0.471190	-0.302138
C95	C	0.634990	0.804523	0.031195
C96	C	0.968323	1.137857	0.364528
C97	C	0.341742	0.236661	-0.342223
C98	C	0.675076	0.569995	-0.008890
C99	C	1.008409	0.903328	0.324443
C100	C	0.341723	0.171225	-0.342252
C101	C	0.675056	0.504558	-0.008919
C102	C	1.008389	0.837891	0.324414
C103	C	0.261462	0.171217	-0.262256
C104	C	0.594796	0.504550	0.071077
C105	C	0.928129	0.837884	0.404410
C106	C	0.261479	0.236652	-0.262233
C107	C	0.594812	0.569985	0.071100
C108	C	0.928146	0.903319	0.404434
C109	C	0.301622	0.269371	-0.302216
C110	C	0.634956	0.602704	0.031118
C111	C	0.968289	0.936037	0.364451
C112	C	0.138213	0.905537	-0.302209
C113	C	0.471546	1.238871	0.031125
C114	C	0.804879	1.572204	0.364458
C115	C	0.068571	0.905579	-0.302228
C116	C	0.401905	1.238912	0.031105
C117	C	0.735238	1.572245	0.364438
C118	C	0.566710	0.945446	-0.342258
C119	C	0.900043	1.278779	-0.008924
C120	C	1.233377	1.612112	0.324409
C121	C	0.632145	0.945468	-0.342273
C122	C	0.965479	1.278801	-0.008940
C123	C	1.298812	1.612135	0.324394
C124	C	0.664933	0.905433	-0.302157
C125	C	0.998267	1.238767	0.031176
C126	C	1.331600	1.572100	0.364510
C127	C	0.632280	0.865362	-0.262034
C128	C	0.965614	1.198696	0.071299
C129	C	1.298947	1.532029	0.404632
C130	C	0.566846	0.865337	-0.262025
C131	C	0.900179	1.198670	0.071309
C132	C	1.233513	1.532004	0.404642
C133	C	0.768635	0.900556	-0.245717
C134	C	1.101968	1.233890	0.087617
C135	C	1.435301	1.567223	0.420950
C136	C	0.834068	0.900586	-0.245725
C137	C	1.167401	1.233919	0.087608
C138	C	1.500734	1.567253	0.420941
C139	C	0.866754	0.905508	-0.302187
C140	C	1.200087	1.238841	0.031146
C141	C	1.533421	1.572174	0.364479
C142	C	0.833999	0.910413	-0.358643
C143	C	1.167332	1.243746	-0.025309
C144	C	1.500666	1.577080	0.308024
C145	C	0.768565	0.910388	-0.358633
C146	C	1.101898	1.243721	-0.025300
C147	C	1.435232	1.577054	0.308034
C148	C	0.735886	0.905456	-0.302163
C149	C	1.069219	1.238789	0.031170
C150	C	1.402552	1.572123	0.364503
C151	C	0.970351	0.945597	-0.342327
C152	C	1.303685	1.278930	-0.008994
C153	C	1.637018	1.612264	0.324339
C154	C	1.035788	0.945614	-0.342344
C155	C	1.369121	1.278948	-0.009010
C156	C	1.702455	1.612281	0.324323
C157	C	1.035922	0.865512	-0.262100
C158	C	1.369255	1.198846	0.071234
C159	C	1.702588	1.532179	0.404567
C160	C	0.970486	0.865491	-0.262089
C161	C	1.303820	1.198825	0.071245
C162	C	1.637153	1.532158	0.404578
C163	C	0.937705	0.905537	-0.302202
C164	C	1.271038	1.238870	0.031131
C165	C	1.604372	1.572204	0.364465
C166	C	0.301623	0.905492	-0.465586
C167	C	0.634957	1.238825	-0.132253
C168	C	0.968290	1.572158	0.201081
C169	C	0.301618	0.905514	-0.535227
C170	C	0.634951	1.238847	-0.201894
C171	C	0.968285	1.572181	0.131439
C172	C	0.301603	1.068863	-0.302236
C173	C	0.634937	1.402196	0.031097
C174	C	0.968270	1.735530	0.364431
C175	C	0.301589	1.138504	-0.302267
C176	C	0.634923	1.471838	0.031066
C177	C	0.968256	1.805171	0.364399
C178	C	0.261535	0.945609	-0.567971
C179	C	0.594868	1.278943	-0.234637
C180	C	0.928201	1.612276	0.098696
C181	C	0.261508	0.945609	-0.633406
C182	C	0.594841	1.278942	-0.300073
C183	C	0.928174	1.612275	0.033261
C184	C	0.301575	0.905519	-0.666096
C185	C	0.634909	1.238852	-0.332762
C186	C	0.968242	1.572185	0.000571
C187	C	0.341661	0.865415	-0.633344
C188	C	0.674994	1.198749	-0.300011
C189	C	1.008328	1.532082	0.033322
C190	C	0.341682	0.865413	-0.567910
C191	C	0.675016	1.198746	-0.234577
C192	C	1.008349	1.532080	0.098756
C193	C	0.357992	0.900544	-0.769758
C194	C	0.691325	1.233877	-0.436424
C195	C	1.024659	1.567210	-0.103091
C196	C	0.357972	0.900551	-0.835191
C197	C	0.691305	1.233884	-0.501857
C198	C	1.024638	1.567217	-0.168524
C199	C	0.301509	0.905523	-0.867917
C200	C	0.634842	1.238856	-0.534583
C201	C	0.968176	1.572189	-0.201250
C202	C	0.245065	0.910501	-0.835202
C203	C	0.578398	1.243834	-0.501868
C204	C	0.911732	1.577168	-0.168535
C205	C	0.245086	0.910499	-0.769767
C206	C	0.578420	1.243832	-0.436434
C207	C	0.911753	1.577165	-0.103101
C208	C	0.301556	0.905517	-0.737048
C209	C	0.634890	1.238850	-0.403715
C210	C	0.968223	1.572183	-0.070381
C211	C	0.261393	0.945619	-0.971613
C212	C	0.594727	1.278953	-0.638279
C213	C	0.928060	1.612286	-0.304946
C214	C	0.261365	0.945614	-1.037049
C215	C	0.594699	1.278948	-0.703716
C216	C	0.928032	1.612281	-0.370383
C217	C	0.341524	0.865424	-1.036986
C218	C	0.674858	1.198758	-0.703653
C219	C	1.008191	1.532091	-0.370320
C220	C	0.341547	0.865426	-0.971551
C221	C	0.674880	1.198760	-0.638217
C222	C	1.008213	1.532093	-0.304884
C223	C	0.301482	0.905527	-0.938868
C224	C	0.634815	1.238860	-0.605535
C225	C	0.968149	1.572194	-0.272201
C226	C	0.301603	0.905424	-0.139375
C227	C	0.634937	1.238757	0.193958
C228	C	0.968270	1.572091	0.527292
C229	C	0.301432	0.905523	-0.069734
C230	C	0.634766	1.238857	0.263599
C231	C	0.968099	1.572190	0.596932
H232	H	0.374509	0.666938	-0.374634
H233	H	0.707842	1.000271	-0.041300
H234	H	1.041175	1.333605	0.292033
H235	H	1.062617	0.832911	-0.229440
H236	H	1.395950	1.166245	0.103893
H237	H	1.729284	1.499578	0.437226
H238	H	0.310778	0.465219	-0.404549
H239	H	0.644112	0.798553	-0.071215
H240	H	0.977445	1.131886	0.262118
F241	F	0.218747	0.136393	-0.219704
F242	F	0.552080	0.469726	0.113630
F243	F	0.885414	0.803059	0.446963
H244	H	0.292523	0.346302	-0.199783
H245	H	0.625856	0.679635	0.133550
H246	H	0.959190	1.012969	0.466884
F247	F	0.291291	0.473174	-0.185624
F248	F	0.624624	0.806507	0.147709
F249	F	0.957958	1.139840	0.481043
F250	F	0.218708	0.988299	-1.071897
F251	F	0.552041	1.321632	-0.738564
F252	F	0.885375	1.654966	-0.405230
H253	H	0.742027	0.896546	-0.199735
H254	H	1.075361	1.229879	0.133598
H255	H	1.408694	1.563213	0.466931
H256	H	0.540021	0.978052	-0.374922
H257	H	0.873355	1.311385	-0.041588
H258	H	1.206688	1.644718	0.291745
H259	H	0.658980	0.832764	-0.229373
H260	H	0.992314	1.166098	0.103960
H261	H	1.325647	1.499431	0.437293
F262	F	0.384513	0.540050	-0.384681
F263	F	0.717846	0.873384	-0.051348
F264	F	1.051179	1.206717	0.281985
H265	H	0.943905	0.832871	-0.229417
H266	H	1.277238	1.166204	0.103917
H267	H	1.610572	1.499537	0.437250
H268	H	0.228910	0.978262	-0.541364
H269	H	0.562244	1.311595	-0.208031
H270	H	0.895577	1.644929	0.125302
H271	H	0.228880	0.666923	-0.229516
H272	H	0.562213	1.000256	0.103817
H273	H	0.895547	1.333589	0.437150
F274	F	0.532102	0.822694	-0.219322
F275	F	0.865435	1.156027	0.114011
F276	F	1.198768	1.489360	0.447344
F277	F	0.218834	0.988275	-0.668261
F278	F	0.552167	1.321609	-0.334928
F279	F	0.885501	1.654942	-0.001595
H280	H	1.062367	0.978239	-0.375017
H281	H	1.395700	1.311572	-0.041684
H282	H	1.729033	1.644905	0.291650
H283	H	0.199128	0.914551	-0.743133
H284	H	0.532461	1.247884	-0.409800
H285	H	0.865794	1.581217	-0.076467
F286	F	0.312003	0.338343	-0.418708
F287	F	0.645336	0.671676	-0.085374
F288	F	0.978669	1.005010	0.247959
H289	H	0.228866	0.548209	-0.229558
H290	H	0.562199	0.881543	0.103775
H291	H	0.895533	1.214876	0.437108
F292	F	0.384163	0.822753	-1.071772
F293	F	0.717496	1.156086	-0.738439
F294	F	1.050829	1.489419	-0.405106
F295	F	0.384211	0.822753	-0.936701
F296	F	0.717545	1.156086	-0.603368
F297	F	1.050878	1.489419	-0.270035
F298	F	0.868780	0.915654	-0.418738
F299	F	1.202114	1.248987	-0.085405
F300	F	1.535447	1.582320	0.247928
F301	F	0.384426	0.136415	-0.384834
F302	F	0.717760	0.469748	-0.051500
F303	F	1.051093	0.803081	0.281833
H304	H	0.943660	0.978203	-0.374992
H305	H	1.276993	1.311536	-0.041659
H306	H	1.610327	1.644869	0.291675
H307	H	0.403932	0.896501	-0.861822
H308	H	0.737265	1.229834	-0.528489
H309	H	1.070598	1.563167	-0.195155
F310	F	0.418093	0.895266	-0.734934
F311	F	0.751426	1.228599	-0.401601
F312	F	1.084759	1.561932	-0.068268
H313	H	0.658730	0.978087	-0.374951
H314	H	0.992063	1.311420	-0.041617
H315	H	1.325397	1.644754	0.291716
H316	H	0.741897	0.914380	-0.404600
H317	H	1.075231	1.247713	-0.071267
H318	H	1.408564	1.581046	0.262067
F319	F	0.384302	0.822747	-0.668136
F320	F	0.717635	1.156080	-0.334802
F321	F	1.050968	1.489414	-0.001469
F322	F	0.218775	0.271464	-0.219655
F323	F	0.552108	0.604797	0.113678
F324	F	0.885442	0.938130	0.447012
F325	F	0.184969	0.915795	-0.870025
F326	F	0.518302	1.249129	-0.536692
F327	F	0.851635	1.582462	-0.203359
F328	F	0.218751	0.988295	-0.936827
F329	F	0.552085	1.321628	-0.603493
F330	F	0.885418	1.654962	-0.270160
F331	F	0.384346	0.822736	-0.533061
F332	F	0.717680	1.156069	-0.199728
F333	F	1.051013	1.489402	0.133605
H334	H	0.374426	0.263302	-0.374783
H335	H	0.707759	0.596635	-0.041449
H336	H	1.041093	0.929969	0.291884
F337	F	0.868922	0.895370	-0.185641
F338	F	1.202255	1.228704	0.147692
F339	F	1.535589	1.562037	0.481025
