data_functionalizedCrystal
_audit_creation_method	'MofGen! by Chris Wilmer'
_symmetry_space_group_name_H-M	'P1'
_symmetry_Int_Tables_number	1
_symmetry_cell_setting	triclinic
loop_
_symmetry_equiv_pos_as_xyz
  x,y,z
_cell_length_a	10.540539
_cell_length_b	9.065218
_cell_length_c	8.140239
_cell_angle_alpha	90.001686
_cell_angle_beta	90.000668
_cell_angle_gamma	84.770688
loop_
_atom_site_label
_atom_site_type_symbol
_atom_site_fract_x
_atom_site_fract_y
_atom_site_fract_z
O1	O	-1.686653	-0.207930	-0.136529
O2	O	-1.317312	-0.227521	-0.136548
O3	O	-1.509617	-0.003045	-0.136535
O4	O	-1.494349	-0.432406	-0.136542
O5	O	-1.509606	-0.003042	0.136692
O6	O	-1.317302	-0.227519	0.136679
O7	O	-1.686642	-0.207927	0.136698
Zn8	Zn	-1.501970	-0.217723	0.180069
Zn9	Zn	-1.501984	-0.217726	-0.179919
O10	O	-1.494338	-0.432404	0.136685
C11	C	-1.269999	-0.226051	0.000063
C12	C	-1.129034	-0.221655	0.000055
C13	C	-1.508144	0.051936	0.000076
C14	C	-1.503757	0.215757	0.000068
C15	C	-1.733956	-0.209398	0.000084
C16	C	-1.874920	-0.213794	0.000081
C17	C	-0.944985	-0.053221	0.000696
C18	C	-1.091619	-0.057677	0.000063
C19	C	-1.067660	-0.300570	-0.155966
C20	C	-0.921094	-0.294973	-0.156080
C21	C	-0.920606	-0.298306	0.154630
C22	C	-1.067594	-0.299817	0.156675
C23	C	-1.495811	-0.487384	0.000070
C24	C	-1.500198	-0.651205	0.000068
N25	N	-1.501970	-0.217719	0.425752
N26	N	-1.501995	-0.217718	-0.425602
H27	H	-0.916155	0.011561	0.112588
C28	C	-0.903860	0.033932	-0.149602
H29	H	-0.844181	-0.027116	-0.212730
H30	H	-0.865671	0.119255	-0.113717
H31	H	-0.976364	0.063398	-0.215106
H32	H	-0.873817	-0.416747	0.155682
H33	H	-0.892673	-0.236651	-0.272706
C34	C	-1.148886	0.026218	0.151135
H35	H	-1.238784	0.023598	0.150951
H36	H	-1.128795	0.126203	0.147272
H37	H	-1.114416	-0.019409	0.248394
H38	H	-0.873562	-0.412904	-0.163164
C39	C	-1.147715	0.026775	-0.151293
H40	H	-1.080870	0.063931	-0.212642
H41	H	-1.205875	0.106897	-0.116509
H42	H	-1.190991	-0.038420	-0.218132
H43	H	-1.090458	-0.420991	-0.161774
H44	H	-1.110050	-0.245753	-0.272079
C45	C	-0.877722	-0.226621	0.314395
H46	H	-0.831552	-0.144467	0.288331
H47	H	-0.824757	-0.297252	0.375309
H48	H	-0.950410	-0.193883	0.378092
C49	C	-1.122623	-0.221937	0.312608
H50	H	-1.182797	-0.142125	0.282406
H51	H	-1.055653	-0.184994	0.373888
H52	H	-1.163402	-0.290651	0.377717
C53	C	-1.100910	-0.461321	0.169406
H54	H	-1.152950	-0.483298	0.078958
H55	H	-1.145553	-0.474278	0.268984
H56	H	-1.024772	-0.526034	0.168090
