data_functionalizedCrystal
_audit_creation_method	'MofGen! by Chris Wilmer'
_symmetry_space_group_name_H-M	'P1'
_symmetry_Int_Tables_number	1
_symmetry_cell_setting	triclinic
loop_
_symmetry_equiv_pos_as_xyz
  x,y,z
_cell_length_a	19.077212
_cell_length_b	16.959453
_cell_length_c	19.076919
_cell_angle_alpha	87.728832
_cell_angle_beta	90.114942
_cell_angle_gamma	92.312080
loop_
_atom_site_label
_atom_site_type_symbol
_atom_site_fract_x
_atom_site_fract_y
_atom_site_fract_z
Zn1	Zn	1.058312	-0.286943	0.440582
Zn2	Zn	1.391646	0.046390	0.773916
Zn3	Zn	1.724979	0.379723	1.107249
Zn4	Zn	1.062961	-0.413615	0.323075
Zn5	Zn	1.396294	-0.080282	0.656408
Zn6	Zn	1.729628	0.253052	0.989742
Zn7	Zn	0.945528	-0.286527	0.318358
Zn8	Zn	1.278861	0.046806	0.651691
Zn9	Zn	1.612194	0.380140	0.985025
Zn10	Zn	0.940781	-0.424158	0.435808
Zn11	Zn	1.274114	-0.090825	0.769142
Zn12	Zn	1.607448	0.242508	1.102475
O13	O	1.001895	-0.352811	0.379456
O14	O	1.335229	-0.019478	0.712789
O15	O	1.668562	0.313856	1.046123
O16	O	1.157262	-0.299508	0.428967
O17	O	1.490596	0.033825	0.762300
O18	O	1.823929	0.367158	1.095634
O19	O	1.051315	-0.392170	0.224119
O20	O	1.384649	-0.058837	0.557452
O21	O	1.717982	0.274497	0.890785
O22	O	0.960530	-0.175971	0.334595
O23	O	1.293863	0.157363	0.667928
O24	O	1.627196	0.490696	1.001262
O25	O	1.160678	-0.392573	0.342635
O26	O	1.494011	-0.059240	0.675968
O27	O	1.827345	0.274093	1.009301
O28	O	1.043392	-0.176276	0.424393
O29	O	1.376725	0.157057	0.757726
O30	O	1.710059	0.490390	1.091059
O31	O	0.965038	-0.298799	0.220653
O32	O	1.298371	0.034534	0.553986
O33	O	1.631704	0.367868	0.887320
O34	O	0.846564	-0.309022	0.329966
O35	O	1.179898	0.024311	0.663299
O36	O	1.513231	0.357644	0.996632
O37	O	0.952440	-0.410543	0.534772
O38	O	1.285773	-0.077210	0.868106
O39	O	1.619106	0.256124	1.201439
O40	O	0.843077	-0.410139	0.416256
O41	O	1.176410	-0.076806	0.749589
O42	O	1.509744	0.256527	1.082923
O43	O	1.038789	-0.309732	0.538280
O44	O	1.372123	0.023602	0.871613
O45	O	1.705456	0.356935	1.204946
O46	O	1.046713	-0.525625	0.338006
O47	O	1.380046	-0.192292	0.671339
O48	O	1.713379	0.141041	1.004672
O49	O	0.956947	-0.533371	0.420830
O50	O	1.290281	-0.200038	0.754163
O51	O	1.623614	0.133295	1.087497
C52	C	0.819324	-0.360681	0.372081
C53	C	1.152657	-0.027347	0.705415
C54	C	1.485991	0.305986	1.038748
C55	C	0.741218	-0.364067	0.368943
C56	C	1.074552	-0.030734	0.702277
C57	C	1.407885	0.302600	1.035610
C58	C	0.301757	-0.388323	0.346468
C59	C	0.635090	-0.054990	0.679802
C60	C	0.968423	0.278344	1.013135
C61	C	0.375145	-0.385137	0.349412
C62	C	0.708479	-0.051803	0.682745
C63	C	1.041812	0.281530	1.016078
C64	C	0.410061	-0.335176	0.395905
C65	C	0.743394	-0.001842	0.729238
C66	C	1.076727	0.331491	1.062572
C67	C	0.371583	-0.288392	0.439453
C68	C	0.704917	0.044941	0.772786
C69	C	1.038250	0.378275	1.106120
C70	C	0.298196	-0.291575	0.436506
C71	C	0.631530	0.041759	0.769839
C72	C	0.964863	0.375092	1.103172
C73	C	0.629354	-0.320466	0.409544
C74	C	0.962687	0.012867	0.742877
C75	C	1.296021	0.346201	1.076211
C76	C	0.702746	-0.317289	0.412489
C77	C	1.036080	0.016045	0.745823
C78	C	1.369413	0.349378	1.079156
C79	C	0.706303	-0.414033	0.322447
C80	C	1.039637	-0.080699	0.655780
C81	C	1.372970	0.252634	0.989113
C82	C	0.632915	-0.417215	0.319507
C83	C	0.966248	-0.083881	0.652840
C84	C	1.299581	0.249452	0.986173
C85	C	0.594444	-0.370428	0.363052
C86	C	0.927777	-0.037095	0.696385
C87	C	1.261111	0.296239	1.029719
N88	N	0.485075	-0.331919	0.398916
N89	N	0.818409	0.001414	0.732250
N90	N	1.151742	0.334747	1.065583
N91	N	0.519431	-0.373681	0.360037
N92	N	0.852764	-0.040347	0.693370
N93	N	1.186097	0.292986	1.026703
C94	C	1.001838	-0.558179	0.379428
C95	C	1.335171	-0.224845	0.712761
C96	C	1.668505	0.108488	1.046094
C97	C	1.001877	-0.646034	0.379442
C98	C	1.335210	-0.312701	0.712775
C99	C	1.668543	0.020633	1.046109
C100	C	1.045096	-1.017612	0.426301
C101	C	1.378429	-0.684278	0.759634
C102	C	1.711763	-0.350945	1.092967
C103	C	0.958887	-1.017404	0.332723
C104	C	1.292220	-0.684070	0.666057
C105	C	1.625554	-0.350737	0.999390
C106	C	0.958862	-0.934858	0.332706
C107	C	1.292195	-0.601525	0.666039
C108	C	1.625528	-0.268191	0.999373
C109	C	1.001953	-0.893686	0.379488
C110	C	1.335287	-0.560352	0.712821
C111	C	1.668620	-0.227019	1.046154
C112	C	1.045070	-0.935058	0.426286
C113	C	1.378404	-0.601725	0.759620
C114	C	1.711737	-0.268392	1.092953
C115	C	0.915740	-0.893479	0.285913
C116	C	1.249073	-0.560146	0.619246
C117	C	1.582407	-0.226813	0.952580
C118	C	0.915712	-0.810929	0.285895
C119	C	1.249046	-0.477595	0.619228
C120	C	1.582379	-0.144262	0.952561
C121	C	0.958808	-0.769754	0.332673
C122	C	1.292142	-0.436421	0.666007
C123	C	1.625475	-0.103088	0.999340
C124	C	1.001928	-0.811133	0.379473
C125	C	1.335261	-0.477799	0.712807
C126	C	1.668594	-0.144466	1.046140
C127	C	1.045019	-0.769960	0.426255
C128	C	1.378353	-0.436627	0.759588
C129	C	1.711686	-0.103293	1.092922
C130	C	1.088143	-0.811336	0.473052
C131	C	1.421476	-0.478003	0.806386
C132	C	1.754810	-0.144670	1.139719
C133	C	1.088166	-0.893884	0.473065
C134	C	1.421500	-0.560551	0.806398
C135	C	1.754833	-0.227218	1.139732
C136	C	0.958785	-0.687207	0.332660
C137	C	1.292118	-0.353873	0.665994
C138	C	1.625452	-0.020540	0.999327
C139	C	1.044994	-0.687407	0.426241
C140	C	1.378327	-0.354074	0.759574
C141	C	1.711660	-0.020740	1.092907
C142	C	1.185180	-0.344911	0.386860
C143	C	1.518513	-0.011578	0.720193
C144	C	1.851846	0.321755	1.053526
C145	C	1.263285	-0.341545	0.390015
C146	C	1.596618	-0.008211	0.723348
C147	C	1.929951	0.325122	1.056681
C148	C	0.994566	-0.361360	0.562735
C149	C	1.327900	-0.028027	0.896068
C150	C	1.661233	0.305307	1.229401
C151	C	0.991443	-0.365003	0.640837
C152	C	1.324777	-0.031670	0.974171
C153	C	1.658110	0.301664	1.307504
C154	C	1.001972	-0.146641	0.379500
C155	C	1.335305	0.186692	0.712834
C156	C	1.668638	0.520025	1.046167
C157	C	1.002004	-0.058784	0.379519
C158	C	1.335338	0.274549	0.712852
C159	C	1.668671	0.607883	1.046186
C160	C	1.009236	-0.344236	0.196892
C161	C	1.342570	-0.010903	0.530225
C162	C	1.675903	0.322430	0.863558
C163	C	1.012496	-0.340365	0.118795
C164	C	1.345829	-0.007032	0.452128
C165	C	1.679162	0.326302	0.785462
C166	C	1.034931	-0.314230	0.679357
C167	C	1.368265	0.019104	1.012691
C168	C	1.701598	0.352437	1.346024
C169	C	1.031988	-0.317650	0.752743
C170	C	1.365322	0.015683	1.086076
C171	C	1.698655	0.349016	1.419409
C172	C	0.985560	-0.371848	0.787607
C173	C	1.318893	-0.038515	1.120940
C174	C	1.652227	0.294819	1.454273
C175	C	0.942067	-0.422623	0.749082
C176	C	1.275401	-0.089290	1.082415
C177	C	1.608734	0.244043	1.415748
C178	C	0.945007	-0.419199	0.675697
C179	C	1.278341	-0.085865	1.009031
C180	C	1.611674	0.247468	1.342364
C181	C	0.971943	-0.387715	1.006886
C182	C	1.305276	-0.054382	1.340219
C183	C	1.638610	0.278951	1.673552
C184	C	0.969008	-0.391138	1.080275
C185	C	1.302341	-0.057805	1.413608
C186	C	1.635674	0.275529	1.746942
C187	C	1.058928	-0.286163	1.083931
C188	C	1.392261	0.047170	1.417264
C189	C	1.725595	0.380503	1.750598
C190	C	1.061867	-0.282747	1.010545
C191	C	1.395200	0.050587	1.343879
C192	C	1.728534	0.383920	1.677212
C193	C	1.018372	-0.333519	0.972027
C194	C	1.351705	-0.000186	1.305360
C195	C	1.685038	0.333148	1.638693
N196	N	0.982552	-0.375347	0.862618
N197	N	1.315886	-0.042014	1.195952
N198	N	1.649219	0.291319	1.529285
N199	N	1.021376	-0.330015	0.897016
N200	N	1.354710	0.003318	1.230349
N201	N	1.688043	0.336651	1.563683
H202	H	0.400017	-0.247709	0.477306
H203	H	0.733351	0.085624	0.810639
H204	H	1.066684	0.418958	1.143973
N205	N	0.891987	-0.481085	0.786672
N206	N	1.225321	-0.147752	1.120005
N207	N	1.558654	0.185581	1.453338
H208	H	0.842298	-0.470371	0.771868
H209	H	1.175632	-0.137038	1.105201
H210	H	1.508965	0.196295	1.438535
H211	H	0.896778	-0.475533	0.838997
H212	H	1.230111	-0.142199	1.172330
H213	H	1.563444	0.191134	1.505664
N214	N	0.264104	-0.442204	0.296314
N215	N	0.597437	-0.108870	0.629648
N216	N	0.930770	0.224463	0.962981
H217	H	0.211775	-0.437124	0.301053
H218	H	0.545108	-0.103790	0.634386
H219	H	0.878441	0.229543	0.967720
H220	H	0.276490	-0.498626	0.307669
H221	H	0.609823	-0.165293	0.641003
H222	H	0.943156	0.168040	0.974336
N223	N	1.078879	-0.262873	0.794289
N224	N	1.412212	0.070460	1.127623
N225	N	1.745546	0.403793	1.460956
H226	H	1.108736	-0.228019	0.761068
H227	H	1.442069	0.105315	1.094401
H228	H	1.775402	0.438648	1.427734
H229	H	1.110168	-0.295054	0.826055
H230	H	1.443502	0.038279	1.159388
H231	H	1.776835	0.371612	1.492722
N232	N	0.740395	-0.263412	0.462657
N233	N	1.073729	0.069921	0.795990
N234	N	1.407062	0.403255	1.129324
H235	H	0.769530	-0.295807	0.496391
H236	H	1.102864	0.037526	0.829724
H237	H	1.436197	0.370860	1.163057
H238	H	0.704836	-0.234280	0.489745
H239	H	1.038170	0.099054	0.823079
H240	H	1.371503	0.432387	1.156412
N241	N	0.595257	-0.471096	0.269357
N242	N	0.928590	-0.137763	0.602690
N243	N	1.261924	0.195570	0.936023
H244	H	0.607589	-0.527544	0.280688
H245	H	0.940922	-0.194210	0.614021
H246	H	1.274255	0.139123	0.947355
H247	H	0.610041	-0.455765	0.219704
H248	H	0.943374	-0.122432	0.553037
H249	H	1.276708	0.210902	0.886370
N250	N	0.587867	-0.269992	0.456497
N251	N	0.921200	0.063341	0.789830
N252	N	1.254533	0.396674	1.123164
H253	H	0.621123	-0.237859	0.486394
H254	H	0.954457	0.095475	0.819727
H255	H	1.287790	0.428808	1.153061
H256	H	0.556113	-0.305045	0.487745
H257	H	0.889446	0.028288	0.821078
H258	H	1.222779	0.361622	1.154411
H259	H	1.080087	-0.653889	0.464334
H260	H	1.413421	-0.320556	0.797667
H261	H	1.746754	0.012778	1.131000
H262	H	0.406466	-0.423227	0.313951
H263	H	0.739800	-0.089894	0.647284
H264	H	1.073133	0.243439	0.980617
H265	H	0.923671	-0.653522	0.294562
H266	H	1.257004	-0.320189	0.627895
H267	H	1.590338	0.013145	0.961228
H268	H	0.909588	-0.460536	0.644335
H269	H	1.242921	-0.127203	0.977668
H270	H	1.576254	0.206131	1.311002
N271	N	0.925009	-0.442450	0.965345
N272	N	1.258343	-0.109116	1.298678
N273	N	1.591676	0.224217	1.632011
H274	H	0.895147	-0.477295	0.998568
H275	H	1.228480	-0.143962	1.331901
H276	H	1.561814	0.189371	1.665235
H277	H	0.954793	-0.476387	0.936030
H278	H	1.288126	-0.143053	1.269363
H279	H	1.621459	0.190280	1.602696
H280	H	0.737634	-0.452123	0.286994
H281	H	1.070967	-0.118790	0.620328
H282	H	1.404301	0.214543	0.953661
N283	N	0.918906	-0.449585	1.117863
N284	N	1.252239	-0.116252	1.451197
N285	N	1.585572	0.217082	1.784530
H286	H	0.885140	-0.420272	1.146995
H287	H	1.218473	-0.086938	1.480328
H288	H	1.551807	0.246395	1.813661
H289	H	0.946260	-0.486407	1.149423
H290	H	1.279593	-0.153073	1.482756
H291	H	1.612927	0.180260	1.816090
H292	H	1.094339	-0.244826	1.115301
H293	H	1.427672	0.088507	1.448634
H294	H	1.761005	0.421840	1.781968
H295	H	0.266873	-0.253480	0.471963
H296	H	0.600206	0.079853	0.805297
H297	H	0.933540	0.413187	1.138630
H298	H	1.123275	-0.927580	0.511165
H299	H	1.456608	-0.594247	0.844499
H300	H	1.789941	-0.260913	1.177832
N301	N	1.134612	-0.766927	0.523515
N302	N	1.467945	-0.433593	0.856849
N303	N	1.801279	-0.100260	1.190182
H304	H	1.128046	-0.708356	0.516405
H305	H	1.461379	-0.375022	0.849738
H306	H	1.794712	-0.041689	1.183072
H307	H	1.185250	-0.778635	0.514652
H308	H	1.518583	-0.445301	0.847986
H309	H	1.851917	-0.111968	1.181319
N310	N	1.091610	-1.062231	0.476770
N311	N	1.424943	-0.728897	0.810103
N312	N	1.758276	-0.395564	1.143437
H313	H	1.085092	-1.120773	0.469682
H314	H	1.418425	-0.787439	0.803015
H315	H	1.751759	-0.454106	1.136349
H316	H	1.078621	-1.050603	0.526500
H317	H	1.411955	-0.717270	0.859833
H318	H	1.745288	-0.383937	1.193167
N319	N	0.912414	-1.061806	0.282266
N320	N	1.245747	-0.728473	0.615600
N321	N	1.579080	-0.395139	0.948933
H322	H	0.918974	-1.120378	0.289376
H323	H	1.252307	-0.787045	0.622709
H324	H	1.585640	-0.453712	0.956043
H325	H	0.925402	-1.044575	0.232534
H326	H	1.258735	-0.711242	0.565867
H327	H	1.592068	-0.377909	0.899201
N328	N	0.869271	-0.937883	0.235454
N329	N	1.202604	-0.604550	0.568787
N330	N	1.535938	-0.271217	0.902120
H331	H	0.875838	-0.996455	0.242559
H332	H	1.209171	-0.663121	0.575892
H333	H	1.542504	-0.329788	0.909226
H334	H	0.882258	-0.920646	0.185722
H335	H	1.215591	-0.587313	0.519056
H336	H	1.548924	-0.253980	0.852389
N337	N	0.869214	-0.766302	0.235416
N338	N	1.202547	-0.432969	0.568749
N339	N	1.535880	-0.099636	0.902082
H340	H	0.835474	-0.734800	0.262617
H341	H	1.168807	-0.401466	0.595951
H342	H	1.502141	-0.068133	0.929284
H343	H	0.841967	-0.804959	0.205793
H344	H	1.175300	-0.471626	0.539127
H345	H	1.508634	-0.138293	0.872460
H346	H	1.072740	-0.270098	0.650977
H347	H	1.406074	0.063235	0.984310
H348	H	1.739407	0.396568	1.317643
H349	H	1.099676	-0.238615	0.982164
H350	H	1.433009	0.094718	1.315498
H351	H	1.766342	0.428052	1.648831
