data_functionalizedCrystal
_audit_creation_method	'MofGen! by Chris Wilmer'
_symmetry_space_group_name_H-M	'P1'
_symmetry_Int_Tables_number	1
_symmetry_cell_setting	triclinic
loop_
_symmetry_equiv_pos_as_xyz
  x,y,z
_cell_length_a	10.723023
_cell_length_b	10.723024
_cell_length_c	18.366186
_cell_angle_alpha	89.994974
_cell_angle_beta	89.991431
_cell_angle_gamma	84.467709
loop_
_atom_site_label
_atom_site_type_symbol
_atom_site_fract_x
_atom_site_fract_y
_atom_site_fract_z
O1	O	1.657197	0.175024	-0.060540
O2	O	2.157197	0.675024	0.439460
O3	O	1.294045	0.191779	-0.060543
O4	O	1.794045	0.691779	0.439457
O5	O	1.483998	0.001825	-0.060539
O6	O	1.983998	0.501825	0.439461
O7	O	1.467244	0.364978	-0.060544
O8	O	1.967244	0.864978	0.439456
O9	O	1.483965	0.001816	0.060560
O10	O	1.983965	0.501816	0.560560
O11	O	1.294012	0.191769	0.060556
O12	O	1.794012	0.691769	0.560556
O13	O	1.657164	0.175015	0.060559
O14	O	2.157164	0.675015	0.560559
Zn15	Zn	1.475583	0.183390	0.079785
Zn16	Zn	1.975583	0.683390	0.579785
Zn17	Zn	1.475626	0.183403	-0.079769
Zn18	Zn	1.975626	0.683403	0.420231
O19	O	1.467212	0.364968	0.060555
O20	O	1.967212	0.864968	0.560555
C21	C	1.247529	0.190555	0.000006
C22	C	1.747529	0.690555	0.500006
C23	C	1.108974	0.186908	0.000005
C24	C	1.608974	0.686908	0.500005
C25	C	1.482762	-0.044679	0.000010
C26	C	1.982762	0.455321	0.500010
C27	C	1.479114	-0.183233	0.000007
C28	C	1.979114	0.316767	0.500007
C29	C	1.047185	0.185276	0.062738
C30	C	1.547185	0.685276	0.562738
C31	C	0.903982	0.181507	0.062738
C32	C	1.403982	0.681507	0.562738
C33	C	1.585402	-0.258216	0.000007
C34	C	2.085402	0.241784	0.500007
C35	C	1.581634	-0.401420	0.000004
C36	C	2.081634	0.098580	0.500004
C37	C	1.703680	0.176239	0.000008
C38	C	2.203680	0.676239	0.500008
C39	C	1.842235	0.179886	0.000005
C40	C	2.342235	0.679886	0.500005
C41	C	1.468447	0.411473	0.000005
C42	C	1.968447	0.911473	0.500005
C43	C	1.472095	0.550027	0.000002
C44	C	1.972095	1.050027	0.500002
N45	N	1.475563	0.183381	0.188676
N46	N	1.975563	0.683381	0.688676
N47	N	1.475656	0.183403	-0.188660
N48	N	1.975656	0.683403	0.311340
C49	C	1.559702	0.099311	0.226778
C50	C	2.059702	0.599311	0.726778
C51	C	1.559710	0.099306	0.303006
C52	C	2.059710	0.599306	0.803006
C53	C	1.475591	0.183391	0.341129
C54	C	1.975591	0.683391	0.841129
C55	C	1.391435	0.267467	0.303017
C56	C	1.891435	0.767467	0.803017
C57	C	1.391421	0.267462	0.226791
C58	C	1.891421	0.767462	0.726791
C59	C	1.460214	0.296904	0.461887
C60	C	1.960214	0.796904	0.961887
C61	C	1.460236	0.296911	0.538112
C62	C	1.960236	0.796911	1.038112
C63	C	1.475626	0.183407	0.576236
C64	C	1.975626	0.683407	1.076236
C65	C	1.491020	0.069892	0.538126
C66	C	1.991020	0.569892	1.038126
C67	C	1.491006	0.069887	0.461900
C68	C	1.991006	0.569887	0.961900
C69	C	1.475596	0.183406	0.423783
C70	C	1.975596	0.683406	0.923783
C71	C	1.559779	0.099325	0.696993
C72	C	2.059779	0.599325	1.196993
C73	C	1.559778	0.099318	0.773223
C74	C	2.059778	0.599318	1.273223
C75	C	1.391509	0.267490	0.773232
C76	C	1.891509	0.767490	1.273232
C77	C	1.391504	0.267486	0.697005
C78	C	1.891504	0.767486	1.197005
C79	C	1.475645	0.183405	0.658890
C80	C	1.975645	0.683405	1.158890
H81	H	1.100304	0.186664	0.116445
H82	H	1.600304	0.686664	0.616445
H83	H	1.679188	-0.216394	0.000012
H84	H	2.179188	0.283606	0.500012
H85	H	1.628212	0.030845	0.195747
H86	H	2.128212	0.530845	0.695747
H87	H	0.850844	0.180111	0.116446
H88	H	1.350844	0.680111	0.616446
H89	H	1.672625	-0.465852	0.000008
H90	H	2.172625	0.034148	0.500008
Cl91	Cl	0.924258	0.182061	-0.082923
Cl92	Cl	1.424258	0.682061	0.417077
Cl93	Cl	1.331599	-0.350508	0.000008
Cl94	Cl	1.831599	0.149492	0.500008
Cl95	Cl	1.285750	0.373188	0.821153
Cl96	Cl	1.785750	0.873188	1.321153
Cl97	Cl	1.334308	-0.247792	-0.000001
Cl98	Cl	1.834308	0.252208	0.499999
Cl99	Cl	1.510378	-0.072809	0.586044
Cl100	Cl	2.010378	0.427191	1.086044
Cl101	Cl	1.440894	0.439614	0.586014
Cl102	Cl	1.940894	0.939614	1.086014
H103	H	1.628228	0.030844	0.334035
H104	H	2.128228	0.530844	0.834035
Cl105	Cl	1.285730	0.373185	0.649100
Cl106	Cl	1.785730	0.873185	1.149100
Cl107	Cl	1.510343	-0.072811	0.413992
Cl108	Cl	2.010343	0.427189	0.913992
H109	H	1.628288	0.030857	0.665959
H110	H	2.128288	0.530857	1.165959
Cl111	Cl	1.665554	-0.006385	0.821126
Cl112	Cl	2.165554	0.493615	1.321126
H113	H	1.447660	0.389339	0.430853
H114	H	1.947660	0.889339	0.930853
Cl115	Cl	1.026977	0.184745	-0.082920
Cl116	Cl	1.526977	0.684745	0.417080
Cl117	Cl	1.285679	0.373170	0.350941
Cl118	Cl	1.785679	0.873170	0.850941
H119	H	1.322903	0.335922	0.195767
H120	H	1.822903	0.835922	0.695767
