data_functionalizedCrystal
_audit_creation_method	'MofGen! by Chris Wilmer'
_symmetry_space_group_name_H-M	'P1'
_symmetry_Int_Tables_number	1
_symmetry_cell_setting	triclinic
loop_
_symmetry_equiv_pos_as_xyz
  x,y,z
_cell_length_a	15.297475
_cell_length_b	12.594516
_cell_length_c	15.298259
_cell_angle_alpha	80.293071
_cell_angle_beta	88.370891
_cell_angle_gamma	80.319586
loop_
_atom_site_label
_atom_site_type_symbol
_atom_site_fract_x
_atom_site_fract_y
_atom_site_fract_z
Zn1	Zn	1.253548	-0.531632	-0.726711
Zn2	Zn	1.278806	-0.744720	-0.580228
Zn3	Zn	1.132401	-0.541985	-0.554935
Zn4	Zn	1.107045	-0.684788	-0.701364
O5	O	1.192950	-0.625781	-0.640810
O6	O	1.379481	-0.580648	-0.728473
O7	O	1.280567	-0.747241	-0.454289
O8	O	1.148513	-0.391669	-0.577744
O9	O	1.398038	-0.737203	-0.620852
O10	O	1.237518	-0.384063	-0.703947
O11	O	1.173005	-0.598292	-0.435706
O12	O	1.006455	-0.540179	-0.553167
O13	O	1.105296	-0.635058	-0.827311
O14	O	0.987826	-0.645096	-0.660747
O15	O	1.212931	-0.522535	-0.845933
O16	O	1.255980	-0.885712	-0.596275
O17	O	1.129788	-0.841680	-0.685273
C18	C	0.965356	-0.587258	-0.601462
C19	C	0.867987	-0.570798	-0.584650
C20	C	0.554880	-0.743429	-0.760971
C21	C	0.646363	-0.758902	-0.776764
C22	C	0.701774	-0.711877	-0.728738
C23	C	0.665691	-0.649377	-0.664914
C24	C	0.574200	-0.633909	-0.649114
C25	C	0.721093	-0.602358	-0.616881
C26	C	0.685011	-0.539858	-0.553057
C27	C	0.593528	-0.524392	-0.537261
C28	C	0.538118	-0.571417	-0.585287
C29	C	0.812585	-0.617825	-0.632681
C30	C	0.831905	-0.508306	-0.520824
C31	C	0.740421	-0.492833	-0.505030
C32	C	1.192894	-0.902315	-0.640791
C33	C	1.192945	-1.020623	-0.640826
C34	C	1.124311	-1.065975	-0.689190
C35	C	1.116800	-1.152380	-0.605573
C36	C	1.200533	-1.145028	-0.724472
C37	C	1.185400	-1.105473	-0.557159
C38	C	1.269161	-1.098107	-0.676118
C39	C	1.261690	-1.184499	-0.592451
C40	C	1.421432	-0.664456	-0.680311
C41	C	1.518798	-0.680936	-0.697144
C42	C	1.153468	-0.570956	-0.869295
C43	C	1.136643	-0.547593	-0.966662
C44	C	1.193027	-0.348168	-0.640852
C45	C	1.193059	-0.229865	-0.640869
C46	C	1.313229	-0.791946	-1.279817
C47	C	1.329032	-0.813903	-1.188335
C48	C	1.280936	-0.747327	-1.132913
C49	C	1.217034	-0.658791	-1.168981
C50	C	1.201224	-0.636837	-1.260471
C51	C	1.168932	-0.592218	-1.113566
C52	C	1.105030	-0.503682	-1.149634
C53	C	1.089223	-0.481732	-1.241116
C54	C	1.137319	-0.548308	-1.296538
C55	C	1.184742	-0.614172	-1.022076
C56	C	1.072737	-0.459063	-1.002730
C57	C	1.056934	-0.437107	-1.094212
C58	C	1.232329	-0.680325	-0.413222
C59	C	1.249323	-0.703417	-0.315884
H60	H	0.711030	-0.441945	-0.453064
O61	O	1.345933	-1.069118	-0.711670
C62	C	1.345108	-0.957274	-0.710411
H63	H	1.297316	-0.929647	-0.657001
H64	H	1.322710	-0.907860	-0.777805
C65	C	1.497722	-0.973104	-0.755746
C66	C	1.439029	-0.939173	-0.690141
H67	H	1.555657	-0.961936	-0.743247
H68	H	1.498277	-1.048454	-0.756598
H69	H	1.479046	-0.931921	-0.811902
H70	H	1.457699	-0.980365	-0.633989
H71	H	1.438479	-0.863829	-0.689279
O72	O	1.208302	-1.166347	-0.808841
C73	C	1.287928	-1.137200	-0.846388
H74	H	1.336578	-1.137445	-0.791245
H75	H	1.273615	-1.052073	-0.887873
C76	C	1.268775	-1.219725	-0.973581
C77	C	1.328529	-1.220034	-0.905853
H78	H	1.293818	-1.270817	-1.010264
H79	H	1.215127	-1.239358	-0.948286
H80	H	1.256852	-1.148782	-1.008142
H81	H	1.340442	-1.290973	-0.871286
H82	H	1.382180	-1.200415	-0.931143
O83	O	1.296427	-0.768773	-1.044072
C84	C	1.363127	-0.861207	-1.024118
H85	H	1.405189	-0.872132	-1.085686
H86	H	1.331171	-0.936827	-1.001865
C87	C	1.370671	-0.831851	-0.873596
C88	C	1.422338	-0.845263	-0.949213
H89	H	1.407193	-0.822019	-0.827388
H90	H	1.325732	-0.769578	-0.887037
H91	H	1.344045	-0.894871	-0.855063
H92	H	1.448954	-0.782239	-0.967750
H93	H	1.467283	-0.907525	-0.935772
H94	H	1.381053	-0.885998	-1.158974
H95	H	1.037182	-0.409649	-1.270478
O96	O	0.847718	-0.678385	-0.694739
C97	C	0.890843	-0.613240	-0.760557
H98	H	0.909876	-0.542225	-0.732143
H99	H	0.844375	-0.580128	-0.819402
C100	C	0.951635	-0.769961	-0.826248
C101	C	0.975019	-0.682744	-0.791346
H102	H	1.003557	-0.812833	-0.845244
H103	H	0.922578	-0.813850	-0.781907
H104	H	0.912910	-0.742354	-0.875281
H105	H	1.013734	-0.710351	-0.742309
H106	H	1.004084	-0.638861	-0.835680
H107	H	1.352375	-0.846149	-1.324948
O108	O	1.025908	-0.394303	-0.949024
C109	C	0.966127	-0.311442	-1.000476
H110	H	0.951810	-0.338874	-1.065159
H111	H	0.996547	-0.233703	-1.015763
C112	C	0.896656	-0.255197	-0.869207
C113	C	0.879066	-0.288892	-0.948649
H114	H	0.842954	-0.241282	-0.837238
H115	H	0.936934	-0.311018	-0.834542
H116	H	0.922008	-0.190417	-0.881959
H117	H	0.853725	-0.353677	-0.935897
H118	H	0.838782	-0.233081	-0.983311
H119	H	0.675735	-0.809792	-0.828728
H120	H	1.124458	-0.530433	-1.371032
H121	H	1.004904	-0.365020	-1.123592
H122	H	0.776263	-0.724479	-0.741601
H123	H	0.463623	-0.558819	-0.572434
O124	O	0.558475	-0.463883	-0.475133
C125	C	0.515331	-0.529047	-0.409345
H126	H	0.543839	-0.618845	-0.408619
H127	H	0.441314	-0.514534	-0.424423
C128	C	0.494667	-0.388237	-0.318985
C129	C	0.529685	-0.498529	-0.318089
H130	H	0.503517	-0.369410	-0.262694
H131	H	0.523730	-0.344333	-0.363309
H132	H	0.432988	-0.376157	-0.331554
H133	H	0.591364	-0.510605	-0.305531
H134	H	0.500632	-0.542435	-0.273761
O135	O	1.055018	-1.004935	-0.738000
C136	C	1.062322	-1.026012	-0.825778
H137	H	1.104632	-1.109466	-0.826709
H138	H	1.094777	-0.960393	-0.868866
C139	C	0.917342	-0.922448	-0.861055
C140	C	0.969301	-1.024951	-0.862198
H141	H	0.859962	-0.921788	-0.883523
H142	H	0.912421	-0.908243	-0.801918
H143	H	0.944398	-0.867776	-0.896961
H144	H	0.942250	-1.079619	-0.826284
H145	H	0.974215	-1.039164	-0.921330
O146	O	0.885617	-0.462446	-0.474193
C147	C	0.859961	-0.347992	-0.489642
H148	H	0.787722	-0.326538	-0.511848
H149	H	0.903672	-0.310116	-0.543624
C150	C	0.959195	-0.329462	-0.376327
C151	C	0.870468	-0.303113	-0.403594
H152	H	0.965680	-0.301777	-0.323251
H153	H	0.976483	-0.406572	-0.365921
H154	H	0.995611	-0.297898	-0.421320
H155	H	0.834055	-0.334688	-0.358607
H156	H	0.853174	-0.226007	-0.413991
O157	O	1.177582	-1.084397	-0.472722
C158	C	1.097527	-1.112656	-0.435591
H159	H	1.075325	-1.175417	-0.471984
H160	H	1.044374	-1.036559	-0.442313
C161	C	1.139141	-1.084455	-0.292091
C162	C	1.111876	-1.161546	-0.336785
H163	H	1.147989	-1.114608	-0.231142
H164	H	1.193074	-1.065412	-0.317107
H165	H	1.094842	-1.021047	-0.297702
H166	H	1.156179	-1.224946	-0.331183
H167	H	1.057951	-1.180601	-0.311766
H168	H	1.319790	-1.235577	-0.551512
H169	H	0.509758	-0.781717	-0.800062
H170	H	1.052398	-1.176520	-0.575752
H171	H	1.236777	-0.686254	-0.992720
