data_functionalizedCrystal
_audit_creation_method	'MofGen! by Chris Wilmer'
_symmetry_space_group_name_H-M	'P1'
_symmetry_Int_Tables_number	1
_symmetry_cell_setting	triclinic
loop_
_symmetry_equiv_pos_as_xyz
  x,y,z
_cell_length_a	25.639243
_cell_length_b	25.639240
_cell_length_c	25.639234
_cell_angle_alpha	89.971713
_cell_angle_beta	89.986440
_cell_angle_gamma	90.035481
loop_
_atom_site_label
_atom_site_type_symbol
_atom_site_fract_x
_atom_site_fract_y
_atom_site_fract_z
Zn1	Zn	0.799234	-0.208164	-0.295630
Zn2	Zn	1.299234	0.291836	0.204370
Zn3	Zn	0.799170	-0.295587	-0.208183
Zn4	Zn	1.299170	0.204413	0.291817
Zn5	Zn	0.711814	-0.208171	-0.208203
Zn6	Zn	1.211814	0.291829	0.291797
Zn7	Zn	0.711765	-0.295575	-0.295582
Zn8	Zn	1.211765	0.204425	0.204418
O9	O	0.755496	-0.251874	-0.251900
O10	O	1.255496	0.248126	0.248100
O11	O	0.872391	-0.219763	-0.284041
O12	O	1.372391	0.280237	0.215959
O13	O	0.787576	-0.283999	-0.135020
O14	O	1.287576	0.216001	0.364980
O15	O	0.723458	-0.135005	-0.219829
O16	O	1.223458	0.364995	0.280171
O17	O	0.872344	-0.283992	-0.219794
O18	O	1.372344	0.216008	0.280206
O19	O	0.787685	-0.135000	-0.284061
O20	O	1.287685	0.365000	0.215939
O21	O	0.723396	-0.219775	-0.135035
O22	O	1.223396	0.280225	0.364965
O23	O	0.638642	-0.219763	-0.219783
O24	O	1.138642	0.280237	0.280217
O25	O	0.723374	-0.283972	-0.368754
O26	O	1.223374	0.216028	0.131246
O27	O	0.638606	-0.283978	-0.283980
O28	O	1.138606	0.216022	0.216020
O29	O	0.787637	-0.219751	-0.368789
O30	O	1.287637	0.280249	0.131211
O31	O	0.787528	-0.368750	-0.219749
O32	O	1.287528	0.131250	0.280251
O33	O	0.723312	-0.368741	-0.283960
O34	O	1.223312	0.131259	0.216040
C35	C	0.619653	-0.251871	-0.251879
C36	C	1.119653	0.248129	0.248121
C37	C	0.561539	-0.251882	-0.251882
C38	C	1.061539	0.248118	0.248118
C39	C	0.201195	-0.218483	-0.285409
C40	C	0.701195	0.281517	0.214591
C41	C	0.146591	-0.218482	-0.285412
C42	C	0.646591	0.281518	0.214588
O43	O	0.118370	-0.190076	-0.313891
O44	O	0.618370	0.309924	0.186109
N45	N	0.119257	-0.251873	-0.251914
N46	N	0.619257	0.248127	0.248086
C47	C	0.146530	-0.285262	-0.218407
C48	C	0.646530	0.214738	0.281593
O49	O	0.118266	-0.313663	-0.189914
O50	O	0.618266	0.186337	0.310086
C51	C	0.201133	-0.285259	-0.218401
C52	C	0.701133	0.214741	0.281599
C53	C	0.228464	-0.251870	-0.251905
C54	C	0.728464	0.248130	0.248095
C55	C	0.228526	-0.185096	-0.318909
C56	C	0.728526	0.314904	0.181091
C57	C	0.283127	-0.185098	-0.318907
C58	C	0.783127	0.314902	0.181093
C59	C	0.310396	-0.218485	-0.285403
C60	C	0.810396	0.281515	0.214597
C61	C	0.283065	-0.251872	-0.251903
C62	C	0.783065	0.248128	0.248097
C63	C	0.228406	-0.318645	-0.184892
C64	C	0.728406	0.181355	0.315108
C65	C	0.283013	-0.318640	-0.184889
C66	C	0.783013	0.181360	0.315111
C67	C	0.310344	-0.285251	-0.218393
C68	C	0.810344	0.214749	0.281607
C69	C	0.364935	-0.285261	-0.218396
C70	C	0.864935	0.214739	0.281604
N71	N	0.392269	-0.251870	-0.251894
N72	N	0.892269	0.248130	0.248106
C73	C	0.364999	-0.218483	-0.285398
C74	C	0.864999	0.281517	0.214602
C75	C	0.031859	-0.285264	-0.218420
C76	C	0.531859	0.214736	0.281580
C77	C	-0.022743	-0.285270	-0.218428
C78	C	0.477257	0.214730	0.281572
C79	C	-0.022678	-0.218489	-0.285432
C80	C	0.477322	0.281511	0.214568
C81	C	0.031925	-0.218487	-0.285427
C82	C	0.531925	0.281513	0.214573
C83	C	0.059193	-0.251874	-0.251918
C84	C	0.559193	0.248126	0.248082
C85	C	0.479665	-0.218488	-0.285390
C86	C	0.979665	0.281512	0.214610
C87	C	0.534270	-0.218494	-0.285386
C88	C	1.034270	0.281506	0.214614
C89	C	0.534201	-0.285272	-0.218380
C90	C	1.034201	0.214728	0.281620
C91	C	0.479600	-0.285269	-0.218385
C92	C	0.979600	0.214731	0.281615
C93	C	0.452333	-0.251872	-0.251892
C94	C	0.952333	0.248128	0.248108
O95	O	0.393190	-0.313652	-0.189930
O96	O	0.893190	0.186348	0.310070
O97	O	0.393270	-0.190082	-0.313881
O98	O	0.893270	0.309918	0.186119
C99	C	0.755422	-0.387717	-0.251859
C100	C	1.255422	0.112283	0.248141
C101	C	0.755438	-0.445831	-0.251859
C102	C	1.255438	0.054169	0.248141
C103	C	0.788956	-0.806153	-0.285405
C104	C	1.288956	-0.306153	0.214595
C105	C	0.788971	-0.860757	-0.285416
C106	C	1.288971	-0.360757	0.214584
O107	O	0.817381	-0.888959	-0.313897
O108	O	1.317381	-0.388959	0.186103
N109	N	0.755568	-0.888113	-0.251950
N110	N	1.255568	-0.388113	0.248050
C111	C	0.722145	-0.860862	-0.218475
C112	C	1.222145	-0.360862	0.281525
O113	O	0.693734	-0.889145	-0.190011
O114	O	1.193734	-0.389145	0.309989
C115	C	0.722127	-0.806259	-0.218467
C116	C	1.222127	-0.306259	0.281533
C117	C	0.755535	-0.778906	-0.251932
C118	C	1.255535	-0.278906	0.248068
C119	C	0.822361	-0.778799	-0.318867
C120	C	1.322361	-0.278799	0.181133
C121	C	0.822346	-0.724199	-0.318856
C122	C	1.322346	-0.224199	0.181144
C123	C	0.788926	-0.696952	-0.285383
C124	C	1.288926	-0.196952	0.214617
C125	C	0.755520	-0.724305	-0.251920
C126	C	1.255520	-0.224305	0.248080
C127	C	0.688701	-0.779009	-0.184996
C128	C	1.188701	-0.279009	0.315004
C129	C	0.688686	-0.724402	-0.184991
C130	C	1.188686	-0.224402	0.315009
C131	C	0.722094	-0.697049	-0.218455
C132	C	1.222094	-0.197049	0.281545
C133	C	0.722085	-0.642457	-0.218435
C134	C	1.222085	-0.142457	0.281565
N135	N	0.755488	-0.615101	-0.251901
N136	N	1.255488	-0.115101	0.248099
C137	C	0.788908	-0.642348	-0.285375
C138	C	1.288908	-0.142348	0.214625
C139	C	0.722184	-0.975533	-0.218494
C140	C	1.222184	-0.475533	0.281506
C141	C	0.722203	-1.030135	-0.218499
C142	C	1.222203	-0.530135	0.281501
C143	C	0.789029	-1.030026	-0.285441
C144	C	1.289029	-0.530026	0.214559
C145	C	0.789012	-0.975423	-0.285433
C146	C	1.289012	-0.475423	0.214567
C147	C	0.755586	-0.948177	-0.251960
C148	C	1.255586	-0.448177	0.248040
C149	C	0.788875	-0.527683	-0.285348
C150	C	1.288875	-0.027683	0.214652
C151	C	0.788858	-0.473078	-0.285332
C152	C	1.288858	0.026922	0.214668
C153	C	0.722031	-0.473192	-0.218392
C154	C	1.222031	0.026808	0.281608
C155	C	0.722049	-0.527792	-0.218406
C156	C	1.222049	-0.027792	0.281594
C157	C	0.755473	-0.555037	-0.251888
C158	C	1.255473	-0.055037	0.248112
O159	O	0.693689	-0.614221	-0.189971
O160	O	1.193689	-0.114221	0.310029
O161	O	0.817309	-0.614059	-0.313839
O162	O	1.317309	-0.114059	0.186161
C163	C	0.891869	-0.251878	-0.251921
C164	C	1.391869	0.248122	0.248079
C165	C	0.949983	-0.251880	-0.251930
C166	C	1.449983	0.248120	0.248070
C167	C	0.755507	-0.251859	-0.388273
C168	C	1.255507	0.248141	0.111727
C169	C	0.755512	-0.251853	-0.446387
C170	C	1.255512	0.248147	0.053613
C171	C	0.755584	-0.115501	-0.251952
C172	C	1.255584	0.384499	0.248048
C173	C	0.755622	-0.057387	-0.251975
C174	C	1.255622	0.442613	0.248025
C175	C	0.722085	-0.285227	-0.697556
C176	C	1.222085	0.214773	-0.197556
C177	C	0.722076	-0.285238	-0.642952
C178	C	1.222076	0.214762	-0.142952
O179	O	0.693605	-0.313666	-0.614695
O180	O	1.193605	0.186334	-0.114695
N181	N	0.755532	-0.251811	-0.615661
N182	N	1.255532	0.248189	-0.115661
C183	C	0.788996	-0.218366	-0.642976
C184	C	1.288996	0.281634	-0.142976
O185	O	0.817451	-0.189933	-0.614749
O186	O	1.317451	0.310067	-0.114749
C187	C	0.789002	-0.218352	-0.697580
C188	C	1.289002	0.281648	-0.197580
C189	C	0.755547	-0.251785	-0.724868
C190	C	1.255547	0.248215	-0.224868
C191	C	0.688632	-0.318657	-0.724845
C192	C	1.188632	0.181343	-0.224845
C193	C	0.688642	-0.318646	-0.779446
C194	C	1.188642	0.181354	-0.279446
C195	C	0.722105	-0.285204	-0.806758
C196	C	1.222105	0.214796	-0.306758
C197	C	0.755557	-0.251774	-0.779469
C198	C	1.255557	0.248226	-0.279469
C199	C	0.822462	-0.184904	-0.724894
C200	C	1.322462	0.315096	-0.224894
C201	C	0.822465	-0.184893	-0.779501
C202	C	1.322465	0.315107	-0.279501
C203	C	0.789011	-0.218326	-0.806790
C204	C	1.289011	0.281674	-0.306790
C205	C	0.789029	-0.218321	-0.861381
C206	C	1.289029	0.281679	-0.361381
N207	N	0.755573	-0.251749	-0.888673
N208	N	1.255573	0.248251	-0.388673
C209	C	0.722111	-0.285190	-0.861361
C210	C	1.222111	0.214810	-0.361361
C211	C	0.788979	-0.218397	-0.528306
C212	C	1.288979	0.281603	-0.028306
C213	C	0.788976	-0.218413	-0.473703
C214	C	1.288976	0.281587	0.026297
C215	C	0.722055	-0.285286	-0.473683
C216	C	1.222055	0.214714	0.026317
C217	C	0.722062	-0.285272	-0.528286
C218	C	1.222062	0.214728	-0.028286
C219	C	0.755523	-0.251825	-0.555597
C220	C	1.255523	0.248175	-0.055597
C221	C	0.722135	-0.285164	-0.976026
C222	C	1.222135	0.214836	-0.476026
C223	C	0.722149	-0.285152	-1.030631
C224	C	1.222149	0.214848	-0.530631
C225	C	0.789068	-0.218278	-1.030647
C226	C	1.289068	0.281722	-0.530647
C227	C	0.789055	-0.218292	-0.976047
C228	C	1.289055	0.281708	-0.476047
C229	C	0.755585	-0.251737	-0.948737
C230	C	1.255585	0.248263	-0.448737
O231	O	0.817484	-0.189906	-0.889673
O232	O	1.317484	0.310094	-0.389673
O233	O	0.693655	-0.313613	-0.889595
O234	O	1.193655	0.186387	-0.389595
C235	C	0.755515	-0.251851	-0.116057
C236	C	1.255515	0.248149	0.383943
C237	C	0.755611	-0.251710	-0.057943
C238	C	1.255611	0.248290	0.442057
H239	H	0.054058	-0.312457	-0.191135
H240	H	0.554058	0.187543	0.308865
H241	H	0.694906	-0.312380	-1.052847
H242	H	1.194906	0.187620	-0.552847
C243	C	0.093354	-0.211318	-0.355769
C244	C	0.593354	0.288682	0.144231
C245	C	0.061965	-0.181783	-0.322253
C246	C	0.561965	0.318217	0.177747
H247	H	0.111895	-0.188656	-0.378506
H248	H	0.611895	0.311344	0.121494
H249	H	0.117412	-0.231193	-0.335815
H250	H	0.617412	0.268807	0.164185
H251	H	0.072042	-0.234128	-0.375723
H252	H	0.572042	0.265872	0.124277
H253	H	0.083277	-0.158975	-0.302296
H254	H	0.583277	0.341025	0.197704
H255	H	0.037904	-0.161899	-0.342209
H256	H	0.537904	0.338101	0.157791
C257	C	0.299968	-0.159743	-0.407487
C258	C	0.799968	0.340257	0.092513
C259	C	0.313162	-0.148388	-0.355730
C260	C	0.813162	0.351612	0.144270
H261	H	0.318506	-0.137074	-0.430219
H262	H	0.818506	0.362926	0.069781
H263	H	0.308908	-0.194876	-0.415072
H264	H	0.808908	0.305124	0.084928
H265	H	0.263543	-0.154971	-0.412273
H266	H	0.763543	0.345029	0.087727
H267	H	0.349587	-0.153163	-0.350943
H268	H	0.849587	0.346837	0.149057
H269	H	0.304226	-0.113246	-0.348142
H270	H	0.804226	0.386754	0.151858
H271	H	0.694966	-0.953352	-0.191232
H272	H	1.194966	-0.453352	0.308768
H273	H	0.206162	-0.345834	-0.157609
H274	H	0.706162	0.154166	0.342391
H275	H	0.849705	-0.157679	-0.702685
H276	H	1.349705	0.342321	-0.202685
C277	C	0.622626	-0.729999	-0.118828
C278	C	1.122626	-0.229999	0.381172
C279	C	0.651943	-0.694454	-0.148195
C280	C	1.151943	-0.194454	0.351805
H281	H	0.599946	-0.711510	-0.096110
H282	H	1.099946	-0.211510	0.403890
H283	H	0.602621	-0.751297	-0.141595
H284	H	1.102621	-0.251297	0.358405
H285	H	0.645432	-0.751290	-0.098855
H286	H	1.145432	-0.251290	0.401145
H287	H	0.629137	-0.673166	-0.168171
H288	H	1.129137	-0.173166	0.331829
H289	H	0.671950	-0.673147	-0.125425
H290	H	1.171950	-0.173147	0.374575
H291	H	0.694875	-0.312394	-0.953797
H292	H	1.194875	0.187606	-0.453797
C293	C	0.167170	-0.114771	-0.326331
C294	C	0.667170	0.385229	0.173669
C295	C	0.198558	-0.148394	-0.355743
C296	C	0.698558	0.351606	0.144257
H297	H	0.148675	-0.092112	-0.349076
H298	H	0.648675	0.407888	0.150924
H299	H	0.143074	-0.134652	-0.306390
H300	H	0.643074	0.365348	0.193610
H301	H	0.188479	-0.094739	-0.303588
H302	H	0.688479	0.405261	0.196412
H303	H	0.177249	-0.168429	-0.378484
H304	H	0.677249	0.331571	0.121516
H305	H	0.222657	-0.128511	-0.375694
H306	H	0.722657	0.371489	0.124306
C307	C	0.818517	-0.389329	-0.315043
C308	C	1.318517	0.110671	0.184957
C309	C	0.825582	-0.443011	-0.322120
C310	C	1.325582	0.056989	0.177880
H311	H	0.841190	-0.370770	-0.337752
H312	H	1.341190	0.129230	0.162248
H313	H	0.783384	-0.380408	-0.322660
H314	H	1.283384	0.119592	0.177340
H315	H	0.826194	-0.380402	-0.279918
H316	H	1.326194	0.119598	0.220082
H317	H	0.817901	-0.451939	-0.357244
H318	H	1.317901	0.048061	0.142756
H319	H	0.860723	-0.451936	-0.314506
H320	H	1.360723	0.048064	0.185494
C321	C	0.622489	-0.384739	-0.773924
C322	C	1.122489	0.115261	-0.273924
C323	C	0.651861	-0.355391	-0.809437
C324	C	1.151861	0.144609	-0.309437
H325	H	0.599777	-0.407421	-0.792438
H326	H	1.099777	0.092579	-0.292438
H327	H	0.645254	-0.404745	-0.752627
H328	H	1.145254	0.095255	-0.252627
H329	H	0.602509	-0.361953	-0.752628
H330	H	1.102509	0.138047	-0.252628
H331	H	0.671844	-0.378177	-0.830730
H332	H	1.171844	0.121823	-0.330730
H333	H	0.629093	-0.335384	-0.830742
H334	H	1.129093	0.164616	-0.330742
H335	H	-0.044891	-0.191302	-0.312711
H336	H	0.455109	0.308698	0.187289
C337	C	0.888611	-0.118789	-0.774033
C338	C	1.388611	0.381211	-0.274033
C339	C	0.859251	-0.148128	-0.809521
C340	C	1.359251	0.351872	-0.309521
H341	H	0.911323	-0.096096	-0.792566
H342	H	1.411323	0.403904	-0.292566
H343	H	0.865838	-0.098796	-0.752741
H344	H	1.365838	0.401204	-0.252741
H345	H	0.908590	-0.141581	-0.752729
H346	H	1.408590	0.358419	-0.252729
H347	H	0.839269	-0.125336	-0.830822
H348	H	1.339269	0.374664	-0.330822
H349	H	0.882026	-0.168122	-0.830821
H350	H	1.382026	0.331878	-0.330821
H351	H	0.816301	-0.191071	-0.953827
H352	H	1.316301	0.308929	-0.453827
C353	C	0.854927	-0.522076	-0.351517
C354	C	1.354927	-0.022076	0.148483
C355	C	0.825613	-0.557625	-0.322153
C356	C	1.325613	-0.057625	0.177847
H357	H	0.877610	-0.540561	-0.374235
H358	H	1.377610	-0.040561	0.125765
H359	H	0.832124	-0.500786	-0.371485
H360	H	1.332124	-0.000786	0.128515
H361	H	0.874935	-0.500777	-0.328744
H362	H	1.374935	-0.000777	0.171256
H363	H	0.805602	-0.578921	-0.344926
H364	H	1.305602	-0.078921	0.155074
H365	H	0.848420	-0.578924	-0.302183
H366	H	1.348420	-0.078924	0.197817
C367	C	0.859322	-0.913951	-0.292764
C368	C	1.359322	-0.413951	0.207236
C369	C	0.825732	-0.945360	-0.322221
C370	C	1.325732	-0.445360	0.177779
H371	H	0.881993	-0.895397	-0.315479
H372	H	1.381993	-0.395397	0.184521
H373	H	0.839417	-0.889906	-0.272837
H374	H	1.339417	-0.389906	0.227163
H375	H	0.879342	-0.935252	-0.270006
H376	H	1.379342	-0.435252	0.229994
H377	H	0.805709	-0.924059	-0.344977
H378	H	1.305709	-0.424059	0.155023
H379	H	0.845639	-0.969408	-0.342158
H380	H	1.345639	-0.469408	0.157842
C381	C	0.818784	-0.188570	-1.114364
C382	C	1.318784	0.311430	-0.614364
C383	C	0.825847	-0.181518	-1.060676
C384	C	1.325847	0.318482	-0.560676
H385	H	0.841486	-0.165872	-1.132903
H386	H	1.341486	0.334128	-0.632903
H387	H	0.826417	-0.223693	-1.123299
H388	H	1.326417	0.276307	-0.623299
H389	H	0.783657	-0.180918	-1.123303
H390	H	1.283657	0.319082	-0.623303
H391	H	0.860973	-0.189174	-1.051736
H392	H	1.360973	0.310826	-0.551736
H393	H	0.818217	-0.146387	-1.051737
H394	H	1.318217	0.353613	-0.551737
H395	H	0.694849	-0.550065	-0.191153
H396	H	1.194849	-0.050065	0.308847
H397	H	0.661380	-0.345889	-0.702614
H398	H	1.161380	0.154111	-0.202614
H399	H	0.305212	-0.345827	-0.157601
H400	H	0.805212	0.154173	0.342399
H401	H	0.661496	-0.801271	-0.157745
H402	H	1.161496	-0.301271	0.342255
H403	H	0.694819	-0.312496	-0.550501
H404	H	1.194819	0.187504	-0.050501
H405	H	0.849548	-0.701931	-0.346107
H406	H	1.349548	-0.201931	0.153893
C407	C	0.418142	-0.355588	-0.210986
C408	C	0.918142	0.144412	0.289014
C409	C	0.449553	-0.321972	-0.181562
C410	C	0.949553	0.178028	0.318438
H411	H	0.399597	-0.378247	-0.188249
H412	H	0.899597	0.121753	0.311751
H413	H	0.394088	-0.335702	-0.230932
H414	H	0.894088	0.164298	0.269068
H415	H	0.439440	-0.375621	-0.233725
H416	H	0.939440	0.124379	0.266275
H417	H	0.428255	-0.301937	-0.158825
H418	H	0.928255	0.198063	0.341175
H419	H	0.473610	-0.341861	-0.161606
H420	H	0.973610	0.158139	0.338394
C421	C	0.550965	-0.373769	-0.192738
C422	C	1.050965	0.126231	0.307262
C423	C	0.564184	-0.321971	-0.181555
C424	C	1.064184	0.178029	0.318445
H425	H	0.569481	-0.396422	-0.170004
H426	H	1.069481	0.103578	0.329996
H427	H	0.514540	-0.378548	-0.187939
H428	H	1.014540	0.121452	0.312061
H429	H	0.559919	-0.381465	-0.227854
H430	H	1.059919	0.118535	0.272146
H431	H	0.555227	-0.314273	-0.146441
H432	H	1.055227	0.185727	0.353559
H433	H	0.600618	-0.317189	-0.186350
H434	H	1.100618	0.182811	0.313650
C435	C	-0.017308	-0.351277	-0.152198
C436	C	0.482692	0.148723	0.347802
C437	C	-0.052782	-0.321975	-0.181603
C438	C	0.447218	0.178025	0.318397
H439	H	-0.035853	-0.373934	-0.129459
H440	H	0.464147	0.126066	0.370541
H441	H	0.003981	-0.371308	-0.174939
H442	H	0.503981	0.128692	0.325061
H443	H	0.003999	-0.328461	-0.132245
H444	H	0.503999	0.171539	0.367755
H445	H	-0.074086	-0.344791	-0.201559
H446	H	0.425914	0.155209	0.298441
H447	H	-0.074080	-0.301944	-0.158858
H448	H	0.425920	0.198056	0.341142
C449	C	0.888417	-0.773192	-0.385026
C450	C	1.388417	-0.273192	0.114974
C451	C	0.859104	-0.808743	-0.355663
C452	C	1.359104	-0.308743	0.144337
H453	H	0.911107	-0.791677	-0.407739
H454	H	1.411107	-0.291677	0.092261
H455	H	0.865614	-0.751908	-0.405000
H456	H	1.365614	-0.251908	0.095000
H457	H	0.908418	-0.751888	-0.362252
H458	H	1.408418	-0.251888	0.137748
H459	H	0.839100	-0.830045	-0.378437
H460	H	1.339100	-0.330045	0.121563
H461	H	0.881910	-0.830037	-0.335688
H462	H	1.381910	-0.330037	0.164312
C463	C	0.818715	-1.113686	-0.315180
C464	C	1.318715	-0.613686	0.184820
C465	C	0.825762	-1.059984	-0.322241
C466	C	1.325762	-0.559984	0.177759
H467	H	0.841389	-1.132180	-0.337901
H468	H	1.341389	-0.632180	0.162099
H469	H	0.826399	-1.122646	-0.280064
H470	H	1.326399	-0.622646	0.219936
H471	H	0.783579	-1.122652	-0.322797
H472	H	1.283579	-0.622652	0.177203
H473	H	0.860897	-1.051017	-0.314621
H474	H	1.360897	-0.551017	0.185379
H475	H	0.818081	-1.051019	-0.357365
H476	H	1.318081	-0.551019	0.142635
C477	C	0.656148	-1.024745	-0.152331
C478	C	1.156148	-0.524745	0.347669
C479	C	0.685483	-1.060198	-0.181711
C480	C	1.185483	-0.560198	0.318289
H481	H	0.633474	-1.043304	-0.129623
H482	H	1.133474	-0.543304	0.370377
H483	H	0.678938	-1.003443	-0.132351
H484	H	1.178938	-0.503443	0.367649
H485	H	0.636130	-1.003448	-0.175095
H486	H	1.136130	-0.503448	0.324905
H487	H	0.705504	-1.081492	-0.158947
H488	H	1.205504	-0.581492	0.341053
H489	H	0.662690	-1.081509	-0.201691
H490	H	1.162690	-0.581509	0.298309
H491	H	0.694822	-0.450999	-0.191137
H492	H	1.194822	0.049001	0.308863
H493	H	0.694808	-0.312515	-0.451436
H494	H	1.194808	0.187485	0.048564
C495	C	0.855124	-0.152312	-0.479222
C496	C	1.355124	0.347688	0.020778
C497	C	0.825754	-0.181665	-0.443711
C498	C	1.325754	0.318335	0.056289
H499	H	0.877825	-0.129621	-0.460706
H500	H	1.377825	0.370379	0.039294
H501	H	0.875109	-0.175090	-0.500512
H502	H	1.375109	0.324910	-0.000512
H503	H	0.832353	-0.132311	-0.500525
H504	H	1.332353	0.367689	-0.000525
H505	H	0.848525	-0.201669	-0.422411
H506	H	1.348525	0.298331	0.077589
H507	H	0.805767	-0.158884	-0.422413
H508	H	1.305767	0.341116	0.077587
H509	H	0.816232	-0.191161	-0.550539
H510	H	1.316232	0.308839	-0.050539
H511	H	0.556520	-0.191304	-0.312670
H512	H	1.056520	0.308696	0.187330
H513	H	0.457470	-0.191292	-0.312673
H514	H	0.957470	0.308708	0.187327
