data_functionalizedCrystal
_audit_creation_method	'MofGen! by Chris Wilmer'
_symmetry_space_group_name_H-M	'P1'
_symmetry_Int_Tables_number	1
_symmetry_cell_setting	triclinic
loop_
_symmetry_equiv_pos_as_xyz
  x,y,z
_cell_length_a	11.026607
_cell_length_b	10.967961
_cell_length_c	9.730223
_cell_angle_alpha	77.872108
_cell_angle_beta	89.999798
_cell_angle_gamma	96.380989
loop_
_atom_site_label
_atom_site_type_symbol
_atom_site_fract_x
_atom_site_fract_y
_atom_site_fract_z
O1	O	1.614518	0.523492	-0.238259
O2	O	1.260715	0.463882	-0.224144
O3	O	1.445776	0.313874	-0.188614
O4	O	1.429457	0.673499	-0.273789
O5	O	1.445774	0.313879	0.039965
O6	O	1.260713	0.463886	0.004435
O7	O	1.614516	0.523497	-0.009680
Zn8	Zn	1.437614	0.493692	0.033669
Zn9	Zn	1.437617	0.493686	-0.267493
O10	O	1.429454	0.673504	-0.045210
C11	C	1.444587	0.267121	-0.063254
C12	C	1.441032	0.127802	-0.030265
C13	C	1.215411	0.452887	-0.107251
C14	C	1.080424	0.420104	-0.099488
C15	C	1.435780	-0.078306	-0.099873
C16	C	1.439450	0.065688	-0.133978
C17	C	1.007373	0.510623	-0.120928
C18	C	0.867856	0.476742	-0.112905
C19	C	1.659819	0.534492	-0.126576
C20	C	1.794806	0.567274	-0.134348
C21	C	1.430644	0.720257	-0.170573
C22	C	1.434198	0.859576	-0.203571
N23	N	1.437621	0.493697	0.239204
N24	N	1.437619	0.493673	-0.473027
C25	C	1.519587	0.427307	0.326855
C26	C	1.519584	0.427291	0.470742
C27	C	1.355644	0.560065	0.439312
C28	C	1.355643	0.560073	0.295430
C29	C	1.614240	0.350656	0.345002
C30	C	1.614237	0.350640	0.488888
H31	H	1.434412	-0.131728	0.014155
F32	F	0.848049	0.701363	-0.166090
F33	F	1.587126	0.219441	0.325025
H34	H	1.584712	0.253631	0.556479
F35	F	1.060624	0.644704	-0.152680
H36	H	0.827116	0.374157	-0.088644
F37	F	1.027173	0.286022	-0.067722
H38	H	1.707662	0.392171	0.518104
H39	H	1.440803	0.119104	-0.248013
H40	H	1.288889	0.614120	0.224067
F41	F	1.268401	0.630703	0.499163
F42	F	1.439248	0.057989	0.118790
H43	H	1.435551	-0.087003	-0.317598
F44	F	1.729603	0.415276	0.271361
