data_functionalizedCrystal
_audit_creation_method	'MofGen! by Chris Wilmer'
_symmetry_space_group_name_H-M	'P1'
_symmetry_Int_Tables_number	1
_symmetry_cell_setting	triclinic
loop_
_symmetry_equiv_pos_as_xyz
  x,y,z
_cell_length_a	10.967829
_cell_length_b	17.038278
_cell_length_c	10.065918
_cell_angle_alpha	99.251885
_cell_angle_beta	111.710614
_cell_angle_gamma	87.838447
loop_
_atom_site_label
_atom_site_type_symbol
_atom_site_fract_x
_atom_site_fract_y
_atom_site_fract_z
O1	O	0.299276	1.055642	0.183886
O2	O	0.294813	0.827892	0.182837
O3	O	0.109183	0.942986	0.139173
O4	O	0.484905	0.940548	0.227550
O5	O	0.073113	0.921495	-0.096299
O6	O	0.258743	0.806402	-0.052635
O7	O	0.263205	1.034152	-0.051586
Zn8	Zn	0.255247	0.916865	-0.089497
Zn9	Zn	0.302771	0.945179	0.220748
O10	O	0.448835	0.919058	-0.007923
C11	C	0.272716	0.787910	0.064146
C12	C	0.260599	0.700792	0.061296
C13	C	0.186156	0.208386	0.043791
C14	C	0.197550	0.290241	0.046463
C15	C	0.320213	0.324962	0.075321
C16	C	0.431486	0.277822	0.101495
C17	C	0.420089	0.195967	0.098813
C18	C	0.360475	0.571798	0.084788
C19	C	0.371865	0.653659	0.087472
C20	C	0.137927	0.666072	0.032437
C21	C	0.126542	0.584217	0.029765
C22	C	0.237814	0.537083	0.055932
C23	C	0.331863	0.408631	0.078058
C24	C	0.226161	0.453414	0.053185
C25	C	0.042837	0.930440	0.010076
C26	C	-0.101115	0.925064	-0.023775
C27	C	-0.146602	0.933800	0.083116
C28	C	-0.295384	0.928244	0.048132
C29	C	0.515182	0.931605	0.121177
C30	C	0.659135	0.936981	0.155038
C31	C	0.285302	1.074134	0.067108
C32	C	0.297421	1.161253	0.069967
N33	N	0.222813	0.897546	-0.301232
C34	C	0.291486	0.938453	-0.352858
C35	C	0.266513	0.923591	-0.515899
N36	N	0.335196	0.964503	0.432480
H37	H	0.106945	0.328614	0.025141
N38	N	0.164126	0.862628	-0.617219
H39	H	0.160795	0.860654	-0.719329
H40	H	0.187587	0.808652	-0.586819
N41	N	0.504171	0.691106	0.118587
H42	H	0.494503	0.750113	0.116323
H43	H	0.566628	0.682051	0.217424
N44	N	0.053855	0.170935	0.012651
H45	H	0.057272	0.145216	0.097596
H46	H	-0.014834	0.213254	-0.003569
H47	H	0.451083	0.533432	0.106102
H48	H	-0.172319	0.913466	-0.141188
H49	H	0.145528	0.851525	-0.377737
H50	H	0.026657	0.555953	0.006266
H51	H	0.412481	1.010532	-0.491022
H52	H	-0.075397	0.945389	0.200530
H53	H	0.531360	0.306097	0.124984
H54	H	0.368763	0.984479	-0.276355
H55	H	0.510693	0.157591	0.120124
H56	H	0.431737	0.436910	0.101559
N57	N	0.017917	0.716907	0.004208
H58	H	0.043743	0.774030	0.010283
H59	H	-0.048515	0.697342	-0.095571
N60	N	0.093867	0.415962	0.022049
H61	H	0.097301	0.390241	0.106999
H62	H	0.025169	0.458276	0.005837
H63	H	-0.366584	0.916646	-0.069289
H64	H	-0.269664	0.948565	0.272460
