data_functionalizedCrystal
_audit_creation_method	'MofGen! by Chris Wilmer'
_symmetry_space_group_name_H-M	'P1'
_symmetry_Int_Tables_number	1
_symmetry_cell_setting	triclinic
loop_
_symmetry_equiv_pos_as_xyz
  x,y,z
_cell_length_a	14.044220
_cell_length_b	19.288865
_cell_length_c	13.101039
_cell_angle_alpha	86.654591
_cell_angle_beta	86.340132
_cell_angle_gamma	91.837437
loop_
_atom_site_label
_atom_site_type_symbol
_atom_site_fract_x
_atom_site_fract_y
_atom_site_fract_z
O1	O	1.262216	-0.163906	-0.085128
O2	O	1.762216	0.336094	0.414872
O3	O	0.986274	-0.157863	-0.085153
O4	O	1.486274	0.342137	0.414847
O5	O	1.132217	-0.060267	-0.085119
O6	O	1.632217	0.439733	0.414881
O7	O	1.116273	-0.261502	-0.085161
O8	O	1.616273	0.238498	0.414839
O9	O	1.121746	-0.067282	0.085308
O10	O	1.621746	0.432718	0.585308
O11	O	0.975803	-0.164878	0.085275
O12	O	1.475803	0.335122	0.585275
O13	O	1.251745	-0.170921	0.085300
O14	O	1.751745	0.329079	0.585300
Zn15	Zn	1.112111	-0.169013	0.112346
Zn16	Zn	1.612111	0.330987	0.612346
Zn17	Zn	1.125908	-0.159771	-0.112199
Zn18	Zn	1.625908	0.340229	0.387801
O19	O	1.105802	-0.268517	0.085266
O20	O	1.605802	0.231483	0.585266
C21	C	0.945735	-0.158726	0.000058
C22	C	1.445735	0.341274	0.500058
C23	C	0.840544	-0.150838	0.000050
C24	C	1.340544	0.349162	0.500050
N25	N	1.102702	-0.175321	0.265593
N26	N	1.602702	0.324679	0.765593
C27	C	1.126468	-0.037866	0.000098
C28	C	1.626468	0.462134	0.500098
C29	C	1.124927	0.039337	0.000107
C30	C	1.624927	0.539337	0.500107
C31	C	0.647943	-0.136419	0.000073
C32	C	1.147943	0.363581	0.500073
C33	C	0.590071	-0.192362	0.000065
C34	C	1.090071	0.307638	0.500065
C35	C	0.482901	-0.184339	0.000078
C36	C	0.982901	0.315661	0.500078
C37	C	0.755123	-0.144441	0.000060
C38	C	1.255123	0.355559	0.500060
C39	C	1.292283	-0.170057	0.000087
C40	C	1.792283	0.329943	0.500087
C41	C	1.397475	-0.177945	0.000089
C42	C	1.897475	0.322055	0.500089
C43	C	1.111551	-0.290918	0.000047
C44	C	1.611551	0.209082	0.500047
C45	C	1.113092	-0.368120	0.000032
C46	C	1.613092	0.131880	0.500032
C47	C	1.210561	0.078530	0.000119
C48	C	1.710561	0.578530	0.500119
C49	C	1.209114	0.151071	0.000103
C50	C	1.709114	0.651071	0.500103
C51	C	1.122029	0.184414	0.000094
C52	C	1.622029	0.684414	0.500094
C53	C	1.036385	0.145212	0.000076
C54	C	1.536385	0.645212	0.500076
C55	C	1.037834	0.072673	0.000082
C56	C	1.537834	0.572673	0.500082
C57	C	1.049902	0.294643	0.059785
C58	C	1.549902	0.794643	0.559785
C59	C	1.048456	0.367181	0.059786
C60	C	1.548456	0.867181	0.559786
C61	C	1.117556	0.408148	0.000071
C62	C	1.617556	0.908148	0.500071
C63	C	1.188118	0.376570	-0.059630
C64	C	1.688118	0.876570	0.440370
C65	C	1.189567	0.304031	-0.059624
C66	C	1.689567	0.804031	0.440376
C67	C	1.120448	0.263070	0.000087
C68	C	1.620448	0.763070	0.500087
C69	C	1.201627	0.525999	0.000065
C70	C	1.701627	1.025999	0.500065
C71	C	1.200178	0.598541	0.000042
C72	C	1.700178	1.098541	0.500042
C73	C	1.027445	0.592680	0.000025
C74	C	1.527445	1.092680	0.500025
C75	C	1.028898	0.520140	0.000038
C76	C	1.528898	1.020140	0.500038
C77	C	1.115991	0.486804	0.000062
C78	C	1.615991	0.986804	0.500062
N79	N	1.135324	-0.153458	-0.265445
N80	N	1.635324	0.346542	0.234555
C81	C	1.089901	-0.183910	0.474632
C82	C	1.589901	0.316090	0.974632
C83	C	1.148122	-0.144871	0.525521
C84	C	1.648122	0.355129	1.025521
C85	C	1.140999	-0.149650	0.641838
C86	C	1.640999	0.350350	1.141838
C87	C	1.097023	-0.179132	0.358305
C88	C	1.597023	0.320868	0.858305
H89	H	0.621013	-0.246282	0.000049
H90	H	1.121013	0.253718	0.500049
H91	H	0.617003	-0.082503	0.000090
H92	H	1.117003	0.417497	0.500090
H93	H	1.272544	0.498856	0.000080
H94	H	1.772544	0.998856	0.500080
H95	H	1.203316	-0.107861	0.481732
H96	H	1.703316	0.392139	0.981732
N97	N	1.299530	0.044490	0.000142
N98	N	1.799530	0.544490	0.500142
N99	N	1.375983	0.079499	0.000150
N100	N	1.875983	0.579499	0.500150
H101	H	1.438819	0.055458	0.000164
H102	H	1.938819	0.555458	0.500164
H103	H	1.278850	0.182989	0.000109
H104	H	1.778850	0.682989	0.500109
N105	N	1.261644	0.271785	-0.120608
N106	N	1.761644	0.771785	0.379392
N107	N	1.323341	0.308363	-0.173920
N108	N	1.823341	0.808363	0.326080
H109	H	1.374246	0.285590	-0.216993
H110	H	1.874246	0.785590	0.283007
N111	N	1.020679	-0.230350	0.529554
N112	N	1.520679	0.269650	1.029554
N113	N	1.022575	-0.294130	0.517661
N114	N	1.522575	0.205870	1.017661
H115	H	0.973689	-0.326930	0.556458
H116	H	1.473689	0.173070	1.056458
H117	H	1.269914	0.630452	0.000047
H118	H	1.769914	1.130452	0.500047
N119	N	1.258711	0.418417	-0.120614
N120	N	1.758711	0.918417	0.379386
N121	N	1.257411	0.483183	-0.120612
N122	N	1.757411	0.983183	0.379388
H123	H	1.307269	0.512741	-0.163675
H124	H	1.807269	1.012741	0.336325
H125	H	0.956539	0.619828	0.000013
H126	H	1.456539	1.119828	0.500013
N127	N	0.941415	0.480111	0.000028
N128	N	1.441415	0.980111	0.500028
N129	N	0.863665	0.509887	0.000016
N130	N	1.363665	1.009887	0.500016
H131	H	0.801876	0.481617	0.000007
H132	H	1.301876	0.981617	0.500007
H133	H	0.990997	0.392886	0.108392
H134	H	1.490997	0.892886	0.608392
H135	H	0.993629	0.261293	0.108417
H136	H	1.493629	0.761293	0.608417
H137	H	0.965479	0.172365	0.000067
H138	H	1.465479	0.672365	0.500067
N139	N	0.950349	0.032644	0.000063
N140	N	1.450349	0.532644	0.500063
N141	N	0.872599	0.062420	0.000045
N142	N	1.372599	0.562420	0.500045
H143	H	0.810810	0.034149	0.000033
H144	H	1.310810	0.534149	0.500033
