data_functionalizedCrystal
_audit_creation_method	'MofGen! by Chris Wilmer'
_symmetry_space_group_name_H-M	'P1'
_symmetry_Int_Tables_number	1
_symmetry_cell_setting	triclinic
loop_
_symmetry_equiv_pos_as_xyz
  x,y,z
_cell_length_a	8.559649
_cell_length_b	17.038272
_cell_length_c	7.088929
_cell_angle_alpha	83.325468
_cell_angle_beta	95.325015
_cell_angle_gamma	80.445110
loop_
_atom_site_label
_atom_site_type_symbol
_atom_site_fract_x
_atom_site_fract_y
_atom_site_fract_z
O1	O	2.101368	-0.017362	-0.158956
O2	O	1.641608	0.022690	-0.158968
O3	O	1.868757	-0.110988	-0.158947
O4	O	1.874219	0.116317	-0.158977
O5	O	1.899108	-0.128889	0.159031
O6	O	1.671959	0.004789	0.159010
O7	O	2.131720	-0.035263	0.159022
Cu8	Cu	1.904611	-0.016871	0.188050
Cu9	Cu	1.868717	0.004298	-0.187996
O10	O	1.904570	0.098416	0.159001
C11	C	1.597666	0.016775	0.000020
C12	C	1.421514	0.025810	0.000016
C13	C	1.878962	-0.148769	0.000042
C14	C	1.864133	-0.234674	0.000041
C15	C	2.000285	-0.292946	0.000046
C16	C	1.986340	-0.373660	0.000028
C17	C	1.836242	-0.396101	0.000018
C18	C	1.700079	-0.337821	0.000006
C19	C	1.714024	-0.257108	0.000011
C20	C	1.786975	-0.638906	-0.000010
C21	C	1.773041	-0.719626	-0.000009
C22	C	2.059303	-0.755459	0.000009
C23	C	2.073236	-0.674743	0.000025
C24	C	1.937072	-0.616470	0.000004
C25	C	1.821985	-0.478604	0.000005
C26	C	1.951329	-0.533968	0.000003
C27	C	2.175661	-0.029347	0.000030
C28	C	2.351812	-0.038381	0.000022
C29	C	1.894365	0.136197	0.000008
C30	C	1.909193	0.222102	-0.000003
N31	N	1.929868	-0.031762	0.452540
N32	N	1.843471	0.019182	-0.452486
H33	H	1.346417	0.087683	-0.000003
O34	O	2.048510	-0.101692	0.560691
H35	H	2.016313	-0.158771	0.522386
H36	H	1.426899	-0.100250	0.000020
O37	O	1.538183	-0.362020	0.000015
H38	H	1.551359	-0.427936	0.000041
O39	O	1.660094	-0.502808	0.000004
H40	H	1.606508	-0.486022	0.129604
H41	H	2.122512	-0.274683	0.000066
O42	O	2.133192	-0.436515	0.000065
H43	H	2.239909	-0.407352	0.000108
O44	O	2.235123	-0.650535	-0.000010
H45	H	2.327456	-0.704615	-0.000038
H46	H	1.753930	0.071976	0.465859
H47	H	1.650810	-0.737894	0.000014
O48	O	2.206162	-0.818307	0.000020
H49	H	2.171255	-0.878202	0.000002
O50	O	1.567178	-0.194253	0.000026
H51	H	1.460464	-0.223417	0.000040
H52	H	1.676099	-0.591468	-0.000027
O53	O	2.113221	-0.509772	0.000006
H54	H	2.138786	-0.481159	0.129617
