data_functionalizedCrystal
_audit_creation_method	'MofGen! by Chris Wilmer'
_symmetry_space_group_name_H-M	'P1'
_symmetry_Int_Tables_number	1
_symmetry_cell_setting	triclinic
loop_
_symmetry_equiv_pos_as_xyz
  x,y,z
_cell_length_a	19.188925
_cell_length_b	17.699083
_cell_length_c	16.176319
_cell_angle_alpha	89.998611
_cell_angle_beta	89.993545
_cell_angle_gamma	83.212782
loop_
_atom_site_label
_atom_site_type_symbol
_atom_site_fract_x
_atom_site_fract_y
_atom_site_fract_z
O1	O	0.088295	1.003961	-0.068630
O2	O	0.099782	0.783567	-0.068657
O3	O	-0.007610	0.900126	-0.068638
O4	O	0.195687	0.887401	-0.068649
O5	O	-0.007617	0.900110	0.068855
O6	O	0.099775	0.783551	0.068836
O7	O	0.088288	1.003945	0.068863
Cu8	Cu	0.094031	0.893746	0.081404
Cu9	Cu	0.094039	0.893765	-0.081198
O10	O	0.195680	0.887386	0.068844
C11	C	0.099367	0.755362	0.000086
C12	C	0.098132	0.671346	0.000076
C13	C	-0.033625	0.899707	0.000108
C14	C	-0.111131	0.898472	0.000106
C15	C	0.161169	0.622641	0.000073
C16	C	0.160005	0.543699	0.000084
C17	C	0.095803	0.513464	0.000092
C18	C	0.032761	0.562176	0.000097
C19	C	0.033926	0.641116	0.000092
C20	C	0.028060	0.243819	0.000118
C21	C	0.026900	0.164872	0.000120
C22	C	0.154139	0.146402	0.000109
C23	C	0.155304	0.225342	0.000104
C24	C	0.092263	0.274047	0.000114
C25	C	0.093526	0.359644	0.000104
C26	C	0.094538	0.427868	0.000096
C27	C	-0.672834	0.958596	0.000093
C28	C	-0.600010	0.959763	0.000100
C29	C	-0.555152	0.891370	0.000092
C30	C	-0.583124	0.821804	0.000096
C31	C	-0.655947	0.820639	0.000097
N32	N	-0.434525	0.841861	-0.046714
N33	N	-0.365346	0.842973	-0.046716
C34	C	-0.335739	0.894875	0.000091
N35	N	-0.377925	0.945637	0.046891
N36	N	-0.447110	0.944527	0.046890
C37	C	-0.476186	0.892625	0.000091
C38	C	-0.228811	0.965702	0.000101
C39	C	-0.155984	0.966866	0.000113
C40	C	-0.139100	0.828905	0.000101
C41	C	-0.211925	0.827743	0.000097
C42	C	-0.256776	0.896143	0.000093
C43	C	0.221695	0.887805	0.000096
C44	C	0.299201	0.889040	0.000093
C45	C	0.088703	1.032149	0.000118
C46	C	0.089938	1.116166	0.000123
N47	N	0.094025	0.893739	0.195769
N48	N	0.094040	0.893779	-0.195563
C49	C	0.046491	0.945366	0.239042
C50	C	0.046490	0.945370	0.325589
C51	C	0.094027	0.893749	0.368862
C52	C	0.141563	0.842116	0.325583
C53	C	0.141560	0.842109	0.239038
C54	C	0.141577	0.842142	0.674611
C55	C	0.141577	0.842154	0.761163
C56	C	0.046506	0.945403	0.761163
C57	C	0.046503	0.945396	0.674617
C58	C	0.094037	0.893760	0.631346
C59	C	0.094036	0.893756	0.537502
C60	C	0.094032	0.893757	0.462704
H61	H	0.213450	0.647251	0.000066
H62	H	-0.546596	0.766118	0.000092
H63	H	0.211336	0.504046	0.000080
F64	F	0.192154	0.787173	0.371638
F65	F	0.223637	0.257516	0.000091
H66	H	0.180266	0.800068	0.203806
F67	F	-0.685709	0.746605	0.000097
F68	F	0.221234	0.094561	0.000102
F69	F	-0.276547	1.038498	0.000099
F70	F	-0.126224	1.040901	0.000111
H71	H	-0.102577	0.773218	0.000102
F72	F	-0.241687	0.753711	0.000091
H73	H	-0.025384	0.140259	0.000128
H74	H	-0.023272	0.283465	0.000127
F75	F	0.192175	0.787209	0.807216
F76	F	-0.033167	0.692952	0.000099
F77	F	-0.035569	0.529995	0.000111
H78	H	0.007800	0.987445	0.796403
H79	H	0.007784	0.987405	0.203815
F80	F	-0.004102	1.000317	0.371643
H81	H	-0.709348	1.014293	0.000094
F82	F	-0.570241	1.033797	0.000108
H83	H	0.007796	0.987433	0.639387
H84	H	0.180281	0.800100	0.639387
