data_functionalizedCrystal
_audit_creation_method	'MofGen! by Chris Wilmer'
_symmetry_space_group_name_H-M	'P1'
_symmetry_Int_Tables_number	1
_symmetry_cell_setting	triclinic
loop_
_symmetry_equiv_pos_as_xyz
  x,y,z
_cell_length_a	15.944551
_cell_length_b	10.654550
_cell_length_c	9.130313
_cell_angle_alpha	90.002757
_cell_angle_beta	90.006165
_cell_angle_gamma	96.008166
loop_
_atom_site_label
_atom_site_type_symbol
_atom_site_fract_x
_atom_site_fract_y
_atom_site_fract_z
O1	O	0.117978	-1.666307	0.121694
O2	O	0.451311	-1.332974	0.455027
O3	O	0.784644	-0.999641	0.788360
O4	O	0.129218	-1.300683	0.121721
O5	O	0.462551	-0.967350	0.455054
O6	O	0.795884	-0.634017	0.788387
O7	O	0.001381	-1.493480	0.121693
O8	O	0.334714	-1.160146	0.455027
O9	O	0.668047	-0.826813	0.788360
O10	O	0.245815	-1.473511	0.121721
O11	O	0.579148	-1.140178	0.455054
O12	O	0.912481	-0.806844	0.788388
O13	O	0.001374	-1.493478	-0.121906
O14	O	0.334708	-1.160145	0.211428
O15	O	0.668041	-0.826811	0.544761
O16	O	0.129211	-1.300682	-0.121878
O17	O	0.462545	-0.967348	0.211455
O18	O	0.795878	-0.634015	0.544789
O19	O	0.117972	-1.666306	-0.121905
O20	O	0.451305	-1.332972	0.211428
O21	O	0.784638	-0.999639	0.544761
Cu22	Cu	0.123591	-1.483493	-0.144134
Cu23	Cu	0.456924	-1.150160	0.189199
Cu24	Cu	0.790258	-0.816827	0.522533
Cu25	Cu	0.123598	-1.483495	0.143950
Cu26	Cu	0.456932	-1.150162	0.477283
Cu27	Cu	0.790265	-0.816829	0.810616
O28	O	0.245809	-1.473509	-0.121878
O29	O	0.579142	-1.140176	0.211456
O30	O	0.912475	-0.806843	0.544789
C31	C	0.128389	-1.253895	-0.000075
C32	C	0.461723	-0.920562	0.333258
C33	C	0.795056	-0.587229	0.666591
C34	C	0.125920	-1.114484	-0.000065
C35	C	0.459253	-0.781151	0.333268
C36	C	0.792587	-0.447817	0.666601
C37	C	-0.029921	-1.492650	-0.000106
C38	C	0.303412	-1.159316	0.333227
C39	C	0.636746	-0.825983	0.666560
C40	C	-0.123182	-1.490165	-0.000107
C41	C	0.210152	-1.156831	0.333226
C42	C	0.543485	-0.823498	0.666560
N43	N	0.123585	-1.483501	-0.346757
N44	N	0.456919	-1.150168	-0.013423
N45	N	0.790252	-0.816835	0.319910
C46	C	-0.338764	-1.364720	-0.000077
C47	C	-0.005431	-1.031387	0.333256
C48	C	0.327902	-0.698053	0.666589
C49	C	-0.399448	-1.422971	-0.120191
C50	C	-0.066114	-1.089638	0.213143
C51	C	0.267219	-0.756305	0.546476
C52	C	-0.293933	-1.485668	-0.000095
C53	C	0.039400	-1.152335	0.333238
C54	C	0.372733	-0.819002	0.666571
C55	C	-0.399425	-1.423002	0.119979
C56	C	-0.066091	-1.089668	0.453312
C57	C	0.267242	-0.756335	0.786645
C58	C	-0.458871	-1.481317	-0.000078
C59	C	-0.125538	-1.147983	0.333255
C60	C	0.207795	-0.814650	0.666589
C61	C	-0.353388	-1.543953	-0.120308
C62	C	-0.020055	-1.210620	0.213025
C63	C	0.313278	-0.877286	0.546359
C64	C	-0.353359	-1.543966	0.119969
C65	C	-0.020026	-1.210633	0.453303
C66	C	0.313308	-0.877300	0.786636
C67	C	-0.414024	-1.602306	-0.000173
C68	C	-0.080691	-1.268972	0.333160
C69	C	0.252642	-0.935639	0.666493
C70	C	-0.198917	-1.488172	-0.000107
C71	C	0.134417	-1.154839	0.333227
C72	C	0.467750	-0.821505	0.666560
C73	C	-0.553887	-1.478822	-0.000077
C74	C	-0.220554	-1.145489	0.333256
C75	C	0.112780	-0.812156	0.666590
C76	C	0.277110	-1.474339	-0.000075
C77	C	0.610444	-1.141006	0.333258
C78	C	0.943777	-0.807672	0.666592
C79	C	0.370371	-1.476824	-0.000065
C80	C	0.703704	-1.143491	0.333269
C81	C	1.037038	-0.810158	0.666602
C82	C	0.118800	-1.713094	-0.000106
C83	C	0.452133	-1.379760	0.333227
C84	C	0.785467	-1.046427	0.666561
C85	C	0.121269	-1.852505	-0.000106
C86	C	0.454602	-1.519172	0.333227
C87	C	0.787936	-1.185838	0.666560
C88	C	0.201189	-1.034024	-0.000061
C89	C	0.534522	-0.700691	0.333272
C90	C	0.867855	-0.367358	0.666606
C91	C	0.198863	-0.903034	-0.000087
C92	C	0.532197	-0.569700	0.333247
C93	C	0.865530	-0.236367	0.666580
C94	C	0.045995	-0.932975	-0.000115
C95	C	0.379328	-0.599641	0.333218
C96	C	0.712662	-0.266308	0.666552
C97	C	0.048321	-1.063963	-0.000100
C98	C	0.381654	-0.730630	0.333234
C99	C	0.714988	-0.397296	0.666567
N100	N	0.123597	-1.483498	0.346572
N101	N	0.456931	-1.150164	0.679906
N102	N	0.790264	-0.816831	1.013239
C103	C	0.067103	-1.569027	0.423212
C104	C	0.400437	-1.235694	0.756545
C105	C	0.733770	-0.902360	1.089879
C106	C	0.067099	-1.569032	0.576549
C107	C	0.400432	-1.235699	0.909882
C108	C	0.733766	-0.902365	1.243216
C109	C	0.180085	-1.397968	0.576593
C110	C	0.513419	-1.064635	0.909926
C111	C	0.846752	-0.731301	1.243259
C112	C	0.180093	-1.397970	0.423259
C113	C	0.513426	-1.064636	0.756592
C114	C	0.846760	-0.731303	1.089925
H115	H	-0.306038	-1.264327	-0.000190
H116	H	0.027296	-0.930994	0.333143
H117	H	0.360629	-0.597660	0.666477
H118	H	-0.419795	-1.371830	0.221532
H119	H	-0.086462	-1.038497	0.554865
H120	H	0.246872	-0.705163	0.888199
H121	H	-0.332930	-1.595080	0.221513
H122	H	0.000403	-1.261746	0.554847
H123	H	0.333736	-0.928413	0.888180
H124	H	-0.017184	-0.891824	-0.000152
H125	H	0.316149	-0.558491	0.333181
H126	H	0.649483	-0.225158	0.666515
H127	H	-0.012976	-1.129477	-0.000108
H128	H	0.320358	-0.796144	0.333226
H129	H	0.653691	-0.462810	0.666559
H130	H	0.226082	-1.328331	0.639046
H131	H	0.559415	-0.994998	0.972380
H132	H	0.892748	-0.661664	1.305713
H133	H	-0.333105	-1.595066	-0.221966
H134	H	0.000229	-1.261732	0.111368
H135	H	0.333562	-0.928399	0.444701
H136	H	0.021098	-1.638679	0.638945
H137	H	0.354431	-1.305346	0.972278
H138	H	0.687764	-0.972013	1.305611
H139	H	0.226101	-1.328321	0.360855
H140	H	0.559435	-0.994988	0.694188
H141	H	0.892768	-0.661654	1.027521
H142	H	0.264375	-1.075154	-0.000044
H143	H	0.597708	-0.741820	0.333289
H144	H	0.931041	-0.408487	0.666623
H145	H	0.260155	-0.837528	-0.000086
H146	H	0.593488	-0.504194	0.333247
H147	H	0.926821	-0.170861	0.666581
H148	H	0.021102	-1.638671	0.360778
H149	H	0.354436	-1.305337	0.694111
H150	H	0.687769	-0.972004	1.027444
H151	H	-0.419855	-1.371814	-0.221729
H152	H	-0.086521	-1.038481	0.111604
H153	H	0.246812	-0.705148	0.444937
H154	H	-0.446601	-1.702787	-0.000249
H155	H	-0.113268	-1.369453	0.333085
H156	H	0.220065	-1.036120	0.666418
