data_functionalizedCrystal
_audit_creation_method	'MofGen! by Chris Wilmer'
_symmetry_space_group_name_H-M	'P1'
_symmetry_Int_Tables_number	1
_symmetry_cell_setting	triclinic
loop_
_symmetry_equiv_pos_as_xyz
  x,y,z
_cell_length_a	13.897449
_cell_length_b	18.101395
_cell_length_c	13.897441
_cell_angle_alpha	89.969302
_cell_angle_beta	89.979267
_cell_angle_gamma	90.032384
loop_
_atom_site_label
_atom_site_type_symbol
_atom_site_fract_x
_atom_site_fract_y
_atom_site_fract_z
Zn1	Zn	1.474613	-0.294781	-0.545380
Zn2	Zn	1.724613	-0.044781	-0.295380
Zn3	Zn	1.974613	0.205219	-0.045380
Zn4	Zn	2.224613	0.455219	0.204620
Zn5	Zn	1.474469	-0.418636	-0.384082
Zn6	Zn	1.724469	-0.168636	-0.134082
Zn7	Zn	1.974469	0.081364	0.115918
Zn8	Zn	2.224469	0.331364	0.365918
Zn9	Zn	1.313302	-0.294816	-0.384099
Zn10	Zn	1.563302	-0.044816	-0.134099
Zn11	Zn	1.813302	0.205184	0.115901
Zn12	Zn	2.063302	0.455184	0.365901
Zn13	Zn	1.313246	-0.418588	-0.545334
Zn14	Zn	1.563246	-0.168588	-0.295334
Zn15	Zn	1.813246	0.081412	-0.045334
Zn16	Zn	2.063246	0.331412	0.204666
O17	O	1.393907	-0.356705	-0.464724
O18	O	1.643907	-0.106705	-0.214724
O19	O	1.893907	0.143295	0.035276
O20	O	2.143907	0.393295	0.285276
O21	O	1.609575	-0.311216	-0.523996
O22	O	1.859575	-0.061216	-0.273996
O23	O	2.109575	0.188784	-0.023996
O24	O	2.359575	0.438784	0.226004
O25	O	1.453053	-0.402246	-0.249102
O26	O	1.703053	-0.152246	0.000898
O27	O	1.953053	0.097754	0.250898
O28	O	2.203053	0.347754	0.500898
O29	O	1.334784	-0.191178	-0.405520
O30	O	1.584784	0.058822	-0.155520
O31	O	1.834784	0.308822	0.094480
O32	O	2.084784	0.558822	0.344480
O33	O	1.609470	-0.402212	-0.405490
O34	O	1.859470	-0.152212	-0.155490
O35	O	2.109470	0.097788	0.094510
O36	O	2.359470	0.347788	0.344510
O37	O	1.453298	-0.191152	-0.524013
O38	O	1.703298	0.058848	-0.274013
O39	O	1.953298	0.308848	-0.024013
O40	O	2.203298	0.558848	0.225987
O41	O	1.334644	-0.311276	-0.249115
O42	O	1.584644	-0.061276	0.000885
O43	O	1.834644	0.188724	0.250885
O44	O	2.084644	0.438724	0.500885
O45	O	1.178313	-0.311229	-0.405475
O46	O	1.428313	-0.061229	-0.155475
O47	O	1.678313	0.188771	0.094525
O48	O	1.928313	0.438771	0.344525
O49	O	1.334688	-0.402129	-0.680322
O50	O	1.584688	-0.152129	-0.430322
O51	O	1.834688	0.097871	-0.180322
O52	O	2.084688	0.347871	0.069678
O53	O	1.178272	-0.402164	-0.523934
O54	O	1.428272	-0.152164	-0.273934
O55	O	1.678272	0.097836	-0.023934
O56	O	1.928272	0.347836	0.226066
O57	O	1.453244	-0.311169	-0.680356
O58	O	1.703244	-0.061169	-0.430356
O59	O	1.953244	0.188831	-0.180356
O60	O	2.203244	0.438831	0.069644
O61	O	1.452999	-0.522263	-0.405445
O62	O	1.702999	-0.272263	-0.155445
O63	O	1.952999	-0.022263	0.094555
O64	O	2.202999	0.227737	0.344555
O65	O	1.334549	-0.522227	-0.523917
O66	O	1.584549	-0.272227	-0.273917
O67	O	1.834549	-0.022227	-0.023917
O68	O	2.084549	0.227773	0.226083
C69	C	1.143293	-0.356695	-0.464702
C70	C	1.393293	-0.106695	-0.214702
C71	C	1.643293	0.143305	0.035298
C72	C	1.893293	0.393305	0.285298
C73	C	1.036079	-0.356709	-0.464715
C74	C	1.286079	-0.106709	-0.214715
C75	C	1.536079	0.143291	0.035285
C76	C	1.786079	0.393291	0.285285
C77	C	0.839784	-0.356712	-0.464741
C78	C	1.089784	-0.106712	-0.214741
C79	C	1.339784	0.143288	0.035259
C80	C	1.589784	0.393288	0.285259
C81	C	0.949016	-0.356708	-0.464724
C82	C	1.199016	-0.106708	-0.214724
C83	C	1.449016	0.143292	0.035276
C84	C	1.699016	0.393292	0.285276
C85	C	1.393778	-0.549116	-0.464695
C86	C	1.643778	-0.299116	-0.214695
C87	C	1.893778	-0.049116	0.035305
C88	C	2.143778	0.200884	0.285305
C89	C	1.393811	-0.631430	-0.464716
C90	C	1.643811	-0.381430	-0.214716
C91	C	1.893811	-0.131430	0.035284
C92	C	2.143811	0.118570	0.285284
C93	C	1.394023	-0.930521	-0.464767
C94	C	1.644023	-0.680521	-0.214767
C95	C	1.894023	-0.430521	0.035233
C96	C	2.144023	-0.180521	0.285233
C97	C	1.319670	-0.899204	-0.539492
C98	C	1.569670	-0.649204	-0.289492
C99	C	1.819670	-0.399204	-0.039492
C100	C	2.069670	-0.149204	0.210508
C101	C	1.319317	-0.813586	-0.539258
C102	C	1.569317	-0.563586	-0.289258
C103	C	1.819317	-0.313586	-0.039258
C104	C	2.069317	-0.063586	0.210742
C105	C	1.393918	-0.782138	-0.464743
C106	C	1.643918	-0.532138	-0.214743
C107	C	1.893918	-0.282138	0.035257
C108	C	2.143918	-0.032138	0.285257
C109	C	1.366392	-0.813295	-0.363084
C110	C	1.616392	-0.563295	-0.113084
C111	C	1.866392	-0.313295	0.136916
C112	C	2.116392	-0.063295	0.386916
C113	C	1.365913	-0.898940	-0.363531
C114	C	1.615913	-0.648940	-0.113531
C115	C	1.865913	-0.398940	0.136469
C116	C	2.115913	-0.148940	0.386469
C117	C	1.496064	-0.898862	-0.490807
C118	C	1.746064	-0.648862	-0.240807
C119	C	1.996064	-0.398862	0.009193
C120	C	2.246064	-0.148862	0.259193
C121	C	1.495464	-0.813210	-0.493037
C122	C	1.745464	-0.563210	-0.243037
C123	C	1.995464	-0.313210	0.006963
C124	C	2.245464	-0.063210	0.256963
C125	C	1.393860	-0.698279	-0.464722
C126	C	1.643860	-0.448279	-0.214722
C127	C	1.893860	-0.198279	0.035278
C128	C	2.143860	0.051721	0.285278
C129	C	1.394078	-1.014380	-0.464781
C130	C	1.644078	-0.764380	-0.214781
C131	C	1.894078	-0.514380	0.035219
C132	C	2.144078	-0.264380	0.285219
C133	C	1.645500	-0.356716	-0.464746
C134	C	1.895500	-0.106716	-0.214746
C135	C	2.145500	0.143284	0.035254
C136	C	2.395500	0.393284	0.285254
C137	C	1.752714	-0.356720	-0.464756
C138	C	2.002714	-0.106720	-0.214756
C139	C	2.252714	0.143280	0.035244
C140	C	2.502714	0.393280	0.285244
C141	C	1.393976	-0.356640	-0.716317
C142	C	1.643976	-0.106640	-0.466317
C143	C	1.893976	0.143360	-0.216317
C144	C	2.143976	0.393360	0.033683
C145	C	1.394005	-0.356612	-0.823531
C146	C	1.644005	-0.106612	-0.573531
C147	C	1.894005	0.143388	-0.323531
C148	C	2.144005	0.393388	-0.073531
C149	C	1.394063	-0.163543	-0.464773
C150	C	1.644063	0.086457	-0.214773
C151	C	1.894063	0.336457	0.035227
C152	C	2.144063	0.586457	0.285227
C153	C	1.394130	-0.081229	-0.464795
C154	C	1.644130	0.168771	-0.214795
C155	C	1.894130	0.418771	0.035205
C156	C	2.144130	0.668771	0.285205
C157	C	1.394031	-0.356562	-1.019826
C158	C	1.644031	-0.106562	-0.769826
C159	C	1.894031	0.143438	-0.519826
C160	C	2.144031	0.393438	-0.269826
C161	C	1.394014	-0.356592	-0.910594
C162	C	1.644014	-0.106592	-0.660594
C163	C	1.894014	0.143408	-0.410594
C164	C	2.144014	0.393408	-0.160594
C165	C	1.393895	-0.356717	-0.214109
C166	C	1.643895	-0.106717	0.035891
C167	C	1.893895	0.143283	0.285891
C168	C	2.143895	0.393283	0.535891
C169	C	1.394052	-0.356536	-0.106896
C170	C	1.644052	-0.106536	0.143104
C171	C	1.894052	0.143464	0.393104
C172	C	2.144052	0.393464	0.643104
H173	H	1.336539	-0.792518	-0.614637
H174	H	1.586539	-0.542518	-0.364637
H175	H	1.836539	-0.292518	-0.114637
H176	H	2.086539	-0.042518	0.135363
F177	F	1.220455	-0.786891	-0.516717
F178	F	1.470455	-0.536891	-0.266717
F179	F	1.720455	-0.286891	-0.016717
F180	F	1.970455	-0.036891	0.233283
H181	H	1.336722	-0.919748	-0.615115
H182	H	1.586722	-0.669748	-0.365115
H183	H	1.836722	-0.419748	-0.115115
H184	H	2.086722	-0.169748	0.134885
F185	F	1.433618	-0.926024	-0.288273
F186	F	1.683618	-0.676024	-0.038273
F187	F	1.933618	-0.426024	0.211727
F188	F	2.183618	-0.176024	0.461727
F189	F	1.522598	-0.786590	-0.590826
F190	F	1.772598	-0.536590	-0.340826
F191	F	2.022598	-0.286590	-0.090826
F192	F	2.272598	-0.036590	0.159174
H193	H	1.553792	-0.791799	-0.442578
H194	H	1.803792	-0.541799	-0.192578
H195	H	2.053792	-0.291799	0.057422
H196	H	2.303792	-0.041799	0.307422
F197	F	1.568474	-0.925343	-0.419683
F198	F	1.818474	-0.675343	-0.169683
F199	F	2.068474	-0.425343	0.080317
F200	F	2.318474	-0.175343	0.330317
H201	H	1.244495	-0.920792	-0.522460
H202	H	1.494495	-0.670792	-0.272460
H203	H	1.744495	-0.420792	-0.022460
H204	H	1.994495	-0.170792	0.227540
F205	F	1.434948	-0.786673	-0.288325
F206	F	1.684948	-0.536673	-0.038325
F207	F	1.934948	-0.286673	0.211675
F208	F	2.184948	-0.036673	0.461675
H209	H	1.291321	-0.918985	-0.341472
H210	H	1.541321	-0.668985	-0.091472
H211	H	1.791321	-0.418985	0.158528
H212	H	2.041321	-0.168985	0.408528
H213	H	1.292590	-0.791912	-0.340630
H214	H	1.542590	-0.541912	-0.090630
H215	H	1.792590	-0.291912	0.159370
H216	H	2.042590	-0.041912	0.409370
H217	H	1.521159	-0.920406	-0.563673
H218	H	1.771159	-0.670406	-0.313673
H219	H	2.021159	-0.420406	-0.063673
H220	H	2.271159	-0.170406	0.186327
