data_functionalizedCrystal
_audit_creation_method	'MofGen! by Chris Wilmer'
_symmetry_space_group_name_H-M	'P1'
_symmetry_Int_Tables_number	1
_symmetry_cell_setting	triclinic
loop_
_symmetry_equiv_pos_as_xyz
  x,y,z
_cell_length_a	8.597227
_cell_length_b	8.559649
_cell_length_c	7.088929
_cell_angle_alpha	95.344185
_cell_angle_beta	91.337881
_cell_angle_gamma	77.621968
loop_
_atom_site_label
_atom_site_type_symbol
_atom_site_fract_x
_atom_site_fract_y
_atom_site_fract_z
O1	O	-1.998356	-0.287518	-0.488205
O2	O	-1.547641	-0.298261	-0.413953
O3	O	-1.812707	-0.061581	-0.457618
O4	O	-1.733290	-0.524197	-0.444539
O5	O	-1.848139	-0.029878	-0.145480
O6	O	-1.583074	-0.266557	-0.101814
O7	O	-2.033788	-0.255814	-0.176066
Cu8	Cu	-1.811666	-0.258291	-0.110440
Cu9	Cu	-1.769763	-0.295784	-0.479579
O10	O	-1.768722	-0.492493	-0.132401
C11	C	-1.508190	-0.279494	-0.248466
C12	C	-1.337852	-0.270790	-0.220404
C13	C	-1.836441	0.013604	-0.302544
C14	C	-1.854355	0.190399	-0.305506
C15	C	-1.073237	-0.274592	-0.341550
C16	C	-1.243566	-0.283332	-0.369600
C17	C	-1.744988	-0.567679	-0.287479
C18	C	-1.727073	-0.744475	-0.284530
N19	N	-1.841149	-0.231919	0.149191
N20	N	-1.740294	-0.322143	-0.739213
H21	H	-1.288252	-0.253398	-0.071200
H22	H	-1.604396	0.176027	-0.264313
F23	F	-2.014719	0.294316	-0.331902
H24	H	-1.293155	-0.300742	-0.518794
H25	H	-1.635770	-0.415641	0.196360
F26	F	-1.977793	-0.109718	0.233406
