data_functionalizedCrystal
_audit_creation_method	'MofGen! by Chris Wilmer'
_symmetry_space_group_name_H-M	'P1'
_symmetry_Int_Tables_number	1
_symmetry_cell_setting	triclinic
loop_
_symmetry_equiv_pos_as_xyz
  x,y,z
_cell_length_a	12.759401
_cell_length_b	12.645330
_cell_length_c	12.759393
_cell_angle_alpha	90.031109
_cell_angle_beta	90.019676
_cell_angle_gamma	90.013072
loop_
_atom_site_label
_atom_site_type_symbol
_atom_site_fract_x
_atom_site_fract_y
_atom_site_fract_z
Zn1	Zn	1.606281	-0.421976	0.593980
Zn2	Zn	1.606179	-0.599277	0.418298
Zn3	Zn	1.430580	-0.422029	0.418319
Zn4	Zn	1.430578	-0.599199	0.593940
O5	O	1.518405	-0.510620	0.506134
O6	O	1.753289	-0.445506	0.570684
O7	O	1.582843	-0.575819	0.271280
O8	O	1.453931	-0.273675	0.441647
O9	O	1.753213	-0.575768	0.441611
O10	O	1.583018	-0.273636	0.570704
O11	O	1.453831	-0.445596	0.271295
O12	O	1.283559	-0.445521	0.441607
O13	O	1.453928	-0.575636	0.740966
O14	O	1.283557	-0.575687	0.570635
O15	O	1.583016	-0.445430	0.740996
O16	O	1.582841	-0.747614	0.441572
O17	O	1.453828	-0.747557	0.570615
C18	C	1.245437	-0.510602	0.506120
C19	C	1.128661	-0.510620	0.506138
C20	C	1.073839	-0.442915	0.573450
C21	C	0.964114	-0.442926	0.573457
C22	C	0.964044	-0.578355	0.438837
C23	C	1.073766	-0.578338	0.438826
C24	C	1.518352	-0.786050	0.506110
C25	C	1.518426	-0.903880	0.506134
C26	C	1.599457	-1.071436	0.424788
C27	C	1.599721	-0.948875	0.424988
C28	C	1.548455	-0.948254	0.616878
C29	C	1.549098	-1.070852	0.616447
C30	C	1.407332	-1.071210	0.477827
C31	C	1.407865	-0.948606	0.475343
C32	C	1.792438	-0.510639	0.506150
C33	C	1.909214	-0.510647	0.506157
C34	C	1.518483	-0.510518	0.780168
C35	C	1.518517	-0.510475	0.896945
C36	C	1.518486	-0.234115	0.506182
C37	C	1.518521	-0.116285	0.506203
C38	C	1.518387	-0.510645	0.233167
C39	C	1.518557	-0.510390	0.116391
C40	C	1.585738	-0.442666	0.951824
C41	C	1.585756	-0.442621	1.061548
C42	C	1.451328	-0.578201	1.061504
C43	C	1.451306	-0.578241	0.951782
H44	H	0.919483	-0.387792	0.628267
F45	F	1.657267	-0.370541	0.893466
F46	F	1.132258	-0.370840	0.645086
H47	H	1.385222	-0.919615	0.393845
H48	H	0.919336	-0.633490	0.384035
F49	F	1.132115	-0.650394	0.367171
H50	H	1.380025	-1.102225	0.398479
H51	H	1.580932	-0.918878	0.342872
H52	H	1.580903	-1.100994	0.342433
H53	H	1.681369	-1.102164	0.443347
F54	F	1.707362	-0.910429	0.449524
F55	F	1.475383	-1.109628	0.698427
H56	H	1.630372	-1.099362	0.640483
F57	F	1.473744	-0.910165	0.698290
H58	H	1.640492	-0.387402	1.106226
H59	H	1.628811	-0.917463	0.641316
F60	F	1.379751	-0.650411	0.893372
H61	H	1.347028	-1.100214	0.537124
F62	F	1.324787	-0.908587	0.547167
F63	F	1.379805	-0.650323	1.119875
