data_functionalizedCrystal
_audit_creation_method	'MofGen! by Chris Wilmer'
_symmetry_space_group_name_H-M	'P1'
_symmetry_Int_Tables_number	1
_symmetry_cell_setting	triclinic
loop_
_symmetry_equiv_pos_as_xyz
  x,y,z
_cell_length_a	19.288864
_cell_length_b	14.586319
_cell_length_c	19.288865
_cell_angle_alpha	90.009016
_cell_angle_beta	83.136245
_cell_angle_gamma	90.017348
loop_
_atom_site_label
_atom_site_type_symbol
_atom_site_fract_x
_atom_site_fract_y
_atom_site_fract_z
O1	O	0.921347	0.076545	0.086647
O2	O	0.719087	0.076483	0.098336
O3	O	0.826061	0.076498	-0.008639
O4	O	0.814373	0.076531	0.193621
O5	O	0.826054	-0.075983	-0.008641
O6	O	0.719079	-0.075997	0.098334
O7	O	0.921340	-0.075936	0.086645
Cu8	Cu	0.820209	-0.089889	0.092489
Cu9	Cu	0.820218	0.090437	0.092491
O10	O	0.814365	-0.075950	0.193620
C11	C	0.693207	0.000235	0.097959
C12	C	0.616103	0.000211	0.096830
N13	N	0.820208	-0.216721	0.092488
C14	C	0.571407	0.000235	0.159598
C15	C	0.498960	0.000245	0.158537
C16	C	0.471212	0.000249	0.094705
C17	C	0.515918	0.000219	0.031929
C18	C	0.588364	0.000200	0.032991
C19	C	0.362953	0.053693	0.044526
C20	C	0.290508	0.053717	0.043466
C21	C	0.247767	0.000304	0.091425
C22	C	0.277477	-0.053122	0.140456
C23	C	0.349922	-0.053141	0.141518
C24	C	0.392658	0.000269	0.093546
C25	C	0.124514	0.000338	0.153047
C26	C	0.052066	0.000342	0.151984
C27	C	0.069026	0.000326	0.025374
C28	C	0.141473	0.000312	0.026439
C29	C	0.169212	0.000323	0.090278
C30	C	0.867592	-0.451721	0.045135
C31	C	0.867594	-0.547702	0.045133
C32	C	0.772835	-0.547725	0.139842
C33	C	0.772831	-0.451745	0.139840
C34	C	0.820213	-0.403746	0.092487
C35	C	0.820220	-0.595707	0.092488
C36	C	0.820221	-0.699774	0.092486
C37	C	0.820210	-0.299672	0.092488
C38	C	0.947220	0.000315	0.087022
C39	C	1.024324	0.000345	0.088151
C40	C	0.825682	0.000255	-0.034516
C41	C	0.824553	0.000246	-0.111620
N42	N	0.820224	0.217269	0.092488
C43	C	0.887321	0.000261	-0.156316
C44	C	0.886260	0.000275	-0.228763
C45	C	0.822428	0.000256	-0.256511
C46	C	0.759652	0.000247	-0.211805
C47	C	0.760714	0.000242	-0.139359
C48	C	0.772246	-0.053170	-0.364799
C49	C	0.771186	-0.053171	-0.437243
C50	C	0.819148	0.000276	-0.479956
C51	C	0.868182	0.053711	-0.450218
C52	C	0.869245	0.053706	-0.377772
C53	C	0.821269	0.000262	-0.335065
C54	C	0.880770	0.000307	-0.603209
C55	C	0.879707	0.000327	-0.675657
C56	C	0.753097	0.000289	-0.658697
C57	C	0.754162	0.000279	-0.586250
C58	C	0.818000	0.000283	-0.558511
C59	C	0.814745	0.000295	0.219497
C60	C	0.815874	0.000309	0.296601
H61	H	0.462561	0.000263	0.209652
O62	O	0.726738	-0.405093	0.185748
C63	C	0.631865	-0.296721	0.200774
C64	C	0.684011	-0.349514	0.148713
H65	H	0.597316	-0.251758	0.170853
H66	H	0.597953	-0.347469	0.234615
H67	H	0.661758	-0.251803	0.235405
H68	H	0.654174	-0.394433	0.114038
H69	H	0.717922	-0.298716	0.114921
H70	H	0.374109	-0.096646	0.181438
H71	H	0.939303	0.000267	-0.133736
H72	H	0.242677	-0.096617	0.179508
O73	O	0.693124	0.000212	-0.542927
C74	C	0.567435	0.000228	-0.533753
C75	C	0.636511	0.000278	-0.582895
H76	H	0.521645	0.000301	-0.566047
H77	H	0.564717	-0.063605	-0.499435
H78	H	0.564808	0.064021	-0.499387
H79	H	0.639184	-0.063472	-0.617305
H80	H	0.639200	0.064153	-0.617165
H81	H	0.906172	-0.412643	0.006577
O82	O	0.913648	-0.594406	-0.000768
C83	C	1.008583	-0.702686	-0.015798
C84	C	0.956454	-0.649868	0.036265
H85	H	1.043215	-0.747525	0.014124
H86	H	0.978746	-0.747703	-0.050413
H87	H	1.042413	-0.651872	-0.049654
H88	H	0.922611	-0.700616	0.070168
H89	H	0.986334	-0.604837	0.070832
H90	H	0.734259	-0.586815	0.178397
O91	O	0.151350	0.000298	0.215117
C92	C	0.126884	0.000368	0.340583
C93	C	0.096402	0.000392	0.270338
H94	H	0.082474	0.000464	0.385247
H95	H	0.160331	-0.063465	0.344291
H96	H	0.160422	0.064161	0.344209
H97	H	0.062833	-0.063357	0.266665
H98	H	0.062995	0.064268	0.266660
O99	O	0.723492	-0.105098	-0.466012
C100	C	0.627419	-0.211144	-0.445499
C101	C	0.681385	-0.152360	-0.412828
H102	H	0.593370	-0.249386	-0.402517
H103	H	0.593221	-0.164965	-0.474878
H104	H	0.655752	-0.262650	-0.483303
H105	H	0.653109	-0.100848	-0.374995
H106	H	0.715580	-0.198596	-0.383492
H107	H	0.593987	0.000246	0.211580
H108	H	0.937375	0.000290	-0.265162
H109	H	0.909168	0.097216	-0.353562
H110	H	0.907237	0.097232	-0.484994
H111	H	0.932751	0.000315	-0.580622
H112	H	0.046435	0.000386	-0.026600
H113	H	0.930822	0.000344	-0.712049
H114	H	0.701123	0.000279	-0.681288
H115	H	0.266324	0.097224	0.003546
H116	H	0.624756	0.000181	-0.018124
H117	H	0.015674	0.000357	0.203099
H118	H	0.493322	0.000235	-0.020044
H119	H	0.733187	-0.096697	-0.330027
O120	O	0.697689	0.000349	-0.238838
C121	C	0.623000	0.079357	-0.310746
C122	C	0.693206	0.079338	-0.280192
H123	H	0.619347	0.143222	-0.344175
H124	H	0.619322	0.015587	-0.344293
H125	H	0.578330	0.079301	-0.266341
H126	H	0.737917	0.079426	-0.324552
H127	H	0.696823	0.143102	-0.246627
O128	O	0.699674	0.000182	-0.096036
C129	C	0.573985	0.000206	-0.086859
C130	C	0.643060	0.000254	-0.136003
H131	H	0.528194	0.000283	-0.119153
H132	H	0.571265	-0.063628	-0.052543
H133	H	0.571361	0.063998	-0.052492
H134	H	0.645730	-0.063495	-0.170415
H135	H	0.645751	0.064130	-0.170272
H136	H	0.397748	0.097194	0.005471
O137	O	0.184796	0.000339	-0.034599
C138	C	0.193970	0.000269	-0.160288
C139	C	0.144828	0.000264	-0.091212
H140	H	0.161676	0.000188	-0.206078
H141	H	0.228323	0.064088	-0.163003
H142	H	0.228301	-0.063538	-0.162918
H143	H	0.110453	0.064028	-0.088536
H144	H	0.110523	-0.063597	-0.088526
