data_functionalizedCrystal
_audit_creation_method	'MofGen! by Chris Wilmer'
_symmetry_space_group_name_H-M	'P1'
_symmetry_Int_Tables_number	1
_symmetry_cell_setting	triclinic
loop_
_symmetry_equiv_pos_as_xyz
  x,y,z
_cell_length_a	17.019311
_cell_length_b	17.019294
_cell_length_c	9.130313
_cell_angle_alpha	86.119786
_cell_angle_beta	86.120047
_cell_angle_gamma	83.131632
loop_
_atom_site_label
_atom_site_type_symbol
_atom_site_fract_x
_atom_site_fract_y
_atom_site_fract_z
O1	O	1.046556	0.100522	-0.266472
O2	O	0.816877	0.113331	-0.239122
O3	O	0.938124	-0.007913	-0.239114
O4	O	0.925309	0.221766	-0.266480
O5	O	0.938123	-0.007910	0.004484
O6	O	0.816876	0.113334	0.004477
O7	O	1.046554	0.100525	-0.022873
Cu8	Cu	0.931715	0.106930	0.013044
Cu9	Cu	0.931717	0.106926	-0.275040
O10	O	0.925307	0.221769	-0.022881
C11	C	0.787488	0.112846	-0.113555
C12	C	0.699920	0.111386	-0.102327
C13	C	0.204649	0.103157	-0.032171
C14	C	0.286928	0.104529	-0.042723
C15	C	0.328070	0.105207	-0.180787
C16	C	0.286926	0.104521	-0.308307
C17	C	0.204648	0.103156	-0.297753
C18	C	0.576498	0.109335	-0.219294
C19	C	0.658783	0.110699	-0.229838
C20	C	0.658779	0.110708	0.035747
C21	C	0.576499	0.109337	0.046289
C22	C	0.535362	0.108656	-0.081232
C23	C	0.412173	0.106606	-0.191576
C24	C	0.451260	0.107262	-0.070442
C25	C	0.937638	-0.037300	-0.113548
C26	C	0.936180	-0.124869	-0.102324
C27	C	0.935498	-0.166006	-0.229836
C28	C	0.934124	-0.248285	-0.219284
C29	C	0.933437	-0.289426	-0.081220
C30	C	0.934117	-0.248283	0.046301
C31	C	0.935486	-0.166005	0.035749
C32	C	0.929300	-0.537854	-0.042715
C33	C	0.927933	-0.620138	-0.032173
C34	C	0.927939	-0.620134	-0.297759
C35	C	0.929312	-0.537855	-0.308300
C36	C	0.929988	-0.496718	-0.180778
C37	C	0.932035	-0.373529	-0.070432
C38	C	0.931384	-0.412616	-0.191567
C39	C	1.075943	0.101010	-0.148444
C40	C	1.163511	0.102470	-0.159681
C41	C	0.925794	0.251156	-0.148450
C42	C	0.927251	0.338724	-0.159684
N43	N	0.931719	0.106932	0.215666
N44	N	0.931718	0.106918	-0.477661
C45	C	0.985421	0.053263	0.292317
C46	C	0.985419	0.053254	0.445656
C47	C	0.878011	0.160589	0.445677
C48	C	0.878010	0.160594	0.292342
C49	C	1.039131	-0.000399	0.215641
C50	C	1.092837	-0.054071	0.292292
C51	C	1.092835	-0.054081	0.445631
C52	C	1.039126	-0.000418	0.522317
H53	H	0.320419	0.105087	0.061110
H54	H	1.039139	-0.000394	0.090785
H55	H	0.834280	0.204295	0.229932
C56	C	0.704031	0.111489	0.176006
N57	N	0.738114	0.112091	0.281654
H58	H	0.834284	0.204280	0.508125
H59	H	0.931478	-0.407036	0.041980
C60	C	0.332185	0.105265	-0.460179
N61	N	0.366274	0.105822	-0.574571
H62	H	0.933572	-0.281776	-0.323118
H63	H	0.927387	-0.653636	-0.401580
C64	C	0.159400	0.102414	0.119711
N65	N	0.125321	0.101858	0.234113
C66	C	1.151902	-0.113132	0.529946
N67	N	1.196393	-0.157611	0.593449
H68	H	1.039124	-0.000435	0.647177
H69	H	0.692277	0.111257	-0.342272
C70	C	0.531247	0.108613	0.198167
N71	N	0.497162	0.108072	0.312563
H72	H	0.543015	0.108778	-0.323131
H73	H	0.936030	-0.132510	0.139584
H74	H	0.931938	-0.379115	-0.303978
H75	H	0.936062	-0.132515	-0.342263
C76	C	0.406002	0.106515	0.081424
N77	N	0.371907	0.105949	0.195811
C78	C	0.159397	0.102396	-0.438025
N79	N	0.125316	0.101826	-0.543683
H80	H	0.927370	-0.653633	0.080262
H81	H	0.445680	0.107156	-0.303988
H82	H	0.929872	-0.504363	-0.420726
H83	H	0.929865	-0.504372	0.061121
C84	C	0.933356	-0.293541	0.198175
N85	N	0.932784	-0.327628	0.312568
C86	C	1.151903	-0.113107	0.207937
N87	N	1.196391	-0.157577	0.144402
