data_functionalizedCrystal
_audit_creation_method	'MofGen! by Chris Wilmer'
_symmetry_space_group_name_H-M	'P1'
_symmetry_Int_Tables_number	1
_symmetry_cell_setting	triclinic
loop_
_symmetry_equiv_pos_as_xyz
  x,y,z
_cell_length_a	18.215407
_cell_length_b	29.839131
_cell_length_c	18.215399
_cell_angle_alpha	89.966717
_cell_angle_beta	89.983176
_cell_angle_gamma	90.041868
loop_
_atom_site_label
_atom_site_type_symbol
_atom_site_fract_x
_atom_site_fract_y
_atom_site_fract_z
Zn1	Zn	1.124966	-0.178842	-0.416101
Zn2	Zn	1.458299	0.154491	-0.082768
Zn3	Zn	1.791632	0.487825	0.250566
Zn4	Zn	1.124845	-0.253974	-0.293028
Zn5	Zn	1.458178	0.079359	0.040305
Zn6	Zn	1.791512	0.412692	0.373638
Zn7	Zn	1.001905	-0.178860	-0.293048
Zn8	Zn	1.335238	0.154474	0.040285
Zn9	Zn	1.668571	0.487807	0.373618
Zn10	Zn	1.001828	-0.253946	-0.416053
Zn11	Zn	1.335162	0.079387	-0.082720
Zn12	Zn	1.668495	0.412720	0.250613
O13	O	1.063386	-0.216406	-0.354558
O14	O	1.396719	0.116928	-0.021224
O15	O	1.730053	0.450261	0.312109
O16	O	1.227934	-0.188813	-0.399787
O17	O	1.561267	0.144521	-0.066453
O18	O	1.894600	0.477854	0.266880
O19	O	1.108518	-0.244030	-0.190047
O20	O	1.441851	0.089304	0.143287
O21	O	1.775185	0.422637	0.476620
O22	O	1.018311	-0.115990	-0.309400
O23	O	1.351645	0.217343	0.023934
O24	O	1.684978	0.550676	0.357267
O25	O	1.227845	-0.244012	-0.309366
O26	O	1.561178	0.089321	0.023968
O27	O	1.894512	0.422654	0.357301
O28	O	1.108724	-0.115977	-0.399806
O29	O	1.442057	0.217356	-0.066473
O30	O	1.775390	0.550690	0.266861
O31	O	1.018194	-0.188843	-0.190061
O32	O	1.351528	0.144490	0.143272
O33	O	1.684861	0.477824	0.476605
O34	O	0.898910	-0.188816	-0.309354
O35	O	1.232244	0.144518	0.023980
O36	O	1.565577	0.477851	0.357313
O37	O	1.018182	-0.243964	-0.519044
O38	O	1.351515	0.089369	-0.185711
O39	O	1.684848	0.422702	0.147623
O40	O	0.898854	-0.243982	-0.399725
O41	O	1.232188	0.089352	-0.066391
O42	O	1.565521	0.422685	0.266942
O43	O	1.108650	-0.188785	-0.519079
O44	O	1.441983	0.144548	-0.185746
O45	O	1.775316	0.477881	0.147588
O46	O	1.108444	-0.316838	-0.309320
O47	O	1.441778	0.016496	0.024014
O48	O	1.775111	0.349829	0.357347
O49	O	1.018065	-0.316817	-0.399705
O50	O	1.351398	0.016516	-0.066372
O51	O	1.684731	0.349850	0.266961
C52	C	0.872180	-0.216398	-0.354537
C53	C	1.205513	0.116935	-0.021203
C54	C	1.538846	0.450269	0.312130
C55	C	0.790381	-0.216405	-0.354545
C56	C	1.123714	0.116928	-0.021212
C57	C	1.457047	0.450261	0.312122
C58	C	0.602177	-0.245175	-0.401542
C59	C	0.935510	0.088158	-0.068209
C60	C	1.268844	0.421491	0.265124
C61	C	0.525318	-0.245177	-0.401551
C62	C	0.858652	0.088157	-0.068218
C63	C	1.191985	0.421490	0.265115
C64	C	0.525347	-0.187644	-0.307589
C65	C	0.858680	0.145689	0.025744
C66	C	1.192014	0.479023	0.359077
C67	C	0.602204	-0.187641	-0.307584
C68	C	0.935538	0.145693	0.025749
C69	C	1.268871	0.479026	0.359082
C70	C	0.640617	-0.216409	-0.354560
C71	C	0.973951	0.116924	-0.021226
C72	C	1.307284	0.450258	0.312107
C73	C	0.486901	-0.216414	-0.354574
C74	C	0.820234	0.116920	-0.021240
C75	C	1.153568	0.450253	0.312093
C76	C	0.403567	-0.216415	-0.354583
C77	C	0.736901	0.116918	-0.021250
C78	C	1.070234	0.450252	0.312083
C79	C	0.723956	-0.216407	-0.354551
C80	C	1.057290	0.116926	-0.021218
C81	C	1.390623	0.450260	0.312115
C82	C	1.063253	-0.333128	-0.354521
C83	C	1.396586	0.000205	-0.021188
C84	C	1.729920	0.333539	0.312145
C85	C	1.063263	-0.383063	-0.354530
C86	C	1.396597	-0.049729	-0.021197
C87	C	1.729930	0.283604	0.312137
C88	C	1.110532	-0.692704	-0.307563
C89	C	1.443865	-0.359371	0.025771
C90	C	1.777199	-0.026037	0.359104
C91	C	1.110623	-0.880377	-0.307591
C92	C	1.443956	-0.547044	0.025742
C93	C	1.777290	-0.213710	0.359076
O94	O	1.150707	-0.904640	-0.267629
O95	O	1.484040	-0.571307	0.065704
O96	O	1.817374	-0.237974	0.399037
N97	N	1.063538	-0.903848	-0.354613
N98	N	1.396872	-0.570514	-0.021280
N99	N	1.730205	-0.237181	0.312054
C100	C	1.016431	-0.880397	-0.401635
C101	C	1.349765	-0.547064	-0.068302
C102	C	1.683098	-0.213730	0.265032
O103	O	0.976391	-0.904666	-0.441636
O104	O	1.309724	-0.571333	-0.108303
O105	O	1.643057	-0.238000	0.225031
C106	C	1.016345	-0.692725	-0.401609
C107	C	1.349678	-0.359391	-0.068276
C108	C	1.683011	-0.026058	0.265057
C109	C	1.063427	-0.669257	-0.354579
C110	C	1.396760	-0.335923	-0.021246
C111	C	1.730094	-0.002590	0.312088
C112	C	1.157611	-0.669236	-0.260536
C113	C	1.490944	-0.335903	0.072797
C114	C	1.824278	-0.002569	0.406130
C115	C	1.157585	-0.622320	-0.260527
C116	C	1.490918	-0.288987	0.072806
C117	C	1.824252	0.044346	0.406140
C118	C	1.110480	-0.598873	-0.307544
C119	C	1.443813	-0.265540	0.025790
C120	C	1.777147	0.067794	0.359123
C121	C	1.063401	-0.622341	-0.354570
C122	C	1.396734	-0.289008	-0.021236
C123	C	1.730068	0.044325	0.312097
C124	C	0.969242	-0.669275	-0.448634
C125	C	1.302575	-0.335942	-0.115301
C126	C	1.635909	-0.002608	0.218032
C127	C	0.969226	-0.622354	-0.448625
C128	C	1.302559	-0.289021	-0.115292
C129	C	1.635892	0.044313	0.218042
C130	C	1.016308	-0.598886	-0.401595
C131	C	1.349641	-0.265553	-0.068261
C132	C	1.682975	0.067781	0.265072
C133	C	1.016270	-0.551978	-0.401577
C134	C	1.349603	-0.218645	-0.068243
C135	C	1.682937	0.114688	0.265090
N136	N	1.063354	-0.528508	-0.354554
N137	N	1.396688	-0.195175	-0.021221
N138	N	1.730021	0.138159	0.312112
C139	C	1.110460	-0.551955	-0.307538
C140	C	1.443793	-0.218622	0.025795
C141	C	1.777126	0.114711	0.359129
C142	C	1.016479	-0.978928	-0.401644
C143	C	1.349812	-0.645594	-0.068311
C144	C	1.683146	-0.312261	0.265023
C145	C	1.016500	-1.025845	-0.401649
C146	C	1.349833	-0.692512	-0.068316
C147	C	1.683166	-0.359179	0.265017
C148	C	1.110692	-1.025822	-0.307606
C149	C	1.444026	-0.692489	0.025727
C150	C	1.777359	-0.359156	0.359060
C151	C	1.110668	-0.978904	-0.307598
C152	C	1.444001	-0.645570	0.025736
C153	C	1.777334	-0.312237	0.359069
C154	C	1.063564	-0.955457	-0.354622
C155	C	1.396897	-0.622124	-0.021288
C156	C	1.730230	-0.288790	0.312045
C157	C	1.110401	-0.453430	-0.307521
C158	C	1.443734	-0.120096	0.025812
C159	C	1.777068	0.213237	0.359146
C160	C	1.110369	-0.406510	-0.307514
C161	C	1.443702	-0.073177	0.025820
C162	C	1.777035	0.260157	0.359153
C163	C	1.016179	-0.406537	-0.401559
C164	C	1.349512	-0.073204	-0.068226
C165	C	1.682845	0.260130	0.265108
C166	C	1.016208	-0.453453	-0.401564
C167	C	1.349541	-0.120119	-0.068231
C168	C	1.682875	0.213214	0.265103
C169	C	1.063325	-0.476898	-0.354543
C170	C	1.396658	-0.143564	-0.021209
C171	C	1.729992	0.189769	0.312124
O172	O	0.976213	-0.527686	-0.441523
O173	O	1.309546	-0.194353	-0.108190
O174	O	1.642879	0.138980	0.225144
O175	O	1.150506	-0.527678	-0.267554
O176	O	1.483839	-0.194345	0.065779
O177	O	1.817173	0.138989	0.399112
C178	C	1.110558	-0.739619	-0.307572
C179	C	1.443891	-0.406286	0.025761
C180	C	1.777225	-0.072953	0.359095
C181	C	1.063479	-0.763088	-0.354598
C182	C	1.396812	-0.429754	-0.021265
C183	C	1.730146	-0.096421	0.312069
C184	C	1.016374	-0.739640	-0.401615
C185	C	1.349707	-0.406307	-0.068281
C186	C	1.683041	-0.072974	0.265052
C187	C	1.063500	-0.810005	-0.354604
C188	C	1.396833	-0.476672	-0.021270
C189	C	1.730166	-0.143339	0.312063
C190	C	1.110605	-0.833453	-0.307587
C191	C	1.443938	-0.500119	0.025746
C192	C	1.777271	-0.166786	0.359080
C193	C	1.157689	-0.809982	-0.260565
C194	C	1.491023	-0.476649	0.072768
C195	C	1.824356	-0.143316	0.406102
C196	C	1.157663	-0.763067	-0.260555
C197	C	1.490997	-0.429734	0.072778
C198	C	1.824330	-0.096400	0.406111
C199	C	0.969290	-0.763111	-0.448637
C200	C	1.302623	-0.429777	-0.115303
C201	C	1.635956	-0.096444	0.218030
C202	C	0.969319	-0.810026	-0.448642
C203	C	1.302652	-0.476693	-0.115308
C204	C	1.635986	-0.143360	0.218025
C205	C	1.016424	-0.833474	-0.401625
C206	C	1.349757	-0.500140	-0.068292
C207	C	1.683091	-0.166807	0.265041
C208	C	1.255339	-0.216414	-0.354579
C209	C	1.588672	0.116920	-0.021246
C210	C	1.922005	0.450253	0.312087
C211	C	1.337138	-0.216417	-0.354589
C212	C	1.670471	0.116916	-0.021255
C213	C	2.003804	0.450250	0.312078
C214	C	1.063421	-0.216370	-0.546511
C215	C	1.396754	0.116964	-0.213177
C216	C	1.730087	0.450297	0.120156
C217	C	1.063435	-0.216354	-0.628310
C218	C	1.396769	0.116979	-0.294976
C219	C	1.730102	0.450312	0.038357
C220	C	1.063539	-0.099227	-0.354610
C221	C	1.396873	0.234106	-0.021277
C222	C	1.730206	0.567440	0.312056
C223	C	1.063605	-0.049293	-0.354633
C224	C	1.396938	0.284041	-0.021300
C225	C	1.730271	0.617374	0.312034
C226	C	1.016444	-0.187599	-0.816512
C227	C	1.349777	0.145734	-0.483179
C228	C	1.683110	0.479067	-0.149846
C229	C	1.016456	-0.187590	-0.893371
C230	C	1.349790	0.145743	-0.560038
C231	C	1.683123	0.479076	-0.226704
C232	C	1.110515	-0.245056	-0.893345
C233	C	1.443849	0.088278	-0.560012
C234	C	1.777182	0.421611	-0.226678
C235	C	1.110498	-0.245067	-0.816488
C236	C	1.443832	0.088267	-0.483154
C237	C	1.777165	0.421600	-0.149821
C238	C	1.063464	-0.216336	-0.778073
C239	C	1.396797	0.116997	-0.444740
C240	C	1.730130	0.450331	-0.111407
C241	C	1.063493	-0.216316	-0.931789
C242	C	1.396827	0.117017	-0.598456
C243	C	1.730160	0.450351	-0.265123
C244	C	1.063508	-0.216306	-1.015123
C245	C	1.396841	0.117027	-0.681790
C246	C	1.730174	0.450360	-0.348456
C247	C	1.063448	-0.216346	-0.694734
C248	C	1.396781	0.116987	-0.361401
C249	C	1.730115	0.450321	-0.028068
C250	C	1.063394	-0.216409	-0.163351
C251	C	1.396727	0.116924	0.169982
C252	C	1.730060	0.450258	0.503315
C253	C	1.063521	-0.216298	-0.081553
C254	C	1.396855	0.117036	0.251780
C255	C	1.730188	0.450369	0.585114
H256	H	0.494023	-0.268601	-0.439810
H257	H	0.827357	0.064733	-0.106477
H258	H	1.160690	0.398066	0.226856
H259	H	0.633503	-0.164213	-0.269325
H260	H	0.966836	0.169121	0.064008
H261	H	1.300170	0.502454	0.397341
H262	H	1.148789	-0.268469	-0.785190
H263	H	1.482123	0.064864	-0.451856
H264	H	1.815456	0.398197	-0.118523
H265	H	1.148708	-0.387404	-0.269213
H266	H	1.482042	-0.054070	0.064120
H267	H	1.815375	0.279263	0.397453
H268	H	0.494062	-0.164223	-0.269342
H269	H	0.827395	0.169111	0.063991
H270	H	1.160728	0.502444	0.397324
H271	H	1.148770	-0.472513	-0.269233
H272	H	1.482103	-0.139180	0.064100
H273	H	1.815436	0.194154	0.397433
F274	F	1.160571	-0.275631	-0.934235
F275	F	1.493905	0.057703	-0.600901
F276	F	1.827238	0.391036	-0.267568
F277	F	1.207820	-0.834945	-0.210524
F278	F	1.541153	-0.501612	0.122809
F279	F	1.874487	-0.168278	0.456142
H280	H	1.195926	-0.603216	-0.222233
H281	H	1.529259	-0.269882	0.111100
H282	H	1.862592	0.063451	0.444434
F283	F	0.643056	-0.275792	-0.451540
F284	F	0.976390	0.057542	-0.118206
F285	F	1.309723	0.390875	0.215127
F286	F	0.966380	-1.050817	-0.451697
F287	F	1.299713	-0.717483	-0.118364
F288	F	1.633047	-0.384150	0.214969
F289	F	1.207753	-0.694183	-0.210492
F290	F	1.541086	-0.360850	0.122842
F291	F	1.874419	-0.027517	0.456175
F292	F	1.160779	-0.953931	-0.257542
F293	F	1.494112	-0.620598	0.075791
F294	F	1.827445	-0.287265	0.409124
H295	H	0.978120	-0.959841	-0.439938
H296	H	1.311453	-0.626507	-0.106604
H297	H	1.644786	-0.293174	0.226729
F298	F	1.160824	-1.050785	-0.257566
F299	F	1.494157	-0.717451	0.075767
F300	F	1.827490	-0.384118	0.409101
F301	F	0.919136	-0.694241	-0.498698
F302	F	1.252469	-0.360908	-0.165365
F303	F	1.585802	-0.027575	0.167969
H304	H	0.977872	-0.472561	-0.439862
H305	H	1.311206	-0.139228	-0.106529
H306	H	1.644539	0.194105	0.226804
F307	F	0.919091	-0.597403	-0.498678
F308	F	1.252424	-0.264070	-0.165344
F309	F	1.585758	0.069263	0.167989
H310	H	0.930972	-0.829130	-0.486939
H311	H	1.264306	-0.495797	-0.153606
H312	H	1.597639	-0.162463	0.179728
F313	F	0.966051	-0.381575	-0.451597
F314	F	1.299384	-0.048241	-0.118264
F315	F	1.632717	0.285092	0.215070
F316	F	0.919152	-0.738163	-0.498682
F317	F	1.252485	-0.404829	-0.165348
F318	F	1.585818	-0.071496	0.167985
H319	H	1.196002	-0.743962	-0.222259
H320	H	1.529335	-0.410629	0.111074
H321	H	1.862669	-0.077296	0.444408
H322	H	0.978145	-0.164205	-0.785237
H323	H	1.311478	0.169128	-0.451904
H324	H	1.644812	0.502462	-0.118571
H325	H	0.978168	-0.164191	-0.924665
H326	H	1.311501	0.169143	-0.591331
H327	H	1.644834	0.502476	-0.257998
