data_functionalizedCrystal
_audit_creation_method	'MofGen! by Chris Wilmer'
_symmetry_space_group_name_H-M	'P1'
_symmetry_Int_Tables_number	1
_symmetry_cell_setting	triclinic
loop_
_symmetry_equiv_pos_as_xyz
  x,y,z
_cell_length_a	13.032721
_cell_length_b	13.032951
_cell_length_c	13.032268
_cell_angle_alpha	89.114265
_cell_angle_beta	103.289627
_cell_angle_gamma	89.099524
loop_
_atom_site_label
_atom_site_type_symbol
_atom_site_fract_x
_atom_site_fract_y
_atom_site_fract_z
Zn1	Zn	-0.702954	-1.399414	-0.857538
Zn2	Zn	-0.858022	-1.399304	-0.702470
Zn3	Zn	-0.659468	-1.255400	-0.659033
Zn4	Zn	-0.852385	-1.206347	-0.851975
O5	O	-0.768207	-1.315116	-0.767754
O6	O	-0.744082	-1.540422	-0.857475
O7	O	-0.815843	-1.400698	-0.551064
O8	O	-0.519603	-1.295079	-0.669514
O9	O	-0.858010	-1.540341	-0.743547
O10	O	-0.551552	-1.400885	-0.815355
O11	O	-0.669967	-1.294973	-0.519151
O12	O	-0.664501	-1.107870	-0.664120
O13	O	-0.848402	-1.211474	-0.998357
O14	O	-0.806236	-1.071831	-0.805874
O15	O	-0.738616	-1.353320	-1.002444
O16	O	-1.002907	-1.353132	-0.738153
O17	O	-0.998766	-1.211368	-0.847993
C18	C	-0.730039	-1.053285	-0.729680
C19	C	-0.713738	-0.941265	-0.713420
C20	C	-1.038604	-1.276939	-0.797210
C21	C	-1.154298	-1.260694	-0.809859
C22	C	-0.776690	-0.873518	-0.776224
C23	C	-0.759844	-0.757739	-0.759419
C24	C	-1.207906	-1.323641	-0.761207
C25	C	-1.327482	-1.306853	-0.774279
C26	C	-0.496761	-1.353466	-0.738210
C27	C	-0.381087	-1.369809	-0.725620
C28	C	-0.797731	-1.276937	-1.039220
C29	C	-0.810312	-1.260668	-1.154903
C30	C	-0.806513	-0.577972	-0.805969
C31	C	-0.822804	-0.689993	-0.822232
C32	C	-0.761601	-1.323597	-1.208500
C33	C	-0.774603	-1.306783	-1.328064
C34	C	-0.738731	-1.353215	-0.497344
C35	C	-0.725886	-1.369721	-0.381659
H36	H	-0.843053	-0.901232	-0.842437
C37	C	-0.879653	-1.171062	-1.212488
N38	N	-0.931883	-1.103569	-1.255860
H39	H	-0.889171	-0.717700	-0.888452
H40	H	-1.370109	-1.240531	-0.825619
C41	C	-0.692252	-1.413197	-1.150913
N42	N	-0.640017	-1.480686	-1.107539
H43	H	-0.693469	-0.730031	-0.693209
H44	H	-0.647368	-0.913551	-0.647214
H45	H	-0.674546	-1.436044	-1.339033
H46	H	-1.165279	-1.389966	-0.709880
C47	C	-1.323507	-1.459413	-0.656268
N48	N	-1.280137	-1.526900	-0.604031
C49	C	-0.843948	-1.217173	-1.385645
N50	N	-0.896177	-1.149680	-1.429017
C51	C	-1.211884	-1.171094	-0.879205
N52	N	-1.255256	-1.103604	-0.931437
