data_functionalizedCrystal
_audit_creation_method	'MofGen! by Chris Wilmer'
_symmetry_space_group_name_H-M	'P1'
_symmetry_Int_Tables_number	1
_symmetry_cell_setting	triclinic
loop_
_symmetry_equiv_pos_as_xyz
  x,y,z
_cell_length_a	18.215405
_cell_length_b	18.215407
_cell_length_c	12.827885
_cell_angle_alpha	89.978600
_cell_angle_beta	89.966321
_cell_angle_gamma	90.023180
loop_
_atom_site_label
_atom_site_type_symbol
_atom_site_fract_x
_atom_site_fract_y
_atom_site_fract_z
Zn1	Zn	-0.292938	1.125094	-0.590881
Zn2	Zn	0.040395	1.458428	-0.257548
Zn3	Zn	0.373728	1.791761	0.075786
Zn4	Zn	-0.416023	1.125004	-0.416130
Zn5	Zn	-0.082690	1.458337	-0.082797
Zn6	Zn	0.250644	1.791671	0.250537
Zn7	Zn	-0.292976	1.002024	-0.416148
Zn8	Zn	0.040358	1.335357	-0.082815
Zn9	Zn	0.373691	1.668690	0.250518
Zn10	Zn	-0.415969	1.001997	-0.590824
Zn11	Zn	-0.082635	1.335331	-0.257490
Zn12	Zn	0.250698	1.668664	0.075843
O13	O	-0.354476	1.063530	-0.503496
O14	O	-0.021143	1.396863	-0.170162
O15	O	0.312190	1.730197	0.163171
O16	O	-0.309273	1.228067	-0.567716
O17	O	0.024060	1.561400	-0.234383
O18	O	0.357394	1.894733	0.098950
O19	O	-0.399739	1.108664	-0.269896
O20	O	-0.066405	1.441997	0.063437
O21	O	0.266928	1.775330	0.396770
O22	O	-0.189986	1.018398	-0.439359
O23	O	0.143347	1.351731	-0.106025
O24	O	0.476680	1.685065	0.227308
O25	O	-0.399703	1.228000	-0.439328
O26	O	-0.066369	1.561334	-0.105994
O27	O	0.266964	1.894667	0.227339
O28	O	-0.189959	1.108818	-0.567734
O29	O	0.143374	1.442151	-0.234401
O30	O	0.476708	1.775484	0.098933
O31	O	-0.309336	1.018310	-0.269910
O32	O	0.023997	1.351644	0.063424
O33	O	0.357330	1.684977	0.396757
O34	O	-0.309284	0.899036	-0.439303
O35	O	0.024049	1.232369	-0.105970
O36	O	0.357383	1.565703	0.227364
O37	O	-0.399610	1.018353	-0.737067
O38	O	-0.066277	1.351687	-0.403734
O39	O	0.267056	1.685020	-0.070401
O40	O	-0.399646	0.899017	-0.567636
O41	O	-0.066313	1.232350	-0.234303
O42	O	0.267020	1.565683	0.099031
O43	O	-0.309220	1.108792	-0.737110
O44	O	0.024113	1.442126	-0.403776
O45	O	0.357446	1.775459	-0.070443
O46	O	-0.519000	1.108638	-0.439272
O47	O	-0.185667	1.441972	-0.105939
O48	O	0.147667	1.775305	0.227395
O49	O	-0.518960	1.018266	-0.567618
O50	O	-0.185627	1.351599	-0.234285
O51	O	0.147706	1.684932	0.099048
C52	C	-0.354464	0.872324	-0.503466
C53	C	-0.021131	1.205657	-0.170132
C54	C	0.312203	1.538990	0.163201
C55	C	-0.354476	0.790525	-0.503478
C56	C	-0.021143	1.123858	-0.170144
C57	C	0.312190	1.457191	0.163189
C58	C	-0.545683	1.063459	-0.503460
C59	C	-0.212349	1.396793	-0.170126
C60	C	0.120984	1.730126	0.163207
C61	C	-0.627482	1.063496	-0.503479
C62	C	-0.294148	1.396830	-0.170146
C63	C	0.039185	1.730163	0.163187
C64	C	-0.401602	0.602340	-0.570217
C65	C	-0.068269	0.935673	-0.236884
C66	C	0.265065	1.269007	0.096450
C67	C	-0.401604	0.525481	-0.570230
C68	C	-0.068271	0.858815	-0.236897
C69	C	0.265062	1.192148	0.096437
C70	C	-0.307364	0.525472	-0.436797
C71	C	0.025969	0.858805	-0.103464
C72	C	0.359302	1.192138	0.229869
C73	C	-0.307359	0.602329	-0.436790
C74	C	0.025974	0.935662	-0.103457
C75	C	0.359308	1.268996	0.229876
C76	C	-0.354482	0.640761	-0.503499
C77	C	-0.021148	0.974095	-0.170165
C78	C	0.312185	1.307428	0.163168
C79	C	-0.354490	0.487045	-0.503519
C80	C	-0.021156	0.820378	-0.170185
C81	C	0.312177	1.153712	0.163148
C82	C	-0.354492	0.403711	-0.503532
C83	C	-0.021158	0.737045	-0.170199
C84	C	0.312175	1.070378	0.163134
C85	C	-0.354479	0.724100	-0.503487
C86	C	-0.021146	1.057433	-0.170153
C87	C	0.312188	1.390767	0.163180
C88	C	-0.815600	1.110600	-0.570415
C89	C	-0.482267	1.443934	-0.237082
C90	C	-0.148934	1.777267	0.096252
C91	C	-0.892459	1.110627	-0.570434
C92	C	-0.559126	1.443960	-0.237101
C93	C	-0.225792	1.777294	0.096232
C94	C	-0.892601	1.016550	-0.436641
C95	C	-0.559267	1.349884	-0.103308
C96	C	-0.225934	1.683217	0.230025
C97	C	-0.815743	1.016520	-0.436628
C98	C	-0.482410	1.349854	-0.103295
C99	C	-0.149077	1.683187	0.230039
C100	C	-0.777245	1.063550	-0.503513
C101	C	-0.443912	1.396883	-0.170180
C102	C	-0.110578	1.730216	0.163154
C103	C	-0.930961	1.063606	-0.503546
C104	C	-0.597628	1.396940	-0.170213
C105	C	-0.264294	1.730273	0.163120
C106	C	-1.014295	1.063635	-0.503567
C107	C	-0.680961	1.396968	-0.170234
C108	C	-0.347628	1.730302	0.163100
C109	C	-0.693906	1.063520	-0.503494
C110	C	-0.360573	1.396854	-0.170161
C111	C	-0.027239	1.730187	0.163173
C112	C	-0.162523	1.063621	-0.503555
C113	C	0.170810	1.396954	-0.170221
C114	C	0.504143	1.730287	0.163112
C115	C	-0.080725	1.063659	-0.503580
C116	C	0.252609	1.396993	-0.170247
C117	C	0.585942	1.730326	0.163087
C118	C	-0.354405	1.063580	-0.776066
C119	C	-0.021072	1.396913	-0.442733
C120	C	0.312262	1.730247	-0.109399
C121	C	-0.354375	1.063601	-0.892219
C122	C	-0.021041	1.396935	-0.558886
C123	C	0.312292	1.730268	-0.225553
C124	C	-0.354490	1.255483	-0.503526
C125	C	-0.021156	1.588816	-0.170193
C126	C	0.312177	1.922149	0.163140
C127	C	-0.354495	1.337282	-0.503540
C128	C	-0.021162	1.670615	-0.170206
C129	C	0.312171	2.003948	0.163127
C130	C	-0.399090	1.108316	-0.943997
C131	C	-0.065757	1.441649	-0.610664
C132	C	0.267576	1.774982	-0.277331
C133	C	-0.399060	1.108339	-1.064048
C134	C	-0.065727	1.441672	-0.730715
C135	C	0.267607	1.775006	-0.397381
C136	C	-0.354494	1.063522	-0.231986
C137	C	-0.021161	1.396856	0.101347
C138	C	0.312172	1.730189	0.434681
C139	C	-0.354317	1.063644	-0.115833
C140	C	-0.020984	1.396977	0.217500
C141	C	0.312349	1.730310	0.550833
H142	H	-0.439971	0.633629	-0.624538
H143	H	-0.106637	0.966963	-0.291204
H144	H	0.226696	1.300296	0.042129
Cl145	Cl	-0.941003	0.957431	-0.352563
Cl146	Cl	-0.607670	1.290764	-0.019230
Cl147	Cl	-0.274337	1.624097	0.314104
Cl148	Cl	-0.767522	0.957360	-0.352524
Cl149	Cl	-0.434188	1.290694	-0.019190
Cl150	Cl	-0.100855	1.624027	0.314143
Cl151	Cl	-0.458227	1.167403	-0.875228
Cl152	Cl	-0.124894	1.500736	-0.541895
Cl153	Cl	0.208439	1.834070	-0.208562
H154	H	-0.437344	1.146620	-1.108576
H155	H	-0.104010	1.479953	-0.775243
H156	H	0.229323	1.813286	-0.441909
Cl157	Cl	-0.295211	1.004530	-1.047098
Cl158	Cl	0.038122	1.337863	-0.713765
Cl159	Cl	0.371456	1.671196	-0.380432
H160	H	-0.316066	1.025340	-0.936767
H161	H	0.017267	1.358673	-0.603434
H162	H	0.350600	1.692007	-0.270100
H163	H	-0.269000	0.494171	-0.382484
H164	H	0.064334	0.827504	-0.049151
H165	H	0.397667	1.160838	0.284182
Cl166	Cl	-0.248112	0.650634	-0.352916
Cl167	Cl	0.085221	0.983967	-0.019582
Cl168	Cl	0.418554	1.317300	0.313751
Cl169	Cl	-0.460842	0.477184	-0.654111
Cl170	Cl	-0.127509	0.810517	-0.320777
Cl171	Cl	0.205824	1.143850	0.012556
Cl172	Cl	-0.767205	1.169720	-0.654503
Cl173	Cl	-0.433872	1.503053	-0.321169
Cl174	Cl	-0.100538	1.836386	0.012164
H175	H	-0.923684	1.148939	-0.624915
H176	H	-0.590351	1.482272	-0.291582
H177	H	-0.257018	1.815605	0.041752
