data_functionalizedCrystal
_audit_creation_method	'MofGen! by Chris Wilmer'
_symmetry_space_group_name_H-M	'P1'
_symmetry_Int_Tables_number	1
_symmetry_cell_setting	triclinic
loop_
_symmetry_equiv_pos_as_xyz
  x,y,z
_cell_length_a	17.038272
_cell_length_b	10.654541
_cell_length_c	9.130307
_cell_angle_alpha	90.003083
_cell_angle_beta	89.995905
_cell_angle_gamma	87.797743
loop_
_atom_site_label
_atom_site_type_symbol
_atom_site_fract_x
_atom_site_fract_y
_atom_site_fract_z
O1	O	-1.038886	-0.272863	-0.121615
O2	O	-0.538886	0.227137	0.378385
O3	O	-0.811231	-0.268530	-0.121658
O4	O	-0.311231	0.231470	0.378342
O5	O	-0.930294	-0.088443	-0.121627
O6	O	-0.430294	0.411557	0.378373
O7	O	-0.919824	-0.452950	-0.121647
O8	O	-0.419824	0.047050	0.378353
O9	O	-0.930290	-0.088441	0.121972
O10	O	-0.430290	0.411559	0.621972
O11	O	-0.811227	-0.268528	0.121941
O12	O	-0.311227	0.231472	0.621941
O13	O	-1.038882	-0.272860	0.121984
O14	O	-0.538882	0.227140	0.621984
Cu15	Cu	-0.925054	-0.270694	0.144205
Cu16	Cu	-0.425054	0.229306	0.644205
Cu17	Cu	-0.925059	-0.270697	-0.143879
Cu18	Cu	-0.425059	0.229303	0.356121
O19	O	-0.919820	-0.452947	0.121952
O20	O	-0.419820	0.047053	0.621952
C21	C	-0.782079	-0.264588	0.000136
C22	C	-0.282079	0.235412	0.500136
C23	C	-0.695221	-0.252831	0.000119
C24	C	-0.195221	0.247169	0.500119
C25	C	-0.929524	-0.041572	0.000172
C26	C	-0.429524	0.458428	0.500172
C27	C	-0.927225	0.098085	0.000169
C28	C	-0.427225	0.598085	0.500169
C29	C	-1.068034	-0.276802	0.000186
C30	C	-0.568034	0.223198	0.500186
C31	C	-1.154893	-0.288559	0.000193
C32	C	-0.654893	0.211441	0.500193
C33	C	-0.645709	-0.360775	0.000115
C34	C	-0.145709	0.139225	0.500115
C35	C	-0.564097	-0.349721	0.000135
C36	C	-0.064097	0.150279	0.500135
C37	C	-0.531998	-0.230721	0.000151
C38	C	-0.031998	0.269279	0.500151
C39	C	-0.581516	-0.122768	0.000160
C40	C	-0.081516	0.377232	0.500160
C41	C	-0.663127	-0.133824	0.000149
C42	C	-0.163127	0.366176	0.500149
C43	C	-0.286022	-0.191663	0.000192
C44	C	0.213978	0.308337	0.500192
C45	C	-0.204405	-0.180615	0.000198
C46	C	0.295595	0.319385	0.500198
C47	C	-0.186991	-0.407569	0.000176
C48	C	0.313009	0.092431	0.500176
C49	C	-0.268604	-0.418614	0.000157
C50	C	0.231396	0.081386	0.500157
C51	C	-0.318115	-0.310662	0.000174
C52	C	0.181885	0.189338	0.500174
C53	C	-0.448577	-0.219418	0.000167
C54	C	0.051423	0.280582	0.500167
C55	C	-0.401534	-0.321965	0.000168
C56	C	0.098466	0.178035	0.500168
C57	C	-0.920590	-0.499818	0.000150
C58	C	-0.420590	0.000182	0.500150
C59	C	-0.922889	-0.639475	0.000144
C60	C	-0.422889	-0.139475	0.500144
N61	N	-0.925057	-0.270692	0.346827
N62	N	-0.425057	0.229308	0.846827
C63	C	-1.069596	0.112836	0.000214
C64	C	-0.569596	0.612836	0.500214
C65	C	-1.139699	0.185820	0.000240
C66	C	-0.639699	0.685820	0.500240
C67	C	-1.137534	0.317040	0.000235
C68	C	-0.637534	0.817040	0.500235
C69	C	-1.065259	0.375276	0.000200
C70	C	-0.565259	0.875276	0.500200
C71	C	-0.995156	0.302291	0.000174
C72	C	-0.495156	0.802291	0.500174
C73	C	-0.997329	0.171070	0.000184
C74	C	-0.497329	0.671070	0.500184
C75	C	-0.852786	0.287540	0.000118
C76	C	-0.352786	0.787540	0.500118
C77	C	-0.854949	0.156321	0.000134
C78	C	-0.354949	0.656321	0.500134
C79	C	-0.780511	0.345776	0.000083
C80	C	-0.280511	0.845776	0.500083
C81	C	-0.710407	0.272791	0.000068
C82	C	-0.210407	0.772791	0.500068
C83	C	-0.712575	0.141565	0.000075
C84	C	-0.212575	0.641565	0.500075
C85	C	-0.784847	0.083336	0.000108
C86	C	-0.284847	0.583336	0.500108
N87	N	-0.925063	-0.270689	-0.346502
N88	N	-0.425063	0.229311	0.153498
C89	C	-1.030530	-0.111278	0.346845
C90	C	-0.530530	0.388722	0.846845
C91	C	-1.083272	-0.031576	0.423521
C92	C	-0.583272	0.468424	0.923521
C93	C	-1.083280	-0.031576	0.576854
C94	C	-0.583280	0.468424	1.076854
C95	C	-1.030539	-0.111284	0.653516
C96	C	-0.530539	0.388716	1.153516
C97	C	-0.977797	-0.190987	0.576840
C98	C	-0.477797	0.309013	1.076840
C99	C	-0.977796	-0.190981	0.423503
C100	C	-0.477796	0.309019	0.923503
C101	C	-0.872321	-0.350392	0.576822
C102	C	-0.372321	0.149608	1.076822
C103	C	-0.872316	-0.350400	0.423489
C104	C	-0.372316	0.149600	0.923489
C105	C	-0.819580	-0.430100	0.653484
C106	C	-0.319580	0.069900	1.153484
C107	C	-0.766840	-0.509811	0.576808
C108	C	-0.266840	-0.009811	1.076808
C109	C	-0.766835	-0.509809	0.423465
C110	C	-0.266835	-0.009809	0.923465
C111	C	-0.819574	-0.430103	0.346813
C112	C	-0.319574	0.069897	0.846813
H113	H	-0.671837	-0.457678	0.000101
H114	H	-0.171837	0.042322	0.500101
H115	H	-1.063503	0.482122	0.000178
H116	H	-0.563503	0.982122	0.500178
H117	H	-0.651566	0.320218	0.000031
H118	H	-0.151566	0.820218	0.500031
H119	H	-1.194618	0.376464	0.000244
H120	H	-0.694618	0.876464	0.500244
H121	H	-0.326324	-0.103760	0.000207
H122	H	0.173676	0.396240	0.500207
H123	H	-0.723883	-0.574707	0.361044
H124	H	-0.223883	-0.074707	0.861044
H125	H	-0.819577	-0.430099	0.221961
H126	H	-0.319577	0.069901	0.721961
Br127	Br	-0.787795	-0.094747	0.000133
Br128	Br	-0.287795	0.405253	0.500133
Br129	Br	-0.496904	-0.496224	0.000124
Br130	Br	0.003096	0.003776	0.500124
H131	H	-1.071366	0.005991	0.000238
H132	H	-0.571366	0.505991	0.500238
H133	H	-0.778753	0.452622	0.000070
H134	H	-0.278753	0.952622	0.500070
Br135	Br	-0.617430	0.042524	0.000023
Br136	Br	-0.117430	0.542524	0.500023
Br137	Br	-1.030538	-0.111292	0.138748
Br138	Br	-0.530538	0.388708	0.638748
Br139	Br	-1.154842	0.076604	0.319481
Br140	Br	-0.654842	0.576604	0.819481
H141	H	-0.427672	-0.418854	0.000164
H142	H	0.072328	0.081146	0.500164
Br143	Br	-0.537954	0.038734	0.000195
Br144	Br	-0.037954	0.538734	0.500195
H145	H	-0.422433	-0.122528	0.000221
H146	H	0.077567	0.377472	0.500221
H147	H	-0.723899	-0.574698	0.639235
H148	H	-0.223899	-0.074698	1.139235
Br149	Br	-1.154852	0.076603	0.680919
Br150	Br	-0.654852	0.576603	1.180919
H151	H	-1.030542	-0.111268	0.778368
H152	H	-0.530542	0.388732	1.278368
H153	H	-0.178274	-0.083706	0.000208
H154	H	0.321726	0.416294	0.500208
H155	H	-1.198544	0.138390	0.000281
H156	H	-0.698544	0.638390	0.500281
Br157	Br	-0.730323	0.012678	0.000169
Br158	Br	-0.230323	0.512678	0.500169
H159	H	-0.294732	-0.515516	0.000128
H160	H	0.205268	-0.015516	0.500128
Br161	Br	-0.119794	-0.554067	0.000155
Br162	Br	0.380206	-0.054067	0.500155
H163	H	-0.819585	-0.430091	0.778336
H164	H	-0.319585	0.069909	1.278336
