data_functionalizedCrystal
_audit_creation_method	'MofGen! by Chris Wilmer'
_symmetry_space_group_name_H-M	'P1'
_symmetry_Int_Tables_number	1
_symmetry_cell_setting	triclinic
loop_
_symmetry_equiv_pos_as_xyz
  x,y,z
_cell_length_a	17.699077
_cell_length_b	15.995292
_cell_length_c	14.472311
_cell_angle_alpha	90.006466
_cell_angle_beta	90.003581
_cell_angle_gamma	83.374596
loop_
_atom_site_label
_atom_site_type_symbol
_atom_site_fract_x
_atom_site_fract_y
_atom_site_fract_z
O1	O	1.004234	0.105868	0.076822
O2	O	1.504234	0.605868	0.576822
O3	O	0.783875	0.119650	0.076826
O4	O	1.283875	0.619650	0.576826
O5	O	0.900101	-0.009144	0.076825
O6	O	1.400101	0.490856	0.576825
O7	O	0.888008	0.234663	0.076823
O8	O	1.388008	0.734663	0.576823
O9	O	0.900093	-0.009160	-0.076857
O10	O	1.400093	0.490840	0.423143
O11	O	0.783867	0.119634	-0.076856
O12	O	1.283867	0.619634	0.423144
O13	O	1.004226	0.105852	-0.076860
O14	O	1.504226	0.605852	0.423140
Cu15	Cu	0.894046	0.112742	-0.090890
Cu16	Cu	1.394046	0.612742	0.409110
Cu17	Cu	0.894055	0.112761	0.090856
Cu18	Cu	1.394055	0.612761	0.590856
O19	O	0.888000	0.234646	-0.076859
O20	O	1.388000	0.734646	0.423141
C21	C	0.755673	0.119149	-0.000015
C22	C	1.255673	0.619149	0.499985
C23	C	0.671653	0.117670	-0.000013
C24	C	1.171653	0.617670	0.499987
C25	C	0.632180	0.116964	-0.083786
C26	C	1.132180	0.616964	0.416214
C27	C	0.553235	0.115561	-0.083787
C28	C	1.053235	0.615561	0.416213
C29	C	0.513764	0.114870	-0.000014
C30	C	1.013764	0.614870	0.499986
C31	C	0.553243	0.115573	0.083766
C32	C	1.053243	0.615573	0.583766
C33	C	0.632187	0.116970	0.083766
C34	C	1.132187	0.616970	0.583766
C35	C	0.234871	0.109938	0.083767
C36	C	0.734871	0.609938	0.583767
C37	C	0.155921	0.108544	0.083761
C38	C	0.655921	0.608544	0.583761
C39	C	0.155920	0.108530	-0.083785
C40	C	0.655920	0.608530	0.416215
C41	C	0.234864	0.109927	-0.083785
C42	C	0.734864	0.609927	0.416215
C43	C	0.274336	0.110625	-0.000006
C44	C	0.774336	0.610625	0.499994
C45	C	0.359937	0.112145	-0.000006
C46	C	0.859937	0.612145	0.499994
C47	C	0.428164	0.113356	-0.000013
C48	C	0.928164	0.613356	0.499987
C49	C	0.899605	-0.040347	-0.000013
C50	C	1.399605	0.459653	0.499987
C51	C	0.898129	-0.133297	-0.000006
C52	C	1.398129	0.366703	0.499994
C53	C	0.892704	-0.471024	-0.000015
C54	C	1.392704	0.028976	0.499985
C55	C	0.976593	-0.447884	-0.000359
C56	C	1.476593	0.052116	0.499641
C57	C	0.978188	-0.351212	-0.000010
C58	C	1.478188	0.148788	0.499990
C59	C	0.895396	-0.303474	-0.000011
C60	C	1.395396	0.196526	0.499989
C61	C	0.853460	-0.332479	0.087747
C62	C	1.353460	0.167521	0.587747
C63	C	0.852450	-0.429268	0.087817
C64	C	1.352450	0.070732	0.587817
C65	C	0.850728	-0.429140	-0.086948
C66	C	1.350728	0.070860	0.413052
C67	C	0.853837	-0.332654	-0.088105
C68	C	1.353837	0.167346	0.411895
C69	C	0.896913	-0.208781	-0.000006
C70	C	1.396913	0.291219	0.499994
C71	C	0.891185	-0.565717	-0.000014
C72	C	1.391185	-0.065717	0.499986
C73	C	1.032427	0.106353	-0.000017
C74	C	1.532427	0.606353	0.499983
C75	C	1.116448	0.107832	-0.000013
C76	C	1.616448	0.607832	0.499987
C77	C	0.888496	0.265849	-0.000019
C78	C	1.388496	0.765849	0.499981
C79	C	0.889972	0.358799	-0.000019
C80	C	1.389972	0.858799	0.499981
N81	N	0.894044	0.112728	-0.218721
N82	N	1.394044	0.612728	0.281279
C83	C	0.894056	0.112754	-0.592813
C84	C	1.394056	0.612754	-0.092813
C85	C	0.956448	0.044069	-0.553618
C86	C	1.456448	0.544069	-0.053618
C87	C	0.956285	0.043816	-0.446530
C88	C	1.456285	0.543816	0.053470
C89	C	0.894051	0.112741	-0.407221
C90	C	1.394051	0.612741	0.092779
C91	C	0.815090	0.093822	-0.446111
C92	C	1.315090	0.593822	0.053889
C93	C	0.815459	0.093337	-0.553232
C94	C	1.315459	0.593337	-0.053232
C95	C	0.909914	0.200563	-0.553319
C96	C	1.409914	0.700563	-0.053319
C97	C	0.911706	0.199971	-0.446190
C98	C	1.411706	0.699971	0.053810
C99	C	0.894043	0.112735	-0.302333
C100	C	1.394043	0.612735	0.197667
C101	C	0.894058	0.112759	-0.697701
C102	C	1.394058	0.612759	-0.197701
N103	N	0.894062	0.112768	0.218687
N104	N	1.394062	0.612768	0.718687
H105	H	0.267000	0.110505	0.151985
H106	H	0.767000	0.610505	0.651985
H107	H	0.869207	0.253465	-0.419430
H108	H	1.369207	0.753465	0.080570
Br109	Br	0.102347	0.107580	-0.197488
Br110	Br	0.602347	0.607580	0.302512
H111	H	0.767544	0.142525	-0.420650
H112	H	1.267544	0.642525	0.079350
Br113	Br	0.685739	0.117911	-0.197484
Br114	Br	1.185739	0.617911	0.302516
Br115	Br	0.753113	-0.277499	-0.096944
Br116	Br	1.253113	0.222501	0.403056
H117	H	0.881500	-0.456137	0.153418
H118	H	1.381500	0.043863	0.653418
H119	H	0.877143	-0.457289	-0.153468
H120	H	1.377143	0.042711	0.346532
H121	H	0.521100	0.115004	0.151975
H122	H	1.021100	0.615004	0.651975
H123	H	0.864416	0.251675	-0.578670
H124	H	1.364416	0.751675	-0.078670
Br125	Br	1.030487	-0.494667	-0.105258
Br126	Br	1.530487	0.005333	0.394742
H127	H	0.123786	0.107980	0.151983
H128	H	0.623786	0.607980	0.651983
Br129	Br	1.008518	0.223915	-0.403819
Br130	Br	1.508518	0.723915	0.096181
Br131	Br	1.054112	0.062569	-0.402699
Br132	Br	1.554112	0.562569	0.097301
H133	H	0.946466	-0.020729	-0.580548
H134	H	1.446466	0.479271	-0.080548
H135	H	0.946155	-0.021350	-0.420912
H136	H	1.446155	0.478650	0.079088
Br137	Br	0.792159	-0.013388	-0.594896
Br138	Br	1.292159	0.486612	-0.094896
Br139	Br	1.033261	-0.320631	0.105025
Br140	Br	1.533261	0.179369	0.605025
Br141	Br	0.904725	-0.301820	-0.196318
Br142	Br	1.404725	0.198180	0.303682
H143	H	0.664324	0.117546	0.151982
H144	H	1.164324	0.617546	0.651982
Br145	Br	0.499666	0.114618	-0.197484
Br146	Br	0.999666	0.614618	0.302516
H147	H	0.767637	0.141470	-0.579161
H148	H	1.267637	0.641470	-0.079161
Br149	Br	1.032906	-0.319618	-0.104876
Br150	Br	1.532906	0.180382	0.395124
Br151	Br	0.791213	-0.011686	-0.401413
Br152	Br	1.291213	0.488314	0.098587
Br153	Br	1.003834	0.230932	-0.598326
Br154	Br	1.503834	0.730932	-0.098326
H155	H	1.008751	-0.476962	0.062221
H156	H	1.508751	0.023038	0.562221
Br157	Br	0.749938	-0.453313	0.094459
Br158	Br	1.249938	0.046687	0.594459
Br159	Br	0.288427	0.110872	-0.197481
Br160	Br	0.788427	0.610872	0.302519
H161	H	1.015340	0.055126	-0.579374
H162	H	1.515340	0.555126	-0.079374
H163	H	0.792537	-0.300486	0.091008
H164	H	1.292537	0.199514	0.591008
H165	H	0.788980	-0.443003	-0.087540
H166	H	1.288980	0.056997	0.412460
Br167	Br	0.902007	-0.299138	0.196604
Br168	Br	1.402007	0.200862	0.696604
