data_functionalizedCrystal
_audit_creation_method	'MofGen! by Chris Wilmer'
_symmetry_space_group_name_H-M	'P1'
_symmetry_Int_Tables_number	1
_symmetry_cell_setting	triclinic
loop_
_symmetry_equiv_pos_as_xyz
  x,y,z
_cell_length_a	10.654541
_cell_length_b	23.532407
_cell_length_c	9.730217
_cell_angle_alpha	89.992119
_cell_angle_beta	89.999932
_cell_angle_gamma	83.666303
loop_
_atom_site_label
_atom_site_type_symbol
_atom_site_fract_x
_atom_site_fract_y
_atom_site_fract_z
O1	O	1.665305	0.079977	-0.114264
O2	O	1.299584	0.087599	-0.114277
O3	O	1.493473	0.000928	-0.114245
O4	O	1.471416	0.166648	-0.114296
O5	O	1.493467	0.000928	0.114335
O6	O	1.299578	0.087598	0.114303
O7	O	1.665299	0.079977	0.114317
Zn8	Zn	1.482437	0.083787	0.150602
Zn9	Zn	1.482445	0.083788	-0.150562
O10	O	1.471410	0.166647	0.114284
C11	C	1.252801	0.087039	0.000012
C12	C	1.113410	0.085366	0.000008
C13	C	1.082156	0.189004	-0.000042
C14	C	1.001045	0.240035	-0.000071
C15	C	0.870077	0.238459	-0.000072
C16	C	0.820218	0.185847	-0.000039
C17	C	0.901329	0.134816	-0.000009
C18	C	1.032299	0.136398	-0.000013
C19	C	0.932583	0.031179	0.000050
C20	C	1.063552	0.032754	0.000041
C21	C	0.882725	-0.021433	0.000083
C22	C	0.963837	-0.072465	0.000103
C23	C	1.094812	-0.070887	0.000102
C24	C	1.144663	-0.018277	0.000071
C25	C	1.492908	-0.020292	0.000049
C26	C	1.491219	-0.083520	0.000059
C27	C	1.595367	-0.481945	-0.000012
C28	C	1.593798	-0.541355	-0.000023
O29	O	1.690344	-0.577471	-0.000070
N30	N	1.478531	-0.564732	-0.000026
C31	C	1.364826	-0.528695	-0.000033
O32	O	1.266639	-0.554034	-0.000038
C33	C	1.366396	-0.469285	-0.000032
C34	C	1.481670	-0.445912	-0.000015
C35	C	1.710632	-0.458571	0.000003
C36	C	1.712200	-0.399164	0.000017
C37	C	1.598503	-0.363132	0.000014
C38	C	1.483238	-0.386506	-0.000002
C39	C	1.252692	-0.433249	-0.000049
C40	C	1.254272	-0.373836	-0.000049
C41	C	1.369546	-0.350463	-0.000032
C42	C	1.371110	-0.291067	0.000009
N43	N	1.486377	-0.267690	0.000012
C44	C	1.600073	-0.303723	0.000015
C45	C	1.361537	-0.653459	-0.000036
C46	C	1.359966	-0.712867	-0.000027
C47	C	1.588939	-0.725523	-0.000020
C48	C	1.590509	-0.666114	-0.000019
C49	C	1.476804	-0.630082	-0.000033
C50	C	1.603358	-0.178964	0.000043
C51	C	1.604916	-0.119552	0.000062
C52	C	1.375944	-0.106901	0.000047
C53	C	1.374385	-0.166308	0.000036
C54	C	1.488102	-0.202339	0.000029
O55	O	1.274615	-0.254916	0.000050
O56	O	1.698244	-0.278375	0.000002
C57	C	1.712082	0.080536	0.000025
C58	C	1.851472	0.082210	0.000020
C59	C	1.471975	0.187867	-0.000012
C60	C	1.473663	0.251096	-0.000032
N61	N	1.482441	0.083786	0.356138
N62	N	1.482451	0.083785	-0.356099
C63	C	1.654199	0.007062	0.356158
C64	C	1.740086	-0.031299	0.428107
C65	C	1.740099	-0.031299	0.571987
C66	C	1.654213	0.007064	0.643920
C67	C	1.568326	0.045425	0.571971
C68	C	1.568325	0.045422	0.428088
C69	C	1.396564	0.122146	0.571952
C70	C	1.396555	0.122150	0.428072
C71	C	1.310678	0.160509	0.643885
C72	C	1.224795	0.198873	0.571936
C73	C	1.224787	0.198872	0.428047
C74	C	1.310668	0.160510	0.356122
H75	H	1.251302	-0.016987	0.000054
Cl76	Cl	1.654208	0.007066	0.175279
H77	H	1.161677	-0.344501	-0.000062
Cl78	Cl	1.116829	0.247092	0.662370
Cl79	Cl	1.848066	-0.079527	0.662440
Cl80	Cl	1.654213	0.007056	0.824799
Cl81	Cl	0.655571	0.183868	-0.000016
Cl82	Cl	1.310686	0.160507	0.824764
Cl83	Cl	0.718078	-0.023414	0.000089
H84	H	0.804035	0.280013	-0.000087
Cl85	Cl	1.116800	0.247097	0.337609
H86	H	1.310674	0.160508	0.238968
Cl87	Cl	1.731873	-0.770832	-0.000026
H88	H	1.160847	-0.112443	0.000132
Cl89	Cl	1.749843	-0.090173	0.000081
Cl90	Cl	1.746319	-0.224251	0.000037
H91	H	1.806068	-0.380140	0.000025
H92	H	1.041654	0.282871	-0.000095
H93	H	1.283375	-0.077553	0.000050
Cl94	Cl	1.246801	0.190990	-0.000066
H95	H	1.803222	-0.487903	0.000001
Cl96	Cl	0.901151	-0.138598	0.000156
Cl97	Cl	1.229468	-0.195692	0.000040
H98	H	1.684375	-0.647088	-0.000006
H99	H	1.810011	-0.062535	0.369526
Cl100	Cl	1.215044	-0.742242	-0.000023
H101	H	1.158824	-0.452269	-0.000071
Cl102	Cl	1.218579	-0.608166	-0.000039
