data_functionalizedCrystal
_audit_creation_method	'MofGen! by Chris Wilmer'
_symmetry_space_group_name_H-M	'P1'
_symmetry_Int_Tables_number	1
_symmetry_cell_setting	triclinic
loop_
_symmetry_equiv_pos_as_xyz
  x,y,z
_cell_length_a	18.050589
_cell_length_b	18.215407
_cell_length_c	18.215399
_cell_angle_alpha	89.986109
_cell_angle_beta	89.973988
_cell_angle_gamma	90.025680
loop_
_atom_site_label
_atom_site_type_symbol
_atom_site_fract_x
_atom_site_fract_y
_atom_site_fract_z
Zn1	Zn	-0.295700	1.125033	-0.416080
Zn2	Zn	-0.419900	1.124941	-0.293024
Zn3	Zn	-0.295723	1.001972	-0.293034
Zn4	Zn	-0.419847	1.001924	-0.416055
O5	O	-0.357792	1.063468	-0.354548
O6	O	-0.312188	1.228005	-0.399763
O7	O	-0.403459	1.108610	-0.190041
O8	O	-0.191795	1.018355	-0.309372
O9	O	-0.403437	1.227937	-0.309354
O10	O	-0.191778	1.108767	-0.399773
O11	O	-0.312227	1.018265	-0.190048
O12	O	-0.312176	0.898981	-0.309347
O13	O	-0.403347	1.018274	-0.519042
O14	O	-0.403369	0.898946	-0.399729
O15	O	-0.312136	1.108721	-0.519061
O16	O	-0.523818	1.108564	-0.309329
O17	O	-0.523779	1.018184	-0.399719
C18	C	-0.357770	0.872261	-0.354537
C19	C	-0.357778	0.790462	-0.354549
C20	C	-0.405355	0.525406	-0.401546
C21	C	-0.405348	0.602265	-0.401542
C22	C	-0.310247	0.602271	-0.307563
C23	C	-0.310257	0.525413	-0.307564
C24	C	-0.357810	0.486983	-0.354559
C25	C	-0.357793	0.640699	-0.354555
C26	C	-0.357786	0.724033	-0.354551
C27	C	-0.357819	0.403644	-0.354563
C28	C	-0.550745	1.063379	-0.354536
C29	C	-0.633290	1.063408	-0.354555
C30	C	-0.832747	1.014308	-0.403693
C31	C	-0.882189	0.996372	-0.336539
C32	C	-0.784421	1.063480	-0.354565
C33	C	-0.882060	1.081453	-0.421726
C34	C	-0.930406	1.063549	-0.354580
C35	C	-0.832776	1.045509	-0.287376
C36	C	-0.832642	1.130621	-0.372608
C37	C	-0.882062	1.112710	-0.305409
C38	C	-0.700322	1.063439	-0.354557
C39	C	-1.014502	1.063590	-0.354580
C40	C	-0.164087	1.063577	-0.354577
C41	C	-0.081541	1.063623	-0.354589
C42	C	-0.357733	1.063502	-0.546501
C43	C	-0.357708	1.063517	-0.628300
C44	C	-0.357816	1.255420	-0.354560
C45	C	-0.357826	1.337219	-0.354565
C46	C	-0.310171	1.016514	-0.816499
C47	C	-0.310156	1.016527	-0.893358
C48	C	-0.405156	1.110608	-0.893339
C49	C	-0.405174	1.110591	-0.816482
C50	C	-0.357677	1.063545	-0.778064
C51	C	-0.357644	1.063575	-0.931780
C52	C	-0.357628	1.063589	-1.015114
C53	C	-0.357694	1.063530	-0.694725
C54	C	-0.357798	1.063475	-0.163342
C55	C	-0.357614	1.063603	-0.081543
H56	H	-0.444076	0.494118	-0.439812
Br57	Br	-0.469880	0.654408	-0.465309
Br58	Br	-0.245711	0.654431	-0.243790
H59	H	-0.443826	1.148911	-0.924628
Br60	Br	-0.918459	0.901786	-0.311102
Br61	Br	-0.796848	1.020112	-0.192692
Br62	Br	-0.469657	1.174417	-0.764314
Br63	Br	-0.918149	1.106742	-0.516379
H64	H	-0.271540	0.494128	-0.269298
H65	H	-0.271496	0.978207	-0.785221
Br66	Br	-0.796652	0.944903	-0.472843
Br67	Br	-0.917927	1.182072	-0.236099
H68	H	-0.810865	1.187355	-0.387887
H69	H	-0.271472	0.978229	-0.924649
