data_functionalizedCrystal
_audit_creation_method	'MofGen! by Chris Wilmer'
_symmetry_space_group_name_H-M	'P1'
_symmetry_Int_Tables_number	1
_symmetry_cell_setting	triclinic
loop_
_symmetry_equiv_pos_as_xyz
  x,y,z
_cell_length_a	8.497374
_cell_length_b	11.169417
_cell_length_c	11.169409
_cell_angle_alpha	90.019824
_cell_angle_beta	89.979460
_cell_angle_gamma	89.998029
loop_
_atom_site_label
_atom_site_type_symbol
_atom_site_fract_x
_atom_site_fract_y
_atom_site_fract_z
Zn1	Zn	0.627891	1.835039	0.678641
Zn2	Zn	1.127891	2.335039	1.178641
Zn3	Zn	0.891756	1.834961	0.477999
Zn4	Zn	1.391756	2.334961	0.977999
Zn5	Zn	0.627987	1.634325	0.477976
Zn6	Zn	1.127987	2.134325	0.977976
Zn7	Zn	0.891627	1.634365	0.678644
Zn8	Zn	1.391627	2.134365	1.178644
O9	O	0.759815	1.734673	0.578315
O10	O	1.259815	2.234673	1.078315
O11	O	0.662907	2.002979	0.652034
O12	O	1.162907	2.502979	1.152034
O13	O	0.856860	1.808297	0.310046
O14	O	1.356860	2.308297	0.810046
O15	O	0.407212	1.660967	0.504583
O16	O	0.907212	2.160967	1.004583
O17	O	0.856767	2.002921	0.504624
O18	O	1.356767	2.502921	1.004624
O19	O	0.407142	1.808430	0.652011
O20	O	0.907142	2.308430	1.152011
O21	O	0.663071	1.660891	0.310029
O22	O	1.163071	2.160891	0.810029
O23	O	0.662946	1.466381	0.504586
O24	O	1.162946	1.966381	1.004586
O25	O	0.856548	1.661035	0.846594
O26	O	1.356548	2.161035	1.346594
O27	O	0.856641	1.466410	0.652016
O28	O	1.356641	1.966410	1.152016
O29	O	0.662782	1.808469	0.846591
O30	O	1.162782	2.308469	1.346591
O31	O	1.112501	1.808336	0.504627
O32	O	1.612501	2.308336	1.004627
O33	O	1.112407	1.660959	0.652040
O34	O	1.612407	2.160959	1.152040
C35	C	0.759791	1.422848	0.578300
C36	C	1.259791	1.922848	1.078300
C37	C	0.759819	1.289448	0.578321
C38	C	1.259819	1.789448	1.078321
C39	C	1.169695	1.734658	0.578332
C40	C	1.669695	2.234658	1.078332
C41	C	1.348339	1.734690	0.578313
C42	C	1.848339	2.234690	1.078313
C43	C	0.759640	1.734765	0.891358
C44	C	1.259640	2.234765	1.391358
C45	C	0.759565	1.734804	1.024758
C46	C	1.259565	2.234804	1.524758
C47	C	0.759840	2.047715	0.578331
C48	C	1.259840	2.547715	1.078331
C49	C	0.759851	2.181115	0.578338
C50	C	1.259851	2.681115	1.078338
C51	C	0.759876	1.734650	0.266490
C52	C	1.259876	2.234650	0.766490
C53	C	0.759506	1.734843	0.133091
C54	C	1.259506	2.234843	0.633091
