data_functionalizedCrystal
_audit_creation_method	'MofGen! by Chris Wilmer'
_symmetry_space_group_name_H-M	'P1'
_symmetry_Int_Tables_number	1
_symmetry_cell_setting	triclinic
loop_
_symmetry_equiv_pos_as_xyz
  x,y,z
_cell_length_a	10.967926
_cell_length_b	23.532357
_cell_length_c	22.610064
_cell_angle_alpha	89.989969
_cell_angle_beta	102.113953
_cell_angle_gamma	83.791997
loop_
_atom_site_label
_atom_site_type_symbol
_atom_site_fract_x
_atom_site_fract_y
_atom_site_fract_z
O1	O	1.654586	0.079870	0.119452
O2	O	2.154586	0.579870	0.619452
O3	O	1.291215	0.087516	0.082414
O4	O	1.791215	0.587516	0.582414
O5	O	1.483890	0.000830	0.102065
O6	O	1.983890	0.500830	0.602065
O7	O	1.461910	0.166555	0.099801
O8	O	1.961910	0.666555	0.599801
O9	O	1.483834	0.000830	0.200429
O10	O	1.983834	0.500830	0.700429
O11	O	1.291159	0.087515	0.180777
O12	O	1.791159	0.587515	0.680777
O13	O	1.654530	0.079869	0.217816
O14	O	2.154530	0.579869	0.717816
Zn15	Zn	1.472835	0.083692	0.214914
Zn16	Zn	1.972835	0.583692	0.714914
Zn17	Zn	1.472909	0.083693	0.085316
Zn18	Zn	1.972909	0.583693	0.585316
O19	O	1.461854	0.166555	0.198164
O20	O	1.961854	0.666555	0.698164
C21	C	1.244708	0.086959	0.126858
C22	C	1.744708	0.586959	0.626858
C23	C	1.106214	0.085295	0.112742
C24	C	1.606214	0.585295	0.612742
C25	C	1.044441	0.084553	0.157403
C26	C	1.544441	0.584553	0.657403
C27	C	0.901301	0.082832	0.142815
C28	C	1.401301	0.582832	0.642815
C29	C	1.483312	-0.020390	0.151193
C30	C	1.983312	0.479610	0.651193
C31	C	1.481659	-0.083619	0.151030
C32	C	1.981659	0.416381	0.651030
C33	C	1.471313	-0.475698	0.096322
C34	C	1.971313	0.024302	0.596322
C35	C	1.469742	-0.535107	0.096159
C36	C	1.969742	-0.035107	0.596159
O37	O	1.468913	-0.565829	0.050472
O38	O	1.968913	-0.065829	0.550472
N39	N	1.468932	-0.564824	0.149697
N40	N	1.968932	-0.064824	0.649697
C41	C	1.469681	-0.535127	0.203400
C42	C	1.969681	-0.035127	0.703400
O43	O	1.468846	-0.565858	0.248923
O44	O	1.968846	-0.065858	0.748923
C45	C	1.471243	-0.475718	0.203562
C46	C	1.971243	0.024282	0.703562
C47	C	1.472066	-0.446005	0.150022
C48	C	1.972066	0.053995	0.650022
C49	C	1.472134	-0.445985	0.042787
C50	C	1.972134	0.054015	0.542787
C51	C	1.473708	-0.386580	0.042951
C52	C	1.973708	0.113420	0.542951
C53	C	1.474460	-0.356887	0.096650
C54	C	1.974460	0.143113	0.596650
C55	C	1.473639	-0.386600	0.150186
C56	C	1.973639	0.113400	0.650186
C57	C	1.471983	-0.446021	0.257264
C58	C	1.971983	0.053979	0.757264
C59	C	1.473544	-0.386608	0.257421
C60	C	1.973544	0.113392	0.757421
C61	C	1.474367	-0.356896	0.203881
C62	C	1.974367	0.143104	0.703881
C63	C	1.475965	-0.297502	0.204050
C64	C	1.975965	0.202498	0.704050
N65	N	1.476775	-0.267785	0.150512
N66	N	1.976775	0.232215	0.650512
C67	C	1.476022	-0.297478	0.096812
C68	C	1.976022	0.202522	0.596812
C69	C	1.466398	-0.659890	0.203056
C70	C	1.966398	-0.159890	0.703056
C71	C	1.464844	-0.719298	0.202895
C72	C	1.964844	-0.219298	0.702895
C73	C	1.464903	-0.719274	0.095653
C74	C	1.964903	-0.219274	0.595653
C75	C	1.466465	-0.659865	0.095815
C76	C	1.966465	-0.159865	0.595815
C77	C	1.467207	-0.630173	0.149518
C78	C	1.967207	-0.130173	0.649518
C79	C	1.479328	-0.172722	0.097161
C80	C	1.979328	0.327278	0.597161
C81	C	1.480907	-0.113312	0.097330
C82	C	1.980907	0.386688	0.597330
C83	C	1.480842	-0.113340	0.204571
C84	C	1.980842	0.386660	0.704571
C85	C	1.479269	-0.172746	0.204403
C86	C	1.979269	0.327254	0.704403
C87	C	1.478508	-0.202435	0.150693
C88	C	1.978508	0.297565	0.650693
O89	O	1.476790	-0.266742	0.249713
O90	O	1.976790	0.233258	0.749713
O91	O	1.476840	-0.266738	0.051296
O92	O	1.976840	0.233262	0.551296
C93	C	1.701037	0.080426	0.173370
C94	C	2.201037	0.580426	0.673370
C95	C	1.839530	0.082090	0.187483
C96	C	2.339530	0.582090	0.687483
C97	C	1.462432	0.187775	0.149035
C98	C	1.962432	0.687775	0.649035
C99	C	1.464085	0.251004	0.149194
C100	C	1.964085	0.751004	0.649194
N101	N	1.472794	0.083692	0.303362
N102	N	1.972794	0.583692	0.803362
N103	N	1.472961	0.083689	-0.003131
N104	N	1.972961	0.583689	0.496869
C105	C	1.548137	0.118542	0.719678
C106	C	2.048137	0.618542	1.219678
C107	C	1.548152	0.118541	0.781600
C108	C	2.048152	0.618541	1.281600
O109	O	1.612162	0.148168	0.820138
O110	O	2.112162	0.648168	1.320138
N111	N	1.472933	0.083686	0.804913
N112	N	1.972933	0.583686	1.304913
C113	C	1.397703	0.048827	0.766303
C114	C	1.897703	0.548827	1.266303
O115	O	1.333726	0.019180	0.791819
O116	O	1.833726	0.519180	1.291819
C117	C	1.397695	0.048825	0.704384
C118	C	1.897695	0.548825	1.204384
C119	C	1.472910	0.083686	0.681072
C120	C	1.972910	0.583686	1.181072
C121	C	1.623346	0.153400	0.696366
C122	C	2.123346	0.653400	1.196366
C123	C	1.623328	0.153402	0.634449
C124	C	2.123328	0.653402	1.134449
C125	C	1.548101	0.118546	0.595843
C126	C	2.048101	0.618546	1.095843
C127	C	1.472892	0.083688	0.619155
C128	C	1.972892	0.583688	1.119155
C129	C	1.322472	0.013963	0.665775
C130	C	1.822472	0.513963	1.165775
C131	C	1.322472	0.013965	0.603852
C132	C	1.822472	0.513965	1.103852
C133	C	1.397686	0.048826	0.580541
C134	C	1.897686	0.548826	1.080541
C135	C	1.397647	0.048835	0.518632
C136	C	1.897647	0.548835	1.018632
N137	N	1.472866	0.083689	0.495318
N138	N	1.972866	0.583689	0.995318
C139	C	1.548093	0.118545	0.533924
C140	C	2.048093	0.618545	1.033924
C141	C	1.397727	0.048831	0.896339
C142	C	1.897727	0.548831	1.396339
C143	C	1.397728	0.048835	0.958257
C144	C	1.897728	0.548835	1.458257
C145	C	1.548179	0.118549	0.973549
C146	C	2.048179	0.618549	1.473549
C147	C	1.548171	0.118547	0.911630
C148	C	2.048171	0.618547	1.411630
C149	C	1.472947	0.083686	0.873025
C150	C	1.972947	0.583686	1.373025
C151	C	1.548049	0.118547	0.403892
C152	C	2.048049	0.618547	0.903892
C153	C	1.548021	0.118547	0.341968
C154	C	2.048021	0.618547	0.841968
C155	C	1.397575	0.048832	0.326681
C156	C	1.897575	0.548832	0.826681
C157	C	1.397598	0.048833	0.388599
C158	C	1.897598	0.548833	0.888599
C159	C	1.472845	0.083692	0.427204
C160	C	1.972845	0.583692	0.927204
O161	O	1.333674	0.019221	0.480057
O162	O	1.833674	0.519221	0.980057
O163	O	1.612072	0.148181	0.508400
O164	O	2.112072	0.648181	1.008400
H165	H	1.481579	-0.089123	0.053730
H166	H	1.981579	0.410877	0.553730
N167	N	1.704479	0.191004	0.737997
N168	N	2.204479	0.691004	1.237997
H169	H	1.693084	0.185724	0.780763
H170	H	2.193084	0.685724	1.280763
H171	H	1.795360	0.180134	0.736422
H172	H	2.295360	0.680134	1.236422
H173	H	1.261214	-0.014425	0.572423
H174	H	1.761214	0.485575	1.072423
H175	H	1.609269	0.146938	0.322991
H176	H	2.109269	0.646938	0.822991
H177	H	0.848222	0.082193	0.093775
H178	H	1.348222	0.582193	0.593775
N179	N	0.909835	0.082939	0.252441
N180	N	1.409835	0.582939	0.752441
H181	H	0.876674	0.117909	0.272512
H182	H	1.376674	0.617909	0.772512
H183	H	0.897786	0.047404	0.274631
H184	H	1.397786	0.547404	0.774631
N185	N	1.035908	0.084445	0.047786
N186	N	1.535908	0.584445	0.547786
H187	H	0.971347	0.119036	0.038842
H188	H	1.471347	0.619036	0.538842
H189	H	1.096880	0.085155	0.020026
H190	H	1.596880	0.585155	0.520026
H191	H	1.478702	-0.196888	0.053424
H192	H	1.978702	0.303112	0.553424
H193	H	1.478611	-0.196940	0.248000
H194	H	1.978611	0.303060	0.748000
H195	H	1.609417	0.146935	0.892654
H196	H	2.109417	0.646935	1.392654
H197	H	1.481460	-0.089154	0.248293
H198	H	1.981460	0.410846	0.748293
H199	H	1.684581	0.181787	0.615476
H200	H	2.184581	0.681787	1.115476
N201	N	1.629366	0.156131	1.015190
N202	N	2.129366	0.656131	1.515190
H203	H	1.604245	0.197467	1.001856
H204	H	2.104245	0.697467	1.501856
H205	H	1.617946	0.150792	1.057942
H206	H	2.117946	0.650792	1.557942
N207	N	1.474588	-0.354536	-0.014797
N208	N	1.974588	0.145464	0.485203
H209	H	1.473868	-0.382368	-0.048836
H210	H	1.973868	0.117632	0.451164
H211	H	1.397880	-0.325570	-0.024953
H212	H	1.897880	0.174430	0.475047
H213	H	1.471517	-0.470154	-0.000945
H214	H	1.971517	0.029846	0.499055
H215	H	1.467133	-0.635677	0.052218
H216	H	1.967133	-0.135677	0.552218
H217	H	1.467006	-0.635718	0.246790
H218	H	1.967006	-0.135718	0.746790
N219	N	1.464091	-0.751306	0.037732
N220	N	1.964091	-0.251306	0.537732
H221	H	1.462972	-0.793449	0.045758
H222	H	1.962972	-0.293449	0.545758
H223	H	1.387020	-0.736601	0.006460
H224	H	1.887020	-0.236601	0.506460
N225	N	1.463984	-0.751344	0.260644
N226	N	1.963984	-0.251344	0.760644
H227	H	1.464702	-0.723513	0.294685
H228	H	1.964702	-0.223513	0.794685
H229	H	1.385975	-0.771674	0.255032
H230	H	1.885975	-0.271674	0.755032
H231	H	1.336466	0.020455	0.977229
H232	H	1.836466	0.520455	1.477229
N233	N	1.114736	0.085402	0.222361
N234	N	1.614736	0.585402	0.722361
H235	H	1.102706	0.049891	0.244599
H236	H	1.602706	0.549891	0.744599
H237	H	1.206997	0.086533	0.223524
H238	H	1.706997	0.586533	0.723524
H239	H	1.261226	-0.014425	0.684744
H240	H	1.761226	0.485575	1.184744
H241	H	1.471315	-0.470203	0.300862
H242	H	1.971315	0.029797	0.800862
N243	N	1.316455	0.011233	0.285038
N244	N	1.816455	0.511233	0.785038
H245	H	1.255064	0.035767	0.253091
H246	H	1.755064	0.535767	0.753091
H247	H	1.371242	-0.016403	0.264966
H248	H	1.871242	0.483597	0.764966
N249	N	1.474340	-0.354583	0.315344
N250	N	1.974340	0.145417	0.815344
H251	H	1.473582	-0.382424	0.349233
H252	H	1.973582	0.117576	0.849233
H253	H	1.552347	-0.334254	0.325637
H254	H	2.052347	0.165746	0.825637
H255	H	1.336458	0.020445	0.864909
H256	H	1.836458	0.520445	1.364909
N257	N	1.316451	0.011246	0.413744
N258	N	1.816451	0.511246	0.913744
H259	H	1.268786	-0.010831	0.379889
H260	H	1.768786	0.489169	0.879889
H261	H	1.371207	-0.016371	0.445010
H262	H	1.871207	0.483629	0.945010
H263	H	1.609323	0.146932	0.435317
H264	H	2.109323	0.646932	0.935317
