data_functionalizedCrystal
_audit_creation_method	'MofGen! by Chris Wilmer'
_symmetry_space_group_name_H-M	'P1'
_symmetry_Int_Tables_number	1
_symmetry_cell_setting	triclinic
loop_
_symmetry_equiv_pos_as_xyz
  x,y,z
_cell_length_a	19.077269
_cell_length_b	25.639240
_cell_length_c	19.076919
_cell_angle_alpha	87.733839
_cell_angle_beta	94.669058
_cell_angle_gamma	92.253560
loop_
_atom_site_label
_atom_site_type_symbol
_atom_site_fract_x
_atom_site_fract_y
_atom_site_fract_z
Zn1	Zn	1.061546	0.250434	-0.355247
Zn2	Zn	1.561546	0.750434	0.144753
Zn3	Zn	1.066164	0.334488	-0.237359
Zn4	Zn	1.566164	0.834488	0.262641
Zn5	Zn	0.948406	0.243697	-0.242116
Zn6	Zn	1.448406	0.743697	0.257884
Zn7	Zn	0.943595	0.334462	-0.359942
Zn8	Zn	1.443595	0.834462	0.140058
O9	O	1.004928	0.290770	-0.298666
O10	O	1.504928	0.790770	0.201334
O11	O	1.160804	0.264415	-0.335654
O12	O	1.660804	0.764415	0.164346
O13	O	1.054489	0.319636	-0.139343
O14	O	1.554489	0.819636	0.360657
O15	O	0.963495	0.171429	-0.257149
O16	O	1.463495	0.671429	0.242851
O17	O	1.164197	0.326169	-0.249042
O18	O	1.664197	0.826169	0.250958
O19	O	1.046618	0.176379	-0.340266
O20	O	1.546618	0.676379	0.159734
O21	O	0.967973	0.252932	-0.142837
O22	O	1.467973	0.752932	0.357163
O23	O	0.849123	0.252907	-0.261701
O24	O	1.349123	0.752907	0.238299
O25	O	0.955295	0.326124	-0.457967
O26	O	1.455295	0.826124	0.042033
O27	O	0.845588	0.319591	-0.348267
O28	O	1.345588	0.819591	0.151733
O29	O	1.041953	0.264389	-0.454518
O30	O	1.541953	0.764389	0.045482
O31	O	1.049824	0.407647	-0.253594
O32	O	1.549824	0.907647	0.246406
O33	O	0.959773	0.407627	-0.343655
O34	O	1.459773	0.907627	0.156345
C35	C	0.821778	0.285516	-0.306010
C36	C	1.321778	0.785516	0.193990
C37	C	0.743425	0.283281	-0.309169
C38	C	1.243425	0.783281	0.190831
C39	C	0.708381	0.314326	-0.265491
C40	C	1.208381	0.814326	0.234509
C41	C	0.634760	0.312227	-0.268468
C42	C	1.134760	0.812227	0.231532
C43	C	0.596184	0.279078	-0.315120
C44	C	1.096184	0.779078	0.184880
C45	C	0.631233	0.248031	-0.358802
C46	C	1.131233	0.748031	0.141198
C47	C	0.704853	0.250134	-0.355828
C48	C	1.204853	0.750134	0.144172
C49	C	0.375814	0.269350	-0.328860
C50	C	0.875814	0.769350	0.171140
C51	C	0.302189	0.267249	-0.331830
C52	C	0.802189	0.767249	0.168170
C53	C	0.305721	0.331445	-0.241496
C54	C	0.805721	0.831445	0.258504
C55	C	0.379342	0.333542	-0.238524
C56	C	0.879342	0.833542	0.261476
C57	C	0.414385	0.302498	-0.282208
C58	C	0.914385	0.802498	0.217792
N59	N	0.520931	0.276930	-0.318162
N60	N	1.020931	0.776930	0.181838
N61	N	0.489636	0.304649	-0.279169
N62	N	0.989636	0.804649	0.220831
C63	C	1.004797	0.426608	-0.298632
C64	C	1.504797	0.926608	0.201368
C65	C	1.004804	0.484723	-0.298639
C66	C	1.504804	0.984723	0.201361
C67	C	1.051875	0.845091	-0.251819
C68	C	1.551875	1.345091	0.248181
C69	C	1.051896	0.899696	-0.251825
C70	C	1.551896	1.399696	0.248175
O71	O	1.091824	0.927934	-0.211998
O72	O	1.591824	1.427934	0.288002
N73	N	1.004984	0.927012	-0.298679
N74	N	1.504984	1.427012	0.201321
C75	C	0.958053	0.899720	-0.345536
C76	C	1.458053	1.399720	0.154464
O77	O	0.918153	0.927968	-0.385391
O78	O	1.418153	1.427968	0.114609
C79	C	0.958035	0.845116	-0.345533
C80	C	1.458035	1.345116	0.154467
C81	C	1.004945	0.817803	-0.298671
C82	C	1.504945	1.317803	0.201329
C83	C	1.098781	0.817777	-0.204960
C84	C	1.598781	1.317777	0.295040
C85	C	1.098759	0.763176	-0.204954
C86	C	1.598759	1.263176	0.295046
C87	C	1.051830	0.735888	-0.251805
C88	C	1.551830	1.235888	0.248195
C89	C	1.004923	0.763201	-0.298664
C90	C	1.504923	1.263201	0.201336
C91	C	0.911108	0.817825	-0.392393
C92	C	1.411108	1.317825	0.107607
C93	C	0.911095	0.763217	-0.392386
C94	C	1.411095	1.263217	0.107614
C95	C	0.958005	0.735904	-0.345524
C96	C	1.458005	1.235904	0.154476
C97	C	0.957972	0.681312	-0.345509
C98	C	1.457972	1.181312	0.154491
N99	N	1.004883	0.653996	-0.298654
N100	N	1.504883	1.153996	0.201346
C101	C	1.051813	0.681284	-0.251802
C102	C	1.551813	1.181284	0.248198
C103	C	0.958094	1.014392	-0.345540
C104	C	1.458094	1.514392	0.154460
C105	C	0.958107	1.068994	-0.345540
C106	C	1.458107	1.568994	0.154460
C107	C	1.051951	1.068967	-0.251829
C108	C	1.551951	1.568967	0.248171
C109	C	1.051934	1.014363	-0.251826
C110	C	1.551934	1.514363	0.248174
C111	C	1.005005	0.987076	-0.298685
C112	C	1.505005	1.487076	0.201315
C113	C	1.051762	0.566617	-0.251792
C114	C	1.551762	1.066617	0.248208
C115	C	1.051733	0.512011	-0.251787
C116	C	1.551733	1.012011	0.248213
C117	C	0.957892	0.512043	-0.345501
C118	C	1.457892	1.012043	0.154499
C119	C	0.957917	0.566645	-0.345503
C120	C	1.457917	1.066645	0.154497
C121	C	1.004858	0.593930	-0.298646
C122	C	1.504858	1.093930	0.201354
O123	O	0.918066	0.653039	-0.385317
O124	O	1.418066	1.153039	0.114683
O125	O	1.091712	0.653029	-0.211961
O126	O	1.591712	1.153029	0.288039
C127	C	1.188793	0.296046	-0.291294
C128	C	1.688793	0.796046	0.208706
C129	C	1.267145	0.298294	-0.288152
C130	C	1.767145	0.798294	0.211848
C131	C	1.005052	1.154402	-0.298703
C132	C	1.505052	1.654402	0.201297
C133	C	1.005039	1.096287	-0.298691
C134	C	1.505039	1.596287	0.201309
C135	C	0.997573	0.296005	-0.482535
C136	C	1.497573	0.796005	0.017465
C137	C	0.994438	0.298236	-0.560890
C138	C	1.494438	0.798236	-0.060890
C139	C	1.038082	0.267144	-0.595906
C140	C	1.538082	0.767144	-0.095906
C141	C	1.035128	0.269237	-0.669528
C142	C	1.535128	0.769237	-0.169528
C143	C	0.988534	0.302427	-0.708133
C144	C	1.488534	0.802427	-0.208133
C145	C	0.944886	0.333520	-0.673112
C146	C	1.444886	0.833520	-0.173112
C147	C	0.947837	0.331423	-0.599491
C148	C	1.447837	0.831423	-0.099491
C149	C	0.974868	0.312142	-0.928509
C150	C	1.474868	0.812142	-0.428509
C151	C	0.971923	0.314238	-1.002135
C152	C	1.471923	0.814238	-0.502135
C153	C	1.062164	0.249954	-0.998547
C154	C	1.562164	0.749954	-0.498547
C155	C	1.065114	0.247862	-0.924924
C156	C	1.565114	0.747862	-0.424924
C157	C	1.021463	0.278954	-0.889909
C158	C	1.521463	0.778954	-0.389909
N159	N	0.985516	0.304569	-0.783387
N160	N	1.485516	0.804569	-0.283387
N161	N	1.024478	0.276808	-0.814657
N162	N	1.524478	0.776808	-0.314657
C163	C	1.012295	0.285519	-0.115510
C164	C	1.512295	0.785519	0.384490
C165	C	1.015566	0.283145	-0.037151
C166	C	1.515566	0.783145	0.462849
H167	H	0.599818	0.221044	-0.396790
H168	H	1.099818	0.721044	0.103210
H169	H	1.090166	1.091195	-0.213682
H170	H	1.590166	1.591195	0.286318
H171	H	1.090132	0.992128	-0.213667
H172	H	1.590132	1.492128	0.286333
N173	N	0.907280	0.482609	-0.396038
N174	N	1.407280	0.982609	0.103962
H175	H	0.857363	0.490395	-0.387076
H176	H	1.357363	0.990395	0.112924
H177	H	0.914449	0.443884	-0.388900
H178	H	1.414449	0.943884	0.111100
N179	N	0.894627	0.369321	-0.714736
N180	N	1.394627	0.869321	-0.214736
H181	H	0.844785	0.359387	-0.703939
H182	H	1.344785	0.859387	-0.203939
H183	H	0.899435	0.365922	-0.766676
H184	H	1.399435	0.865922	-0.266676
N185	N	0.596961	0.345710	-0.221358
N186	N	1.096961	0.845710	0.278642
H187	H	0.632570	0.367025	-0.191349
H188	H	1.132570	0.867025	0.308651
H189	H	0.567727	0.322588	-0.190025
H190	H	1.067727	0.822588	0.309975
H191	H	0.733384	0.224853	-0.391394
H192	H	1.233384	0.724853	0.108606
N193	N	1.115356	0.212046	-0.883306
N194	N	1.615356	0.712046	-0.383306
H195	H	1.087948	0.186126	-0.853926
H196	H	1.587948	0.686126	-0.353926
H197	H	1.149225	0.233382	-0.851478
H198	H	1.649225	0.733382	-0.351478
H199	H	1.097701	0.224640	-1.027064
H200	H	1.597701	0.724640	-0.527064
N201	N	1.088345	0.231350	-0.554274
N202	N	1.588345	0.731350	-0.054274
H203	H	1.122213	0.252669	-0.522420
H204	H	1.622213	0.752669	-0.022420
H205	H	1.115494	0.211981	-0.587682
H206	H	1.615494	0.711981	-0.087682
H207	H	0.872881	0.741003	-0.430547
H208	H	1.372881	1.241003	0.069453
N209	N	0.420939	0.369296	-0.188201
N210	N	0.920939	0.869296	0.311799
H211	H	0.407663	0.406608	-0.199574
H212	H	0.907663	0.906608	0.300426
H213	H	0.472882	0.365875	-0.192962
H214	H	0.972882	0.865875	0.307038
H215	H	0.919722	0.588884	-0.383664
H216	H	1.419722	1.088884	0.116336
N217	N	0.267926	0.364926	-0.194380
N218	N	0.767926	0.864926	0.305620
H219	H	0.215435	0.358566	-0.203341
H220	H	0.715435	0.858566	0.296659
H221	H	0.280329	0.402956	-0.204739
H222	H	0.780329	0.902956	0.295261
N223	N	1.149367	0.733723	-0.154418
N224	N	1.649367	1.233723	0.345582
H225	H	1.142242	0.694990	-0.161518
H226	H	1.642242	1.194990	0.338482
H227	H	1.140458	0.741545	-0.104502
H228	H	1.640458	1.241545	0.395498
H229	H	1.070669	0.243920	-0.698035
H230	H	1.570669	0.743920	-0.198035
H231	H	0.919902	1.091228	-0.383694
H232	H	1.419902	1.591228	0.116306
H233	H	0.872906	0.840054	-0.430551
H234	H	1.372906	1.340054	0.069449
N235	N	0.260580	0.231496	-0.382151
N236	N	0.760580	0.731496	0.117849
H237	H	0.293949	0.212150	-0.409376
H238	H	0.793949	0.712150	0.090624
H239	H	0.228721	0.252875	-0.415949
H240	H	0.728721	0.752875	0.084051
H241	H	0.933978	0.341266	-1.033565
H242	H	1.433978	0.841266	-0.533565
H243	H	1.089933	0.489774	-0.213623
H244	H	1.589933	0.989774	0.286377
N245	N	0.413605	0.235868	-0.375975
N246	N	0.913605	0.735868	0.124025
H247	H	0.377994	0.214549	-0.405976
H248	H	0.877994	0.714549	0.094024
H249	H	0.445310	0.211696	-0.346108
H250	H	0.945310	0.711696	0.153892
N251	N	0.927767	0.345657	-0.890749
N252	N	1.427767	0.845657	-0.390749
H253	H	0.897798	0.366995	-0.926378
H254	H	1.397798	0.866995	-0.426378
H255	H	0.957632	0.369811	-0.859031
H256	H	1.457632	0.869811	-0.359031
H257	H	0.912290	0.356737	-0.570982
H258	H	1.412290	0.856737	-0.070982
H259	H	0.739784	0.341317	-0.227500
H260	H	1.239784	0.841317	0.272500
N261	N	1.102383	0.596046	-0.201254
N262	N	1.602383	1.096046	0.298746
H263	H	1.152298	0.588254	-0.210219
H264	H	1.652298	1.088254	0.289781
H265	H	1.093421	0.584804	-0.151337
H266	H	1.593421	1.084804	0.348663
N267	N	1.149403	0.847204	-0.154424
N268	N	1.649403	1.347204	0.345576
H269	H	1.179110	0.821608	-0.124744
H270	H	1.679110	1.321608	0.375256
H271	H	1.122049	0.868137	-0.122925
H272	H	1.622049	1.368137	0.377075
H273	H	0.919873	0.992177	-0.383696
H274	H	1.419873	1.492177	0.116304
