data_functionalizedCrystal
_audit_creation_method	'MofGen! by Chris Wilmer'
_symmetry_space_group_name_H-M	'P1'
_symmetry_Int_Tables_number	1
_symmetry_cell_setting	triclinic
loop_
_symmetry_equiv_pos_as_xyz
  x,y,z
_cell_length_a	6.817900
_cell_length_b	12.530001
_cell_length_c	9.464804
_cell_angle_alpha	139.059259
_cell_angle_beta	89.999408
_cell_angle_gamma	90.000251
loop_
_atom_site_label
_atom_site_type_symbol
_atom_site_fract_x
_atom_site_fract_y
_atom_site_fract_z
V1	V	3.814303	-0.477632	-0.663537
O2	O	3.873003	-0.317480	-0.652455
O3	O	3.702699	-0.619649	-0.657510
O4	O	3.702703	-0.619661	-0.953609
O5	O	3.872999	-0.317468	-0.354307
V6	V	4.314310	-0.440826	-0.626732
O7	O	4.039402	-0.558369	-0.744273
O8	O	4.539409	-0.360089	-0.545996
O9	O	4.202708	-0.298809	-0.632759
O10	O	4.373008	-0.600978	-0.637814
O11	O	4.373012	-0.600990	-0.935963
O12	O	4.202704	-0.298797	-0.336661
C13	C	3.534382	-0.649609	-0.646668
C14	C	3.523802	-0.768874	-0.643622
C15	C	3.534388	-0.649611	-1.024358
C16	C	3.523813	-0.768874	-1.265940
V17	V	3.743891	-0.977656	-0.663569
O18	O	3.685198	-0.817505	-0.354339
O19	O	3.855488	-1.119672	-0.953640
O20	O	3.855499	-1.119687	-0.657568
O21	O	3.685187	-0.817490	-0.652460
V22	V	3.243883	-0.940847	-0.626744
O23	O	3.518792	-1.058391	-0.744303
O24	O	3.018785	-0.860109	-0.545996
O25	O	3.355493	-0.798832	-0.336681
O26	O	3.185179	-1.100997	-0.935971
O27	O	3.185190	-1.101012	-0.637850
O28	O	3.355481	-0.798817	-0.632752
C29	C	4.034393	-0.268859	-0.643607
C30	C	4.023818	-0.149623	-0.646704
C31	C	4.034362	-0.268839	-0.265899
C32	C	4.023789	-0.149573	-0.024317
