data_functionalizedCrystal
_audit_creation_method	'MofGen! by Chris Wilmer'
_symmetry_space_group_name_H-M	'P1'
_symmetry_Int_Tables_number	1
_symmetry_cell_setting	triclinic
loop_
_symmetry_equiv_pos_as_xyz
  x,y,z
_cell_length_a	17.000371
_cell_length_b	15.500215
_cell_length_c	13.339070
_cell_angle_alpha	87.729797
_cell_angle_beta	84.385729
_cell_angle_gamma	93.371385
loop_
_atom_site_label
_atom_site_type_symbol
_atom_site_fract_x
_atom_site_fract_y
_atom_site_fract_z
O1	O	1.068143	0.071947	-0.039576
O2	O	0.844363	0.071948	-0.075584
O3	O	0.930570	0.071945	0.087399
O4	O	0.981936	0.071950	-0.202559
O5	O	0.922268	-0.071944	0.095054
O6	O	0.836060	-0.071942	-0.067929
O7	O	1.059841	-0.071942	-0.031921
Cu8	Cu	0.947193	-0.085080	-0.049226
Cu9	Cu	0.957011	0.085086	-0.058279
O10	O	0.973634	-0.071939	-0.194904
C11	C	0.810985	0.000003	-0.073691
C12	C	0.723896	0.000003	-0.079442
C13	C	0.672326	-0.000000	0.009061
C14	C	0.590498	0.000006	0.003651
C15	C	0.560242	0.000010	-0.090263
C16	C	0.611819	0.000015	-0.178772
C17	C	0.693646	0.000015	-0.173362
C18	C	0.313712	0.000016	-0.111163
C19	C	0.231879	0.000013	-0.116567
C20	C	0.210563	0.000006	0.065857
C21	C	0.292391	0.000001	0.071260
C22	C	0.343962	0.000011	-0.017250
C23	C	0.476601	0.000013	-0.095795
C24	C	0.427602	0.000013	-0.011717
N25	N	0.940292	-0.204766	-0.042857
C26	C	0.998321	-0.250038	-0.096449
C27	C	0.993111	-0.340611	-0.091625
C28	C	0.929869	-0.385910	-0.033215
C29	C	0.871838	-0.340632	0.020382
C30	C	0.877051	-0.250060	0.015564
C31	C	0.911098	-0.659379	-0.015860
C32	C	0.905888	-0.749957	-0.011048
C33	C	1.027162	-0.749929	-0.123054
C34	C	1.032367	-0.659356	-0.127873
C35	C	0.974338	-0.614085	-0.074271
C36	C	0.924541	-0.478491	-0.028286
C37	C	0.979670	-0.521507	-0.079195
C38	C	1.093219	0.000005	-0.033814
C39	C	1.180308	0.000010	-0.028064
C40	C	0.917742	0.000001	0.128144
C41	C	0.891880	0.000005	0.238145
N42	N	0.963916	0.204771	-0.064639
C43	C	0.986462	0.000006	-0.235649
C44	C	1.012325	0.000008	-0.345650
C45	C	1.092977	0.000004	0.620826
C46	C	1.117278	-0.000004	0.517476
C47	C	1.060931	-0.000001	0.447638
C48	C	0.980277	0.000009	0.481161
C49	C	0.955973	0.000010	0.584522
C50	C	0.923927	0.000005	0.411334
C51	C	0.843274	0.000015	0.444857
C52	C	0.818973	0.000017	0.548208
C53	C	0.875321	0.000014	0.618045
C54	C	0.948231	0.000003	0.307973
C55	C	0.811227	0.000009	0.271669
C56	C	0.786926	0.000017	0.375019
H57	H	0.735635	0.000014	-0.245430
H58	H	0.696953	-0.000006	0.085536
Br59	Br	0.677471	0.000036	0.420527
H60	H	0.452240	0.000016	0.064747
Br61	Br	1.118170	-0.597884	-0.207200
Br62	Br	1.169438	-0.000020	0.715607
H63	H	0.765344	0.000007	0.214806
H64	H	0.207248	0.000012	-0.193046
H65	H	1.080722	-0.000008	0.363486
Br66	Br	0.842349	0.000142	0.758308
Br67	Br	1.105912	-0.811372	-0.195796
H68	H	1.040365	-0.377467	-0.135263
Br69	Br	0.709514	0.000014	0.593703
H70	H	0.317019	-0.000006	0.147735
Br71	Br	0.520513	0.000033	0.123766
H72	H	0.168566	0.000007	0.137917
Br73	Br	0.786011	-0.402109	0.099659
H74	H	1.182946	-0.000013	0.490189
Br75	Br	0.383690	0.000031	-0.231284
Br76	Br	1.057685	-0.000013	0.262490
Br77	Br	1.084151	-0.188568	-0.175727
Br78	Br	0.570760	0.000032	-0.306229
H79	H	0.829798	-0.213201	0.059204
H80	H	1.031163	-0.484620	-0.126748
Br81	Br	0.832320	-0.597952	0.056842
Br82	Br	0.820053	-0.811435	0.068227
H83	H	0.873049	-0.515384	0.019271
H84	H	0.451957	0.000015	-0.172259
