data_functionalizedCrystal
_audit_creation_method	'MofGen! by Chris Wilmer'
_symmetry_space_group_name_H-M	'P1'
_symmetry_Int_Tables_number	1
_symmetry_cell_setting	triclinic
loop_
_symmetry_equiv_pos_as_xyz
  x,y,z
_cell_length_a	12.759401
_cell_length_b	25.639240
_cell_length_c	25.639233
_cell_angle_alpha	90.013728
_cell_angle_beta	90.010331
_cell_angle_gamma	90.032485
loop_
_atom_site_label
_atom_site_type_symbol
_atom_site_fract_x
_atom_site_fract_y
_atom_site_fract_z
Zn1	Zn	1.606043	-0.208208	0.295595
Zn2	Zn	1.939376	0.125125	0.628929
Zn3	Zn	2.272709	0.458458	0.962262
Zn4	Zn	1.605909	-0.295627	0.208167
Zn5	Zn	1.939243	0.037706	0.541501
Zn6	Zn	2.272576	0.371039	0.874834
Zn7	Zn	1.430370	-0.208208	0.208178
Zn8	Zn	1.763703	0.125125	0.541511
Zn9	Zn	2.097037	0.458458	0.874844
Zn10	Zn	1.430280	-0.295615	0.295575
Zn11	Zn	1.763613	0.037718	0.628909
Zn12	Zn	2.096947	0.371051	0.962242
O13	O	1.518150	-0.251915	0.251879
O14	O	1.851484	0.081419	0.585212
O15	O	2.184817	0.414752	0.918546
O16	O	1.753046	-0.219810	0.284002
O17	O	2.086379	0.113524	0.617335
O18	O	2.419713	0.446857	0.950669
O19	O	1.582605	-0.284036	0.135004
O20	O	1.915939	0.049297	0.468337
O21	O	2.249272	0.382631	0.801670
O22	O	1.453767	-0.135043	0.219786
O23	O	1.787100	0.198290	0.553120
O24	O	2.120434	0.531624	0.886453
O25	O	1.752948	-0.284036	0.219769
O26	O	2.086281	0.049297	0.553102
O27	O	2.419615	0.382631	0.886436
O28	O	1.582833	-0.135043	0.284012
O29	O	1.916166	0.198290	0.617345
O30	O	2.249499	0.531623	0.950679
O31	O	1.453638	-0.219810	0.135011
O32	O	1.786971	0.113524	0.468344
O33	O	2.120304	0.446857	0.801678
O34	O	1.283337	-0.219798	0.219767
O35	O	1.616670	0.113535	0.553100
O36	O	1.950004	0.446869	0.886434
O37	O	1.453614	-0.284016	0.368743
O38	O	1.786947	0.049318	0.702077
O39	O	2.120280	0.382651	1.035410
O40	O	1.283271	-0.284016	0.283978
O41	O	1.616604	0.049318	0.617311
O42	O	1.949938	0.382651	0.950644
O43	O	1.582746	-0.219798	0.368758
O44	O	1.916079	0.113535	0.702091
O45	O	2.249412	0.446868	1.035425
O46	O	1.582518	-0.368791	0.219750
O47	O	1.915851	-0.035458	0.553083
O48	O	2.249185	0.297876	0.886416
O49	O	1.453484	-0.368782	0.283968
O50	O	1.786817	-0.035449	0.617301
O51	O	2.120151	0.297885	0.950635
C52	C	1.245183	-0.251906	0.251872
C53	C	1.578516	0.081428	0.585205
C54	C	1.911850	0.414761	0.918538
C55	C	1.128406	-0.251915	0.251881
C56	C	1.461740	0.081419	0.585214
C57	C	1.795073	0.414752	0.918547
C58	C	1.073596	-0.218532	0.285378
C59	C	1.406930	0.114801	0.618712
C60	C	1.740263	0.448134	0.952045
C61	C	0.963872	-0.218538	0.285382
C62	C	1.297205	0.114796	0.618715
C63	C	1.630539	0.448129	0.952049
C64	C	0.963778	-0.285312	0.218389
C65	C	1.297112	0.048021	0.551722
C66	C	1.630445	0.381355	0.885055
C67	C	1.073500	-0.285303	0.218383
C68	C	1.406834	0.048030	0.551716
C69	C	1.740167	0.381363	0.885050
C70	C	1.518005	-0.387757	0.251867
C71	C	1.851339	-0.054424	0.585200
C72	C	2.184672	0.278909	0.918534
C73	C	1.518039	-0.445871	0.251879
C74	C	1.851373	-0.112538	0.585213
C75	C	2.184706	0.220795	0.918546
C76	C	1.585349	-0.697014	0.285355
C77	C	1.918682	-0.363680	0.618689
C78	C	2.252016	-0.030347	0.952022
C79	C	1.585318	-0.642409	0.285351
C80	C	1.918651	-0.309076	0.618685
C81	C	2.251984	0.024257	0.952018
O82	O	1.642426	-0.614129	0.313797
O83	O	1.975759	-0.280796	0.647130
O84	O	2.309092	0.052537	0.980463
N85	N	1.518154	-0.615145	0.251886
N86	N	1.851488	-0.281812	0.585219
N87	N	2.184821	0.051521	0.918552
C88	C	1.451026	-0.642488	0.218418
C89	C	1.784359	-0.309155	0.551751
C90	C	2.117693	0.024178	0.885085
O91	O	1.393896	-0.614284	0.189952
O92	O	1.727230	-0.280951	0.523286
O93	O	2.060563	0.052382	0.856619
C94	C	1.451064	-0.697092	0.218420
C95	C	1.784397	-0.363758	0.551753
C96	C	2.117730	-0.030425	0.885087
C97	C	1.518224	-0.724353	0.251891
C98	C	1.851557	-0.391020	0.585225
C99	C	2.184890	-0.057686	0.918558
C100	C	1.652504	-0.724275	0.318824
C101	C	1.985838	-0.390942	0.652157
C102	C	2.319171	-0.057608	0.985490
C103	C	1.652534	-0.778875	0.318828
C104	C	1.985868	-0.445542	0.652162
C105	C	2.319201	-0.112209	0.985495
C106	C	1.585409	-0.806215	0.285364
C107	C	1.918742	-0.472881	0.618698
C108	C	2.252076	-0.139548	0.952031
C109	C	1.518254	-0.778953	0.251896
C110	C	1.851587	-0.445620	0.585229
C111	C	2.184920	-0.112287	0.918563
C112	C	1.383941	-0.724434	0.184950
C113	C	1.717275	-0.391100	0.518283
C114	C	2.050608	-0.057767	0.851617
C115	C	1.383985	-0.779041	0.184954
C116	C	1.717319	-0.445707	0.518288
C117	C	2.050652	-0.112374	0.851621
C118	C	1.451145	-0.806302	0.218426
C119	C	1.784479	-0.472969	0.551759
C120	C	2.117812	-0.139635	0.885093
C121	C	1.451158	-0.860893	0.218437
C122	C	1.784491	-0.527560	0.551770
C123	C	2.117825	-0.194227	0.885103
N124	N	1.518321	-0.888157	0.251902
N125	N	1.851654	-0.554824	0.585235
N126	N	2.184988	-0.221491	0.918569
C127	C	1.585447	-0.860818	0.285366
C128	C	1.918780	-0.527485	0.618699
C129	C	2.252113	-0.194151	0.952033
C130	C	1.450953	-0.527818	0.218416
C131	C	1.784287	-0.194484	0.551750
C132	C	2.117620	0.138849	0.885083
C133	C	1.450910	-0.473215	0.218417
C134	C	1.784243	-0.139882	0.551750
C135	C	2.117576	0.193451	0.885084
C136	C	1.585203	-0.473140	0.285350
C137	C	1.918536	-0.139807	0.618683
C138	C	2.251869	0.193526	0.952016
C139	C	1.585240	-0.527744	0.285351
C140	C	1.918574	-0.194410	0.618685
C141	C	2.251907	0.138923	0.952018
C142	C	1.518116	-0.555082	0.251882
C143	C	1.851450	-0.221748	0.585215
C144	C	2.184783	0.111585	0.918549
C145	C	1.585504	-0.975483	0.285373
C146	C	1.918837	-0.642150	0.618707
C147	C	2.252170	-0.308816	0.952040
C148	C	1.585525	-1.030088	0.285376
C149	C	1.918858	-0.696755	0.618710
C150	C	2.252191	-0.363422	0.952043
C151	C	1.451236	-1.030159	0.218442
C152	C	1.784569	-0.696826	0.551775
C153	C	2.117902	-0.363492	0.885109
C154	C	1.451210	-0.975558	0.218441
C155	C	1.784544	-0.642225	0.551774
C156	C	2.117877	-0.308892	0.885107
C157	C	1.518353	-0.948222	0.251908
C158	C	1.851686	-0.614888	0.585241
C159	C	2.185020	-0.281555	0.918575
O160	O	1.394082	-0.889208	0.190004
O161	O	1.727415	-0.555875	0.523338
O162	O	2.060749	-0.222541	0.856671
O163	O	1.642576	-0.889029	0.313822
O164	O	1.975910	-0.555696	0.647156
O165	O	2.309243	-0.222362	0.980489
C166	C	1.792184	-0.251924	0.251887
C167	C	2.125517	0.081409	0.585220
C168	C	2.458850	0.414742	0.918553
C169	C	1.908960	-0.251928	0.251890
C170	C	2.242294	0.081405	0.585223
C171	C	2.575627	0.414738	0.918557
C172	C	1.518184	-0.251906	0.388252
C173	C	1.851518	0.081428	0.721585
C174	C	2.184851	0.414761	1.054919
C175	C	1.518199	-0.251902	0.446366
C176	C	1.851532	0.081432	0.779699
C177	C	2.184866	0.414765	1.113033
C178	C	1.518325	-0.115542	0.251902
C179	C	1.851658	0.217792	0.585236
C180	C	2.184991	0.551125	0.918569
C181	C	1.518399	-0.057428	0.251912
C182	C	1.851732	0.275906	0.585246
C183	C	2.185066	0.609239	0.918579
C184	C	1.518177	-0.251886	0.116036
C185	C	1.851511	0.081447	0.449370
C186	C	2.184844	0.414780	0.782703
C187	C	1.518366	-0.251743	0.057923
C188	C	1.851700	0.081590	0.391256
C189	C	2.185033	0.414924	0.724589
C190	C	1.585523	-0.218364	0.806743
C191	C	1.918856	0.114969	1.140076
C192	C	2.252190	0.448302	1.473409
C193	C	1.585536	-0.218350	0.861347
C194	C	1.918869	0.114983	1.194680
C195	C	2.252203	0.448317	1.528014
O196	O	1.642693	-0.189897	0.889595
O197	O	1.976026	0.143436	1.222928
O198	O	2.309359	0.476770	1.556262
N199	N	1.518315	-0.251779	0.888649
N200	N	1.851648	0.081554	1.221982
N201	N	2.184981	0.414887	1.555315
C202	C	1.451068	-0.285221	0.861343
C203	C	1.784402	0.048112	1.194677
C204	C	2.117735	0.381445	1.528010
O205	O	1.393892	-0.313654	0.889580
O206	O	1.727225	0.019680	1.222913
O207	O	2.060558	0.353013	1.556246
C208	C	1.451051	-0.285233	0.806740
C209	C	1.784384	0.048101	1.140073
C210	C	2.117717	0.381434	1.473407
C211	C	1.518284	-0.251805	0.779441
C212	C	1.851618	0.081528	1.112774
C213	C	2.184951	0.414862	1.446108
C214	C	1.652750	-0.184939	0.779443
C215	C	1.986084	0.148394	1.112777
C216	C	2.319417	0.481728	1.446110
C217	C	1.652738	-0.184954	0.724843
C218	C	1.986072	0.148379	1.058176
C219	C	2.319405	0.481712	1.391510
C220	C	1.585499	-0.218395	0.697541
C221	C	1.918833	0.114938	1.030875
C222	C	2.252166	0.448272	1.364208
C223	C	1.518272	-0.251820	0.724840
C224	C	1.851606	0.081513	1.058174
C225	C	2.184939	0.414846	1.391507
C226	C	1.383800	-0.318672	0.779436
C227	C	1.717133	0.014661	1.112769
C228	C	2.050467	0.347995	1.446102
C229	C	1.383788	-0.318680	0.724829
C230	C	1.717121	0.014653	1.058162
C231	C	2.050454	0.347987	1.391495
C232	C	1.451021	-0.285252	0.697530
C233	C	1.784354	0.048081	1.030863
C234	C	2.117688	0.381414	1.364196
C235	C	1.451022	-0.285276	0.642938
C236	C	1.784355	0.048057	0.976272
C237	C	2.117688	0.381390	1.309605
N238	N	1.518243	-0.251847	0.615637
N239	N	1.851576	0.081486	0.948970
N240	N	2.184910	0.414820	1.282303
C241	C	1.585482	-0.218406	0.642938
C242	C	1.918815	0.114927	0.976271
C243	C	2.252149	0.448260	1.309605
C244	C	1.451109	-0.285194	0.976014
C245	C	1.784442	0.048139	1.309347
C246	C	2.117776	0.381473	1.642681
C247	C	1.451131	-0.285186	1.030616
C248	C	1.784464	0.048148	1.363950
C249	C	2.117797	0.381481	1.697283
C250	C	1.585598	-0.218313	1.030616
C251	C	1.918931	0.115020	1.363949
C252	C	2.252264	0.448353	1.697283
C253	C	1.585580	-0.218325	0.976013
C254	C	1.918913	0.115008	1.309346
C255	C	2.252247	0.448342	1.642679
C256	C	1.518330	-0.251765	0.948712
C257	C	1.851664	0.081568	1.282046
C258	C	2.184997	0.414902	1.615379
C259	C	1.585453	-0.218441	0.528273
C260	C	1.918786	0.114892	0.861606
C261	C	2.252119	0.448225	1.194940
C262	C	1.585438	-0.218461	0.473668
C263	C	1.918771	0.114872	0.807001
C264	C	2.252104	0.448206	1.140334
C265	C	1.450968	-0.285331	0.473673
C266	C	1.784301	0.048002	0.807006
C267	C	2.117634	0.381336	1.140339
C268	C	1.450986	-0.285314	0.528273
C269	C	1.784319	0.048020	0.861607
C270	C	2.117653	0.381353	1.194940
C271	C	1.518232	-0.251864	0.555572
C272	C	1.851565	0.081469	0.888905
C273	C	2.184898	0.414802	1.222239
O274	O	1.393891	-0.313713	0.614656
O275	O	1.727224	0.019620	0.947989
O276	O	2.060558	0.352953	1.281322
O277	O	1.642639	-0.189974	0.614695
O278	O	1.975972	0.143360	0.948028
O279	O	2.309306	0.476693	1.281362
H280	H	1.640213	-1.052282	0.312636
H281	H	1.973546	-0.718949	0.645969
H282	H	2.306879	-0.385615	0.979303
H283	H	1.329051	-0.345892	0.801653
H284	H	1.662384	-0.012559	1.134987
H285	H	1.995718	0.320774	1.468320
C286	C	1.133990	-0.181802	0.322220
C287	C	1.467323	0.151531	0.655554
C288	C	1.800656	0.484864	0.988887
H289	H	1.085628	-0.161919	0.342167
H290	H	1.418961	0.171415	0.675500
H291	H	1.752294	0.504748	1.008834
H292	H	1.176790	-0.201832	0.344965
H293	H	1.510123	0.131502	0.678298
H294	H	1.843456	0.464835	1.011632
H295	H	1.176798	-0.158986	0.302253
H296	H	1.510131	0.174347	0.635587
H297	H	1.843464	0.507680	0.968920
C298	C	0.903378	-0.322041	0.181549
C299	C	1.236712	0.011292	0.514882
C300	C	1.570045	0.344625	0.848215
H301	H	0.830181	-0.317270	0.186353
H302	H	1.163515	0.016063	0.519686
H303	H	1.496848	0.349397	0.853020
H304	H	0.921344	-0.314337	0.146431
H305	H	1.254677	0.018996	0.479765
H306	H	1.588010	0.352329	0.813098
H307	H	0.921338	-0.357182	0.189143
H308	H	1.254672	-0.023849	0.522477
H309	H	1.588005	0.309484	0.855810
H310	H	1.396394	-0.312412	1.052839
H311	H	1.729727	0.020922	1.386172
H312	H	2.063061	0.354255	1.719505
H313	H	1.396210	-0.451023	0.191167
H314	H	1.729544	-0.117690	0.524501
H315	H	2.062877	0.215644	0.857834
C316	C	1.133801	-0.322025	0.181535
C317	C	1.467134	0.011309	0.514868
C318	C	1.800468	0.344642	0.848201
H319	H	1.207010	-0.317233	0.186326
H320	H	1.540344	0.016100	0.519659
H321	H	1.873677	0.349434	0.852992
H322	H	1.115798	-0.357168	0.189124
H323	H	1.449132	-0.023835	0.522457
H324	H	1.782465	0.309499	0.855791
H325	H	1.115806	-0.314317	0.146418
H326	H	1.449140	0.019016	0.479751
H327	H	1.782473	0.352349	0.813084
C328	C	1.659126	-0.557726	0.322165
C329	C	1.992459	-0.224393	0.655498
C330	C	2.325792	0.108941	0.988831
H331	H	1.699099	-0.533619	0.342090
H332	H	2.032432	-0.200285	0.675423
H333	H	2.365765	0.133048	1.008757
H334	H	1.618929	-0.579042	0.344930
H335	H	1.952262	-0.245708	0.678264
H336	H	2.285596	0.087625	1.011597
H337	H	1.704953	-0.579008	0.302180
H338	H	2.038286	-0.245675	0.635514
H339	H	2.371619	0.087659	0.968847
H340	H	0.919250	-0.191354	0.312658
H341	H	1.252584	0.141979	0.645992
H342	H	1.585917	0.475313	0.979325
H343	H	1.640179	-0.953232	0.312625
H344	H	1.973512	-0.619898	0.645958
H345	H	2.306845	-0.286565	0.979292
H346	H	1.707231	-0.801067	0.346080
H347	H	2.040564	-0.467733	0.679414
H348	H	2.373898	-0.134400	1.012747
H349	H	1.396283	-0.550073	0.191163
H350	H	1.729616	-0.216740	0.524497
H351	H	2.062950	0.116593	0.857830
C352	C	1.659563	-0.181530	1.060655
C353	C	1.992896	0.151803	1.393988
C354	C	2.326229	0.485136	1.727321
H355	H	1.649934	-0.186311	1.097084
H356	H	1.983267	0.147022	1.430417
H357	H	2.316600	0.480355	1.763750
H358	H	1.730141	-0.189187	1.051709
H359	H	2.063474	0.144146	1.385042
H360	H	2.396808	0.477480	1.718376
H361	H	1.644228	-0.146399	1.051710
H362	H	1.977562	0.186935	1.385043
H363	H	2.310895	0.520268	1.718377
C364	C	1.310141	-0.809110	0.148140
C365	C	1.643474	-0.475777	0.481473
C366	C	1.976808	-0.142443	0.814807
H367	H	1.270137	-0.785050	0.128211
H368	H	1.603470	-0.451717	0.461544
H369	H	1.936803	-0.118384	0.794878
H370	H	1.350369	-0.830402	0.125378
H371	H	1.683703	-0.497069	0.458711
H372	H	2.017036	-0.163735	0.792044
H373	H	1.264341	-0.830422	0.168125
H374	H	1.597675	-0.497088	0.501459
H375	H	1.931008	-0.163755	0.834792
H376	H	1.707171	-0.702020	0.346074
H377	H	2.040504	-0.368687	0.679407
H378	H	2.373838	-0.035353	1.012741
H379	H	1.329254	-0.702245	0.157694
H380	H	1.662588	-0.368912	0.491028
H381	H	1.995921	-0.035579	0.824361
C382	C	1.659049	-0.443060	0.322156
C383	C	1.992382	-0.109727	0.655489
C384	C	2.325716	0.223607	0.988822
H385	H	1.649411	-0.406637	0.317354
H386	H	1.982744	-0.073303	0.650687
H387	H	2.316078	0.260030	0.984021
H388	H	1.643640	-0.452001	0.357281
H389	H	1.976974	-0.118668	0.690614
H390	H	2.310307	0.214666	1.023947
H391	H	1.729659	-0.451979	0.314529
H392	H	2.062992	-0.118645	0.647862
H393	H	2.396326	0.214688	0.981195
H394	H	1.640207	-0.191202	0.550493
H395	H	1.973540	0.142131	0.883827
H396	H	2.306874	0.475465	1.217160
H397	H	1.396345	-0.312428	0.953789
H398	H	1.729678	0.020906	1.287123
H399	H	2.063012	0.354239	1.620456
C400	C	1.377327	-0.945570	0.181628
C401	C	1.710660	-0.612237	0.514961
C402	C	2.043994	-0.278903	0.848295
H403	H	1.337356	-0.969675	0.161699
H404	H	1.670689	-0.636341	0.495032
H405	H	2.004023	-0.303008	0.828365
H406	H	1.331514	-0.924280	0.201606
H407	H	1.664847	-0.590946	0.534939
H408	H	1.998181	-0.257613	0.868272
H409	H	1.417542	-0.924263	0.158858
H410	H	1.750875	-0.590929	0.492192
H411	H	2.084209	-0.257596	0.825525
H412	H	1.396581	-1.052428	0.191198
H413	H	1.729915	-0.719095	0.524531
H414	H	2.063248	-0.385762	0.857865
H415	H	1.640191	-0.191240	0.451443
H416	H	1.973524	0.142094	0.784776
H417	H	2.306858	0.475427	1.118110
H418	H	1.707485	-0.157733	0.702621
H419	H	2.040818	0.175600	1.035954
H420	H	2.374151	0.508934	1.369288
H421	H	1.707504	-0.157705	0.801667
H422	H	2.040838	0.175629	1.135000
H423	H	2.374171	0.508962	1.468333
C424	C	1.659524	-0.181549	0.945989
C425	C	1.992858	0.151784	1.279322
C426	C	2.326191	0.485117	1.612655
H427	H	1.699563	-0.161631	0.970074
H428	H	2.032897	0.171702	1.303407
H429	H	2.366230	0.505036	1.636740
H430	H	1.705272	-0.201550	0.924685
H431	H	2.038605	0.131783	1.258018
H432	H	2.371939	0.465116	1.591352
H433	H	1.619348	-0.158768	0.924692
H434	H	1.952681	0.174566	1.258025
H435	H	2.286015	0.507899	1.591359
H436	H	1.329012	-0.345906	0.702603
H437	H	1.662346	-0.012573	1.035937
H438	H	1.995679	0.320761	1.369270
H439	H	1.396249	-0.312538	0.550501
H440	H	1.729582	0.020795	0.883835
H441	H	2.062916	0.354129	1.217168
C442	C	1.377005	-0.322110	0.443634
C443	C	1.710339	0.011223	0.776967
C444	C	2.043672	0.344556	1.110301
H445	H	1.386624	-0.317324	0.407205
H446	H	1.719957	0.016009	0.740539
H447	H	2.053291	0.349343	1.073872
H448	H	1.392325	-0.357241	0.452579
H449	H	1.725658	-0.023907	0.785912
H450	H	2.058991	0.309426	1.119246
H451	H	1.306424	-0.314446	0.452580
H452	H	1.639758	0.018887	0.785913
H453	H	1.973091	0.352221	1.119246
