data_functionalizedCrystal
_audit_creation_method	'MofGen! by Chris Wilmer'
_symmetry_space_group_name_H-M	'P1'
_symmetry_Int_Tables_number	1
_symmetry_cell_setting	triclinic
loop_
_symmetry_equiv_pos_as_xyz
  x,y,z
_cell_length_a	14.560432
_cell_length_b	18.878441
_cell_length_c	14.560432
_cell_angle_alpha	59.992798
_cell_angle_beta	90.001356
_cell_angle_gamma	60.003561
loop_
_atom_site_label
_atom_site_type_symbol
_atom_site_fract_x
_atom_site_fract_y
_atom_site_fract_z
Zr1	Zr	0.884748	0.775422	-0.120665
O2	O	0.738099	0.923210	-0.267340
O3	O	0.929703	0.627634	-0.075683
O4	O	0.929699	0.775425	-0.267314
O5	O	0.738107	0.775415	0.075433
O6	O	1.080836	0.775428	-0.267314
O7	O	0.738103	0.775418	-0.075709
O8	O	1.080845	0.511056	0.075479
O9	O	0.738099	1.039787	-0.267360
O10	O	1.061669	0.688423	-0.056521
O11	O	0.948880	0.688419	0.056275
O12	O	0.948874	0.862424	-0.169346
O13	O	0.836085	0.862420	-0.056551
Zr14	Zr	1.125801	0.775422	0.120388
Zr15	Zr	1.125795	0.775426	-0.120665
Zr16	Zr	0.884754	0.775417	0.120389
Zr17	Zr	0.884748	0.961350	-0.120697
Zr18	Zr	1.125801	0.589494	0.120421
O19	O	1.080846	0.923210	0.075406
O20	O	1.080837	0.923216	-0.267340
O21	O	0.738108	0.923203	0.075407
O22	O	1.272450	0.627634	0.267063
O23	O	1.272441	0.627641	-0.075684
O24	O	0.929712	0.627627	0.267064
O25	O	1.272442	0.775428	-0.075710
O26	O	1.080850	0.775418	0.267038
O27	O	0.929713	0.775415	0.267038
O28	O	1.272446	0.775425	0.075432
O29	O	0.929700	1.039791	-0.267361
O30	O	1.080850	0.511052	0.267084
O31	O	1.272450	0.511056	0.267084
O32	O	1.272445	0.511060	0.075478
O33	O	0.738104	1.039783	-0.075755
O34	O	0.929704	1.039787	-0.075755
O35	O	1.061675	0.688419	0.169070
O36	O	1.174464	0.688423	0.056274
O37	O	1.061669	0.862424	-0.056551
O38	O	0.948880	0.862420	0.056244
C39	C	1.005274	0.542854	-0.000097
C40	C	1.005274	0.463923	-0.000084
C41	C	0.922005	0.491087	-0.083371
C42	C	0.922009	0.416937	-0.083397
C43	C	1.005277	0.315623	-0.000131
C44	C	1.088553	0.288459	0.083161
C45	C	1.088554	0.362608	0.083182
C46	C	1.088545	0.133911	0.083114
C47	C	1.088544	0.059756	0.083094
C48	C	0.922000	0.188240	-0.083466
C49	C	0.922000	0.262389	-0.083445
C50	C	1.005276	0.235220	-0.000152
C51	C	0.703761	0.775416	-0.000138
C52	C	0.601431	0.775414	-0.000138
C53	C	0.719172	0.593754	0.117643
C54	C	0.729966	0.502928	0.176527
C55	C	0.633814	0.502932	0.176524
C56	C	0.526859	0.593773	0.117633
C57	C	0.516065	0.684599	0.058748
C58	C	0.612226	0.684585	0.058755
C59	C	0.398325	0.866256	-0.059024
C60	C	0.494476	0.866254	-0.059029
C61	C	0.291370	0.957097	-0.117915
C62	C	0.280574	1.047925	-0.176807
C63	C	0.376735	1.047917	-0.176803
C64	C	0.483682	0.957080	-0.117913
C65	C	1.306788	0.775428	-0.000139
C66	C	1.409118	0.775430	-0.000139
C67	C	1.005267	0.775428	-0.301659
C68	C	1.005264	0.775430	-0.403993
C69	C	1.005275	1.007989	-0.000179
C70	C	1.005275	1.086920	-0.000193
C71	C	0.887494	0.957089	-0.521801
C72	C	0.828608	1.047915	-0.628778
C73	C	0.828611	1.047911	-0.724925
C74	C	0.887510	0.957071	-0.714091
C75	C	0.946396	0.866244	-0.607114
C76	C	0.946383	0.866258	-0.510971
C77	C	1.064171	0.684587	-0.489307
C78	C	1.064163	0.684589	-0.393158
C79	C	1.123069	0.593747	-0.478473
C80	C	1.181950	0.502918	-0.371494
C81	C	1.181943	0.502926	-0.275344
C82	C	1.123049	0.593763	-0.286181
C83	C	1.005282	0.775416	0.301383
C84	C	1.005285	0.775414	0.403716
C85	C	1.306787	0.542860	-0.000098
C86	C	1.409118	0.463931	-0.000084
C87	C	1.005282	0.542848	0.301424
C88	C	1.005284	0.463915	0.403771
C89	C	1.306795	0.542854	0.301423
C90	C	1.409128	0.463923	0.403770
C91	C	0.703754	1.007989	-0.301700
C92	C	0.601421	1.086920	-0.404047
C93	C	0.703762	1.007983	-0.000179
C94	C	0.601431	1.086912	-0.000192
C95	C	1.005267	1.007995	-0.301700
C96	C	1.005265	1.086928	-0.404048
C97	C	1.398295	0.426865	-0.058966
C98	C	1.494437	0.352713	-0.058975
C99	C	1.601399	0.315623	-0.000096
C100	C	1.612219	0.352696	0.058787
C101	C	1.516079	0.426852	0.058789
C102	C	1.064163	0.426847	0.510722
C103	C	1.064161	0.352691	0.606898
C104	C	1.005286	0.315599	0.596119
C105	C	0.946400	0.352675	0.489157
C106	C	0.946396	0.426834	0.392984
C107	C	1.516070	0.426858	0.392955
C108	C	1.612232	0.352704	0.489112
C109	C	1.601450	0.315611	0.596083
C110	C	1.494497	0.352683	0.606895
C111	C	1.398337	0.426841	0.510739
C112	C	0.494479	1.123994	-0.393232
C113	C	0.398317	1.198171	-0.489389
C114	C	0.409099	1.235268	-0.596359
C115	C	0.516052	1.198191	-0.607172
C116	C	0.612212	1.124021	-0.511016
C117	C	0.612254	1.123986	0.058679
C118	C	0.516112	1.198159	0.058662
C119	C	0.409150	1.235251	-0.000220
C120	C	0.398330	1.198174	-0.059099
C121	C	0.494470	1.124008	-0.059088
C122	C	1.064152	1.123997	-0.393233
C123	C	1.064171	1.198153	-0.489390
C124	C	1.005297	1.235245	-0.596360
C125	C	0.946409	1.198170	-0.607173
C126	C	0.946396	1.124009	-0.511017
H127	H	0.854198	0.210360	-0.151290
C128	C	0.589460	0.957063	-0.117902
N129	N	0.669137	0.957046	-0.117886
H130	H	0.699339	1.093791	0.106636
C131	C	1.128949	1.238927	-0.477471
N132	N	1.177739	1.269637	-0.468491
H133	H	0.311228	1.228386	-0.107039
C134	C	1.123038	0.593780	-0.180425
N135	N	1.123033	0.593798	-0.100771
H136	H	0.817058	0.428968	0.224478
H137	H	1.005316	1.295631	-0.674648
C138	C	0.303309	1.316850	-0.702123
N139	N	0.223623	1.378294	-0.781781
H140	H	1.156358	0.111781	0.150939
C141	C	0.482546	1.083224	-0.123841
N142	N	0.473557	1.052507	-0.172614
C143	C	0.527894	1.239000	-0.724850
N144	N	0.536809	1.269733	-0.813489
H145	H	1.485605	0.322537	-0.106925
H146	H	0.311241	1.228346	-0.480563
H147	H	1.112094	1.093808	-0.306141
C148	C	1.280645	0.467655	-0.123749
N149	N	1.192033	0.498379	-0.172555
C150	C	0.303403	1.316832	-0.000215
N151	N	0.223758	1.378276	-0.000203
C152	C	1.707146	0.234042	-0.000102
N153	N	1.786791	0.172592	-0.000105
C154	C	1.180149	0.177010	0.174755
N155	N	1.249139	0.093065	0.243749
H156	H	0.887472	0.957101	-0.443519
H157	H	0.898475	1.228381	-0.694281
H158	H	1.112107	0.457039	0.519520
C159	C	1.180135	-0.051691	0.174699
N160	N	1.249120	-0.135634	0.243700
C161	C	0.881595	1.083256	-0.522932
N162	N	0.832780	1.052567	-0.531915
H163	H	1.485734	0.322471	0.694003
C164	C	1.729889	0.311879	0.123559
N165	N	1.818521	0.281128	0.172352
H166	H	0.854187	0.573579	-0.151165
C167	C	0.421092	0.593772	0.117643
N168	N	0.341426	0.593772	0.117649
H169	H	0.524944	1.228334	0.106613
H170	H	0.797471	0.593742	0.117642
C171	C	0.830388	0.446826	-0.175002
N172	N	0.761369	0.469342	-0.243996
H173	H	0.854195	0.344883	-0.151247
C174	C	0.645688	0.403019	0.241299
N175	N	0.654632	0.327765	0.290085
H176	H	1.156359	0.340484	0.151003
H177	H	1.524907	0.457022	0.106744
H178	H	1.112117	0.322513	0.693982
C179	C	1.707240	0.234028	0.701847
N180	N	1.786926	0.172575	0.781504
C181	C	1.246730	0.403005	-0.359589
N182	N	1.295520	0.327749	-0.350626
H183	H	1.311264	0.457009	0.519561
C184	C	0.763832	1.147835	-0.640686
N185	N	0.715046	1.223095	-0.649657
H186	H	0.887518	0.957075	-0.792384
H187	H	1.005298	0.255214	0.674439
H188	H	0.898465	0.322463	0.480397
H189	H	0.898453	0.457005	0.305903
H190	H	1.524870	0.457049	0.305863
H191	H	0.213081	0.957094	-0.117907
H192	H	0.193489	1.121880	-0.224746
H193	H	0.367934	1.121879	-0.224739
H194	H	0.780665	1.121870	-0.812031
C195	C	1.123065	0.593745	-0.584239
N196	N	1.123057	0.593741	-0.663902
C197	C	1.729869	0.311930	0.477193
N198	N	1.818471	0.281218	0.468212
H199	H	1.229899	0.428964	-0.188241
H200	H	0.485679	1.093794	-0.306140
H201	H	0.699286	1.093836	-0.519835
