data_functionalizedCrystal
_audit_creation_method	'MofGen! by Chris Wilmer'
_symmetry_space_group_name_H-M	'P1'
_symmetry_Int_Tables_number	1
_symmetry_cell_setting	triclinic
loop_
_symmetry_equiv_pos_as_xyz
  x,y,z
_cell_length_a	13.032831
_cell_length_b	16.625546
_cell_length_c	13.033109
_cell_angle_alpha	97.150917
_cell_angle_beta	76.665514
_cell_angle_gamma	82.826778
loop_
_atom_site_label
_atom_site_type_symbol
_atom_site_fract_x
_atom_site_fract_y
_atom_site_fract_z
Zn1	Zn	1.700046	-0.566824	-0.806356
Zn2	Zn	1.677364	-0.682041	-0.628728
Zn3	Zn	1.499875	-0.527607	-0.606253
Zn4	Zn	1.522379	-0.681970	-0.783772
O5	O	1.599916	-0.614611	-0.706277
O6	O	1.845671	-0.598550	-0.801651
O7	O	1.634909	-0.645173	-0.477117
O8	O	1.526502	-0.419988	-0.632842
O9	O	1.829007	-0.683200	-0.671148
O10	O	1.673567	-0.448801	-0.779857
O11	O	1.504509	-0.531710	-0.460604
O12	O	1.354226	-0.531641	-0.610944
O13	O	1.564858	-0.683079	-0.935398
O14	O	1.370760	-0.645052	-0.741366
O15	O	1.695389	-0.598481	-0.951990
O16	O	1.656731	-0.794853	-0.649250
O17	O	1.542864	-0.794801	-0.763160
C18	C	1.323954	-0.584084	-0.671266
C19	C	1.205899	-0.571046	-0.656313
C20	C	1.161462	-0.621415	-0.714081
C21	C	1.039447	-0.607942	-0.698628
C22	C	1.599810	-0.824086	-0.706220
C23	C	1.599866	-0.913714	-0.706243
C24	C	1.600066	-1.241923	-0.706378
C25	C	1.600007	-1.150605	-0.706343
C26	C	1.599965	-1.077821	-0.706310
C27	C	1.599908	-0.986498	-0.706276
C28	C	1.876956	-0.645257	-0.741426
C29	C	1.995014	-0.658317	-0.756404
C30	C	1.635164	-0.645147	-0.983310
C31	C	1.650184	-0.658159	-1.101365
C32	C	1.600055	-0.404324	-0.706362
C33	C	1.600114	-0.314712	-0.706398
C34	C	1.592361	-0.607822	-1.145827
C35	C	1.607884	-0.621270	-1.267843
C36	C	1.564867	-0.584142	-0.430330
C37	C	1.550052	-0.570925	-0.312302
H38	H	1.153612	-0.517946	-0.595421
N39	N	0.973852	-0.541323	-0.622240
N40	N	0.874828	-0.530470	-0.609800
H41	H	0.828499	-0.483421	-0.555853
N42	N	1.060588	-0.724946	-0.832790
N43	N	1.047334	-0.797189	-0.824009
H44	H	1.093645	-0.844247	-0.877955
H45	H	1.668883	-0.674326	-1.320105
N46	N	1.515834	-0.541276	-1.080254
N47	N	1.503329	-0.530449	-0.981229
H48	H	1.449279	-0.483450	-0.934918
H49	H	1.489049	-0.517871	-1.260041
N50	N	1.726709	-0.724704	-1.166941
N51	N	1.802227	-0.710596	-1.237458
H52	H	1.856276	-0.757594	-1.283773
N53	N	1.227063	-0.688017	-0.790485
N54	N	1.326089	-0.698864	-0.802934
H55	H	1.372420	-0.745902	-0.856898
