data_functionalizedCrystal
_audit_creation_method	'MofGen! by Chris Wilmer'
_symmetry_space_group_name_H-M	'P1'
_symmetry_Int_Tables_number	1
_symmetry_cell_setting	triclinic
loop_
_symmetry_equiv_pos_as_xyz
  x,y,z
_cell_length_a	12.827892
_cell_length_b	19.077241
_cell_length_c	19.077271
_cell_angle_alpha	89.928553
_cell_angle_beta	87.676887
_cell_angle_gamma	87.692554
loop_
_atom_site_label
_atom_site_type_symbol
_atom_site_fract_x
_atom_site_fract_y
_atom_site_fract_z
Zn1	Zn	-0.326791	-1.058328	-0.440589
Zn2	Zn	-0.508282	-1.062986	-0.323089
Zn3	Zn	-0.340825	-0.945544	-0.318365
Zn4	Zn	-0.508767	-0.940807	-0.435827
O5	O	-0.421166	-1.001916	-0.379467
O6	O	-0.344789	-1.157279	-0.428973
O7	O	-0.491738	-1.051340	-0.224130
O8	O	-0.192724	-0.960539	-0.334595
O9	O	-0.478130	-1.160701	-0.342646
O10	O	-0.182413	-1.043401	-0.424392
O11	O	-0.368708	-0.965055	-0.220659
O12	O	-0.369179	-0.846583	-0.329976
O13	O	-0.478958	-0.952464	-0.534791
O14	O	-0.492566	-0.843102	-0.416275
O15	O	-0.345260	-1.038807	-0.538290
O16	O	-0.654585	-1.046746	-0.338027
O17	O	-0.654942	-0.956981	-0.420855
C18	C	-0.432449	-0.819346	-0.372097
C19	C	-0.437300	-0.741241	-0.368960
C20	C	-0.370258	-0.702763	-0.412501
C21	C	-0.374812	-0.629375	-0.409548
C22	C	-0.446413	-0.594466	-0.363057
C23	C	-0.513458	-0.632949	-0.319511
C24	C	-0.508899	-0.706336	-0.322461
C25	C	-0.467477	-0.375175	-0.349403
C26	C	-0.472034	-0.301783	-0.346458
C27	C	-0.333386	-0.298214	-0.436494
C28	C	-0.328837	-0.371602	-0.439443
C29	C	-0.395878	-0.410079	-0.395895
N30	N	-0.451071	-0.519452	-0.360039
N31	N	-0.391214	-0.485092	-0.398910
C32	C	-0.692679	-1.001873	-0.379453
C33	C	-0.808829	-1.001918	-0.379473
C34	C	-0.860396	-1.046385	-0.338537
C35	C	-0.980443	-1.046432	-0.338557
C36	C	-0.148590	-1.001979	-0.379498
C37	C	-0.032435	-1.002005	-0.379511
C38	C	-0.410598	-0.994587	-0.562750
C39	C	-0.406094	-0.991464	-0.640854
C40	C	-0.409834	-0.185200	-0.386862
C41	C	-0.404992	-0.263305	-0.389999
C42	C	-0.373876	-0.969063	-1.080303
C43	C	-0.378103	-0.972001	-1.006916
C44	C	-0.444278	-1.018390	-0.972029
C45	C	-0.506221	-1.061848	-1.010533
C46	C	-0.501987	-1.058913	-1.083918
C47	C	-0.463803	-1.031988	-0.752743
C48	C	-0.468035	-1.034918	-0.679352
C49	C	-0.339915	-0.945071	-0.675741
C50	C	-0.335692	-0.942137	-0.749128
C51	C	-0.397631	-0.985598	-0.787625
N52	N	-0.448603	-1.021392	-0.897016
N53	N	-0.393300	-0.982599	-0.862637
C54	C	-0.431616	-1.009257	-0.196900
C55	C	-0.435816	-1.012517	-0.118802
H56	H	-0.530345	-0.273363	-0.308599
H57	H	-0.853553	-0.963885	-0.414538
C58	C	-0.301082	-0.918034	-1.118677
C59	C	-0.315118	-0.838552	-1.105358
C60	C	-0.242320	-0.787523	-1.143729
C61	C	-0.155486	-0.815976	-1.195419
C62	C	-0.141447	-0.895462	-1.208740
C63	C	-0.214245	-0.946491	-1.170369
H64	H	-0.379401	-0.817486	-1.067092
H65	H	-0.252713	-0.728683	-1.133867
H66	H	-0.101597	-0.778202	-1.223823
H67	H	-0.077164	-0.916528	-1.247006
H68	H	-0.203852	-1.005332	-1.180231
H69	H	-1.024791	-1.084500	-0.303507
C70	C	-0.799985	-1.097773	-0.291170
C71	C	-0.730056	-1.069501	-0.234782
C72	C	-0.669646	-1.120891	-0.187416
C73	C	-0.679165	-1.200553	-0.196437
C74	C	-0.749096	-1.228828	-0.252827
C75	C	-0.809506	-1.177438	-0.300194
H76	H	-0.723008	-1.010527	-0.228102
H77	H	-0.617878	-1.099959	-0.145672
H78	H	-0.634446	-1.238595	-0.161373
H79	H	-0.756145	-1.287802	-0.259507
H80	H	-0.861274	-1.198370	-0.341938
C81	C	-0.972541	-0.950569	-0.426862
C82	C	-0.902741	-0.896663	-0.394087
C83	C	-0.842838	-0.845227	-0.441438
C84	C	-0.852734	-0.847697	-0.521566
C85	C	-0.922536	-0.901606	-0.554346
C86	C	-0.982440	-0.953042	-0.506994
H87	H	-0.895413	-0.894832	-0.334768
H88	H	-0.791165	-0.805320	-0.417172
H89	H	-0.808390	-0.809622	-0.556618
H90	H	-0.929865	-0.903437	-0.613665
H91	H	-1.034112	-0.992948	-0.531261
C92	C	-0.291494	-0.741160	-0.463642
C93	C	-0.296221	-0.727888	-0.543110
C94	C	-0.217452	-0.766283	-0.594250
C95	C	-0.133956	-0.817951	-0.565922
C96	C	-0.129226	-0.831225	-0.486451
C97	C	-0.207995	-0.792830	-0.435310
H98	H	-0.358033	-0.689638	-0.564083
H99	H	-0.220954	-0.756456	-0.653081
H100	H	-0.075647	-0.846373	-0.603779
H101	H	-0.067415	-0.869475	-0.465477
H102	H	-0.204493	-0.802657	-0.376480
C103	C	-0.582647	-0.748665	-0.274567
C104	C	-0.579166	-0.741754	-0.194288
C105	C	-0.652912	-0.784083	-0.146389
C106	C	-0.730139	-0.833323	-0.178769
C107	C	-0.733623	-0.840236	-0.259052
C108	C	-0.659877	-0.797908	-0.306951
H109	H	-0.521996	-0.705301	-0.170315
H110	H	-0.650333	-0.778964	-0.086958
H111	H	-0.784731	-0.864657	-0.143312
H112	H	-0.790794	-0.876689	-0.283025
H113	H	-0.662456	-0.803026	-0.366382
H114	H	-0.552424	-1.094299	-1.115263
H115	H	-0.327666	-0.936616	-0.975574
H116	H	-0.521902	-1.072709	-0.650950
H117	H	-0.281811	-0.904360	-0.777528
H118	H	-0.289487	-0.909688	-0.644389
H119	H	-0.571752	-0.604521	-0.281654
C120	C	-0.531920	-1.079816	-0.795069
C121	C	-0.651658	-1.074482	-0.784735
C122	C	-0.719770	-1.122326	-0.827058
C123	C	-0.668143	-1.175502	-0.879716
C124	C	-0.548398	-1.180838	-0.890053
C125	C	-0.480287	-1.132995	-0.847729
H126	H	-0.689881	-1.035116	-0.745753
H127	H	-0.808413	-1.118375	-0.819406
H128	H	-0.718563	-1.210919	-0.911046
H129	H	-0.510175	-1.220205	-0.929035
H130	H	-0.391644	-1.136945	-0.855382
C131	C	-0.259634	-0.255887	-0.484386
C132	C	-0.304989	-0.203234	-0.537475
C133	C	-0.231230	-0.160907	-0.585366
C134	C	-0.112115	-0.171234	-0.580169
C135	C	-0.066754	-0.223889	-0.527078
C136	C	-0.140513	-0.266216	-0.479187
H137	H	-0.393170	-0.195588	-0.541324
H138	H	-0.264810	-0.121928	-0.624667
H139	H	-0.057514	-0.139901	-0.615620
H140	H	0.021428	-0.231535	-0.523228
H141	H	-0.106933	-0.305195	-0.439885
H142	H	-0.560096	-1.099622	-0.982121
H143	H	-0.522068	-0.406494	-0.313944
C144	C	-0.301067	-0.587056	-0.457453
C145	C	-0.304566	-0.593975	-0.537730
C146	C	-0.230817	-0.551660	-0.585640
C147	C	-0.153568	-0.502427	-0.553273
C148	C	-0.150065	-0.495506	-0.472991
C149	C	-0.223815	-0.537821	-0.425081
H150	H	-0.361753	-0.630422	-0.561694
H151	H	-0.233410	-0.556783	-0.645070
H152	H	-0.098974	-0.471103	-0.588739
H153	H	-0.092879	-0.459059	-0.449027
H154	H	-0.221222	-0.532698	-0.365652
H155	H	-0.270535	-0.400019	-0.477304
