data_functionalizedCrystal
_audit_creation_method	'MofGen! by Chris Wilmer'
_symmetry_space_group_name_H-M	'P1'
_symmetry_Int_Tables_number	1
_symmetry_cell_setting	triclinic
loop_
_symmetry_equiv_pos_as_xyz
  x,y,z
_cell_length_a	11.169417
_cell_length_b	12.827892
_cell_length_c	11.169409
_cell_angle_alpha	89.969812
_cell_angle_beta	90.019824
_cell_angle_gamma	89.981791
loop_
_atom_site_label
_atom_site_type_symbol
_atom_site_fract_x
_atom_site_fract_y
_atom_site_fract_z
Zn1	Zn	1.834904	0.415924	0.678561
Zn2	Zn	1.834769	0.590711	0.477885
Zn3	Zn	1.634190	0.415988	0.477895
Zn4	Zn	1.634173	0.590626	0.678530
O5	O	1.734509	0.503312	0.578218
O6	O	2.002836	0.439119	0.651949
O7	O	1.808112	0.567596	0.309937
O8	O	1.660879	0.269743	0.504531
O9	O	2.002737	0.567534	0.504514
O10	O	1.808343	0.269696	0.651959
O11	O	1.660748	0.439227	0.309944
O12	O	1.466238	0.439145	0.504501
O13	O	1.660850	0.567389	0.846484
O14	O	1.466226	0.567451	0.651907
O15	O	1.808326	0.439036	0.846506
O16	O	1.808096	0.736936	0.504484
O17	O	1.660719	0.736874	0.651897
C18	C	1.422684	0.503296	0.578202
C19	C	1.289284	0.503315	0.578224
C20	C	1.734423	0.774822	0.578212
C21	C	1.734497	0.890975	0.578250
C22	C	1.807508	0.942756	0.505389
C23	C	1.807585	1.062807	0.505427
C24	C	2.047551	0.503329	0.578234
C25	C	2.180951	0.503336	0.578241
C26	C	1.734601	0.503196	0.891260
C27	C	1.734640	0.503147	1.024660
C28	C	1.734618	1.230742	0.578264
C29	C	1.734639	1.114589	0.578321
C30	C	1.734486	0.503352	0.266393
C31	C	1.734679	0.503108	0.132994
H32	H	1.869964	0.898214	0.442987
H33	H	1.870090	1.107337	0.443045
C34	C	1.651485	1.055172	0.661654
C35	C	1.719429	0.992424	0.738571
C36	C	1.642871	0.937677	0.815364
H37	H	1.599208	1.012580	0.615781
H38	H	1.605751	1.103199	0.707464
H39	H	1.765143	0.944403	0.692767
H40	H	1.771703	1.034991	0.784471
H41	H	1.597137	0.985704	0.861173
H42	H	1.590597	0.895090	0.769481
H43	H	1.688960	0.895103	0.867568
H44	H	1.672051	0.935520	0.640661
