data_functionalizedCrystal
_audit_creation_method	'MofGen! by Chris Wilmer'
_symmetry_space_group_name_H-M	'P1'
_symmetry_Int_Tables_number	1
_symmetry_cell_setting	triclinic
loop_
_symmetry_equiv_pos_as_xyz
  x,y,z
_cell_length_a	10.686220
_cell_length_b	19.076919
_cell_length_c	19.076919
_cell_angle_alpha	89.876430
_cell_angle_beta	83.535312
_cell_angle_gamma	83.121766
loop_
_atom_site_label
_atom_site_type_symbol
_atom_site_fract_x
_atom_site_fract_y
_atom_site_fract_z
Zn1	Zn	1.891495	0.211580	0.308598
Zn2	Zn	1.892007	0.324351	0.186344
Zn3	Zn	1.688043	0.215931	0.199437
Zn4	Zn	1.670922	0.338870	0.312863
O5	O	1.785617	0.272683	0.251810
O6	O	2.069233	0.218641	0.285117
O7	O	1.872329	0.305714	0.089447
O8	O	1.721982	0.116708	0.217612
O9	O	2.069609	0.301494	0.195297
O10	O	1.871458	0.113511	0.297813
O11	O	1.722478	0.226059	0.099067
O12	O	1.508101	0.240137	0.221748
O13	O	1.692802	0.326240	0.410930
O14	O	1.495523	0.330460	0.305081
O15	O	1.854856	0.232720	0.407797
O16	O	1.855728	0.424923	0.199432
O17	O	1.693298	0.435590	0.292385
C18	C	1.455744	0.287347	0.265298
C19	C	1.314621	0.293638	0.271084
C20	C	1.772744	0.455834	0.244964
C21	C	1.767351	0.534182	0.242054
C22	C	1.842578	0.569269	0.282482
C23	C	1.837506	0.642886	0.279749
C24	C	1.757213	0.681414	0.236584
C25	C	1.681978	0.646322	0.196155
C26	C	1.687044	0.572707	0.198892
C27	C	1.733717	0.901765	0.223920
C28	C	1.728659	0.975385	0.221184
C29	C	1.884186	0.971944	0.304779
C30	C	1.889251	0.898327	0.307510
C31	C	1.814011	0.863242	0.267083
N32	N	1.752030	0.756662	0.233788
N33	N	1.819189	0.787996	0.269884
C34	C	2.116777	0.257963	0.238270
C35	C	2.257898	0.251690	0.232500
C36	C	1.771863	0.280614	0.435653
C37	C	1.766001	0.283994	0.513996
C38	C	1.798521	1.088819	0.258692
C39	C	1.803886	1.010472	0.261612
C40	C	1.799394	0.264729	0.068682
C41	C	1.805515	0.261140	-0.009663
C42	C	1.847616	0.236893	0.549172
C43	C	1.842094	0.240067	0.622784
C44	C	1.754962	0.290345	0.661219
C45	C	1.673338	0.337448	0.626038
C46	C	1.678855	0.334270	0.552428
C47	C	1.729408	0.305066	0.881546
C48	C	1.723900	0.308241	0.955161
C49	C	1.892655	0.210858	0.951902
C50	C	1.898169	0.207688	0.878290
C51	C	1.816541	0.254789	0.843116
N52	N	1.749318	0.293591	0.736462
N53	N	1.822180	0.251538	0.767874
H54	H	1.317299	0.210965	0.195040
O55	O	1.235946	0.347590	0.320711
H56	H	1.133729	0.344231	0.317625
H57	H	1.652942	0.349185	0.986453
O58	O	1.590822	0.385073	0.514489
H59	H	1.609285	0.374412	0.456847
H60	H	1.959110	0.172511	0.980548
H61	H	1.616596	0.677697	0.161012
O62	O	1.929193	0.527714	0.329032
H63	H	1.980645	0.564484	0.356687
O64	O	1.918642	0.680732	0.323355
H65	H	2.020183	0.661612	0.307757
O66	O	1.975896	0.856769	0.354041
H67	H	2.027365	0.893535	0.381690
O68	O	1.605919	0.534856	0.155282
H69	H	1.549245	0.574012	0.124800
O70	O	1.641372	0.355870	0.843617
H71	H	1.659828	0.345212	0.785974
H72	H	1.663268	1.006752	0.186033
O73	O	1.579348	0.391675	0.667488
H74	H	1.589228	0.385976	0.724584
O75	O	1.965316	1.009785	0.348393
H76	H	1.948296	1.067448	0.339247
H77	H	1.672456	0.873204	0.191001
H78	H	1.918573	0.195953	0.517883
H79	H	1.908557	0.201714	0.651420
H80	H	1.969125	0.166748	0.847001
