data_functionalizedCrystal
_audit_creation_method	'MofGen! by Chris Wilmer'
_symmetry_space_group_name_H-M	'P1'
_symmetry_Int_Tables_number	1
_symmetry_cell_setting	triclinic
loop_
_symmetry_equiv_pos_as_xyz
  x,y,z
_cell_length_a	16.974800
_cell_length_b	27.732048
_cell_length_c	15.455313
_cell_angle_alpha	87.362158
_cell_angle_beta	89.026089
_cell_angle_gamma	83.017409
loop_
_atom_site_label
_atom_site_type_symbol
_atom_site_fract_x
_atom_site_fract_y
_atom_site_fract_z
O1	O	1.048325	0.061616	-0.001477
O2	O	0.818802	0.068997	0.014644
O3	O	0.940691	-0.005047	0.006067
O4	O	0.926436	0.135661	0.007101
O5	O	0.933721	-0.000831	-0.137705
O6	O	0.811832	0.073214	-0.129127
O7	O	1.041355	0.065833	-0.145248
Cu8	Cu	0.925957	0.069908	-0.150315
Cu9	Cu	0.934200	0.064922	0.019711
O10	O	0.919466	0.139877	-0.136671
C11	C	0.785962	0.070748	-0.055180
C12	C	0.698494	0.069675	-0.049037
C13	C	0.653606	0.071469	-0.124523
C14	C	0.571422	0.070453	-0.118754
C15	C	0.534126	0.067648	-0.037498
C16	C	0.579020	0.065853	0.037994
C17	C	0.661203	0.066865	0.032223
C18	C	0.288741	0.064371	-0.011837
C19	C	0.206551	0.063361	-0.006073
C20	C	0.198959	0.067961	-0.162822
C21	C	0.281144	0.068975	-0.168584
C22	C	0.326031	0.067178	-0.093093
N23	N	0.450120	0.066611	-0.031599
N24	N	0.410036	0.068211	-0.098993
C25	C	0.936907	-0.020948	-0.065801
C26	C	0.936005	-0.074608	-0.065744
C27	C	1.002363	-0.413030	-0.070360
C28	C	0.999020	-0.614709	-0.070114
O29	O	1.059699	-0.645606	-0.074338
N30	N	0.926744	-0.634263	-0.065038
C31	C	0.855300	-0.603393	-0.060018
O32	O	0.793749	-0.624652	-0.055687
C33	C	0.858644	-0.401714	-0.060259
C34	C	0.930924	-0.382163	-0.065344
C35	C	1.074637	-0.393479	-0.075444
C36	C	1.075472	-0.343061	-0.075510
C37	C	1.004032	-0.312195	-0.070493
C38	C	0.931758	-0.331746	-0.065410
C39	C	0.787200	-0.370845	-0.055233
C40	C	0.788043	-0.320423	-0.055291
C41	C	0.860323	-0.300872	-0.060376
C42	C	0.861154	-0.250463	-0.060460
N43	N	0.933429	-0.230910	-0.065535
C44	C	1.004869	-0.261776	-0.070552
C45	C	0.853549	-0.709277	-0.059894
C46	C	0.852713	-0.759697	-0.059835
C47	C	0.996433	-0.771010	-0.069929
C48	C	0.997269	-0.720589	-0.069994
C49	C	0.925825	-0.689724	-0.064969
C50	C	1.006616	-0.155896	-0.070692
C51	C	1.007445	-0.105474	-0.070761
C52	C	0.863725	-0.094165	-0.060663
C53	C	0.862896	-0.144582	-0.060598
C54	C	0.934348	-0.175447	-0.065610
O55	O	0.800508	-0.219539	-0.056228
O56	O	1.066412	-0.240508	-0.074864
C57	C	1.001528	-0.463447	-0.070294
C58	C	0.929254	-0.482998	-0.065211
C59	C	0.857815	-0.452132	-0.060194
C60	C	0.928418	-0.533417	-0.065152
C61	C	0.999857	-0.564283	-0.070169
C62	C	1.072133	-0.544730	-0.075245
C63	C	1.072967	-0.494313	-0.075311
C64	C	0.785539	-0.471685	-0.055118
C65	C	0.784710	-0.522102	-0.055053
C66	C	0.856150	-0.552969	-0.060070
C67	C	1.074195	0.064082	-0.075422
C68	C	1.161664	0.065155	-0.081559
C69	C	0.923250	0.155777	-0.064802
C70	C	0.924152	0.209437	-0.064852
N71	N	0.920165	0.073416	-0.269903
C72	C	0.971966	0.041970	-0.318943
C73	C	0.967593	0.044627	-0.409443
C74	C	0.911423	0.078732	-0.450902
C75	C	0.859617	0.110178	-0.401856
C76	C	0.863987	0.107519	-0.311357
C77	C	0.892562	0.090198	-0.721156
C78	C	0.888197	0.092856	-0.811662
C79	C	0.996173	0.027304	-0.819242
C80	C	1.000541	0.024649	-0.728742
C81	C	0.948732	0.056094	-0.679703
N82	N	0.906953	0.081449	-0.543408
N83	N	0.953199	0.053374	-0.587199
N84	N	0.939998	0.061411	0.139299
H85	H	0.534879	0.071906	-0.180223
H86	H	1.017709	0.014201	-0.285193
H87	H	0.795367	-0.684150	-0.055802
C88	C	0.694625	0.074556	-0.213909
C89	C	0.759544	0.033952	-0.240109
C90	C	0.800560	0.037037	-0.329498
C91	C	0.776657	0.080727	-0.392687
C92	C	0.711735	0.121334	-0.366488
C93	C	0.670719	0.118248	-0.277099
H94	H	0.777242	0.001607	-0.193332
H95	H	0.848620	0.006977	-0.348891
H96	H	0.807020	0.083011	-0.458858
H97	H	0.694038	0.153678	-0.413265
H98	H	0.622659	0.148309	-0.257706
H99	H	0.548647	0.063565	0.104154
H100	H	0.727363	-0.446558	-0.051031
H101	H	1.131825	-0.478400	-0.079451
C102	C	0.707693	-0.392345	-0.049642
C103	C	0.690970	-0.427634	0.026444
C104	C	0.611458	-0.449134	0.032033
C105	C	0.548669	-0.435345	-0.038465
C106	C	0.565390	-0.400055	-0.114557
C107	C	0.644902	-0.378555	-0.120145
H108	H	0.737451	-0.437842	0.078635
H109	H	0.599080	-0.475258	0.088361
H110	H	0.489810	-0.451261	-0.034328
H111	H	0.518909	-0.389846	-0.166748
H112	H	0.657280	-0.352430	-0.176474
H113	H	0.697750	0.065405	0.093692
H114	H	0.793855	-0.775609	-0.055710
H115	H	0.176187	0.061078	0.060099
C116	C	1.154981	-0.321559	-0.081090
C117	C	1.178938	-0.290639	-0.007860
C118	C	1.258451	-0.269139	-0.013436
C119	C	1.314006	-0.278561	-0.092242
C120	C	1.290050	-0.309483	-0.165478
C121	C	1.210537	-0.330982	-0.159902
H122	H	1.137811	-0.283663	0.050482
H123	H	1.276184	-0.246249	0.040779
H124	H	1.372866	-0.262646	-0.096369
H125	H	1.331177	-0.316458	-0.223820
H126	H	1.192804	-0.353872	-0.214117
C127	C	1.053154	-0.007288	-0.873184
C128	C	1.048353	-0.004368	-0.972729
C129	C	1.105335	-0.038963	-1.026670
C130	C	1.167118	-0.076477	-0.981065
C131	C	1.171922	-0.079399	-0.881514
C132	C	1.114940	-0.044804	-0.827574
H133	H	1.002615	0.023404	-1.006494
H134	H	1.101778	-0.036800	-1.100364
H135	H	1.209300	-0.102087	-1.020995
H136	H	1.217660	-0.107171	-0.847750
H137	H	1.118497	-0.046967	-0.753880
C138	C	0.338104	0.062398	0.071206
C139	C	0.339386	0.018431	0.135982
C140	C	0.388750	0.016458	0.219031
C141	C	0.436831	0.058452	0.237304
C142	C	0.435550	0.102423	0.172527
C143	C	0.386186	0.104396	0.089477
H144	H	0.303792	-0.012659	0.122456
H145	H	0.389698	-0.016093	0.266984
H146	H	0.473373	0.056992	0.298783
H147	H	0.471144	0.133513	0.186052
H148	H	0.385239	0.136946	0.041525
C149	C	0.797828	0.147695	-0.447456
C150	C	0.793054	0.150647	-0.547004
C151	C	0.731265	0.188166	-0.592601
C152	C	0.674250	0.222732	-0.538651
C153	C	0.679022	0.219781	-0.439098
C154	C	0.740811	0.182262	-0.393501
H155	H	0.835262	0.125058	-0.586946
H156	H	0.727733	0.190350	-0.666297
H157	H	0.628510	0.250505	-0.572405
H158	H	0.636814	0.245370	-0.399156
H159	H	0.744343	0.180077	-0.319805
H160	H	1.066306	-0.089559	-0.074904
H161	H	0.842455	0.120630	-0.845413
C162	C	1.153229	-0.427426	-0.080968
C163	C	1.208997	-0.422966	-0.159803
C164	C	1.287595	-0.456909	-0.165335
C165	C	1.310425	-0.495312	-0.092032
C166	C	1.254656	-0.499773	-0.013191
C167	C	1.176058	-0.465830	-0.007659
H168	H	1.192098	-0.394537	-0.214071
H169	H	1.328879	-0.453606	-0.223699
H170	H	1.368608	-0.520438	-0.096128
H171	H	1.271555	-0.528202	0.041077
H172	H	1.134774	-0.469133	0.050705
C173	C	0.709451	-0.286471	-0.049767
C174	C	0.653676	-0.290920	0.029065
C175	C	0.575086	-0.256969	0.034587
C176	C	0.552270	-0.218569	-0.038723
C177	C	0.608046	-0.214118	-0.117561
C178	C	0.686637	-0.248069	-0.123083
H179	H	0.670565	-0.319348	0.083339
H180	H	0.533797	-0.260264	0.092949
H181	H	0.494093	-0.193436	-0.034635
H182	H	0.591158	-0.185690	-0.171835
H183	H	0.727926	-0.244774	-0.181445
H184	H	1.009772	0.019022	-0.449371
H185	H	0.311505	0.071258	-0.234752
H186	H	0.804038	-0.160500	-0.056482
H187	H	0.162403	0.069424	-0.224282
H188	H	1.064800	-0.181021	-0.074770
H189	H	1.130301	-0.569870	-0.079333
C190	C	0.705196	-0.543605	-0.049463
C191	C	0.688478	-0.578890	0.026630
C192	C	0.608968	-0.600392	0.032228
C193	C	0.546176	-0.586608	-0.038268
C194	C	0.562893	-0.551321	-0.114367
C195	C	0.642403	-0.529820	-0.119965
H196	H	0.734962	-0.589095	0.078820
H197	H	0.596594	-0.626514	0.088561
H198	H	0.487318	-0.602525	-0.034125
H199	H	0.516409	-0.541116	-0.166558
H200	H	0.654777	-0.503698	-0.176299
H201	H	1.046279	-0.003121	-0.694988
H202	H	1.056125	-0.704675	-0.074133
C203	C	1.075019	-0.804968	-0.075442
C204	C	1.090591	-0.839007	-0.151440
C205	C	1.169172	-0.872968	-0.156945
C206	C	1.232182	-0.872890	-0.086452
C207	C	1.216612	-0.838850	-0.010449
C208	C	1.138031	-0.804889	-0.004943
H209	H	1.043945	-0.839066	-0.203628
H210	H	1.180698	-0.898166	-0.213208
H211	H	1.290353	-0.898029	-0.090527
H212	H	1.263258	-0.838791	0.041739
H213	H	1.126505	-0.779690	0.051320
C214	C	0.785145	-0.060205	-0.055141
C215	C	0.769593	-0.026171	0.020866
C216	C	0.691015	0.007791	0.026396
C217	C	0.627988	0.007718	-0.044081
C218	C	0.643538	-0.026318	-0.120093
C219	C	0.722117	-0.060279	-0.125623
H220	H	0.816251	-0.026116	0.073041
H221	H	0.679504	0.032986	0.082665
H222	H	0.569819	0.032858	-0.039987
H223	H	0.596881	-0.026373	-0.172268
H224	H	0.733628	-0.085475	-0.181892
H225	H	0.850378	0.115802	-0.681236
H226	H	0.821804	0.133124	-0.271430
