data_functionalizedCrystal
_audit_creation_method	'MofGen! by Chris Wilmer'
_symmetry_space_group_name_H-M	'P1'
_symmetry_Int_Tables_number	1
_symmetry_cell_setting	triclinic
loop_
_symmetry_equiv_pos_as_xyz
  x,y,z
_cell_length_a	6.817900
_cell_length_b	19.453172
_cell_length_c	19.453114
_cell_angle_alpha	96.317064
_cell_angle_beta	101.709288
_cell_angle_gamma	101.710488
loop_
_atom_site_label
_atom_site_type_symbol
_atom_site_fract_x
_atom_site_fract_y
_atom_site_fract_z
V1	V	-3.998005	-0.097914	-0.219330
O2	O	-3.995098	0.003953	-0.214817
O3	O	-3.941032	-0.193423	-0.218154
O4	O	-3.941025	-0.096738	-0.314839
O5	O	-3.995104	-0.093402	-0.117463
V6	V	-4.483855	-0.085691	-0.207106
O7	O	-4.254158	-0.124727	-0.246143
O8	O	-4.677900	-0.058877	-0.180293
O9	O	-4.317622	0.009819	-0.208281
O10	O	-4.604159	-0.187557	-0.211619
O11	O	-4.604153	-0.090203	-0.308973
O12	O	-4.317628	-0.086867	-0.111597
C13	C	-3.784225	-0.216696	-0.214778
C14	C	-3.818872	-0.294778	-0.214454
C15	C	-4.247899	-0.855852	-0.216325
C16	C	-4.215361	-0.782485	-0.216625
C17	C	-4.017282	-0.742102	-0.212598
C18	C	-3.851722	-0.775088	-0.208253
C19	C	-3.884261	-0.848452	-0.207947
N20	N	-3.850595	-0.630535	-0.250130
N21	N	-3.819697	-0.560842	-0.250423
C22	C	-3.919231	-0.521058	-0.213521
N23	N	-4.050866	-0.553601	-0.176325
N24	N	-4.081774	-0.623301	-0.176035
C25	C	-3.981978	-0.662549	-0.212930
C26	C	-4.049499	-0.408526	-0.218186
C27	C	-4.016951	-0.335157	-0.218482
C28	C	-3.653311	-0.327762	-0.210117
C29	C	-3.685861	-0.401129	-0.209815
C30	C	-3.883960	-0.441507	-0.213853
C31	C	-3.784216	-0.093364	-0.338108
C32	C	-3.818856	-0.093034	-0.416189
C33	C	-4.016595	-0.096405	-0.456457
C34	C	-4.049143	-0.096096	-0.529823
C35	C	-3.883948	-0.092429	-0.562920
C36	C	-3.686179	-0.089054	-0.522641
C37	C	-3.653632	-0.089356	-0.449276
N38	N	-3.820875	-0.129523	-0.681834
N39	N	-3.851806	-0.129238	-0.751529
C40	C	-3.981996	-0.091516	-0.783965
N41	N	-4.080122	-0.054100	-0.744076
N42	N	-4.049196	-0.054389	-0.674375
C43	C	-3.919218	-0.092100	-0.642472
C44	C	-4.215040	-0.094551	-0.903785
C45	C	-4.247579	-0.094237	-0.977151
C46	C	-3.884612	-0.087202	-0.969969
C47	C	-3.852075	-0.087509	-0.896603
C48	C	-4.017299	-0.091187	-0.863516
C49	C	-4.137771	0.033088	-0.211656
C50	C	-4.082361	0.111169	-0.211984
C51	C	-4.137780	-0.090243	-0.088324
C52	C	-4.082379	-0.090569	-0.010242
H53	H	-4.210802	-0.441404	-0.221470
H54	H	-3.750103	-0.084211	-0.996914
O55	O	-3.705707	-0.884025	-0.203276
H56	H	-3.688195	-0.909639	-0.154844
O57	O	-3.508140	-0.085356	-0.558378
H58	H	-3.365210	-0.083151	-0.518061
O59	O	-3.439667	-0.284214	-0.205773
H60	H	-3.382353	-0.304159	-0.251798
H61	H	-4.151759	-0.308307	-0.222013
O62	O	-4.194793	-0.100352	-0.420773
H63	H	-4.313108	-0.150098	-0.444237
H64	H	-3.551061	-0.427980	-0.206283
O65	O	-4.262431	-0.099732	-0.573271
H66	H	-4.368223	-0.149604	-0.568577
H67	H	-3.492604	-0.086606	-0.416488
O68	O	-4.393219	-0.098503	-0.868087
H69	H	-4.536188	-0.100781	-0.908416
O70	O	-4.460860	-0.097860	-1.020588
H71	H	-4.570271	-0.100470	-0.985252
O72	O	-3.638796	-0.083874	-0.853163
H73	H	-3.640313	-0.131961	-0.827218
O74	O	-4.461553	-0.899398	-0.220664
H75	H	-4.566123	-0.894720	-0.270817
O76	O	-4.393911	-0.746904	-0.221319
H77	H	-4.537129	-0.787308	-0.224082
H78	H	-3.690442	-0.742202	-0.204974
