data_functionalizedCrystal
_audit_creation_method	'MofGen! by Chris Wilmer'
_symmetry_space_group_name_H-M	'P1'
_symmetry_Int_Tables_number	1
_symmetry_cell_setting	triclinic
loop_
_symmetry_equiv_pos_as_xyz
  x,y,z
_cell_length_a	15.944551
_cell_length_b	14.044220
_cell_length_c	13.101018
_cell_angle_alpha	86.335600
_cell_angle_beta	93.358102
_cell_angle_gamma	88.343808
loop_
_atom_site_label
_atom_site_type_symbol
_atom_site_fract_x
_atom_site_fract_y
_atom_site_fract_z
O1	O	-1.127907	-0.117030	-0.085109
O2	O	-0.627907	0.382970	0.414891
O3	O	-0.884487	-0.132101	-0.085135
O4	O	-0.384487	0.367899	0.414865
O5	O	-1.002543	0.013419	-0.085113
O6	O	-0.502543	0.513419	0.414887
O7	O	-1.009851	-0.262549	-0.085132
O8	O	-0.509851	0.237451	0.414868
O9	O	-0.994063	0.002969	0.085316
O10	O	-0.494063	0.502969	0.585316
O11	O	-0.876007	-0.142551	0.085293
O12	O	-0.376007	0.357449	0.585293
O13	O	-1.119427	-0.127480	0.085319
O14	O	-0.619427	0.372520	0.585319
Zn15	Zn	-0.996370	-0.136674	0.112366
Zn16	Zn	-0.496370	0.363326	0.612366
Zn17	Zn	-1.007544	-0.122906	-0.112182
Zn18	Zn	-0.507544	0.377094	0.387818
O19	O	-1.001371	-0.272999	0.085297
O20	O	-0.501371	0.227001	0.585297
C21	C	-0.848906	-0.136700	0.000076
C22	C	-0.348906	0.363300	0.500076
C23	C	-0.755520	-0.134823	0.000066
C24	C	-0.255520	0.365177	0.500066
C25	C	-0.995104	0.043509	0.000102
C26	C	-0.495104	0.543509	0.500102
C27	C	-0.985563	0.148735	0.000102
C28	C	-0.485563	0.648735	0.500102
C29	C	-1.155008	-0.122881	0.000106
C30	C	-0.655008	0.377119	0.500106
C31	C	-1.248394	-0.124757	0.000109
C32	C	-0.748394	0.375243	0.500109
C33	C	-0.533573	-0.040140	0.000093
C34	C	-0.033573	0.459860	0.500093
C35	C	-0.480026	-0.078956	-0.083941
C36	C	0.019974	0.421044	0.416059
C37	C	-0.584540	-0.131430	0.000079
C38	C	-0.084540	0.368570	0.500079
C39	C	-0.471689	-0.089281	0.084089
C40	C	0.028311	0.410719	0.584089
C41	C	-0.419380	-0.128147	0.000095
C42	C	0.080620	0.371853	0.500095
C43	C	-0.532227	-0.170267	-0.084024
C44	C	-0.032227	0.329733	0.415976
C45	C	-0.523891	-0.180583	0.084081
C46	C	-0.023891	0.319417	0.584081
C47	C	-0.470369	-0.219464	0.000027
C48	C	0.029631	0.280536	0.500027
C49	C	-0.679684	-0.133319	0.000068
C50	C	-0.179684	0.366681	0.500068
C51	C	-0.324238	-0.126264	0.000098
C52	C	0.175762	0.373736	0.500098
C53	C	-1.008810	-0.303089	0.000080
C54	C	-0.508810	0.196911	0.500080
C55	C	-1.018352	-0.408315	0.000073
C56	C	-0.518352	0.091685	0.500073
N57	N	-0.988751	-0.146070	0.265613
N58	N	-0.488751	0.353930	0.765613
C59	C	-0.968120	0.341399	0.000085
C60	C	-0.468120	0.841399	0.500085
C61	C	-1.035791	0.399027	0.000090
C62	C	-0.535791	0.899027	0.500090
C63	C	-1.026085	0.506232	0.000080
C64	C	-0.526085	1.006232	0.500080
C65	C	-0.977824	0.234184	0.000095
C66	C	-0.477824	0.734184	0.500095
N67	N	-1.015169	-0.113503	-0.265429
N68	N	-0.515169	0.386497	0.234571
C69	C	-1.025531	-0.100715	0.525530
C70	C	-0.525531	0.399285	1.025530
C71	C	-0.978392	-0.158854	0.474648
C72	C	-0.478392	0.341146	0.974648
C73	C	-0.984157	-0.151739	0.358330
C74	C	-0.484157	0.348261	0.858330
C75	C	-1.019766	-0.107829	0.641858
C76	C	-0.519766	0.392171	1.141858
H77	H	-0.561238	0.035630	-0.000006
H78	H	-0.061238	0.535630	0.499994
H79	H	-0.460560	-0.035988	-0.154980
H80	H	0.039440	0.464012	0.345020
N81	N	-0.567207	-0.215598	-0.178236
N82	N	-0.067207	0.284402	0.321764
H83	H	-0.630493	-0.216556	-0.177677
H84	H	-0.130493	0.283444	0.322323
H85	H	-0.550847	-0.177464	-0.241572
H86	H	-0.050847	0.322536	0.258428
N87	N	-1.084732	-0.027722	0.467524
N88	N	-0.584732	0.472278	0.967524
H89	H	-1.115394	0.010089	0.517685
H90	H	-0.615394	0.510089	1.017685
H91	H	-1.051589	0.016862	0.423007
H92	H	-0.551589	0.516862	0.923007
N93	N	-0.919200	-0.231868	0.532652
N94	N	-0.419200	0.268132	1.032652
H95	H	-0.859667	-0.219833	0.514052
H96	H	-0.359667	0.280167	1.014052
H97	H	-0.923492	-0.226629	0.608709
H98	H	-0.423492	0.273371	1.108709
N99	N	-0.433962	-0.319916	-0.000035
N100	N	0.066038	0.180084	0.499965
H101	H	-0.456164	-0.350370	-0.063537
H102	H	0.043836	0.149630	0.436463
H103	H	-0.370661	-0.318065	0.000607
H104	H	0.129339	0.181935	0.500607
H105	H	-0.543377	-0.223520	0.155123
H106	H	-0.043377	0.276480	0.655123
H107	H	-1.101018	0.367856	0.000028
H108	H	-0.601018	0.867856	0.500028
N109	N	-0.436564	-0.043890	0.178192
N110	N	0.063436	0.456110	0.678192
H111	H	-0.459663	0.023842	0.178117
H112	H	0.040337	0.523842	0.678117
H113	H	-0.453261	-0.081647	0.241605
H114	H	0.046739	0.418353	0.741605
H115	H	-0.902902	0.372573	0.000076
H116	H	-0.402902	0.872573	0.500076
