data_functionalizedCrystal
_audit_creation_method	'MofGen! by Chris Wilmer'
_symmetry_space_group_name_H-M	'P1'
_symmetry_Int_Tables_number	1
_symmetry_cell_setting	triclinic
loop_
_symmetry_equiv_pos_as_xyz
  x,y,z
_cell_length_a	16.974885
_cell_length_b	19.188930
_cell_length_c	15.455313
_cell_angle_alpha	92.650876
_cell_angle_beta	90.969048
_cell_angle_gamma	83.269424
loop_
_atom_site_label
_atom_site_type_symbol
_atom_site_fract_x
_atom_site_fract_y
_atom_site_fract_z
O1	O	1.048759	0.089022	0.001411
O2	O	1.548759	0.589022	0.501411
O3	O	0.819292	0.099680	-0.014685
O4	O	1.319292	0.599680	0.485315
O5	O	0.940646	-0.007272	-0.006156
O6	O	1.440646	0.492728	0.493844
O7	O	0.927404	0.195975	-0.007119
O8	O	1.427404	0.695975	0.492881
O9	O	0.933707	-0.001182	0.137618
O10	O	1.433707	0.498818	0.637618
O11	O	0.812352	0.105771	0.129089
O12	O	1.312352	0.605771	0.629089
O13	O	1.041819	0.095113	0.145185
O14	O	1.541819	0.595113	0.645185
Cu15	Cu	0.926452	0.100998	0.150265
Cu16	Cu	1.426452	0.600998	0.650265
Cu17	Cu	0.934659	0.093795	-0.019765
Cu18	Cu	1.434659	0.593795	0.480235
O19	O	0.920465	0.202066	0.136656
O20	O	1.420465	0.702066	0.636656
C21	C	0.786464	0.102208	0.055143
C22	C	1.286464	0.602208	0.555143
C23	C	0.698989	0.100657	0.049008
C24	C	1.198989	0.600657	0.549008
C25	C	0.207007	0.091545	0.006001
C26	C	0.707007	0.591545	0.506001
C27	C	0.289199	0.093003	0.011778
C28	C	0.789199	0.593003	0.511778
C29	C	0.326504	0.097057	0.093038
C30	C	0.826504	0.597057	0.593038
C31	C	0.281613	0.099646	0.168527
C32	C	0.781613	0.599646	0.668527
C33	C	0.199423	0.098183	0.162750
C34	C	0.699423	0.598183	0.662750
C35	C	0.571908	0.101784	0.118720
C36	C	1.071908	0.601784	0.618720
C37	C	0.654104	0.103249	0.124491
C38	C	1.154104	0.603249	0.624491
C39	C	0.661685	0.096603	-0.032259
C40	C	1.161685	0.596603	0.467741
C41	C	0.579493	0.095145	-0.038029
C42	C	1.079493	0.595145	0.461971
C43	C	0.534609	0.097731	0.037460
C44	C	1.034609	0.597731	0.537460
N45	N	0.410517	0.098549	0.098944
N46	N	0.910517	0.598549	0.598944
N47	N	0.450599	0.096233	0.031553
N48	N	0.950599	0.596233	0.531553
C49	C	0.936747	-0.030240	0.065704
C50	C	1.436747	0.469760	0.565704
C51	C	0.935460	-0.107750	0.065621
C52	C	1.435460	0.392250	0.565621
C53	C	1.006667	-0.152340	0.070620
C54	C	1.506667	0.347660	0.570620
C55	C	1.005458	-0.225170	0.070521
C56	C	1.505458	0.274830	0.570521
C57	C	0.933037	-0.253406	0.065441
C58	C	1.433037	0.246594	0.565441
C59	C	0.861821	-0.208807	0.060436
C60	C	1.361821	0.291193	0.560436
C61	C	0.863032	-0.135979	0.060526
C62	C	1.363032	0.364021	0.560526
N63	N	0.875318	-0.359598	0.110487
N64	N	1.375318	0.140402	0.610487
N65	N	0.874172	-0.428782	0.110403
N66	N	1.374172	0.071218	0.610403
C67	C	0.929383	-0.472833	0.065167
C68	C	1.429383	0.027167	0.565167
N69	N	0.985795	-0.445087	0.020028
N70	N	1.485795	0.054913	0.520028
N71	N	0.986943	-0.375896	0.020116
N72	N	1.486943	0.124104	0.520116
C73	C	0.931716	-0.332375	0.065342
C74	C	1.431716	0.167625	0.565342
C75	C	0.999285	-0.596394	0.070058
C76	C	1.499285	-0.096394	0.570058
C77	C	0.998073	-0.669225	0.069953
C78	C	1.498073	-0.169225	0.569953
C79	C	0.854433	-0.652860	0.059877
C80	C	1.354433	-0.152860	0.559877
C81	C	0.855647	-0.580031	0.059973
C82	C	1.355647	-0.080031	0.559973
C83	C	0.928075	-0.551802	0.065067
C84	C	1.428075	-0.051802	0.565067
C85	C	1.074646	0.092585	0.075355
C86	C	1.574646	0.592585	0.575355
C87	C	1.162122	0.094136	0.081484
C88	C	1.662122	0.594136	0.581484
C89	C	0.924363	0.225034	0.064794
C90	C	1.424363	0.725034	0.564794
C91	C	0.925651	0.302544	0.064871
C92	C	1.425651	0.802544	0.564871
N93	N	0.920686	0.106064	0.269855
N94	N	1.420686	0.606064	0.769855
N95	N	0.940432	0.088724	-0.139355
N96	N	1.440432	0.588724	0.360645
C97	C	0.972259	0.060644	0.318874
C98	C	1.472259	0.560644	0.818874
C99	C	0.967905	0.064481	0.409376
C100	C	1.467905	0.564481	0.909376
C101	C	0.911981	0.113743	0.450857
C102	C	1.411981	0.613743	0.950857
C103	C	0.860402	0.159166	0.401832
C104	C	1.360402	0.659166	0.901832
C105	C	0.864753	0.155324	0.311331
C106	C	1.364753	0.655324	0.811331
C107	C	0.893203	0.130305	0.721119
C108	C	1.393203	0.630305	1.221119
C109	C	0.888858	0.134145	0.811626
C110	C	1.388858	0.634145	1.311626
C111	C	0.996361	0.039459	0.819164
C112	C	1.496361	0.539459	1.319164
C113	C	1.000709	0.035625	0.728662
C114	C	1.500709	0.535625	1.228662
C115	C	0.949128	0.081045	0.679644
C116	C	1.449128	0.581045	1.179644
N117	N	0.907531	0.117668	0.543365
N118	N	1.407531	0.617668	1.043365
N119	N	0.953574	0.077115	0.587138
N120	N	1.453574	0.577115	1.087138
H121	H	0.311993	0.102943	0.234691
H122	H	0.811993	0.602943	0.734691
Cl123	Cl	0.701000	0.108345	0.226655
Cl124	Cl	1.201000	0.608345	0.726655
Cl125	Cl	0.515492	0.105053	0.213621
Cl126	Cl	1.015492	0.605053	0.713621
H127	H	1.017802	0.020532	0.285106
H128	H	1.517802	0.520532	0.785106
Cl129	Cl	0.345624	0.089741	-0.083121
Cl130	Cl	0.845624	0.589741	0.416879
Cl131	Cl	0.799911	0.212425	0.249708
Cl132	Cl	1.299911	0.712425	0.749708
Cl133	Cl	0.828362	0.187406	0.659503
Cl134	Cl	1.328362	0.687406	1.159503
H135	H	0.814864	0.199274	0.435611
H136	H	1.314864	0.699274	0.935611
Cl137	Cl	0.142997	0.101435	0.257647
Cl138	Cl	0.642997	0.601435	0.757647
Cl139	Cl	0.718115	0.093347	-0.127153
Cl140	Cl	1.218115	0.593347	0.372847
Cl141	Cl	0.532602	0.090049	-0.140189
Cl142	Cl	1.032602	0.590049	0.359811
Cl143	Cl	1.097720	-0.116857	0.077000
Cl144	Cl	1.597720	0.383143	0.577000
H145	H	0.797662	-0.543724	0.055907
H146	H	1.297662	-0.043724	0.555907
H147	H	1.009900	0.027496	0.449287
H148	H	1.509900	0.527496	0.949287
H149	H	1.063446	-0.261482	0.074589
H150	H	1.563446	0.238518	0.574589
H151	H	0.802855	-0.231802	0.056298
H152	H	1.302855	0.268198	0.556298
Cl153	Cl	0.773507	-0.079920	0.054242
Cl154	Cl	1.273507	0.420080	0.554242
Cl155	Cl	1.071015	-0.026304	0.676514
Cl156	Cl	1.571015	0.473696	1.176514
H157	H	1.058260	-0.573409	0.074202
H158	H	1.558260	-0.073409	0.574202
Cl159	Cl	1.087600	-0.725283	0.076233
Cl160	Cl	1.587600	-0.225283	0.576233
Cl161	Cl	0.160118	0.086453	-0.096160
Cl162	Cl	0.660118	0.586453	0.403840
Cl163	Cl	1.061199	-0.017640	0.880790
Cl164	Cl	1.561199	0.482360	1.380790
H165	H	0.795467	-0.675849	0.055736
H166	H	1.295467	-0.175849	0.555736
Cl167	Cl	0.818548	0.196081	0.863768
Cl168	Cl	1.318548	0.696081	1.363768
