data_functionalizedCrystal
_audit_creation_method	'MofGen! by Chris Wilmer'
_symmetry_space_group_name_H-M	'P1'
_symmetry_Int_Tables_number	1
_symmetry_cell_setting	triclinic
loop_
_symmetry_equiv_pos_as_xyz
  x,y,z
_cell_length_a	12.759401
_cell_length_b	18.215405
_cell_length_c	12.759393
_cell_angle_alpha	90.036495
_cell_angle_beta	90.020938
_cell_angle_gamma	90.026410
loop_
_atom_site_label
_atom_site_type_symbol
_atom_site_fract_x
_atom_site_fract_y
_atom_site_fract_z
Zn1	Zn	1.606192	-0.292919	0.593976
Zn2	Zn	1.606052	-0.416003	0.418278
Zn3	Zn	1.430491	-0.292958	0.418311
Zn4	Zn	1.430451	-0.415951	0.593915
O5	O	1.518296	-0.354458	0.506120
O6	O	1.753194	-0.309251	0.570681
O7	O	1.582721	-0.399719	0.271261
O8	O	1.453873	-0.189968	0.441653
O9	O	1.753091	-0.399681	0.441596
O10	O	1.582960	-0.189940	0.570714
O11	O	1.453737	-0.309318	0.271286
O12	O	1.283465	-0.309268	0.441594
O13	O	1.453806	-0.399593	0.740944
O14	O	1.283436	-0.399631	0.570609
O15	O	1.582922	-0.309201	0.740989
O16	O	1.582683	-0.518980	0.441537
O17	O	1.453670	-0.518942	0.570577
C18	C	1.245329	-0.354449	0.506099
C19	C	1.128552	-0.354463	0.506115
C20	C	1.073703	-0.401586	0.573188
C21	C	0.963979	-0.401589	0.573209
C22	C	0.963964	-0.307343	0.439076
C23	C	1.073686	-0.307337	0.439061
C24	C	1.518186	-0.545664	0.506070
C25	C	1.518234	-0.627463	0.506083
C26	C	1.585569	-0.815652	0.439016
C27	C	1.585616	-0.892511	0.439041
C28	C	1.451158	-0.892511	0.573300
C29	C	1.451118	-0.815654	0.573279
C30	C	1.518321	-0.777226	0.506131
C31	C	1.518409	-0.930942	0.506178
C32	C	1.518460	-1.014276	0.506206
C33	C	1.518272	-0.693887	0.506104
C34	C	1.792330	-0.354467	0.506142
C35	C	1.909106	-0.354471	0.506151
C36	C	1.518375	-0.354387	0.780154
C37	C	1.518409	-0.354357	0.896930
C38	C	1.518437	-0.162505	0.506194
C39	C	1.518496	-0.080706	0.506225
C40	C	1.518279	-0.354475	0.233153
C41	C	1.518449	-0.354298	0.116377
C42	C	1.585644	-0.307283	0.951818
C43	C	1.585662	-0.307251	1.061542
C44	C	1.451206	-0.401374	1.061482
C45	C	1.451183	-0.401402	0.951760
H46	H	0.919278	-0.268976	0.384480
H47	H	1.640292	-0.784366	0.384341
C48	C	1.636951	-0.182630	1.095360
C49	C	1.659574	-0.255505	1.121868
H50	H	1.682588	-0.150684	1.132598
H51	H	1.566383	-0.171855	1.113341
H52	H	1.646558	-0.175929	1.022163
H53	H	1.649959	-0.262208	1.195064
H54	H	1.730159	-0.266284	1.103894
C55	C	0.795793	-0.443441	0.632799
C56	C	0.903687	-0.453389	0.646936
H57	H	0.758574	-0.475418	0.678324
H58	H	0.777772	-0.454153	0.562192
H59	H	0.777860	-0.394006	0.648312
H60	H	0.921622	-0.502823	0.631416
H61	H	0.921715	-0.442682	0.717559
H62	H	1.118372	-0.439957	0.627791
H63	H	1.396476	-0.439678	1.106138
H64	H	1.396442	-0.923808	0.627968
H65	H	1.396425	-0.439735	0.907070
H66	H	1.640381	-0.268974	0.907179
H67	H	1.118345	-0.268958	0.384442
C68	C	1.718504	-0.884785	0.306321
C69	C	1.659532	-0.934748	0.365260
H70	H	1.764133	-0.910862	0.260767
H71	H	1.758649	-0.854759	0.352122
H72	H	1.672720	-0.854858	0.266088
H73	H	1.705316	-0.964672	0.405500
H74	H	1.619384	-0.964787	0.319453
C75	C	1.318203	-0.823369	0.705990
C76	C	1.377191	-0.773411	0.647056
H77	H	1.272565	-0.797287	0.751530
H78	H	1.363969	-0.853294	0.746227
H79	H	1.278057	-0.853397	0.660175
H80	H	1.417343	-0.743386	0.692870
H81	H	1.331419	-0.743472	0.606816
