data_functionalizedCrystal
_audit_creation_method	'MofGen! by Chris Wilmer'
_symmetry_space_group_name_H-M	'P1'
_symmetry_Int_Tables_number	1
_symmetry_cell_setting	triclinic
loop_
_symmetry_equiv_pos_as_xyz
  x,y,z
_cell_length_a	15.995343
_cell_length_b	15.944493
_cell_length_c	15.072220
_cell_angle_alpha	90.004743
_cell_angle_beta	89.991823
_cell_angle_gamma	83.482114
loop_
_atom_site_label
_atom_site_type_symbol
_atom_site_fract_x
_atom_site_fract_y
_atom_site_fract_z
O1	O	1.110984	0.108236	-0.073682
O2	O	0.867205	0.121613	-0.073702
O3	O	0.995777	-0.007354	-0.073699
O4	O	0.982412	0.237203	-0.073685
O5	O	0.995745	-0.007347	0.073867
O6	O	0.867174	0.121620	0.073863
O7	O	1.110952	0.108243	0.073883
Zn8	Zn	0.989058	0.114933	0.097303
Zn9	Zn	0.989099	0.114923	-0.097121
O10	O	0.982380	0.237210	0.073880
C11	C	0.835995	0.121065	0.000078
C12	C	0.743044	0.119410	0.000070
C13	C	0.572858	0.116407	0.000082
C14	C	0.549527	0.023312	0.000076
C15	C	0.452849	0.021561	0.000416
C16	C	0.405299	0.113449	0.000092
C17	C	0.434365	0.160263	0.084194
C18	C	0.531157	0.161367	0.084260
C19	C	0.531104	0.162722	-0.083555
C20	C	0.434610	0.159285	-0.084656
C21	C	0.310601	0.111782	0.000101
C22	C	0.667556	0.118077	0.000079
C23	C	0.995215	-0.038645	0.000080
C24	C	0.993577	-0.131894	0.000069
C25	C	1.069257	-0.367660	0.000092
C26	C	1.028461	-0.418228	-0.072668
C27	C	0.990543	-0.302615	0.000079
C28	C	1.028412	-0.418197	0.072819
C29	C	0.987617	-0.467524	0.000094
C30	C	0.949768	-0.351955	-0.072741
C31	C	0.949730	-0.351920	0.072812
C32	C	0.908876	-0.402456	0.000034
C33	C	0.992230	-0.207615	0.000071
C34	C	0.985924	-0.562521	0.000096
C35	C	1.142162	0.108791	0.000102
C36	C	1.235113	0.110446	0.000104
C37	C	0.982942	0.268502	0.000100
C38	C	0.984580	0.361750	0.000105
N39	N	0.989035	0.114939	0.229991
N40	N	0.989129	0.114911	-0.229810
C41	C	0.989098	0.114920	0.589193
C42	C	0.920071	0.183696	0.551584
C43	C	0.920229	0.183948	0.448759
C44	C	0.989066	0.114929	0.410989
C45	C	1.076428	0.134070	0.448289
C46	C	1.076041	0.134559	0.551147
C47	C	0.971542	0.026799	0.551286
C48	C	0.969537	0.027387	0.448423
C49	C	0.989054	0.114933	0.310275
C50	C	0.989116	0.114918	0.689906
H51	H	0.434405	-0.014906	0.061053
H52	H	1.092271	0.197603	0.422525
H53	H	0.578504	-0.012181	0.060293
H54	H	1.061717	-0.447180	-0.134177
H55	H	1.021880	-0.024382	0.575606
H56	H	0.905272	0.012861	0.424044
H57	H	0.433848	-0.015084	-0.059859
H58	H	0.909221	0.008394	0.577270
H59	H	0.841021	-0.417916	-0.000011
H60	H	0.916558	-0.323135	-0.134320
H61	H	1.129010	0.086440	0.576023
H62	H	0.854922	0.172481	0.576339
H63	H	0.577553	-0.012775	-0.060225
H64	H	0.557934	0.129331	0.147362
H65	H	0.916503	-0.322954	0.134323
H66	H	0.414265	0.128148	0.147017
H67	H	0.545720	0.229636	0.087860
H68	H	0.402508	0.227890	0.087089
H69	H	0.931438	0.249341	0.424150
H70	H	1.016548	-0.026191	0.422715
H71	H	1.061657	-0.447128	0.134328
H72	H	0.855291	0.172544	0.423541
H73	H	0.559392	0.133347	-0.147321
H74	H	0.416071	0.125193	-0.146875
H75	H	0.931126	0.248721	0.577428
H76	H	1.091514	0.198824	0.575133
H77	H	0.401644	0.226332	-0.089990
H78	H	1.129020	0.085309	0.423821
H79	H	1.137060	-0.352037	0.000024
H80	H	0.545107	0.231245	-0.084362
