data_functionalizedCrystal
_audit_creation_method	'MofGen! by Chris Wilmer'
_symmetry_space_group_name_H-M	'P1'
_symmetry_Int_Tables_number	1
_symmetry_cell_setting	triclinic
loop_
_symmetry_equiv_pos_as_xyz
  x,y,z
_cell_length_a	12.759395
_cell_length_b	12.759393
_cell_length_c	12.759393
_cell_angle_alpha	90.028574
_cell_angle_beta	89.980701
_cell_angle_gamma	89.983636
loop_
_atom_site_label
_atom_site_type_symbol
_atom_site_fract_x
_atom_site_fract_y
_atom_site_fract_z
Zn1	Zn	1.606255	0.418161	-0.594026
Zn2	Zn	1.606149	0.593880	-0.418355
Zn3	Zn	1.430557	0.418221	-0.418363
Zn4	Zn	1.430545	0.593804	-0.593994
O5	O	1.518377	0.506017	-0.506184
O6	O	1.753262	0.441478	-0.570733
O7	O	1.582817	0.570636	-0.271335
O8	O	1.453913	0.271192	-0.441681
O9	O	1.753184	0.570578	-0.441668
O10	O	1.582998	0.271148	-0.570740
O11	O	1.453810	0.441579	-0.271340
O12	O	1.283534	0.441505	-0.441650
O13	O	1.453893	0.570448	-0.741019
O14	O	1.283526	0.570505	-0.570686
O15	O	1.582986	0.441404	-0.741043
O16	O	1.582806	0.740891	-0.441637
O17	O	1.453790	0.740835	-0.570679
C18	C	1.245409	0.506004	-0.506166
C19	C	1.128633	0.506024	-0.506183
C20	C	1.128662	0.640569	-0.640331
C21	C	1.073816	0.707850	-0.707408
C22	C	0.964095	0.707862	-0.707420
C23	C	0.909216	0.640585	-0.640352
C24	C	0.964062	0.573304	-0.573275
C25	C	1.073787	0.573301	-0.573267
C26	C	0.964033	0.438755	-0.439134
C27	C	1.073754	0.438746	-0.439115
C28	C	0.909155	0.371478	-0.372066
C29	C	0.964001	0.304200	-0.304982
C30	C	1.073729	0.304191	-0.304971
C31	C	1.128600	0.371465	-0.372038
C32	C	1.518314	0.778984	-0.506177
C33	C	1.518383	0.895761	-0.506208
C34	C	1.652827	0.895766	-0.371938
C35	C	1.720077	0.950629	-0.304819
C36	C	1.720139	1.060351	-0.304855
C37	C	1.652946	1.115212	-0.372019
C38	C	1.585696	1.060348	-0.439138
C39	C	1.585639	0.950624	-0.439093
C40	C	1.451258	1.060343	-0.573412
C41	C	1.451190	0.950621	-0.573373
C42	C	1.384065	1.115204	-0.640576
C43	C	1.316809	1.060340	-0.707692
C44	C	1.316749	0.950612	-0.707652
C45	C	1.383940	0.895758	-0.640492
C46	C	1.792410	0.506030	-0.506203
C47	C	1.909187	0.506036	-0.506211
C48	C	1.518450	0.505911	-0.780218
C49	C	1.518482	0.505865	-0.896995
C50	C	1.518469	1.231983	-0.506231
C51	C	1.518508	1.115206	-0.506293
C52	C	1.585710	0.438666	-0.951870
C53	C	1.585735	0.438628	-1.061595
C54	C	1.451301	0.572998	-1.061557
C55	C	1.451271	0.573030	-0.951835
C56	C	1.663328	0.361092	-0.951893
C57	C	1.663353	0.361054	-1.061617
C58	C	1.518364	0.506046	-0.233217
C59	C	1.518536	0.505796	-0.116441
H60	H	1.118378	0.249395	-0.250356
H61	H	1.118510	0.762624	-0.762015
H62	H	1.774904	1.105021	-0.250206
O63	O	1.385848	0.638146	-0.898476
C64	C	1.318023	0.578331	-0.834999
H65	H	1.311583	0.495575	-0.868087
H66	H	1.237150	0.616312	-0.833735
H67	H	1.350489	0.574737	-0.751847
O68	O	1.652819	1.221795	-0.372062
C69	C	1.552170	1.258571	-0.344990
H70	H	1.491606	1.195378	-0.362858
H71	H	1.533519	1.331947	-0.392399
H72	H	1.549999	1.278128	-0.257824
H73	H	1.634239	0.283745	-1.095660
O74	O	1.384319	1.221786	-0.640617
C75	C	1.485013	1.258339	-0.667711
H76	H	1.545503	1.195074	-0.649785
H77	H	1.503746	1.331768	-0.620361
H78	H	1.487214	1.277733	-0.754893
H79	H	1.261990	0.905948	-0.762313
H80	H	1.217942	0.371467	-0.372032
H81	H	0.919439	0.762643	-0.762045
H82	H	1.641559	0.279728	-0.922132
H83	H	1.774787	0.905952	-0.250137
O84	O	1.652926	0.789183	-0.371796
C85	C	1.726626	0.752527	-0.298104
H86	H	1.788054	0.815715	-0.283462
H87	H	1.766435	0.679056	-0.329805
H88	H	1.684986	0.733167	-0.221457
H89	H	1.262111	1.105016	-0.762376
H90	H	1.744723	0.382844	-1.091398
H91	H	1.218003	0.640573	-0.640319
H92	H	1.740599	0.390258	-0.917859
H93	H	0.819875	0.640592	-0.640377
O94	O	1.383713	0.789175	-0.640358
C95	C	1.283007	0.752619	-0.613314
H96	H	1.239623	0.815924	-0.567504
H97	H	1.290514	0.679253	-0.562914
H98	H	1.237452	0.733120	-0.687654
O99	O	0.802572	0.371322	-0.372170
C100	C	0.765939	0.270663	-0.399307
H101	H	0.829193	0.227280	-0.445185
H102	H	0.692552	0.278262	-0.449675
H103	H	0.746447	0.225054	-0.325009
O104	O	0.910648	0.239004	-0.239726
C105	C	0.847110	0.298739	-0.171796
H106	H	0.880154	0.381476	-0.165157
H107	H	0.845831	0.260642	-0.091008
H108	H	0.763971	0.302403	-0.204290
O109	O	1.386120	0.638210	-1.114994
C110	C	1.400539	0.623752	-1.223606
H111	H	1.481634	0.589343	-1.238606
H112	H	1.393396	0.702435	-1.265291
H113	H	1.338247	0.567791	-1.254747
