data_functionalizedCrystal
_audit_creation_method	'MofGen! by Chris Wilmer'
_symmetry_space_group_name_H-M	'P1'
_symmetry_Int_Tables_number	1
_symmetry_cell_setting	triclinic
loop_
_symmetry_equiv_pos_as_xyz
  x,y,z
_cell_length_a	10.654550
_cell_length_b	14.853567
_cell_length_c	9.130313
_cell_angle_alpha	90.002541
_cell_angle_beta	89.996220
_cell_angle_gamma	84.059917
loop_
_atom_site_label
_atom_site_type_symbol
_atom_site_fract_x
_atom_site_fract_y
_atom_site_fract_z
O1	O	1.666519	0.126622	-0.121906
O2	O	1.300915	0.138686	-0.121881
O3	O	1.493483	0.001476	-0.121899
O4	O	1.473951	0.263831	-0.121889
O5	O	1.493480	0.001480	0.121700
O6	O	1.300912	0.138690	0.121717
O7	O	1.666516	0.126626	0.121693
Cu8	Cu	1.483714	0.132658	0.143948
Cu9	Cu	1.483717	0.132654	-0.144136
O10	O	1.473948	0.263835	0.121710
C11	C	1.254125	0.137802	-0.000079
C12	C	1.114709	0.135152	-0.000070
C13	C	1.034384	0.215939	-0.000088
C14	C	0.903389	0.213443	-0.000114
C15	C	0.933057	0.049367	-0.000109
C16	C	1.064050	0.051863	-0.000073
C17	C	1.085044	0.299227	-0.000085
C18	C	1.004717	0.380021	-0.000105
C19	C	0.873722	0.377525	-0.000131
C20	C	0.823054	0.294236	-0.000136
C21	C	1.492596	-0.032115	-0.000104
C22	C	1.489944	-0.132213	-0.000116
C23	C	1.364344	-0.545419	-0.000080
C24	C	1.593119	-0.565475	-0.000095
C25	C	1.595613	-0.471428	-0.000104
C26	C	1.482470	-0.414372	-0.000099
C27	C	1.366834	-0.451363	-0.000084
C28	C	1.711247	-0.434430	-0.000104
C29	C	1.713745	-0.340378	-0.000111
C30	C	1.600601	-0.283320	-0.000116
C31	C	1.484961	-0.320316	-0.000103
C32	C	1.371818	-0.263260	-0.000097
C33	C	1.256176	-0.300254	-0.000095
C34	C	1.253691	-0.394305	-0.000089
C35	C	1.603087	-0.189269	-0.000122
C36	C	1.374308	-0.169204	-0.000102
C37	C	1.713306	0.127510	-0.000113
C38	C	1.852722	0.130160	-0.000131
C39	C	1.474835	0.297427	-0.000088
C40	C	1.477487	0.397525	-0.000085
N41	N	1.483721	0.132661	0.346570
N42	N	1.483720	0.132644	-0.346759
C43	C	1.569012	0.071925	0.423214
C44	C	1.569009	0.071914	0.576551
C45	C	1.398420	0.193382	0.576586
C46	C	1.398418	0.193388	0.423252
C47	C	1.654315	0.011197	0.346533
C48	C	1.739614	-0.049542	0.423177
C49	C	1.739610	-0.049553	0.576514
C50	C	1.654308	0.011176	0.653206
H51	H	1.191705	0.301268	-0.000072
H52	H	0.808324	0.443311	-0.000132
H53	H	1.270191	-0.575545	-0.000084
H54	H	1.809057	-0.098991	0.360726
Cl55	Cl	1.735347	-0.637203	-0.000078
Cl56	Cl	1.654300	0.011150	0.845975
H57	H	0.891792	-0.018443	-0.000138
Cl58	Cl	1.068414	0.484720	-0.000082
H59	H	0.716388	0.292210	-0.000134
H60	H	1.129453	-0.013920	-0.000062
Cl61	Cl	1.291195	0.269725	0.672999
H62	H	1.282173	-0.122754	-0.000104
Cl63	Cl	1.113946	-0.228516	-0.000076
Cl64	Cl	1.748452	-0.142765	-0.000097
Cl65	Cl	1.859120	-0.293879	-0.000139
Cl66	Cl	1.654328	0.011211	0.153767
Cl67	Cl	1.108326	-0.440819	-0.000090
H68	H	1.809055	-0.099016	0.638916
H69	H	1.803361	-0.480892	-0.000095
Cl70	Cl	1.291188	0.269742	0.326897
