data_functionalizedCrystal
_audit_creation_method	'MofGen! by Chris Wilmer'
_symmetry_space_group_name_H-M	'P1'
_symmetry_Int_Tables_number	1
_symmetry_cell_setting	triclinic
loop_
_symmetry_equiv_pos_as_xyz
  x,y,z
_cell_length_a	14.908520
_cell_length_b	14.908782
_cell_length_c	12.759393
_cell_angle_alpha	93.279066
_cell_angle_beta	93.263606
_cell_angle_gamma	89.837842
loop_
_atom_site_label
_atom_site_type_symbol
_atom_site_fract_x
_atom_site_fract_y
_atom_site_fract_z
Zn1	Zn	-0.437191	1.353929	-0.532248
Zn2	Zn	-0.587568	1.345139	-0.367252
Zn3	Zn	-0.428564	1.203563	-0.366123
Zn4	Zn	-0.578835	1.194865	-0.552416
O5	O	-0.508039	1.274374	-0.454509
O6	O	-0.464404	1.478582	-0.502393
O7	O	-0.566520	1.326320	-0.220086
O8	O	-0.303886	1.230828	-0.379247
O9	O	-0.574885	1.472124	-0.381171
O10	O	-0.310224	1.341302	-0.501298
O11	O	-0.449700	1.222305	-0.219257
O12	O	-0.441232	1.076590	-0.398803
O13	O	-0.560001	1.216004	-0.696756
O14	O	-0.551636	1.070200	-0.535671
O15	O	-0.455936	1.332868	-0.681938
O16	O	-0.712231	1.317886	-0.400727
O17	O	-0.705815	1.207480	-0.536766
C18	C	-0.494551	1.040772	-0.469304
C19	C	-0.488802	0.940834	-0.475659
C20	C	-0.592886	0.746324	-0.361158
C21	C	-0.587488	0.652424	-0.367126
C22	C	-0.472612	0.659132	-0.493570
C23	C	-0.478010	0.753032	-0.487601
C24	C	-0.538148	0.796625	-0.421392
C25	C	-0.543542	0.890527	-0.415418
C26	C	-0.428671	0.897233	-0.541867
C27	C	-0.423273	0.803333	-0.547836
C28	C	-0.741649	1.260810	-0.471079
C29	C	-0.841593	1.255089	-0.478197
C30	C	-1.036025	1.359423	-0.350017
C31	C	-1.129932	1.354050	-0.356701
C32	C	-1.123315	1.238978	-0.498256
C33	C	-1.029408	1.244350	-0.491571
C34	C	-0.985767	1.304573	-0.417448
C35	C	-0.891858	1.309940	-0.410759
C36	C	-0.885243	1.194873	-0.552317
C37	C	-0.979150	1.189501	-0.559002
C38	C	-0.273518	1.288016	-0.437897
C39	C	-0.173580	1.293829	-0.430817
C40	C	-0.507957	1.274446	-0.728532
C41	C	-0.507922	1.274477	-0.845305
C42	C	-0.521581	1.508888	-0.439658
C43	C	-0.527352	1.608824	-0.433329
C44	C	-0.453726	1.335333	-0.892452
C45	C	-0.453688	1.335350	-1.002173
C46	C	-0.562049	1.213653	-1.017589
C47	C	-0.562082	1.213632	-0.907871
C48	C	-0.508059	1.274357	-0.181544
C49	C	-0.507851	1.274516	-0.064744
H50	H	-0.384096	0.938198	-0.590909
O51	O	-1.178646	1.407473	-0.291232
C52	C	-1.216087	1.558820	-0.232801
C53	C	-1.160863	1.498410	-0.306985
H54	H	-1.201744	1.632355	-0.245527
H55	H	-1.196761	1.544207	-0.147733
H56	H	-1.290700	1.544611	-0.250276
H57	H	-1.086236	1.512584	-0.289605
H58	H	-1.180265	1.513034	-0.392030
O59	O	-1.021439	1.130883	-0.630951
C60	C	-1.041495	0.976261	-0.693490
C61	C	-0.993529	1.042551	-0.611961
H62	H	-1.018962	0.904829	-0.678153
H63	H	-1.023847	0.992992	-0.775927
H64	H	-1.117244	0.981889	-0.686705
H65	H	-0.917770	1.036960	-0.618650
H66	H	-1.011250	1.025801	-0.529559
H67	H	-0.606146	1.164117	-1.068544
H68	H	-0.641847	0.781818	-0.307240
O69	O	-0.993577	1.417789	-0.277908
C70	C	-0.888285	1.436004	-0.127805
C71	C	-0.936311	1.369805	-0.209391
H72	H	-0.841960	1.397238	-0.072402
H73	H	-0.940295	1.474269	-0.080672
H74	H	-0.846999	1.485530	-0.169998
H75	H	-0.977595	1.320226	-0.167282
H76	H	-0.884256	1.331606	-0.256520
H77	H	-0.844312	1.150208	-0.607222
H78	H	-0.606213	1.164070	-0.869483
H79	H	-1.158864	1.189953	-0.558609
O80	O	-0.640694	0.603699	-0.308507
C81	C	-0.755245	0.606956	-0.182512
C82	C	-0.695022	0.662247	-0.248823
H83	H	-0.799198	0.654268	-0.134257
H84	H	-0.711429	0.565388	-0.127447
H85	H	-0.799740	0.560266	-0.236808
H86	H	-0.650518	0.708987	-0.194607
H87	H	-0.738891	0.703755	-0.303899
O88	O	-0.401028	1.394463	-0.831829
C89	C	-0.293579	1.515202	-0.828124
C90	C	-0.353205	1.448273	-0.896899
H91	H	-0.254913	1.558737	-0.880704
H92	H	-0.244139	1.476694	-0.776059
H93	H	-0.337601	1.559766	-0.776683
H94	H	-0.309255	1.403692	-0.948403
H95	H	-0.402651	1.486836	-0.948895
O96	O	-0.364976	0.760876	-0.612212
C97	C	-0.346925	0.655651	-0.760006
C98	C	-0.413045	0.703653	-0.687164
H99	H	-0.385764	0.609390	-0.820636
H100	H	-0.297350	0.614333	-0.711375
H101	H	-0.308707	0.707752	-0.801980
H102	H	-0.451325	0.651614	-0.645174
H103	H	-0.462562	0.744989	-0.735851
H104	H	-0.592507	0.926019	-0.361505
H105	H	-0.423658	0.623622	-0.547484
O106	O	-0.849414	1.368313	-0.338654
C107	C	-0.744131	1.386551	-0.188546
C108	C	-0.792149	1.320341	-0.270124
H109	H	-0.697806	1.347794	-0.133132
H110	H	-0.796145	1.424819	-0.141423
H111	H	-0.702845	1.436073	-0.230745
H112	H	-0.833433	1.270765	-0.228010
H113	H	-0.740090	1.282139	-0.317244
O114	O	-0.400937	1.394343	-1.048016
C115	C	-0.280230	1.413524	-1.162563
C116	C	-0.339900	1.346617	-1.110697
H117	H	-0.230880	1.374964	-1.213269
H118	H	-0.241461	1.456990	-1.099035
H119	H	-0.324225	1.458163	-1.213840
H120	H	-0.295972	1.301920	-1.059426
H121	H	-0.378675	1.303214	-1.174277
