data_functionalizedCrystal
_audit_creation_method	'MofGen! by Chris Wilmer'
_symmetry_space_group_name_H-M	'P1'
_symmetry_Int_Tables_number	1
_symmetry_cell_setting	triclinic
loop_
_symmetry_equiv_pos_as_xyz
  x,y,z
_cell_length_a	31.640172
_cell_length_b	20.016444
_cell_length_c	20.016444
_cell_angle_alpha	89.996532
_cell_angle_beta	60.006508
_cell_angle_gamma	120.002335
loop_
_atom_site_label
_atom_site_type_symbol
_atom_site_fract_x
_atom_site_fract_y
_atom_site_fract_z
Zr1	Zr	0.462575	0.087635	0.643703
O2	O	0.550747	0.194316	0.537039
O3	O	0.374406	0.054933	0.676387
O4	O	0.462577	0.194311	0.676399
O5	O	0.462573	-0.055007	0.537034
O6	O	0.462575	0.194305	0.786344
O7	O	0.462576	0.054938	0.537028
O8	O	0.304853	-0.055017	0.786323
O9	O	0.620294	0.194315	0.537055
O10	O	0.410668	0.040980	0.772393
O11	O	0.410667	-0.041067	0.690347
O12	O	0.514477	0.123033	0.690361
O13	O	0.514476	0.040986	0.608315
Zr14	Zr	0.462565	-0.087723	0.819061
Zr15	Zr	0.462571	0.087626	0.819051
Zr16	Zr	0.462569	-0.087715	0.643712
Zr17	Zr	0.573495	0.087633	0.643727
Zr18	Zr	0.351645	-0.087721	0.819037
O19	O	0.550734	-0.055021	0.786376
O20	O	0.550741	0.194304	0.786363
O21	O	0.550739	-0.055009	0.537053
O22	O	0.374393	-0.194404	0.925724
O23	O	0.374400	0.054920	0.925711
O24	O	0.374398	-0.194392	0.676401
O25	O	0.462567	0.054919	0.925730
O26	O	0.462563	-0.194399	0.786364
O27	O	0.462565	-0.194394	0.676420
O28	O	0.462564	-0.055026	0.925736
O29	O	0.620291	0.194308	0.676433
O30	O	0.304849	-0.194396	0.786330
O31	O	0.304845	-0.194403	0.925709
O32	O	0.304850	-0.055023	0.925701
O33	O	0.620290	0.054935	0.537062
O34	O	0.620287	0.054928	0.676441
O35	O	0.410663	-0.123121	0.772402
O36	O	0.410663	-0.041075	0.854448
O37	O	0.514473	0.040978	0.772416
O38	O	0.514472	-0.041068	0.690370
C39	C	0.323826	-0.000042	0.731352
C40	C	0.276737	-0.000041	0.731341
C41	C	0.462577	0.219292	0.731370
C42	C	0.462579	0.293732	0.731366
C43	C	0.462563	-0.219380	0.731393
C44	C	0.462561	-0.293821	0.731397
C45	C	-0.015304	0.042776	0.774225
C46	C	-0.192300	0.042775	0.774242
O47	O	-0.215205	0.079169	0.810695
N48	N	-0.214430	-0.000051	0.731414
C49	C	-0.192310	-0.042884	0.688583
O50	O	-0.215198	-0.079317	0.652162
C51	C	-0.015318	-0.042888	0.688571
C52	C	0.006813	-0.000052	0.731396
C53	C	0.006826	0.085607	0.817047
C54	C	0.051075	0.085610	0.817038
C55	C	0.073193	0.042783	0.774209
C56	C	0.051062	-0.000049	0.731387
C57	C	0.006797	-0.085725	0.645746
C58	C	0.051047	-0.085724	0.645748
C59	C	0.073178	-0.042888	0.688572
C60	C	0.117428	-0.042873	0.688549
N61	N	0.139557	-0.000047	0.731377
C62	C	0.117440	0.042780	0.774207
C63	C	-0.285233	-0.042877	0.688591
C64	C	-0.329480	-0.042875	0.688592
C65	C	-0.329467	0.042783	0.774253
C66	C	-0.285217	0.042785	0.774246
C67	C	-0.263103	-0.000051	0.731419
C68	C	0.210365	0.042785	0.774186
C69	C	0.254620	0.042787	0.774171
C70	C	0.254601	-0.042874	0.688514
C71	C	0.210353	-0.042873	0.688525
C72	C	0.188235	-0.000042	0.731367
O73	O	0.140355	-0.079256	0.652123
O74	O	0.140326	0.079193	0.810637
C75	C	-0.059553	0.042773	0.774234
C76	C	-0.081684	-0.000059	0.731412
C77	C	-0.059566	-0.042887	0.688582
C78	C	-0.125931	-0.000057	0.731414
C79	C	-0.148049	0.042771	0.774243
C80	C	-0.125919	0.085597	0.817072
C81	C	-0.081671	0.085600	0.817063
C82	C	-0.081696	-0.085713	0.645754
C83	C	-0.125944	-0.085712	0.645765
C84	C	-0.148062	-0.042884	0.688595
C85	C	0.601314	-0.000047	0.731412
C86	C	0.648403	-0.000047	0.731422
C87	C	0.462575	-0.000033	0.512047
C88	C	0.462576	-0.000030	0.437607
C89	C	0.516759	0.507819	0.688560
C90	C	0.516757	0.577761	0.688567
C91	C	0.408376	0.492084	0.774208
C92	C	0.408380	0.422145	0.774206
C93	C	0.462573	0.430016	0.731377
C94	C	0.462567	0.569896	0.731386
C95	C	0.462564	0.645729	0.731394
C96	C	0.462576	0.354178	0.731371
C97	C	0.462571	0.060528	0.266348
C98	C	0.462568	0.060522	0.196408
C99	C	0.462567	-0.060622	0.196422
C100	C	0.462566	-0.060619	0.266364
C101	C	0.462572	-0.000040	0.301323
C102	C	0.462568	-0.000048	0.161440
C103	C	0.462564	-0.000055	0.085608
C104	C	0.462575	-0.000034	0.377161
C105	C	0.462565	-0.000055	0.950716
C106	C	0.462563	-0.000059	1.025156
C107	C	0.323821	-0.000052	0.950686
C108	C	0.276731	-0.000055	1.025116
C109	C	0.323819	-0.219378	0.731363
C110	C	0.276728	-0.293817	0.731357
C111	C	0.323814	-0.219388	0.950698
C112	C	0.276722	-0.293832	1.025131
C113	C	0.601326	0.219300	0.512066
C114	C	0.648418	0.293743	0.437632
C115	C	0.601319	-0.000036	0.512077
C116	C	0.648409	-0.000033	0.437647
C117	C	0.601321	0.219289	0.731400
C118	C	0.648412	0.293729	0.731406
C119	C	0.254619	0.042783	1.017237
C120	C	0.210379	0.042796	1.087165
C121	C	0.188248	-0.000033	1.164971
C122	C	0.210364	-0.042872	1.172848
C123	C	0.254607	-0.042881	1.102921
C124	C	0.254612	-0.371614	0.774186
C125	C	0.210371	-0.441565	0.774177
C126	C	0.188245	-0.433717	0.731343
C127	C	0.210366	-0.355912	0.688509
C128	C	0.254609	-0.285963	0.688514
C129	C	0.254607	-0.285964	1.102921
C130	C	0.210365	-0.355904	1.172866
C131	C	0.188235	-0.433712	1.165020
C132	C	0.210354	-0.441579	1.087222
C133	C	0.254599	-0.371639	1.017279
C134	C	0.670538	0.285875	0.359842
C135	C	0.714794	0.355816	0.289897
C136	C	0.736926	0.433624	0.297743
C137	C	0.714804	0.441491	0.375541
C138	C	0.670552	0.371551	0.445484
C139	C	0.670526	-0.042864	0.445526
C140	C	0.714778	-0.042858	0.375598
C141	C	0.736910	-0.000026	0.297792
C142	C	0.714792	0.042810	0.289915
C143	C	0.670543	0.042808	0.359842
C144	C	0.670524	0.285855	0.774248
C145	C	0.714765	0.355792	0.774270
C146	C	0.736896	0.433603	0.731445
C147	C	0.714779	0.441475	0.688602
C148	C	0.670536	0.371539	0.688585
H149	H	0.272639	0.077672	0.809043
H150	H	0.069090	0.120488	0.851912
C151	C	0.139568	-0.510642	1.241960
H152	H	0.129556	-0.558112	1.226152
H153	H	0.105050	-0.510642	1.273597
H154	H	0.154083	-0.510634	1.273594
C155	C	0.739145	0.527080	0.384165
H156	H	0.719638	0.521758	0.440511
H157	H	0.731895	0.556137	0.358646
H158	H	0.780921	0.556145	0.358668
H159	H	0.772921	0.490543	0.731465
C160	C	0.278947	-0.380259	0.821301
H161	H	0.308462	-0.327462	0.815181
H162	H	0.296209	-0.409316	0.800150
H163	H	0.247179	-0.409327	0.877647
C164	C	0.462571	0.127155	0.304809
H165	H	0.462576	0.118489	0.351469
H166	H	0.427905	0.124640	0.320738
H167	H	0.497241	0.179447	0.265945
H168	H	0.192330	-0.504940	1.080846
C169	C	0.186009	-0.089997	1.258435
H170	H	0.205512	-0.115514	1.253121
H171	H	0.144236	-0.130516	1.287478
H172	H	0.193261	-0.053029	1.287505
C173	C	-0.057337	0.132712	0.864178
H174	H	-0.076856	0.158209	0.889689
H175	H	-0.015564	0.173248	0.827218
H176	H	-0.064592	0.095737	0.904710
H177	H	0.652521	0.222526	0.353438
H178	H	0.364252	0.358789	0.809076
H179	H	-0.143956	-0.120591	0.610885
C180	C	0.278918	-0.090016	1.111597
H181	H	0.259394	-0.115527	1.167952
H182	H	0.320691	-0.053062	1.086104
H183	H	0.271654	-0.130556	1.086103
H184	H	0.272599	-0.378057	0.953942
H185	H	0.732798	0.349395	0.226558
C186	C	0.576367	0.516473	0.641459
H187	H	0.568610	0.463677	0.647582
H188	H	0.598630	0.545531	0.662617
H189	H	0.598634	0.545540	0.585112
H190	H	0.732819	0.077682	0.226556
C191	C	0.576360	0.663344	0.641465
H192	H	0.568599	0.703872	0.647605
H193	H	0.598626	0.669486	0.585121
H194	H	0.598625	0.669478	0.662624
C195	C	0.348769	0.483432	0.821307
H196	H	0.356527	0.536228	0.815169
H197	H	0.326499	0.454365	0.877651
H198	H	0.326509	0.454374	0.800141
H199	H	0.652537	0.077684	0.353416
C200	C	0.462567	-0.127245	0.304842
H201	H	0.462561	-0.118571	0.351508
H202	H	0.497232	-0.124734	0.265991
H203	H	0.427896	-0.179537	0.320781
H204	H	0.732779	-0.077743	0.382028
C205	C	0.646186	0.200272	0.821363
H206	H	0.665692	0.205611	0.846885
H207	H	0.653438	0.171205	0.784402
H208	H	0.604410	0.171209	0.861887
C209	C	-0.353810	0.089880	0.821377
H210	H	-0.383336	0.083735	0.815248
H211	H	-0.322054	0.146231	0.800245
H212	H	-0.371075	0.068708	0.877723
H213	H	0.732767	0.349366	0.809157
H214	H	0.152220	-0.490681	0.731346
H215	H	0.192365	-0.504910	0.809060
H216	H	0.772959	0.490567	0.240784
H217	H	0.192360	-0.349485	1.236206
C218	C	0.186016	-0.347290	0.641407
H219	H	0.156494	-0.400095	0.647553
H220	H	0.217771	-0.318227	0.585061
H221	H	0.168746	-0.318240	0.662567
C222	C	0.739132	0.527069	0.641490
H223	H	0.768653	0.567586	0.647633
H224	H	0.707378	0.533222	0.662621
H225	H	0.756404	0.533210	0.585140
H226	H	0.462566	0.109841	0.167934
H227	H	0.772940	-0.000032	0.240859
H228	H	0.192361	0.077661	0.809073
C229	C	0.278928	-0.200391	0.641406
H230	H	0.259407	-0.205743	0.615904
H231	H	0.320701	-0.171312	0.600880
H232	H	0.271667	-0.171330	0.678377
H233	H	0.462564	-0.109944	0.167950
H234	H	0.272637	0.077669	0.953890
C235	C	0.646224	0.380210	0.641445
H236	H	0.665749	0.436569	0.615938
H237	H	0.604451	0.354709	0.678391
H238	H	0.653488	0.354716	0.600908
H239	H	0.652542	0.377967	0.508822
H240	H	0.652509	-0.077748	0.508873
H241	H	-0.011179	0.120482	0.851927
H242	H	0.272618	-0.222614	1.109325
H243	H	0.192377	0.077681	1.080736
C244	C	0.139577	-0.000026	1.241884
H245	H	0.129576	0.031616	1.226041
H246	H	0.154072	0.022903	1.273535
H247	H	0.105049	-0.054597	1.273518
C248	C	-0.353819	-0.089994	0.641486
H249	H	-0.334311	-0.115507	0.615988
H250	H	-0.346574	-0.053034	0.600957
H251	H	-0.395594	-0.130531	0.678462
C252	C	-0.260882	0.089894	0.821362
H253	H	-0.280398	0.115394	0.846872
H254	H	-0.219109	0.130426	0.784403
H255	H	-0.268141	0.052915	0.861895
H256	H	-0.267232	-0.077763	0.653714
H257	H	0.069050	-0.120606	0.610871
C258	C	0.185982	-0.090031	0.641461
H259	H	0.205484	-0.115553	0.615969
H260	H	0.193205	-0.053102	0.600932
H261	H	0.144210	-0.130564	0.678473
C262	C	-0.017532	-0.132835	0.598629
H263	H	0.001981	-0.158342	0.573129
H264	H	-0.010279	-0.095865	0.558100
H265	H	-0.059307	-0.173376	0.635592
C266	C	0.278930	-0.089991	0.641416
H267	H	0.308446	-0.083861	0.647558
H268	H	0.296188	-0.068853	0.585070
H269	H	0.247158	-0.146344	0.662582
C270	C	-0.150258	0.132701	0.864189
H271	H	-0.179785	0.126553	0.858062
H272	H	-0.118500	0.189052	0.843049
H273	H	-0.167520	0.111536	0.920536
H274	H	-0.063694	-0.120591	0.610879
