data_functionalizedCrystal
_audit_creation_method	'MofGen! by Chris Wilmer'
_symmetry_space_group_name_H-M	'P1'
_symmetry_Int_Tables_number	1
_symmetry_cell_setting	triclinic
loop_
_symmetry_equiv_pos_as_xyz
  x,y,z
_cell_length_a	14.519709
_cell_length_b	10.654550
_cell_length_c	12.996460
_cell_angle_alpha	89.994020
_cell_angle_beta	90.000034
_cell_angle_gamma	84.082538
loop_
_atom_site_label
_atom_site_type_symbol
_atom_site_fract_x
_atom_site_fract_y
_atom_site_fract_z
O1	O	-1.224722	-0.164625	0.085432
O2	O	-0.956346	-0.184012	0.085464
O3	O	-1.096705	0.008480	0.085441
O4	O	-1.084364	-0.357117	0.085455
O5	O	-1.096690	0.008491	-0.085693
O6	O	-0.956331	-0.184001	-0.085670
O7	O	-1.224708	-0.164615	-0.085701
Cu8	Cu	-1.090518	-0.174307	-0.101311
Cu9	Cu	-1.090535	-0.174320	0.101074
O10	O	-1.084349	-0.357107	-0.085678
C11	C	-1.095791	0.055275	-0.000125
C12	C	-1.093080	0.194692	-0.000123
C13	C	-0.921974	-0.183103	-0.000099
C14	C	-0.819579	-0.180396	-0.000087
C15	C	-1.259079	-0.165524	-0.000136
C16	C	-1.361475	-0.168231	-0.000141
C17	C	-0.444631	-0.170428	-0.000134
C18	C	-0.548954	-0.173196	-0.000121
C19	C	-0.632102	-0.175412	-0.000110
C20	C	-0.736431	-0.178180	-0.000098
C21	C	-1.085262	-0.403901	-0.000110
C22	C	-1.087973	-0.543318	-0.000105
N23	N	-1.090512	-0.174297	-0.243659
C24	C	-1.175721	0.274972	-0.000133
C25	C	-1.173168	0.405968	-0.000120
C26	C	-1.005326	0.376391	-0.000093
C27	C	-1.007880	0.245397	-0.000098
C28	C	-1.270505	0.602745	0.059830
C29	C	-1.353150	0.683031	0.059803
C30	C	-1.428065	0.653583	-0.000177
C31	C	-1.420338	0.543852	-0.060156
C32	C	-1.337692	0.463573	-0.060139
C33	C	-1.262780	0.493020	-0.000134
C34	C	-0.910549	0.048619	-0.060057
C35	C	-0.827902	-0.031662	-0.060046
C36	C	-0.752979	-0.002218	-0.000072
C37	C	-0.760696	0.107515	0.059891
C38	C	-0.843344	0.187796	0.059881
C39	C	-0.918267	0.158343	-0.000092
C40	C	-1.090534	-0.174321	-0.663473
C41	C	-1.090525	-0.174319	-0.546668
C42	C	-1.090524	-0.174310	-0.453569
C43	C	-1.090514	-0.174306	-0.336757
N44	N	-1.090548	-0.174319	0.243421
H45	H	-1.331399	0.374236	-0.108976
C46	C	-0.905097	0.506545	0.087896
C47	C	-0.911679	0.432137	-0.000077
H48	H	-0.847284	0.540964	0.087898
H49	H	-0.909581	0.456048	0.147562
H50	H	-0.953956	0.573101	0.087879
H51	H	-0.862824	0.365576	-0.000056
H52	H	-0.907186	0.482637	-0.059758
C53	C	-1.576859	0.605129	-0.113452
C54	C	-1.502686	0.511494	-0.126102
H55	H	-1.627699	0.585143	-0.154160
H56	H	-1.558546	0.684233	-0.134516
H57	H	-1.594645	0.609494	-0.043099
H58	H	-1.484896	0.507135	-0.196454
H59	H	-1.521002	0.432368	-0.105043
H60	H	-1.495357	0.718961	-0.000198
C61	C	-1.347956	0.771275	0.229441
C62	C	-1.361650	0.803637	0.125738
H63	H	-1.353212	0.845735	0.270140
H64	H	-1.288020	0.727688	0.238037
H65	H	-1.393363	0.718470	0.250479
H66	H	-1.316239	0.856435	0.104698
H67	H	-1.421595	0.847245	0.117137
H68	H	-1.209512	0.626724	0.108687
H69	H	-0.699680	0.131506	0.108707
H70	H	-0.821619	-0.121006	-0.108885
C71	C	-0.768623	0.317303	0.178460
C72	C	-0.851836	0.308409	0.125808
H73	H	-0.773871	0.391757	0.219165
H74	H	-0.719743	0.320473	0.130262
H75	H	-0.755830	0.245715	0.221674
H76	H	-0.864625	0.379992	0.082587
H77	H	-0.900730	0.305249	0.174011
H78	H	-1.245096	0.233692	-0.000151
C79	C	-0.966712	0.009822	-0.229676
C80	C	-0.992922	0.016267	-0.125973
H81	H	-1.017570	-0.010140	-0.270366
H82	H	-0.916402	-0.053698	-0.238260
H83	H	-0.948404	0.088944	-0.250734
H84	H	-1.011224	-0.062859	-0.104912
H85	H	-1.043248	0.079791	-0.117383
H86	H	-0.685678	-0.067587	-0.000082
