data_functionalizedCrystal
_audit_creation_method	'MofGen! by Chris Wilmer'
_symmetry_space_group_name_H-M	'P1'
_symmetry_Int_Tables_number	1
_symmetry_cell_setting	triclinic
loop_
_symmetry_equiv_pos_as_xyz
  x,y,z
_cell_length_a	15.297475
_cell_length_b	18.101395
_cell_length_c	15.296720
_cell_angle_alpha	99.643705
_cell_angle_beta	91.617114
_cell_angle_gamma	80.333681
loop_
_atom_site_label
_atom_site_type_symbol
_atom_site_fract_x
_atom_site_fract_y
_atom_site_fract_z
Zn1	Zn	1.253296	-0.576346	-0.726580
Zn2	Zn	1.753296	-0.076346	-0.226580
Zn3	Zn	1.278539	-0.682980	-0.580092
Zn4	Zn	1.778539	-0.182980	-0.080092
Zn5	Zn	1.132181	-0.534744	-0.554822
Zn6	Zn	1.632181	-0.034744	-0.054822
Zn7	Zn	1.106767	-0.675701	-0.701220
Zn8	Zn	1.606767	-0.175701	-0.201220
O9	O	1.192696	-0.617443	-0.640678
O10	O	1.692696	-0.117443	-0.140678
O11	O	1.379219	-0.610949	-0.728336
O12	O	1.879219	-0.110949	-0.228336
O13	O	1.280325	-0.648952	-0.454165
O14	O	1.780325	-0.148952	0.045835
O15	O	1.148319	-0.436645	-0.577643
O16	O	1.648319	0.063355	-0.077643
O17	O	1.397765	-0.689292	-0.620712
O18	O	1.897765	-0.189292	-0.120712
O19	O	1.237301	-0.467210	-0.703833
O20	O	1.737301	0.032790	-0.203833
O21	O	1.172796	-0.540044	-0.435600
O22	O	1.672796	-0.040044	0.064400
O23	O	1.006236	-0.532985	-0.553053
O24	O	1.506236	-0.032985	-0.053053
O25	O	1.105004	-0.676885	-0.827159
O26	O	1.605004	-0.176885	-0.327159
O27	O	0.987564	-0.636545	-0.660612
O28	O	1.487564	-0.136545	-0.160612
O29	O	1.212658	-0.603890	-0.845790
O30	O	1.712658	-0.103890	-0.345790
O31	O	1.255681	-0.785632	-0.596122
O32	O	1.755681	-0.285632	-0.096122
O33	O	1.129481	-0.780284	-0.685115
O34	O	1.629481	-0.280284	-0.185115
C35	C	0.965117	-0.579462	-0.601339
C36	C	1.465117	-0.079462	-0.101339
C37	C	0.867755	-0.563233	-0.584530
C38	C	1.367755	-0.063233	-0.084530
C39	C	0.554578	-0.733434	-0.760815
C40	C	1.054578	-0.233434	-0.260815
C41	C	0.646055	-0.748686	-0.776605
C42	C	1.146055	-0.248686	-0.276605
C43	C	0.701484	-0.702324	-0.728588
C44	C	1.201484	-0.202324	-0.228588
C45	C	0.665428	-0.640708	-0.664778
C46	C	1.165428	-0.140708	-0.164778
C47	C	0.573942	-0.625457	-0.648981
C48	C	1.073942	-0.125457	-0.148981
C49	C	0.720849	-0.594348	-0.616754
C50	C	1.220849	-0.094348	-0.116754
C51	C	0.684792	-0.532731	-0.552944
C52	C	1.184792	-0.032731	-0.052944
C53	C	0.593315	-0.517483	-0.537151
C54	C	1.093315	-0.017483	-0.037151
C55	C	0.537886	-0.563845	-0.585167
C56	C	1.037886	-0.063845	-0.085167
C57	C	0.812334	-0.609598	-0.632551
C58	C	1.312334	-0.109598	-0.132551
C59	C	0.831699	-0.501621	-0.520717
C60	C	1.331699	-0.001621	-0.020717
C61	C	0.740221	-0.486369	-0.504927
C62	C	1.240221	0.013631	-0.004927
C63	C	1.192583	-0.809831	-0.640632
C64	C	1.692583	-0.309831	-0.140632
C65	C	1.192610	-0.892152	-0.640656
C66	C	1.692610	-0.392152	-0.140656
C67	C	1.192794	-1.191281	-0.640736
C68	C	1.692794	-0.691281	-0.140736
C69	C	1.113520	-1.156667	-0.696923
C70	C	1.613520	-0.656667	-0.196923
C71	C	1.113236	-1.070971	-0.696656
C72	C	1.613236	-0.570971	-0.196656
C73	C	1.192702	-1.042879	-0.640697
C74	C	1.692702	-0.542879	-0.140697
C75	C	1.183698	-1.059025	-0.544069
C76	C	1.683698	-0.559025	-0.044069
C77	C	1.183193	-1.144646	-0.544399
C78	C	1.683193	-0.644646	-0.044399
C79	C	1.281361	-1.177858	-0.680391
C80	C	1.781361	-0.677858	-0.180391
C81	C	1.280465	-1.092353	-0.682321
C82	C	1.780465	-0.592353	-0.182321
C83	C	1.192653	-0.959009	-0.640670
C84	C	1.692653	-0.459009	-0.140670
C85	C	1.192842	-1.275150	-0.640757
C86	C	1.692842	-0.775150	-0.140757
C87	C	1.421163	-0.655573	-0.680172
C88	C	1.921163	-0.155573	-0.180172
C89	C	1.518521	-0.671822	-0.697001
C90	C	2.018521	-0.171822	-0.197001
C91	C	1.153180	-0.644216	-0.869145
C92	C	1.653180	-0.144216	-0.369145
C93	C	1.136341	-0.655626	-0.966504
C94	C	1.636341	-0.155626	-0.466504
C95	C	1.192829	-0.424310	-0.640748
C96	C	1.692829	0.075690	-0.140748
C97	C	1.192886	-0.342008	-0.640777
C98	C	1.692886	0.157992	-0.140777
C99	C	1.313081	-0.535774	-1.279745
C100	C	1.813081	-0.035774	-0.779745
C101	C	1.328908	-0.525057	-1.188272
C102	C	1.828908	-0.025057	-0.688272
C103	C	1.280767	-0.557698	-1.132826
C104	C	1.780767	-0.057698	-0.632826
C105	C	1.216797	-0.601059	-1.168860
C106	C	1.716797	-0.101059	-0.668860
C107	C	1.200974	-0.611782	-1.260343
C108	C	1.700974	-0.111782	-0.760343
C109	C	1.168660	-0.633706	-1.113424
C110	C	1.668660	-0.133706	-0.613424
C111	C	1.104691	-0.677067	-1.149458
C112	C	1.604691	-0.177067	-0.649458
C113	C	1.088870	-0.687788	-1.240932
C114	C	1.588870	-0.187788	-0.740932
C115	C	1.137010	-0.655147	-1.296378
C116	C	1.637010	-0.155147	-0.796378
C117	C	1.184484	-0.622982	-1.021941
C118	C	1.684484	-0.122982	-0.521941
C119	C	1.072377	-0.698990	-1.002539
C120	C	1.572377	-0.198990	-0.502539
C121	C	1.056550	-0.709707	-1.094012
C122	C	1.556550	-0.209707	-0.594012
C123	C	1.232108	-0.590728	-0.413109
C124	C	1.732108	-0.090728	0.086891
C125	C	1.249117	-0.579139	-0.315780
C126	C	1.749117	-0.079139	0.184220
H127	H	0.710851	-0.436200	-0.452971
H128	H	1.210851	0.063800	0.047029
Br129	Br	1.004201	-1.170661	-0.651514
Br130	Br	1.504201	-0.670661	-0.151514
H131	H	1.293657	-0.548969	-1.058345
H132	H	1.793657	-0.048969	-0.558345
H133	H	1.124127	-0.663871	-1.370864
H134	H	1.624127	-0.163871	-0.870864
Br135	Br	0.825634	-0.723024	-0.750020
Br136	Br	1.325634	-0.223024	-0.250020
H137	H	1.117017	-1.060550	-0.767804
H138	H	1.617017	-0.560550	-0.267804
H139	H	0.876830	-0.463870	-0.481616
H140	H	1.376830	0.036130	0.018384
H141	H	1.341370	-1.074398	-0.645654
H142	H	1.841370	-0.574398	-0.145654
H143	H	0.675406	-0.798856	-0.828558
H144	H	1.175406	-0.298856	-0.328558
Br145	Br	1.415722	-0.466215	-1.139374
Br146	Br	1.915722	0.033785	-0.639374
Br147	Br	0.479355	-0.796363	-0.825950
Br148	Br	0.979355	-0.296363	-0.325950
Br149	Br	1.378417	-0.491492	-1.354997
Br150	Br	1.878417	0.008508	-0.854997
Br151	Br	1.119492	-1.208655	-0.815838
Br152	Br	1.619492	-0.708655	-0.315838
H153	H	1.047265	-1.037251	-0.669127
H154	H	1.547265	-0.537251	-0.169127
H155	H	1.036788	-0.723102	-1.270269
H156	H	1.536788	-0.223102	-0.770269
H157	H	1.118926	-1.151038	-0.512667
H158	H	1.618926	-0.651038	-0.012667
Br159	Br	0.969736	-0.768552	-1.142927
Br160	Br	1.469736	-0.268552	-0.642927
Br161	Br	1.276688	-1.182030	-0.470805
Br162	Br	1.776688	-0.682030	0.029195
H163	H	1.240326	-1.040504	-0.500364
H164	H	1.740326	-0.540504	-0.000364
H165	H	1.340226	-1.200698	-0.639662
H166	H	1.840226	-0.700698	-0.139662
H167	H	1.236568	-0.587677	-0.992611
H168	H	1.736568	-0.087677	-0.492611
Br169	Br	1.007047	-0.743299	-0.927299
Br170	Br	1.507047	-0.243299	-0.427299
H171	H	0.841682	-0.659767	-0.684506
H172	H	1.341682	-0.159767	-0.184506
H173	H	1.120211	-1.024067	-0.512101
H174	H	1.620211	-0.524067	-0.012101
H175	H	1.287546	-1.083109	-0.753513
H176	H	1.787546	-0.583109	-0.253513
Br177	Br	0.413730	-0.543141	-0.563748
Br178	Br	0.913730	-0.043141	-0.063748
H179	H	1.292687	-1.210974	-0.750493
H180	H	1.792687	-0.710974	-0.250493
Br181	Br	0.544384	-0.433867	-0.450541
Br182	Br	1.044384	0.066133	0.049459
