data_functionalizedCrystal
_audit_creation_method	'MofGen! by Chris Wilmer'
_symmetry_space_group_name_H-M	'P1'
_symmetry_Int_Tables_number	1
_symmetry_cell_setting	triclinic
loop_
_symmetry_equiv_pos_as_xyz
  x,y,z
_cell_length_a	14.472311
_cell_length_b	14.519709
_cell_length_c	14.519731
_cell_angle_alpha	83.684499
_cell_angle_beta	89.987543
_cell_angle_gamma	90.011835
loop_
_atom_site_label
_atom_site_type_symbol
_atom_site_fract_x
_atom_site_fract_y
_atom_site_fract_z
O1	O	0.076723	-1.223861	-0.120901
O2	O	0.576723	-0.723861	0.379099
O3	O	0.076751	-0.955385	-0.135137
O4	O	0.576751	-0.455385	0.364863
O5	O	0.076728	-1.096731	0.006218
O6	O	0.576728	-0.596731	0.506218
O7	O	0.076746	-1.082515	-0.262256
O8	O	0.576746	-0.582515	0.237744
O9	O	-0.076954	-1.096750	0.006244
O10	O	0.423046	-0.596750	0.506244
O11	O	-0.076931	-0.955404	-0.135111
O12	O	0.423069	-0.455404	0.364889
O13	O	-0.076959	-1.223880	-0.120875
O14	O	0.423041	-0.723880	0.379125
Cu15	Cu	-0.090977	-1.089644	-0.127991
Cu16	Cu	0.409023	-0.589644	0.372009
Cu17	Cu	0.090769	-1.089622	-0.128021
Cu18	Cu	0.590769	-0.589622	0.371979
O19	O	-0.076936	-1.082534	-0.262230
O20	O	0.423064	-0.582534	0.237770
C21	C	-0.000086	-0.921035	-0.134461
C22	C	0.499914	-0.421035	0.365539
C23	C	-0.000076	-0.818654	-0.132473
C24	C	0.499924	-0.318654	0.367527
N25	N	-0.218808	-1.089666	-0.127969
N26	N	0.281192	-0.589666	0.372031
N27	N	0.218600	-1.089607	-0.128036
N28	N	0.718600	-0.589607	0.371964
C29	C	0.592691	-1.089646	-0.127991
C30	C	1.092691	-0.589646	0.372009
C31	C	0.553538	-1.014096	-0.203709
C32	C	1.053538	-0.514096	0.296291
C33	C	0.446450	-1.013815	-0.203527
C34	C	0.946450	-0.513815	0.296473
C35	C	0.407100	-1.089626	-0.128014
C36	C	0.907100	-0.589626	0.371986
C37	C	0.445950	-1.068696	-0.031676
C38	C	0.945950	-0.568696	0.468324
C39	C	0.553071	-1.068164	-0.032107
C40	C	1.053071	-0.568164	0.467893
C41	C	0.553196	-1.186350	-0.147750
C42	C	1.053196	-0.686350	0.352250
C43	C	0.446069	-1.185697	-0.149949
C44	C	0.946069	-0.685697	0.350051
C45	C	0.302212	-1.089617	-0.128021
C46	C	0.802212	-0.589617	0.371979
C47	C	0.697580	-1.089654	-0.127977
C48	C	1.197580	-0.589654	0.372023
C49	C	-0.000113	-1.096075	0.040591
C50	C	0.499887	-0.596075	0.540591
C51	C	-0.000114	-1.094079	0.142971
C52	C	0.499886	-0.594079	0.642971
C53	C	-0.000120	-1.258230	-0.121551
C54	C	0.499880	-0.758230	0.378449
C55	C	-0.000124	-1.360612	-0.123539
C56	C	0.499876	-0.860612	0.376461
C57	C	-0.000118	-0.443757	-0.125153
C58	C	0.499882	0.056243	0.374847
C59	C	-0.000106	-0.548065	-0.127186
C60	C	0.499894	-0.048065	0.372814
C61	C	-0.000096	-0.631202	-0.128813
C62	C	0.499904	-0.131202	0.371187
C63	C	-0.000086	-0.735517	-0.130846
C64	C	0.499914	-0.235517	0.369154
C65	C	-0.000093	-1.083191	-0.296603
C66	C	0.499907	-0.583191	0.203397
C67	C	-0.000086	-1.085187	-0.398983
C68	C	0.499914	-0.585187	0.101017
C69	C	-0.000111	-1.092457	0.226115
C70	C	0.499889	-0.592457	0.726115
C71	C	-0.000104	-1.090430	0.330424
C72	C	0.499896	-0.590430	0.830424
C73	C	-0.000098	-1.088822	0.413563
C74	C	0.499902	-0.588822	0.913563
C75	C	-0.000092	-1.086795	0.517878
C76	C	0.499908	-0.586795	1.017878
H77	H	0.579319	-1.026350	-0.275539
H78	H	1.079319	-0.526350	0.224461
C79	C	0.515268	-0.859756	-0.172152
C80	C	1.015268	-0.359756	0.327848
C81	C	0.589879	-0.917756	-0.186863
C82	C	1.089879	-0.417756	0.313137
H83	H	0.537706	-0.800279	-0.161757
H84	H	1.037706	-0.300279	0.338243
H85	H	0.481173	-0.885461	-0.119598
H86	H	0.981173	-0.385461	0.380402
H87	H	0.476331	-0.854181	-0.225135
H88	H	0.976331	-0.354181	0.274865
H89	H	0.628812	-0.923336	-0.133877
H90	H	1.128812	-0.423336	0.366123
H91	H	0.623989	-0.892045	-0.239422
H92	H	1.123989	-0.392045	0.260578
H93	H	0.419123	-0.998979	-0.013913
H94	H	0.919123	-0.498979	0.486087
C95	C	0.437309	-1.250282	0.009294
C96	C	0.937309	-0.750282	0.509294
C97	C	0.409917	-1.265141	-0.080371
C98	C	0.909917	-0.765141	0.419629
H99	H	0.414994	-1.299329	0.052252
H100	H	0.914994	-0.799329	0.552252
H101	H	0.412670	-1.193130	0.024195
H102	H	0.912670	-0.693130	0.524195
H103	H	0.502841	-1.248325	0.012246
H104	H	1.002841	-0.748325	0.512246
H105	H	0.344384	-1.267092	-0.083326
H106	H	0.844384	-0.767092	0.416674
H107	H	0.434552	-1.322308	-0.095276
H108	H	0.934552	-0.822308	0.404724
C109	C	0.555534	-1.116220	0.131480
C110	C	1.055534	-0.616220	0.631480
C111	C	0.588067	-1.139622	0.046256
C112	C	1.088067	-0.639622	0.546256
H113	H	0.577149	-1.160329	0.179854
H114	H	1.077149	-0.660329	0.679854
H115	H	0.489905	-1.116077	0.131221
H116	H	0.989905	-0.616077	0.631221
H117	H	0.577501	-1.056386	0.141167
H118	H	1.077501	-0.556386	0.641167
H119	H	0.566094	-1.199454	0.036566
H120	H	1.066094	-0.699454	0.536566
H121	H	0.653710	-1.139775	0.046514
H122	H	1.153710	-0.639775	0.546514
H123	H	0.420458	-1.122259	0.026034
H124	H	0.920458	-0.622259	0.526034
C125	C	0.515223	-1.224771	-0.299894
C126	C	1.015223	-0.724771	0.200106
C127	C	0.589679	-1.213543	-0.240578
C128	C	1.089679	-0.713543	0.259422
H129	H	0.537746	-1.241558	-0.357202
H130	H	1.037746	-0.741558	0.142798
H131	H	0.481886	-1.168254	-0.310436
H132	H	0.981886	-0.668254	0.189564
H133	H	0.475549	-1.272129	-0.272275
H134	H	0.975549	-0.772129	0.227725
H135	H	0.629350	-1.166180	-0.268195
H136	H	1.129350	-0.666180	0.231805
H137	H	0.623030	-1.270067	-0.230039
H138	H	1.123030	-0.770067	0.269961
H139	H	0.420186	-1.026270	-0.275125
H140	H	0.920186	-0.526270	0.224875
C141	C	0.684068	-1.265344	-0.074598
C142	C	1.184068	-0.765344	0.425402
C143	C	0.587380	-1.262256	-0.073230
C144	C	1.087380	-0.762256	0.426770
H145	H	0.705174	-1.312206	-0.028596
H146	H	1.205174	-0.812206	0.471404
H147	H	0.708146	-1.207083	-0.062288
H148	H	1.208146	-0.707083	0.437712
H149	H	0.704456	-1.278855	-0.133837
H150	H	1.204456	-0.778855	0.366163
H151	H	0.566993	-1.248739	-0.013993
H152	H	1.066993	-0.748739	0.486007
H153	H	0.563293	-1.320531	-0.085533
H154	H	1.063293	-0.820531	0.414467
H155	H	0.420834	-0.942048	-0.190867
H156	H	0.920834	-0.442048	0.309133
H157	H	0.578065	-0.997641	-0.014756
H158	H	1.078065	-0.497641	0.485244
H159	H	0.420695	-1.201574	-0.220828
H160	H	0.920695	-0.701574	0.279172
