data_functionalizedCrystal
_audit_creation_method	'MofGen! by Chris Wilmer'
_symmetry_space_group_name_H-M	'P1'
_symmetry_Int_Tables_number	1
_symmetry_cell_setting	triclinic
loop_
_symmetry_equiv_pos_as_xyz
  x,y,z
_cell_length_a	10.654562
_cell_length_b	15.944551
_cell_length_c	9.130313
_cell_angle_alpha	89.997799
_cell_angle_beta	89.996930
_cell_angle_gamma	83.994421
loop_
_atom_site_label
_atom_site_type_symbol
_atom_site_fract_x
_atom_site_fract_y
_atom_site_fract_z
O1	O	1.666298	0.118023	-0.121899
O2	O	1.300676	0.129252	-0.121881
O3	O	1.493471	0.001421	-0.121878
O4	O	1.473503	0.245855	-0.121903
O5	O	1.493469	0.001425	0.121721
O6	O	1.300674	0.129256	0.121718
O7	O	1.666295	0.118027	0.121700
Cu8	Cu	1.483484	0.123642	0.143951
Cu9	Cu	1.483487	0.123638	-0.144133
O10	O	1.473500	0.245858	0.121696
C11	C	1.253888	0.128427	-0.000079
C12	C	1.114477	0.125954	-0.000072
C13	C	1.048960	0.124802	0.132702
C14	C	0.917968	0.122485	0.132678
C15	C	0.918021	0.122475	-0.132907
C16	C	1.049012	0.124786	-0.132881
C17	C	1.114426	0.125970	0.265511
C18	C	1.048908	0.124819	0.398296
C19	C	0.917916	0.122502	0.398272
C20	C	0.852441	0.121335	0.265463
C21	C	1.492641	-0.029876	-0.000078
C22	C	1.490156	-0.123136	-0.000077
C23	C	1.364712	-0.338723	-0.000091
C24	C	1.422963	-0.399400	0.120015
C25	C	1.485660	-0.293888	-0.000088
C26	C	1.422993	-0.399386	-0.120154
C27	C	1.481308	-0.458826	-0.000105
C28	C	1.543944	-0.353337	0.120117
C29	C	1.543958	-0.353317	-0.120160
C30	C	1.602296	-0.413976	-0.000024
C31	C	1.488163	-0.198872	-0.000077
C32	C	1.478814	-0.553842	-0.000105
C33	C	1.713084	0.118852	-0.000105
C34	C	1.852494	0.121325	-0.000122
C35	C	1.474330	0.277155	-0.000107
C36	C	1.476816	0.370416	-0.000118
N37	N	1.483491	0.123644	0.346574
N38	N	1.483490	0.123629	-0.346755
C39	C	1.568883	0.067060	0.423227
C40	C	1.568879	0.067050	0.576564
C41	C	1.398089	0.180216	0.576580
C42	C	1.398088	0.180221	0.423246
C43	C	1.654287	0.010483	0.346555
C44	C	1.739686	-0.046105	0.423209
C45	C	1.739683	-0.046115	0.576546
C46	C	1.654280	0.010463	0.653229
H47	H	1.264320	-0.305999	0.000034
N48	N	1.831789	-0.107142	0.659226
H49	H	1.887376	-0.074689	0.722843
H50	H	1.783721	-0.144627	0.722762
H51	H	1.654276	0.010444	0.778086
N52	N	1.305996	0.241242	0.659286
H53	H	1.251898	0.277090	0.587457
H54	H	1.250485	0.208734	0.722910
H55	H	0.745779	0.119446	0.265454
N56	N	1.305988	0.241254	0.340568
H57	H	1.353972	0.278746	0.276943
H58	H	1.250412	0.208745	0.277040
N59	N	1.611666	-0.326245	-0.254662
H60	H	1.700907	-0.354735	-0.255629
H61	H	1.565804	-0.342812	-0.345271
N62	N	1.119689	0.126025	-0.276083
H63	H	1.058341	0.124940	-0.360221
H64	H	1.163877	0.178961	-0.281864
H65	H	1.221086	0.127860	0.265546
H66	H	1.371823	-0.419762	-0.221701
N67	N	0.847249	0.121249	0.541480
H68	H	0.908603	0.122339	0.625611
H69	H	0.782730	0.172267	0.547246
N70	N	1.611614	-0.326465	0.254791
H71	H	1.640620	-0.377715	0.315742
H72	H	1.687138	-0.297290	0.224238
N73	N	1.654281	0.010498	0.181173
H74	H	1.739597	0.023260	0.144235
H75	H	1.635968	-0.046696	0.144345
H76	H	1.702777	-0.446550	0.000038
H77	H	0.864700	0.121527	-0.241034
N78	N	1.355217	-0.426423	0.254537
H79	H	1.265486	-0.398782	0.254459
H80	H	1.354853	-0.489738	0.253961
N81	N	1.119512	0.126074	0.541538
H82	H	1.184030	0.075060	0.547479
H83	H	1.163609	0.179047	0.547376
H84	H	1.809211	-0.092174	0.360765
