data_functionalizedCrystal
_audit_creation_method	'MofGen! by Chris Wilmer'
_symmetry_space_group_name_H-M	'P1'
_symmetry_Int_Tables_number	1
_symmetry_cell_setting	triclinic
loop_
_symmetry_equiv_pos_as_xyz
  x,y,z
_cell_length_a	11.792254
_cell_length_b	10.540539
_cell_length_c	10.868271
_cell_angle_alpha	89.999271
_cell_angle_beta	90.004308
_cell_angle_gamma	84.362045
loop_
_atom_site_label
_atom_site_type_symbol
_atom_site_fract_x
_atom_site_fract_y
_atom_site_fract_z
O1	O	1.507354	0.174062	0.102315
O2	O	2.007354	0.674062	0.602315
O3	O	1.177061	0.191976	0.102317
O4	O	1.677061	0.691976	0.602317
O5	O	1.349743	-0.001712	0.102314
O6	O	1.849743	0.498288	0.602314
O7	O	1.334672	0.367750	0.102318
O8	O	1.834672	0.867750	0.602318
O9	O	1.349727	-0.001705	-0.102330
O10	O	1.849727	0.498295	0.397670
O11	O	1.177045	0.191983	-0.102328
O12	O	1.677045	0.691983	0.397672
O13	O	1.507338	0.174068	-0.102330
O14	O	2.007338	0.674068	0.397670
Zn15	Zn	1.342189	0.183026	-0.134820
Zn16	Zn	1.842189	0.683026	0.365180
Zn17	Zn	1.342210	0.183018	0.134808
Zn18	Zn	1.842210	0.683018	0.634808
O19	O	1.334656	0.367756	-0.102327
O20	O	1.834656	0.867756	0.397673
C21	C	1.134760	0.190851	-0.000005
C22	C	1.634760	0.690851	0.499995
C23	C	1.008738	0.187473	-0.000004
C24	C	1.508738	0.687473	0.499996
C25	C	0.906394	0.184729	0.000001
C26	C	1.406394	0.684729	0.500001
C27	C	0.777999	0.181297	0.000002
C28	C	1.277999	0.681297	0.500002
C29	C	1.348605	-0.049008	-0.000006
C30	C	1.848605	0.450992	0.499994
C31	C	1.345223	-0.189945	0.000001
C32	C	1.845223	0.310055	0.500001
C33	C	1.215653	-0.372957	0.000461
C34	C	1.715653	0.127043	0.500461
C35	C	1.219081	-0.226349	0.000000
C36	C	1.719081	0.273651	0.500000
C37	C	1.405920	-0.251794	-0.116862
C38	C	1.905920	0.248206	0.383138
C39	C	1.401615	-0.398325	-0.116960
C40	C	1.901615	0.101675	0.383040
C41	C	1.404198	-0.398858	0.115759
C42	C	1.904198	0.101142	0.615759
C43	C	1.405360	-0.251880	0.117304
C44	C	1.905360	0.248120	0.617304
C45	C	1.549639	0.175193	-0.000005
C46	C	2.049639	0.675193	0.499995
C47	C	1.675661	0.178571	0.000002
C48	C	2.175661	0.678571	0.500002
C49	C	1.335794	0.415052	-0.000004
C50	C	1.835794	0.915052	0.499996
C51	C	1.339176	0.555989	-0.000003
C52	C	1.839176	1.055989	0.499997
N53	N	1.342183	0.183031	-0.318834
N54	N	1.842183	0.683031	0.181166
C55	C	1.342192	0.183032	-0.430172
C56	C	1.842192	0.683032	0.069828
C57	C	1.342207	0.183020	-0.569850
C58	C	1.842207	0.683020	-0.069850
N59	N	1.342225	0.183003	0.318822
N60	N	1.842225	0.683003	0.818822
H61	H	1.171321	-0.183596	0.083772
H62	H	1.671321	0.316404	0.583772
F63	F	1.350837	-0.439918	0.231534
F64	F	1.850837	0.060082	0.731534
F65	F	1.347767	-0.197699	0.230320
F66	F	1.847767	0.302301	0.730320
H67	H	1.498555	-0.229737	-0.121207
H68	H	1.998555	0.270263	0.378793
H69	H	1.363744	-0.209056	-0.203826
H70	H	1.863744	0.290944	0.296174
H71	H	1.497328	-0.227954	0.124361
H72	H	1.997328	0.272046	0.624361
F73	F	1.150527	-0.410130	0.110001
F74	F	1.650527	0.089870	0.610001
H75	H	1.495311	-0.446376	0.116545
H76	H	1.995311	0.053624	0.616545
H77	H	1.166020	-0.403002	-0.082873
H78	H	1.666020	0.096998	0.417127
H79	H	1.170973	-0.184437	-0.083910
H80	H	1.670973	0.315563	0.416090
F81	F	1.342961	-0.434995	-0.231138
F82	F	1.842961	0.065005	0.268862
F83	F	1.520189	-0.461407	-0.123903
F84	F	2.020189	0.038593	0.376097
