data_functionalizedCrystal
_audit_creation_method	'MofGen! by Chris Wilmer'
_symmetry_space_group_name_H-M	'P1'
_symmetry_Int_Tables_number	1
_symmetry_cell_setting	triclinic
loop_
_symmetry_equiv_pos_as_xyz
  x,y,z
_cell_length_a	23.532355
_cell_length_b	23.532357
_cell_length_c	8.965430
_cell_angle_alpha	89.994894
_cell_angle_beta	90.002043
_cell_angle_gamma	82.827896
loop_
_atom_site_label
_atom_site_type_symbol
_atom_site_fract_x
_atom_site_fract_y
_atom_site_fract_z
O1	O	0.755266	0.068992	-0.123854
O2	O	0.589397	0.079026	-0.123904
O3	O	0.677348	-0.008926	-0.123847
O4	O	0.667315	0.156943	-0.123911
O5	O	0.677341	-0.008920	0.124232
O6	O	0.589389	0.079032	0.124175
O7	O	0.755259	0.068997	0.124225
Cu8	Cu	0.672323	0.074015	0.146851
Cu9	Cu	0.672332	0.074008	-0.146531
O10	O	0.667308	0.156949	0.124167
C11	C	0.568177	0.078778	0.000129
C12	C	0.504958	0.078024	0.000112
C13	C	0.112941	0.073289	0.135404
C14	C	0.053542	0.072571	0.135410
O15	O	0.022820	0.072184	0.250414
N16	N	0.023837	0.072212	0.000182
C17	C	0.053536	0.072565	-0.135060
O18	O	0.022816	0.072193	-0.250080
C19	C	0.112935	0.073279	-0.135064
C20	C	0.142636	0.073643	0.000172
C21	C	0.142642	0.073653	0.270629
C22	C	0.202037	0.074371	0.270622
C23	C	0.231731	0.074726	0.135390
C24	C	0.202031	0.074362	0.000165
C25	C	0.142633	0.073627	-0.270305
C26	C	0.202036	0.074340	-0.270297
C27	C	0.231737	0.074705	-0.135061
C28	C	0.291120	0.075435	-0.135073
N29	N	0.320824	0.075794	0.000154
C30	C	0.291130	0.075439	0.135386
C31	C	-0.071205	0.071066	-0.135040
C32	C	-0.130603	0.070357	-0.135037
C33	C	-0.130593	0.070362	0.135433
C34	C	-0.071195	0.071075	0.135428
C35	C	-0.041501	0.071425	0.000187
C36	C	0.415864	0.076949	0.135362
C37	C	0.475264	0.077670	0.135343
C38	C	0.475249	0.077661	-0.135126
C39	C	0.415854	0.076943	-0.135108
C40	C	0.386163	0.076585	0.000148
O41	O	0.321880	0.075820	-0.250019
O42	O	0.321858	0.075803	0.250387
C43	C	0.677094	-0.030140	0.000197
C44	C	0.676339	-0.093358	0.000211
C45	C	0.671606	-0.485372	-0.135099
C46	C	0.670889	-0.544771	-0.135108
O47	O	0.670502	-0.575490	-0.250114
N48	N	0.670529	-0.574479	0.000118
C49	C	0.670881	-0.544784	0.135361
O50	O	0.670509	-0.575507	0.250381
C51	C	0.671594	-0.485385	0.135369
C52	C	0.671960	-0.455681	0.000134
C53	C	0.671971	-0.455667	-0.270323
C54	C	0.672689	-0.396272	-0.270313
C55	C	0.673043	-0.366581	-0.135080
C56	C	0.672678	-0.396286	0.000143
C57	C	0.671942	-0.455690	0.270610
C58	C	0.672655	-0.396287	0.270606
C59	C	0.673020	-0.366583	0.135371
C60	C	0.673750	-0.307200	0.135385
N61	N	0.674109	-0.277492	0.000160
C62	C	0.673756	-0.307183	-0.135073
C63	C	0.669382	-0.669525	0.135336
C64	C	0.668673	-0.728923	0.135331
C65	C	0.668680	-0.728906	-0.135139
C66	C	0.669393	-0.669507	-0.135132
C67	C	0.669742	-0.639817	0.000110
C68	C	0.675265	-0.182449	-0.135044
C69	C	0.675986	-0.123049	-0.135022
C70	C	0.675976	-0.123071	0.135447
C71	C	0.675258	-0.182466	0.135426
C72	C	0.674901	-0.212153	0.000169
O73	O	0.674135	-0.276443	0.250333
O74	O	0.674121	-0.276451	-0.250073
C75	C	0.776479	0.069245	0.000188
C76	C	0.839698	0.069999	0.000196
C77	C	0.667562	0.178163	0.000120
C78	C	0.668317	0.241381	0.000097
N79	N	0.672321	0.074020	0.353200
N80	N	0.672339	0.073999	-0.352880
C81	C	0.631635	0.114681	0.450480
C82	C	0.683036	0.125432	0.549904
C83	C	0.620942	0.063274	0.549904
C84	C	0.723749	0.084796	0.450436
C85	C	0.661621	0.022615	0.450426
C86	C	0.713059	0.033344	0.549806
H87	H	-0.047033	0.071356	-0.245176
H88	H	0.672930	-0.372115	0.380739
C89	C	0.562231	0.051003	0.608923
N90	N	0.518009	0.041765	0.653371
H91	H	0.669690	-0.645326	-0.245252
H92	H	-0.154782	0.070069	-0.245160
C93	C	0.507931	0.078068	0.284119
N94	N	0.532534	0.078366	0.396175
H95	H	0.668390	-0.753091	-0.245254
H96	H	0.668384	-0.753104	0.245452
H97	H	0.226214	0.074665	0.380745
C98	C	-0.038529	0.071471	0.284197
N99	N	-0.013928	0.071767	0.396256
H100	H	0.674966	-0.206653	0.245545
C101	C	0.782471	0.097136	0.391663
N102	N	0.826698	0.106434	0.347391
C103	C	0.676359	-0.090398	0.284196
N104	N	0.676641	-0.065787	0.396235
H105	H	0.652542	-0.020833	0.406697
H106	H	0.391696	0.076662	0.245500
C107	C	0.109986	0.073271	0.419408
N108	N	0.085393	0.072990	0.531478
C109	C	0.674882	-0.215098	-0.283833
N110	N	0.674599	-0.239689	-0.395902
H111	H	0.118461	0.073330	-0.380428
H112	H	-0.154781	0.070072	0.245546
C113	C	0.676386	-0.090378	-0.283797
N114	N	0.676686	-0.065771	-0.395852
H115	H	0.669668	-0.645355	0.245473
C116	C	0.695276	0.184146	0.608951
N117	N	0.704491	0.228371	0.653425
H118	H	0.747512	-0.001053	0.593143
C119	C	0.671532	-0.488350	0.419382
N120	N	0.671221	-0.512949	0.531446
C121	C	0.673085	-0.363605	-0.419084
N122	N	0.673380	-0.339003	-0.531146
C123	C	0.234696	0.074727	-0.419077
N124	N	0.259293	0.075020	-0.531138
C125	C	0.585197	0.161176	0.391544
N126	N	0.550224	0.196198	0.347149
H127	H	0.391669	0.076656	-0.245228
H128	H	0.671681	-0.479835	-0.380452
H129	H	0.499437	0.077952	-0.245228
