data_functionalizedCrystal
_audit_creation_method	'MofGen! by Chris Wilmer'
_symmetry_space_group_name_H-M	'P1'
_symmetry_Int_Tables_number	1
_symmetry_cell_setting	triclinic
loop_
_symmetry_equiv_pos_as_xyz
  x,y,z
_cell_length_a	17.077404
_cell_length_b	19.805405
_cell_length_c	17.077396
_cell_angle_alpha	89.971037
_cell_angle_beta	89.980499
_cell_angle_gamma	90.026951
loop_
_atom_site_label
_atom_site_type_symbol
_atom_site_fract_x
_atom_site_fract_y
_atom_site_fract_z
Zn1	Zn	1.200034	-0.269459	-0.443840
Zn2	Zn	1.533367	0.063874	-0.110507
Zn3	Zn	1.866700	0.397208	0.222827
Zn4	Zn	1.199932	-0.382652	-0.312573
Zn5	Zn	1.533265	-0.049319	0.020760
Zn6	Zn	1.866599	0.284015	0.354094
Zn7	Zn	1.068765	-0.269483	-0.312588
Zn8	Zn	1.402099	0.063850	0.020745
Zn9	Zn	1.735432	0.397184	0.354079
Zn10	Zn	1.068725	-0.382612	-0.443797
Zn11	Zn	1.402058	-0.049279	-0.110463
Zn12	Zn	1.735391	0.284055	0.222870
O13	O	1.134364	-0.326052	-0.378199
O14	O	1.467697	0.007282	-0.044866
O15	O	1.801031	0.340615	0.288467
O16	O	1.309867	-0.284481	-0.426439
O17	O	1.643200	0.048852	-0.093106
O18	O	1.976534	0.382185	0.240228
O19	O	1.182507	-0.367667	-0.202728
O20	O	1.515840	-0.034333	0.130605
O21	O	1.849174	0.299000	0.463939
O22	O	1.086238	-0.174763	-0.330023
O23	O	1.419571	0.158570	0.003310
O24	O	1.752905	0.491904	0.336643
O25	O	1.309792	-0.367644	-0.329998
O26	O	1.643126	-0.034310	0.003336
O27	O	1.976459	0.299023	0.336669
O28	O	1.182680	-0.174746	-0.426454
O29	O	1.516014	0.158588	-0.093120
O30	O	1.849347	0.491921	0.240213
O31	O	1.086140	-0.284522	-0.202739
O32	O	1.419473	0.048812	0.130594
O33	O	1.752806	0.382145	0.463928
O34	O	0.958913	-0.284483	-0.329981
O35	O	1.292247	0.048851	0.003352
O36	O	1.625580	0.382184	0.336685
O37	O	1.086169	-0.367575	-0.553649
O38	O	1.419502	-0.034242	-0.220316
O39	O	1.752835	0.299091	0.113017
O40	O	0.958883	-0.367598	-0.426380
O41	O	1.292217	-0.034265	-0.093046
O42	O	1.625550	0.299068	0.240287
O43	O	1.182641	-0.284442	-0.553681
O44	O	1.515974	0.048891	-0.220348
O45	O	1.849307	0.382224	0.112985
O46	O	1.182467	-0.477363	-0.329956
O47	O	1.515801	-0.144030	0.003378
O48	O	1.849134	0.189303	0.336711
O49	O	1.086070	-0.477334	-0.426365
O50	O	1.419403	-0.144001	-0.093032
O51	O	1.752737	0.189333	0.240302
C52	C	0.930416	-0.326039	-0.378178
C53	C	1.263749	0.007294	-0.044844
C54	C	1.597083	0.340627	0.288489
C55	C	0.843166	-0.326050	-0.378187
C56	C	1.176500	0.007283	-0.044854
C57	C	1.509833	0.340616	0.288480
C58	C	0.802181	-0.369394	-0.428301
C59	C	1.135514	-0.036060	-0.094968
C60	C	1.468848	0.297273	0.238365
C61	C	0.720201	-0.369395	-0.428314
C62	C	1.053534	-0.036062	-0.094980
C63	C	1.386867	0.297271	0.238353
C64	C	0.679207	-0.326056	-0.378208
C65	C	1.012540	0.007277	-0.044874
C66	C	1.345874	0.340611	0.288459
C67	C	0.720198	-0.282708	-0.328091
C68	C	1.053531	0.050625	0.005242
C69	C	1.386865	0.383959	0.338575
C70	C	0.802177	-0.282703	-0.328083
C71	C	1.135510	0.050630	0.005250
C72	C	1.468843	0.383963	0.338583
C73	C	0.549328	-0.282721	-0.328110
C74	C	0.882661	0.050612	0.005223
C75	C	1.215994	0.383945	0.338556
C76	C	0.467343	-0.282726	-0.328117
C77	C	0.800677	0.050607	0.005216
C78	C	1.134010	0.383940	0.338550
C79	C	0.467352	-0.369413	-0.428341
C80	C	0.800685	-0.036080	-0.095007
C81	C	1.134018	0.297254	0.238326
C82	C	0.549331	-0.369409	-0.428333
C83	C	0.882664	-0.036075	-0.094999
C84	C	1.215997	0.297258	0.238334
C85	C	0.590316	-0.326061	-0.378215
C86	C	0.923649	0.007272	-0.044882
C87	C	1.256983	0.340606	0.288452
C88	C	1.134275	-0.501908	-0.378171
C89	C	1.467608	-0.168574	-0.044838
C90	C	1.800941	0.164759	0.288496
C91	C	1.134308	-0.577140	-0.378185
C92	C	1.467641	-0.243806	-0.044852
C93	C	1.800975	0.089527	0.288482
C94	C	1.184496	-0.612416	-0.428436
C95	C	1.517829	-0.279083	-0.095102
C96	C	1.851162	0.054250	0.238231
C97	C	1.184524	-0.683105	-0.428450
C98	C	1.517857	-0.349771	-0.095117
C99	C	1.851191	-0.016438	0.238216
C100	C	1.134368	-0.718515	-0.378210
C101	C	1.467701	-0.385182	-0.044876
C102	C	1.801035	-0.051848	0.288457
C103	C	1.084175	-0.683233	-0.327957
C104	C	1.417508	-0.349900	0.005376
C105	C	1.750841	-0.016567	0.338710
C106	C	1.084143	-0.612546	-0.327947
C107	C	1.417476	-0.279213	0.005386
C108	C	1.750810	0.054120	0.338720
C109	C	1.084301	-0.968307	-0.327997
C110	C	1.417634	-0.634973	0.005336
C111	C	1.750968	-0.301640	0.338670
C112	C	1.084338	-1.038999	-0.328009
C113	C	1.417671	-0.705665	0.005324
C114	C	1.751005	-0.372332	0.338657
C115	C	1.184682	-1.038865	-0.428501
C116	C	1.518015	-0.705532	-0.095167
C117	C	1.851349	-0.372199	0.238166
C118	C	1.184650	-0.968178	-0.428491
C119	C	1.517984	-0.634845	-0.095157
C120	C	1.851317	-0.301511	0.238176
C121	C	1.134454	-0.932902	-0.378241
C122	C	1.467788	-0.599569	-0.044908
C123	C	1.801121	-0.266236	0.288426
C124	C	1.134423	-0.856254	-0.378227
C125	C	1.467757	-0.522921	-0.044893
C126	C	1.801090	-0.189587	0.288440
C127	C	1.134403	-0.795162	-0.378219
C128	C	1.467736	-0.461829	-0.044886
C129	C	1.801069	-0.128496	0.288447
C130	C	1.339108	-0.326064	-0.378222
C131	C	1.672442	0.007269	-0.044888
C132	C	2.005775	0.340602	0.288445
C133	C	1.426358	-0.326070	-0.378231
C134	C	1.759691	0.007264	-0.044898
C135	C	2.093025	0.340597	0.288436
C136	C	1.134411	-0.326002	-0.582944
C137	C	1.467745	0.007332	-0.249610
C138	C	1.801078	0.340665	0.083723
C139	C	1.134432	-0.325980	-0.670194
C140	C	1.467765	0.007353	-0.336860
C141	C	1.801098	0.340686	-0.003527
C142	C	1.134475	-0.149509	-0.378245
C143	C	1.467808	0.183825	-0.044912
C144	C	1.801142	0.517158	0.288422
C145	C	1.134523	-0.074277	-0.378265
C146	C	1.467856	0.259057	-0.044931
C147	C	1.801189	0.592390	0.288402
C148	C	1.184667	-0.282689	-0.711202
C149	C	1.518000	0.050644	-0.377868
C150	C	1.851333	0.383977	-0.044535
C151	C	1.184676	-0.282667	-0.793182
C152	C	1.518009	0.050666	-0.459849
C153	C	1.851343	0.384000	-0.126516
C154	C	1.134454	-0.325939	-0.834153
C155	C	1.467787	0.007394	-0.500820
C156	C	1.801121	0.340727	-0.167486
C157	C	1.084214	-0.369232	-0.793139
C158	C	1.417547	-0.035899	-0.459806
C159	C	1.750880	0.297435	-0.126473
C160	C	1.084201	-0.369251	-0.711160
C161	C	1.417534	-0.035917	-0.377827
C162	C	1.750867	0.297416	-0.044494
C163	C	1.084245	-0.369191	-0.964009
C164	C	1.417579	-0.035858	-0.630676
C165	C	1.750912	0.297475	-0.297343
C166	C	1.084259	-0.369174	-1.045994
C167	C	1.417592	-0.035840	-0.712661
C168	C	1.750925	0.297493	-0.379327
C169	C	1.184720	-0.282608	-1.046031
C170	C	1.518054	0.050726	-0.712698
C171	C	1.851387	0.384059	-0.379365
C172	C	1.184708	-0.282626	-0.964052
C173	C	1.518041	0.050707	-0.630719
C174	C	1.851374	0.384040	-0.297386
C175	C	1.134468	-0.325920	-0.923044
C176	C	1.467801	0.007413	-0.589711
C177	C	1.801135	0.340747	-0.256378
C178	C	1.134362	-0.326052	-0.174252
C179	C	1.467695	0.007281	0.159082
C180	C	1.801028	0.340614	0.492415
C181	C	1.134494	-0.325883	-0.087002
C182	C	1.467827	0.007450	0.246331
C183	C	1.801160	0.340784	0.579664
H184	H	0.835546	-0.247405	-0.287279
H185	H	1.168879	0.085928	0.046054
H186	H	1.502213	0.419261	0.379387
H187	H	1.043274	-0.583824	-0.287029
H188	H	1.376608	-0.250491	0.046305
H189	H	1.709941	0.082842	0.379638
H190	H	1.043334	-0.712070	-0.287053
H191	H	1.376667	-0.378737	0.046280
H192	H	1.710000	-0.045403	0.379613
O193	O	0.593537	-0.235968	-0.274056
O194	O	0.926871	0.097365	0.059277
O195	O	1.260204	0.430698	0.392610
H196	H	0.630859	-0.266220	-0.234060
H197	H	0.964192	0.067113	0.099273
H198	H	1.297526	0.400446	0.432606
H199	H	1.043322	-0.404435	-0.930623
H200	H	1.376656	-0.071102	-0.597290
H201	H	1.709989	0.262231	-0.263956
H202	H	1.043362	-0.404408	-1.079350
H203	H	1.376695	-0.071075	-0.746017
H204	H	1.710029	0.262258	-0.412684
O205	O	0.675976	-0.235980	-0.274035
O206	O	1.009309	0.097353	0.059299
O207	O	1.342642	0.430686	0.392632
H208	H	0.638641	-0.201589	-0.309231
H209	H	0.971975	0.131745	0.024103
H210	H	1.305308	0.465078	0.357436
O211	O	1.238909	-0.235910	-1.090256
O212	O	1.572242	0.097423	-0.756922
O213	O	1.905576	0.430757	-0.423589
H214	H	1.225485	-0.182791	-1.074524
H215	H	1.558819	0.150542	-0.741191
H216	H	1.892152	0.483875	-0.407858
H217	H	1.225342	-0.583590	-0.469344
H218	H	1.558675	-0.250257	-0.136011
H219	H	1.892009	0.083077	0.197323
H220	H	0.433977	-0.404706	-0.469150
H221	H	0.767311	-0.071373	-0.135817
H222	H	1.100644	0.261960	0.197516
H223	H	1.043319	-0.404463	-0.826504
H224	H	1.376652	-0.071129	-0.493171
H225	H	1.709986	0.262204	-0.159838
H226	H	1.225398	-0.711824	-0.469363
H227	H	1.558731	-0.378491	-0.136030
H228	H	1.892065	-0.045157	0.197303
H229	H	1.043286	-0.404496	-0.677773
H230	H	1.376620	-0.071162	-0.344439
H231	H	1.709953	0.262171	-0.011106
H232	H	1.225495	-0.939349	-0.469398
H233	H	1.558828	-0.606016	-0.136065
H234	H	1.892161	-0.272682	0.197268
O235	O	1.238813	-1.076911	-0.482715
O236	O	1.572146	-0.743578	-0.149381
O237	O	1.905479	-0.410244	0.183952
H238	H	1.230404	-1.132013	-0.474293
H239	H	1.563737	-0.798680	-0.140960
H240	H	1.897070	-0.465347	0.192374
H241	H	1.043491	-1.067828	-0.287096
H242	H	1.376825	-0.734494	0.046237
H243	H	1.710158	-0.401161	0.379570
O244	O	0.593548	-0.416148	-0.482379
O245	O	0.926881	-0.082815	-0.149046
O246	O	1.260215	0.250519	0.184287
H247	H	0.577783	-0.469258	-0.468817
H248	H	0.911116	-0.135924	-0.135484
H249	H	1.244449	0.197409	0.197850
O250	O	0.846395	-0.416136	-0.482348
O251	O	1.179729	-0.082802	-0.149014
O252	O	1.513062	0.250531	0.184319
H253	H	0.804119	-0.446269	-0.517203
H254	H	1.137453	-0.112936	-0.183870
H255	H	1.470786	0.220397	0.149463
O256	O	1.030180	-0.930262	-0.273787
O257	O	1.363513	-0.596929	0.059547
O258	O	1.696847	-0.263596	0.392880
H259	H	0.995321	-0.966763	-0.238844
H260	H	1.328655	-0.633430	0.094489
H261	H	1.661988	-0.300097	0.427822
H262	H	0.686834	-0.404691	-0.469121
H263	H	1.020167	-0.071357	-0.135788
H264	H	1.353501	0.261976	0.197546
O265	O	0.423123	-0.235977	-0.274084
O266	O	0.756457	0.097357	0.059249
O267	O	1.089790	0.430690	0.392582
H268	H	0.465394	-0.205825	-0.239243
H269	H	0.798727	0.127509	0.094090
H270	H	1.132060	0.460842	0.427424
O271	O	1.238838	-0.236020	-0.667011
O272	O	1.572172	0.097313	-0.333678
O273	O	1.905505	0.430646	-0.000345
H274	H	1.225408	-0.182893	-0.682751
H275	H	1.558741	0.150440	-0.349418
H276	H	1.892074	0.483774	-0.016085
O277	O	1.238862	-0.235979	-0.837416
O278	O	1.572195	0.097354	-0.504082
O279	O	1.905529	0.430688	-0.170749
H280	H	1.273790	-0.205900	-0.795153
H281	H	1.607124	0.127433	-0.461820
H282	H	1.940457	0.460767	-0.128487
O283	O	1.238878	-0.235959	-0.919857
O284	O	1.572211	0.097374	-0.586524
O285	O	1.905544	0.430708	-0.253190
H286	H	1.273810	-0.205847	-0.962143
H287	H	1.607144	0.127486	-0.628810
H288	H	1.940477	0.460819	-0.295477
