data_functionalizedCrystal
_audit_creation_method	'MofGen! by Chris Wilmer'
_symmetry_space_group_name_H-M	'P1'
_symmetry_Int_Tables_number	1
_symmetry_cell_setting	triclinic
loop_
_symmetry_equiv_pos_as_xyz
  x,y,z
_cell_length_a	12.759401
_cell_length_b	21.295417
_cell_length_c	12.759393
_cell_angle_alpha	89.961742
_cell_angle_beta	89.982824
_cell_angle_gamma	90.030668
loop_
_atom_site_label
_atom_site_type_symbol
_atom_site_fract_x
_atom_site_fract_y
_atom_site_fract_z
Zn1	Zn	1.606126	-0.250575	-0.593926
Zn2	Zn	1.605976	-0.355857	-0.418223
Zn3	Zn	1.430432	-0.250606	-0.418265
Zn4	Zn	1.430368	-0.355811	-0.593864
O5	O	1.518226	-0.303212	-0.506069
O6	O	1.753127	-0.264547	-0.570626
O7	O	1.582654	-0.341928	-0.271207
O8	O	1.453828	-0.162513	-0.441611
O9	O	1.753017	-0.341898	-0.441538
O10	O	1.582910	-0.162490	-0.570668
O11	O	1.453682	-0.264601	-0.271238
O12	O	1.283403	-0.264555	-0.441551
O13	O	1.453719	-0.341818	-0.740893
O14	O	1.283356	-0.341849	-0.570562
O15	O	1.582848	-0.264502	-0.740939
O16	O	1.582592	-0.443941	-0.441478
O17	O	1.453574	-0.443906	-0.570521
C18	C	1.245258	-0.303201	-0.506055
C19	C	1.128482	-0.303211	-0.506074
C20	C	1.073623	-0.343522	-0.573139
C21	C	0.963899	-0.343530	-0.573151
C22	C	0.963902	-0.262914	-0.439022
C23	C	1.073624	-0.262904	-0.439017
C24	C	1.128480	-0.383829	-0.640196
C25	C	1.073621	-0.424144	-0.707266
C26	C	0.963897	-0.424152	-0.707277
C27	C	0.909032	-0.383845	-0.640219
C28	C	1.518088	-0.466764	-0.506011
C29	C	1.518125	-0.536732	-0.506021
C30	C	1.585365	-0.569596	-0.438898
C31	C	1.585414	-0.635338	-0.438921
C32	C	1.518205	-0.668215	-0.506058
C33	C	1.450961	-0.635343	-0.573195
C34	C	1.450921	-0.569602	-0.573177
N35	N	1.426298	-0.771480	-0.514062
N36	N	1.426339	-0.833931	-0.514073
C37	C	1.518323	-0.866289	-0.506118
N38	N	1.610267	-0.833836	-0.498130
N39	N	1.610224	-0.771379	-0.498114
C40	C	1.518241	-0.739500	-0.506085
C41	C	1.585621	-0.970438	-0.439016
C42	C	1.585672	-1.036182	-0.439047
C43	C	1.451210	-1.036186	-0.573315
C44	C	1.451168	-0.970443	-0.573289
C45	C	1.518372	-0.937574	-0.506134
C46	C	1.792259	-0.303224	-0.506084
C47	C	1.909036	-0.303230	-0.506091
C48	C	1.518293	-0.303151	-0.780103
C49	C	1.518322	-0.303126	-0.896880
C50	C	1.518393	-0.139022	-0.506151
C51	C	1.518464	-0.069054	-0.506185
C52	C	1.451107	-0.343365	-0.951720
C53	C	1.451145	-0.343342	-1.061444
C54	C	1.585616	-0.262835	-1.061478
C55	C	1.585582	-0.262861	-0.951756
C56	C	1.383846	-0.383629	-0.896843
C57	C	1.316625	-0.423872	-0.951684
C58	C	1.316664	-0.423849	-1.061408
C59	C	1.383923	-0.383584	-1.116292
C60	C	1.518219	-0.303228	-0.233102
C61	C	1.518394	-0.303076	-0.116326
H62	H	0.919234	-0.456974	-0.761896
C63	C	1.659589	-0.218541	-1.121847
C64	C	1.659623	-0.218508	-1.242537
C65	C	1.733594	-0.174211	-1.302905
C66	C	1.807531	-0.129947	-1.242583
C67	C	1.807500	-0.129978	-1.121886
C68	C	1.733529	-0.174275	-1.061518
H69	H	1.604889	-0.251277	-1.287198
H70	H	1.733617	-0.174188	-1.392253
H71	H	1.862289	-0.097155	-1.287270
H72	H	1.862235	-0.097209	-1.077225
H73	H	1.733506	-0.174297	-0.972170
H74	H	1.640313	-0.230094	-0.907104
C75	C	1.133968	-0.468477	-0.781030
C76	C	1.209345	-0.517862	-0.735345
C77	C	1.269689	-0.562195	-0.809112
C78	C	1.254656	-0.557144	-0.928566
C79	C	1.179275	-0.507758	-0.974258
C80	C	1.118931	-0.463425	-0.900490
H81	H	1.220477	-0.521602	-0.646912
H82	H	1.325491	-0.598754	-0.775287
H83	H	1.299326	-0.589963	-0.983173
H84	H	1.168143	-0.504017	-1.062690
H85	H	1.063129	-0.426866	-0.934315
C86	C	1.133984	-0.218560	-0.365254
C87	C	1.118948	-0.147006	-0.374063
C88	C	1.179311	-0.102658	-0.300307
C89	C	1.254710	-0.129863	-0.217742
C90	C	1.269749	-0.201421	-0.208929
C91	C	1.209386	-0.245769	-0.282685
H92	H	1.063130	-0.126864	-0.435186
H93	H	1.168177	-0.049687	-0.306831
H94	H	1.299394	-0.097034	-0.163143
H95	H	1.325567	-0.221563	-0.147806
H96	H	1.220520	-0.298740	-0.276161
C97	C	1.659299	-0.533443	-0.365036
C98	C	1.650798	-0.542550	-0.245595
C99	C	1.724734	-0.506397	-0.171734
C100	C	1.807172	-0.461137	-0.217314
C101	C	1.815676	-0.452027	-0.336760
C102	C	1.741739	-0.488181	-0.410621
H103	H	1.589770	-0.576056	-0.211849
H104	H	1.718438	-0.513141	-0.083312
H105	H	1.861904	-0.434374	-0.162637
H106	H	1.876704	-0.418521	-0.370506
H107	H	1.748035	-0.481437	-0.499043
H108	H	0.819687	-0.383850	-0.640243
H109	H	1.640172	-0.662101	-0.384261
C110	C	1.377030	-0.671504	-0.647045
C111	C	1.294595	-0.716765	-0.601461
C112	C	1.220665	-0.752925	-0.675319
C113	C	1.229171	-0.743826	-0.794761
C114	C	1.311609	-0.698564	-0.840351
C115	C	1.385538	-0.662403	-0.766493
H116	H	1.288295	-0.723502	-0.513038
H117	H	1.159639	-0.786432	-0.641570
H118	H	1.174444	-0.770594	-0.849435
H119	H	1.317908	-0.691826	-0.928774
H120	H	1.446565	-0.628897	-0.800242
H121	H	1.396165	-0.542844	-0.627838
H122	H	1.261871	-0.456658	-0.906990
H123	H	1.640433	-1.062939	-0.384389
C124	C	1.659552	-0.934277	-0.365158
C125	C	1.733530	-0.970429	-0.291331
C126	C	1.807461	-0.934270	-0.217474
C127	C	1.807413	-0.861957	-0.217443
C128	C	1.733433	-0.825800	-0.291273
C129	C	1.659502	-0.861960	-0.365130
H130	H	1.733567	-1.023963	-0.291352
H131	H	1.862226	-0.961036	-0.162820
H132	H	1.862141	-0.835189	-0.162769
H133	H	1.733395	-0.772266	-0.291252
H134	H	1.604736	-0.835193	-0.419784
C135	C	1.377275	-1.072341	-0.647165
C136	C	1.377312	-1.144654	-0.647188
C137	C	1.303377	-1.180813	-0.721042
C138	C	1.229404	-1.144660	-0.794873
C139	C	1.229364	-1.072343	-0.794852
C140	C	1.303299	-1.036184	-0.720998
H141	H	1.432074	-1.171421	-0.592531
H142	H	1.303407	-1.234347	-0.721056
H143	H	1.174672	-1.171427	-0.849544
H144	H	1.174602	-1.045576	-0.849509
H145	H	1.303269	-0.982650	-0.720984
C146	C	1.377194	-0.934290	-0.647122
C147	C	1.257768	-0.943398	-0.638448
C148	C	1.183793	-0.907246	-0.712289
C149	C	1.229245	-0.861987	-0.794803
C150	C	1.348677	-0.852877	-0.803480
C151	C	1.422651	-0.889029	-0.729639
H152	H	1.224117	-0.976903	-0.577363
H153	H	1.095382	-0.913990	-0.705865
H154	H	1.174485	-0.835225	-0.849464
H155	H	1.382328	-0.819372	-0.864565
H156	H	1.511063	-0.882286	-0.736063
C157	C	1.242718	-0.468112	-1.121729
C158	C	1.251191	-0.539678	-1.106603
C159	C	1.177234	-0.583939	-1.166920
C160	C	1.094805	-0.556633	-1.242361
C161	C	1.086329	-0.485064	-1.257490
C162	C	1.160285	-0.440803	-1.197174
H163	H	1.312213	-0.559894	-1.050754
H164	H	1.183509	-0.636919	-1.155720
H165	H	1.040057	-0.589398	-1.287011
H166	H	1.025306	-0.464847	-1.313340
H167	H	1.154010	-0.387822	-1.208374
H168	H	1.383806	-0.383652	-0.807501
H169	H	1.217823	-0.383829	-0.640192
H170	H	0.919223	-0.230099	-0.384426
H171	H	1.383956	-0.383572	-1.205637
