data_functionalizedCrystal
_audit_creation_method	'MofGen! by Chris Wilmer'
_symmetry_space_group_name_H-M	'P1'
_symmetry_Int_Tables_number	1
_symmetry_cell_setting	triclinic
loop_
_symmetry_equiv_pos_as_xyz
  x,y,z
_cell_length_a	14.519709
_cell_length_b	10.868271
_cell_length_c	14.519709
_cell_angle_alpha	90.001060
_cell_angle_beta	83.680144
_cell_angle_gamma	90.001299
loop_
_atom_site_label
_atom_site_type_symbol
_atom_site_fract_x
_atom_site_fract_y
_atom_site_fract_z
O1	O	1.223867	-0.102145	0.120892
O2	O	1.557201	0.231189	0.454225
O3	O	1.890534	0.564522	0.787558
O4	O	0.955390	-0.102180	0.135128
O5	O	1.288724	0.231153	0.468462
O6	O	1.622057	0.564487	0.801795
O7	O	1.096747	-0.102173	-0.006228
O8	O	1.430080	0.231161	0.327105
O9	O	1.763414	0.564494	0.660438
O10	O	1.082510	-0.102152	0.262248
O11	O	1.415844	0.231181	0.595582
O12	O	1.749177	0.564515	0.928915
O13	O	1.096735	0.102472	-0.006234
O14	O	1.430069	0.435805	0.327099
O15	O	1.763402	0.769139	0.660433
O16	O	0.955379	0.102464	0.135123
O17	O	1.288712	0.435798	0.468456
O18	O	1.622045	0.769131	0.801789
O19	O	1.223856	0.102500	0.120886
O20	O	1.557189	0.435833	0.454220
O21	O	1.890522	0.769167	0.787553
Zn22	Zn	1.089615	0.134974	0.128004
Zn23	Zn	1.422949	0.468307	0.461337
Zn24	Zn	1.756282	0.801641	0.794670
Zn25	Zn	1.089631	-0.134654	0.128011
Zn26	Zn	1.422964	0.198679	0.461344
Zn27	Zn	1.756297	0.532013	0.794678
O28	O	1.082499	0.102493	0.262243
O29	O	1.415832	0.435826	0.595576
O30	O	1.749165	0.769159	0.928910
C31	C	0.921025	0.000137	0.134462
C32	C	1.254358	0.333471	0.467795
C33	C	1.587691	0.666804	0.801129
C34	C	0.818643	0.000123	0.132474
C35	C	1.151977	0.333456	0.465807
C36	C	1.485310	0.666790	0.799141
N37	N	1.089612	0.318988	0.127998
N38	N	1.422945	0.652321	0.461331
N39	N	1.756278	0.985655	0.794665
N40	N	1.089642	-0.318668	0.128009
N41	N	1.422975	0.014665	0.461342
N42	N	1.756308	0.347998	0.794676
C43	C	0.443748	0.000178	0.125154
C44	C	0.777081	0.333512	0.458488
C45	C	1.110414	0.666845	0.791821
C46	C	0.548056	0.000162	0.127187
C47	C	0.881389	0.333496	0.460520
C48	C	1.214722	0.666829	0.793854
C49	C	0.631192	0.000149	0.128814
C50	C	0.964526	0.333483	0.462147
C51	C	1.297859	0.666816	0.795481
C52	C	0.735507	0.000136	0.130847
C53	C	1.068840	0.333469	0.464180
C54	C	1.402173	0.666803	0.797514
C55	C	1.258221	0.000180	0.121553
C56	C	1.591554	0.333513	0.454886
C57	C	1.924888	0.666847	0.788219
C58	C	1.360602	0.000186	0.123541
C59	C	1.693936	0.333520	0.456874
C60	C	2.027269	0.666853	0.790207
C61	C	1.096078	0.000144	-0.040591
C62	C	1.429411	0.333477	0.292742
C63	C	1.762744	0.666811	0.626076
C64	C	1.094090	0.000127	-0.142972
C65	C	1.427423	0.333461	0.190361
C66	C	1.760756	0.666794	0.523694
C67	C	1.089626	0.569994	0.128009
C68	C	1.422959	0.903327	0.461342
C69	C	1.756292	1.236661	0.794676
C70	C	1.089615	0.430317	0.128006
C71	C	1.422948	0.763650	0.461339
C72	C	1.756282	1.096983	0.794672
C73	C	1.083168	0.000173	0.296605
C74	C	1.416501	0.333506	0.629939
C75	C	1.749835	0.666840	0.963272
C76	C	1.085156	0.000182	0.398987
C77	C	1.418490	0.333515	0.732320
C78	C	1.751823	0.666848	1.065653
C79	C	1.092476	0.000134	0.773883
C80	C	1.425809	0.333467	1.107216
C81	C	1.759142	0.666800	1.440549
C82	C	1.090443	0.000147	0.669575
C83	C	1.423777	0.333481	1.002908
C84	C	1.757110	0.666814	1.336241
C85	C	1.088816	0.000159	0.586438
C86	C	1.422150	0.333492	0.919771
C87	C	1.755483	0.666826	1.253105
C88	C	1.086783	0.000170	0.482123
C89	C	1.420117	0.333504	0.815457
C90	C	1.753450	0.666837	1.148790
