data_functionalizedCrystal
_audit_creation_method	'MofGen! by Chris Wilmer'
_symmetry_space_group_name_H-M	'P1'
_symmetry_Int_Tables_number	1
_symmetry_cell_setting	triclinic
loop_
_symmetry_equiv_pos_as_xyz
  x,y,z
_cell_length_a	17.699083
_cell_length_b	27.732048
_cell_length_c	16.776229
_cell_angle_alpha	89.988391
_cell_angle_beta	89.998886
_cell_angle_gamma	82.962835
loop_
_atom_site_label
_atom_site_type_symbol
_atom_site_fract_x
_atom_site_fract_y
_atom_site_fract_z
O1	O	1.003540	0.061127	-0.066185
O2	O	0.783091	0.069080	-0.066212
O3	O	0.900162	-0.005269	-0.066183
O4	O	0.886469	0.135475	-0.066215
O5	O	0.900147	-0.005273	0.066394
O6	O	0.783076	0.069075	0.066364
O7	O	1.003524	0.061122	0.066391
Zn8	Zn	0.893298	0.065098	0.087427
Zn9	Zn	0.893318	0.065104	-0.087248
O10	O	0.886453	0.135471	0.066362
C11	C	0.754889	0.068792	0.000073
C12	C	0.670878	0.067938	0.000063
C13	C	0.621873	0.111579	0.000053
C14	C	0.542936	0.110772	0.000064
C15	C	0.513007	0.066325	0.000078
C16	C	0.562019	0.022680	0.000090
C17	C	0.640954	0.023487	0.000085
C18	C	0.243685	0.019426	0.000111
C19	C	0.164744	0.018623	0.000113
C20	C	0.145667	0.106712	0.000089
C21	C	0.224602	0.107518	0.000084
C22	C	0.273607	0.063874	0.000100
C23	C	0.359199	0.064749	0.000090
C24	C	0.427418	0.065450	0.000082
C25	C	0.899867	-0.023279	0.000108
C26	C	0.899001	-0.076937	0.000114
C27	C	0.962734	-0.415523	0.000081
C28	C	0.959522	-0.617194	0.000070
O29	O	1.017801	-0.648240	0.000042
N30	N	0.890104	-0.636567	0.000062
C31	C	0.821484	-0.605520	0.000051
O32	O	0.762366	-0.626625	0.000036
C33	C	0.824696	-0.403849	0.000057
C34	C	0.894119	-0.384479	0.000073
C35	C	1.032151	-0.396152	0.000096
C36	C	1.032953	-0.345737	0.000103
C37	C	0.964338	-0.314693	0.000095
C38	C	0.894921	-0.334064	0.000080
C39	C	0.756076	-0.372802	0.000041
C40	C	0.756886	-0.322382	0.000041
C41	C	0.826308	-0.303012	0.000057
C42	C	0.827108	-0.252605	0.000080
N43	N	0.896526	-0.233232	0.000088
C44	C	0.965141	-0.264276	0.000095
C45	C	0.819802	-0.711400	0.000050
C46	C	0.818999	-0.761817	0.000050
C47	C	0.957038	-0.773488	0.000067
C48	C	0.957840	-0.723070	0.000072
C49	C	0.889220	-0.692026	0.000058
C50	C	0.966820	-0.158401	0.000111
C51	C	0.967616	-0.107981	0.000122
C52	C	0.829578	-0.096314	0.000101
C53	C	0.828781	-0.146730	0.000095
C54	C	0.897409	-0.177772	0.000097
O55	O	0.768860	-0.221531	0.000099
O56	O	1.024251	-0.243161	0.000093
C57	C	0.961931	-0.465938	0.000074
C58	C	0.892514	-0.485309	0.000059
C59	C	0.823899	-0.454265	0.000051
C60	C	0.891711	-0.535726	0.000059
C61	C	0.960326	-0.566770	0.000067
C62	C	1.029744	-0.547397	0.000074
C63	C	1.030546	-0.496982	0.000082
C64	C	0.754481	-0.473638	0.000043
C65	C	0.753685	-0.524053	0.000037
C66	C	0.822300	-0.555097	0.000045
C67	C	1.031726	0.061410	0.000105
C68	C	1.115737	0.062264	0.000109
C69	C	0.886748	0.153481	0.000069
C70	C	0.887614	0.207139	0.000058
N71	N	0.893289	0.065094	0.206638
N72	N	0.893332	0.065105	-0.206459
C73	C	0.945144	0.032186	0.248368
C74	C	0.945148	0.032185	0.331821
C75	C	0.893301	0.065095	0.373541
C76	C	0.841441	0.098005	0.331805
C77	C	0.841433	0.098003	0.248354
C78	C	0.841468	0.098015	0.668352
C79	C	0.841481	0.098015	0.751809
C80	C	0.945182	0.032197	0.751819
C81	C	0.945175	0.032195	0.668368
C82	C	0.893313	0.065102	0.626639
C83	C	0.893308	0.065102	0.536151
C84	C	0.893309	0.065099	0.464028
H85	H	0.537645	-0.013510	0.000113
H86	H	0.697148	-0.539820	0.000031
C87	C	1.107636	-0.430295	0.000109
C88	C	1.164668	-0.428175	0.068966
C89	C	1.240159	-0.462314	0.068986
C90	C	1.258619	-0.498573	0.000150
C91	C	1.201585	-0.500694	-0.068713
C92	C	1.126094	-0.466555	-0.068733
H93	H	1.151005	-0.401333	0.119928
H94	H	1.282379	-0.460744	0.119963
H95	H	1.314502	-0.523844	0.000165
H96	H	1.215248	-0.527536	-0.119675
H97	H	1.083874	-0.468125	-0.119710
H98	H	0.680855	-0.012050	0.000093
H99	H	0.763920	-0.686128	0.000038
H100	H	0.503039	0.146309	0.000055
H101	H	0.799222	0.124800	0.365779
H102	H	1.024151	-0.092213	0.000137
C103	C	0.784441	0.134216	0.797704
C104	C	0.727391	0.170412	0.751807
C105	C	0.670355	0.206611	0.797702
C106	C	0.670369	0.206614	0.889494
C107	C	0.727421	0.170416	0.935397
C108	C	0.784457	0.134217	0.889501
H109	H	0.727378	0.170411	0.683852
H110	H	0.628121	0.233407	0.763722
H111	H	0.628148	0.233410	0.923469
H112	H	0.727433	0.170417	1.003352
H113	H	0.826690	0.107422	0.923482
C114	C	1.002206	-0.004008	0.622475
C115	C	1.059859	0.014831	0.565088
C116	C	1.116889	-0.021373	0.519196
C117	C	1.116266	-0.076416	0.530690
C118	C	1.058611	-0.095258	0.588080
C119	C	1.001581	-0.059054	0.633972
H120	H	1.060322	0.055580	0.556577
H121	H	1.159569	-0.007425	0.476713
H122	H	1.158482	-0.103217	0.496718
H123	H	1.058148	-0.136007	0.596591
H124	H	0.958901	-0.073002	0.676455
H125	H	1.022703	-0.183670	0.000110
C126	C	1.109321	-0.324436	0.000105
C127	C	1.166151	-0.336199	0.068946
C128	C	1.242524	-0.314903	0.068942
C129	C	1.262069	-0.281844	0.000096
C130	C	1.205238	-0.270080	-0.068750
C131	C	1.128864	-0.291375	-0.068746
H132	H	1.151684	-0.360673	0.119915
H133	H	1.284594	-0.323613	0.119907
H134	H	1.318605	-0.266080	0.000093
H135	H	1.219704	-0.245606	-0.119719
H136	H	1.086794	-0.282666	-0.119711
C137	C	0.257521	0.156412	0.000071
C138	C	0.238799	0.192633	0.068910
C139	C	0.271715	0.241528	0.068901
C140	C	0.323354	0.254202	0.000053
C141	C	0.342078	0.217980	-0.068791
C142	C	0.309162	0.169085	-0.068782
H143	H	0.200571	0.183252	0.119880
H144	H	0.257854	0.268342	0.119865
H145	H	0.347721	0.290397	0.000047
H146	H	0.380307	0.227361	-0.119761
H147	H	0.323023	0.142271	-0.119745
H148	H	0.646234	0.147773	0.000041
H149	H	1.014370	-0.707302	0.000085
H150	H	0.987367	0.005388	0.214405
H151	H	1.012907	-0.798773	0.000073
C152	C	0.679706	-0.394097	0.000019
C153	C	0.622863	-0.382348	0.068847
C154	C	0.546486	-0.403640	0.068823
C155	C	0.526952	-0.436681	-0.000029
C156	C	0.583796	-0.448431	-0.068862
C157	C	0.660173	-0.427140	-0.068838
H158	H	0.637322	-0.357888	0.119820
H159	H	0.504406	-0.394941	0.119778
H160	H	0.470413	-0.452442	-0.000047
H161	H	0.569337	-0.472892	-0.119835
H162	H	0.702253	-0.435839	-0.119793
C163	C	1.002228	-0.004007	0.797721
C164	C	1.002240	-0.004012	0.889514
C165	C	1.059285	-0.040213	0.935414
C166	C	1.116318	-0.076411	0.889521
C167	C	1.116308	-0.076408	0.797723
C168	C	1.059263	-0.040206	0.751824
H169	H	0.960018	0.022785	0.923491
H170	H	1.059292	-0.040215	1.003369
H171	H	1.158547	-0.103209	0.923499
H172	H	1.158530	-0.103205	0.763746
H173	H	1.059256	-0.040204	0.683869
C174	C	1.105222	-0.581551	0.000081
C175	C	1.162279	-0.579428	-0.068757
C176	C	1.237752	-0.613585	-0.068755
C177	C	1.256169	-0.649865	0.000084
C178	C	1.199111	-0.651989	0.068926
C179	C	1.123638	-0.617832	0.068925
H180	H	1.148647	-0.552570	-0.119720
H181	H	1.279990	-0.612012	-0.119717
H182	H	1.312038	-0.675150	0.000085
H183	H	1.212743	-0.678847	0.119890
H184	H	1.081400	-0.619405	0.119887
C185	C	0.681401	-0.288235	0.000027
C186	C	0.624363	-0.290344	-0.068827
C187	C	0.548879	-0.256197	-0.068838
C188	C	0.530434	-0.219941	0.000005
C189	C	0.587474	-0.217831	0.068864
C190	C	0.662957	-0.251977	0.068875
H191	H	0.638016	-0.317184	-0.119793
H192	H	0.506655	-0.257760	-0.119813
H193	H	0.474557	-0.194664	-0.000004
H194	H	0.573820	-0.190990	0.119830
H195	H	0.705181	-0.250414	0.119850
H196	H	0.105758	0.142249	0.000080
C197	C	0.297584	-0.028581	0.000115
C198	C	0.264660	-0.077471	0.000120
C199	C	0.318563	-0.125481	0.000120
C200	C	0.405390	-0.124601	0.000115
C201	C	0.438318	-0.075709	0.000109
C202	C	0.384415	-0.027699	0.000109
H203	H	0.200382	-0.078124	0.000124
H204	H	0.294187	-0.161674	0.000124
H205	H	0.445292	-0.160140	0.000115
H206	H	0.502596	-0.075056	0.000106
H207	H	0.408791	0.008494	0.000106
H208	H	0.762468	-0.777584	0.000051
H209	H	0.140380	-0.017574	0.000126
H210	H	0.772252	-0.162502	0.000104
H211	H	0.773714	-0.071029	0.000098
H212	H	1.087078	-0.481215	0.000094
H213	H	0.698605	-0.448366	0.000035
H214	H	0.987371	0.005389	0.365797
H215	H	0.799241	0.124810	0.634383
H216	H	0.799207	0.124799	0.214378
