data_functionalizedCrystal
_audit_creation_method	'MofGen! by Chris Wilmer'
_symmetry_space_group_name_H-M	'P1'
_symmetry_Int_Tables_number	1
_symmetry_cell_setting	triclinic
loop_
_symmetry_equiv_pos_as_xyz
  x,y,z
_cell_length_a	19.188933
_cell_length_b	19.188924
_cell_length_c	9.730223
_cell_angle_alpha	89.997914
_cell_angle_beta	90.001390
_cell_angle_gamma	96.856233
loop_
_atom_site_label
_atom_site_type_symbol
_atom_site_fract_x
_atom_site_fract_y
_atom_site_fract_z
O1	O	0.926141	-0.087170	0.114250
O2	O	0.722829	-0.098903	0.114264
O3	O	0.830355	0.008620	0.114241
O4	O	0.818615	-0.194692	0.114274
O5	O	0.830348	0.008614	-0.114339
O6	O	0.722822	-0.098909	-0.114316
O7	O	0.926134	-0.087176	-0.114330
Zn8	Zn	0.824477	-0.093043	-0.150615
Zn9	Zn	0.824486	-0.093035	0.150549
O10	O	0.818608	-0.194698	-0.114306
C11	C	0.696815	-0.098525	-0.000024
C12	C	0.619310	-0.097384	-0.000020
C13	C	0.066059	-0.089236	0.124563
C14	C	0.138883	-0.090304	0.124568
C15	C	0.175296	-0.090844	-0.000030
C16	C	0.138882	-0.090299	-0.124643
C17	C	0.066060	-0.089224	-0.124645
N18	N	0.284312	-0.132265	-0.092768
N19	N	0.353490	-0.133288	-0.092757
C20	C	0.394705	-0.094082	-0.000032
N21	N	0.364128	-0.053823	0.092704
N22	N	0.294943	-0.052804	0.092698
C23	C	0.254260	-0.092010	-0.000042
C24	C	0.510076	-0.095781	0.124579
C25	C	0.582902	-0.096845	0.124580
C26	C	0.582898	-0.096847	-0.124635
C27	C	0.510074	-0.095776	-0.124632
C28	C	0.473667	-0.095246	-0.000021
C29	C	0.829972	0.034628	-0.000051
C30	C	0.828833	0.112133	-0.000054
C31	C	0.952148	-0.087553	-0.000038
C32	C	1.029653	-0.088694	-0.000034
N33	N	0.824476	-0.093048	-0.356151
C34	C	0.818991	-0.220706	-0.000012
C35	C	0.820130	-0.298211	0.000001
C36	C	0.828305	0.148535	0.124545
C37	C	0.827225	0.221358	0.124556
C38	C	0.826687	0.257777	-0.000040
C39	C	0.827211	0.221366	-0.124656
C40	C	0.828284	0.148543	-0.124663
N41	N	0.864732	0.377438	-0.092777
N42	N	0.863714	0.446616	-0.092762
C43	C	0.823453	0.477186	-0.000027
N44	N	0.784257	0.435966	0.092713
N45	N	0.785278	0.366782	0.092702
C46	C	0.825523	0.336741	-0.000047
C47	C	0.821753	0.592551	0.124592
C48	C	0.820669	0.665375	0.124598
C49	C	0.820662	0.665382	-0.124617
C50	C	0.821739	0.592559	-0.124619
C51	C	0.822288	0.556149	-0.000010
C52	C	0.866688	-0.135287	-0.428086
C53	C	0.866699	-0.135274	-0.571969
C54	C	0.782279	-0.050781	-0.571970
C55	C	0.782272	-0.050791	-0.428089
C56	C	0.908892	-0.177545	-0.356148
C57	C	0.951107	-0.219788	-0.428083
C58	C	0.951118	-0.219775	-0.571966
C59	C	0.908913	-0.177518	-0.643914
N60	N	0.824493	-0.093025	0.356086
H61	H	0.168534	-0.090738	-0.226092
H62	H	0.820218	0.695034	-0.226066
O63	O	0.474613	-0.095346	-0.245577
C64	C	0.424404	-0.155187	-0.253047
H65	H	0.410799	-0.175184	-0.144863
H66	H	0.446796	-0.197933	-0.314543
C67	C	0.374398	-0.111235	-0.457151
C68	C	0.357684	-0.135793	-0.324276
H69	H	0.333242	-0.099274	-0.501093
H70	H	0.408226	-0.070920	-0.452122
H71	H	0.393059	-0.146861	-0.508380
H72	H	0.339031	-0.100164	-0.273044
H73	H	0.323851	-0.176101	-0.329298
H74	H	0.612545	-0.097284	-0.226086
O75	O	0.828799	0.113269	0.245709
C76	C	0.828118	0.161023	0.355687
H77	H	0.805255	0.209977	0.319161
H78	H	0.884007	0.176262	0.393994
C79	C	0.810844	0.066347	0.518274
C80	C	0.782757	0.126471	0.473416
H81	H	0.782866	0.045034	0.590898
H82	H	0.811305	0.034174	0.444181
H83	H	0.857417	0.079055	0.550187
H84	H	0.736188	0.113761	0.441487
H85	H	0.782287	0.158641	0.547506
H86	H	0.828711	0.118905	-0.226130
H87	H	0.747916	-0.016378	-0.630561
O88	O	0.030794	-0.088734	-0.245807
C89	C	0.078548	-0.089419	-0.355785
H90	H	0.127501	-0.112281	-0.319257
H91	H	0.093787	-0.033531	-0.394102
C92	C	-0.016128	-0.106697	-0.518369
C93	C	0.043995	-0.134783	-0.473507
H94	H	-0.037442	-0.134677	-0.590989
H95	H	-0.048301	-0.106234	-0.444276
H96	H	-0.003420	-0.060125	-0.550290
H97	H	0.031285	-0.181351	-0.441572
H98	H	0.076165	-0.135256	-0.547598
O99	O	0.991999	-0.260913	-0.358139
C100	C	0.949273	-0.308656	-0.274912
H101	H	0.893697	-0.316283	-0.318288
H102	H	0.948155	-0.287094	-0.165862
C103	C	1.047443	-0.370263	-0.219438
C104	C	0.979186	-0.379635	-0.272721
H105	H	1.065896	-0.414046	-0.218080
H106	H	1.076230	-0.338096	-0.275505
H107	H	1.046503	-0.352293	-0.128567
H108	H	0.980128	-0.397597	-0.363594
H109	H	0.950400	-0.411807	-0.216668
O110	O	0.826585	0.256753	0.245549
C111	C	0.765518	0.290797	0.252973
H112	H	0.723584	0.263184	0.182282
H113	H	0.778370	0.347813	0.219464
C114	C	0.789598	0.322180	0.488666
C115	C	0.738092	0.288261	0.401850
H116	H	0.772682	0.320619	0.580500
H117	H	0.830742	0.299247	0.483663
H118	H	0.800304	0.369690	0.460724
H119	H	0.727394	0.240750	0.429781
H120	H	0.696945	0.311187	0.406860
H121	H	0.822196	0.562903	0.226056
O122	O	0.741201	-0.009744	-0.358416
C123	C	0.703961	0.027564	-0.452759
H124	H	0.699796	-0.001341	-0.555330
H125	H	0.732896	0.082441	-0.468045
C126	C	0.634933	0.068734	-0.270631
C127	C	0.629813	0.033229	-0.396607
H128	H	0.589196	0.072233	-0.235993
H129	H	0.660024	0.043602	-0.207068
H130	H	0.659049	0.114462	-0.283386
H131	H	0.605706	-0.012500	-0.383847
H132	H	0.604716	0.058355	-0.460166
H133	H	0.036421	-0.088802	0.226031
O134	O	0.992144	-0.260869	-0.641633
C135	C	1.029404	-0.298152	-0.547279
H136	H	1.000482	-0.302303	-0.444725
H137	H	1.084296	-0.269258	-0.531956
C138	C	1.070545	-0.367201	-0.729404
C139	C	1.035019	-0.372305	-0.603449
H140	H	1.074012	-0.412941	-0.764053
H141	H	1.045444	-0.342081	-0.792973
H142	H	1.116285	-0.343120	-0.716617
H143	H	0.989277	-0.396378	-0.616240
H144	H	1.060112	-0.397430	-0.539883
H145	H	0.168531	-0.090749	0.226033
H146	H	0.820236	0.695012	0.226066
H147	H	0.822175	0.562921	-0.226082
O148	O	0.618158	-0.097398	0.245743
C149	C	0.570407	-0.096682	0.355719
H150	H	0.515538	-0.118018	0.319188
H151	H	0.570157	-0.040569	0.394034
C152	C	0.660092	-0.116675	0.518308
C153	C	0.592703	-0.142886	0.473443
H154	H	0.673846	-0.145173	0.590929
H155	H	0.692264	-0.117155	0.444217
H156	H	0.659875	-0.069914	0.550228
H157	H	0.592923	-0.189643	0.441508
H158	H	0.560531	-0.142415	0.547532
H159	H	0.480432	-0.095348	0.226045
O160	O	0.908986	-0.177608	-0.783683
C161	C	0.955312	-0.223934	-0.831752
H162	H	0.962669	-0.264393	-0.748847
H163	H	1.008205	-0.193030	-0.857256
C164	C	0.915490	-0.211935	-1.063626
C165	C	0.924522	-0.261632	-0.961804
H166	H	0.896500	-0.235187	-1.143852
H167	H	0.884281	-0.180722	-1.031243
H168	H	0.959571	-0.186186	-1.084863
H169	H	0.880441	-0.287374	-0.940557
H170	H	0.955723	-0.292850	-0.994187
H171	H	0.826771	0.251023	-0.226103
H172	H	0.908886	-0.177562	-0.238991
