data_functionalizedCrystal
_audit_creation_method	'MofGen! by Chris Wilmer'
_symmetry_space_group_name_H-M	'P1'
_symmetry_Int_Tables_number	1
_symmetry_cell_setting	triclinic
loop_
_symmetry_equiv_pos_as_xyz
  x,y,z
_cell_length_a	10.654559
_cell_length_b	10.654550
_cell_length_c	9.730223
_cell_angle_alpha	90.000193
_cell_angle_beta	90.000437
_cell_angle_gamma	84.486794
loop_
_atom_site_label
_atom_site_type_symbol
_atom_site_fract_x
_atom_site_fract_y
_atom_site_fract_z
O1	O	1.667827	0.176448	0.114294
O2	O	1.302350	0.193243	0.114294
O3	O	1.493492	0.002107	0.114289
O4	O	1.476686	0.367584	0.114299
O5	O	1.493490	0.002111	-0.114291
O6	O	1.302348	0.193247	-0.114286
O7	O	1.667825	0.176453	-0.114286
Zn8	Zn	1.485086	0.184851	-0.150578
Zn9	Zn	1.485089	0.184845	0.150586
O10	O	1.476683	0.367589	-0.114281
C11	C	1.255551	0.192009	0.000005
C12	C	1.116109	0.188313	0.000005
C13	C	1.492257	-0.044689	0.000001
C14	C	1.488565	-0.184132	0.000005
C15	C	1.064569	0.072301	-0.000002
C16	C	0.933547	0.068835	0.000008
C17	C	0.905614	0.297404	0.000026
C18	C	1.036634	0.300869	0.000026
C19	C	1.080694	-0.059662	-0.000018
C20	C	0.949672	-0.063128	-0.000008
C21	C	1.601106	-0.263614	0.000001
C22	C	1.597629	-0.394635	0.000011
C23	C	1.369061	-0.366679	0.000023
C24	C	1.372539	-0.235661	0.000023
C25	C	1.733068	-0.279756	-0.000012
C26	C	1.729592	-0.410777	-0.000003
C27	C	1.714624	0.177686	0.000007
C28	C	1.854067	0.181383	0.000015
C29	C	1.477919	0.414385	0.000011
C30	C	1.481610	0.553828	0.000015
N31	N	1.485093	0.184855	-0.356114
C32	C	1.569753	0.100249	-0.428043
C33	C	1.569749	0.100233	-0.571926
C34	C	1.400423	0.269441	-0.571939
C35	C	1.400421	0.269450	-0.428059
C36	C	1.667516	0.002561	-0.428036
C37	C	1.667512	0.002546	-0.571919
N38	N	1.485092	0.184831	0.356122
H39	H	1.078592	0.395337	0.000055
H40	H	1.775089	-0.244125	-0.098709
H41	H	0.840891	0.389043	0.000044
H42	H	1.784684	-0.250398	0.095641
H43	H	0.920302	-0.114727	-0.095671
C44	C	1.638538	-0.127836	-0.375270
H45	H	1.626609	-0.181467	-0.451207
H46	H	1.707033	-0.163521	-0.321030
H47	H	1.564072	-0.118961	-0.321036
H48	H	1.280897	-0.170950	0.000046
H49	H	1.331485	0.338315	-0.630532
H50	H	1.274596	-0.408651	0.000039
C51	C	1.784092	-0.472523	0.133005
H52	H	1.810688	-0.409348	0.192271
H53	H	1.721289	-0.515236	0.177685
H54	H	1.854127	-0.531092	0.111017
H55	H	1.779312	-0.452533	-0.095661
H56	H	1.331474	0.338331	-0.369496
C57	C	1.790696	0.043873	-0.367738
H58	H	1.845554	0.062259	-0.440450
H59	H	1.772184	0.117005	-0.312789
H60	H	1.830356	-0.022176	-0.312790
H61	H	1.637000	-0.088678	-0.616537
C62	C	1.797881	0.031623	-0.624683
H63	H	1.851495	0.043604	-0.548746
H64	H	1.833620	-0.036856	-0.678913
H65	H	1.788951	0.106081	-0.678929
H66	H	1.126335	-0.099527	-0.098717
C67	C	1.137102	-0.126832	0.129200
H68	H	1.071388	-0.156797	0.182351
H69	H	1.195088	-0.195876	0.102630
H70	H	1.179612	-0.069243	0.182352
C71	C	0.901532	-0.119922	0.133305
H72	H	0.970759	-0.142823	0.192664
H73	H	0.843934	-0.059394	0.177617
H74	H	0.860220	-0.192609	0.111873
