data_functionalizedCrystal
_audit_creation_method	'MofGen! by Chris Wilmer'
_symmetry_space_group_name_H-M	'P1'
_symmetry_Int_Tables_number	1
_symmetry_cell_setting	triclinic
loop_
_symmetry_equiv_pos_as_xyz
  x,y,z
_cell_length_a	16.109301
_cell_length_b	18.266242
_cell_length_c	16.109304
_cell_angle_alpha	90.003536
_cell_angle_beta	83.462059
_cell_angle_gamma	90.006317
loop_
_atom_site_label
_atom_site_type_symbol
_atom_site_fract_x
_atom_site_fract_y
_atom_site_fract_z
O1	O	1.103138	0.060830	0.106868
O2	O	0.861076	0.060841	0.120168
O3	O	0.988756	0.060836	-0.007513
O4	O	0.975459	0.060835	0.234549
O5	O	0.988734	-0.060926	-0.007519
O6	O	0.861055	-0.060921	0.120161
O7	O	1.103117	-0.060932	0.106862
Zn8	Zn	0.982082	-0.080259	0.113510
Zn9	Zn	0.982111	0.080168	0.113519
O10	O	0.975437	-0.060927	0.234542
C11	C	0.830091	-0.000038	0.119626
C12	C	0.737795	-0.000034	0.118010
N13	N	0.982069	-0.189746	0.113504
C14	C	0.515524	-0.000043	0.190018
C15	C	0.428803	-0.000047	0.188494
C16	C	0.448676	-0.000044	0.037005
C17	C	0.535395	-0.000045	0.038530
C18	C	0.568816	-0.000040	0.115039
C19	C	0.395377	-0.000044	0.111990
C20	C	0.301351	-0.000049	0.110337
C21	C	0.662848	-0.000036	0.116693
C22	C	1.038624	-0.228057	0.056995
C23	C	1.038629	-0.304702	0.056991
C24	C	0.982087	-0.343033	0.113510
C25	C	0.925522	-0.304712	0.170024
C26	C	0.925513	-0.228069	0.170021
N27	N	0.971486	-0.463365	0.187080
N28	N	0.971500	-0.536173	0.187080
C29	C	0.982111	-0.573955	0.113523
N30	N	0.992724	-0.536179	0.039962
N31	N	0.992714	-0.463364	0.039962
C32	C	0.982091	-0.426140	0.113520
C33	C	1.038675	-0.695373	0.057005
C34	C	1.038674	-0.772020	0.057000
C35	C	0.925571	-0.772028	0.170040
C36	C	0.925567	-0.695384	0.170038
C37	C	0.982124	-0.657061	0.113521
C38	C	1.134102	-0.000051	0.107404
C39	C	1.226398	-0.000050	0.109019
C40	C	0.988206	-0.000044	-0.038491
C41	C	0.986590	-0.000039	-0.130786
N42	N	0.982131	0.189655	0.113519
C43	C	0.982868	0.066331	-0.343120
C44	C	0.981342	0.066331	-0.429840
C45	C	0.981323	-0.066421	-0.429844
C46	C	0.982843	-0.066420	-0.343125
C47	C	0.983620	-0.000041	-0.299766
C48	C	0.980573	-0.000043	-0.473205
C49	C	0.978919	-0.000044	-0.567231
C50	C	0.985273	-0.000040	-0.205734
C51	C	0.975987	-0.000046	0.265520
C52	C	0.977603	-0.000046	0.357816
H53	H	0.542732	-0.000044	0.252316
F54	F	0.592116	-0.000047	-0.041277
H55	H	1.084673	-0.196857	0.010974
F56	F	0.983692	0.136977	-0.296976
H57	H	0.879458	-0.196875	0.216038
F58	F	0.372089	-0.000051	0.268297
H59	H	1.084724	-0.664170	0.010983
F60	F	0.413099	-0.000046	-0.044416
F61	F	1.098826	-0.345482	-0.003157
H62	H	0.879483	-0.335925	0.216042
F63	F	1.098866	-0.812795	-0.003152
H64	H	0.879530	-0.803237	0.216056
F65	F	0.865377	-0.654607	0.230186
H66	H	0.980728	0.120378	-0.465135
H67	H	0.980692	-0.120464	-0.465158
F68	F	0.983635	-0.137066	-0.296980
