data_functionalizedCrystal
_audit_creation_method	'MofGen! by Chris Wilmer'
_symmetry_space_group_name_H-M	'P1'
_symmetry_Int_Tables_number	1
_symmetry_cell_setting	triclinic
loop_
_symmetry_equiv_pos_as_xyz
  x,y,z
_cell_length_a	10.723023
_cell_length_b	10.723024
_cell_length_c	9.798715
_cell_angle_alpha	89.998925
_cell_angle_beta	89.996770
_cell_angle_gamma	84.467709
loop_
_atom_site_label
_atom_site_type_symbol
_atom_site_fract_x
_atom_site_fract_y
_atom_site_fract_z
O1	O	1.657188	0.175020	-0.113470
O2	O	1.294035	0.191774	-0.113475
O3	O	1.483988	0.001821	-0.113471
O4	O	1.467235	0.364973	-0.113475
O5	O	1.483974	0.001820	0.113511
O6	O	1.294021	0.191774	0.113507
O7	O	1.657174	0.175019	0.113512
Zn8	Zn	1.475595	0.183396	0.149548
Zn9	Zn	1.475614	0.183397	-0.149511
O10	O	1.467221	0.364973	0.113507
C11	C	1.247529	0.190555	0.000015
C12	C	1.108974	0.186908	0.000013
C13	C	1.047195	0.185281	0.117595
C14	C	0.903992	0.181511	0.117596
C15	C	1.482762	-0.044679	0.000018
C16	C	1.479114	-0.183233	0.000011
C17	C	1.703680	0.176239	0.000019
C18	C	1.842235	0.179886	0.000012
N19	N	1.475591	0.183395	0.353647
C20	C	1.468447	0.411473	0.000016
C21	C	1.472095	0.550027	0.000014
C22	C	1.365807	0.625010	0.000012
C23	C	1.369575	0.768213	0.000010
N24	N	1.475627	0.183388	-0.353611
C25	C	1.555347	0.103288	0.421426
C26	C	1.555367	0.103283	0.578589
H27	H	0.895355	0.181292	-0.100660
O28	O	1.394022	0.265260	0.423003
C29	C	1.319883	0.339767	0.329468
H30	H	1.317796	0.288703	0.227574
H31	H	1.361445	0.432716	0.314317
C32	C	1.188137	0.427291	0.510552
C33	C	1.185565	0.364568	0.385407
H34	H	1.105285	0.442595	0.545058
H35	H	1.238088	0.377098	0.573569
H36	H	1.222778	0.504741	0.497909
H37	H	1.150940	0.287113	0.398054
H38	H	1.135605	0.414749	0.322392
H39	H	1.100322	0.186673	0.218261
O40	O	1.261051	0.845122	-0.000236
C41	C	1.256358	0.921278	-0.117775
H42	H	1.319720	0.874083	-0.199937
H43	H	1.289586	1.016153	-0.091195
C44	C	1.042931	0.998023	-0.070170
C45	C	1.120746	0.940052	-0.171088
H46	H	0.959279	1.009609	-0.103054
H47	H	1.046093	0.946719	0.009021
H48	H	1.070636	1.077079	-0.048030
H49	H	1.093049	0.860991	-0.193214
H50	H	1.117575	0.991343	-0.250285
H51	H	0.850862	0.180120	0.218262
H52	H	1.623611	0.034702	0.363105
H53	H	1.407346	0.251980	0.588111
H54	H	1.055849	0.185506	-0.100653
O55	O	1.254022	0.574923	0.000071
C56	C	1.275146	0.443092	0.000036
H57	H	1.372295	0.413486	0.043008
H58	H	1.268845	0.406796	-0.108859
C59	C	1.056182	0.424470	0.036270
C60	C	1.175498	0.388108	0.089060
H61	H	0.994711	0.390551	0.091179
H62	H	1.041948	0.513287	0.036289
H63	H	1.050948	0.394222	-0.054475
H64	H	1.180735	0.418369	0.179797
H65	H	1.189730	0.299294	0.089059
H66	H	1.623655	0.034704	0.636876
H67	H	1.570110	0.752341	0.000019
O68	O	1.583910	0.600055	-0.000169
C69	C	1.592610	0.674519	-0.117745
H70	H	1.494503	0.705966	-0.156939
H71	H	1.647401	0.617550	-0.200059
C72	C	1.781122	0.751714	-0.033900
C73	C	1.660625	0.790347	-0.082033
H74	H	1.823082	0.823160	-0.011874
H75	H	1.775265	0.701543	0.045312
H76	H	1.826766	0.704239	-0.102503
H77	H	1.614979	0.837808	-0.013424
H78	H	1.666476	0.840529	-0.161232
