data_functionalizedCrystal
_audit_creation_method	'MofGen! by Chris Wilmer'
_symmetry_space_group_name_H-M	'P1'
_symmetry_Int_Tables_number	1
_symmetry_cell_setting	triclinic
loop_
_symmetry_equiv_pos_as_xyz
  x,y,z
_cell_length_a	19.288840
_cell_length_b	19.188925
_cell_length_c	17.766277
_cell_angle_alpha	89.993978
_cell_angle_beta	89.983415
_cell_angle_gamma	83.134282
loop_
_atom_site_label
_atom_site_type_symbol
_atom_site_fract_x
_atom_site_fract_y
_atom_site_fract_z
O1	O	0.921369	0.087016	-0.062719
O2	O	1.171369	0.337016	0.187281
O3	O	1.421369	0.587016	0.437281
O4	O	1.671369	0.837016	0.687281
O5	O	0.719106	0.098784	-0.062693
O6	O	0.969106	0.348784	0.187307
O7	O	1.219106	0.598784	0.437307
O8	O	1.469106	0.848784	0.687307
O9	O	0.826077	-0.008757	-0.062703
O10	O	1.076077	0.241243	0.187297
O11	O	1.326077	0.491243	0.437297
O12	O	1.576077	0.741243	0.687297
O13	O	0.814399	0.194557	-0.062710
O14	O	1.064399	0.444557	0.187290
O15	O	1.314399	0.694557	0.437290
O16	O	1.564399	0.944557	0.687290
O17	O	0.826058	-0.008762	0.062486
O18	O	1.076058	0.241238	0.312486
O19	O	1.326058	0.491238	0.562486
O20	O	1.576058	0.741238	0.812486
O21	O	0.719088	0.098779	0.062495
O22	O	0.969088	0.348779	0.312495
O23	O	1.219088	0.598779	0.562495
O24	O	1.469088	0.848779	0.812495
O25	O	0.921350	0.087011	0.062469
O26	O	1.171350	0.337011	0.312469
O27	O	1.421350	0.587011	0.562469
O28	O	1.671350	0.837011	0.812469
Cu29	Cu	0.820217	0.092894	0.073913
Cu30	Cu	1.070217	0.342894	0.323913
Cu31	Cu	1.320217	0.592894	0.573913
Cu32	Cu	1.570217	0.842894	0.823913
Cu33	Cu	0.820239	0.092901	-0.074137
Cu34	Cu	1.070239	0.342901	0.175863
Cu35	Cu	1.320239	0.592901	0.425863
Cu36	Cu	1.570239	0.842901	0.675863
O37	O	0.814380	0.194552	0.062479
O38	O	1.064380	0.444552	0.312479
O39	O	1.314380	0.694552	0.562479
O40	O	1.564380	0.944552	0.812479
C41	C	0.693220	0.098406	-0.000096
C42	C	0.943220	0.348406	0.249904
C43	C	1.193220	0.598406	0.499904
C44	C	1.443220	0.848406	0.749904
C45	C	0.616116	0.097278	-0.000086
C46	C	0.866116	0.347278	0.249914
C47	C	1.116116	0.597278	0.499914
C48	C	1.366116	0.847278	0.749914
C49	C	0.579922	0.096739	-0.068328
C50	C	0.829922	0.346739	0.181672
C51	C	1.079922	0.596739	0.431672
C52	C	1.329922	0.846739	0.681672
C53	C	0.507475	0.095671	-0.068337
C54	C	0.757475	0.345671	0.181663
C55	C	1.007475	0.595671	0.431663
C56	C	1.257475	0.845671	0.681663
C57	C	0.471226	0.095128	-0.000100
C58	C	0.721226	0.345128	0.249900
C59	C	0.971226	0.595128	0.499900
C60	C	1.221226	0.845128	0.749900
C61	C	0.507428	0.095671	0.068151
C62	C	0.757428	0.345671	0.318151
C63	C	1.007428	0.595671	0.568151
C64	C	1.257428	0.845671	0.818151
C65	C	0.579873	0.096746	0.068158
C66	C	0.829873	0.346746	0.318158
C67	C	1.079873	0.596746	0.568158
C68	C	1.329873	0.846746	0.818158
C69	C	0.361889	0.052528	0.052170
C70	C	0.611889	0.302528	0.302170
C71	C	0.861889	0.552528	0.552170
C72	C	1.111889	0.802528	0.802170
C73	C	0.289446	0.051449	0.052160
C74	C	0.539446	0.301449	0.302160
C75	C	0.789446	0.551449	0.552160
C76	C	1.039446	0.801449	0.802160
C77	C	0.247783	0.091817	-0.000120
C78	C	0.497783	0.341817	0.249880
C79	C	0.747783	0.591817	0.499880
C80	C	0.997783	0.841817	0.749880
C81	C	0.278572	0.133255	-0.052402
C82	C	0.528572	0.383255	0.197598
C83	C	0.778572	0.633255	0.447598
C84	C	1.028572	0.883255	0.697598
C85	C	0.351017	0.134330	-0.052394
C86	C	0.601017	0.384330	0.197606
C87	C	0.851017	0.634330	0.447606
C88	C	1.101017	0.884330	0.697606
C89	C	0.392672	0.093964	-0.000100
C90	C	0.642672	0.343964	0.249900
C91	C	0.892672	0.593964	0.499900
C92	C	1.142672	0.843964	0.749900
C93	C	0.133034	0.090122	-0.068376
C94	C	0.383034	0.340122	0.181624
C95	C	0.633034	0.590122	0.431624
C96	C	0.883034	0.840122	0.681624
C97	C	0.060585	0.089059	-0.068383
C98	C	0.310585	0.339059	0.181617
C99	C	0.560585	0.589059	0.431617
C100	C	0.810585	0.839059	0.681617
C101	C	0.060540	0.089052	0.068107
C102	C	0.310540	0.339052	0.318107
C103	C	0.560540	0.589052	0.568107
C104	C	0.810540	0.839052	0.818107
C105	C	0.132987	0.090122	0.068112
C106	C	0.382987	0.340122	0.318112
C107	C	0.632987	0.590122	0.568112
C108	C	0.882987	0.840122	0.818112
C109	C	0.169230	0.090654	-0.000132
C110	C	0.419230	0.340654	0.249868
C111	C	0.669230	0.590654	0.499868
C112	C	0.919230	0.840654	0.749868
C113	C	0.825690	-0.034771	-0.000109
C114	C	1.075690	0.215229	0.249891
C115	C	1.325690	0.465229	0.499891
C116	C	1.575690	0.715229	0.749891
C117	C	0.824556	-0.112275	-0.000110
C118	C	1.074556	0.137725	0.249890
C119	C	1.324556	0.387725	0.499890
C120	C	1.574556	0.637725	0.749890
C121	C	0.879734	-0.674054	-0.000137
C122	C	1.129734	-0.424054	0.249863
C123	C	1.379734	-0.174054	0.499863
C124	C	1.629734	0.075946	0.749863
C125	C	0.880805	-0.601231	-0.000130
C126	C	1.130805	-0.351231	0.249870
C127	C	1.380805	-0.101231	0.499870
C128	C	1.630805	0.148769	0.749870
C129	C	0.818039	-0.556287	-0.000122
C130	C	1.068039	-0.306287	0.249878
C131	C	1.318039	-0.056287	0.499878
C132	C	1.568039	0.193713	0.749878
C133	C	0.754196	-0.584170	-0.000101
C134	C	1.004196	-0.334170	0.249899
C135	C	1.254196	-0.084170	0.499899
C136	C	1.504196	0.165830	0.749899
C137	C	0.753127	-0.656992	-0.000101
C138	C	1.003127	-0.406992	0.249899
C139	C	1.253127	-0.156992	0.499899
C140	C	1.503127	0.093008	0.749899
N141	N	0.772604	-0.435597	-0.042727
N142	N	1.022604	-0.185597	0.207273
N143	N	1.272604	0.064403	0.457273
N144	N	1.522604	0.314403	0.707273
N145	N	0.773624	-0.366420	-0.042729
N146	N	1.023624	-0.116420	0.207271
N147	N	1.273624	0.133580	0.457271
N148	N	1.523624	0.383580	0.707271
C149	C	0.821256	-0.336878	-0.000123
C150	C	1.071256	-0.086878	0.249877
C151	C	1.321256	0.163122	0.499877
C152	C	1.571256	0.413122	0.749877
N153	N	0.867840	-0.379128	0.042477
N154	N	1.117840	-0.129128	0.292477
N155	N	1.367840	0.120872	0.542477
N156	N	1.617840	0.370872	0.792477
N157	N	0.866822	-0.448312	0.042476
N158	N	1.116822	-0.198312	0.292476
N159	N	1.366822	0.051688	0.542476
N160	N	1.616822	0.301688	0.792476
C161	C	0.819191	-0.477323	-0.000122
C162	C	1.069191	-0.227323	0.249878
C163	C	1.319191	0.022677	0.499878
C164	C	1.569191	0.272677	0.749878
C165	C	0.886255	-0.230040	-0.000131
C166	C	1.136255	0.019960	0.249869
C167	C	1.386255	0.269960	0.499869
C168	C	1.636255	0.519960	0.749869
C169	C	0.887324	-0.157215	-0.000119
C170	C	1.137324	0.092785	0.249881
C171	C	1.387324	0.342785	0.499881
C172	C	1.637324	0.592785	0.749881
C173	C	0.760713	-0.140155	-0.000099
C174	C	1.010713	0.109845	0.249901
C175	C	1.260713	0.359845	0.499901
C176	C	1.510713	0.609845	0.749901
C177	C	0.759646	-0.212978	-0.000102
C178	C	1.009646	0.037022	0.249898
C179	C	1.259646	0.287022	0.499898
C180	C	1.509646	0.537022	0.749898
C181	C	0.822420	-0.257917	-0.000122
C182	C	1.072420	-0.007917	0.249878
C183	C	1.322420	0.242083	0.499878
C184	C	1.572420	0.492083	0.749878
C185	C	0.947236	0.087389	-0.000130
C186	C	1.197236	0.337389	0.249870
C187	C	1.447236	0.587389	0.499870
C188	C	1.697236	0.837389	0.749870
C189	C	1.024341	0.088517	-0.000145
C190	C	1.274341	0.338517	0.249855
C191	C	1.524341	0.588517	0.499855
C192	C	1.774341	0.838517	0.749855
C193	C	0.814767	0.220565	-0.000117
C194	C	1.064767	0.470565	0.249883
C195	C	1.314767	0.720565	0.499883
C196	C	1.564767	0.970565	0.749883
C197	C	0.815900	0.298070	-0.000120
C198	C	1.065900	0.548070	0.249880
C199	C	1.315900	0.798070	0.499880
C200	C	1.565900	1.048070	0.749880
N201	N	0.820207	0.092889	0.178043
N202	N	1.070207	0.342889	0.428043
N203	N	1.320207	0.592889	0.678043
N204	N	1.570207	0.842889	0.928043
N205	N	0.820255	0.092900	-0.178267
N206	N	1.070255	0.342900	0.071733
N207	N	1.320255	0.592900	0.321733
N208	N	1.570255	0.842900	0.571733
C209	C	0.867588	0.045293	0.217426
C210	C	1.117588	0.295293	0.467426
C211	C	1.367588	0.545293	0.717426
C212	C	1.617588	0.795293	0.967426
C213	C	0.867592	0.045290	0.296228
C214	C	1.117592	0.295290	0.546228
C215	C	1.367592	0.545290	0.796228
C216	C	1.617592	0.795290	1.046228
C217	C	0.820221	0.092895	0.335644
C218	C	1.070221	0.342895	0.585644
C219	C	1.320221	0.592895	0.835644
C220	C	1.570221	0.842895	1.085644
C221	C	0.772831	0.140494	0.296252
C222	C	1.022831	0.390494	0.546252
C223	C	1.272831	0.640494	0.796252
C224	C	1.522831	0.890494	1.046252
C225	C	0.772824	0.140491	0.217451
C226	C	1.022824	0.390491	0.467451
C227	C	1.272824	0.640491	0.717451
C228	C	1.522824	0.890491	0.967451
C229	C	0.810926	0.156512	0.460480
C230	C	1.060926	0.406512	0.710480
C231	C	1.310926	0.656512	0.960480
C232	C	1.560926	0.906512	1.210480
C233	C	0.810938	0.156516	0.539279
C234	C	1.060938	0.406516	0.789279
C235	C	1.310938	0.656516	1.039279
C236	C	1.560938	0.906516	1.289279
C237	C	0.820240	0.092903	0.578690
C238	C	1.070240	0.342903	0.828690
C239	C	1.320240	0.592903	1.078690
C240	C	1.570240	0.842903	1.328690
C241	C	0.829544	0.029284	0.539293
C242	C	1.079544	0.279284	0.789293
C243	C	1.329544	0.529284	1.039293
C244	C	1.579544	0.779284	1.289293
C245	C	0.829537	0.029281	0.460492
C246	C	1.079537	0.279281	0.710492
C247	C	1.329537	0.529281	0.960492
C248	C	1.579537	0.779281	1.210492
C249	C	0.820224	0.092903	0.421090
C250	C	1.070224	0.342903	0.671090
C251	C	1.320224	0.592903	0.921090
C252	C	1.570224	0.842903	1.171090
C253	C	0.867628	0.045300	0.703519
C254	C	1.117628	0.295300	0.953519
C255	C	1.367628	0.545300	1.203519
C256	C	1.617628	0.795300	1.453519
C257	C	0.867628	0.045296	0.782322
C258	C	1.117628	0.295296	1.032322
C259	C	1.367628	0.545296	1.282322
C260	C	1.617628	0.795296	1.532322
C261	C	0.772870	0.140506	0.782344
C262	C	1.022870	0.390506	1.032344
C263	C	1.272870	0.640506	1.282344
C264	C	1.522870	0.890506	1.532344
C265	C	0.772867	0.140504	0.703543
C266	C	1.022867	0.390504	0.953543
C267	C	1.272867	0.640504	1.203543
C268	C	1.522867	0.890504	1.453543
C269	C	0.820250	0.092902	0.664135
C270	C	1.070250	0.342902	0.914135
C271	C	1.320250	0.592902	1.164135
C272	C	1.570250	0.842902	1.414135
H273	H	0.162544	0.090562	-0.123945
H274	H	0.412544	0.340562	0.126055
H275	H	0.662544	0.590562	0.376055
H276	H	0.912544	0.840562	0.626055
Br277	Br	0.931931	-0.019305	0.650034
Br278	Br	1.181931	0.230695	0.900034
Br279	Br	1.431931	0.480695	1.150034
Br280	Br	1.681931	0.730695	1.400034
H281	H	0.906169	0.006531	0.185342
H282	H	1.156169	0.256531	0.435342
H283	H	1.406169	0.506531	0.685342
H284	H	1.656169	0.756531	0.935342
Br285	Br	0.182110	0.090851	0.160731
Br286	Br	0.432110	0.340851	0.410731
Br287	Br	0.682110	0.590851	0.660731
Br288	Br	0.932110	0.840851	0.910731
H289	H	0.707666	-0.235674	-0.000095
H290	H	0.957666	0.014326	0.249905
H291	H	1.207666	0.264326	0.499905
H292	H	1.457666	0.514326	0.749905
H293	H	0.734260	0.179253	0.328348
H294	H	0.984260	0.429253	0.578348
H295	H	1.234260	0.679253	0.828348
H296	H	1.484260	0.929253	1.078348
H297	H	0.906177	0.006530	0.328299
H298	H	1.156177	0.256530	0.578299
H299	H	1.406177	0.506530	0.828299
H300	H	1.656177	0.756530	1.078299
H301	H	0.734239	0.179250	0.185385
H302	H	0.984239	0.429250	0.435385
H303	H	1.234239	0.679250	0.685385
H304	H	1.484239	0.929250	0.935385
H305	H	0.930849	-0.710639	-0.000148
H306	H	1.180849	-0.460639	0.249852
H307	H	1.430849	-0.210639	0.499852
H308	H	1.680849	0.039361	0.749852
Br309	Br	0.666489	-0.694826	-0.000078
Br310	Br	0.916489	-0.444826	0.249922
Br311	Br	1.166489	-0.194826	0.499922
Br312	Br	1.416489	0.055174	0.749922
H313	H	0.734287	0.179264	0.671475
H314	H	0.984287	0.429264	0.921475
H315	H	1.234287	0.679264	1.171475
H316	H	1.484287	0.929264	1.421475
Br317	Br	0.458345	0.094941	-0.160958
Br318	Br	0.708345	0.344941	0.089042
Br319	Br	0.958345	0.594941	0.339042
Br320	Br	1.208345	0.844941	0.589042
Br321	Br	0.931930	-0.019310	0.835774
Br322	Br	1.181930	0.230690	1.085774
Br323	Br	1.431930	0.480690	1.335774
Br324	Br	1.681930	0.730690	1.585774
Br325	Br	0.011462	0.088336	-0.161006
Br326	Br	0.261462	0.338336	0.088994
Br327	Br	0.511462	0.588336	0.338994
Br328	Br	0.761462	0.838336	0.588994
Br329	Br	0.798319	0.242855	0.592739
Br330	Br	1.048319	0.492855	0.842739
Br331	Br	1.298319	0.742855	1.092739
Br332	Br	1.548319	0.992855	1.342739
H333	H	0.609427	0.097172	-0.123897
H334	H	0.859427	0.347172	0.126103
H335	H	1.109427	0.597172	0.376103
H336	H	1.359427	0.847172	0.626103
Br337	Br	0.392801	0.190566	-0.123342
Br338	Br	0.642801	0.440566	0.126658
Br339	Br	0.892801	0.690566	0.376658
Br340	Br	1.142801	0.940566	0.626658
Br341	Br	0.842157	-0.057055	0.407026
Br342	Br	1.092157	0.192945	0.657026
Br343	Br	1.342157	0.442945	0.907026
Br344	Br	1.592157	0.692945	1.157026
Br345	Br	0.675528	-0.079166	-0.000074
Br346	Br	0.925528	0.170834	0.249926
Br347	Br	1.175528	0.420834	0.499926
Br348	Br	1.425528	0.670834	0.749926
Br349	Br	0.973963	-0.119383	-0.000143
Br350	Br	1.223963	0.130617	0.249857
Br351	Br	1.473963	0.380617	0.499857
Br352	Br	1.723963	0.630617	0.749857
H353	H	0.937369	-0.266631	-0.000146
H354	H	1.187369	-0.016631	0.249854
H355	H	1.437369	0.233369	0.499854
H356	H	1.687369	0.483369	0.749854
Br357	Br	0.669012	-0.523176	-0.000084
Br358	Br	0.919012	-0.273176	0.249916
Br359	Br	1.169012	-0.023176	0.499916
Br360	Br	1.419012	0.226824	0.749916
H361	H	0.244651	0.166130	-0.094970
H362	H	0.494651	0.416130	0.155030
H363	H	0.744651	0.666130	0.405030
H364	H	0.994651	0.916130	0.655030
Br365	Br	0.011352	0.088326	0.160717
Br366	Br	0.261352	0.338326	0.410717
Br367	Br	0.511352	0.588326	0.660717
Br368	Br	0.761352	0.838326	0.910717
Br369	Br	0.708572	0.205105	0.835831
Br370	Br	0.958572	0.455105	1.085831
Br371	Br	1.208572	0.705105	1.335831
Br372	Br	1.458572	0.955105	1.585831
H373	H	0.264383	0.017704	0.094727
H374	H	0.514383	0.267704	0.344727
H375	H	0.764383	0.517704	0.594727
H376	H	1.014383	0.767704	0.844727
Br377	Br	0.842178	-0.057055	0.592768
Br378	Br	1.092178	0.192945	0.842768
Br379	Br	1.342178	0.442945	1.092768
Br380	Br	1.592178	0.692945	1.342768
Br381	Br	0.798371	0.242854	0.407002
Br382	Br	1.048371	0.492854	0.657002
Br383	Br	1.298371	0.742854	0.907002
Br384	Br	1.548371	0.992854	1.157002
H385	H	0.477909	0.095231	0.123710
H386	H	0.727909	0.345231	0.373710
H387	H	0.977909	0.595231	0.623710
H388	H	1.227909	0.845231	0.873710
Br389	Br	0.418424	-0.002259	0.123130
Br390	Br	0.668424	0.247741	0.373130
Br391	Br	0.918424	0.497741	0.623130
Br392	Br	1.168424	0.747741	0.873130
H393	H	0.609341	0.097185	0.123731
H394	H	0.859341	0.347185	0.373731
H395	H	1.109341	0.597185	0.623731
H396	H	1.359341	0.847185	0.873731
H397	H	0.932788	-0.578530	-0.000143
H398	H	1.182788	-0.328530	0.249857
H399	H	1.432788	-0.078530	0.499857
H400	H	1.682788	0.171470	0.749857
