data_functionalizedCrystal
_audit_creation_method	'MofGen! by Chris Wilmer'
_symmetry_space_group_name_H-M	'P1'
_symmetry_Int_Tables_number	1
_symmetry_cell_setting	triclinic
loop_
_symmetry_equiv_pos_as_xyz
  x,y,z
_cell_length_a	19.188905
_cell_length_b	19.188930
_cell_length_c	13.101039
_cell_angle_alpha	93.345801
_cell_angle_beta	86.647018
_cell_angle_gamma	83.139668
loop_
_atom_site_label
_atom_site_type_symbol
_atom_site_fract_x
_atom_site_fract_y
_atom_site_fract_z
O1	O	0.930017	0.083211	-0.085395
O2	O	0.726702	0.094965	-0.085362
O3	O	0.834226	-0.012568	-0.085359
O4	O	0.822493	0.190743	-0.085397
O5	O	0.826511	-0.004840	0.085070
O6	O	0.718987	0.102693	0.085068
O7	O	0.922302	0.090939	0.085035
Zn8	Zn	0.819420	0.098043	0.112111
Zn9	Zn	0.829584	0.087861	-0.112438
O10	O	0.814778	0.198471	0.085032
C11	C	0.696833	0.098451	-0.000142
C12	C	0.619327	0.097318	-0.000129
C13	C	0.587140	0.092561	-0.093032
C14	C	0.514317	0.091487	-0.093045
C15	C	0.473685	0.095157	-0.000148
C16	C	0.505879	0.099919	0.092768
C17	C	0.578700	0.100999	0.092778
N18	N	0.361535	0.056864	0.068993
N19	N	0.292359	0.055835	0.068978
C20	C	0.254279	0.091903	-0.000172
N21	N	0.287992	0.129029	-0.069322
N22	N	0.357175	0.130054	-0.069309
C23	C	0.394722	0.093986	-0.000149
C24	C	0.143130	0.085983	-0.093096
C25	C	0.070305	0.084914	-0.093105
C26	C	0.061869	0.093338	0.092710
C27	C	0.134692	0.094414	0.092716
C28	C	0.175319	0.090733	-0.000190
C29	C	0.829988	-0.034715	-0.000141
C30	C	0.828847	-0.112219	-0.000132
C31	C	0.891939	-0.157148	-0.000138
C32	C	0.890868	-0.229973	-0.000154
C33	C	0.826700	-0.257863	-0.000144
C34	C	0.763601	-0.212924	-0.000145
C35	C	0.764674	-0.140101	-0.000139
N36	N	0.775027	-0.363233	0.057864
N37	N	0.774011	-0.432412	0.057861
C38	C	0.823463	-0.477272	-0.000164
N39	N	0.873979	-0.450342	-0.058173
N40	N	0.874996	-0.381157	-0.058165
C41	C	0.825530	-0.336826	-0.000151
C42	C	0.885398	-0.601168	-0.000189
C43	C	0.884325	-0.673993	-0.000212
C44	C	0.757055	-0.656942	-0.000192
C45	C	0.758131	-0.584118	-0.000180
C46	C	0.822304	-0.556236	-0.000173
C47	C	0.952171	0.087452	-0.000187
C48	C	1.029677	0.088585	-0.000207
C49	C	0.819016	0.220618	-0.000188
C50	C	0.820157	0.298121	-0.000204
N51	N	0.812488	0.104991	0.265359
N52	N	0.836522	0.080906	-0.265686
C53	C	0.803056	0.114451	0.474402
C54	C	0.845950	0.071449	0.525278
C55	C	0.840703	0.076712	0.641596
C56	C	0.808303	0.109188	0.358073
H57	H	0.488106	0.087614	-0.168701
H58	H	0.935704	-0.710576	-0.000222
F59	F	0.695310	-0.242608	-0.000141
F60	F	0.462634	0.103828	0.191635
F61	F	0.960239	-0.127479	-0.000153
H62	H	0.762396	0.155218	0.518198
H63	H	0.620214	0.089563	-0.168684
H64	H	0.604905	0.104874	0.168434
F65	F	0.186370	0.082070	-0.191974
H66	H	0.044100	0.081044	-0.168761
H67	H	0.886615	0.030680	0.481477
F68	F	0.688763	-0.686620	-0.000187
F69	F	0.018629	0.097250	0.191579
H70	H	0.160898	0.098284	0.168369
F71	F	0.958022	-0.277799	-0.000162
H72	H	0.713295	-0.103519	-0.000134
H73	H	0.937652	-0.578464	-0.000189
F74	F	0.690979	-0.536298	-0.000170
