data_functionalizedCrystal
_audit_creation_method	'MofGen! by Chris Wilmer'
_symmetry_space_group_name_H-M	'P1'
_symmetry_Int_Tables_number	1
_symmetry_cell_setting	triclinic
loop_
_symmetry_equiv_pos_as_xyz
  x,y,z
_cell_length_a	21.395364
_cell_length_b	13.897447
_cell_length_c	21.395356
_cell_angle_alpha	89.978542
_cell_angle_beta	89.983617
_cell_angle_gamma	90.034481
loop_
_atom_site_label
_atom_site_type_symbol
_atom_site_fract_x
_atom_site_fract_y
_atom_site_fract_z
Zn1	Zn	0.957857	-0.383674	-0.354280
Zn2	Zn	1.457857	0.116326	0.145720
Zn3	Zn	0.957795	-0.544974	-0.249510
Zn4	Zn	1.457795	-0.044974	0.250490
Zn5	Zn	0.853087	-0.383737	-0.249516
Zn6	Zn	1.353087	0.116263	0.250484
Zn7	Zn	0.853062	-0.544971	-0.354250
Zn8	Zn	1.353062	-0.044971	0.145750
O9	O	0.905450	-0.464339	-0.301889
O10	O	1.405450	0.035661	0.198111
O11	O	1.045527	-0.405046	-0.340391
O12	O	1.545527	0.094954	0.159609
O13	O	0.943890	-0.523613	-0.161833
O14	O	1.443890	-0.023613	0.338167
O15	O	0.867022	-0.248747	-0.263429
O16	O	1.367022	0.251253	0.236571
O17	O	1.045481	-0.523552	-0.263417
O18	O	1.545481	-0.023552	0.236583
O19	O	0.943996	-0.248701	-0.340398
O20	O	1.443996	0.251299	0.159602
O21	O	0.866962	-0.405152	-0.161838
O22	O	1.366962	0.094848	0.338162
O23	O	0.765406	-0.405150	-0.263400
O24	O	1.265406	0.094850	0.236600
O25	O	0.866979	-0.523547	-0.441932
O26	O	1.366979	-0.023547	0.058068
O27	O	0.765387	-0.523608	-0.340347
O28	O	1.265387	-0.023608	0.159653
O29	O	0.943971	-0.405043	-0.441954
O30	O	1.443971	0.094957	0.058046
O31	O	0.943866	-0.679955	-0.263389
O32	O	1.443866	-0.179955	0.236611
O33	O	0.866918	-0.679953	-0.340341
O34	O	1.366918	-0.179953	0.159659
C35	C	0.742663	-0.464386	-0.301871
C36	C	1.242663	0.035614	0.198129
C37	C	0.673022	-0.464429	-0.301879
C38	C	1.173022	0.035571	0.198121
C39	C	0.640355	-0.402824	-0.342021
C40	C	1.140355	0.097176	0.157979
C41	C	0.574919	-0.402798	-0.342023
C42	C	1.074919	0.097202	0.157977
C43	C	0.542153	-0.464395	-0.301890
C44	C	1.042153	0.035605	0.198110
C45	C	0.574828	-0.526005	-0.261740
C46	C	1.074828	-0.026005	0.238260
C47	C	0.640262	-0.526022	-0.261734
C48	C	1.140262	-0.026022	0.238266
C49	C	0.438441	-0.551263	-0.296857
C50	C	0.938441	-0.051263	0.203143
C51	C	0.373008	-0.551247	-0.296867
C52	C	0.873008	-0.051247	0.203133
C53	C	0.340333	-0.464342	-0.301904
C54	C	0.840333	0.035658	0.198096
C55	C	0.373098	-0.377449	-0.306944
C56	C	0.873098	0.122551	0.193056
C57	C	0.438533	-0.377466	-0.306939
C58	C	0.938533	0.122534	0.193061
C59	C	0.471201	-0.464383	-0.301891
C60	C	0.971201	0.035617	0.198109
C61	C	0.236713	-0.402704	-0.342051
C62	C	0.736713	0.097296	0.157949
C63	C	0.171276	-0.402677	-0.342049
C64	C	0.671276	0.097323	0.157951
C65	C	0.171187	-0.525891	-0.261769
C66	C	0.671187	-0.025891	0.238231
C67	C	0.236622	-0.525910	-0.261768
C68	C	0.736622	-0.025910	0.238232
C69	C	0.269381	-0.464318	-0.301912
C70	C	0.769381	0.035682	0.198088
C71	C	0.905400	-0.714953	-0.301874
C72	C	1.405400	-0.214953	0.198126
C73	C	0.905435	-0.822167	-0.301889
C74	C	1.405435	-0.322167	0.198111
C75	C	0.905465	-0.909237	-0.301903
C76	C	1.405465	-0.409237	0.198097
C77	C	0.905509	-1.018469	-0.301919
C78	C	1.405509	-0.518469	0.198081
C79	C	1.068874	-0.464292	-0.301907
C80	C	1.568874	0.035708	0.198093
C81	C	1.138515	-0.464273	-0.301915
C82	C	1.638515	0.035727	0.198085
C83	C	0.905479	-0.464288	-0.465312
C84	C	1.405479	0.035712	0.034688
C85	C	0.905491	-0.464267	-0.534953
C86	C	1.405491	0.035733	-0.034953
C87	C	0.905519	-0.212746	-0.301917
C88	C	1.405519	0.287254	0.198083
C89	C	0.905548	-0.105532	-0.301929
C90	C	1.405548	0.394468	0.198071
C91	C	0.945618	-0.525747	-1.036748
C92	C	1.445618	-0.025747	-0.536748
C93	C	0.945607	-0.525777	-0.971312
C94	C	1.445607	-0.025777	-0.471312
C95	C	0.905551	-0.464114	-0.938592
C96	C	1.405551	0.035886	-0.438592
C97	C	0.865492	-0.402432	-0.971312
C98	C	1.365492	0.097568	-0.471312
C99	C	0.865500	-0.402410	-1.036747
C100	C	1.365500	0.097590	-0.536747
C101	C	0.900615	-0.377245	-0.834933
C102	C	1.400615	0.122755	-0.334933
C103	C	0.900611	-0.377266	-0.769500
C104	C	1.400611	0.122734	-0.269500
C105	C	0.905523	-0.464182	-0.736771
C106	C	1.405523	0.035818	-0.236771
C107	C	0.910452	-0.551081	-0.769484
C108	C	1.410452	-0.051081	-0.269484
C109	C	0.910460	-0.551059	-0.834918
C110	C	1.410460	-0.051059	-0.334918
C111	C	0.905538	-0.464131	-0.867640
C112	C	1.405538	0.035869	-0.367640
C113	C	0.945564	-0.525897	-0.633106
C114	C	1.445564	-0.025897	-0.133106
C115	C	0.945549	-0.525930	-0.567669
C116	C	1.445549	-0.025930	-0.067669
C117	C	0.865437	-0.402576	-0.567671
C118	C	1.365437	0.097424	-0.067671
C119	C	0.865449	-0.402553	-0.633106
C120	C	1.365449	0.097447	-0.133106
C121	C	0.905516	-0.464212	-0.665820
C122	C	1.405516	0.035788	-0.165820
C123	C	0.905458	-0.464320	-0.139101
C124	C	1.405458	0.035680	0.360899
C125	C	0.905567	-0.464070	-0.069460
C126	C	1.405567	0.035930	0.430540
H127	H	0.263220	-0.576080	-0.229082
H128	H	0.763220	-0.076080	0.270918
F129	F	0.675030	-0.591591	-0.219006
F130	F	1.175030	-0.091591	0.280994
F131	F	0.473402	-0.284992	-0.312301
F132	F	0.973402	0.215008	0.187699
F133	F	0.822793	-0.336968	-0.532851
F134	F	1.322793	0.163032	-0.032851
H135	H	0.548317	-0.352627	-0.374711
H136	H	1.048317	0.147373	0.125289
H137	H	0.896656	-0.306457	-0.861575
H138	H	1.396656	0.193543	-0.361575
F139	F	0.136319	-0.591442	-0.219052
F140	F	0.636319	-0.091442	0.280948
H141	H	0.832885	-0.352183	-1.063381
H142	H	1.332885	0.147817	-0.563381
H143	H	0.978160	-0.576164	-0.541036
H144	H	1.478160	-0.076164	-0.041036
H145	H	0.144680	-0.352504	-0.374737
H146	H	0.644680	0.147496	0.125263
H147	H	0.914471	-0.621815	-0.861550
H148	H	1.414471	-0.121815	-0.361550
H149	H	0.832837	-0.352325	-0.659741
H150	H	1.332837	0.147675	-0.159741
F151	F	0.338142	-0.643726	-0.291511
F152	F	0.838142	-0.143726	0.208489
H153	H	0.896601	-0.306507	-0.742870
H154	H	1.396601	0.193493	-0.242870
F155	F	0.988236	-0.591426	-0.936490
F156	F	1.488236	-0.091426	-0.436490
H157	H	0.465039	-0.622037	-0.292754
H158	H	0.965039	-0.122037	0.207246
H159	H	0.667023	-0.352670	-0.374709
H160	H	1.167023	0.147330	0.125291
F161	F	0.338329	-0.284951	-0.312305
F162	F	0.838329	0.215049	0.187695
H163	H	0.263387	-0.352545	-0.374735
H164	H	0.763387	0.147455	0.125265
F165	F	0.539956	-0.591557	-0.219025
F166	F	1.039956	-0.091557	0.280975
F167	F	0.988256	-0.591379	-1.071561
F168	F	1.488256	-0.091379	-0.571561
H169	H	0.914453	-0.621856	-0.742838
H170	H	1.414453	-0.121856	-0.242838
H171	H	0.978188	-0.576107	-0.659743
H172	H	1.478188	-0.076107	-0.159743
F173	F	0.822863	-0.336804	-0.936488
F174	F	1.322863	0.163196	-0.436488
