data_functionalizedCrystal
_audit_creation_method	'MofGen! by Chris Wilmer'
_symmetry_space_group_name_H-M	'P1'
_symmetry_Int_Tables_number	1
_symmetry_cell_setting	triclinic
loop_
_symmetry_equiv_pos_as_xyz
  x,y,z
_cell_length_a	15.995350
_cell_length_b	14.044191
_cell_length_c	13.101039
_cell_angle_alpha	86.337551
_cell_angle_beta	86.633551
_cell_angle_gamma	91.657925
loop_
_atom_site_label
_atom_site_type_symbol
_atom_site_fract_x
_atom_site_fract_y
_atom_site_fract_z
O1	O	-0.197663	1.262919	-0.085147
O2	O	0.135671	1.596252	0.248186
O3	O	0.469004	1.929585	0.581519
O4	O	-0.190372	0.986950	-0.085161
O5	O	0.142962	1.320283	0.248172
O6	O	0.476295	1.653617	0.581506
O7	O	-0.072693	1.132478	-0.085158
O8	O	0.260640	1.465812	0.248176
O9	O	0.593974	1.799145	0.581509
O10	O	-0.315341	1.117390	-0.085150
O11	O	0.017992	1.450724	0.248183
O12	O	0.351325	1.784057	0.581516
O13	O	-0.081152	1.122037	0.085272
O14	O	0.252182	1.455370	0.418605
O15	O	0.585515	1.788704	0.751939
O16	O	-0.198830	0.976509	0.085269
O17	O	0.134503	1.309842	0.418602
O18	O	0.467836	1.643175	0.751935
O19	O	-0.206121	1.252477	0.085282
O20	O	0.127212	1.585811	0.418616
O21	O	0.460545	1.919144	0.751949
Zn22	Zn	-0.203819	1.112835	0.112335
Zn23	Zn	0.129515	1.446168	0.445668
Zn24	Zn	0.462848	1.779502	0.779002
Zn25	Zn	-0.192674	1.126592	-0.112213
Zn26	Zn	0.140659	1.459926	0.221120
Zn27	Zn	0.473992	1.793259	0.554453
O28	O	-0.323800	1.106949	0.085279
O29	O	0.009533	1.440282	0.418612
O30	O	0.342867	1.773616	0.751946
C31	C	-0.191411	0.946415	0.000052
C32	C	0.141922	1.279748	0.333385
C33	C	0.475255	1.613082	0.666719
C34	C	-0.181898	0.841189	0.000046
C35	C	0.151436	1.174523	0.333380
C36	C	0.484769	1.507856	0.666713
C37	C	-0.231977	0.590902	0.000058
C38	C	0.101356	0.924235	0.333391
C39	C	0.434690	1.257569	0.666725
C40	C	-0.164519	0.648531	0.000054
C41	C	0.168814	0.981865	0.333388
C42	C	0.502147	1.315198	0.666721
C43	C	-0.174191	0.755736	0.000050
C44	C	0.159142	1.089069	0.333383
C45	C	0.492476	1.422403	0.666717
C46	C	-0.222306	0.483687	0.000063
C47	C	0.111027	0.817021	0.333396
C48	C	0.444360	1.150354	0.666729
C49	C	-0.350812	1.112793	0.000065
C50	C	-0.017479	1.446127	0.333399
C51	C	0.315855	1.779460	0.666732
C52	C	-0.443902	1.114663	0.000068
C53	C	-0.110569	1.447996	0.333402
C54	C	0.222764	1.781330	0.666735
C55	C	-0.782151	1.121380	0.000053
C56	C	-0.448817	1.454713	0.333386
C57	C	-0.115484	1.788046	0.666719
C58	C	-0.742441	1.225046	-0.000323
C59	C	-0.409108	1.558379	0.333011
C60	C	-0.075775	1.891712	0.666344
C61	C	-0.645631	1.223151	0.000067
C62	C	-0.312297	1.556485	0.333400
C63	C	0.021036	1.889818	0.666734
C64	C	-0.614342	1.118048	0.000060
C65	C	-0.281008	1.451382	0.333393
C66	C	0.052325	1.784715	0.666726
C67	C	-0.656435	1.060966	0.097377
C68	C	-0.323102	1.394299	0.430711
C69	C	0.010231	1.727632	0.764044
C70	C	-0.753269	1.063565	0.097453
C71	C	-0.419936	1.396898	0.430787
C72	C	-0.086603	1.730231	0.764120
C73	C	-0.743838	1.073297	-0.096357
C74	C	-0.410504	1.406631	0.236976
C75	C	-0.077171	1.739964	0.570309
C76	C	-0.646831	1.073400	-0.097638
C77	C	-0.313497	1.406734	0.235696
C78	C	0.019836	1.740067	0.569029
C79	C	-0.519504	1.116160	0.000067
C80	C	-0.186170	1.449493	0.333401
C81	C	0.147163	1.782826	0.666734
C82	C	-0.876989	1.123265	0.000052
C83	C	-0.543656	1.456598	0.333385
C84	C	-0.210323	1.789931	0.666719
C85	C	-0.045681	1.126634	0.000054
C86	C	0.287653	1.459967	0.333387
C87	C	0.620986	1.793301	0.666721
C88	C	0.047410	1.124765	0.000044
C89	C	0.380743	1.458098	0.333378
C90	C	0.714077	1.791431	0.666711
C91	C	-0.205081	1.293013	0.000067
C92	C	0.128252	1.626346	0.333401
C93	C	0.461585	1.959679	0.666734
C94	C	-0.214595	1.398239	0.000066
C95	C	0.118739	1.731572	0.333399
C96	C	0.452072	2.064905	0.666733
N97	N	-0.211425	1.103453	0.265583
N98	N	0.121909	1.436787	0.598917
N99	N	0.455242	1.770120	0.932250
N100	N	-0.185062	1.135982	-0.265462
N101	N	0.148271	1.469315	0.067872
N102	N	0.481604	1.802648	0.401205
C103	C	-0.221780	1.090689	0.474626
C104	C	0.111553	1.424022	0.807959
C105	C	0.444886	1.757355	1.141292
C106	C	-0.174709	1.148743	0.525503
C107	C	0.158624	1.482076	0.858836
C108	C	0.491958	1.815410	1.192169
C109	C	-0.180471	1.141641	0.641821
C110	C	0.152862	1.474974	0.975154
C111	C	0.486196	1.808307	1.308487
C112	C	-0.216019	1.097790	0.358297
C113	C	0.117314	1.431123	0.691630
C114	C	0.450647	1.764456	1.024963
H115	H	-0.099500	0.617361	-0.000020
H116	H	0.233834	0.950694	0.333314
H117	H	0.567167	1.284027	0.666647
Br118	Br	-0.340335	0.642861	0.000051
Br119	Br	-0.007002	0.976194	0.333384
Br120	Br	0.326331	1.309527	0.666717
Br121	Br	-0.100712	1.240875	0.452505
Br122	Br	0.232621	1.574208	0.785838
Br123	Br	0.565955	1.907541	1.119172
H124	H	-0.616745	1.267614	-0.069690
H125	H	-0.283411	1.600948	0.263643
H126	H	0.049922	1.934281	0.596977
H127	H	-0.760589	1.270742	-0.070122
H128	H	-0.427256	1.604075	0.263211
H129	H	-0.093923	1.937408	0.596545
H130	H	-0.768641	1.262076	0.069013
H131	H	-0.435308	1.595409	0.402347
H132	H	-0.101975	1.928743	0.735680
H133	H	-0.266404	1.035657	0.518421
H134	H	0.066929	1.368990	0.851755
H135	H	0.400262	1.702324	1.185088
H136	H	-0.624261	1.259321	0.069955
H137	H	-0.290928	1.592654	0.403289
H138	H	0.042406	1.925987	0.736622
H139	H	-0.777970	1.096386	0.170205
H140	H	-0.444637	1.429720	0.503539
H141	H	-0.111304	1.763053	0.836872
Br142	Br	-0.797914	0.936292	0.104826
Br143	Br	-0.464581	1.269625	0.438159
Br144	Br	-0.131248	1.602959	0.771492
Br145	Br	-0.623582	0.931894	0.103406
Br146	Br	-0.290249	1.265227	0.436739
Br147	Br	0.043084	1.598561	0.770072
Br148	Br	-0.619562	1.112751	0.218102
Br149	Br	-0.286229	1.446085	0.551435
Br150	Br	0.047105	1.779418	0.884769
Br151	Br	-0.600017	1.142962	-0.217639
Br152	Br	-0.266683	1.476295	0.115694
Br153	Br	0.066650	1.809629	0.449028
Br154	Br	-0.776193	1.137298	-0.219303
Br155	Br	-0.442860	1.470631	0.114030
Br156	Br	-0.109526	1.803964	0.447363
H157	H	-0.625446	0.997117	-0.103523
H158	H	-0.292112	1.330450	0.229810
H159	H	0.041221	1.663784	0.563144
H160	H	-0.769844	0.996916	-0.097008
H161	H	-0.436511	1.330250	0.236325
H162	H	-0.103177	1.663583	0.569658
