data_functionalizedCrystal
_audit_creation_method	'MofGen! by Chris Wilmer'
_symmetry_space_group_name_H-M	'P1'
_symmetry_Int_Tables_number	1
_symmetry_cell_setting	triclinic
loop_
_symmetry_equiv_pos_as_xyz
  x,y,z
_cell_length_a	15.712078
_cell_length_b	15.625325
_cell_length_c	14.185569
_cell_angle_alpha	94.303044
_cell_angle_beta	107.170411
_cell_angle_gamma	101.032154
loop_
_atom_site_label
_atom_site_type_symbol
_atom_site_fract_x
_atom_site_fract_y
_atom_site_fract_z
O1	O	1.168802	0.479356	0.090724
O2	O	1.668802	0.979356	0.590724
O3	O	0.911547	0.414638	0.067232
O4	O	1.411547	0.914638	0.567232
O5	O	1.036510	0.325393	0.034747
O6	O	1.536510	0.825393	0.534747
O7	O	1.043839	0.568602	0.123210
O8	O	1.543839	1.068602	0.623210
O9	O	1.073426	0.299033	0.191986
O10	O	1.573426	0.799033	0.691986
O11	O	0.948463	0.388279	0.224472
O12	O	1.448463	0.888279	0.724472
O13	O	1.205718	0.452996	0.247964
O14	O	1.705718	0.952996	0.747964
Cu15	Cu	1.080461	0.418231	0.250575
Cu16	Cu	1.580461	0.918231	0.750575
Cu17	Cu	1.036804	0.449404	0.064621
Cu18	Cu	1.536804	0.949404	0.564621
O19	O	1.080754	0.542242	0.280450
O20	O	1.580754	1.042242	0.780450
C21	C	0.896886	0.390886	0.142012
C22	C	1.396886	0.890886	0.642012
C23	C	0.798203	0.359373	0.130568
C24	C	1.298203	0.859373	0.630568
C25	C	0.454287	0.626910	0.227811
C26	C	0.954287	1.126910	0.727811
C27	C	0.361551	0.597286	0.217011
C28	C	0.861551	1.097286	0.717011
C29	C	0.369295	0.448829	0.163010
C30	C	0.869295	0.948829	0.663010
C31	C	0.462032	0.478441	0.173801
C32	C	0.962032	0.978441	0.673801
C33	C	0.504521	0.567483	0.206203
C34	C	1.004521	1.067483	0.706203
C35	C	0.512266	0.419014	0.152193
C36	C	1.012266	0.919014	0.652193
C37	C	0.604997	0.448623	0.162988
C38	C	1.104997	0.948623	0.662988
C39	C	0.647493	0.537660	0.195392
C40	C	1.147493	1.037660	0.695392
C41	C	0.597251	0.597092	0.216998
C42	C	1.097251	1.097092	0.716998
C43	C	0.469777	0.329972	0.119798
C44	C	0.969777	0.829972	0.619798
C45	C	0.520012	0.270544	0.098190
C46	C	1.020012	0.770544	0.598190
C47	C	0.612742	0.300155	0.108978
C48	C	1.112742	0.800155	0.608978
C49	C	0.655239	0.389192	0.141381
C50	C	1.155239	0.889192	0.641381
C51	C	0.662984	0.240723	0.087371
C52	C	1.162984	0.740723	0.587371
C53	C	0.755714	0.270332	0.098166
C54	C	1.255714	0.770332	0.598166
C55	C	0.747969	0.418801	0.152177
C56	C	1.247969	0.918801	0.652177
C57	C	1.051638	0.280366	0.101781
C58	C	1.551638	0.780366	0.601781
C59	C	1.041704	0.185471	0.067260
C60	C	1.541704	0.685471	0.567260
C61	C	1.109674	-0.198463	0.382295
C62	C	1.609674	0.301537	0.882295
C63	C	1.100340	-0.287628	0.349841
C64	C	1.600340	0.212372	0.849841
C65	C	1.060097	-0.258882	0.178428
C66	C	1.560097	0.241118	0.678428
C67	C	1.069424	-0.169714	0.210868
C68	C	1.569424	0.330286	0.710868
C69	C	1.094214	-0.139512	0.312802
C70	C	1.594214	0.360488	0.812802
C71	C	1.053963	-0.110762	0.141375
C72	C	1.553963	0.389238	0.641375
C73	C	1.063294	-0.021601	0.173812
C74	C	1.563294	0.478399	0.673812
C75	C	1.088085	0.008609	0.275742
C76	C	1.588085	0.508609	0.775742
C77	C	1.103544	-0.050350	0.345240
C78	C	1.603544	0.449650	0.845240
C79	C	1.029180	-0.140965	0.039441
C80	C	1.529180	0.359035	0.539441
C81	C	1.013719	-0.082013	-0.030052
C82	C	1.513719	0.417987	0.469948
C83	C	1.023043	0.007149	0.002385
C84	C	1.523043	0.507149	0.502385
C85	C	1.047834	0.037359	0.104315
C86	C	1.547834	0.537359	0.604315
C87	C	1.007584	0.066108	-0.067112
C88	C	1.507584	0.566108	0.432888
C89	C	1.016914	0.155269	-0.034675
C90	C	1.516914	0.655269	0.465325
C91	C	1.057165	0.126520	0.136753
C92	C	1.557165	0.626520	0.636753
C93	C	1.220378	0.476749	0.173182
C94	C	1.720378	0.976749	0.673182
C95	C	1.319060	0.508263	0.184620
C96	C	1.819060	1.008263	0.684620
C97	C	1.065626	0.587269	0.213413
C98	C	1.565626	1.087269	0.713413
C99	C	1.075559	0.682165	0.247928
C100	C	1.575559	1.182165	0.747928
N101	N	1.111173	0.396306	0.381366
N102	N	1.611173	0.896306	0.881366
N103	N	1.006098	0.471324	-0.066171
N104	N	1.506098	0.971324	0.433829
C105	C	0.915861	0.535701	0.799755
C106	C	1.415861	1.035701	1.299755
C107	C	0.939132	0.519101	0.898735
C108	C	1.439132	1.019101	1.398735
C109	C	1.049816	0.440124	0.869948
C110	C	1.549816	0.940124	1.369948
C111	C	1.026551	0.456714	0.770963
C112	C	1.526551	0.956714	1.270963
C113	C	0.959574	0.504503	0.735875
C114	C	1.459574	1.004503	1.235875
C115	C	1.070263	0.425516	0.707083
C116	C	1.570263	0.925516	1.207083
C117	C	1.047004	0.442109	0.608108
C118	C	1.547004	0.942109	1.108108
C119	C	0.980031	0.489898	0.573013
C120	C	1.480031	0.989898	1.073013
C121	C	0.936314	0.521096	0.636900
C122	C	1.436314	1.021096	1.136900
C123	C	1.137245	0.377732	0.742174
C124	C	1.637245	0.877732	1.242174
C125	C	1.180957	0.346535	0.678294
C126	C	1.680957	0.846535	1.178294
C127	C	1.157693	0.363122	0.579315
C128	C	1.657693	0.863122	1.079315
C129	C	1.090721	0.410911	0.544221
C130	C	1.590721	0.910911	1.044221
C131	C	1.201410	0.331924	0.515428
C132	C	1.701410	0.831924	1.015428
C133	C	1.178150	0.348517	0.416453
C134	C	1.678150	0.848517	0.916453
C135	C	1.067461	0.427504	0.445246
C136	C	1.567461	0.927504	0.945246
H137	H	0.723001	0.561766	0.204184
H138	H	1.223001	1.061766	0.704184
Cl139	Cl	0.976439	0.028131	-0.195252
Cl140	Cl	1.476439	0.528131	0.304748
H141	H	1.213747	0.323113	0.364441
H142	H	1.713747	0.823113	0.864441
Cl143	Cl	1.285617	0.271860	0.559553
Cl144	Cl	1.785617	0.771860	1.059553
H145	H	0.796616	0.221940	0.080568
H146	H	1.296616	0.721940	0.580568
H147	H	1.112929	-0.335626	0.406439
H148	H	1.612929	0.164374	0.906439
H149	H	0.782566	0.491307	0.178563
H150	H	1.282566	0.991307	0.678563
Cl151	Cl	1.166487	0.356880	0.866604
Cl152	Cl	1.666487	0.856880	1.366604
Cl153	Cl	0.609561	0.128787	0.046653
Cl154	Cl	1.109561	0.628787	0.546653
Cl155	Cl	0.353202	0.292747	0.106236
Cl156	Cl	0.853202	0.792747	0.606236
H157	H	1.039917	-0.283485	0.095433
H158	H	1.539917	0.216515	0.595433
Cl159	Cl	1.134707	-0.012376	0.473388
Cl160	Cl	1.634707	0.487624	0.973388
H161	H	1.077322	0.151106	0.219756
H162	H	1.577322	0.651106	0.719756
H163	H	0.631848	0.669598	0.243385
H164	H	1.131848	1.169598	0.743385
Cl165	Cl	1.099821	0.120700	0.316524
Cl166	Cl	1.599821	0.620700	0.816524
Cl167	Cl	1.265157	0.286461	0.722413
Cl168	Cl	1.765157	0.786461	1.222413
Cl169	Cl	0.997481	0.229385	-0.122038
Cl170	Cl	1.497481	0.729385	0.377962
Cl171	Cl	1.140837	-0.160489	0.510444
Cl172	Cl	1.640837	0.339511	1.010444
H173	H	0.903531	0.544511	0.950744
H174	H	1.403531	1.044511	1.450744
Cl175	Cl	0.831649	0.595769	0.755638
Cl176	Cl	1.331649	1.095769	1.255638
Cl177	Cl	0.298403	0.672004	0.244188
Cl178	Cl	0.798403	1.172004	0.744188
Cl179	Cl	0.507705	0.738852	0.268534
Cl180	Cl	1.007705	1.238852	0.768534
H181	H	0.334690	0.376329	0.136639
H182	H	0.834690	0.876329	0.636639
Cl183	Cl	1.017460	-0.253053	-0.001336
Cl184	Cl	1.517460	0.246947	0.498664
H185	H	0.993538	-0.106616	-0.113047
H186	H	1.493538	0.393384	0.386953
H187	H	1.104352	0.401216	0.898529
H188	H	1.604352	0.901216	1.398529
H189	H	0.485407	0.198044	0.071818
H190	H	0.985407	0.698044	0.571818
H191	H	0.961097	0.503411	0.492422
H192	H	1.461097	1.003411	0.992422
Cl193	Cl	0.983249	0.487572	0.401128
Cl194	Cl	1.483249	0.987572	0.901128
H195	H	0.881768	0.560003	0.608329
H196	H	1.381768	1.060003	1.108329
