data_functionalizedCrystal
_audit_creation_method	'MofGen! by Chris Wilmer'
_symmetry_space_group_name_H-M	'P1'
_symmetry_Int_Tables_number	1
_symmetry_cell_setting	triclinic
loop_
_symmetry_equiv_pos_as_xyz
  x,y,z
_cell_length_a	15.995350
_cell_length_b	15.995350
_cell_length_c	8.965430
_cell_angle_alpha	90.006723
_cell_angle_beta	90.001650
_cell_angle_gamma	96.507625
loop_
_atom_site_label
_atom_site_type_symbol
_atom_site_fract_x
_atom_site_fract_y
_atom_site_fract_z
O1	O	-1.110988	0.107917	-0.123899
O2	O	-0.867212	0.121245	-0.123928
O3	O	-0.995764	-0.007306	-0.123919
O4	O	-0.982436	0.236469	-0.123909
O5	O	-0.995749	-0.007292	0.124160
O6	O	-0.867197	0.121259	0.124151
O7	O	-1.110972	0.107932	0.124180
Cu8	Cu	-0.989083	0.114597	0.146817
Cu9	Cu	-0.989101	0.114580	-0.146565
O10	O	-0.982421	0.236483	0.124170
C11	C	-0.836010	0.120701	0.000107
C12	C	-0.743060	0.119049	0.000096
C13	C	-1.142175	0.108476	0.000141
C14	C	-1.235125	0.110127	0.000143
C15	C	-0.995205	-0.038494	0.000116
C16	C	-0.993553	-0.131444	0.000102
N17	N	-0.989077	0.114608	0.353166
C18	C	-0.405312	0.113117	0.000126
C19	C	-0.452746	0.021565	0.000676
C20	C	-0.549436	0.023217	0.000107
C21	C	-0.572873	0.116060	0.000112
C22	C	-0.531794	0.161208	-0.141545
C23	C	-0.435158	0.158908	-0.141654
C24	C	-0.434802	0.160816	0.140458
C25	C	-0.531748	0.160794	0.142320
C26	C	-0.667570	0.117727	0.000099
C27	C	-0.310614	0.111452	0.000130
C28	C	-0.982980	0.267671	0.000132
C29	C	-0.984631	0.360621	0.000137
C30	C	-0.990564	0.698369	0.000114
C31	C	-1.082116	0.650935	-0.000429
C32	C	-1.080463	0.554244	0.000138
C33	C	-0.987621	0.530808	0.000124
C34	C	-0.942456	0.571899	0.141779
C35	C	-0.944756	0.668535	0.141890
C36	C	-0.942882	0.668866	-0.140223
C37	C	-0.942903	0.571921	-0.142087
C38	C	-0.985953	0.436111	0.000135
C39	C	-0.992229	0.793066	0.000113
C40	C	-0.930109	0.174517	0.549871
C41	C	-0.913175	0.099091	0.450402
C42	C	-1.005973	0.190029	0.450428
C43	C	-0.972129	0.039112	0.549805
C44	C	-1.064960	0.130100	0.549840
C45	C	-1.048059	0.054618	0.450415
N46	N	-0.989101	0.114577	0.647086
H47	H	-0.577859	-0.012272	0.101653
H48	H	-0.972818	0.689399	-0.247593
N49	N	-0.569368	0.119646	-0.281202
H50	H	-0.542525	0.149140	-0.371748
H51	H	-0.631974	0.123364	-0.282695
N52	N	-1.127516	0.516579	-0.134337
H53	H	-1.099815	0.541097	-0.228273
H54	H	-1.187717	0.529867	-0.130466
N55	N	-0.407598	0.121182	0.282693
H56	H	-0.375876	0.071900	0.257597
H57	H	-0.458855	0.101017	0.344158
N58	N	-0.392719	0.250222	0.141738
H59	H	-0.358229	0.260279	0.235726
H60	H	-0.437037	0.290414	0.138372
H61	H	-0.977679	0.686846	0.247789
H62	H	-0.545919	0.229417	-0.146809
H63	H	-0.849013	0.085972	0.406713
H64	H	-1.118710	0.669446	-0.102028
H65	H	-1.118572	0.670615	0.100499
H66	H	-1.129102	0.143247	0.593555
H67	H	-0.875201	0.556553	-0.150656
N68	N	-0.567917	0.117144	0.281146
H69	H	-0.610763	0.068593	0.252059
H70	H	-0.595914	0.158388	0.343980
H71	H	-1.116189	0.526390	0.101870
H72	H	-0.577300	-0.012524	-0.101619
H73	H	-0.434218	-0.015025	0.102264
N74	N	-0.552089	0.250479	0.153670
H75	H	-0.615074	0.250983	0.159983
H76	H	-0.529919	0.282914	0.062597
N77	N	-0.410912	0.115267	-0.281908
H78	H	-0.348022	0.113336	-0.283379
H79	H	-0.428068	0.147225	-0.371940
H80	H	-0.957773	-0.024697	0.593275
H81	H	-0.433159	-0.014868	-0.100355
N82	N	-0.855726	0.711260	0.150400
H83	H	-0.815161	0.667294	0.154070
H84	H	-0.849022	0.747153	0.243251
H85	H	-1.097939	0.003887	0.407023
N86	N	-1.024894	0.274527	0.392590
H87	H	-0.980302	0.319746	0.428769
H88	H	-1.081787	0.286632	0.430325
N89	N	-0.852105	0.553192	0.148762
H90	H	-0.839553	0.517815	0.059955
H91	H	-0.842811	0.521548	0.243706
H92	H	-0.975883	0.544611	-0.246882
N93	N	-0.392434	0.247939	-0.150106
H94	H	-0.436400	0.288504	-0.153759
H95	H	-0.356535	0.254661	-0.242938
H96	H	-0.973820	0.543536	0.247209
N97	N	-0.853469	0.710931	-0.141514
H98	H	-0.843858	0.748917	-0.051686
H99	H	-0.843474	0.745365	-0.235560
H100	H	-0.880198	0.225136	0.593540
