data_functionalizedCrystal
_audit_creation_method	'MofGen! by Chris Wilmer'
_symmetry_space_group_name_H-M	'P1'
_symmetry_Int_Tables_number	1
_symmetry_cell_setting	triclinic
loop_
_symmetry_equiv_pos_as_xyz
  x,y,z
_cell_length_a	6.817900
_cell_length_b	9.582860
_cell_length_c	11.102228
_cell_angle_alpha	90.975045
_cell_angle_beta	108.604565
_cell_angle_gamma	111.206767
loop_
_atom_site_label
_atom_site_type_symbol
_atom_site_fract_x
_atom_site_fract_y
_atom_site_fract_z
V1	V	-4.125313	-0.207059	-0.396024
O2	O	-4.069887	0.009947	-0.388724
O3	O	-4.115650	-0.410560	-0.393084
O4	O	-4.101876	-0.203875	-0.568848
O5	O	-4.083756	-0.198168	-0.211744
V6	V	-4.600687	-0.181102	-0.374010
O7	O	-4.404447	-0.263997	-0.444311
O8	O	-4.771750	-0.124164	-0.325722
O9	O	-4.387144	0.022399	-0.376949
O10	O	-4.773511	-0.398108	-0.381309
O11	O	-4.759642	-0.189993	-0.558290
O12	O	-4.400918	-0.184286	-0.201186
C13	C	-3.969267	-0.460169	-0.386778
C14	C	-4.042819	-0.626533	-0.385527
C15	C	-3.951695	-0.196520	-0.610980
C16	C	-4.014073	-0.195264	-0.752264
C17	C	-4.112674	-0.331720	-0.836635
C18	C	-4.171296	-0.330537	-0.969385
C19	C	-4.032696	-0.056428	-0.933381
C20	C	-3.974090	-0.057614	-0.800633
C21	C	-4.453238	-0.498371	-1.176586
C22	C	-4.551810	-0.634834	-1.260961
C23	C	-4.475362	-0.751419	-1.229616
C24	C	-4.300297	-0.731546	-1.113896
C25	C	-4.201709	-0.595081	-1.029527
C26	C	-4.278206	-0.478503	-1.060873
C27	C	-3.692135	0.110212	-0.593431
C28	C	-3.593530	0.246680	-0.509059
C29	C	-3.669958	0.363279	-0.540399
C30	C	-3.844986	0.343422	-0.656120
C31	C	-3.943591	0.206954	-0.740492
C32	C	-3.867163	0.090355	-0.709143
C33	C	-4.196870	0.072000	-0.383253
C34	C	-4.102558	0.238363	-0.384512
C35	C	-4.214441	-0.191646	-0.159047
C36	C	-4.131300	-0.192894	-0.017762
H37	H	-4.059167	-0.578897	-0.935314
O38	O	-4.151285	-0.465291	-0.789430
C39	C	-4.078467	-0.437087	-0.654173
H40	H	-3.946813	-0.316872	-0.618323
H41	H	-4.002190	-0.521092	-0.611778
H42	H	-4.227511	-0.450491	-0.623044
O43	O	-4.226357	-0.844975	-1.083626
C44	C	-4.350873	-0.969669	-1.182921
H45	H	-4.519422	-0.964233	-1.239135
H46	H	-4.380121	-1.079234	-1.139661
H47	H	-4.253764	-0.966373	-1.250256
H48	H	-4.555627	-0.862529	-1.298324
O49	O	-3.993470	0.077388	-0.980204
C50	C	-3.761677	0.167564	-0.930694
H51	H	-3.680382	0.130097	-0.837385
H52	H	-3.735711	0.291303	-0.911059
H53	H	-3.681506	0.154215	-1.003602
O54	O	-4.527915	-0.385310	-1.207096
C55	C	-4.757102	-0.437075	-1.221818
H56	H	-4.835789	-0.565855	-1.245298
H57	H	-4.846592	-0.386750	-1.303356
H58	H	-4.774254	-0.400477	-1.128709
H59	H	-4.694356	-0.651005	-1.355179
H60	H	-4.086113	0.190793	-0.834719
O61	O	-3.919450	0.456550	-0.686796
C62	C	-4.095115	0.409745	-0.807010
H63	H	-4.081526	0.315774	-0.864095
H64	H	-4.082461	0.509816	-0.862422
H65	H	-4.263401	0.365800	-0.791724
H66	H	-3.589600	0.474417	-0.471710
H67	H	-3.450986	0.262849	-0.414841
O68	O	-3.617879	-0.003091	-0.563201
C69	C	-3.538736	-0.037070	-0.658192
H70	H	-3.619809	0.000421	-0.751544
H71	H	-3.583777	-0.164258	-0.675018
H72	H	-3.348630	0.025149	-0.624829
