data_functionalizedCrystal
_audit_creation_method	'MofGen! by Chris Wilmer'
_symmetry_space_group_name_H-M	'P1'
_symmetry_Int_Tables_number	1
_symmetry_cell_setting	triclinic
loop_
_symmetry_equiv_pos_as_xyz
  x,y,z
_cell_length_a	17.640112
_cell_length_b	16.625546
_cell_length_c	16.625539
_cell_angle_alpha	89.971468
_cell_angle_beta	101.178335
_cell_angle_gamma	101.247770
loop_
_atom_site_label
_atom_site_type_symbol
_atom_site_fract_x
_atom_site_fract_y
_atom_site_fract_z
Zn1	Zn	1.208323	-0.071554	-0.207110
Zn2	Zn	1.541656	0.261780	0.126223
Zn3	Zn	1.874990	0.595113	0.459556
Zn4	Zn	1.208236	-0.206410	-0.072290
Zn5	Zn	1.541570	0.126923	0.261043
Zn6	Zn	1.874903	0.460256	0.594376
Zn7	Zn	1.076154	-0.098864	-0.099504
Zn8	Zn	1.409488	0.234469	0.233830
Zn9	Zn	1.742821	0.567803	0.567163
Zn10	Zn	1.076117	-0.233642	-0.234283
Zn11	Zn	1.409451	0.099691	0.099050
Zn12	Zn	1.742784	0.433024	0.432384
O13	O	1.142208	-0.152618	-0.153297
O14	O	1.475541	0.180716	0.180037
O15	O	1.808874	0.514049	0.513370
O16	O	1.318917	-0.066617	-0.166465
O17	O	1.652250	0.266717	0.166868
O18	O	1.985584	0.600050	0.500201
O19	O	1.190695	-0.192177	0.036928
O20	O	1.524028	0.141156	0.370261
O21	O	1.857361	0.474490	0.703595
O22	O	1.093739	0.017602	-0.113795
O23	O	1.427072	0.350935	0.219539
O24	O	1.760405	0.684269	0.552872
O25	O	1.318853	-0.165695	-0.067414
O26	O	1.652186	0.167638	0.265919
O27	O	1.985520	0.500972	0.599253
O28	O	1.190842	0.037667	-0.192853
O29	O	1.524176	0.371000	0.140480
O30	O	1.857509	0.704333	0.473814
O31	O	1.093655	-0.113163	0.016934
O32	O	1.426988	0.220170	0.350268
O33	O	1.760321	0.553504	0.683601
O34	O	0.965544	-0.139569	-0.140143
O35	O	1.298877	0.193765	0.193190
O36	O	1.632211	0.527098	0.526524
O37	O	1.093675	-0.212108	-0.343507
O38	O	1.427009	0.121225	-0.010173
O39	O	1.760342	0.454559	0.323160
O40	O	0.965517	-0.238590	-0.239165
O41	O	1.298850	0.094744	0.094169
O42	O	1.632183	0.428077	0.427502
O43	O	1.190806	-0.093022	-0.323543
O44	O	1.524140	0.240311	0.009790
O45	O	1.857473	0.573644	0.343124
O46	O	1.190659	-0.322866	-0.093762
O47	O	1.523992	0.010468	0.239571
O48	O	1.857325	0.343801	0.572905
O49	O	1.093591	-0.342873	-0.212777
O50	O	1.426925	-0.009540	0.120556
O51	O	1.760258	0.323794	0.453889
C52	C	0.936852	-0.194998	-0.195556
C53	C	1.270185	0.138335	0.137777
C54	C	1.603518	0.471668	0.471111
C55	C	0.848999	-0.213149	-0.213654
C56	C	1.182333	0.120185	0.119680
C57	C	1.515666	0.453518	0.453013
C58	C	1.142133	-0.362124	-0.153278
C59	C	1.475466	-0.028791	0.180055
C60	C	1.808800	0.304543	0.513388
C61	C	1.142173	-0.451737	-0.153283
C62	C	1.475507	-0.118403	0.180051
C63	C	1.808840	0.214930	0.513384
C64	C	0.560026	-0.014719	-0.015816
C65	C	0.893359	0.318614	0.317517
C66	C	1.226693	0.651948	0.650850
C67	C	0.477475	-0.031790	-0.032833
C68	C	0.810809	0.301543	0.300500
C69	C	1.144142	0.634877	0.633834
C70	C	0.477501	-0.135043	-0.135767
C71	C	0.810835	0.198291	0.197567
C72	C	1.144168	0.531624	0.530900
C73	C	0.560054	-0.117977	-0.118761
C74	C	0.893387	0.215356	0.214572
C75	C	1.226720	0.548689	0.547905
C76	C	0.601309	-0.057815	-0.058785
C77	C	0.934643	0.275518	0.274548
C78	C	1.267976	0.608851	0.607882
C79	C	0.601337	-0.161074	-0.161730
C80	C	0.934670	0.172260	0.171603
C81	C	1.268004	0.505593	0.504937
C82	C	0.683882	-0.144012	-0.144723
C83	C	1.017215	0.189321	0.188611
C84	C	1.350549	0.522654	0.521944
C85	C	0.725144	-0.083855	-0.084747
C86	C	1.058477	0.249478	0.248586
C87	C	1.391810	0.582812	0.581919
C88	C	0.683854	-0.040754	-0.041778
C89	C	1.017188	0.292579	0.291555
C90	C	1.350521	0.625913	0.624889
C91	C	0.560080	-0.221239	-0.221702
C92	C	0.893413	0.112094	0.111631
C93	C	1.226746	0.445427	0.444965
C94	C	0.601363	-0.264336	-0.264670
C95	C	0.934696	0.068998	0.068663
C96	C	1.268030	0.402331	0.401996
C97	C	0.683910	-0.247271	-0.247668
C98	C	1.017243	0.086063	0.085666
C99	C	1.350576	0.419396	0.418999
C100	C	0.725171	-0.187113	-0.187692
C101	C	1.058504	0.146220	0.145641
C102	C	1.391838	0.479553	0.478974
C103	C	0.725199	-0.290372	-0.290637
C104	C	1.058532	0.042962	0.042696
C105	C	1.391865	0.376295	0.376029
C106	C	0.807744	-0.273310	-0.273630
C107	C	1.141077	0.060023	0.059703
C108	C	1.474410	0.393356	0.393036
C109	C	0.807716	-0.170052	-0.170685
C110	C	1.141049	0.163281	0.162648
C111	C	1.474383	0.496615	0.495981
C112	C	1.142311	-0.779884	-0.153338
C113	C	1.475644	-0.446550	0.179995
C114	C	1.808978	-0.113217	0.513328
C115	C	1.142270	-0.688584	-0.153325
C116	C	1.475604	-0.355250	0.180008
C117	C	1.808937	-0.021917	0.513341
C118	C	1.142242	-0.615813	-0.153310
C119	C	1.475575	-0.282480	0.180023
C120	C	1.808908	0.050853	0.513357
C121	C	1.142202	-0.524507	-0.153298
C122	C	1.475535	-0.191174	0.180035
C123	C	1.808869	0.142160	0.513369
C124	C	1.348366	-0.110072	-0.110873
C125	C	1.681699	0.223262	0.222460
C126	C	2.015032	0.556595	0.555794
C127	C	1.436218	-0.091941	-0.092795
C128	C	1.769551	0.241392	0.240539
C129	C	2.102885	0.574725	0.573872
C130	C	1.142246	-0.152556	-0.363598
C131	C	1.475580	0.180777	-0.030264
C132	C	1.808913	0.514110	0.303069
C133	C	1.142263	-0.152530	-0.453216
C134	C	1.475596	0.180803	-0.119882
C135	C	1.808930	0.514136	0.213451
C136	C	1.142304	0.057711	-0.153328
C137	C	1.475638	0.391045	0.180005
C138	C	1.808971	0.724378	0.513338
C139	C	1.142346	0.147341	-0.153342
C140	C	1.475679	0.480674	0.179991
C141	C	1.809012	0.814008	0.513325
C142	C	1.142276	-0.152510	-0.525995
C143	C	1.475609	0.180824	-0.192662
C144	C	1.808943	0.514157	0.140671
C145	C	1.142294	-0.152476	-0.617300
C146	C	1.475628	0.180857	-0.283967
C147	C	1.808961	0.514191	0.049367
C148	C	1.142313	-0.152444	-0.690073
C149	C	1.475646	0.180890	-0.356739
C150	C	1.808980	0.514223	-0.023406
C151	C	1.142333	-0.152410	-0.781383
C152	C	1.475666	0.180923	-0.448050
C153	C	1.808999	0.514256	-0.114716
C154	C	1.142215	-0.152611	0.056195
C155	C	1.475548	0.180722	0.389529
C156	C	1.808881	0.514056	0.722862
C157	C	1.142351	-0.152378	0.145844
C158	C	1.475685	0.180955	0.479178
C159	C	1.809018	0.514288	0.812511
H160	H	0.841309	-0.121050	-0.121858
H161	H	1.174642	0.212283	0.211475
H162	H	1.507976	0.545616	0.544808
H163	H	0.717447	0.008248	0.007049
H164	H	1.050781	0.341581	0.340382
H165	H	1.384114	0.674914	0.673716
Cl166	Cl	0.611897	0.060920	0.059579
Cl167	Cl	0.945230	0.394253	0.392912
Cl168	Cl	1.278563	0.727587	0.726245
Cl169	Cl	0.673325	-0.366016	-0.366017
Cl170	Cl	1.006658	-0.032682	-0.032684
Cl171	Cl	1.339991	0.300651	0.300649
H172	H	0.567761	-0.313322	-0.313501
H173	H	0.901095	0.020011	0.019832
H174	H	1.234428	0.353345	0.353166
Cl175	Cl	0.828916	-0.062409	-0.063361
Cl176	Cl	1.162249	0.270924	0.269972
Cl177	Cl	1.495583	0.604258	0.603305
Cl178	Cl	0.425579	0.022390	0.021198
Cl179	Cl	0.758912	0.355723	0.354531
Cl180	Cl	1.092245	0.689056	0.687864
Cl181	Cl	0.859647	-0.327491	-0.327646
Cl182	Cl	1.192980	0.005842	0.005687
Cl183	Cl	1.526313	0.339175	0.339021
H184	H	0.443900	-0.184029	-0.184597
H185	H	0.777233	0.149305	0.148736
H186	H	1.110566	0.482638	0.482070
H187	H	0.492866	-0.235129	-0.235547
H188	H	0.826200	0.098205	0.097787
H189	H	1.159533	0.431538	0.431120
