data_functionalizedCrystal
_audit_creation_method	'MofGen! by Chris Wilmer'
_symmetry_space_group_name_H-M	'P1'
_symmetry_Int_Tables_number	1
_symmetry_cell_setting	triclinic
loop_
_symmetry_equiv_pos_as_xyz
  x,y,z
_cell_length_a	10.540510
_cell_length_b	14.853568
_cell_length_c	13.930277
_cell_angle_alpha	89.996676
_cell_angle_beta	89.992851
_cell_angle_gamma	95.925624
loop_
_atom_site_label
_atom_site_type_symbol
_atom_site_fract_x
_atom_site_fract_y
_atom_site_fract_z
O1	O	0.165720	-1.197275	0.079752
O2	O	0.185461	-0.934924	0.079770
O3	O	-0.009184	-1.072099	0.079760
O4	O	0.360365	-1.060100	0.079762
O5	O	-0.009154	-1.072079	-0.079902
O6	O	0.185491	-0.934904	-0.079892
O7	O	0.165750	-1.197255	-0.079910
Zn8	Zn	0.175625	-1.066076	-0.105251
Zn9	Zn	0.175586	-1.066103	0.105111
O10	O	0.360395	-1.060080	-0.079900
C11	C	0.184581	-0.901320	-0.000059
C12	C	0.181900	-0.801222	-0.000052
C13	C	0.170543	-0.377987	0.086966
C14	C	0.170576	-0.377986	-0.087103
C15	C	0.173094	-0.472034	-0.087101
C16	C	0.174338	-0.519062	-0.000064
C17	C	0.173065	-0.472043	0.086971
C18	C	0.174381	-0.519059	-0.174135
C19	C	0.176900	-0.613112	-0.174136
C20	C	0.178135	-0.660143	-0.087098
C21	C	0.176860	-0.613118	-0.000059
C22	C	0.178104	-0.660146	0.086978
C23	C	0.176820	-0.613124	0.174018
C24	C	0.174300	-0.519073	0.174009
C25	C	0.180656	-0.754194	-0.087089
C26	C	0.180626	-0.754203	0.086983
C27	C	-0.056463	-1.071195	-0.000069
C28	C	-0.197384	-1.068520	-0.000063
C29	C	-0.415887	-1.163815	-0.000435
C30	C	-0.269323	-1.166668	-0.000070
C31	C	-0.241607	-1.018289	0.091113
C32	C	-0.388344	-1.016130	0.091185
C33	C	-0.388096	-1.014063	-0.090380
C34	C	-0.241806	-1.018719	-0.091581
C35	C	0.407674	-1.060984	-0.000069
C36	C	0.548595	-1.063659	-0.000069
C37	C	0.166627	-0.230859	-0.000077
C38	C	0.169298	-0.330958	-0.000071
N39	N	0.175651	-1.066065	-0.248817
C40	C	0.252694	-1.121280	-0.701079
C41	C	0.098426	-1.010952	-0.701062
C42	C	0.098446	-1.010939	-0.600566
C43	C	0.175590	-1.066098	-0.550322
C44	C	0.252714	-1.121271	-0.600574
C45	C	0.021315	-0.955774	-0.550307
C46	C	0.021331	-0.955759	-0.449805
C47	C	0.098483	-1.010914	-0.399559
C48	C	0.175611	-1.066088	-0.449817
C49	C	0.252755	-1.121247	-0.399574
C50	C	0.329890	-1.176417	-0.449830
C51	C	0.329866	-1.176426	-0.550329
C52	C	0.098507	-1.010906	-0.299060
C53	C	0.252775	-1.121237	-0.299069
N54	N	0.175550	-1.066121	0.248677
H55	H	0.169572	-0.339689	-0.157965
H56	H	0.035610	-0.966050	-0.741976
H57	H	0.173376	-0.480761	-0.244996
H58	H	0.177943	-0.651390	-0.245009
H59	H	0.315602	-1.166151	-0.258167
O60	O	-0.468442	-1.209268	0.077022
C61	C	-0.610880	-1.335440	0.133618
C62	C	-0.551482	-1.284041	0.045814
H63	H	-0.678010	-1.395915	0.108419
H64	H	-0.666564	-1.288317	0.177898
H65	H	-0.531956	-1.360175	0.179550
H66	H	-0.630326	-1.259301	-0.000190
H67	H	-0.495767	-1.331198	0.001606
H68	H	0.177842	-0.651426	0.244883
H69	H	-0.191950	-0.947062	-0.097081
H70	H	-0.241364	-1.206216	0.065396
H71	H	-0.240399	-1.205971	-0.065428
O72	O	0.181841	-0.799737	-0.171714
C73	C	0.181696	-0.789798	-0.344370
C74	C	0.180325	-0.738113	-0.248597
H75	H	0.180498	-0.739995	-0.406555
H76	H	0.094087	-0.841490	-0.348789
H77	H	0.271619	-0.826175	-0.348663
H78	H	0.090461	-0.701682	-0.244240
H79	H	0.267994	-0.686472	-0.244218
H80	H	0.181635	-0.792487	0.157860
O81	O	-0.436834	-1.056958	0.172549
C82	C	-0.554959	-1.041226	0.318651
C83	C	-0.500094	-0.994869	0.226555
H84	H	-0.606140	-0.991053	0.362330
H85	H	-0.474098	-1.065183	0.363130
H86	H	-0.625335	-1.101793	0.298633
H87	H	-0.429734	-0.934270	0.246485
H88	H	-0.581021	-0.970977	0.182100
H89	H	0.173253	-0.480779	0.244872
O90	O	0.169252	-0.332458	0.171598
C91	C	0.169580	-0.342390	0.344254
C92	C	0.171009	-0.394066	0.248478
H93	H	0.171027	-0.392175	0.406436
H94	H	0.079613	-0.306072	0.348676
H95	H	0.257142	-0.290649	0.348549
H96	H	0.083509	-0.445851	0.244118
H97	H	0.261033	-0.430322	0.244095
O98	O	-0.466217	-1.209427	-0.078506
C99	C	-0.424344	-1.291274	-0.222489
C100	C	-0.367162	-1.239617	-0.134126
H101	H	-0.344287	-1.315714	-0.267471
H102	H	-0.479585	-1.244448	-0.267504
H103	H	-0.491513	-1.351962	-0.197864
H104	H	-0.299938	-1.178930	-0.158666
H105	H	-0.311998	-1.286505	-0.089131
H106	H	-0.409436	-0.940373	-0.090990
H107	H	0.392695	-1.221332	-0.408908
O108	O	0.404705	-1.230148	-0.599043
C109	C	0.454595	-1.382198	-0.629830
C110	C	0.369781	-1.321460	-0.574580
H111	H	0.426372	-1.456038	-0.610087
H112	H	0.558801	-1.362835	-0.610085
H113	H	0.441343	-1.372684	-0.710284
H114	H	0.382922	-1.330942	-0.494113
H115	H	0.265606	-1.340838	-0.594404
O116	O	-0.414604	-0.928512	0.096192
C117	C	-0.329486	-0.771814	0.105073
C118	C	-0.299575	-0.870998	0.099413
H119	H	-0.236505	-0.725285	0.107658
H120	H	-0.387535	-0.761696	0.172562
H121	H	-0.386578	-0.755032	0.039112
H122	H	-0.242443	-0.887847	0.165325
H123	H	-0.241585	-0.881064	0.031882
H124	H	-0.211147	-1.053189	0.158962
H125	H	-0.041476	-0.910836	-0.408895
H126	H	-0.193424	-0.946034	0.094508
O127	O	-0.053504	-0.902221	-0.599255
C128	C	-0.121881	-0.853314	-0.754071
C129	C	-0.037062	-0.913995	-0.698756
H130	H	-0.108637	-0.862827	-0.834527
H131	H	-0.093828	-0.779451	-0.734344
H132	H	-0.226052	-0.872788	-0.734282
H133	H	0.067133	-0.894602	-0.718515
H134	H	-0.065224	-0.987843	-0.718487
H135	H	-0.430608	-1.045245	-0.159492
O136	O	-0.208361	-1.062379	-0.172076
C137	C	-0.280706	-1.141207	-0.316325
C138	C	-0.318769	-1.091796	-0.225195
H139	H	-0.369946	-1.164988	-0.359307
H140	H	-0.229395	-1.202155	-0.295207
H141	H	-0.214572	-1.092996	-0.361961
H142	H	-0.384942	-1.139936	-0.179517
H143	H	-0.370011	-1.030837	-0.246380
H144	H	0.315499	-1.166196	-0.742002
H145	H	0.035701	-0.965990	-0.258146
