data_functionalizedCrystal
_audit_creation_method	'MofGen! by Chris Wilmer'
_symmetry_space_group_name_H-M	'P1'
_symmetry_Int_Tables_number	1
_symmetry_cell_setting	triclinic
loop_
_symmetry_equiv_pos_as_xyz
  x,y,z
_cell_length_a	23.532361
_cell_length_b	22.010155
_cell_length_c	9.065218
_cell_angle_alpha	89.997969
_cell_angle_beta	83.922777
_cell_angle_gamma	89.988125
loop_
_atom_site_label
_atom_site_type_symbol
_atom_site_fract_x
_atom_site_fract_y
_atom_site_fract_z
O1	O	0.756599	-0.050462	0.178742
O2	O	0.590923	-0.050476	0.204724
O3	O	0.677185	-0.050468	-0.023080
O4	O	0.670336	-0.050471	0.406546
O5	O	0.677158	0.050583	-0.023077
O6	O	0.590895	0.050574	0.204726
O7	O	0.756572	0.050588	0.178744
Cu8	Cu	0.673731	0.059808	0.191736
Cu9	Cu	0.673763	-0.059696	0.191733
O10	O	0.670309	0.050580	0.406548
C11	C	0.569688	0.000047	0.204075
C12	C	0.506455	0.000042	0.202118
N13	N	0.673713	0.143860	0.191736
C14	C	0.233163	-0.055037	0.193561
C15	C	0.292576	-0.055039	0.195412
O16	O	0.323322	-0.101883	0.196318
N17	N	0.322274	0.000044	0.196349
C18	C	0.292556	0.055132	0.195419
O19	O	0.323272	0.101984	0.196384
C20	C	0.233144	0.055133	0.193556
C21	C	0.203449	0.000046	0.192635
C22	C	0.203468	-0.110119	0.192637
C23	C	0.144058	-0.110117	0.190788
C24	C	0.114344	-0.055034	0.189863
C25	C	0.144040	0.000048	0.190786
C26	C	0.203428	0.110220	0.192615
C27	C	0.144012	0.110216	0.190752
C28	C	0.114317	0.055130	0.189830
C29	C	0.054916	0.055134	0.188011
N30	N	0.025218	0.000051	0.187075
C31	C	0.054933	-0.055033	0.188000
C32	C	0.417325	0.055126	0.199327
C33	C	0.476735	0.055126	0.201200
C34	C	0.476752	-0.055045	0.201191
C35	C	0.417340	-0.055044	0.199329
C36	C	0.387627	0.000043	0.198391
C37	C	-0.069832	-0.055025	0.184119
C38	C	-0.129246	-0.055018	0.182276
C39	C	-0.129257	0.055152	0.182277
C40	C	-0.069848	0.055146	0.184128
C41	C	-0.040136	0.000052	0.185044
O42	O	0.024134	0.101954	0.187098
O43	O	0.024210	-0.101877	0.187015
C44	C	0.708758	0.563642	0.280732
C45	C	0.708764	0.627250	0.280730
O46	O	0.738543	0.660144	0.356381
N47	N	0.673768	0.659068	0.191731
C48	C	0.638768	0.627274	0.102718
O49	O	0.609003	0.660178	0.027017
C50	C	0.638766	0.563668	0.102714
C51	C	0.673759	0.531854	0.191729
C52	C	0.743749	0.531828	0.369739
C53	C	0.743742	0.468225	0.369744
C54	C	0.708744	0.436436	0.280740
C55	C	0.673752	0.468250	0.191733
C56	C	0.603769	0.531876	0.013693
C57	C	0.603770	0.468265	0.013696
C58	C	0.638764	0.436451	0.102711
C59	C	0.638747	0.372858	0.102734
N60	N	0.673742	0.341041	0.191733
C61	C	0.708741	0.372830	0.280736
C62	C	0.638778	0.760852	0.102733
C63	C	0.638777	0.824457	0.102744
C64	C	0.708773	0.824429	0.280754
C65	C	0.708771	0.760822	0.280750
C66	C	0.673773	0.729034	0.191731
C67	C	0.708723	0.239258	0.280739
C68	C	0.708711	0.175649	0.280739
C69	C	0.638717	0.175684	0.102724
C70	C	0.638727	0.239287	0.102729
C71	C	0.673734	0.271073	0.191740
O72	O	0.608985	0.339924	0.027118
O73	O	0.738507	0.339918	0.356410
C74	C	0.777807	0.000064	0.179394
C75	C	0.841039	0.000065	0.181350
C76	C	0.676513	0.000057	-0.078032
C77	C	0.674545	0.000054	-0.241777
N78	N	0.673778	0.856252	0.191742
C79	C	0.670981	0.000054	0.461501
C80	C	0.672949	0.000053	0.625246
H81	H	-0.153422	-0.099878	0.181530
O82	O	0.111838	0.169570	0.190301
H83	H	0.089222	0.172305	0.089093
O84	O	0.600979	0.273605	0.006737
H85	H	0.627875	0.302576	-0.072916
O86	O	0.601008	0.141392	0.006628
H87	H	0.606904	0.091819	0.021545
O88	O	0.235444	0.169638	0.193603
H89	H	0.281751	0.160395	0.195061
O90	O	0.746481	0.273530	0.376750
H91	H	0.776734	0.302494	0.305621
H92	H	0.575271	0.442387	-0.058797
O93	O	0.781491	0.433919	0.465748
H94	H	0.775611	0.384347	0.450819
H95	H	-0.045670	0.100002	0.184908
H96	H	0.393166	-0.099901	0.198578
H97	H	-0.045647	-0.099887	0.184866
H98	H	0.500956	-0.099897	0.201944
H99	H	0.610275	0.850355	0.030276
O100	O	0.112036	-0.169532	0.189712
H101	H	0.142689	-0.207830	0.190628
O102	O	0.746526	0.858722	0.376748
H103	H	0.791873	0.846497	0.344032
O104	O	0.601019	0.726567	0.006739
H105	H	0.576683	0.759382	-0.055127
O106	O	0.566036	0.566191	-0.082325
H107	H	0.592943	0.595162	-0.161955
O108	O	-0.161485	0.114475	0.182013
H109	H	-0.184136	0.117231	0.080868
O110	O	0.235512	-0.169535	0.193647
H111	H	0.204872	-0.207831	0.192703
H112	H	0.500907	0.099983	0.201975
H113	H	0.393136	0.099988	0.198583
H114	H	0.737207	0.149749	0.353234
H115	H	0.772252	0.557704	0.442217
O116	O	0.746516	0.726509	0.376748
H117	H	0.770853	0.759306	0.438628
