data_functionalizedCrystal
_audit_creation_method	'MofGen! by Chris Wilmer'
_symmetry_space_group_name_H-M	'P1'
_symmetry_Int_Tables_number	1
_symmetry_cell_setting	triclinic
loop_
_symmetry_equiv_pos_as_xyz
  x,y,z
_cell_length_a	19.288864
_cell_length_b	19.288865
_cell_length_c	17.766277
_cell_angle_alpha	89.988397
_cell_angle_beta	89.976791
_cell_angle_gamma	83.136245
loop_
_atom_site_label
_atom_site_type_symbol
_atom_site_fract_x
_atom_site_fract_y
_atom_site_fract_z
O1	O	0.921353	0.086649	-0.062844
O2	O	1.254686	0.419982	0.270489
O3	O	1.588020	0.753315	0.603823
O4	O	0.719092	0.098337	-0.062794
O5	O	1.052426	0.431671	0.270539
O6	O	1.385759	0.765004	0.603873
O7	O	0.826067	-0.008637	-0.062806
O8	O	1.159400	0.324696	0.270528
O9	O	1.492734	0.658029	0.603861
O10	O	0.814378	0.193623	-0.062832
O11	O	1.147712	0.526957	0.270501
O12	O	1.481045	0.860290	0.603834
O13	O	0.826048	-0.008643	0.062383
O14	O	1.159382	0.324691	0.395716
O15	O	1.492715	0.658024	0.729050
O16	O	0.719074	0.098332	0.062395
O17	O	1.052407	0.431665	0.395728
O18	O	1.385740	0.764999	0.729061
O19	O	0.921334	0.086643	0.062344
O20	O	1.254668	0.419977	0.395678
O21	O	1.588001	0.753310	0.729011
Cu22	Cu	0.820202	0.092487	0.073800
Cu23	Cu	1.153536	0.425821	0.407134
Cu24	Cu	1.486869	0.759154	0.740467
Cu25	Cu	0.820224	0.092494	-0.074250
Cu26	Cu	1.153558	0.425827	0.259084
Cu27	Cu	1.486891	0.759160	0.592417
O28	O	0.814360	0.193618	0.062356
O29	O	1.147693	0.526951	0.395689
O30	O	1.481026	0.860285	0.729023
C31	C	0.693207	0.097959	-0.000193
C32	C	1.026540	0.431292	0.333140
C33	C	1.359873	0.764625	0.666474
C34	C	0.616103	0.096830	-0.000173
C35	C	0.949436	0.430163	0.333160
C36	C	1.282770	0.763496	0.666494
C37	C	0.571407	0.159598	-0.000193
C38	C	0.904740	0.492931	0.333140
C39	C	1.238073	0.826264	0.666473
C40	C	0.498960	0.158537	-0.000201
C41	C	0.832293	0.491870	0.333132
C42	C	1.165626	0.825204	0.666465
C43	C	0.471212	0.094705	-0.000205
C44	C	0.804545	0.428038	0.333129
C45	C	1.137879	0.761371	0.666462
C46	C	0.515918	0.031929	-0.000180
C47	C	0.849252	0.365262	0.333153
C48	C	1.182585	0.698595	0.666487
C49	C	0.588364	0.032991	-0.000164
C50	C	0.921697	0.366324	0.333169
C51	C	1.255030	0.699658	0.666502
C52	C	0.362957	0.044527	-0.044082
C53	C	0.696290	0.377861	0.289251
C54	C	1.029623	0.711194	0.622584
C55	C	0.290512	0.043468	-0.044103
C56	C	0.623846	0.376801	0.289231
C57	C	0.957179	0.710134	0.622564
C58	C	0.247767	0.091425	-0.000250
C59	C	0.581100	0.424758	0.333084
C60	C	0.914433	0.758092	0.666417
C61	C	0.277473	0.140454	0.043614
C62	C	0.610806	0.473788	0.376947
C63	C	0.944139	0.807121	0.710281
C64	C	0.349918	0.141517	0.043630
C65	C	0.683251	0.474850	0.376963
C66	C	1.016585	0.808183	0.710296
C67	C	0.392658	0.093546	-0.000221
C68	C	0.725991	0.426879	0.333112
C69	C	1.059325	0.760212	0.666446
C70	C	0.124514	0.153047	-0.000278
C71	C	0.457848	0.486381	0.333056
C72	C	0.791181	0.819714	0.666389
C73	C	0.052066	0.151984	-0.000281
C74	C	0.385400	0.485317	0.333052
C75	C	0.718733	0.818651	0.666386
C76	C	0.069026	0.025374	-0.000267
C77	C	0.402360	0.358707	0.333066
C78	C	0.735693	0.692040	0.666399
C79	C	0.141473	0.026439	-0.000256
C80	C	0.474806	0.359772	0.333077
C81	C	0.808140	0.693106	0.666410
C82	C	0.169212	0.090278	-0.000265
C83	C	0.502546	0.423611	0.333068
C84	C	0.835879	0.756944	0.666402
C85	C	0.825682	-0.034516	-0.000209
C86	C	1.159015	0.298817	0.333124
C87	C	1.492348	0.632150	0.666458
C88	C	0.824553	-0.111620	-0.000202
C89	C	1.157886	0.221713	0.333131
C90	C	1.491219	0.555047	0.666465
C91	C	0.887321	-0.156316	-0.000214
C92	C	1.220654	0.177017	0.333119
C93	C	1.553987	0.510350	0.666453
C94	C	0.886260	-0.228763	-0.000226
C95	C	1.219593	0.104570	0.333108
C96	C	1.552927	0.437903	0.666441
C97	C	0.822428	-0.256511	-0.000210
C98	C	1.155761	0.076822	0.333123
C99	C	1.489094	0.410156	0.666456
C100	C	0.759652	-0.211805	-0.000203
C101	C	1.092985	0.121529	0.333131
C102	C	1.426318	0.454862	0.666464
C103	C	0.760714	-0.139359	-0.000198
C104	C	1.094047	0.193974	0.333135
C105	C	1.427381	0.527307	0.666468
C106	C	0.772242	-0.364800	0.043653
C107	C	1.105575	-0.031467	0.376986
C108	C	1.438908	0.301867	0.710320
C109	C	0.771182	-0.437245	0.043654
C110	C	1.104515	-0.103911	0.376987
C111	C	1.437848	0.229422	0.710320
C112	C	0.819148	-0.479956	-0.000226
C113	C	1.152481	-0.146623	0.333107
C114	C	1.485815	0.186710	0.666440
C115	C	0.868186	-0.450216	-0.044097
C116	C	1.201519	-0.116883	0.289236
C117	C	1.534853	0.216450	0.622570
C118	C	0.869249	-0.377771	-0.044093
C119	C	1.202582	-0.044438	0.289240
C120	C	1.535915	0.288896	0.622574
C121	C	0.821269	-0.335065	-0.000215
C122	C	1.154602	-0.001732	0.333118
C123	C	1.487935	0.331602	0.666452
C124	C	0.880770	-0.603209	-0.000252
C125	C	1.214104	-0.269875	0.333081
C126	C	1.547437	0.063458	0.666415
C127	C	0.879707	-0.675657	-0.000268
C128	C	1.213040	-0.342323	0.333065
C129	C	1.546374	-0.008990	0.666398
C130	C	0.753097	-0.658697	-0.000238
C131	C	1.086430	-0.325363	0.333096
C132	C	1.419763	0.007970	0.666429
C133	C	0.754162	-0.586250	-0.000229
C134	C	1.087495	-0.252917	0.333105
C135	C	1.420829	0.080417	0.666438
C136	C	0.818001	-0.558511	-0.000232
C137	C	1.151334	-0.225177	0.333101
C138	C	1.484667	0.108156	0.666434
C139	C	0.947220	0.087022	-0.000258
C140	C	1.280554	0.420355	0.333075
C141	C	1.613887	0.753689	0.666408
C142	C	1.024324	0.088151	-0.000283
C143	C	1.357657	0.421484	0.333050
C144	C	1.690990	0.754818	0.666384
C145	C	0.814745	0.219497	-0.000242
C146	C	1.148078	0.552831	0.333091
C147	C	1.481412	0.886164	0.666424
C148	C	0.815874	0.296601	-0.000254
C149	C	1.149207	0.629934	0.333079
C150	C	1.482541	0.963267	0.666413
N151	N	0.820192	0.092482	0.177931
N152	N	1.153525	0.425816	0.511264
N153	N	1.486858	0.759149	0.844597
N154	N	0.820241	0.092493	-0.178380
N155	N	1.153574	0.425826	0.154953
N156	N	1.486907	0.759160	0.488287
C157	C	0.867575	0.045137	0.217312
C158	C	1.200909	0.378470	0.550646
C159	C	1.534242	0.711804	0.883979
C160	C	0.867579	0.045134	0.296114
C161	C	1.200913	0.378467	0.629447
C162	C	1.534246	0.711800	0.962781
C163	C	0.820206	0.092488	0.335531
C164	C	1.153540	0.425821	0.668864
C165	C	1.486873	0.759154	1.002198
C166	C	0.772814	0.139837	0.296140
C167	C	1.106147	0.473170	0.629473
C168	C	1.439481	0.806503	0.962807
C169	C	0.772807	0.139834	0.217340
C170	C	1.106140	0.473167	0.550673
C171	C	1.439473	0.806501	0.884006
C172	C	0.810908	0.155775	0.460362
C173	C	1.144241	0.489109	0.793695
C174	C	1.477574	0.822442	1.127029
C175	C	0.810920	0.155779	0.539161
C176	C	1.144253	0.489112	0.872494
C177	C	1.477586	0.822446	1.205828
C178	C	0.820225	0.092496	0.578577
C179	C	1.153558	0.425829	0.911911
C180	C	1.486892	0.759163	1.245244
C181	C	0.829533	0.029207	0.539185
C182	C	1.162866	0.362540	0.872519
C183	C	1.496199	0.695873	1.205852
C184	C	0.829525	0.029204	0.460385
C185	C	1.162859	0.362537	0.793718
C186	C	1.496192	0.695871	1.127052
C187	C	0.820209	0.092496	0.420977
C188	C	1.153542	0.425829	0.754310
C189	C	1.486875	0.759162	1.087643
C190	C	0.867616	0.045143	0.703405
C191	C	1.200949	0.378477	1.036738
C192	C	1.534282	0.711810	1.370072
C193	C	0.867615	0.045139	0.782208
C194	C	1.200948	0.378473	1.115542
C195	C	1.534281	0.711806	1.448875
C196	C	0.772853	0.139848	0.782233
C197	C	1.106186	0.473182	1.115566
C198	C	1.439519	0.806515	1.448899
C199	C	0.772850	0.139846	0.703431
C200	C	1.106183	0.473180	1.036764
C201	C	1.439517	0.806513	1.370098
C202	C	0.820235	0.092495	0.664022
C203	C	1.153569	0.425828	0.997355
C204	C	1.486902	0.759161	1.330689
H205	H	0.015674	0.203099	-0.000293
H206	H	0.349008	0.536433	0.333040
H207	H	0.682341	0.869766	0.666373
C208	C	0.691666	-0.090191	-0.000178
C209	C	1.025000	0.243142	0.333155
C210	C	1.358333	0.576475	0.666488
H211	H	0.653497	-0.117090	-0.000167
H212	H	0.986830	0.216244	0.333166
H213	H	1.320163	0.549577	0.666499
H214	H	0.689456	-0.061564	-0.043829
H215	H	1.022789	0.271769	0.289504
H216	H	1.356122	0.605102	0.622838
H217	H	0.689445	-0.061592	0.043489
H218	H	1.022778	0.271741	0.376822
H219	H	1.356111	0.605075	0.710155
H220	H	0.733180	-0.330029	0.079389
H221	H	1.066513	0.003304	0.412723
H222	H	1.399847	0.336637	0.746056
H223	H	0.932751	-0.580622	-0.000258
H224	H	1.266085	-0.247289	0.333075
H225	H	1.599418	0.086044	0.666408
H226	H	0.734278	0.178402	0.814325
H227	H	1.067611	0.511735	1.147659
H228	H	1.400945	0.845069	1.480992
H229	H	0.707679	-0.234401	-0.000192
H230	H	1.041012	0.098932	0.333142
H231	H	1.374346	0.432265	0.666475
C232	C	0.923178	-0.345058	-0.092354
C233	C	1.256512	-0.011724	0.240979
C234	C	1.589845	0.321609	0.574312
H235	H	0.951592	-0.380866	-0.118495
H236	H	1.284925	-0.047533	0.214839
H237	H	1.618259	0.285801	0.548172
H238	H	0.951634	-0.320557	-0.060743
H239	H	1.284967	0.012776	0.272590
H240	H	1.618300	0.346110	0.605924
H241	H	0.899575	-0.313575	-0.127615
H242	H	1.232908	0.019759	0.205718
H243	H	1.566241	0.353092	0.539052
H244	H	0.493322	-0.020044	-0.000193
H245	H	0.826655	0.313289	0.333140
H246	H	1.159988	0.646623	0.666474
C247	C	0.720735	0.191934	0.660109
C248	C	1.054068	0.525268	0.993442
C249	C	1.387402	0.858601	1.326775
H250	H	0.692525	0.220141	0.694868
H251	H	1.025858	0.553474	1.028201
H252	H	1.359192	0.886808	1.361535
H253	H	0.691899	0.167023	0.629389
H254	H	1.025233	0.500356	0.962723
H255	H	1.358566	0.833689	1.296056
H256	H	0.745632	0.220786	0.629350
H257	H	1.078965	0.554119	0.962683
H258	H	1.412298	0.887453	1.296017
C259	C	0.920956	-0.497187	-0.092366
C260	C	1.254289	-0.163854	0.240968
C261	C	1.587623	0.169480	0.574301
H262	H	0.950315	-0.469100	-0.118485
H263	H	1.283648	-0.135767	0.214848
H264	H	1.616982	0.197567	0.548181
H265	H	0.896538	-0.522224	-0.127632
H266	H	1.229871	-0.188891	0.205702
H267	H	1.563204	0.144442	0.539035
H268	H	0.948583	-0.529211	-0.060747
H269	H	1.281916	-0.195877	0.272586
H270	H	1.615249	0.137456	0.605920
C271	C	0.038516	-0.044842	-0.000267
C272	C	0.371850	0.288491	0.333066
C273	C	0.705183	0.621824	0.666400
H274	H	0.075515	-0.082074	-0.000250
H275	H	0.408849	0.251260	0.333083
H276	H	0.742182	0.584593	0.666417
H277	H	0.010629	-0.047889	-0.043926
H278	H	0.343963	0.285444	0.289407
H279	H	0.677296	0.618778	0.622740
H280	H	0.010587	-0.047888	0.043391
H281	H	0.343920	0.285445	0.376724
H282	H	0.677254	0.618779	0.710058
C283	C	0.839753	-0.040407	0.417054
C284	C	1.173086	0.292927	0.750388
C285	C	1.506419	0.626260	1.083721
H286	H	0.845391	-0.078097	0.451808
H287	H	1.178724	0.255236	0.785141
H288	H	1.512057	0.588570	1.118474
H289	H	0.880138	-0.041875	0.386207
H290	H	1.213471	0.291459	0.719540
H291	H	1.546805	0.624792	1.052874
H292	H	0.800024	-0.044198	0.386423
H293	H	1.133357	0.289135	0.719756
H294	H	1.466691	0.622468	1.053089
H295	H	0.803345	0.207313	0.571228
H296	H	1.136679	0.540646	0.904561
H297	H	1.470012	0.873980	1.237895
H298	H	0.397755	0.005473	-0.079797
H299	H	0.731089	0.338807	0.253536
H300	H	1.064422	0.672140	0.586870
H301	H	0.734220	0.178389	0.185274
H302	H	1.067554	0.511722	0.518608
H303	H	1.400887	0.845055	0.851941
H304	H	0.906198	0.006585	0.671317
H305	H	1.239531	0.339918	1.004650
H306	H	1.572864	0.673251	1.337984
H307	H	0.624756	-0.018124	-0.000148
H308	H	0.958090	0.315210	0.333185
H309	H	1.291423	0.648543	0.666518
H310	H	0.939303	-0.133736	-0.000220
H311	H	1.272636	0.199597	0.333114
H312	H	1.605970	0.532931	0.666447
C313	C	0.948755	-0.724823	-0.000280
C314	C	1.282089	-0.391490	0.333053
C315	C	1.615422	-0.058157	0.666387
H316	H	0.986924	-0.697924	-0.000274
H317	H	1.320258	-0.364591	0.333059
H318	H	1.653591	-0.031257	0.666393
H319	H	0.950985	-0.753427	-0.043938
H320	H	1.284319	-0.420094	0.289395
H321	H	1.617652	-0.086761	0.622728
H322	H	0.950959	-0.753446	0.043379
H323	H	1.284293	-0.420112	0.376712
H324	H	1.617626	-0.086779	0.710046
C325	C	0.682883	-0.689210	-0.000223
C326	C	1.016216	-0.355877	0.333110
C327	C	1.349549	-0.022543	0.666444
H328	H	0.691238	-0.738758	-0.000224
H329	H	1.024572	-0.405425	0.333109
H330	H	1.357905	-0.072091	0.666443
H331	H	0.657053	-0.673842	-0.043872
H332	H	0.990387	-0.340509	0.289462
H333	H	1.323720	-0.007176	0.622795
H334	H	0.657041	-0.673865	0.043446
H335	H	0.990374	-0.340532	0.376779
H336	H	1.323707	-0.007198	0.710113
C337	C	0.685116	-0.537082	-0.000203
C338	C	1.018450	-0.203749	0.333130
C339	C	1.351783	0.129585	0.666464
H340	H	0.646947	-0.563981	-0.000189
H341	H	0.980280	-0.230648	0.333144
H342	H	1.313614	0.102685	0.666478
H343	H	0.682903	-0.508456	-0.043855
H344	H	1.016237	-0.175123	0.289479
H345	H	1.349570	0.158210	0.622812
H346	H	0.682896	-0.508482	0.043463
H347	H	1.016229	-0.175148	0.376796
H348	H	1.349562	0.158185	0.710129
H349	H	0.906158	0.006579	0.185228
H350	H	1.239491	0.339912	0.518561
H351	H	1.572824	0.673246	0.851894
C352	C	0.190644	-0.042605	-0.000245
C353	C	0.523977	0.290729	0.333088
C354	C	0.857311	0.624062	0.666422
H355	H	0.237763	-0.032830	-0.000231
H356	H	0.571097	0.300503	0.333103
H357	H	0.904430	0.633836	0.666436
H358	H	0.182279	-0.068787	-0.043901
H359	H	0.515612	0.264547	0.289433
H360	H	0.848945	0.597880	0.622766
H361	H	0.182232	-0.068790	0.043417
H362	H	0.515565	0.264543	0.376750
H363	H	0.848898	0.597876	0.710084
C364	C	0.919705	-0.006944	0.339447
C365	C	1.253038	0.326390	0.672780
C366	C	1.586371	0.659723	1.006113
H367	H	0.912919	-0.000161	0.392021
H368	H	1.246252	0.333172	0.725355
H369	H	1.579586	0.666505	1.058688
H370	H	0.966032	0.000485	0.326505
H371	H	1.299366	0.333819	0.659839
H372	H	1.632699	0.667152	0.993172
H373	H	0.912309	-0.053288	0.326553
H374	H	1.245643	0.280046	0.659886
H375	H	1.578976	0.613379	0.993220
C376	C	0.257842	-0.010463	-0.092346
C377	C	0.591175	0.322870	0.240987
C378	C	0.924509	0.656203	0.574320
H379	H	0.293675	-0.038882	-0.118450
H380	H	0.627008	0.294451	0.214884
H381	H	0.960342	0.627785	0.548217
H382	H	0.226384	0.013130	-0.127627
H383	H	0.559717	0.346464	0.205707
H384	H	0.893051	0.679797	0.539040
H385	H	0.233321	-0.038923	-0.060719
H386	H	0.566655	0.294411	0.272614
H387	H	0.899988	0.627744	0.605948
H388	H	0.731249	-0.461453	0.079371
H389	H	1.064583	-0.128119	0.412705
H390	H	1.397916	0.205214	0.746038
C391	C	0.800676	0.225391	0.417011
C392	C	1.134010	0.558725	0.750345
C393	C	1.467343	0.892058	1.083678
H394	H	0.795146	0.263083	0.451756
H395	H	1.128480	0.596416	0.785089
H396	H	1.461813	0.929749	1.118422
H397	H	0.760228	0.226904	0.386290
H398	H	1.093561	0.560237	0.719624
H399	H	1.426895	0.893571	1.052957
H400	H	0.840355	0.229138	0.386252
H401	H	1.173689	0.562471	0.719585
H402	H	1.507022	0.895805	1.052919
C403	C	0.955305	-0.277941	-0.000234
C404	C	1.288638	0.055392	0.333100
C405	C	1.621972	0.388726	0.666433
H406	H	0.945528	-0.325059	-0.000239
H407	H	1.278861	0.008274	0.333094
H408	H	1.612194	0.341607	0.666427
H409	H	0.981479	-0.269561	0.043419
H410	H	1.314812	0.063772	0.376753
H411	H	1.648146	0.397105	0.710086
H412	H	0.981500	-0.269547	-0.043898
H413	H	1.314834	0.063787	0.289435
H414	H	1.648167	0.397120	0.622769
C415	C	0.839763	-0.040408	0.582532
C416	C	1.173097	0.292925	0.915866
C417	C	1.506430	0.626258	1.249199
H418	H	0.838426	-0.031346	0.635105
H419	H	1.171759	0.301988	0.968438
H420	H	1.505092	0.635321	1.301771
H421	H	0.883645	-0.065293	0.569605
H422	H	1.216979	0.268041	0.902938
H423	H	1.550312	0.601374	1.236272
H424	H	0.803518	-0.067530	0.569640
H425	H	1.136852	0.265804	0.902974
H426	H	1.470185	0.599137	1.236307
H427	H	0.734241	0.178392	0.328237
H428	H	1.067574	0.511725	0.661571
H429	H	1.400908	0.845059	0.994904
C430	C	0.919741	-0.006942	0.825529
C431	C	1.253074	0.326391	1.158862
C432	C	1.586407	0.659725	1.492195
H433	H	0.947963	-0.035136	0.790769
H434	H	1.281296	0.298197	1.124102
H435	H	1.614630	0.631531	1.457436
H436	H	0.894856	-0.035796	0.856290
H437	H	1.228189	0.297537	1.189623
H438	H	1.561522	0.630870	1.522956
H439	H	0.948574	0.017981	0.856246
H440	H	1.281908	0.351314	1.189579
H441	H	1.615241	0.684648	1.522912
H442	H	0.593987	0.211580	-0.000202
H443	H	0.927320	0.544913	0.333132
H444	H	1.260654	0.878247	0.666465
H445	H	0.462561	0.209652	-0.000216
H446	H	0.795894	0.542985	0.333118
H447	H	1.129228	0.876318	0.666451
C448	C	0.382594	0.195438	0.091882
C449	C	0.715927	0.528771	0.425216
C450	C	1.049261	0.862104	0.758549
H451	H	0.346766	0.223846	0.118003
H452	H	0.680099	0.557180	0.451337
H453	H	1.013432	0.890513	0.784670
H454	H	0.407119	0.223899	0.060268
H455	H	0.740452	0.557232	0.393601
H456	H	1.073785	0.890565	0.726935
H457	H	0.414050	0.171828	0.127159
H458	H	0.747384	0.505161	0.460493
H459	H	1.080717	0.838495	0.793826
H460	H	0.242670	0.179505	0.079324
H461	H	0.576004	0.512839	0.412657
H462	H	0.909337	0.846172	0.745991
H463	H	0.147101	0.205028	-0.000274
H464	H	0.480434	0.538362	0.333060
H465	H	0.813767	0.871695	0.666393
