data_functionalizedCrystal
_audit_creation_method	'MofGen! by Chris Wilmer'
_symmetry_space_group_name_H-M	'P1'
_symmetry_Int_Tables_number	1
_symmetry_cell_setting	triclinic
loop_
_symmetry_equiv_pos_as_xyz
  x,y,z
_cell_length_a	11.792241
_cell_length_b	16.098546
_cell_length_c	17.019448
_cell_angle_alpha	96.601402
_cell_angle_beta	96.203058
_cell_angle_gamma	92.740065
loop_
_atom_site_label
_atom_site_type_symbol
_atom_site_fract_x
_atom_site_fract_y
_atom_site_fract_z
O1	O	1.510298	0.061655	-0.104986
O2	O	2.010298	0.561655	0.395014
O3	O	1.179785	0.060874	-0.116168
O4	O	1.679785	0.560874	0.383832
O5	O	1.354852	0.069510	0.004632
O6	O	1.854852	0.569510	0.504632
O7	O	1.335231	0.053019	-0.225785
O8	O	1.835231	0.553019	0.274215
O9	O	1.344665	-0.069507	-0.002423
O10	O	1.844665	0.430493	0.497577
O11	O	1.169597	-0.078143	-0.123222
O12	O	1.669597	0.421857	0.376778
O13	O	1.500111	-0.077362	-0.112040
O14	O	2.000111	0.422638	0.387960
Zn15	Zn	1.333237	-0.099825	-0.118751
Zn16	Zn	1.833237	0.400175	0.381249
Zn17	Zn	1.346659	0.083337	-0.109457
Zn18	Zn	1.846659	0.583337	0.390543
O19	O	1.325043	-0.085998	-0.232839
O20	O	1.825043	0.414002	0.267161
C21	C	1.132411	-0.008582	-0.118992
C22	C	1.632411	0.491418	0.381008
C23	C	1.006431	-0.008424	-0.116889
C24	C	1.506431	0.491576	0.383111
N25	N	1.324085	-0.224827	-0.125094
N26	N	1.824085	0.275173	0.374906
C27	C	0.775777	-0.008171	-0.113024
C28	C	1.275777	0.491829	0.386976
C29	C	0.904130	-0.008312	-0.115172
C30	C	1.404130	0.491688	0.384828
C31	C	1.281497	-0.751739	-0.154367
C32	C	1.781497	-0.251739	0.345633
C33	C	1.287924	-0.664234	-0.149945
C34	C	1.787924	-0.164234	0.350055
C35	C	1.368680	-0.616652	-0.094267
C36	C	1.868680	-0.116652	0.405733
C37	C	1.443007	-0.656579	-0.043002
C38	C	1.943007	-0.156579	0.456998
C39	C	1.436574	-0.744083	-0.047421
C40	C	1.936574	-0.244083	0.452579
C41	C	1.391978	-0.352257	-0.078247
C42	C	1.891978	0.147743	0.421753
C43	C	1.398408	-0.264748	-0.073834
C44	C	1.898408	0.235252	0.426166
C45	C	1.243322	-0.272409	-0.180777
C46	C	1.743322	0.227591	0.319223
C47	C	1.236901	-0.359914	-0.185194
C48	C	1.736901	0.140086	0.314806
C49	C	1.311224	-0.399833	-0.133926
C50	C	1.811224	0.100167	0.366074
C51	C	1.375254	-0.527208	-0.089748
C52	C	1.875254	-0.027208	0.410252
C53	C	1.304644	-0.489275	-0.138442
C54	C	1.804644	0.010725	0.361558
C55	C	1.547485	-0.007904	-0.109215
C56	C	2.047485	0.492096	0.390785
C57	C	1.673466	-0.008057	-0.111318
C58	C	2.173466	0.491943	0.388682
C59	C	1.349211	0.002115	0.030603
C60	C	1.849211	0.502115	0.530603
C61	C	1.347566	0.008412	0.118499
C62	C	1.847566	0.508412	0.618499
N63	N	1.355820	0.208339	-0.103108
N64	N	1.855820	0.708339	0.396892
C65	C	1.330685	-0.018601	-0.258811
C66	C	1.830685	0.481399	0.241189
C67	C	1.332330	-0.024893	-0.346707
C68	C	1.832330	0.475107	0.153293
C69	C	1.338651	0.047918	0.615829
C70	C	1.838651	0.547918	1.115829
C71	C	1.340184	0.041985	0.533239
C72	C	1.840184	0.541985	1.033239
C73	C	1.335389	-0.036761	0.488115
C74	C	1.835389	0.463239	0.988115
C75	C	1.329071	-0.109577	0.525585
C76	C	1.829071	0.390423	1.025585
C77	C	1.327546	-0.103643	0.608174
C78	C	1.827546	0.396357	1.108174
C79	C	1.339723	-0.058470	0.238558
C80	C	1.839723	0.441530	0.738558
C81	C	1.341246	-0.064399	0.155964
C82	C	1.841246	0.435601	0.655964
C83	C	1.352361	0.087163	0.163624
C84	C	1.852361	0.587163	0.663624
C85	C	1.350828	0.093091	0.246213
C86	C	1.850828	0.593091	0.746213
C87	C	1.344517	0.020275	0.283677
C88	C	1.844517	0.520275	0.783677
C89	C	1.336952	-0.042828	0.403694
C90	C	1.836952	0.457172	0.903694
C91	C	1.342961	0.026343	0.368097
C92	C	1.842961	0.526343	0.868097
H93	H	1.215741	-0.790475	-0.199710
H94	H	1.715741	-0.290475	0.300290
H95	H	1.497095	-0.776585	-0.005679
H96	H	1.997095	-0.276585	0.494321
H97	H	1.227403	-0.631731	-0.191685
H98	H	1.727403	-0.131731	0.308315
C99	C	1.487239	-0.212409	-0.012582
C100	C	1.987239	0.287591	0.487418
H101	H	1.530576	-0.248715	0.017324
H102	H	2.030576	0.251285	0.517324
H103	H	1.536794	-0.180348	-0.039562
H104	H	2.036794	0.319652	0.460438
H105	H	1.449141	-0.175882	0.022290
H106	H	1.949141	0.324118	0.522290
H107	H	1.238888	-0.528019	-0.183773
H108	H	1.738888	-0.028019	0.316227
H109	H	1.333046	-0.106942	0.366945
H110	H	1.833046	0.393058	0.866945
H111	H	1.325174	-0.173693	0.488839
H112	H	1.825174	0.326307	0.988839
C113	C	1.320591	-0.183732	0.649388
C114	C	1.820591	0.316268	1.149388
H115	H	1.320381	-0.168920	0.705039
H116	H	1.820381	0.331080	1.205039
H117	H	1.252376	-0.216248	0.628537
H118	H	1.752376	0.283752	1.128537
H119	H	1.384749	-0.215432	0.640026
H120	H	1.884749	0.284568	1.140026
H121	H	1.346871	0.090456	0.404841
H122	H	1.846871	0.590456	0.904841
H123	H	1.171143	-0.398653	-0.230532
H124	H	1.671143	0.101347	0.269468
C125	C	1.332768	-0.138565	0.279757
C126	C	1.832768	0.361435	0.779757
H127	H	1.330117	-0.186310	0.241051
H128	H	1.830117	0.313690	0.741051
H129	H	1.398123	-0.139001	0.317561
H130	H	1.898123	0.360999	0.817561
H131	H	1.265751	-0.139804	0.306069
H132	H	1.765751	0.360196	0.806069
C133	C	1.161567	-0.228496	-0.237160
C134	C	1.661567	0.271504	0.262840
H135	H	1.176955	-0.169567	-0.226552
H136	H	1.676955	0.330433	0.273448
H137	H	1.172466	-0.246641	-0.290782
H138	H	1.672466	0.253359	0.209218
H139	H	1.084831	-0.242178	-0.228918
H140	H	1.584831	0.257822	0.271082
H141	H	1.337306	-0.128526	0.119222
H142	H	1.837306	0.371474	0.619222
H143	H	1.357500	0.146446	0.133112
H144	H	1.857500	0.646446	0.633112
C145	C	1.473746	-0.396159	-0.021866
C146	C	1.973746	0.103841	0.478134
H147	H	1.522772	-0.355287	0.011917
H148	H	2.022772	0.144713	0.511917
H149	H	1.430655	-0.427905	0.009567
H150	H	1.930655	0.072095	0.509567
H151	H	1.518281	-0.432363	-0.052304
H152	H	2.018281	0.067637	0.447696
H153	H	1.508757	-0.617833	0.002336
H154	H	2.008757	-0.117833	0.502336
H155	H	1.342545	0.112041	0.652563
H156	H	1.842545	0.612041	1.152563
C157	C	1.347124	0.122077	0.492030
C158	C	1.847124	0.622077	0.992030
H159	H	1.349744	0.169824	0.530732
H160	H	1.849744	0.669824	1.030732
H161	H	1.414131	0.123325	0.465716
H162	H	1.914131	0.623325	0.965716
H163	H	1.281757	0.122500	0.454227
H164	H	1.781757	0.622500	0.954227
C165	C	1.356109	0.179709	0.295849
C166	C	1.856109	0.679709	0.795849
H167	H	1.354285	0.172814	0.350401
H168	H	1.854285	0.672814	0.850401
H169	H	1.424824	0.210279	0.289633
H170	H	1.924824	0.710279	0.789633
H171	H	1.292451	0.209466	0.278141
H172	H	1.792451	0.709466	0.778141
H173	H	1.441010	-0.488460	-0.044415
H174	H	1.941010	0.011540	0.455585
