data_functionalizedCrystal
_audit_creation_method	'MofGen! by Chris Wilmer'
_symmetry_space_group_name_H-M	'P1'
_symmetry_Int_Tables_number	1
_symmetry_cell_setting	triclinic
loop_
_symmetry_equiv_pos_as_xyz
  x,y,z
_cell_length_a	10.654550
_cell_length_b	17.038272
_cell_length_c	9.730223
_cell_angle_alpha	89.995299
_cell_angle_beta	89.999957
_cell_angle_gamma	87.798243
loop_
_atom_site_label
_atom_site_type_symbol
_atom_site_fract_x
_atom_site_fract_y
_atom_site_fract_z
O1	O	1.678042	0.109878	-0.114188
O2	O	1.313535	0.120346	-0.114214
O3	O	1.493622	0.001285	-0.114190
O4	O	1.497955	0.228940	-0.114212
O5	O	1.493609	0.001281	0.114390
O6	O	1.313523	0.120343	0.114366
O7	O	1.678029	0.109875	0.114392
Zn8	Zn	1.495774	0.115108	0.150671
Zn9	Zn	1.495791	0.115113	-0.150493
O10	O	1.497942	0.228936	0.114368
C11	C	1.266660	0.119576	0.000073
C12	C	1.127003	0.117276	0.000064
C13	C	1.054026	0.187378	0.000061
C14	C	0.922805	0.185213	0.000085
C15	C	0.937548	0.042838	0.000109
C16	C	1.068767	0.045004	0.000095
C17	C	1.489675	-0.027867	0.000099
C18	C	1.477918	-0.114726	0.000098
C19	C	1.585862	-0.164237	0.000107
C20	C	1.574808	-0.245849	0.000093
C21	C	1.455808	-0.277949	0.000080
C22	C	1.347855	-0.228431	0.000067
C23	C	1.358911	-0.146820	0.000071
C24	C	1.416750	-0.523925	0.000059
C25	C	1.405702	-0.605542	0.000059
C26	C	1.632655	-0.622955	0.000082
C27	C	1.643701	-0.541341	0.000094
C28	C	1.535748	-0.491831	0.000074
C29	C	1.444505	-0.361369	0.000070
C30	C	1.547052	-0.408412	0.000074
C31	C	1.724905	0.110645	0.000102
C32	C	1.864561	0.112945	0.000102
C33	C	1.501889	0.258088	0.000076
C34	C	1.513646	0.344947	0.000068
N35	N	1.495771	0.115105	0.356207
N36	N	1.495802	0.115110	-0.356029
C37	C	1.575545	0.062407	0.428144
C38	C	1.575558	0.062407	0.572027
C39	C	1.416020	0.167810	0.572024
C40	C	1.416002	0.167806	0.428144
H41	H	1.682764	-0.138109	0.000126
N42	N	1.329993	0.224649	0.649624
H43	H	1.381715	0.259568	0.709301
H44	H	1.279465	0.257979	0.582134
H45	H	1.351034	0.210719	0.369569
N46	N	1.661619	0.005579	0.649612
H47	H	1.641241	-0.050033	0.624587
H48	H	1.751716	0.015189	0.624513
N49	N	1.661576	0.005567	0.350552
H50	H	1.712112	-0.027817	0.417961
H51	H	1.609774	-0.029299	0.290870
H52	H	1.101438	0.246227	0.000046
H53	H	1.128187	-0.012085	0.000101
N54	N	1.316155	-0.395988	0.000069
H55	H	1.306516	-0.429456	-0.084668
H56	H	1.306595	-0.429428	0.084858
N57	N	1.219506	-0.263051	0.000066
H58	H	1.152801	-0.219300	0.000060
H59	H	1.209977	-0.296530	-0.084670
N60	N	0.844093	0.260822	0.000159
H61	H	0.900901	0.306931	0.000162
H62	H	0.789287	0.263052	-0.084546
H63	H	0.890116	-0.016004	0.000142
N64	N	1.691232	-0.299252	0.000111
H65	H	1.768295	-0.266533	0.000132
H66	H	1.691572	-0.333495	0.084848
H67	H	1.740603	-0.515213	0.000105
H68	H	1.720544	-0.663274	0.000096
H69	H	1.328847	-0.483623	0.000043
N70	N	1.277347	-0.640166	0.000043
H71	H	1.210636	-0.596418	0.000027
H72	H	1.267835	-0.673646	-0.084695
H73	H	1.271011	-0.106509	0.000064
N74	N	1.675397	-0.373792	0.000104
H75	H	1.742110	-0.417539	0.000115
H76	H	1.684936	-0.340305	-0.084630
