data_functionalizedCrystal
_audit_creation_method	'MofGen! by Chris Wilmer'
_symmetry_space_group_name_H-M	'P1'
_symmetry_Int_Tables_number	1
_symmetry_cell_setting	triclinic
loop_
_symmetry_equiv_pos_as_xyz
  x,y,z
_cell_length_a	16.793024
_cell_length_b	16.793047
_cell_length_c	33.586455
_cell_angle_alpha	113.253857
_cell_angle_beta	66.219990
_cell_angle_gamma	112.758327
loop_
_atom_site_label
_atom_site_type_symbol
_atom_site_fract_x
_atom_site_fract_y
_atom_site_fract_z
O1	O	0.005016	-0.570216	-0.583573
O2	O	-0.034529	-0.474528	-0.453458
O3	O	0.114723	-0.474535	-0.528082
O4	O	-0.144235	-0.570209	-0.508949
O5	O	0.108729	-0.346329	-0.530229
O6	O	-0.040523	-0.346322	-0.455605
O7	O	-0.000977	-0.442010	-0.585721
Cu8	Cu	-0.021297	-0.382459	-0.520859
Cu9	Cu	-0.014209	-0.534079	-0.518320
O10	O	-0.150229	-0.442003	-0.511097
C11	C	0.005100	-0.790970	-0.238461
C12	C	-0.040584	-0.395375	-0.435637
C13	C	-0.044693	-0.353446	-0.386631
C14	C	-0.039275	-0.401741	-0.363054
C15	C	-0.040566	-0.125547	-0.300731
C16	C	-0.044689	-0.223451	-0.321635
C17	C	-0.039266	-0.270752	-0.297563
C18	C	0.005118	-0.521142	-0.103554
C19	C	-0.046224	-0.263935	-0.366370
C20	C	-0.036476	-0.360146	-0.318399
C21	C	-0.030850	-0.408530	-0.294565
C22	C	-0.028014	-0.367522	-0.249895
C23	C	-0.030804	-0.278128	-0.229058
C24	C	-0.036430	-0.229743	-0.252892
C25	C	-0.027971	-0.237122	-0.184383
C26	C	-0.022345	-0.285507	-0.160550
C27	C	-0.019555	-0.374900	-0.181386
C28	C	-0.022391	-0.415909	-0.226057
C29	C	-0.019601	-0.505302	-0.246894
C30	C	-0.013975	-0.553687	-0.223060
C31	C	-0.011142	-0.512684	-0.178391
C32	C	-0.013932	-0.423291	-0.157554
C33	C	-0.005516	-0.561069	-0.154557
C34	C	-0.002726	-0.650463	-0.175394
C35	C	-0.005562	-0.691471	-0.220064
C36	C	-0.011185	-0.643081	-0.243897
C37	C	-0.022434	-0.546309	-0.291568
C38	C	-0.019644	-0.635702	-0.312405
C39	C	-0.014021	-0.684089	-0.288567
C40	C	-0.022480	-0.676711	-0.357076
C41	C	-0.028106	-0.628326	-0.380910
C42	C	-0.030896	-0.538933	-0.360073
C43	C	-0.028060	-0.497924	-0.315402
C44	C	-0.036522	-0.490548	-0.383907
C45	C	0.815184	-0.521162	-0.508596
C46	C	0.415541	-0.125553	-0.528781
C47	C	0.375032	-0.223457	-0.531493
C48	C	0.423813	-0.270761	-0.529101
C49	C	0.149318	-0.395376	-0.530584
C50	C	0.246774	-0.353455	-0.532364
C51	C	0.294574	-0.401748	-0.529976
C52	C	0.548961	-0.790984	-0.510398
C53	C	0.286104	-0.263940	-0.532530
C54	C	0.383336	-0.360149	-0.528302
C55	C	0.432207	-0.407971	-0.525810
C56	C	0.392316	-0.497392	-0.524993
C57	C	0.303554	-0.538991	-0.526667
C58	C	0.254683	-0.491169	-0.529159
C59	C	0.263666	-0.628421	-0.525851
C60	C	0.312537	-0.676243	-0.523359
C61	C	0.401299	-0.634644	-0.521685
C62	C	0.441190	-0.545223	-0.522502
C63	C	0.529952	-0.503624	-0.520828
C64	C	0.578823	-0.551446	-0.518336
C65	C	0.538939	-0.640864	-0.517520
C66	C	0.450177	-0.682463	-0.519194
C67	C	0.587810	-0.688687	-0.515028
C68	C	0.676572	-0.647088	-0.513354
C69	C	0.716463	-0.557666	-0.514172
C70	C	0.667586	-0.509847	-0.516662
C71	C	0.569840	-0.414195	-0.521644
C72	C	0.658602	-0.372596	-0.519970
C73	C	0.707476	-0.420426	-0.517480
C74	C	0.698493	-0.283174	-0.520788
C75	C	0.649622	-0.235352	-0.523280
C76	C	0.560860	-0.276951	-0.524954
C77	C	0.520969	-0.366372	-0.524136
C78	C	0.511989	-0.229129	-0.527446
C79	C	-0.040530	-0.395407	-0.935652
C80	C	0.005063	-0.791004	-0.738448
C81	C	0.009186	-0.693099	-0.717543
C82	C	0.003779	-0.645796	-0.741620
C83	C	0.005077	-0.521171	-0.603544
C84	C	0.009198	-0.563096	-0.652550
C85	C	0.003786	-0.514804	-0.676131
C86	C	-0.040516	-0.125574	-0.800747
C87	C	0.010719	-0.652613	-0.672809
C88	C	0.000994	-0.556406	-0.720789
C89	C	-0.004621	-0.508585	-0.744908
C90	C	-0.007444	-0.419162	-0.724369
C91	C	-0.004651	-0.377560	-0.679711
C92	C	0.000964	-0.425381	-0.655592
C93	C	-0.007471	-0.288129	-0.659174
C94	C	-0.013086	-0.240308	-0.683293
C95	C	-0.015878	-0.281910	-0.727951
C96	C	-0.013056	-0.371333	-0.748490
C97	C	-0.015848	-0.412935	-0.793148
C98	C	-0.021463	-0.365114	-0.817267
C99	C	-0.024282	-0.275694	-0.796731
C100	C	-0.021490	-0.234092	-0.752073
C101	C	-0.029897	-0.227873	-0.820850
C102	C	-0.032690	-0.269476	-0.865508
C103	C	-0.029867	-0.358899	-0.886047
C104	C	-0.024255	-0.406717	-0.861925
C105	C	-0.013028	-0.502367	-0.813685
C106	C	-0.015821	-0.543969	-0.858343
C107	C	-0.021433	-0.496140	-0.882464
C108	C	-0.012998	-0.633392	-0.878882
C109	C	-0.007383	-0.681213	-0.854763
C110	C	-0.004591	-0.639611	-0.810105
C111	C	-0.007414	-0.550188	-0.789566
C112	C	0.001024	-0.687432	-0.785986
O113	O	-0.000965	0.173549	-0.277957
O114	O	-0.040516	-0.085616	-0.325254
O115	O	0.108737	0.059592	-0.327284
O116	O	-0.150219	0.028341	-0.275927
O117	O	0.114753	0.055151	-0.263265
O118	O	-0.034500	-0.090057	-0.261234
O119	O	0.005051	0.169108	-0.213937
Cu120	Cu	-0.014175	0.039120	-0.231740
Cu121	Cu	-0.021290	0.044372	-0.307451
O122	O	-0.144202	0.023900	-0.211907
O123	O	-0.034458	-0.474571	0.046517
O124	O	0.005076	-0.570190	-0.083599
O125	O	-0.144170	-0.570237	-0.008972
O126	O	0.114787	-0.474523	-0.028110
O127	O	-0.150200	-0.442024	-0.011093
O128	O	-0.000954	-0.441976	-0.085720
O129	O	-0.040488	-0.346357	0.044396
Cu130	Cu	-0.021272	-0.382460	-0.020856
Cu131	Cu	-0.014141	-0.534087	-0.018347
O132	O	0.108757	-0.346309	-0.030231
C133	C	-0.850734	0.086244	-0.289716
C134	C	-0.450996	0.035117	-0.097351
C135	C	-0.410501	0.028587	-0.146852
C136	C	-0.459292	0.034683	-0.169840
C137	C	-0.184802	0.024283	-0.235878
C138	C	-0.282257	0.023363	-0.213592
C139	C	-0.330068	0.029423	-0.237088
C140	C	-0.584541	0.075410	-0.428242
C141	C	-0.321573	0.024104	-0.168302
C142	C	-0.418828	0.035176	-0.215083
C143	C	-0.467711	0.041476	-0.238329
C144	C	-0.427833	0.042022	-0.283580
C145	C	-0.339073	0.036269	-0.305586
C146	C	-0.290190	0.029970	-0.282340
C147	C	-0.299198	0.036812	-0.350842
C148	C	-0.348081	0.043111	-0.374088
C149	C	-0.436841	0.048864	-0.352082
C150	C	-0.476719	0.048318	-0.306830
C151	C	-0.565480	0.054071	-0.284825
C152	C	-0.614362	0.060370	-0.308071
C153	C	-0.574491	0.060913	-0.353321
C154	C	-0.485730	0.055160	-0.375326
C155	C	-0.623374	0.067212	-0.376567
C156	C	-0.712134	0.072965	-0.354561
C157	C	-0.752012	0.072419	-0.309309
C158	C	-0.703123	0.066123	-0.286065
C159	C	-0.605355	0.053528	-0.239569
C160	C	-0.694115	0.059281	-0.217564
C161	C	-0.743001	0.065577	-0.240813
C162	C	-0.733993	0.058735	-0.172312
C163	C	-0.685110	0.052436	-0.149066
C164	C	-0.596350	0.046683	-0.171072
C165	C	-0.556472	0.047229	-0.216323
C166	C	-0.547467	0.040383	-0.147826
O167	O	0.585213	0.169090	-0.504004
O168	O	0.494056	-0.090076	-0.525516
O169	O	0.488081	0.055124	-0.449918
O170	O	0.591189	0.023889	-0.579602
O171	O	0.359978	0.059584	-0.452885
O172	O	0.365953	-0.085616	-0.528483
O173	O	0.457110	0.173550	-0.506971
Cu174	Cu	0.399835	0.044374	-0.517998
Cu175	Cu	0.551332	0.039099	-0.514489
O176	O	0.463086	0.028349	-0.582569
C177	C	0.815354	-0.521094	-0.008709
C178	C	0.415547	-0.125494	-0.028771
C179	C	0.375059	-0.223405	-0.031498
C180	C	0.423859	-0.270708	-0.029121
C181	C	0.149365	-0.395355	-0.030599
C182	C	0.246820	-0.353421	-0.032381
C183	C	0.294640	-0.401713	-0.030008
C184	C	0.549171	-0.790955	-0.010537
C185	C	0.286131	-0.263897	-0.032533
C186	C	0.383402	-0.360104	-0.028335
C187	C	0.432293	-0.407926	-0.025859
C188	C	0.392422	-0.497356	-0.025055
C189	C	0.303660	-0.538965	-0.026727
C190	C	0.254769	-0.491143	-0.029204
C191	C	0.263791	-0.628403	-0.025925
C192	C	0.312683	-0.676224	-0.023448
C193	C	0.401445	-0.634615	-0.021775
C194	C	0.441316	-0.545185	-0.022579
C195	C	0.530078	-0.503576	-0.020906
C196	C	0.578969	-0.551398	-0.018429
C197	C	0.539104	-0.640825	-0.017627
C198	C	0.450342	-0.682434	-0.019300
C199	C	0.587995	-0.688646	-0.015150
C200	C	0.676757	-0.647037	-0.013477
C201	C	0.716628	-0.557607	-0.014281
C202	C	0.667731	-0.509789	-0.016757
C203	C	0.569946	-0.414138	-0.021709
C204	C	0.658708	-0.372530	-0.020036
C205	C	0.707602	-0.420359	-0.017561
C206	C	0.698579	-0.283100	-0.020840
C207	C	0.649688	-0.235278	-0.023317
C208	C	0.560926	-0.276887	-0.024990
C209	C	0.521055	-0.366317	-0.024186
C210	C	0.512035	-0.229066	-0.027467
O211	O	-0.620614	0.089309	0.052274
O212	O	-0.529507	0.043784	-0.078544
O213	O	-0.523494	0.194833	-0.006033
O214	O	-0.626628	-0.061740	-0.020236
O215	O	-0.395386	0.185419	-0.005549
O216	O	-0.401400	0.034370	-0.078059
O217	O	-0.492507	0.079895	0.052758
Cu218	Cu	-0.435256	0.056273	-0.012607
Cu219	Cu	-0.586758	0.067406	-0.013179
O220	O	-0.498521	-0.071154	-0.019752
C221	C	-0.437537	0.048335	0.402491
C222	C	-0.837226	0.099430	0.210091
C223	C	-0.739773	0.100339	0.187806
C224	C	-0.691967	0.094287	0.211308
C225	C	-0.571027	0.088563	0.071568
C226	C	-0.611521	0.095108	0.121070
C227	C	-0.562739	0.089011	0.144061
C228	C	-0.171338	0.037467	0.263967
C229	C	-0.700452	0.099593	0.142516
C230	C	-0.603213	0.088528	0.189308
C231	C	-0.554892	0.082255	0.212848
C232	C	-0.466098	0.076466	0.191141
C233	C	-0.425624	0.076949	0.145894
C234	C	-0.473945	0.083222	0.122354
C235	C	-0.336822	0.071163	0.124188
C236	C	-0.288502	0.064890	0.147728
C237	C	-0.328975	0.064407	0.192975
C238	C	-0.417770	0.070196	0.214682
C239	C	-0.458244	0.069713	0.259929
C240	C	-0.409923	0.063441	0.283469
C241	C	-0.321132	0.057655	0.261765
C242	C	-0.280658	0.058138	0.216518
C243	C	-0.272811	0.051382	0.285305
C244	C	-0.313285	0.050899	0.330552
C245	C	-0.402079	0.056688	0.352259
C246	C	-0.450397	0.062957	0.328716
C247	C	-0.547046	0.075500	0.281635
C248	C	-0.587520	0.075016	0.326882
C249	C	-0.539191	0.068747	0.350423
C250	C	-0.676314	0.080806	0.348589
C251	C	-0.724634	0.087078	0.325049
C252	C	-0.684160	0.087561	0.279802
C253	C	-0.595366	0.081772	0.258095
C254	C	-0.732481	0.093834	0.256262
O255	O	-0.040608	-1.085661	-0.825229
O256	O	-0.001018	-0.826491	-0.777938
O257	O	-0.150287	-0.971682	-0.775894
O258	O	0.108661	-0.940470	-0.827272
O259	O	-0.144253	-0.976123	-0.711878
O260	O	0.005016	-0.830932	-0.713922
O261	O	-0.034575	-1.090102	-0.761213
Cu262	Cu	-0.014228	-0.960923	-0.731722
Cu263	Cu	-0.021364	-0.955670	-0.807428
O264	O	0.114695	-0.944911	-0.763256
C265	C	-0.049547	-0.210620	-0.392935
C266	C	0.026656	-0.136368	-0.395287
C267	C	0.023636	-0.087239	-0.419760
H268	H	-0.102650	-0.190329	-0.378152
H269	H	-0.050169	-0.247954	-0.422731
H270	H	0.027269	-0.099041	-0.365496
H271	H	0.079771	-0.156633	-0.410074
H272	H	0.023014	-0.124573	-0.449556
H273	H	-0.029470	-0.066954	-0.404974
H274	H	0.075342	-0.036858	-0.421362
H275	H	-0.011748	-0.757184	-0.305606
C276	C	-0.031160	-0.672857	-0.429622
C277	C	-0.036686	-0.611091	-0.446106
C278	C	-0.039491	-0.652079	-0.490978
H279	H	-0.082571	-0.723476	-0.430679
H280	H	0.022111	-0.691927	-0.447825
H281	H	-0.089952	-0.592034	-0.427908
H282	H	0.014719	-0.560470	-0.445060
H283	H	0.013781	-0.671149	-0.509181
H284	H	-0.090902	-0.702697	-0.492030
H285	H	-0.043232	-0.610175	-0.502170
H286	H	0.003321	-0.760550	-0.802778
H287	H	-0.453130	0.055597	-0.412328
H288	H	-0.208057	0.053400	0.198770
H289	H	-0.015393	-0.167196	-0.666497
H290	H	-0.047834	-0.232081	-0.882358
H291	H	0.544602	-0.156012	-0.528109
C292	C	-0.019408	-0.774148	-0.379877
C293	C	-0.023090	-0.799806	-0.424284
C294	C	-0.020245	-0.889550	-0.445305
H295	H	-0.069525	-0.811684	-0.363368
H296	H	0.035152	-0.780081	-0.380529
H297	H	-0.077644	-0.793880	-0.423630
H298	H	0.027023	-0.762294	-0.440805
H299	H	0.034315	-0.895483	-0.445956
H300	H	-0.070364	-0.927078	-0.428792
H301	H	-0.022735	-0.906968	-0.475439
C302	C	0.232375	-0.210726	-0.534015
C303	C	0.275912	-0.180918	-0.572981
C304	C	0.226437	-0.131901	-0.574362
H305	H	0.228305	-0.160310	-0.507858
H306	H	0.173350	-0.248122	-0.534685
H307	H	0.334922	-0.143524	-0.572307
H308	H	0.279983	-0.231315	-0.599144
H309	H	0.167412	-0.169297	-0.575032
H310	H	0.222370	-0.081490	-0.548204
H311	H	0.255965	-0.111677	-0.600802
C312	C	-0.821363	0.093613	0.348758
C313	C	-0.823016	0.170545	0.386045
C314	C	-0.912096	0.176621	0.407892
H315	H	-0.857595	0.041682	0.358854
H316	H	-0.844433	0.097496	0.328188
H317	H	-0.799958	0.166654	0.406611
H318	H	-0.786803	0.222490	0.375962
H319	H	-0.935166	0.180504	0.387322
H320	H	-0.948321	0.124685	0.417984
H321	H	-0.913228	0.228823	0.433190
C322	C	-0.024473	-0.541655	-0.931146
C323	C	-0.020789	-0.630570	-0.944025
C324	C	-0.023582	-0.672519	-0.988867
H325	H	0.025662	-0.509983	-0.950581
H326	H	-0.079018	-0.541482	-0.933391
H327	H	0.033749	-0.630738	-0.941784
H328	H	-0.070921	-0.662265	-0.924602
H329	H	-0.078126	-0.672346	-0.991111
H330	H	0.026555	-0.640841	-1.008298
H331	H	-0.021091	-0.732854	-0.997609
H332	H	-0.005182	-0.254109	-0.622664
H333	H	-0.709407	0.080425	0.385586
C334	C	-0.004276	-0.778685	-0.877238
C335	C	-0.007919	-0.804985	-0.921695
C336	C	-0.005046	-0.894764	-0.942416
H337	H	-0.054398	-0.816009	-0.860613
H338	H	0.050280	-0.784416	-0.877770
H339	H	-0.062469	-0.799262	-0.921161
H340	H	0.042199	-0.767685	-0.938333
H341	H	0.049510	-0.900495	-0.942948
H342	H	-0.055169	-0.932080	-0.925787
H343	H	-0.007509	-0.912618	-0.972584
H344	H	0.682288	-0.162154	-0.023969
C345	C	0.232434	-0.210543	-0.033928
C346	C	0.286546	-0.122775	-0.033824
C347	C	0.237111	-0.073601	-0.035110
H348	H	0.180577	-0.208594	-0.008102
H349	H	0.214065	-0.238666	-0.060704
H350	H	0.304902	-0.094659	-0.007051
H351	H	0.338402	-0.124697	-0.059649
H352	H	0.218742	-0.101724	-0.061886
H353	H	0.185256	-0.071659	-0.009283
H354	H	0.273821	-0.014048	-0.035043
H355	H	-0.815575	0.070280	-0.222817
C356	C	0.795238	-0.237654	-0.518945
C357	C	0.819807	-0.148736	-0.520190
C358	C	0.908914	-0.106770	-0.518484
H359	H	0.834556	-0.269311	-0.544215
H360	H	0.799694	-0.237832	-0.491667
H361	H	0.815359	-0.148562	-0.547464
H362	H	0.780513	-0.117055	-0.494921
H363	H	0.913369	-0.106949	-0.491206
H364	H	0.948223	-0.138435	-0.543755
H365	H	0.925593	-0.046433	-0.519324
C366	C	0.406730	-0.779943	-0.018457
C367	C	0.318178	-0.806263	-0.020474
C368	C	0.277986	-0.896084	-0.019706
H369	H	0.405712	-0.785779	0.008759
H370	H	0.440548	-0.817186	-0.043791
H371	H	0.284368	-0.769030	0.004859
H372	H	0.319170	-0.800448	-0.047688
H373	H	0.311805	-0.933327	-0.045041
H374	H	0.276975	-0.901912	0.007510
H375	H	0.217903	-0.913956	-0.021078
C376	C	0.268908	-0.773737	-0.522499
C377	C	0.180359	-0.800049	-0.524518
C378	C	0.140146	-0.889858	-0.523733
H379	H	0.267882	-0.779553	-0.495277
H380	H	0.302718	-0.811000	-0.547826
H381	H	0.146558	-0.762797	-0.499194
H382	H	0.181359	-0.794255	-0.551739
H383	H	0.173955	-0.927121	-0.549060
H384	H	0.139126	-0.895665	-0.496510
H385	H	0.080064	-0.907724	-0.525107
C386	C	0.017285	-0.695962	-0.150675
C387	C	-0.049057	-0.695894	-0.108722
C388	C	-0.030661	-0.737811	-0.085943
H389	H	0.074872	-0.664165	-0.145975
H390	H	0.017162	-0.756250	-0.168380
H391	H	-0.048925	-0.635617	-0.091021
H392	H	-0.106651	-0.727696	-0.113409
H393	H	-0.030783	-0.798099	-0.103648
H394	H	0.026928	-0.706010	-0.081246
H395	H	-0.075674	-0.737778	-0.057477
C396	C	-0.030879	-0.139622	-0.161747
C397	C	0.043080	-0.084647	-0.186244
C398	C	0.040423	0.005175	-0.165405
H399	H	-0.028335	-0.121933	-0.131609
H400	H	-0.085393	-0.133668	-0.161138
H401	H	0.097581	-0.090596	-0.186847
H402	H	0.040552	-0.102307	-0.216381
H403	H	-0.014092	0.011129	-0.164796
H404	H	0.042964	0.022854	-0.135267
H405	H	0.090597	0.042485	-0.182025
H406	H	-0.281187	0.020914	-0.148901
C407	C	0.722032	-0.696924	-0.503485
C408	C	0.672799	-0.712788	-0.461107
C409	C	0.714647	-0.758674	-0.451987
H410	H	0.781807	-0.661500	-0.503245
H411	H	0.724025	-0.752726	-0.526283
H412	H	0.670815	-0.656994	-0.438314
H413	H	0.613026	-0.748220	-0.461336
H414	H	0.716641	-0.814476	-0.474786
H415	H	0.774421	-0.723245	-0.451750
H416	H	0.681245	-0.769451	-0.423236
C417	C	-0.263395	0.030130	0.352700
C418	C	-0.245951	0.103314	0.389882
C419	C	-0.200005	0.084210	0.410300
H420	H	-0.207907	0.019605	0.331346
H421	H	-0.299564	-0.021944	0.362690
H422	H	-0.209783	0.155372	0.379891
H423	H	-0.301423	0.113850	0.411246
H424	H	-0.236174	0.032136	0.420290
H425	H	-0.144520	0.073684	0.388942
H426	H	-0.188171	0.133858	0.435532
H427	H	-0.038841	-0.524079	-0.420431
C428	C	-0.024514	-0.136594	-0.729607
C429	C	-0.020830	-0.110282	-0.685157
C430	C	-0.023604	-0.020473	-0.664452
H431	H	-0.079036	-0.130781	-0.729057
H432	H	0.025645	-0.099331	-0.746262
H433	H	-0.070984	-0.147534	-0.668505
H434	H	0.033689	-0.116073	-0.685694
H435	H	0.026555	0.016790	-0.681107
H436	H	-0.078127	-0.014668	-0.663905
H437	H	-0.021097	-0.002606	-0.634292
H438	H	-0.572284	0.068372	0.387422
H439	H	-0.015274	-0.667410	-0.915397
H440	H	-0.303725	0.071562	0.087197
H441	H	0.182201	-0.525171	-0.030575
H442	H	-0.740818	0.102779	0.123104
H443	H	-0.717713	0.052007	-0.112064
H444	H	-0.217624	0.025258	-0.300336
H445	H	-0.805083	0.098565	0.274011
C446	C	-0.202497	0.030347	-0.374838
C447	C	-0.196214	-0.050279	-0.374696
C448	C	-0.107149	-0.056276	-0.396806
H449	H	-0.163177	0.079776	-0.359523
H450	H	-0.185668	0.031524	-0.405253
H451	H	-0.213032	-0.051448	-0.344286
H452	H	-0.235514	-0.099722	-0.390013
H453	H	-0.090320	-0.055099	-0.427221
H454	H	-0.067836	-0.006843	-0.381489
H455	H	-0.102876	-0.110984	-0.396717
C456	C	0.014030	-0.705833	-0.646193
C457	C	-0.062173	-0.708460	-0.608036
C458	C	-0.059163	-0.757488	-0.583508
H459	H	0.067134	-0.677709	-0.636767
H460	H	0.014644	-0.765446	-0.664866
H461	H	-0.062777	-0.648858	-0.589366
H462	H	-0.115287	-0.736592	-0.617449
H463	H	-0.058550	-0.817101	-0.602181
H464	H	-0.006057	-0.729359	-0.574085
H465	H	-0.110869	-0.759284	-0.557618
H466	H	-0.038719	-0.156659	-0.235851
C467	C	0.167086	-0.673934	-0.027821
C468	C	0.165744	-0.748549	-0.066237
C469	C	0.076674	-0.790535	-0.067998
H470	H	0.143473	-0.632599	-0.029443
H471	H	0.131190	-0.693153	-0.001334
H472	H	0.201626	-0.729329	-0.092717
H473	H	0.189339	-0.789904	-0.064623
H474	H	0.040778	-0.809753	-0.041512
H475	H	0.053068	-0.749193	-0.069619
H476	H	0.075750	-0.841170	-0.094061
C477	C	0.692974	-0.137800	-0.524072
C478	C	0.642905	-0.083157	-0.486714
C479	C	0.682811	0.006714	-0.487423
H480	H	0.693911	-0.131968	-0.551272
H481	H	0.753073	-0.119728	-0.522686
H482	H	0.582821	-0.101223	-0.488103
H483	H	0.641964	-0.088961	-0.459508
H484	H	0.742910	0.024785	-0.486037
H485	H	0.683746	0.012536	-0.514625
H486	H	0.648850	0.043800	-0.462074
C487	C	-0.304464	0.043644	-0.423426
C488	C	-0.215913	0.037210	-0.437785
C489	C	-0.175711	0.037690	-0.483234
H490	H	-0.303443	0.098060	-0.426347
H491	H	-0.338278	-0.006098	-0.441597
H492	H	-0.182108	0.086947	-0.419619
H493	H	-0.216909	-0.017203	-0.434874
H494	H	-0.209525	-0.012052	-0.501405
H495	H	-0.174696	0.092107	-0.486151
H496	H	-0.115628	0.033316	-0.492983
H497	H	0.280077	-0.749342	-0.022791
C498	C	0.003955	-0.379881	-0.606904
C499	C	0.000247	-0.290974	-0.594024
C500	C	0.002985	-0.249037	-0.549174
H501	H	0.058474	-0.380025	-0.604631
H502	H	-0.046207	-0.411595	-0.587488
H503	H	0.050405	-0.259269	-0.613435
H504	H	-0.054268	-0.290804	-0.596287
H505	H	-0.047177	-0.280750	-0.529758
H506	H	0.057505	-0.249187	-0.546904
H507	H	0.000462	-0.188712	-0.540427
C508	C	-0.757597	0.093862	-0.378890
C509	C	-0.708386	0.177263	-0.387519
C510	C	-0.750233	0.196540	-0.409933
H511	H	-0.817381	0.095949	-0.360383
H512	H	-0.759565	0.048280	-0.406755
H513	H	-0.706429	0.222834	-0.359658
H514	H	-0.648603	0.175197	-0.406030
H515	H	-0.752200	0.150958	-0.437797
H516	H	-0.810016	0.198622	-0.391423
H517	H	-0.716845	0.253124	-0.415794
H518	H	-0.020027	-0.251971	-0.124027
C519	C	-0.010898	-0.378433	-0.108848
C520	C	-0.014583	-0.289433	-0.095644
C521	C	-0.011802	-0.248093	-0.050779
H522	H	0.043628	-0.378807	-0.106682
H523	H	-0.061053	-0.410385	-0.089536
H524	H	0.035567	-0.257490	-0.114951
H525	H	-0.069105	-0.289034	-0.097799
H526	H	-0.061956	-0.280044	-0.031466
H527	H	0.042725	-0.248473	-0.048617
H528	H	-0.014310	-0.187705	-0.041812
H529	H	-0.806568	0.063430	-0.154318
H530	H	-0.580066	0.039960	-0.110823
H531	H	-0.215904	0.060157	0.129977
C532	C	0.722239	-0.696877	-0.003625
C533	C	0.673019	-0.712770	0.038748
C534	C	0.714887	-0.758660	0.047852
H535	H	0.782012	-0.661446	-0.003384
H536	H	0.724241	-0.752670	-0.026431
H537	H	0.671027	-0.656987	0.061548
H538	H	0.613248	-0.748210	0.038518
H539	H	0.716889	-0.814453	0.025046
H540	H	0.774659	-0.723224	0.048090
H541	H	0.681493	-0.769457	0.076600
H542	H	0.182115	-0.525189	-0.530531
H543	H	0.780178	-0.386331	-0.016193
C544	C	0.795324	-0.237568	-0.018999
C545	C	0.819872	-0.148643	-0.020228
C546	C	0.908978	-0.106667	-0.018524
H547	H	0.834647	-0.269210	-0.044275
H548	H	0.799789	-0.237761	0.008274
H549	H	0.815414	-0.148455	-0.047498
H550	H	0.780573	-0.116977	0.005046
H551	H	0.913443	-0.106860	0.008749
H552	H	0.948293	-0.138316	-0.043801
H553	H	0.925642	-0.046325	-0.019353
H554	H	-0.440845	0.083623	0.085362
H555	H	0.544632	-0.155941	-0.028119
H556	H	0.191099	-0.662437	-0.527221
H557	H	0.417564	-0.755580	-0.518528
H558	H	0.780052	-0.386407	-0.516111
